#------------------------------------------------------------------------------
#$Date: 2019-11-23 21:18:52 +0200 (Sat, 23 Nov 2019) $
#$Revision: 235051 $
#$URL: file:///home/coder/svn-repositories/cod/cif/4/03/66/4036660.cif $
#------------------------------------------------------------------------------
#
# This file is available in the Crystallography Open Database (COD),
# http://www.crystallography.net/
#
# All data on this site have been placed in the public domain by the
# contributors.
#
data_4036660
loop_
_publ_author_name
'Dziuganowska, Zofia A.'
'\'Slepokura, Katarzyna'
'Volle, Jean-No\"el'
'Virieux, David'
'Pirat, Jean-Luc'
'Kafarski, Pawe\/l'
_publ_section_title
;
 Structural Analogues of Selfotel.
;
_journal_issue                   12
_journal_name_full               'The Journal of organic chemistry'
_journal_page_first              4947
_journal_page_last               4954
_journal_paper_doi               10.1021/acs.joc.6b00220
_journal_volume                  81
_journal_year                    2016
_chemical_formula_moiety         'C6 H6 N O5 P'
_chemical_formula_sum            'C6 H6 N O5 P'
_chemical_formula_weight         203.09
_space_group_crystal_system      triclinic
_space_group_IT_number           2
_space_group_name_Hall           '-P 1'
_space_group_name_H-M_alt        'P -1'
_atom_sites_solution_hydrogens   difmap
_atom_sites_solution_primary     direct
_atom_sites_solution_secondary   difmap
_audit_creation_method           SHELXL-2013
_cell_angle_alpha                68.53(3)
_cell_angle_beta                 63.42(3)
_cell_angle_gamma                88.31(3)
_cell_formula_units_Z            2
_cell_length_a                   7.462(2)
_cell_length_b                   7.805(2)
_cell_length_c                   8.031(2)
_cell_measurement_reflns_used    8190
_cell_measurement_temperature    100(2)
_cell_measurement_theta_max      28.80
_cell_measurement_theta_min      2.84
_cell_volume                     384.2(2)
_computing_cell_refinement
;
CrysAlisPro, Agilent Technologies,
Version 1.171.35.19 (release 27-10-2011 CrysAlis171 .NET)
(compiled Oct 27 2011,15:02:11)
;
_computing_data_collection
;
CrysAlisPro, Agilent Technologies,
Version 1.171.35.19 (release 27-10-2011 CrysAlis171 .NET)
(compiled Oct 27 2011,15:02:11)
;
_computing_data_reduction
;
CrysAlisPro, Agilent Technologies,
Version 1.171.35.19 (release 27-10-2011 CrysAlis171 .NET)
(compiled Oct 27 2011,15:02:11)
;
_computing_structure_refinement  'SHELXL-2013 (Sheldrick, 2008)'
_computing_structure_solution    'SHELXs-97 (Sheldrick, 2008)'
_diffrn_ambient_temperature      100(2)
_diffrn_measured_fraction_theta_full 0.999
_diffrn_measured_fraction_theta_max 0.937
_diffrn_measurement_device_type
;
Xcalibur R kappa-geometry diffractometer with a Ruby 
CCD camera 
;
_diffrn_measurement_method       'omega scans'
_diffrn_radiation_type           MoK\a
_diffrn_radiation_wavelength     0.71073
_diffrn_reflns_av_R_equivalents  0.0162
_diffrn_reflns_av_unetI/netI     0.0115
_diffrn_reflns_Laue_measured_fraction_full 0.999
_diffrn_reflns_Laue_measured_fraction_max 0.937
_diffrn_reflns_limit_h_max       9
_diffrn_reflns_limit_h_min       -10
_diffrn_reflns_limit_k_max       10
_diffrn_reflns_limit_k_min       -10
_diffrn_reflns_limit_l_max       10
_diffrn_reflns_limit_l_min       -10
_diffrn_reflns_number            9957
_diffrn_reflns_point_group_measured_fraction_full 0.999
_diffrn_reflns_point_group_measured_fraction_max 0.937
_diffrn_reflns_theta_full        26.000
_diffrn_reflns_theta_max         28.863
_diffrn_reflns_theta_min         2.842
_diffrn_source                   'Enhance (Mo) X-ray Source'
_exptl_absorpt_coefficient_mu    0.346
_exptl_absorpt_correction_T_max  1.000
_exptl_absorpt_correction_T_min  0.979
_exptl_absorpt_correction_type   multi-scan
_exptl_absorpt_process_details
;
CrysAlisPro, Agilent Technologies,
Version 1.171.35.19 (release 27-10-2011 CrysAlis171 .NET)
(compiled Oct 27 2011,15:02:11)
Empirical absorption correction using spherical harmonics,
 implemented in SCALE3 ABSPACK scaling algorithm.
;
_exptl_crystal_colour            colourless
_exptl_crystal_density_diffrn    1.756
_exptl_crystal_description       block
_exptl_crystal_F_000             208
_exptl_crystal_size_max          0.50
_exptl_crystal_size_mid          0.38
_exptl_crystal_size_min          0.28
_refine_diff_density_max         0.392
_refine_diff_density_min         -0.416
_refine_diff_density_rms         0.065
_refine_ls_extinction_method     none
_refine_ls_goodness_of_fit_ref   1.087
_refine_ls_hydrogen_treatment    constr
_refine_ls_matrix_type           full
_refine_ls_number_parameters     120
_refine_ls_number_reflns         1887
_refine_ls_number_restraints     0
_refine_ls_restrained_S_all      1.087
_refine_ls_R_factor_all          0.0274
_refine_ls_R_factor_gt           0.0264
_refine_ls_shift/su_max          0.000
_refine_ls_shift/su_mean         0.000
_refine_ls_structure_factor_coef Fsqd
_refine_ls_weighting_details
'w=1/[\s^2^(Fo^2^)+(0.0353P)^2^+0.2780P] where P=(Fo^2^+2Fc^2^)/3'
_refine_ls_weighting_scheme      calc
_refine_ls_wR_factor_gt          0.0718
_refine_ls_wR_factor_ref         0.0727
_reflns_Friedel_coverage         0.000
_reflns_number_gt                1808
_reflns_number_total             1887
_reflns_threshold_expression     'I > 2\s(I)'
_cod_data_source_file            jo6b00220_si_003.cif
_cod_data_source_block           09_zd097
_cod_database_code               4036660
_shelx_space_group_comment
;
The symmetry employed for this shelxl refinement is uniquely defined
by the following loop, which should always be used as a source of
symmetry information in preference to the above space-group names.
They are only intended as comments.
;
_shelx_estimated_absorpt_t_min   0.846
_shelx_estimated_absorpt_t_max   0.909
_shelxl_version_number           2013-4
_shelx_res_file
;
TITL zd097 in P-1
CELL 0.71073   7.462    7.805    8.031   68.53   63.42   88.31
ZERR    2.00   0.002    0.002    0.002    0.03    0.03    0.03
LATT  1
SFAC C H N O P
UNIT 12 12 2 10 2

L.S. 10
BOND $h
FMAP 2
PLAN 19
size 0.50 0.38 0.28
temp -173
acta 52
conf

EQIV $1 -x, -y+1, -z+1
EQIV $2 -x, -y, -z+2
EQIV $3 x+1, y, z
EQIV $4 -x, -y, -z+1
EQIV $5 x+1, y, z-1
EQIV $6 x, y, z-1

HTAB O3 O2_$1
HTAB O5 O1_$2
HTAB N1 O2_$3
HTAB C4 O1_$4
HTAB C5 O3_$5
HTAB C5 O4_$6

htab
WGHT    0.035300    0.278000
FVAR      17.50558
P1    5    0.013255    0.216742    0.612982    11.00000    0.00579    0.00963 =
         0.00662   -0.00283   -0.00286    0.00027
O1    4   -0.085702    0.019132    0.749175    11.00000    0.01171    0.01182 =
         0.00871   -0.00252   -0.00398   -0.00247
O2    4   -0.055791    0.313794    0.456051    11.00000    0.00813    0.01263 =
         0.00986   -0.00399   -0.00532    0.00132
O3    4   -0.009950    0.333115    0.742845    11.00000    0.01175    0.01122 =
         0.00869   -0.00438   -0.00471    0.00214
AFIX 147
H3    2    0.008770    0.447280    0.670889    11.00000   -1.50000
AFIX   0
O4    4    0.462301    0.306671    0.782425    11.00000    0.01932    0.02381 =
         0.01286   -0.00696   -0.00698   -0.00639
O5    4    0.221223    0.070796    0.882446    11.00000    0.01422    0.01335 =
         0.00754   -0.00183   -0.00467   -0.00232
AFIX 147
H5    2    0.191153    0.060247    1.000196    11.00000   -1.50000
AFIX   0
N1    3    0.624512    0.258957    0.413226    11.00000    0.00770    0.01153 =
         0.01058   -0.00397   -0.00575    0.00121
AFIX  43
H1N   2    0.709234    0.262443    0.461098    11.00000   -1.20000
AFIX   0
C2    1    0.423632    0.233052    0.537621    11.00000    0.00908    0.00762 =
         0.00846   -0.00285   -0.00396    0.00100
C3    1    0.286281    0.232777    0.464675    11.00000    0.00760    0.00752 =
         0.00857   -0.00279   -0.00368    0.00078
C4    1    0.364954    0.259633    0.261095    11.00000    0.01019    0.01083 =
         0.01019   -0.00418   -0.00566    0.00143
AFIX  43
H4A   2    0.274943    0.263645    0.205996    11.00000   -1.20000
AFIX   0
C5    1    0.572286    0.280477    0.138563    11.00000    0.01087    0.01458 =
         0.00953   -0.00554   -0.00381    0.00157
AFIX  43
H5A   2    0.624584    0.295025    0.001574    11.00000   -1.20000
AFIX   0
C6    1    0.700817    0.279660    0.219483    11.00000    0.00809    0.01368 =
         0.01094   -0.00506   -0.00278    0.00165
AFIX  43
H6A   2    0.843353    0.293741    0.138202    11.00000   -1.20000
AFIX   0
C7    1    0.368767    0.207525    0.752288    11.00000    0.00947    0.01149 =
         0.00951   -0.00411   -0.00566    0.00345
HKLF 4

REM  zd097 in P-1
REM R1 =  0.0264 for    1808 Fo > 4sig(Fo)  and  0.0274 for all    1887 data
REM    120 parameters refined using      0 restraints

END

WGHT      0.0353      0.2780

REM Instructions for potential hydrogen bonds
HTAB O3 O2_$1
HTAB O5 O1_$2
HTAB N1 O2_$3
HTAB C4 O1_$4
HTAB C5 O3_$5
HTAB C5 O4_$6

REM Highest difference peak  0.392,  deepest hole -0.416,  1-sigma level  0.065
Q1    1   0.1676  0.2203  0.5375  11.00000  0.05    0.39
Q2    1   0.3931  0.2213  0.6398  11.00000  0.05    0.37
Q3    1   0.3333  0.2526  0.3602  11.00000  0.05    0.37
Q4    1   0.4729  0.2623  0.2035  11.00000  0.05    0.36
Q5    1   0.3468  0.2308  0.4964  11.00000  0.05    0.30
Q6    1   0.6213  0.2555  0.1935  11.00000  0.05    0.27
Q7    1   0.6634  0.2676  0.3067  11.00000  0.05    0.27
Q8    1  -0.0263  0.2802  0.5209  11.00000  0.05    0.26
Q9    1   0.0021  0.2811  0.6792  11.00000  0.05    0.25
Q10   1   0.5266  0.2401  0.4661  11.00000  0.05    0.24
Q11   1  -0.0286  0.1007  0.7013  11.00000  0.05    0.21
Q12   1  -0.1336 -0.0012  0.8629  11.00000  0.05    0.19
Q13   1   0.8585  0.2405  0.1834  11.00000  0.05    0.18
Q14   1  -0.0424  0.2787  0.8448  11.00000  0.05    0.16
Q15   1   0.0411  0.2975  0.7917  11.00000  0.05    0.16
Q16   1   0.5148  0.3624  0.7112  11.00000  0.05    0.16
Q17   1  -0.1216  0.2465  0.4632  11.00000  0.05    0.14
Q18   1   0.0103 -0.1393  0.8442  11.00000  0.05    0.14
Q19   1  -0.1068 -0.0092  0.7173  11.00000  0.05    0.13
;
_shelx_res_checksum              28405
_shelx_hkl_file
;
   0   0  -1 482464. 1708.32   5
   0   0   1 478570. 1699.34   5
   0   0   1 478656. 1827.42  11
   0   0   1 500612. 1876.85   3
   0   0   1 501485. 1838.20   7
   0   0   2 216074. 1727.41   7
   0   0  -2 215856. 1767.31  11
   0   0   2 212072. 1280.13  10
   0   0  -2 214166. 1300.44  10
   0   0   2 217678. 1737.24   3
   0   0  -2 217750. 1771.92   3
   0   0   2 213037. 1589.05   5
   0   0  -2 214680. 1505.08   8
   0   0   2 215768. 1146.96   2
   0   0  -2 210148. 1617.38   5
   0   0  -2 212282. 1724.07   4
   0   0   2 212711. 1276.03  12
   0   0   2 210108. 1776.78   4
   0   0   2 215206. 1487.61   8
   0   0   2 214000. 896.301   9
   0   0   2 214410. 1722.07  11
   0   0   3 187825. 2012.00   7
   0   0  -3 192595. 2070.57  11
   0   0   3 198022. 1867.76   5
   0   0   3 190764. 1454.71  10
   0   0  -3 187363. 2053.13   3
   0   0   3 195911. 2028.82  11
   0   0  -3 193696. 1899.72   5
   0   0  -3 199441. 2038.31   4
   0   0   3 191466. 2086.96   4
   0   0   3 192691. 1304.56   2
   0   0   3 191790. 1716.87   8
   0   0   3 193735. 1456.78  12
   0   0  -3 190271. 1506.19  10
   0   0   3 198280. 2013.23   3
   0   0  -3 185151. 1755.23   8
   0   0   3 191172. 982.547   9
   0   0  -4 43268.7 1145.62   3
   0   0   4 44376.3 820.192  10
   0   0   4 42180.7 1155.44   4
   0   0  -4 43974.4 975.586   8
   0   0  -4 44254.9 1166.93  11
   0   0  -4 44283.9 839.365  10
   0   0   4 44694.5 956.358   8
   0   0   4 43257.1 1122.57   7
   0   0   4 42962.1 485.199   9
   0   0  -4 43177.1 1055.58   5
   0   0   4 44976.3 717.376   2
   0   0   4 44439.9 815.083  12
   0   0  -5 48816.2 1379.33   3
   0   0  -5 49017.8 1161.32   8
   0   0  -5 50343.4 1404.18  11
   0   0  -5 50036.3 990.693  10
   0   0   5 50495.9 952.260  10
   0   0  -5 50720.5 1283.85   5
   0   0   5 48821.7 1400.61   4
   0   0   5 48650.9 1348.44   7
   0   0   5 51792.9 837.030   2
   0   0   5 50592.4 951.978  12
   0   0  -6 176333. 2402.47   8
   0   0  -6 181571. 2946.35  11
   0   0   6 174428. 2965.01   4
   0   0   6 182822. 1638.42   2
   0   0  -6 175075. 2890.46   3
   0   0   6 171061. 2802.93   7
   0   0  -6 175333. 2643.69   5
   0   0  -6 180089. 2019.62  10
   0   0   7 781.467 186.598   6
   0   0  -7 303.461 171.386   3
   0   0  -7 583.407 190.457   5
   0   0   7 688.731 230.542   4
   0   0   7 519.567 185.422   7
   0   0  -7 676.159 229.299  11
   0   0  -8 106904. 2444.73   5
   0   0  -8 112632. 2751.14   3
   0   0  -8 108607. 2704.45  11
   0   0   8 109393. 2391.28   6
   0   0   8 111312. 2703.08   7
   0  -1   8 4928.61 586.154   7
   0  -1   8 4733.20 492.977   6
   0   1  -8 5184.32 525.208   5
   0   1  -7 79362.1 1922.28   5
   0  -1   7 79155.8 2238.52   4
   0   1  -7 78060.3 2175.02  11
   0   1  -7 82147.5 1873.32   8
   0  -1   7 76516.9 2094.26   7
   0   1  -7 78674.2 2171.54   3
   0  -1   6 120546. 2417.12   7
   0   1  -6 122796. 2511.87  11
   0   1  -6 121019. 2485.41   3
   0  -1   6 119513. 2534.62   4
   0   1  -6 124193. 1798.81  10
   0   1  -6 121757. 2098.12   8
   0   1  -6 119636. 2135.71   5
   0   1  -5 763.852 195.743  11
   0  -1   5 811.259 89.6367   2
   0  -1   5 766.019 127.723  10
   0  -1   5 874.974 134.159  12
   0  -1   5 784.666 192.725   7
   0   1  -5 714.722 160.709   8
   0  -1   5 862.217 110.889   9
   0  -1   5 643.052 187.045   4
   0   1  -5 805.894 146.252  10
   0   1  -5 766.477 158.803   5
   0   1  -5 662.769 185.500   3
   0  -1   4 52914.5 1351.18   4
   0  -1   4 53301.0 993.376  10
   0   1  -4 53708.7 1342.50  11
   0   1  -4 54577.3 1348.13   3
   0  -1   4 54601.7 846.149   9
   0  -1   4 53061.1 1295.52   7
   0   1  -4 53668.1 1015.75  10
   0  -1   4 54749.9 682.455   2
   0  -1   4 51791.1 981.286  12
   0   1  -4 53388.9 1143.53   5
   0   1  -4 54682.8 1174.36   8
   0  -1   3 29542.3 659.536  10
   0  -1   3 28571.2 726.735   8
   0  -1   3 28924.2 597.622   9
   0  -1   3 28047.6 701.745   5
   0   1  -3 28704.5 747.914   8
   0   1  -3 28767.6 721.982   5
   0  -1   3 27153.5 846.050   4
   0   1  -3 28703.7 853.144   3
   0   1  -3 28116.0 663.883  10
   0   1  -3 28834.3 855.110  11
   0  -1   2 9842.67 334.604  10
   0   1  -2 9832.86 420.406  11
   0  -1   2 9939.74 369.723   6
   0   1  -2 9542.58 341.704  10
   0   1  -2 9791.28 378.681   8
   0  -1   2 9904.64 368.321   8
   0  -1   2 9841.47 424.399   4
   0  -1   2 9728.81 405.090   3
   0  -1   2 9843.75 332.197   5
   0   1  -2 9844.06 344.146   5
   0  -1   2 10565.6 414.779  11
   0   1  -2 9823.59 401.899   4
   0   1  -2 9519.09 419.217   3
   0   1  -1 24071.7 488.895   8
   0   1  -1 26040.4 388.526   5
   0   1  -1 24926.3 465.605  10
   0  -1   1 24175.3 509.858   3
   0  -1   1 24218.1 489.189  11
   0  -1   1 24979.7 501.249   4
   0  -1   1 24782.8 378.268   5
   0   1  -1 24088.4 492.542  11
   0  -1   1 24439.7 334.228   2
   0   1  -1 24864.7 489.521   4
   0   1  -1 24069.5 522.009   3
   0  -1   1 23955.0 477.594   8
   0  -1   1 25483.7 476.112   6
   0  -1   1 25052.0 458.236  10
   0  -1   0 65038.4 647.102  10
   0   1   0 66471.4 625.843   6
   0  -1   0 64447.9 592.412   2
   0   1   1 224391. 1169.64  10
   0  -1  -1 219079. 1167.80  10
   0   1   1 222339. 1282.11   6
   0  -1  -1 224756. 1272.65   6
   0  -1  -1 215633. 1255.94   2
   0  -1  -1 213222. 1011.27  11
   0  -1  -1 220644. 1274.81   7
   0   1   1 218430. 1266.25   2
   0   1   1 222554. 1249.44   3
   0  -1  -1 214586. 986.993   4
   0   1   1 216357. 1274.59   7
   0   1   1 209741. 985.335   4
   0   1   1 216848. 1007.22  11
   0   1   1 211362. 1236.48   5
   0  -1  -1 211980. 1244.38   5
   0   1   2 42190.3 718.532   6
   0  -1  -2 41952.4 580.666  10
   0  -1  -2 40911.1 742.761   3
   0  -1  -2 41652.1 718.692   7
   0   1   2 42188.0 703.138  11
   0   1   2 42716.7 732.358   3
   0  -1  -2 42137.0 707.103  11
   0   1   2 42895.3 757.478   7
   0   1   2 42155.2 573.734  12
   0  -1  -2 41857.9 637.607   2
   0   1   2 42255.6 574.225  10
   0  -1  -2 41235.5 690.678   4
   0   1   2 42181.3 711.567   4
   0   1   2 44450.4 756.131   5
   0  -1  -2 42349.0 748.190   5
   0   1   2 42341.6 653.364   2
   0  -1  -2 41912.4 579.165  12
   0   1   3 38765.3 846.755   5
   0  -1  -3 40954.7 869.321   7
   0   1   3 39145.4 645.349  12
   0  -1  -3 38447.1 870.354  11
   0   1   3 40094.7 895.415   7
   0  -1  -3 40161.4 666.818  10
   0  -1  -3 39867.3 661.113  12
   0  -1  -3 37908.0 884.042   3
   0   1   3 41659.8 883.674   3
   0  -1  -3 39579.5 885.278   5
   0   1   3 40152.9 752.362   8
   0   1   3 38750.6 646.286  10
   0   1   3 39827.9 718.905   2
   0  -1  -3 40689.1 701.656   2
   0   1   3 40827.4 859.393  11
   0   1   3 38733.7 828.408   6
   0   1   3 40150.3 896.709   4
   0  -1  -3 40917.6 862.533   4
   0   1   4 706.662 121.853   8
   0   1   4 847.714 151.468   6
   0   1   4 869.802 165.503   7
   0  -1  -4 891.873 119.532  12
   0  -1  -4 728.709 150.097   5
   0  -1  -4 802.857 115.378  10
   0   1   4 758.938 114.716   2
   0  -1  -4 905.186 167.386  11
   0   1   4 869.285 114.314  12
   0   1   4 813.895 110.114  10
   0   1   4 1013.14 174.312   4
   0  -1  -4 841.847 170.004   3
   0   1   5 17971.9 574.367   2
   0   1   5 17665.4 551.675  10
   0  -1  -5 17103.5 800.076   3
   0  -1  -5 17527.7 567.792  10
   0   1   5 17789.7 811.832   4
   0   1   5 17555.1 550.033  12
   0   1   5 18206.9 800.748   7
   0  -1  -5 17298.5 792.965  11
   0  -1  -5 17333.0 767.258   5
   0   1   5 17067.1 723.846   6
   0  -1  -6 52169.5 1533.16  11
   0  -1  -6 51747.0 1530.16   3
   0   1   6 50609.7 1488.33   7
   0   1   6 52543.6 1565.40   4
   0   1   6 53884.7 1052.43   2
   0  -1  -6 51126.6 1449.63   5
   0   1   6 49599.4 1366.13   6
   0  -1  -6 52723.6 1064.39  10
   0  -1  -7 84825.4 2132.99  11
   0   1   7 85457.9 1922.14   6
   0  -1  -7 87193.1 2165.12   3
   0  -1  -7 84619.6 2043.06   5
   0   1   7 85538.1 2188.65   4
   0   1   7 83384.8 2103.54   7
   0  -1  -8 28212.6 1270.25   5
   0   1   8 27907.6 1323.73   7
   0  -1  -8 28898.5 1357.01   3
   0   1   8 27708.7 1204.92   6
   0  -1  -8 29540.5 1360.47  11
   0  -1  -9 840.899 258.334   5
   0   1   9 838.441 231.310   6
   0   2  -7 7996.76 725.578   3
   0   2  -7 7909.74 725.814  11
   0  -2   7 7829.84 707.428   7
   0   2  -7 9096.01 645.256   8
   0  -2   6 38113.3 1406.54   7
   0   2  -6 39615.2 1233.76   5
   0   2  -6 39984.7 1475.02  11
   0  -2   6 40258.1 1514.23   4
   0   2  -6 40086.0 1116.55  10
   0   2  -6 39305.9 1476.05   3
   0   2  -6 40631.0 1287.27   8
   0  -2   5 51444.4 1559.27   4
   0   2  -5 53986.9 1220.48  10
   0   2  -5 52484.9 1258.82   5
   0  -2   5 50218.6 1481.08   7
   0   2  -5 53491.1 1364.55   8
   0   2  -5 54103.1 1571.91  11
   0  -2   5 55433.2 1083.35   9
   0   2  -5 50296.3 1535.52   3
   0  -2   4 4941.07 322.076   9
   0   2  -4 4609.43 425.738   3
   0   2  -4 5026.51 434.299  11
   0   2  -4 5568.47 369.146  10
   0   2  -4 4637.77 375.269   8
   0  -2   4 4806.37 193.977   2
   0   2  -4 4811.36 341.046   5
   0  -2   4 5233.48 454.309   4
   0  -2   3 34714.7 775.465   5
   0   2  -3 34768.8 996.796  11
   0   2  -3 35449.1 940.451   8
   0  -2   3 34741.7 1013.19   4
   0  -2   3 36126.1 833.134   9
   0  -2   3 36403.3 897.348   6
   0   2  -3 34162.1 1022.67   3
   0  -2   3 36714.2 850.732  10
   0  -2   3 35373.8 544.405   2
   0   2  -3 34933.9 855.003  10
   0  -2   3 35846.4 920.919   8
   0   2  -3 34507.9 778.118   5
   0  -2   2 623.897 117.448  11
   0  -2   2 684.109 80.7575   2
   0  -2   2 600.495 107.686  10
   0  -2   2 647.620 111.724   6
   0  -2   2 726.265 94.8772   5
   0   2  -2 542.170 110.650   4
   0   2  -2 684.591 126.317   8
   0   2  -2 679.261 133.371   3
   0   2  -2 632.003 92.1065   5
   0   2  -2 642.402 124.677  11
   0  -2   2 565.223 121.156   4
   0  -2   2 596.305 118.755   3
   0   2  -2 534.224 107.274  10
   0  -2   1 353940. 2103.27  11
   0  -2   1 350378. 2125.05   4
   0   2  -1 337863. 1798.58   2
   0  -2   1 357388. 2187.92   6
   0  -2   1 356101. 1809.19   2
   0   2  -1 357167. 2088.48   4
   0  -2   1 344278. 2203.20  10
   0   2  -1 336725. 2372.10   3
   0  -2   1 346677. 1468.11   5
   0   2  -1 341032. 2222.54   6
   0   2  -1 338042. 2272.67  10
   0   2  -1 338610. 2352.41   8
   0   2  -1 343342. 2108.27  11
   0   2   1 969600. 3527.83   2
   0  -2  -1 999999. 3436.36  10
   0  -2  -1 978963. 3381.29   6
   0  -2  -1 981255. 3448.78  10
   0   2   1 978410. 3463.26   6
   0   2   1 950760. 3451.25  10
   0  -2  -1 978987. 3445.26   2
   0   2   2 12394.5 422.053   5
   0  -2  -2 13303.7 436.554   2
   0  -2  -2 12179.4 420.222   6
   0   2   2 12199.8 433.164   6
   0   2   2 12017.8 409.787   3
   0  -2  -2 11982.6 282.274   1
   0   2   2 12231.7 280.377   1
   0   2   2 11980.5 379.919  10
   0   2   2 11811.4 424.185   2
   0  -2  -2 12214.7 391.952  10
   0  -2  -2 12490.7 434.895   5
   0  -2  -2 12482.9 425.926   7
   0   2   2 11757.2 331.641   4
   0  -2  -2 12699.1 346.664  11
   0  -2  -2 12004.0 329.274   4
   0  -2  -3 541450. 2768.31  10
   0  -2  -3 547821. 3357.20   3
   0   2   3 526718. 2542.84   1
   0  -2  -3 559897. 3213.50   6
   0  -2  -3 528958. 2867.51   4
   0   2   3 564891. 3262.99   3
   0  -2  -3 543478. 2761.88  12
   0  -2  -3 560940. 3251.80   7
   0  -2  -3 516032. 3296.30   5
   0  -2  -3 534301. 1970.42   9
   0   2   3 529227. 2914.46  11
   0   2   3 515755. 2971.44   4
   0   2   3 557673. 2718.59  10
   0   2   3 538606. 3242.20   6
   0   2   3 534527. 3296.85   5
   0   2   3 546575. 3401.22   7
   0  -2  -3 526331. 2956.80   2
   0  -2  -3 522844. 2954.78  11
   0  -2  -4 42562.5 1093.81   3
   0  -2  -4 47382.0 1048.12   4
   0  -2  -4 42951.8 404.438   9
   0   2   4 44375.6 1055.32   6
   0  -2  -4 44384.0 848.258  12
   0   2   4 45980.7 935.399   1
   0   2   4 48427.3 1001.51   2
   0  -2  -4 43601.4 1103.66   5
   0  -2  -4 43660.4 1032.66  11
   0   2   4 45417.8 1077.71   4
   0   2   4 45721.5 957.575   8
   0  -2  -4 45720.2 870.313  10
   0  -2  -4 45085.0 941.348   2
   0  -2  -4 44029.7 412.823   9
   0   2   4 44726.6 846.814  10
   0   2   4 44754.2 1123.29   7
   0   2   5 208721. 1949.60  10
   0  -2  -5 204642. 2678.82   5
   0   2   5 205836. 2201.14   2
   0  -2  -5 207551. 2711.99   3
   0  -2  -5 209608. 2614.01  11
   0   2   5 203217. 2514.55   6
   0   2   5 201919. 2632.06   4
   0   2   5 209571. 2718.83   7
   0  -2  -5 204963. 2004.84  10
   0  -2  -5 204935. 1998.79  12
   0  -2  -6 15594.7 585.870  10
   0  -2  -6 15135.4 820.138   3
   0   2   6 15578.1 641.513   2
   0   2   6 15581.2 826.187   7
   0   2   6 16327.3 787.703   6
   0  -2  -6 15798.3 813.472  11
   0  -2  -6 14862.7 570.086  12
   0  -2  -6 15677.5 821.367   5
   0   2   6 15188.4 812.918   4
   0   2   6 15254.7 537.903  10
   0  -2  -7 1906.68 324.389  11
   0   2   7 1915.65 296.984   6
   0  -2  -7 1950.78 326.581   5
   0   2   7 1534.77 287.142   7
   0  -2  -7 1782.05 314.962   3
   0   2   7 2283.74 261.921   2
   0  -2  -7 1947.94 222.768  10
   0  -2  -8 12601.7 858.371   5
   0   2   8 11990.4 860.443   7
   0  -2  -8 12249.6 853.344  11
   0  -2  -8 12097.1 873.636   3
   0   2   8 13388.6 833.774   6
   0   2   9 14775.8 930.870   6
   0  -2  -9 16283.8 1040.13   5
   0  -3   7 5.14595 110.012   7
   0   3  -6 28352.5 1303.46   3
   0   3  -6 30456.2 1197.18   8
   0  -3   6 29350.5 1333.17   4
   0  -3   6 29387.0 1293.17   7
   0   3  -6 30198.9 1327.55  11
   0   3  -5 25611.3 923.350  10
   0  -3   5 24676.9 1118.17   4
   0  -3   5 25350.3 869.986   9
   0   3  -5 25068.4 1119.41  11
   0   3  -5 24878.5 996.913   8
   0   3  -5 25890.0 1161.45   3
   0  -3   4 96107.8 918.793   2
   0   3  -4 92923.7 1812.81   8
   0  -3   4 90838.8 1945.94   4
   0   3  -4 91454.0 1924.05  11
   0  -3   4 92961.6 1625.18   9
   0   3  -4 90237.0 1970.78   3
   0   3  -4 91487.9 1667.46  10
   0   3  -3 32341.0 947.758  10
   0  -3   3 34573.9 745.142   5
   0  -3   3 34145.4 954.114   9
   0   3  -3 32799.5 1006.45   8
   0  -3   3 33230.7 1041.48   4
   0   3  -3 32392.1 1072.69   3
   0  -3   3 34127.2 639.155   2
   0   3  -3 34606.4 1050.43  11
   0   3  -2 368122. 3014.54  10
   0  -3   2 374000. 2253.38   2
   0  -3   2 370278. 2885.43   6
   0   3  -2 366057. 3257.45   3
   0  -3   2 368190. 2972.39   4
   0  -3   2 368870. 2888.49  11
   0   3  -2 367162. 3123.18   8
   0   3  -2 369378. 2956.05  11
   0  -3   2 372353. 2033.29   5
   0   3  -1 4225.68 262.972  11
   0  -3   1 4265.74 284.527   6
   0  -3   1 4240.99 174.865   5
   0   3  -1 4689.87 326.149  10
   0  -3   1 4302.20 263.129   4
   0   3  -1 4414.76 318.514   3
   0   3  -1 4391.02 325.139   8
   0  -3   1 4295.69 251.181   2
   0   3  -1 4536.84 307.215   6
   0   3  -1 3910.50 245.566   2
   0  -3   1 4389.63 261.613  11
   0  -3   1 4360.20 302.484  10
   0   3   0 344738. 2514.26   6
   0   3   0 357420. 2425.90   2
   0   3   0 348048. 2655.05  10
   0  -3   0 364335. 2483.32   6
   0   3   0 350199. 1817.05  11
   0  -3   0 350066. 1764.69  11
   0  -3   0 355081. 2559.61  10
   0  -3   0 360783. 1713.57   4
   0  -3   0 359110. 2366.14   2
   0  -3  -1 222969. 1988.25  10
   0  -3  -1 229845. 1965.86   2
   0   3   1 220703. 2078.86  10
   0  -3  -1 223499. 984.282  11
   0   3   1 223748. 2028.11   6
   0  -3  -1 225301. 1936.52   6
   0  -3  -1 215771. 2012.78  10
   0   3   1 219736. 2033.92   2
   0  -3  -1 221515. 1430.42   1
   0  -3  -2 3893.48 266.881   6
   0  -3  -2 4035.95 156.445   4
   0   3   2 4084.71 158.238   1
   0  -3  -2 3940.90 271.407  10
   0   3   2 4189.58 291.457   6
   0   3   2 4123.38 298.135   2
   0  -3  -2 4138.02 270.906  10
   0  -3  -2 4015.36 278.780   2
   0  -3  -2 4180.11 163.094   1
   0  -3  -2 4439.77 185.230  11
   0  -3  -2 4173.94 269.027   5
   0   3   3 86813.4 1251.84  10
   0  -3  -3 83363.7 1053.48   4
   0   3   3 82957.9 1390.21   2
   0   3   3 80495.5 1386.32   6
   0  -3  -3 85635.7 1109.45  11
   0   3   3 89348.6 1360.33   3
   0  -3  -3 85022.8 1394.46   5
   0  -3  -3 86954.3 1372.66   2
   0  -3  -3 87422.9 1389.18   7
   0   3   3 86058.1 892.847   1
   0  -3  -3 88228.3 1373.30   6
   0  -3  -3 85559.0 1246.14  10
   0  -3  -3 84591.9 1266.94  10
   0  -3  -4 153375. 1833.76  11
   0  -3  -4 151446. 1760.02  12
   0   3   4 153801. 1545.90   1
   0  -3  -4 153978. 1778.23   4
   0  -3  -4 150613. 1316.92   9
   0   3   4 155792. 2075.55   6
   0   3   4 151387. 1996.82   2
   0  -3  -4 151286. 1762.31  10
   0   3   4 151055. 2115.49   7
   0  -3  -4 150691. 2095.99   5
   0   3   4 157370. 1774.80  10
   0   3   5 369.221 128.256   7
   0   3   5 319.445 115.177   2
   0  -3  -5 427.830 58.3199   9
   0  -3  -5 346.373 120.704  11
   0  -3  -5 456.484 151.619   5
   0   3   5 914.651 191.163   6
   0   3   5 568.510 115.710  10
   0  -3  -5 499.995 114.801  10
   0  -3  -5 285.488 134.627   3
   0   3   5 256.084 119.946   4
   0   3   5 419.346 103.382   1
   0  -3  -5 403.278 58.6795   9
   0  -3  -5 434.148 105.876  12
   0   3   6 207693. 2561.23   2
   0  -3  -6 211269. 2277.42  10
   0  -3  -6 207505. 2822.72  11
   0   3   6 202806. 2815.54   6
   0  -3  -6 201586. 2983.56   5
   0  -3  -6 206568. 2979.03   3
   0   3   6 204330. 3006.39   7
   0  -3  -6 211435. 2268.89  12
   0  -3  -7 12547.0 808.967   5
   0  -3  -7 12408.8 769.784  11
   0  -3  -7 12610.9 581.819  10
   0   3   7 12673.4 756.799   6
   0  -3  -7 12197.9 798.288   3
   0   3   7 12751.6 666.361   2
   0   3   7 12789.1 820.442   7
   0  -3  -7 12791.9 585.468  12
   0   3   8 1944.64 363.632   7
   0   3   8 1964.09 334.389   6
   0  -3  -8 2173.29 345.598  11
   0  -3  -8 2238.75 382.705   3
   0  -3  -8 1768.87 339.741   5
   0   3   9 33850.9 1419.00   6
   0  -3  -9 35074.8 1552.28   5
   0  -3  -9 34025.3 1519.02  11
   0   3   9 31821.5 1514.60   7
   0  -4   6 3486.32 478.215   7
   0   4  -6 3270.61 479.074   3
   0   4  -6 3503.20 477.537  11
   0   4  -6 3975.92 457.800   8
   0  -4   5 15151.4 909.655   4
   0   4  -5 14010.8 890.811   3
   0  -4   5 14072.7 728.117   9
   0   4  -5 14976.7 886.544  11
   0   4  -5 14037.6 824.690   8
   0   4  -5 15316.1 790.490  10
   0  -4   4 15642.2 845.054   4
   0   4  -4 15882.7 874.299   3
   0   4  -4 15582.1 814.704   8
   0  -4   4 16557.8 769.907   9
   0   4  -4 16066.4 837.507  11
   0   4  -4 16639.1 788.848  10
   0   4  -3 41301.9 1308.09   3
   0  -4   3 44445.5 801.057   5
   0  -4   3 41908.5 1219.84   4
   0   4  -3 41106.4 1245.48   8
   0   4  -3 42378.5 1215.77  10
   0   4  -3 42305.3 1214.56  11
   0  -4   3 42209.9 1200.53   9
   0  -4   3 43857.7 808.185   2
   0   4  -2 121353. 1978.65  10
   0   4  -2 121737. 2023.12   8
   0   4  -2 122862. 1932.04   6
   0  -4   2 125732. 1172.65   5
   0   4  -2 120479. 2029.44   3
   0  -4   2 126793. 1510.67   2
   0  -4   2 126094. 1833.53   4
   0   4  -2 121444. 1814.52  11
   0   4  -1 107100. 1772.13   3
   0  -4   1 113449. 1449.22   4
   0   4  -1 111220. 1506.13   2
   0   4  -1 108049. 1816.15   8
   0   4  -1 109601. 1802.14  10
   0  -4   1 110906. 943.029   5
   0   4  -1 110534. 1720.69   6
   0  -4   1 113289. 1499.00   2
   0   4  -1 110330. 1453.22  11
   0  -4   1 114041. 1442.87  11
   0  -4   0 665866. 2660.27   4
   0   4   0 656706. 3849.04   2
   0   4   0 674124. 2852.96  11
   0   4   0 658576. 4255.72  10
   0  -4   0 684440. 2794.25  11
   0  -4   0 674957. 3777.63   2
   0  -4   0 693323. 3991.41   6
   0   4   0 660384. 4044.50   6
   0   4   1 151523. 1928.92   6
   0  -4  -1 157990. 1886.25   6
   0  -4  -1 158523. 1896.90   2
   0   4   1 156335. 2042.92  10
   0   4   1 152122. 1934.83   2
   0  -4  -1 156788. 961.201  11
   0  -4  -1 155567. 2002.05  10
   0  -4  -2 145136. 950.372  11
   0  -4  -2 147591. 1664.83   5
   0   4   2 145152. 1977.99   2
   0   4   2 143934. 1938.08   6
   0  -4  -2 145404. 1915.37  10
   0  -4  -2 143667. 1152.13   1
   0   4   3 252530. 2724.84   2
   0  -4  -3 251015. 1440.59   1
   0   4   3 253745. 2672.66   6
   0   4   3 257282. 1422.31   1
   0  -4  -3 259156. 1748.28  11
   0  -4  -3 251915. 2484.95   5
   0  -4  -3 263638. 2559.32  10
   0  -4  -3 257226. 1591.70   4
   0  -4  -4 66186.4 1079.39   4
   0  -4  -4 64707.6 1296.22  12
   0   4   4 66454.1 1459.27   2
   0  -4  -4 64891.9 1297.15  10
   0  -4  -4 65565.1 1426.43   5
   0  -4  -4 65990.8 1131.93  11
   0   4   4 65068.9 1447.36   6
   0   4   4 66788.5 902.881   1
   0  -4  -5 80089.9 1479.45  10
   0  -4  -5 78555.5 1462.09  12
   0  -4  -5 77509.9 1113.71   9
   0  -4  -5 80514.5 1477.55  11
   0   4   5 79852.1 1194.80   1
   0   4   5 78611.0 1658.56   2
   0  -4  -5 78874.8 1731.91   5
   0   4   5 78270.2 1689.26   6
   0   4   6 90474.7 1954.13   6
   0  -4  -6 90949.4 2026.80   5
   0   4   6 90016.4 2027.33   7
   0   4   6 90068.7 1859.56   2
   0  -4  -6 93196.1 1802.53  11
   0  -4  -6 94889.4 1014.98   9
   0  -4  -6 93182.6 1629.22  12
   0  -4  -6 93090.2 1636.29  10
   0   4   7 66.4083 103.338   6
   0  -4  -7 50.8937 81.4533  11
   0  -4  -7 40.6492 83.6588   5
   0  -4  -7-13.4462 74.2201  12
   0   4   7-3.60590 100.244   2
   0  -4  -7 36.6855 56.9221  10
   0   4   7 131.432 140.030   7
   0   4   8 4851.25 519.911   6
   0   4   8 5326.43 492.176   2
   0  -4  -8 4580.97 492.288  11
   0  -4  -8 5460.77 584.604   5
   0   4   8 5357.06 584.294   7
   0  -4  -9 8836.56 746.652  11
   0  -4  -9 9033.20 801.378   5
   0   4   9 7904.76 757.321   7
   0   4   9 9115.01 753.171   6
   0   5  -5 33312.1 1357.48   8
   0   5  -5 37327.4 1458.91  11
   0   5  -5 36608.1 1546.89   3
   0   5  -4 7054.43 628.547   3
   0   5  -4 7767.19 621.114   8
   0  -5   4 7575.85 591.002   9
   0  -5   4 8310.35 638.811   4
   0   5  -4 7741.68 590.736  10
   0   5  -4 8031.11 619.409  11
   0   5  -3 605.550 174.082   8
   0   5  -3 459.363 164.637   3
   0  -5   3 525.032 162.007   9
   0   5  -3 686.352 166.574  11
   0  -5   3 563.660 167.161   4
   0   5  -3 614.516 174.086  10
   0   5  -2 11159.5 680.302   3
   0   5  -2 10436.7 559.383  11
   0   5  -2 10791.5 655.389  10
   0   5  -2 10541.8 663.018   8
   0  -5   2 10867.9 571.311   4
   0   5  -2 10684.2 627.080   6
   0  -5   1 31112.9 817.708   4
   0   5  -1 30431.3 1022.28   6
   0   5  -1 31869.0 1073.37   3
   0   5  -1 32164.8 912.367   2
   0   5  -1 30819.7 1073.69  10
   0  -5   1 31737.1 804.880  11
   0   5  -1 30660.4 1087.59   8
   0  -5   1 31981.9 512.944   5
   0   5  -1 31204.5 843.335  11
   0   5   0 1573.87 246.985  10
   0   5   0 2151.81 254.131   2
   0  -5   0 1570.21 143.988   4
   0  -5   0 1708.36 158.864  11
   0   5   0 1665.92 239.677   6
   0   5   1 111282. 1953.97  10
   0  -5  -1 116490. 1332.59   5
   0   5   1 112583. 1866.99   6
   0   5   1 116211. 1889.29   2
   0  -5  -1 118333. 1515.98   1
   0  -5  -1 114128. 1940.09  10
   0  -5  -1 116194. 945.984  11
   0   5   2 909.052 189.281  10
   0  -5  -2 843.995 108.684   1
   0   5   2 1272.25 216.569   2
   0  -5  -2 806.173 175.586  10
   0  -5  -2 879.829 140.180   5
   0  -5  -2 813.284 63.0802  11
   0   5   2 869.732 183.193   6
   0  -5  -3 313691. 1712.33   1
   0   5   3 312226. 3317.15   2
   0  -5  -3 309974. 2855.06   5
   0  -5  -3 310986. 3167.21  10
   0   5   3 308415. 3268.04   6
   0  -5  -4 6086.39 446.787  10
   0  -5  -4 5762.04 439.244   5
   0  -5  -4 6201.23 319.287  11
   0   5   4 5960.43 470.035   6
   0   5   4 6173.54 496.414   2
   0  -5  -4 5668.53 281.251   4
   0   5   4 6333.09 245.299   1
   0  -5  -5 381.164 108.426  11
   0  -5  -5 152.916 61.6631   4
   0  -5  -5 178.108 97.6114  12
   0   5   5 427.311 78.1904   1
   0   5   5 353.902 160.357   6
   0  -5  -5 339.277 126.850   5
   0   5   5 383.900 151.051   2
   0  -5  -5 289.527 115.779  10
   0   5   6 3655.10 416.727   6
   0   5   6 4980.65 474.418   2
   0  -5  -6 3998.33 371.838  10
   0  -5  -6 4424.27 301.700   9
   0  -5  -6 4584.50 384.637  11
   0  -5  -6 4649.94 399.033  12
   0  -5  -6 4439.59 464.206   5
   0  -5  -7 7600.00 517.617  12
   0  -5  -7 8562.81 689.617   5
   0   5   7 7354.60 589.919   2
   0  -5  -7 7397.95 544.063  11
   0   5   7 7271.07 617.096   6
   0  -5  -7 7143.98 500.754  10
   0   5   8 11138.6 807.257   6
   0  -5  -8 10819.9 819.966   5
   0  -5  -8 10317.9 711.460  11
   0   5   8 10535.4 733.891   2
   0  -5  -9 44753.8 1607.57  11
   0   5   9 44306.9 1690.12   6
   0   6  -5 887.613 238.685   8
   0   6  -5 945.319 237.659  11
   0   6  -4 65927.8 1863.29  10
   0   6  -4 66611.1 1834.99  11
   0   6  -4 65651.2 1957.27   8
   0  -6   4 67050.9 1877.23   9
   0   6  -4 66109.8 2047.50   3
   0   6  -3 9391.22 719.551   3
   0   6  -3 10819.9 679.700  11
   0   6  -3 9710.84 716.087   8
   0   6  -3 10230.6 717.724  10
   0  -6   3 9392.80 694.688   9
   0   6  -2-4.66603 86.3829   6
   0   6  -2 823.486 173.889  11
   0   6  -2 1191.70 245.115   3
   0   6  -2 39.3374 81.5129   8
   0   6  -2 264.828 142.674  10
   0   6  -1 63132.2 1719.10   8
   0   6  -1 63688.7 1706.84  10
   0   6  -1 62682.4 1403.57   2
   0   6  -1 60163.0 1596.40   3
   0   6  -1 64849.2 1271.02  11
   0   6  -1 60253.2 1556.62   6
   0   6   0 30153.1 1019.02   2
   0   6   0 30702.3 1158.16  10
   0  -6   0 32396.1 593.977   5
   0   6   0 30117.0 1076.22   6
   0  -6   0 31451.7 693.336  11
   0   6   1 216274. 2826.09   2
   0  -6  -1 222142. 1909.96   5
   0   6   1 219355. 3027.96  10
   0  -6  -1 223071. 2333.87   1
   0  -6  -1 216523. 2968.19  10
   0  -6  -1 218095. 1408.81  11
   0   6   1 217497. 2864.64   6
   0   6   2 161548. 2518.60   2
   0  -6  -2 155674. 2509.94  10
   0   6   2 160408. 2558.02  10
   0  -6  -2 164326. 1921.75   5
   0  -6  -2 159589. 1681.14   1
   0   6   2 158621. 2489.20   6
   0  -6  -3 65308.3 1612.43  10
   0  -6  -3 65915.1 1364.36   5
   0   6   3 62785.0 1592.11   6
   0  -6  -3 66984.6 885.938   1
   0   6   3 65792.1 1661.99   2
   0  -6  -3 63702.2 567.529  11
   0  -6  -3 63665.0 571.233  11
   0   6   4 16237.6 862.117   2
   0  -6  -4 17018.3 772.591   5
   0  -6  -4 17372.8 381.606   1
   0  -6  -4 17695.8 464.147  11
   0   6   4 17907.3 881.618   6
   0  -6  -4 17295.3 831.834  10
   0  -6  -5 156.638 93.2684   5
   0  -6  -5 334.651 147.098  10
   0   6   5 192.744 121.961   6
   0  -6  -5 178.743 70.1045  11
   0   6   5 412.705 177.512   2
   0  -6  -5 198.063 115.238  12
   0  -6  -6 1661.35 219.221  11
   0   6   6 1207.82 260.737   2
   0  -6  -6 1321.00 240.339  10
   0  -6  -6 1333.14 260.865   5
   0   6   6 1265.46 265.231   6
   0  -6  -6 1361.60 239.954  12
   0   6   7 113039. 2438.03   2
   0  -6  -7 112874. 2135.66  12
   0  -6  -7 116805. 2057.64  11
   0  -6  -7 113894. 2526.30   5
   0  -6  -7 113027. 2143.48  10
   0   6   7 114858. 2526.56   6
   0  -6  -8 5478.17 503.234  11
   0   6   8 5866.30 611.746   6
   0  -6  -8 4790.43 557.747   5
   0   6   8 5657.76 575.803   2
   0   6   9 24719.2 1186.29   2
   0   7  -4 18748.3 1086.94   8
   0  -7   4 19689.2 1058.62   9
   0   7  -3 6347.66 637.878   8
   0   7  -3 6619.54 631.892  10
   0  -7   3 5994.02 612.692   9
   0   7  -3 6212.95 629.121   3
   0   7  -2 20543.3 1079.48  10
   0   7  -2 20074.6 1013.76   6
   0  -7   2 20531.8 1080.10   9
   0   7  -2 20790.0 1071.56   3
   0   7  -2 20433.0 1087.28   8
   0   7  -1 1835.44 325.695   8
   0   7  -1 1592.44 295.059   3
   0   7  -1 1314.69 278.314  10
   0   7  -1 1577.97 288.314   6
   0   7  -1 1531.65 242.260   2
   0   7   0 31832.3 1215.29   3
   0  -7   0 32146.8 1275.59  10
   0   7   0 31113.6 1277.80  10
   0   7   0 32372.6 1136.66   2
   0   7   0 31367.2 1187.03   6
   0   7   1 179344. 2848.25   6
   0  -7  -1 187449. 2342.15   1
   0   7   1 185595. 3053.48  10
   0  -7  -1 182049. 2986.00  10
   0   7   1 182415. 2789.39   2
   0  -7  -2 15633.4 585.695   1
   0   7   2 12993.1 780.296   2
   0   7   2 13391.8 811.661  10
   0  -7  -2 14047.5 567.335   5
   0   7   2 13451.1 784.541   6
   0  -7  -2 13541.0 812.837  10
   0  -7  -3 135313. 2527.82  10
   0   7   3 138328. 2587.58   2
   0   7   3 135032. 2510.85   6
   0  -7  -3 141349. 1449.63   1
   0  -7  -3 133098. 1996.16   5
   0   7   4 45070.4 1520.40   2
   0   7   4 44215.4 1482.89   6
   0  -7  -4 44380.8 1439.53  10
   0  -7  -4 45414.1 1286.04   5
   0   7   5 13928.2 859.319   6
   0  -7  -5 13846.6 769.049   5
   0  -7  -5 13800.9 799.924  10
   0   7   5 13589.2 861.004   2
   0  -7  -6 18548.2 964.817   5
   0   7   6 17472.1 993.798   6
   0  -7  -6 17633.6 905.387  10
   0   7   6 19538.0 1056.97   2
   0  -7  -6 17649.0 905.939  12
   0   7   7 32845.5 1393.53   2
   0  -7  -7 30778.8 1212.57  12
   0   7   7 32515.5 1394.93   6
   0  -7  -7 31105.1 1336.13   5
   0  -7  -7 31445.2 1229.72  10
   0  -7  -8 12371.7 765.288  12
   0  -7  -8 12016.4 760.551  10
   0  -7  -8 11592.1 883.005   5
   0   7   8 12447.0 912.741   6
   0   7   8 11868.6 879.255   2
   0   7   9 35748.0 1494.46   2
   0  -8   2 6669.31 669.769   9
   0   8  -2 6229.16 651.939   8
   0   8  -2 6235.10 654.803   3
   0   8  -2 6576.84 659.976  10
   0  -8   2 6184.98 626.123  10
   0   8  -2 5725.20 575.549   6
   0   8  -1 26995.1 1307.63  10
   0   8  -1 26336.3 1250.47   3
   0  -8   1 26946.2 1282.67  10
   0   8  -1 26328.5 1292.36   8
   0  -8   1 26936.5 1324.45   9
   0   8  -1 26552.9 1225.66   6
   0   8   0 1250.24 250.281   2
   0   8   0 1355.62 287.612   6
   0  -8   0 1434.22 265.763   1
   0   8   0 969.679 248.964   3
   0  -8   0 1152.53 266.084  10
   0   8   0 1219.73 293.680   8
   0   8   0 1158.38 303.102  10
   0   8   1 124828. 2697.37  10
   0   8   1 122009. 2524.40   6
   0   8   1 123371. 2461.88   2
   0  -8  -1 124724. 2077.23   1
   0  -8  -1 119662. 2608.94  10
   0  -8  -2 29728.3 1296.69  10
   0   8   2 29450.4 1246.14   6
   0   8   2 30276.5 1255.68   2
   0  -8  -3 8392.20 690.368  10
   0   8   3 8651.41 697.922   2
   0  -8  -3 8716.83 516.988   5
   0   8   3 9310.81 714.059   6
   0  -8  -4 17529.1 979.746  10
   0   8   4 17357.2 981.539   6
   0   8   4 17124.9 1000.55   2
   0  -8  -4 17343.1 805.131   5
   0  -8  -5 1759.38 290.871   5
   0   8   5 1602.82 322.060   2
   0   8   5 1772.09 339.589   6
   0  -8  -5 1594.26 304.338  10
   0  -8  -6 15065.4 884.854   5
   0  -8  -6 14800.8 893.007  12
   0  -8  -6 14842.0 892.708  10
   0   8   6 15262.7 977.310   6
   0   8   6 15418.9 991.652   2
   0   8   7 93552.8 2499.81   2
   0  -8  -7 91234.9 2244.41  12
   0   8   7 94867.7 2512.88   6
   0  -8  -7 91790.8 2258.71  10
   0  -8  -7 93084.2 2359.81   5
   0   8   8 19984.8 1190.64   2
   0  -8  -8 23166.1 1275.49   5
   0  -8  -8 21022.1 1059.47  10
   0  -8  -8 23372.8 1110.98  12
   0   9  -1 13333.9 895.536   6
   0   9  -1 13369.9 922.840   3
   0   9   0 36700.9 1618.51  10
   0  -9   0 38153.1 1630.41  10
   0   9   0 35642.5 1485.98   6
   0  -9   0 37520.8 1662.84   9
   0   9   0 36116.8 1523.10   3
   0   9   0 36932.3 1621.36   8
   0   9   1 115604. 2551.48   2
   0  -9  -1 118590. 2809.39  10
   0   9   1 117735. 2687.74   6
   0  -9  -2 3690.50 495.388  10
   0   9   2 3340.59 457.606   6
   0   9   2 3777.04 487.167   2
   0  -9  -3 3607.74 483.445  10
   0   9   3 3162.13 451.742   2
   0   9   3 3123.12 442.654   6
   0  -9  -4 3160.45 447.835  10
   0   9   4 2684.93 429.578   2
   0   9   4 3290.52 463.929   6
   0   9   5 13860.4 954.618   6
   0  -9  -5 13849.3 798.476   5
   0   9   5 13576.4 960.108   2
   0  -9  -5 12928.3 903.461  10
   0   9   6 38136.9 1658.92   2
   0  -9  -6 35391.3 1492.17  10
   0  -9  -6 36647.8 1414.79   9
   0  -9  -6 36629.8 1396.61   5
   0  -9  -6 37437.7 1529.94  12
   0   9   6 35959.7 1583.71   6
   0  -9  -7 9150.25 748.443   5
   0  -9  -7 7809.26 698.873  12
   0  -9  -7 8794.67 742.713  10
   0  10   1 44753.6 1685.74   3
   0  10   2 28733.0 1398.44   6
   0  10   2 28161.8 1347.40   2
   0  10   3 2324.70 414.154   2
   0  10   3 2354.89 410.195   6
   0 -10  -4 10391.0 861.182   9
   0 -10  -5 24050.0 1260.83   9
   0 -10  -6 24180.6 1209.19   9
   1 -10  -5 647.730 219.493   9
   1 -10  -4 178.516 160.975   9
  -1  10   3 3626.60 517.066   2
  -1  10   2-281.056 164.412   2
  -1  10   1 29179.4 1313.27   2
   1  -9  -7-132.140 156.499  12
   1  -9  -7-175.594 145.161  10
   1  -9  -7 62.3182 90.7500   5
   1  -9  -6 14739.4 900.366   5
   1  -9  -6 14104.1 935.978  10
   1  -9  -6 14750.8 951.139  12
  -1   9   5 65742.8 2137.00   2
   1  -9  -5 64338.7 2010.49  10
  -1   9   5 68039.8 2149.63   6
   1  -9  -5 62832.2 1890.78   9
   1  -9  -5 64610.4 1737.07   5
   1  -9  -4 24386.0 1240.94  10
  -1   9   4 24658.7 1288.99   2
   1  -9  -4 24708.9 1228.39   9
  -1   9   4 23589.9 1248.45   6
  -1   9   3 64.5705 123.379   2
   1  -9  -3 332.643 189.990   9
   1  -9  -3 176.075 129.005  10
   1  -9  -2 2332.26 398.639  10
   1  -9  -2 2348.84 424.673   9
  -1   9   2 2154.36 383.651   2
  -1   9   2 1998.04 358.436   6
   1  -9  -1 173.730 179.483   9
  -1   9   1 18.9338 130.484   6
  -1   9   1 198.489 116.764   2
   1  -9  -1 171.361 167.059  10
  -1   9   1 261.712 194.269  10
   1  -9   0 41414.8 1737.00   9
  -1   9   0 40085.7 1438.92   2
  -1   9   0 38885.7 1673.40  10
  -1   9   0 37997.3 1587.65   3
   1  -9   0 38365.4 1640.01  10
  -1   9   0 39977.1 1639.32   6
  -1   9  -1 60790.1 1993.35   6
  -1   9  -1 58714.7 1996.54   3
   1  -8  -7 219.345 141.967  10
   1  -8  -7 264.207 141.181   5
  -1   8   7 208.350 181.181   6
  -1   8   7 209.141 122.501   2
   1  -8  -7 436.820 151.189  12
   1  -8  -6 32387.0 1336.88   5
   1  -8  -6 31750.8 1297.12  12
   1  -8  -6 32903.1 1207.95   9
  -1   8   6 33373.8 1469.03   6
  -1   8   6 32294.9 1474.83   2
   1  -8  -6 33029.4 1322.63  10
  -1   8   5 25994.5 1286.32   2
   1  -8  -5 26635.3 1185.48  10
   1  -8  -5 27138.1 1143.38   9
  -1   8   5 27422.2 1297.79   6
   1  -8  -5 27188.0 1122.84   5
   1  -8  -4-48.8666 101.454   9
  -1   8   4 56.6604 100.990   6
  -1   8   4-17.4516 147.843   2
   1  -8  -4 200.257 109.140   5
   1  -8  -4 178.711 124.476  10
  -1   8   3 3757.43 463.986   6
   1  -8  -3 3662.82 456.254  10
  -1   8   3 3293.70 443.319   2
   1  -8  -3 4381.07 368.548   5
   1  -8  -3 3496.94 438.527   9
  -1   8   2 20453.1 1078.10  10
   1  -8  -2 19228.5 1036.67   9
   1  -8  -2 19502.7 1046.16  10
  -1   8   2 20533.2 1052.72   2
  -1   8   2 19536.8 1038.91   6
   1  -8  -1 48036.6 1662.35  10
   1  -8  -1 46175.6 1639.53   9
  -1   8   1 47392.6 1659.43  10
  -1   8   1 48015.2 1555.84   2
  -1   8   1 47161.6 1613.71   6
   1  -8   0 90740.9 2346.10   9
   1  -8   0 89986.1 2317.36  10
  -1   8   0 90551.4 2249.42   6
  -1   8   0 89162.9 2046.50   2
  -1   8   0 92493.0 2388.53  10
   1  -8   1 11718.4 867.839   9
  -1   8  -1 12195.7 863.601   3
  -1   8  -1 11903.0 841.251   6
  -1   8  -1 11717.7 865.400  10
  -1   8  -1 11250.6 833.985   8
   1  -8   2 88762.0 2457.31   9
  -1   8  -2 87208.0 2323.27   6
  -1   8  -2 88046.1 2448.13  10
  -1   8  -2 85833.9 2381.40   3
  -1   8  -2 84937.1 2326.14   8
  -1   8  -3 46693.7 1727.43   8
  -1   7   8 17820.7 1098.30   2
  -1   7   8 15720.9 1044.42   6
   1  -7  -7 15214.5 823.773  10
   1  -7  -7 15730.3 989.352   5
  -1   7   7 15691.8 1014.26   2
   1  -7  -7 16072.0 841.791  12
  -1   7   7 15934.1 1003.89   6
   1  -7  -6-37.4642 94.6865  10
  -1   7   6 117.855 151.458   2
   1  -7  -6-29.7361 158.055   5
  -1   7   6-11.4814 89.0446   6
   1  -7  -6-64.3412 117.840  12
   1  -7  -5 18606.2 847.465   9
   1  -7  -5 17699.5 894.571  10
   1  -7  -5 18335.2 914.260   5
  -1   7   5 16330.9 973.571   2
  -1   7   5 18209.2 1003.59   6
   1  -7  -4 140084. 2292.45   5
   1  -7  -4 138001. 2526.01  10
   1  -7  -4 134051. 2373.63   9
  -1   7   4 133728. 2689.33   2
  -1   7   4 139677. 2684.57   6
  -1   7   3 35496.5 1335.25   2
  -1   7   3 32975.6 1278.00   6
   1  -7  -3 35570.6 1031.31   5
   1  -7  -3 35475.2 1295.25  10
   1  -7  -3 34990.6 1253.00   9
  -1   7   2 10925.4 729.036   2
   1  -7  -2 10028.6 694.411  10
   1  -7  -2 11003.6 496.629   5
  -1   7   2 10654.4 721.495  10
  -1   7   2 9885.33 698.999   6
   1  -7  -2 9677.22 683.682   9
  -1   7   1 17240.9 918.344   6
   1  -7  -1 18225.9 946.091  10
  -1   7   1 17572.5 944.173  10
   1  -7  -1 19240.2 656.284   1
   1  -7  -1 17633.8 942.511   9
  -1   7   1 20094.2 947.797   2
  -1   7   0 84394.1 2015.51   6
  -1   7   0 85825.0 1869.47   2
  -1   7   0 84110.9 2105.81  10
   1  -7   0 84088.0 2088.69   9
   1  -7   1 9865.22 733.587   9
  -1   7  -1 9552.91 724.576  10
  -1   7  -1 9780.85 705.542   6
  -1   7  -1 10354.6 616.589   2
  -1   7  -1 9554.19 714.751   3
   1  -7   2 3060.22 427.951   9
  -1   7  -2 2800.10 408.979   3
  -1   7  -2 3604.84 458.467  10
  -1   7  -2 3333.50 423.319   6
  -1   7  -2 3446.33 434.351   8
  -1   7  -3 1813.01 343.289   8
  -1   7  -3 1625.61 333.381  10
  -1   7  -3 1386.99 312.035   3
   1  -7   3 1896.95 352.909   9
  -1   7  -4 125.470 108.373   8
   1  -7   4-49.6103 136.818   9
  -1   7  -4 164.323 154.344  10
   1  -6  -8 10922.9 875.218   5
  -1   6   8 10499.1 819.317   6
  -1   6   8 11081.4 830.383   2
  -1   6   7 13810.2 892.920   2
   1  -6  -7 12334.9 687.659  10
   1  -6  -7 12313.9 857.602   5
   1  -6  -7 13202.9 717.876  11
  -1   6   7 13010.0 866.845   6
   1  -6  -7 12687.0 691.670  12
   1  -6  -6 5656.24 465.035  10
   1  -6  -6 5187.27 394.066  11
  -1   6   6 4597.18 493.908   6
   1  -6  -6 5423.23 451.372  12
   1  -6  -6 6526.19 583.007   5
  -1   6   6 5238.16 530.317   2
   1  -6  -5 25929.7 1075.16   5
   1  -6  -5 25581.2 978.883  10
  -1   6   5 25462.4 1137.26   2
   1  -6  -5 26757.7 742.843  11
   1  -6  -5 24863.2 871.254   9
  -1   6   5 25240.1 1102.46   6
   1  -6  -5 25469.6 969.215  12
   1  -6  -4 12658.4 698.528  10
  -1   6   4 12656.5 782.264   2
   1  -6  -4 13206.4 388.269  11
  -1   6   4 11843.1 744.840   6
   1  -6  -4 12919.3 666.293   9
   1  -6  -4 12690.6 685.115   5
  -1   6   3 919.493 221.840   2
   1  -6  -3 852.933 201.665  10
  -1   6   3 1041.94 220.588   6
   1  -6  -3 1106.22 219.459   9
   1  -6  -3 945.231 177.493   5
   1  -6  -2 27662.5 1051.30  10
   1  -6  -2 27364.3 474.573   1
  -1   6   2 27818.2 1077.83   2
  -1   6   2 28456.1 1081.25   6
   1  -6  -2 28476.8 793.112   5
  -1   6   2 27360.8 1054.27  10
  -1   6   1 5272.16 468.976   6
  -1   6   1 5236.62 479.867  10
  -1   6   1 5386.63 459.141   2
   1  -6  -1 5578.42 286.102   5
  -1   6   0 203808. 2677.85   2
  -1   6   0 206489. 2947.71   6
   1  -6   0 200715. 1014.53   5
  -1   6   0 203535. 3002.86  10
   1  -6   0 209186. 3027.95   9
  -1   6  -1 119728. 1938.27   2
  -1   6  -1 122310. 1481.23  11
   1  -6   1 114248. 2303.97   9
  -1   6  -1 119136. 2355.17  10
  -1   6  -1 114218. 2233.87   6
  -1   6  -1 116064. 2303.49   3
  -1   6  -2 24919.1 1067.00   8
  -1   6  -2 26431.6 842.834  11
  -1   6  -2 24421.9 1096.03   3
  -1   6  -2 24789.7 1102.10  10
  -1   6  -2 24899.2 1069.58   6
   1  -6   2 26170.8 1131.04   9
  -1   6  -2 25066.6 829.698   2
  -1   6  -3 119428. 2552.80   3
  -1   6  -3 113993. 2347.45   8
   1  -6   3 117133. 2432.90   9
  -1   6  -3 117265. 2447.64  10
  -1   6  -3 123304. 2109.75  11
  -1   6  -4 52992.8 1808.64   3
  -1   6  -4 54543.8 1556.24  11
  -1   6  -4 52761.0 1676.84   8
  -1   6  -4 54956.6 1747.33  10
   1  -6   4 53384.0 1711.13   9
  -1   6  -5 161.812 133.610  10
  -1   6  -5 73.1407 98.1938   8
  -1   6  -5-59.4700 121.241  11
   1  -6   5 9.33674 108.352   9
  -1   5   9 12674.1 901.472   6
   1  -5  -9 12440.0 850.609  11
  -1   5   8 47104.7 1676.31   6
  -1   5   8 45636.8 1756.27   7
   1  -5  -8 46334.5 1766.79   5
   1  -5  -8 47196.3 1577.66  11
  -1   5   8 46638.9 1607.03   2
  -1   5   7 27247.2 1181.77   2
  -1   5   7 27126.9 1186.78   6
  -1   5   7 27969.0 1279.53   7
   1  -5  -7 27499.6 1078.53  11
   1  -5  -7 27646.8 1272.73   5
   1  -5  -6 1182.44 195.266  10
  -1   5   6 2951.24 379.677   6
   1  -5  -6 1286.52 202.006  12
   1  -5  -6 2753.34 312.860  11
   1  -5  -6 1952.67 335.316   5
  -1   5   6 1195.09 241.084   2
  -1   5   5 11143.0 694.280   6
   1  -5  -5 10498.1 481.591   9
   1  -5  -5 9921.78 657.466   5
  -1   5   5 10960.2 331.692   1
   1  -5  -5 10321.5 514.169  11
  -1   5   5 10009.4 665.247   2
   1  -5  -5 10820.5 571.487  10
   1  -5  -5 10537.5 566.100  12
   1  -5  -4 182382. 1767.62  11
  -1   5   4 175285. 2618.81   6
  -1   5   4 175457. 2685.83   2
   1  -5  -4 176356. 2333.37  10
   1  -5  -4 177821. 2512.45   5
   1  -5  -4 176772. 2148.34   9
   1  -5  -3 86881.1 1573.19   9
   1  -5  -3 87679.7 1651.17  10
   1  -5  -3 88121.1 1583.91   5
   1  -5  -3 91053.7 868.893  11
  -1   5   3 86600.6 1771.45   6
  -1   5   3 86923.4 1814.34   2
   1  -5  -2 12999.3 532.544   5
   1  -5  -2 13230.7 658.238  10
  -1   5   2 12838.1 664.408   2
  -1   5   2 12967.9 657.206  10
  -1   5   2 13009.5 674.475   6
  -1   5   1 98996.3 1827.55  10
   1  -5  -1 100201. 1203.76   5
  -1   5   1 101072. 1796.20   2
  -1   5   1 100475. 1843.86   6
   1  -5   0 133745. 936.053   5
  -1   5   0 132482. 1971.79   2
  -1   5   0 129429. 2114.79   6
   1  -5   1 92165.5 1883.07   9
  -1   5  -1 94785.8 1223.89  11
  -1   5  -1 92890.7 1558.86   2
  -1   5  -1 92359.9 1832.46   6
  -1   5  -1 91583.6 1885.12  10
   1  -5   1 96581.7 1224.19  11
  -1   5  -2 1031.97 233.608   3
  -1   5  -2 1096.20 166.986   2
  -1   5  -2 963.676 215.410  10
  -1   5  -2 988.204 163.215  11
  -1   5  -2 1002.80 211.680   6
   1  -5   2 1244.50 162.366   2
   1  -5   2 995.507 221.658   9
  -1   5  -2 1072.29 215.934   8
  -1   5  -3 20911.6 830.091  11
   1  -5   3 20290.4 932.802   9
  -1   5  -3 20801.6 914.845   8
  -1   5  -3 20587.6 954.089  10
  -1   5  -3 21207.8 1015.15   3
  -1   5  -4 1120.28 228.921   8
  -1   5  -4 874.086 234.407   3
  -1   5  -4 1166.09 228.552  11
  -1   5  -4 1298.81 258.152  10
   1  -5   4 1109.00 238.699   9
  -1   5  -5 14898.5 876.164  11
   1  -5   5 15340.7 855.039   9
  -1   5  -5 15210.3 885.619  10
  -1   5  -5 15101.1 859.415   8
  -1   5  -5 15888.3 996.849   3
  -1   5  -6 5889.26 595.217  11
   1  -5   6 6220.01 612.638   7
   1  -4  -9 2462.98 403.648  11
  -1   4   9 2410.34 386.372   6
  -1   4   8 8208.73 632.756   2
  -1   4   8 7060.72 636.066   6
   1  -4  -8 7609.96 705.783   5
  -1   4   8 8540.88 764.509   7
   1  -4  -8 7994.62 679.556  11
  -1   4   7 8407.21 700.012   7
   1  -4  -7 7339.60 651.648   5
   1  -4  -7 8884.78 646.150  11
  -1   4   7 8449.26 647.618   4
  -1   4   7 7657.83 589.865   2
  -1   4   7 8281.96 635.202   6
  -1   4   6 66654.9 1628.92   4
   1  -4  -6 67446.0 1284.64  12
  -1   4   6 66127.2 1695.44   6
  -1   4   6 67536.7 1670.39   2
   1  -4  -6 68172.0 1302.09  10
  -1   4   6 64835.2 1780.55   7
   1  -4  -6 66366.5 1811.81   5
   1  -4  -6 66717.9 1582.84  11
   1  -4  -5 34919.8 693.452   9
  -1   4   5 36673.2 1186.40   6
  -1   4   5 37578.9 1082.39   4
  -1   4   5 35943.2 1226.80   7
   1  -4  -5 35397.9 1216.33   5
   1  -4  -5 36262.2 932.668  10
  -1   4   5 36989.9 780.133   1
   1  -4  -5 36053.7 1032.01  11
   1  -4  -5 36881.5 706.068   9
   1  -4  -5 35461.5 922.844  12
  -1   4   5 36521.6 1192.16   2
  -1   4   4 8725.23 300.872   1
   1  -4  -4 9155.20 442.426  11
   1  -4  -4 8747.65 457.268  12
   1  -4  -4 9417.88 476.371  10
  -1   4   4 8439.85 554.338   2
  -1   4   4 8331.57 435.704   4
   1  -4  -4 8538.63 543.256   5
  -1   4   4 8230.40 532.251   6
   1  -4  -4 8991.42 405.817   9
  -1   4   4 8784.74 420.016  11
   1  -4  -3 38616.9 914.079   9
  -1   4   3 39389.7 1087.09   6
   1  -4  -3 39518.0 1037.88   5
   1  -4  -3 39526.9 979.060  10
   1  -4  -3 41693.4 973.110  10
  -1   4   3 39205.5 1117.94   2
   1  -4  -3 40823.1 737.272  11
  -1   4   3 40484.8 748.712   4
  -1   4   2 119422. 1736.89  10
   1  -4  -2 122517. 1682.13   7
   1  -4  -2 124012. 1701.07  10
  -1   4   2 121678. 1553.12   5
   1  -4  -2 119254. 1553.91   5
  -1   4   2 118438. 831.681   4
   1  -4  -2 118235. 1709.25  10
   1  -4  -2 118195. 750.289  11
  -1   4   2 118141. 1824.30   6
  -1   4   2 118125. 1844.94   2
   1  -4  -1 50672.5 823.349   5
  -1   4   1 49419.5 1158.61   6
  -1   4   1 49062.8 1136.36  10
  -1   4   1 49218.2 1127.92   2
   1  -4   0 88321.6 758.570   5
  -1   4   0 86479.4 1567.86  10
  -1   4   0 87965.5 750.570   4
  -1   4   0 84916.4 1537.82   6
  -1   4   0 87180.0 704.167  11
   1  -4   0 90710.8 1397.68   2
   1  -4   1 19614.3 518.012  11
  -1   4  -1 19384.4 754.242   6
   1  -4   1 19024.3 768.816   9
  -1   4  -1 19559.2 633.087   2
  -1   4  -1 19423.2 521.148  11
   1  -4   1 20298.6 622.148   2
  -1   4  -1 20036.6 530.500   4
  -1   4  -1 18746.1 756.071  10
  -1   4  -2 63866.9 1461.54  10
   1  -4   2 62727.7 1432.34   9
  -1   4  -2 62682.3 1382.22   8
  -1   4  -2 63204.1 1042.07   2
  -1   4  -2 68030.7 1187.35   4
  -1   4  -2 64664.3 1448.06   6
  -1   4  -2 62640.7 1486.05   3
   1  -4   2 65058.1 1164.73  11
  -1   4  -2 64448.4 1181.78  11
   1  -4   2 64302.8 1038.40   2
  -1   4  -3 266186. 3144.37  10
  -1   4  -3 265164. 2964.49   8
  -1   4  -3 262425. 2835.45  11
   1  -4   3 269802. 3087.83   9
  -1   4  -3 267104. 3328.92   3
  -1   4  -4 233309. 2908.70   8
   1  -4   4 232164. 2933.13   9
  -1   4  -4 232211. 3360.96   3
  -1   4  -4 234362. 3072.81  10
  -1   4  -4 229383. 2986.91  11
  -1   4  -5 3799.94 397.782   8
   1  -4   5 3835.37 390.796   9
  -1   4  -5 4920.50 468.446  10
  -1   4  -5 3696.34 467.181   3
  -1   4  -5 3965.56 441.913  11
  -1   4  -6 55776.3 1622.35  10
  -1   4  -6 54491.8 1877.23   3
  -1   4  -6 52986.2 1535.14   8
   1  -4   6 53021.7 1724.22   7
  -1   4  -6 54259.9 1774.09  11
   1  -4   7 2446.49 398.097   7
  -1   3   9 37344.8 1432.62   6
  -1   3   8 29341.3 1365.02   4
   1  -3  -8 30244.1 1394.97   5
   1  -3  -8 30617.0 1365.32  11
  -1   3   8 29749.2 1264.08   6
  -1   3   8 31191.7 1446.68   7
   1  -3  -8 31980.7 1445.38   3
   1  -3  -7 69840.8 1989.67   3
   1  -3  -7 71412.6 2016.36   5
  -1   3   7 72710.2 1712.08   2
  -1   3   7 70889.9 1804.88   6
   1  -3  -7 71335.7 1898.48  11
  -1   3   7 70852.9 2010.65   7
  -1   3   7 71903.3 1945.59   4
  -1   3   6 47597.4 1371.45   6
  -1   3   6 48217.2 1451.92   4
   1  -3  -6 50017.8 984.540  10
   1  -3  -6 48561.0 1530.04   5
  -1   3   6 48614.5 1529.74   7
   1  -3  -6 50221.6 979.774  12
   1  -3  -6 47085.1 1400.48  11
  -1   3   6 47343.7 1315.76   2
  -1   3   5-170.546 73.9116   1
   1  -3  -5 14.1177 38.7419  10
   1  -3  -5 47.3285 46.5759  10
  -1   3   5 84.2903 77.6469   4
   1  -3  -5 29.8147 40.1730  12
   1  -3  -5 43.3126 90.1723   5
  -1   3   5 151.900 63.3050  10
  -1   3   5 148.057 106.381   2
  -1   3   5 1.82165 89.4983   7
  -1   3   4 70454.3 1527.01   7
   1  -3  -4 71496.3 1133.48  10
   1  -3  -4 70573.4 1523.44   5
  -1   3   4 67208.6 1396.48   6
   1  -3  -4 70086.6 1118.84  10
   1  -3  -4 70402.3 1322.07  11
  -1   3   4 69813.1 1351.89   4
   1  -3  -4 70878.9 845.784   9
  -1   3   4 70937.8 1461.46   2
  -1   3   4 68806.3 1053.23   1
   1  -3  -4 69761.9 1113.49  12
  -1   3   3 373621. 2469.97  11
   1  -3  -3 375308. 2519.21  10
   1  -3  -3 365228. 2258.80   9
  -1   3   3 368968. 2567.49   4
  -1   3   3 366426. 1773.40   1
  -1   3   3 362495. 3127.95   2
   1  -3  -3 368946. 3097.84   5
  -1   3   3 372713. 3109.24   7
   1  -3  -3 364544. 2484.83  11
  -1   3   3 372094. 3045.12   6
   1  -3  -3 374680. 2558.26  10
  -1   3   2 35181.4 561.455  11
  -1   3   2 36044.3 808.473   5
  -1   3   2 33696.4 863.315   6
   1  -3  -2 35048.5 840.356   6
   1  -3  -2 35162.6 816.751   7
   1  -3  -2 34569.8 812.557   5
  -1   3   2 34018.8 782.332  10
   1  -3  -2 34536.9 560.271  11
  -1   3   2 33387.5 887.014   2
  -1   3   2 34354.2 590.995   4
   1  -3  -2 35117.1 786.828  10
   1  -3  -2 35371.5 876.967   2
   1  -3  -2 33641.9 746.546   9
   1  -3  -2 35844.5 771.761  10
   1  -3  -1 379.808 93.9924   2
  -1   3   1 182.021 85.4746   6
  -1   3   1 265.580 97.5632   2
  -1   3   1 225.105 86.5556  10
  -1   3   1 163.407 27.3491   4
   1  -3  -1 192.890 72.4156   6
   1  -3  -1 248.362 89.2688   9
  -1   3   1 214.000 67.6750   5
   1  -3  -1 179.913 63.7948  10
   1  -3  -1 198.050 66.6083   5
  -1   3   0 50498.5 1034.04  10
   1  -3   0 51097.3 1039.52   9
  -1   3   0 49297.2 440.217  11
  -1   3   0 49773.6 1026.91   6
  -1   3   0 51302.4 528.475   4
  -1   3   0 50170.0 944.095   2
   1  -3   0 51924.7 991.207  10
   1  -3   0 50563.6 549.064   5
   1  -3   0 52148.3 919.132   2
   1  -3   0 52221.3 1002.16   6
  -1   3  -1 71335.5 930.210   4
  -1   3  -1 69752.1 913.671  11
  -1   3  -1 68299.4 1268.85  10
   1  -3   1 72141.6 999.067   2
  -1   3  -1 70012.8 1272.94   6
   1  -3   1 73825.6 1243.57   6
   1  -3   1 71612.8 1288.46   9
   1  -3   1 70282.9 894.154  11
  -1   3  -1 72108.3 1042.62   2
   1  -3   1 73149.3 1258.00  10
  -1   3  -2 36106.5 836.580   4
   1  -3   2 35891.5 825.226  11
  -1   3  -2 35950.0 982.395   6
  -1   3  -2 36381.6 846.500  11
  -1   3  -2 35657.9 1012.35   3
  -1   3  -2 35887.9 650.464   2
  -1   3  -2 35189.6 893.191   8
   1  -3   2 36175.1 962.208   9
   1  -3   2 35715.1 643.207   2
  -1   3  -2 35612.6 971.350  10
  -1   3  -3 55119.3 1193.54   8
  -1   3  -3 56598.8 1244.35  11
   1  -3   3 57120.3 676.003   2
  -1   3  -3 56248.9 1397.15   3
  -1   3  -3 56353.9 1295.13  10
   1  -3   3 56580.5 1258.48   9
  -1   3  -4 18.5877 110.955   3
  -1   3  -4 91.7063 110.376  11
  -1   3  -4-41.6213 74.3475  10
  -1   3  -4 69.6169 48.4392   5
  -1   3  -4 12.8673 68.1800   8
  -1   3  -5 140023. 1781.25   5
  -1   3  -5 137730. 2261.92  10
   1  -3   5 138671. 2072.33   9
  -1   3  -5 138081. 2162.65   8
  -1   3  -5 130821. 2431.12  11
  -1   3  -5 133089. 2576.09   3
   1  -3   6 3592.49 438.630   7
  -1   3  -6 2856.81 410.242   3
  -1   3  -6 2899.21 349.289  10
  -1   3  -6 3052.47 413.640  11
  -1   3  -6 3786.94 385.264   8
  -1   3  -7 77.2781 156.471   3
  -1   3  -7-7.07160 125.456  11
   1  -3   7-4.94601 99.2320   7
   1  -2  -8 417.792 199.136   5
  -1   2   8 669.197 258.157   4
  -1   2   8 497.425 207.801   7
  -1   2   8 512.884 197.038   6
   1  -2  -8 422.975 191.796  11
   1  -2  -8 250.937 161.971   3
  -1   2   7 1184.15 240.722   6
   1  -2  -7 1120.89 255.285  11
  -1   2   7 1172.18 271.079   4
   1  -2  -7 2186.11 364.152   5
  -1   2   7 1482.33 310.284   7
  -1   2   7 1275.44 216.922   2
   1  -2  -7 1373.95 313.462   3
   1  -2  -6 26198.2 1117.43   5
   1  -2  -6 26314.8 1102.81  11
  -1   2   6 25001.8 1085.10   4
  -1   2   6 25094.7 965.199   6
  -1   2   6 26531.1 1143.25   7
   1  -2  -6 26966.8 654.285  10
   1  -2  -6 24892.4 1100.95   3
  -1   2   6 26427.6 917.392   2
  -1   2   5 12921.4 636.050   6
  -1   2   5 12979.2 615.113   2
   1  -2  -5 13191.3 725.184   5
   1  -2  -5 13676.5 440.279  12
   1  -2  -5 12222.3 709.578   3
  -1   2   5 12923.7 724.817   7
   1  -2  -5 12073.0 671.278  11
   1  -2  -5 13793.9 443.827  10
  -1   2   5 13176.6 428.425  10
  -1   2   5 12681.2 703.066   4
  -1   2   4 1372.02 215.353   7
   1  -2  -4 676.141 161.482   3
   1  -2  -4 882.853 110.081  10
  -1   2   4 839.490 152.064   2
  -1   2   4 1043.49 174.489   6
   1  -2  -4 882.387 181.872   5
  -1   2   4 749.223 99.7002  10
   1  -2  -4 781.882 105.252  10
   1  -2  -4 727.623 100.104  12
  -1   2   4 840.578 167.765   4
   1  -2  -4 993.390 176.156  11
  -1   2   3 74698.7 1268.19   4
   1  -2  -3 75857.8 927.168  10
   1  -2  -3 75976.8 921.519  12
  -1   2   3 73900.9 905.791  10
  -1   2   3 74541.0 1238.59   6
  -1   2   3 74154.0 1357.98   7
   1  -2  -3 73469.1 1363.46   5
   1  -2  -3 72944.6 1351.86   3
  -1   2   3 74751.4 1280.19   2
   1  -2  -3 77206.9 1227.59   6
  -1   2   3 76365.3 1287.44   8
   1  -2  -3 77009.9 1307.78   7
   1  -2  -3 74171.4 705.097   9
   1  -2  -3 74256.6 1226.31  11
  -1   2   3 76660.8 1211.34  11
   1  -2  -3 74617.6 925.954  10
  -1   2   2 307484. 2352.57   7
   1  -2  -2 305804. 2366.71   5
  -1   2   2 316448. 2359.02   3
  -1   2   2 294889. 2371.65   2
   1  -2  -2 306307. 1817.27  10
   1  -2  -2 311356. 2246.79   7
  -1   2   2 313031. 2323.42   5
   1  -2  -2 306996. 1725.28   9
   1  -2  -2 310648. 2205.66   6
   1  -2  -2 301704. 1939.76  11
   1  -2  -2 313955. 2320.56   2
  -1   2   2 303255. 2264.18   6
  -1   2   2 302072. 1917.90  11
   1  -2  -2 303397. 1852.29  10
  -1   2   2 297403. 1996.24   4
  -1   2   1 374599. 2429.17   2
   1  -2  -1 382449. 1465.25  11
  -1   2   1 388484. 2182.05  10
  -1   2   1 384091. 1444.79  11
   1  -2  -1 385407. 2376.69   2
   1  -2  -1 384247. 2131.80   5
  -1   2   1 381930. 2359.30   6
   1  -2  -1 382738. 2282.50   6
   1  -2  -1 387131. 2162.99   9
   1  -2  -1 394161. 2130.96  10
  -1   2   1 388934. 2095.19   5
  -1   2   0 649617. 3073.37   6
   1  -2   0 650422. 3029.69   9
  -1   2   0 648016. 3016.43  10
  -1   2   0 636672. 1866.65   5
   1  -2   0 651919. 2782.44   2
   1  -2   0 637824. 2001.29   1
   1  -2   0 632691. 2895.05  10
  -1   2   0 636621. 2844.52   2
   1  -2   1 709.616 86.5698   2
  -1   2  -1 485.290 75.3664   2
  -1   2  -1 956.126 104.274   4
   1  -2   1 429.332 87.5937  10
  -1   2  -1 479.645 101.461  10
  -1   2  -1 493.946 103.657   6
  -1   2  -1 586.089 81.2257  11
   1  -2   1 633.785 120.263   9
   1  -2   1 961.098 129.085   6
  -1   2  -2 294.690 49.3276   2
  -1   2  -2 277.077 83.7719  11
  -1   2  -2 438.532 55.0352   5
  -1   2  -2 367.997 88.5983   8
   1  -2   2 269.494 80.2854  11
  -1   2  -2 352.140 107.770   3
  -1   2  -2 621.531 110.920   4
   1  -2   2 582.034 116.156   9
   1  -2   2 340.562 51.1633   2
  -1   2  -2 344.949 94.7655  10
   1  -2   2 305.536 86.5982  10
  -1   2  -3 284067. 2883.86   3
  -1   2  -3 290513. 1861.49   5
   1  -2   3 283165. 2423.80   9
  -1   2  -3 285506. 2667.46  11
  -1   2  -3 287129. 2626.99  10
  -1   2  -3 285109. 2324.03   8
   1  -2   3 291845. 2554.09  10
  -1   2  -4 306162. 3183.11  11
  -1   2  -4 307475. 2930.36  10
  -1   2  -4 302946. 3341.24   3
  -1   2  -4 300482. 2662.12   8
  -1   2  -4 307176. 2375.98   5
   1  -2   4 308136. 2617.80   9
   1  -2   5 50603.1 1378.86   7
  -1   2  -5 51405.0 1460.43  11
  -1   2  -5 49871.9 1511.35   3
  -1   2  -5 53374.7 1142.67   5
  -1   2  -5 52405.1 1292.66  10
   1  -2   5 53526.1 1129.86   9
  -1   2  -5 51954.7 1200.87   8
  -1   2  -6 62460.3 1412.43   5
   1  -2   6 63108.7 1247.40   9
  -1   2  -6 61603.1 1763.18  11
  -1   2  -6 62488.9 1811.17   3
  -1   2  -6 62438.7 1436.27   8
   1  -2   6 61711.9 1667.70   7
  -1   2  -6 62140.7 1480.82  10
  -1   2  -7 13438.7 895.739  11
   1  -2   7 12879.9 843.947   7
  -1   2  -7 14262.8 945.642   3
   1  -2   8 1032.21 259.304   7
   1  -1  -8 167517. 3390.48  11
  -1   1   8 162930. 3403.43   7
   1  -1  -8 158250. 3154.59   5
  -1   1   8 163042. 3446.67   4
  -1   1   8 165209. 2827.38   6
   1  -1  -8 163357. 3372.36   3
  -1   1   7 116554. 2608.96   7
   1  -1  -7 115280. 2495.80   5
  -1   1   7 118170. 2673.99   4
   1  -1  -7 116943. 2606.76   3
  -1   1   7 116737. 2247.61   6
   1  -1  -7 116468. 2603.12  11
   1  -1  -6 22940.0 1031.94   5
   1  -1  -6 23144.3 1071.86  11
  -1   1   6 23902.0 1108.54   4
  -1   1   6 25017.2 951.266   6
   1  -1  -6 22963.6 1067.80   3
  -1   1   6 23789.4 1083.72   7
  -1   1   6 25319.4 831.296   2
   1  -1  -5 16181.9 817.635   3
  -1   1   5 16737.7 639.237   2
   1  -1  -5 16557.3 811.183   5
   1  -1  -5 16798.3 452.954  10
  -1   1   5 15888.4 807.938   7
  -1   1   5 17001.5 843.775   4
  -1   1   5 16456.5 705.062   6
   1  -1  -5 15800.9 798.643  11
  -1   1   5 16603.1 442.131  10
   1  -1  -4 7539.32 274.554  10
   1  -1  -4 6595.55 464.623   3
   1  -1  -4 7205.72 484.173   5
   1  -1  -4 6373.61 455.302  11
  -1   1   4 7119.89 392.948   2
  -1   1   4 7030.60 483.017   4
  -1   1   4 6955.29 260.903  10
  -1   1   4 6875.59 406.721   6
  -1   1   3 329.372 99.9321   3
  -1   1   3 16.7322 44.5779   5
   1  -1  -3 127.488 75.2492   3
   1  -1  -3 129.788 72.8381  11
  -1   1   3 325.823 83.3112   6
  -1   1   3 90.0231 30.0621  10
   1  -1  -3 48.8101 75.2533   5
   1  -1  -3 115.586 35.4665  12
  -1   1   3 99.4637 68.3309  11
  -1   1   3 228.489 77.3712   8
  -1   1   3 174.876 70.4108   2
  -1   1   3 123.473 85.0263   7
   1  -1  -3 129.510 37.0657  10
  -1   1   2 433303. 2560.44   2
  -1   1   2 443436. 2756.69   7
   1  -1  -2 455013. 2347.74   6
  -1   1   2 461773. 2705.86   8
   1  -1  -2 456855. 2697.66   7
  -1   1   2 420947. 2620.91   4
  -1   1   2 454636. 2689.61   3
   1  -1  -2 447505. 1402.99   9
   1  -1  -2 447971. 1520.87  10
  -1   1   2 430674. 2338.61   6
   1  -1  -2 449216. 1513.67  12
  -1   1   2 442884. 2554.72  11
   1  -1  -2 418813. 2579.07  11
  -1   1   2 443007. 2725.28   5
  -1   1   2 430677. 1384.83   9
   1  -1  -2 435181. 2754.65   3
   1  -1  -2 434171. 2804.24   5
  -1   1   1 282224. 1773.60   5
   1  -1  -1 273426. 1197.63  10
  -1   1   1 276121. 1342.03   9
  -1   1   1 278332. 1739.39   3
   1  -1  -1 274503. 1551.03  11
  -1   1   1 274729. 1694.36   7
   1  -1  -1 281818. 1363.76   9
  -1   1   1 274569. 1800.77   2
  -1   1   1 277207. 1567.80   6
   1  -1  -1 285295. 1680.27   7
   1  -1  -1 277489. 1555.44   6
  -1   1   1 274427. 1542.40  11
   1  -1  -1 270496. 1785.72   5
  -1   1   1 270945. 1213.91  10
  -1   1   0 154503. 1123.00   9
  -1   1   0 156463. 1093.52  10
  -1   1   0 152183. 1116.68   6
   1  -1   0 154484. 1074.07  10
   1  -1   0 156830. 955.067   5
   1  -1   0 154948. 793.585   1
  -1   1   0 153722. 1142.92   2
   1  -1   0 151627. 1110.86   6
  -1   1   0 153204. 797.193   1
  -1   1   0 152656. 941.289   5
   1  -1   0 153482. 833.617   7
   1  -1   0 155241. 1146.03   9
  -1   1  -1 160252. 1284.29   9
  -1   1  -1 161106. 1324.01  10
   1  -1   1 163910. 1236.23   1
  -1   1  -1 159081. 924.837   2
   1  -1   1 160933. 1329.82   6
  -1   1  -1 161978. 1355.91   6
   1  -1   1 164370. 1317.17  10
   1  -1   1 157162. 1280.48   9
  -1   1  -2 62603.0 696.745   5
  -1   1  -2 62865.3 1032.07   3
   1  -1   2 64229.1 982.949   6
  -1   1  -2 63802.8 961.171   4
   1  -1   2 61669.9 873.254   9
   1  -1   2 64306.0 940.305  11
   1  -1   2 62621.3 932.707  10
  -1   1  -2 63015.5 745.687   8
   1  -1   2 63165.2 995.042   3
  -1   1  -2 60096.9 941.318  11
  -1   1  -2 63511.7 872.843   9
  -1   1  -2 60753.3 944.514  10
  -1   1  -3 1399.97 143.288   5
   1  -1   3 1343.00 147.583   9
   1  -1   3 1198.87 164.404  11
  -1   1  -3 1356.16 180.336   4
  -1   1  -3 1293.53 133.861   8
   1  -1   3 1361.30 157.435  10
  -1   1  -3 1411.06 184.540  11
   1  -1   3 1425.88 180.229   3
  -1   1  -3 1190.10 177.751   3
  -1   1  -3 1561.63 174.851  10
  -1   1  -4 2205.22 201.799   8
   1  -1   4 2622.02 240.224  10
  -1   1  -4 2294.41 217.626   5
  -1   1  -4 2469.87 280.048  11
   1  -1   4 2887.49 216.368   9
   1  -1   4 2740.76 276.634   7
   1  -1   4 2663.29 240.793  12
  -1   1  -4 2465.83 240.068  10
   1  -1   4 2545.85 213.205   8
  -1   1  -4 2180.92 272.051   3
  -1   1  -5 1410.68 249.116   3
   1  -1   5 1500.86 163.295   9
   1  -1   5 1736.08 196.144   8
  -1   1  -5 1779.18 224.335  10
  -1   1  -5 1626.72 269.536  11
   1  -1   5 1358.47 222.652   7
  -1   1  -5 1766.41 205.379   8
  -1   1  -5 1663.07 213.068   5
  -1   1  -6 92178.6 2087.71  11
   1  -1   6 93440.2 1268.17   9
  -1   1  -6 95780.4 1717.37  10
  -1   1  -6 94133.0 1621.03   8
   1  -1   6 89604.9 1950.66   7
  -1   1  -6 96454.2 1786.12   5
  -1   1  -6 92561.4 2111.13   3
  -1   1  -7 68397.4 1670.95   5
  -1   1  -7 67798.3 1967.66   3
  -1   1  -7 68046.3 1950.31  11
   1  -1   7 64739.9 1811.59   7
  -1   1  -7 66055.4 1522.45  10
  -1   1  -7 69280.3 1529.25   8
  -1   1  -8 13583.2 966.257   3
  -1   1  -8 15214.4 1009.87  11
  -1   1  -8 15585.2 857.605   5
   1  -1   8 15319.6 971.829   7
   1   0  -8 30743.6 1354.33   5
   1   0  -7 2550.20 397.328   3
   1   0  -7 2850.92 429.570  11
  -1   0   7 3144.11 445.965   7
  -1   0   7 3605.64 495.178   4
  -1   0   7 3034.18 373.076   6
   1   0  -7 4367.93 487.409   5
  -1   0   6 18249.9 814.709   6
  -1   0   6 19206.3 669.148   2
   1   0  -6 18295.6 986.984  11
   1   0  -6 18016.4 860.346   8
  -1   0   6 17633.6 958.211   7
  -1   0   6 17510.3 985.668   4
   1   0  -6 18059.8 906.398   5
   1   0  -6 17940.6 952.488   3
  -1   0   5 21411.3 512.661  12
  -1   0   5 20895.5 974.246   4
   1   0  -5 19573.5 910.096   3
   1   0  -5 20503.4 885.777   5
  -1   0   5 20488.6 951.749   7
   1   0  -5 22227.5 544.292  10
   1   0  -5 20685.9 860.789   8
   1   0  -5 21195.1 967.313  11
  -1   0   5 21745.7 518.365  10
  -1   0   5 21535.3 676.589   2
  -1   0   5 21731.3 803.023   6
  -1   0   4 76.3186 52.0715   6
  -1   0   4 106.718 60.5867   2
   1   0  -4 237.194 59.5373  10
   1   0  -4 196.088 121.641  11
   1   0  -4 281.439 116.008   3
  -1   0   4 176.802 51.8420  10
  -1   0   4 120.967 99.2609   7
  -1   0   4 177.326 53.3518  12
   1   0  -4 279.624 114.969   5
  -1   0   3 1983.76 120.008  12
   1   0  -3 2176.04 235.622   5
   1   0  -3 1975.12 230.232   3
   1   0  -3 2025.16 219.379   8
   1   0  -3 2084.89 126.377  10
  -1   0   3 3278.11 307.215   4
  -1   0   3 2393.88 261.426   7
   1   0  -3 3059.35 290.629  11
  -1   0   3 2219.14 224.714   5
  -1   0   3 1863.08 99.0628   9
  -1   0   3 2024.68 210.893   8
  -1   0   3 1970.31 119.884  10
  -1   0   2 19475.1 273.983  12
   1   0  -2 19643.0 591.049   5
  -1   0   2 20024.2 622.653   4
   1   0  -2 19734.4 618.685  11
  -1   0   2 19948.2 574.005   3
  -1   0   2 19341.1 609.131   7
  -1   0   2 19630.2 328.135   9
  -1   0   2 20151.5 578.074   8
  -1   0   2 20580.6 607.061  11
   1   0  -2 19330.0 589.136   8
   1   0  -2 19026.7 577.559   3
  -1   0   2 20051.6 579.133   5
  -1   0   2 19313.1 275.586  10
   1   0  -2 19501.1 282.645  10
  -1   0   1 516368. 2479.89   8
  -1   0   1 497304. 2401.05   5
   1   0  -1 507544. 1693.93   9
   1   0  -1 486174. 2417.97   5
   1   0  -1 500900. 2284.20   3
   1   0  -1 505389. 2513.01   8
  -1   0   1 506724. 1665.16   6
  -1   0   1 525914. 2280.59   3
  -1   0   1 513833. 1678.50   9
  -1   0   0 39469.6 395.425   3
  -1   0   0 40440.4 364.033  10
   1   0   0 40323.5 488.570   9
   1   0   0 40552.7 507.449   1
   1   0   0 39993.9 361.518  12
   1   0   0 38981.0 360.207  10
  -1   0   0 40611.9 482.486   9
  -1   0   0 39256.2 358.323  12
  -1   0   0 39379.0 519.353   8
   1   0   0 39440.2 526.742   8
  -1   0   0 39493.1 502.046   1
  -1   0  -1 154.459 45.6076   1
   1   0   1 122.921 41.9459   9
   1   0   1 189.339 51.1114   1
  -1   0  -1 120.604 33.5082   3
   1   0   1 130.751 38.1902  10
   1   0   1 148.703 40.9366  12
  -1   0  -2 81238.8 968.818  10
  -1   0  -2 81326.9 962.038  12
   1   0   2 81329.8 532.417   8
   1   0   2 81165.5 933.752  10
  -1   0  -2 81632.9 561.092   2
  -1   0  -2 82836.9 534.463   8
  -1   0  -2 81972.1 852.084   7
   1   0   2 81700.4 861.663   7
   1   0   2 79596.0 980.852   3
   1   0   2 81083.5 932.897  12
   1   0   2 81150.7 1006.36   1
  -1   0  -2 79991.5 1012.82  11
  -1   0  -2 81176.5 804.740   9
  -1   0  -2 80288.6 993.180   3
   1   0   2 79075.2 798.227   9
  -1   0  -3 481303. 3091.54  11
  -1   0  -3 483060. 3070.49   3
   1   0   3 468161. 1992.20   8
  -1   0  -3 490277. 2117.58   9
  -1   0  -3 476451. 1460.00   2
   1   0   3 483194. 2128.53   9
   1   0   3 481741. 2968.30   3
   1   0   3 491257. 2654.97  12
  -1   0  -3 477023. 2711.67   5
   1   0   3 493443. 2663.68  10
   1   0   3 493219. 3011.32   1
  -1   0  -3 489349. 2058.39   8
  -1   0  -3 493522. 3024.85   4
  -1   0  -3 492072. 2754.17  10
   1   0   3 499394. 3018.65  11
   1   0   3 486805. 2812.03   7
   1   0   4 128549. 1156.53   9
  -1   0  -4 126641. 1870.46   3
   1   0   4 129020. 870.403   2
   1   0   4 131753. 1570.05  10
  -1   0  -4 126968. 1678.91   5
   1   0   4 128727. 1737.73   7
  -1   0  -4 127419. 1596.59  10
  -1   0  -4 125857. 1337.35   8
   1   0   4 131680. 1558.94  12
  -1   0  -4 130340. 1891.10  11
   1   0   4 130944. 1301.10   8
  -1   0  -5 393.372 105.761  10
  -1   0  -5 342.497 129.855   3
   1   0   5 493.925 99.6797   8
   1   0   5 470.316 58.7081   2
   1   0   5 483.368 76.6537   9
   1   0   5 482.403 137.149   7
  -1   0  -5 328.631 121.346  11
  -1   0  -5 460.367 97.4178   8
  -1   0  -5 495.817 120.765   5
   1   0   6 25583.7 503.110   9
   1   0   6 24312.3 388.280   2
  -1   0  -6 24784.7 775.342   8
  -1   0  -6 25103.1 1061.33   3
  -1   0  -6 25098.0 838.795  10
  -1   0  -6 25379.4 935.467   5
   1   0   6 25032.8 997.494   7
  -1   0  -6 25210.3 1060.98  11
  -1   0  -7 8378.47 592.523   5
  -1   0  -7 7960.27 657.486   3
  -1   0  -7 7698.36 494.231  10
   1   0   7 7174.77 590.806   7
  -1   0  -7 8060.11 666.255  11
  -1   0  -8 19037.8 989.911   5
  -1   0  -8 17896.3 1064.45   3
  -1   0  -8 18114.9 1068.29  11
   1   0   8 17899.8 1022.29   7
   1   0   9 50838.7 1750.21   6
   1   0   9 51888.3 1875.64   7
  -1   0  -9 52214.7 1676.75   5
   1   1  -7 102870. 2335.68   5
   1   1  -7 104029. 2312.31   8
  -1  -1   7 105961. 2684.13   4
  -1  -1   7 106229. 2626.63   7
   1   1  -7 103804. 2596.19   3
   1   1  -7 103466. 2622.82  11
   1   1  -6 17896.7 899.772   5
   1   1  -6 18786.6 1032.02  11
  -1  -1   6 17232.5 811.523   6
   1   1  -6 17231.3 874.628   8
  -1  -1   6 19009.1 1022.70   7
  -1  -1   6 18746.2 1046.01   4
   1   1  -6 18673.0 1002.63   3
   1   1  -5 182580. 2611.77   5
   1   1  -5 179859. 2934.57  11
   1   1  -5 189603. 1800.16  10
  -1  -1   5 184483. 1429.13   9
  -1  -1   5 188718. 1883.13   2
   1   1  -5 176024. 2820.06   3
  -1  -1   5 185064. 2990.56   4
   1   1  -5 182195. 2637.69   8
  -1  -1   5 178198. 2866.49   7
  -1  -1   4 52387.8 1438.15   4
   1   1  -4 53755.4 1287.77   5
  -1  -1   4 56154.3 838.231   9
   1   1  -4 54338.6 1406.98   3
  -1  -1   4 54330.5 813.497   9
   1   1  -4 55097.7 1341.07   8
  -1  -1   4 53096.1 866.053  10
  -1  -1   4 51441.3 1409.84   7
   1   1  -4 53119.6 1434.75  11
  -1  -1   4 52549.4 856.702  12
   1   1  -4 54721.0 902.033  10
  -1  -1   3 79508.2 965.099  10
   1   1  -3 78169.7 1380.90   5
   1   1  -3 78460.9 1456.58   8
   1   1  -3 79961.2 1556.16  11
  -1  -1   3 79885.9 1570.27   4
   1   1  -3 82449.4 995.078  10
  -1  -1   3 80801.4 987.226   9
   1   1  -3 78356.8 1478.96   3
  -1  -1   2 589.941 84.9342   9
   1   1  -2 111.410 66.5122   3
  -1  -1   2 138.105 76.1434  11
  -1  -1   2 140.065 79.0098   8
   1   1  -2 129.684 61.9734   5
  -1  -1   2 300.588 81.3629   3
  -1  -1   2 103.191 59.8608   5
   1   1  -2 140.999 77.1560   8
  -1  -1   2 889.946 149.172   4
   1   1  -2 196.539 53.9469  10
   1   1  -2 165.003 86.2394  11
  -1  -1   2 733.209 83.5577  10
  -1  -1   1 59254.4 651.214  10
  -1  -1   1 60988.9 645.880   6
  -1  -1   1 60816.2 857.459   5
   1   1  -1 59593.2 663.768  10
   1   1  -1 59623.6 865.723   3
  -1  -1   1 60410.6 782.587   9
  -1  -1   1 62412.5 944.228  11
  -1  -1   1 59585.9 944.846   8
  -1  -1   1 60573.1 854.635   3
   1   1  -1 60364.1 962.225  11
  -1  -1   1 59736.0 961.434   4
   1   1  -1 60450.4 968.329   8
   1   1   0 1748.89 133.257   9
  -1  -1   0 1836.00 116.385  10
   1   1   0 1692.25 141.139   8
  -1  -1   0 1688.30 136.398   8
  -1  -1   0 2053.55 145.393  11
   1   1   0 1846.22 114.758  10
   1   1   0 1874.36 103.836   3
  -1  -1   0 1893.03 82.2556   6
   1   1   0 1897.14 82.3321   6
  -1  -1   0 1774.73 99.2446   3
  -1  -1   0 1715.59 111.366  10
  -1  -1   0 1797.13 132.533   9
   1   1   1 417188. 1874.28   9
   1   1   1 407312. 1621.97   6
  -1  -1  -1 409839. 1858.61   9
  -1  -1  -1 415982. 1868.07   2
  -1  -1  -1 415426. 1840.80  12
   1   1   1 422038. 1849.95   1
  -1  -1  -1 418347. 1860.09   1
   1   1   1 407100. 1800.62  12
   1   1   1 408937. 1814.96  10
  -1  -1  -1 409540. 1612.63   6
   1   1   1 413688. 1882.35   2
  -1  -1  -1 416322. 1856.70  10
   1   1   2 88591.4 846.230   9
  -1  -1  -2 87346.4 986.515  12
   1   1   2 83839.7 880.663   2
  -1  -1  -2 86341.6 988.313  10
  -1  -1  -2 85953.4 975.132   1
  -1  -1  -2 85517.9 882.216   2
   1   1   2 87522.3 966.972  10
   1   1   2 87841.3 899.719   3
  -1  -1  -2 86860.5 826.920   9
   1   1   2 88022.6 969.617   1
  -1  -1  -2 88338.7 950.273   7
   1   1   2 87182.2 962.612   7
   1   1   2 87247.5 961.500  12
  -1  -1  -2 87224.5 912.120   3
   1   1   3 224273. 1755.92  10
  -1  -1  -3 213221. 1936.68   5
   1   1   3 220645. 1736.24  12
  -1  -1  -3 216751. 1894.32   4
   1   1   3 224312. 1856.58   1
  -1  -1  -3 221929. 1318.56   9
   1   1   3 210271. 1494.32   2
  -1  -1  -3 224011. 1833.49   7
  -1  -1  -3 213816. 1902.59   3
  -1  -1  -3 215910. 1799.34  10
   1   1   3 218231. 1891.55   7
   1   1   3 222397. 1346.52   8
  -1  -1  -3 213375. 1473.49   2
   1   1   3 224099. 1338.18   9
  -1  -1  -3 212007. 1773.94  12
   1   1   3 217843. 1890.58   3
  -1  -1  -3 214125. 1970.12  11
  -1  -1  -4 241.801 96.3052  11
  -1  -1  -4 104.615 44.3209   2
  -1  -1  -4 514.717 109.974   7
   1   1   4 94.5121 70.7949   7
  -1  -1  -4 138.783 37.9273   9
  -1  -1  -4 314.314 112.072   3
   1   1   4 117.214 71.0065   1
  -1  -1  -4 104.815 76.0083   5
   1   1   4 19.2002 39.4762   3
  -1  -1  -4 82.3331 58.8112  10
  -1  -1  -4 79.4616 57.6805  12
   1   1   4 48.5308 44.8329  12
   1   1   4 184.321 46.7967   9
   1   1   4 39.9904 42.4816  10
   1   1   4 380.050 75.6980   8
   1   1   5 7754.91 400.908  10
  -1  -1  -5 8146.80 527.221  11
  -1  -1  -5 8336.32 246.210   9
  -1  -1  -5 7952.42 489.979   5
  -1  -1  -5 8421.66 440.460  10
   1   1   5 9425.99 368.574   2
   1   1   5 7911.42 372.688   8
  -1  -1  -5 7796.19 418.577  12
  -1  -1  -5 8530.25 343.274   2
   1   1   5 7985.01 240.914   9
   1   1   5 8532.39 420.768  12
   1   1   5 8402.01 507.617   7
  -1  -1  -5 7620.40 506.635   3
  -1  -1  -6 5260.47 473.218   3
  -1  -1  -6 5016.36 438.758   5
   1   1   6 5197.78 330.141   8
  -1  -1  -6 5112.54 375.799  10
   1   1   6 5722.12 300.579   2
  -1  -1  -6 4879.79 457.810  11
   1   1   6 5299.01 464.001   7
  -1  -1  -7 201802. 2461.42  10
  -1  -1  -7 195663. 3154.51  11
   1   1   7 196667. 2968.81   6
   1   1   7 196572. 3045.72   7
  -1  -1  -7 199442. 2949.26   5
  -1  -1  -7 195073. 3146.88   3
   1   1   8 84711.7 2110.05   6
  -1  -1  -8 87877.8 2286.45  11
  -1  -1  -8 84357.1 2083.99   5
  -1  -1  -8 83985.5 2252.41   3
   1   1   8 85428.3 2192.73   7
   1   1   9-74.6868 145.954   7
   1   1   9 264.376 160.600   6
  -1  -1  -9 201.595 153.021  11
  -1  -1  -9 34.3908 124.449   5
  -1  -1  -9 269.707 137.294   3
   1   2  -7 462.680 180.373   8
   1   2  -7 355.183 194.102   3
  -1  -2   6 751.361 240.039   7
  -1  -2   6 748.401 248.922   4
   1   2  -6 355.000 158.639   8
   1   2  -6 409.742 203.189  11
   1   2  -6 402.726 160.225   5
   1   2  -6 453.822 187.151   3
   1   2  -5 552.690 152.427   5
   1   2  -5 333.869 104.558  10
  -1  -2   5 417.385 177.876   7
  -1  -2   5 340.009 175.375   4
   1   2  -5 879.220 208.798   8
   1   2  -5 359.523 153.497   3
   1   2  -5 304.686 149.211  11
  -1  -2   4 110709. 1417.13  10
   1   2  -4 106775. 2059.60   3
  -1  -2   4 115376. 1312.84   2
   1   2  -4 106759. 2127.94  11
   1   2  -4 108110. 1827.73   5
  -1  -2   4 114091. 1414.22   9
   1   2  -4 111373. 1514.48  10
  -1  -2   4 107469. 2167.20   4
   1   2  -4 106201. 1976.38   8
  -1  -2   4 111325. 1509.70   9
  -1  -2   3 146059. 1648.14   9
  -1  -2   3 145938. 1576.11  10
   1   2  -3 145065. 2138.88   8
   1   2  -3 147572. 2247.57  11
  -1  -2   3 151929. 1755.31   6
  -1  -2   3 147561. 2246.50   4
   1   2  -3 152666. 1659.80  10
   1   2  -3 145225. 1908.42   5
  -1  -2   3 147708. 1526.77   2
   1   2  -3 147272. 2178.12   3
  -1  -2   2 112451. 1316.28   6
  -1  -2   2 109254. 1685.01   4
  -1  -2   2 112292. 1423.44   5
   1   2  -2 109019. 1687.63  11
  -1  -2   2 111578. 1588.52   3
  -1  -2   2 109523. 1254.80   2
  -1  -2   2 110290. 1285.83  10
   1   2  -2 109322. 1694.20   8
   1   2  -2 108297. 1607.13   3
   1   2  -2 108669. 1328.18  10
  -1  -2   1 177040. 1519.39  10
   1   2  -1 174447. 1909.19   8
  -1  -2   1 176117. 1519.27   5
  -1  -2   1 174395. 1518.97   2
  -1  -2   1 177067. 1865.67   8
  -1  -2   1 180634. 1766.28  11
   1   2  -1 177249. 1732.38   3
  -1  -2   1 173486. 1783.70   4
  -1  -2   1 176978. 1673.01   3
   1   2  -1 172635. 1441.75   6
   1   2  -1 174434. 1806.46  11
   1   2  -1 175516. 1575.77  10
  -1  -2   0 1117.37 123.261  10
  -1  -2   0 1241.93 134.961  10
   1   2   0 951.910 115.852   2
   1   2   0 1093.92 104.531   6
   1   2   0 1140.86 150.411   8
   1   2   0 1137.81 117.008   3
  -1  -2   0 1056.06 123.837   2
  -1  -2   0 1016.06 100.947   6
  -1  -2   0 1048.89 116.526  11
  -1  -2  -1 580.243 82.2726   6
  -1  -2  -1 771.867 109.958   2
  -1  -2  -1 686.173 103.618   9
   1   2   1 632.928 91.7645   1
   1   2   1 649.478 107.262   2
  -1  -2  -1 602.003 100.207  10
   1   2   1 711.259 96.8833   6
  -1  -2  -1 627.462 96.4311  10
  -1  -2  -1 722.907 99.6014   1
   1   2   1 675.772 99.1086  10
  -1  -2  -2 287720. 1858.64   9
  -1  -2  -2 279657. 2011.99  12
   1   2   2 281724. 1725.76   1
   1   2   2 282903. 2043.06   2
  -1  -2  -2 276916. 1743.26   1
  -1  -2  -2 287270. 1948.87   6
  -1  -2  -2 286385. 2021.53   2
   1   2   2 284106. 1979.11  10
   1   2   2 289092. 1701.04   3
  -1  -2  -2 283082. 2031.34  10
   1   2   2 278519. 1977.62   6
   1   2   3 47318.2 949.522   6
   1   2   3 47691.6 867.129  10
  -1  -2  -3 47757.6 838.560   4
  -1  -2  -3 48241.3 865.153   2
  -1  -2  -3 47262.5 718.214   9
  -1  -2  -3 46999.9 962.250   5
  -1  -2  -3 47210.9 830.112   1
  -1  -2  -3 47329.2 892.098  12
  -1  -2  -3 45986.9 870.975   3
  -1  -2  -3 46611.5 872.891  11
  -1  -2  -3 47733.3 911.465   7
   1   2   3 48437.5 809.211   1
  -1  -2  -3 47156.2 895.083  10
   1   2   3 48191.2 858.253   3
   1   2   3 47045.0 875.823   2
   1   2   3 47677.6 861.657  12
   1   2   4 287735. 2333.34  10
  -1  -2  -4 281852. 1685.82   9
   1   2   4 301060. 2574.46   3
  -1  -2  -4 286780. 2377.76  12
   1   2   4 279843. 2628.08   7
   1   2   4 275714. 2250.27   2
  -1  -2  -4 286239. 2463.80   4
   1   2   4 289753. 2368.00   1
  -1  -2  -4 289118. 2398.27  10
  -1  -2  -4 276089. 2680.70   5
   1   2   4 289960. 2330.22  12
  -1  -2  -4 293382. 2546.33   7
  -1  -2  -4 279716. 2215.05   2
  -1  -2  -4 276468. 2545.47  11
   1   2   4 285487. 2672.99   6
  -1  -2  -4 284766. 2587.29   3
   1   2   5 44220.7 895.047   8
   1   2   5 45506.3 998.032  10
   1   2   5 45751.5 972.705   2
  -1  -2  -5 45301.9 1020.38  10
  -1  -2  -5 44766.7 1195.22   5
  -1  -2  -5 43673.9 1179.07   3
  -1  -2  -5 45655.8 617.106   9
   1   2   5 44795.6 1187.09   7
  -1  -2  -5 45022.8 1014.15  12
   1   2   5 45860.7 987.604  12
  -1  -2  -5 45698.5 944.904   2
   1   2   5 44955.1 1182.73   6
  -1  -2  -5 44629.0 1179.03  11
  -1  -2  -6 1728.26 268.342   5
  -1  -2  -6 1823.38 195.190   2
  -1  -2  -6 1572.13 81.2659   9
   1   2   6 1649.22 260.849   7
   1   2   6 1885.02 214.185   2
   1   2   6 1564.49 256.048   6
   1   2   6 1501.30 181.446   8
  -1  -2  -6 1449.52 249.890  11
  -1  -2  -6 1708.54 219.153  10
  -1  -2  -6 1562.81 211.212  12
  -1  -2  -6 1377.84 244.754   3
  -1  -2  -7 5472.76 522.438   3
  -1  -2  -7 4796.22 469.022   5
   1   2   7 5635.95 372.105   2
   1   2   7 5006.70 497.537   7
   1   2   7 5320.24 491.446   6
  -1  -2  -7 4742.53 485.327  11
  -1  -2  -7 5708.57 417.551  10
  -1  -2  -8 23305.8 1160.67   3
   1   2   8 23913.6 1153.60   7
  -1  -2  -8 22673.5 1133.10  11
   1   2   8 22758.5 1076.94   6
  -1  -2  -8 24207.3 906.694  10
  -1  -2  -8 22723.2 1099.65   5
  -1  -2  -9 13801.2 932.285   5
  -1  -2  -9 13740.1 977.457   3
   1   2   9 14604.9 981.125   7
   1   2   9 13939.7 925.023   6
  -1  -2  -9 13898.6 968.040  11
   1   3  -6 8700.68 753.557   3
   1   3  -6 9328.42 782.143  11
  -1  -3   6 8928.35 778.105   4
   1   3  -6 9177.36 714.007   8
  -1  -3   6 9654.35 800.809   7
   1   3  -5 93155.2 2243.91  11
   1   3  -5 94368.0 2230.33   3
  -1  -3   5 93067.3 2275.20   4
   1   3  -5 90592.7 2092.75   8
  -1  -3   4 263133. 2723.32   9
   1   3  -4 254741. 3293.40   8
   1   3  -4 259920. 3443.51  11
   1   3  -4 254220. 3373.39   3
  -1  -3   4 262649. 3497.32   4
   1   3  -4 266246. 2675.85  10
   1   3  -3 9131.99 587.561  11
   1   3  -3 9084.01 580.449   8
  -1  -3   3 9162.85 392.628   2
  -1  -3   3 8763.60 577.860   4
   1   3  -3 8810.01 570.983   3
   1   3  -3 10069.2 503.306  10
   1   3  -2 127194. 1926.53   3
   1   3  -2 131059. 1745.62  10
  -1  -3   2 133444. 1972.15   4
  -1  -3   2 134301. 1585.60   5
   1   3  -2 130655. 2047.15   8
  -1  -3   2 131864. 1539.74   2
   1   3  -2 132286. 1966.33  11
  -1  -3   2 133097. 1635.72   6
  -1  -3   2 133604. 1679.12  10
  -1  -3   1 16306.0 493.736   5
  -1  -3   1 17161.3 554.217   2
   1   3  -1 16804.0 684.381   8
   1   3  -1 16665.5 614.911  11
  -1  -3   1 17822.2 593.083  10
   1   3  -1 16643.7 610.263   3
  -1  -3   1 16824.3 599.967   4
  -1  -3   1 17832.6 607.174  11
   1   3  -1 17345.0 604.488  10
   1   3  -1 17321.6 553.288   6
  -1  -3   1 17122.9 536.328   6
  -1  -3   0 4291.59 253.762   4
   1   3   0 3961.76 263.157   3
  -1  -3   0 3981.59 282.479  10
  -1  -3   0 4416.48 282.115   2
   1   3   0 5486.48 294.853   6
   1   3   0 4000.84 313.343   8
   1   3   0 4288.11 286.331   2
  -1  -3   0 4060.08 244.103   6
  -1  -3   0 5501.71 286.052  11
   1   3   0 4108.65 290.842  10
  -1  -3   0 4002.24 275.802  10
  -1  -3  -1 283360. 1782.76  11
  -1  -3  -1 275056. 2306.04  10
  -1  -3  -1 290500. 2287.34   2
  -1  -3  -1 281064. 2115.12   1
  -1  -3  -1 277342. 2035.59   6
  -1  -3  -1 289934. 2284.84  10
   1   3   1 279013. 2105.85   6
   1   3   1 277330. 2311.10   2
   1   3   2 43486.0 950.845   2
  -1  -3  -2 42255.0 888.970  10
   1   3   2 43879.3 898.420  10
   1   3   2 42044.0 718.252   1
  -1  -3  -2 45740.8 774.471   1
  -1  -3  -2 42891.7 920.662   2
   1   3   2 42074.7 879.950   6
  -1  -3  -2 43410.6 844.816   6
  -1  -3  -2 42507.6 921.257  10
  -1  -3  -3 24123.4 623.487   9
   1   3   3 23409.6 627.785   3
   1   3   3 23825.6 558.024   1
   1   3   3 23213.9 717.285   2
   1   3   3 23681.9 689.084  10
  -1  -3  -3 24887.1 721.893   2
  -1  -3  -3 22746.0 568.028   1
   1   3   3 23606.3 727.479   6
  -1  -3  -3 22792.5 694.902  12
  -1  -3  -3 23103.7 699.241  10
  -1  -3  -3 23945.3 703.123   7
  -1  -3  -3 25629.5 713.639   6
  -1  -3  -4 565648. 3644.11  10
  -1  -3  -4 540324. 3109.72   1
   1   3   4 551993. 3868.67   6
  -1  -3  -4 531466. 3872.61   5
  -1  -3  -4 561132. 3614.13  12
   1   3   4 535444. 3612.40   2
  -1  -3  -4 545659. 3409.56  11
  -1  -3  -4 560513. 3567.71   2
  -1  -3  -4 527882. 2849.91   9
   1   3   4 561958. 3099.73   1
  -1  -3  -4 550225. 3273.39   4
   1   3   4 584956. 3643.04   3
  -1  -3  -5 31149.0 893.381  12
   1   3   5 32729.8 934.193   2
   1   3   5 31799.6 1027.54   7
  -1  -3  -5 29121.7 1004.09   5
  -1  -3  -5 31659.6 640.647   9
   1   3   5 31011.8 1008.59   6
   1   3   5 32747.7 855.284   1
  -1  -3  -5 32394.2 914.432  10
  -1  -3  -5 32230.8 961.508  11
  -1  -3  -5 30384.0 969.989   3
  -1  -3  -6 112121. 2099.44   3
   1   3   6 115995. 2143.80   6
  -1  -3  -6 116753. 1070.67   9
  -1  -3  -6 115333. 2172.64   5
   1   3   6 117917. 1860.59   2
  -1  -3  -6 118398. 1836.96  12
  -1  -3  -6 118262. 1844.72  10
   1   3   6 116959. 2156.90   7
  -1  -3  -6 118809. 2075.72  11
  -1  -3  -7 139738. 2112.51  12
  -1  -3  -7 139882. 2116.87  10
  -1  -3  -7 138189. 2492.47  11
  -1  -3  -7 140569. 2579.30   5
   1   3   7 136499. 2494.14   6
   1   3   7 140979. 2573.96   7
   1   3   7 143449. 2088.16   2
  -1  -3  -7 138053. 2545.75   3
   1   3   8 82465.2 2131.17   7
   1   3   8 86063.6 1676.75   2
  -1  -3  -8 83455.5 1698.86  12
  -1  -3  -8 80619.0 1698.36  10
  -1  -3  -8 80319.2 2119.14   3
   1   3   8 82315.5 2059.89   6
  -1  -3  -8 81856.4 2084.65  11
  -1  -3  -8 80745.9 2108.92   5
  -1  -3  -9-47.9890 103.328   3
  -1  -3  -9-22.5796 116.750  11
   1   3   9 98.4470 162.549   7
  -1  -3  -9 53.7970 118.748   5
   1   3   9 298.772 188.834   6
   1   4  -6 1373.31 323.586   3
   1   4  -6 1525.15 311.907   8
  -1  -4   5 16988.1 1019.46   4
   1   4  -5 16572.1 992.017  11
   1   4  -5 17316.3 1009.06   3
   1   4  -5 16941.7 970.367   8
  -1  -4   4 8098.76 553.838   9
   1   4  -4 8510.94 648.437   3
  -1  -4   4 8045.35 637.341   4
   1   4  -4 7660.36 613.635   8
   1   4  -4 8335.22 645.139  11
   1   4  -4 7767.62 516.828  10
   1   4  -3 97084.4 1759.14  10
   1   4  -3 93005.1 1967.64   3
   1   4  -3 92954.4 1953.43  11
  -1  -4   3 95558.8 1977.52   4
   1   4  -3 92824.8 2002.79   8
  -1  -4   2 39976.8 858.715   5
   1   4  -2 39044.2 1228.41   8
  -1  -4   2 39152.4 1134.05   4
   1   4  -2 38162.5 1156.23   3
   1   4  -2 38744.2 1138.83  11
  -1  -4   2 40279.7 915.585   2
   1   4  -2 38440.1 1083.30  10
  -1  -4   1 56870.2 951.217   5
   1   4  -1 55128.7 1243.61   3
  -1  -4   1 59287.5 1137.61   2
   1   4  -1 54587.0 1377.08   8
  -1  -4   1 57204.8 1183.44   4
   1   4  -1 56774.6 1279.72  10
   1   4  -1 57346.4 1166.87   6
   1   4  -1 57939.5 1233.10  11
   1   4   0 659.204 127.866   6
   1   4   0 631.960 143.132  10
  -1  -4   0 851.050 139.565   6
  -1  -4   0 654.782 132.606   2
  -1  -4   0 648.937 145.927  10
   1   4   0 768.987 171.643   8
  -1  -4   0 679.054 112.395   4
   1   4   0 555.736 121.626   3
   1   4   0 558.479 126.313   2
  -1  -4  -1 43068.3 756.082  11
   1   4   1 41934.5 1029.26   2
   1   4   1 42470.3 1062.62  10
  -1  -4  -1 44083.6 1036.54   2
  -1  -4  -1 43113.7 1055.60  10
  -1  -4  -1 44484.0 950.627   6
  -1  -4  -1 43855.2 964.565   1
   1   4   1 42172.6 966.384   6
  -1  -4  -2 52099.7 927.032   1
  -1  -4  -2 53483.4 1071.21   6
   1   4   2 51436.2 1169.54   2
   1   4   2 51833.3 1102.79   6
  -1  -4  -2 51545.8 1161.62  10
  -1  -4  -3 2548.07 267.351  10
   1   4   3 3044.81 301.899   2
  -1  -4  -3 2729.32 262.368   9
   1   4   3 2911.84 284.998   6
   1   4   3 3027.93 208.395   1
  -1  -4  -4 12502.1 524.418   9
  -1  -4  -4 13126.6 473.681   4
  -1  -4  -4 12678.1 600.637  10
   1   4   4 13178.1 463.456   1
  -1  -4  -4 13121.9 632.646   5
  -1  -4  -4 12465.2 500.714  11
   1   4   4 12617.9 622.155   2
  -1  -4  -4 12634.7 464.223   1
   1   4   4 13402.6 639.396   6
  -1  -4  -4 13296.2 612.717  12
  -1  -4  -5 81963.0 1563.26  12
   1   4   5 81169.0 1272.87   1
  -1  -4  -5 79177.2 1231.42   9
   1   4   5 80057.2 1631.61   2
  -1  -4  -5 81466.2 1569.21  10
   1   4   5 83081.8 1728.94   6
  -1  -4  -5 82035.5 1715.00   5
  -1  -4  -6 31074.0 1148.78   5
  -1  -4  -6 31174.5 1003.75  12
  -1  -4  -6 31973.8 706.459   9
   1   4   6 31418.0 1056.07   2
  -1  -4  -6 31751.7 1041.25  11
  -1  -4  -6 30387.5 994.648  10
   1   4   6 31222.9 1138.80   6
  -1  -4  -7 29634.8 1176.75   3
   1   4   7 30419.9 1062.96   2
  -1  -4  -7 30787.9 1241.13   5
  -1  -4  -7 29854.4 1114.76  11
  -1  -4  -7 31524.1 1045.68  10
  -1  -4  -7 30995.6 1029.91  12
   1   4   7 31884.7 1252.18   7
   1   4   7 30390.3 1202.25   6
  -1  -4  -8 18163.7 816.993  12
   1   4   8 17930.9 980.657   6
  -1  -4  -8 17571.0 808.433  10
  -1  -4  -8 17573.1 1000.79   5
   1   4   8 18519.8 867.566   2
  -1  -4  -8 17080.8 970.232   3
   1   4   8 18144.2 1013.68   7
  -1  -4  -8 17270.3 935.176  11
  -1  -4  -9 14173.9 968.745   3
   1   4   9 14699.5 989.172   7
  -1  -4  -9 13529.3 944.365   5
  -1  -4  -9 14354.5 933.102  11
   1   4   9 14453.1 951.628   6
   1   5  -5 99309.1 2456.05   8
   1   5  -5 106166. 2611.42   3
  -1  -5   5 104256. 2564.15   4
   1   5  -5 103301. 2532.97  11
   1   5  -4 33599.8 1378.67   8
  -1  -5   4 33289.0 1223.32   9
  -1  -5   4 33814.4 1359.02   4
   1   5  -4 32732.5 1336.74  11
   1   5  -4 33707.1 1375.00   3
   1   5  -3 2630.87 325.511  10
   1   5  -3 2680.47 355.323  11
  -1  -5   3 2362.28 331.412   4
   1   5  -3 2495.30 353.606   8
   1   5  -3 2255.56 337.328   3
   1   5  -2 46.2120 77.0997  10
   1   5  -2-24.5784 131.813   8
   1   5  -2 153.545 96.1221  11
   1   5  -2 115.850 105.246   3
  -1  -5   1 3969.95 382.076  10
   1   5  -1 3300.64 340.743   3
  -1  -5   1 3639.44 318.775   4
  -1  -5   1 3850.58 249.878   5
   1   5  -1 3916.82 342.733  11
   1   5  -1 3812.59 379.629  10
   1   5  -1 4389.54 436.894   8
   1   5  -1 4125.84 353.513   6
   1   5   0 13867.7 634.094   6
  -1  -5   0 14594.7 708.695  10
   1   5   0 14302.8 735.183   8
  -1  -5   0 14149.8 530.835   4
  -1  -5   0 14304.5 535.065  11
   1   5   0 14032.0 644.559   3
   1   5   0 13598.7 634.644   2
   1   5   0 14361.2 714.058  10
  -1  -5  -1 5437.96 432.164  10
   1   5   1 5339.51 416.387   2
  -1  -5  -1 5346.67 377.761   1
  -1  -5  -1 5315.62 257.840   4
   1   5   1 5274.44 428.393  10
  -1  -5  -1 5120.12 288.512  11
   1   5   1 4611.35 367.941   6
  -1  -5  -2 271449. 1889.45  11
   1   5   2 262533. 2964.73   2
  -1  -5  -2 268235. 2964.14  10
   1   5   2 262227. 2811.28   6
  -1  -5  -2 267662. 2364.10   1
  -1  -5  -3 99813.4 1830.98  10
   1   5   3 99009.0 1857.96   2
   1   5   3 100335. 1779.64   6
  -1  -5  -3 100552. 1330.82   1
   1   5   4 92046.9 1214.14   1
   1   5   4 91810.2 1787.50   6
  -1  -5  -4 90154.2 1742.66  12
   1   5   4 89497.7 1821.88   2
  -1  -5  -4 90505.8 1713.58   5
  -1  -5  -4 89586.8 1243.57   1
  -1  -5  -4 89024.5 1280.80  11
  -1  -5  -4 87861.9 1729.83  10
  -1  -5  -4 92144.6 1145.54   4
  -1  -5  -5 182818. 2534.09  10
  -1  -5  -5 184746. 2662.10   5
  -1  -5  -5 187358. 1898.39   1
  -1  -5  -5 186748. 2551.01  12
   1   5   5 182264. 2679.78   2
   1   5   5 190572. 1835.62   1
  -1  -5  -5 193058. 1942.53   4
   1   5   5 181795. 2689.09   6
  -1  -5  -5 188109. 2141.50  11
  -1  -5  -6 1567.86 247.401  10
  -1  -5  -6 1655.27 233.654  11
  -1  -5  -6 1690.76 283.115   5
  -1  -5  -6 1696.00 258.048  12
   1   5   6 1482.71 250.211   2
   1   5   6 1837.90 293.614   6
  -1  -5  -7 70404.7 1908.58   5
   1   5   7 70317.2 1886.55   6
   1   5   7 71057.8 1766.85   2
  -1  -5  -7 71719.8 1673.27  10
  -1  -5  -7 71849.8 1663.25  12
  -1  -5  -7 72422.1 1671.71  11
  -1  -5  -8 72984.6 1737.66  10
  -1  -5  -8 72765.2 1729.45  12
  -1  -5  -8 73392.7 2077.75   5
   1   5   8 72251.4 1835.76   2
   1   5   8 73015.5 2027.09   6
  -1  -5  -8 73865.6 1863.73  11
  -1  -5  -9 35989.1 1441.45  11
  -1  -5  -9 37586.2 1581.38   5
   1   5   9 36293.5 1313.67   2
   1   5   9 37029.5 1546.13   6
  -1  -5 -10 20356.2 1139.33  11
  -1  -6   4 42732.8 1534.94   4
   1   6  -4 43233.8 1671.11   8
   1   6  -4 43710.4 1569.41  11
   1   6  -4 42080.5 1620.87   3
  -1  -6   3 2568.10 360.420   4
   1   6  -3 3241.21 443.787   8
   1   6  -3 3256.06 426.813   3
   1   6  -3 2919.93 386.040  11
   1   6  -3 3306.34 404.381  10
  -1  -6   3 3520.75 419.668  10
   1   6  -2 30874.2 1199.37   3
   1   6  -2 29605.3 1164.62  10
   1   6  -2 29010.1 1093.61  11
   1   6  -2 28950.9 1252.25   8
  -1  -6   2 31271.1 1108.35   4
  -1  -6   2 28451.2 1131.63  10
  -1  -6   1 10372.2 665.901  10
   1   6  -1 10243.8 647.775   3
   1   6  -1 10546.6 683.152  10
   1   6  -1 9869.68 605.952   6
   1   6  -1 9883.98 704.849   8
  -1  -6   1 10688.2 568.430   4
   1   6   0 446.024 143.057   2
   1   6   0 510.391 149.329   6
   1   6   0 334.116 129.464   3
   1   6   0 507.499 169.770   8
  -1  -6   0 561.686 122.981   4
  -1  -6   0 458.906 152.904  10
   1   6   0 471.747 158.500  10
   1   6   1 309.794 117.557   6
   1   6   1 134.974 117.023   2
  -1  -6  -1 56.6578 86.6093   1
   1   6   1-7.82301 91.7294  10
  -1  -6  -1-66.7213 132.198  10
  -1  -6  -1 65.2546 41.8660   4
  -1  -6  -1 33.9049 49.8907  11
  -1  -6  -2 169192. 2628.43  10
   1   6   2 171265. 2607.61   2
  -1  -6  -2 175124. 2113.12   1
  -1  -6  -2 177696. 1141.52   4
  -1  -6  -2 180354. 1563.65  11
   1   6   2 174361. 2511.70   6
   1   6   3 5531.27 486.888   2
  -1  -6  -3 5377.13 464.191  10
  -1  -6  -3 5187.85 330.247   1
  -1  -6  -3 5309.79 399.572   5
   1   6   3 5320.67 455.186   6
  -1  -6  -3 4785.56 162.432   4
   1   6   4 30710.9 1159.04   2
  -1  -6  -4 30876.5 1118.18  10
   1   6   4 30737.1 1114.47   6
  -1  -6  -4 30470.4 1035.47   5
  -1  -6  -4 30678.7 716.451  11
  -1  -6  -4 31203.7 754.123   1
  -1  -6  -4 30658.1 559.440   4
  -1  -6  -5 2647.52 224.230   1
   1   6   5 2615.72 350.665   6
   1   6   5 2548.52 206.088   1
  -1  -6  -5 2512.25 334.511   5
   1   6   5 2312.98 340.957   2
  -1  -6  -5 2704.79 210.791   4
  -1  -6  -5 2956.14 256.755  11
  -1  -6  -5 2675.78 342.895  12
  -1  -6  -5 2433.33 326.840  10
   1   6   6 12647.8 786.066   2
  -1  -6  -6 12504.0 731.286  12
  -1  -6  -6 13401.6 799.652   5
  -1  -6  -6 13474.4 619.213  11
   1   6   6 12361.9 785.275   6
  -1  -6  -6 12778.6 744.689  10
  -1  -6  -7 5363.47 485.301  12
  -1  -6  -7 6041.53 571.620   5
   1   6   7 5650.39 542.163   2
   1   6   7 5639.56 559.688   6
  -1  -6  -7 5320.62 488.576  10
  -1  -6  -7 5966.47 465.865  11
   1   6   8 127.294 125.711   2
  -1  -6  -8 105.019 71.4490  11
  -1  -6  -8 155.242 137.660   5
  -1  -6  -8 16.2991 108.823  10
   1   6   8-121.412 135.652   6
  -1  -6  -8-77.5643 121.602  12
  -1  -6  -9 340.295 164.454   5
   1   6   9 354.783 164.249   2
  -1  -6  -9 282.698 142.510  11
   1   6   9 374.672 192.334   6
   1   7  -3 475.578 187.213   3
  -1  -7   3 583.949 221.079   9
   1   7  -3 691.464 207.117  10
   1   7  -3 703.437 241.908   8
  -1  -7   3 525.785 168.229  10
   1   7  -2 664.803 213.058  10
  -1  -7   2 583.365 193.637  10
   1   7  -2 700.969 244.340   8
   1   7  -2 746.669 214.786   3
   1   7  -1 7339.76 572.626   6
  -1  -7   1 7872.25 634.334  10
   1   7  -1 7761.73 614.859   3
   1   7  -1 7203.65 652.270   8
   1   7  -1 8310.45 651.103  10
   1   7   0 24653.6 1016.67   6
   1   7   0 23957.9 995.071   2
   1   7   0 24038.2 1140.56   8
   1   7   0 23290.2 1000.93   3
  -1  -7   0 25271.4 1063.64   1
  -1  -7   0 24472.6 1105.24  10
   1   7   0 23931.2 1113.98  10
   1   7   1 5125.41 477.542   2
  -1  -7  -1 5752.76 535.090  10
  -1  -7  -1 6224.31 478.404   1
   1   7   1 5343.12 534.130   8
   1   7   1 5795.25 491.339   6
  -1  -7  -2 4200.99 457.032  10
   1   7   2 4704.26 474.553   2
  -1  -7  -2 4483.09 369.304   1
   1   7   2 4150.75 424.178   6
  -1  -7  -3 62988.3 1739.94  10
  -1  -7  -3 62674.9 1235.03   1
   1   7   3 58555.1 1603.03   6
  -1  -7  -3 63561.4 1406.63   5
   1   7   3 61960.5 1720.14   2
  -1  -7  -4 183669. 2969.44  10
  -1  -7  -4 190462. 1642.95  11
   1   7   4 181632. 3025.10   2
  -1  -7  -4 181438. 2593.26   5
  -1  -7  -4 184019. 1948.59   1
   1   7   4 177111. 2884.59   6
  -1  -7  -5 101299. 1385.45  11
   1   7   5 94821.8 2230.49   2
   1   7   5 96199.7 2196.66   6
  -1  -7  -5 95937.0 2136.20  12
  -1  -7  -5 96751.5 2037.34   5
  -1  -7  -5 95017.8 2141.43  10
  -1  -7  -6 10031.8 701.743   5
  -1  -7  -6 11163.1 745.727  10
   1   7   6 10289.1 762.181   2
   1   7   6 11416.0 784.835   6
  -1  -7  -6 10932.7 731.879  12
   1   7   7 17673.4 1005.17   2
  -1  -7  -7 16615.6 966.445   5
  -1  -7  -7 17921.8 938.765  12
   1   7   7 16856.5 995.942   6
  -1  -7  -7 16486.1 903.292  10
  -1  -7  -8 23522.4 1114.09  10
   1   7   8 23827.9 1215.47   2
   1   7   8 24524.9 1260.06   6
  -1  -7  -8 23983.2 1121.18  12
  -1  -7  -8 24132.1 1231.00   5
   1   7   9 24698.1 1239.15   2
   1   8  -2 41014.9 1569.92  10
  -1  -8   2 41416.3 1553.73  10
   1   8  -2 41686.5 1575.47   3
  -1  -8   2 43239.9 1699.42   9
  -1  -8   1 39533.9 1549.06  10
   1   8  -1 38548.5 1480.28   3
   1   8  -1 38792.9 1634.94   8
  -1  -8   1 35254.8 1463.27   1
   1   8  -1 38587.8 1552.21  10
   1   8  -1 40599.8 1443.41   6
   1   8   0 4868.75 501.420   6
  -1  -8   0 5060.78 549.531  10
   1   8   0 4523.19 541.598   8
  -1  -8   0 4446.37 484.013   1
   1   8   0 4620.86 477.035   2
   1   8   0 4992.37 517.822   3
   1   8   1 2952.72 386.532   6
  -1  -8  -1 3291.00 442.932  10
   1   8   1 3274.30 448.810   8
  -1  -8  -1 3269.00 382.959   1
   1   8   1 3297.00 395.850   3
   1   8   1 3479.57 422.458   2
   1   8   2 152.881 116.307   6
  -1  -8  -2 304.444 113.900   1
  -1  -8  -2-6.43175 127.797  10
   1   8   2 38.1508 102.234   2
  -1  -8  -3 28347.3 965.473   5
  -1  -8  -3 26661.9 1224.16  10
   1   8   3 26973.0 1217.14   2
   1   8   3 26311.7 1151.84   6
   1   8   4 2036.52 342.011   6
  -1  -8  -4 1931.00 281.364   5
  -1  -8  -4 2495.46 382.528  10
   1   8   4 1983.51 353.240   2
  -1  -8  -5 9997.18 668.962   5
   1   8   5 10247.9 780.828   2
   1   8   5 9383.70 724.245   6
  -1  -8  -5 9883.18 740.427  10
  -1  -8  -5 10386.0 761.220  12
   1   8   6 20587.5 1132.02   2
  -1  -8  -6 20998.4 1083.80  10
  -1  -8  -6 20797.3 1028.44   5
   1   8   6 21019.3 1122.53   6
  -1  -8  -6 20956.4 1077.31  12
  -1  -8  -7 7433.15 658.684  10
  -1  -8  -7 8431.07 705.030   5
   1   8   7 8751.43 756.512   2
  -1  -8  -7 7426.62 655.143  12
   1   8   7 8178.58 734.730   6
   1   8   8 2214.50 399.804   6
  -1  -8  -8 1820.64 333.944  10
  -1  -8  -8 2310.67 410.567   5
  -1  -8  -8 2160.25 359.304  12
   1   8   8 2269.61 419.993   2
  -1  -8  -9 234.078 143.980  10
  -1  -8  -9 483.423 164.023  12
   1   9   0 65957.6 1911.53   6
   1   9   0 66522.1 1928.26   3
  -1  -9   0 63554.0 2061.24  10
  -1  -9  -1 78.9314 121.364  10
   1   9   1 306.287 148.114   2
   1   9   1-14.4274 119.549   8
   1   9   1 31.9875 99.6480   3
   1   9   1-142.075 157.689   6
  -1  -9  -2 25559.6 1290.41  10
   1   9   2 26426.6 1232.66   6
   1   9   2 26428.6 1335.09   8
   1   9   2 26113.2 1251.40   2
  -1  -9  -3 2827.39 429.495  10
   1   9   3 2315.77 384.362   2
   1   9   4 37764.1 1502.77   6
  -1  -9  -4 39801.4 1591.62  10
   1   9   4 37417.5 1536.90   2
  -1  -9  -5 125418. 2416.31   5
   1   9   5 124624. 2795.43   6
   1   9   5 121793. 2858.81   2
  -1  -9  -5 121203. 2757.52  10
   1   9   6 41335.2 1696.50   2
  -1  -9  -6 40777.8 1481.92   5
   1   9   6 41267.2 1672.85   6
  -1  -9  -6 41424.7 1631.19  12
  -1  -9  -6 41176.8 1628.23  10
  -1  -9  -7 200.349 167.022  10
  -1  -9  -7 156.532 112.671   5
   1   9   7 158.720 140.793   2
  -1  -9  -7 131.541 135.368  12
  -1  -9  -8 52968.6 1849.75  10
  -1  -9  -8 52000.2 1822.48  12
   1  10   2 2517.68 385.124   3
   1  10   2 3357.05 464.266   6
   1  10   2 3079.69 458.728   2
   1  10   3 2.89517 149.648   2
   1  10   3 103.922 120.231   6
   1  10   4 4188.99 528.331   6
  -2  10   2 259.938 101.383   2
  -2  10   1 32103.8 1400.46   2
   2  -9  -6 114017. 2537.59   5
   2  -9  -6 109997. 2465.23  10
   2  -9  -6 111362. 2468.12  12
   2  -9  -5 116821. 2515.94   9
   2  -9  -5 110348. 2613.78  10
  -2   9   4 2311.22 416.628   2
  -2   9   4 2766.10 456.670   6
   2  -9  -4 2862.76 437.527  10
   2  -9  -4 2420.81 395.401   9
  -2   9   3 189.307 165.257   2
  -2   9   3 60.2977 143.549   6
   2  -9  -3-13.6162 113.939  10
   2  -9  -3 87.5296 113.592   9
   2  -9  -2 1207.90 308.712   9
   2  -9  -2 934.775 259.920  10
  -2   9   2 1283.45 300.192  10
  -2   9   2 1144.64 283.108   6
  -2   9   2 991.468 265.989   2
   2  -9  -1 13036.2 942.894  10
  -2   9   1 12739.1 869.458   2
  -2   9   1 13997.4 977.465   6
   2  -9  -1 13352.6 958.042   9
  -2   9   1 13257.0 963.161  10
  -2   9   0 48152.2 1823.97   6
   2  -9   0 51933.8 1926.58  10
  -2   9   0 52414.8 1677.97   2
   2  -9   0 49997.4 1910.63   9
  -2   9   0 54302.4 1976.31  10
   2  -8  -7 33593.0 1502.91   5
  -2   8   6 2629.56 434.809   6
   2  -8  -6 2338.36 346.835  10
   2  -8  -6 2692.19 415.458   5
   2  -8  -6 2627.96 367.714  12
  -2   8   6 2602.52 449.942   2
  -2   8   5 485.251 209.254   2
   2  -8  -5 282.912 136.782  10
  -2   8   5 170.569 149.177   6
   2  -8  -5 319.824 150.637   5
   2  -8  -5 428.790 160.671   9
   2  -8  -4 6442.99 579.690   9
   2  -8  -4 6196.63 514.986   5
   2  -8  -4 6643.83 597.059  10
  -2   8   4 6646.33 653.097   2
  -2   8   4 6396.22 626.726   6
   2  -8  -3 12633.5 661.514   5
  -2   8   3 11455.2 838.648   2
   2  -8  -3 11435.5 778.971   9
   2  -8  -3 12371.0 831.494  10
  -2   8   3 12004.0 845.639   6
   2  -8  -2 43943.7 1565.75  10
   2  -8  -2 44976.9 1599.46   9
  -2   8   2 44232.0 1580.39   2
  -2   8   2 43369.2 1573.56  10
  -2   8   2 44789.2 1621.83   6
   2  -8  -1 1609.17 312.440  10
  -2   8   1 2052.81 363.691   6
   2  -8  -1 1640.89 334.502   9
  -2   8   1 1561.97 321.449  10
  -2   8   1 2160.44 347.593   2
  -2   8   0 161.944 142.854   2
  -2   8   0 126.802 133.089   6
   2  -8   0 196.930 153.658   9
  -2   8   0-3.79028 115.492  10
   2  -8   1 29613.9 1378.98   9
  -2   8  -1 28463.9 1331.05   6
  -2   8  -1 29758.8 1150.63   2
  -2   8  -1 28599.6 1339.37   3
  -2   8  -1 30192.8 1385.12  10
  -2   8  -2 11064.2 874.193   3
  -2   8  -2 10455.5 835.290   6
  -2   8  -2 10764.3 818.549   8
   2  -8   2 11232.8 883.800   9
  -2   8  -2 10231.5 840.939  10
  -2   8  -3 238.532 132.909   8
  -2   7   7 8163.04 738.740   6
  -2   7   7 8266.40 765.652   2
   2  -7  -7 8404.42 760.061   5
   2  -7  -6 75588.0 2081.80   5
   2  -7  -6 76682.9 1795.10  10
  -2   7   6 77051.7 2216.08   2
   2  -7  -6 74445.1 1762.12  12
  -2   7   6 76653.9 2155.39   6
   2  -7  -5 159054. 2496.31   9
  -2   7   5 159325. 3085.03   2
   2  -7  -5 156419. 2778.69   5
   2  -7  -5 156790. 2596.12  10
  -2   7   5 159159. 3000.24   6
   2  -7  -4 22615.4 1004.16  10
  -2   7   4 22281.9 1096.98   6
   2  -7  -4 24017.9 999.137   9
  -2   7   4 23059.1 1147.18   2
   2  -7  -4 23099.8 974.489   5
   2  -7  -3 74500.6 1862.83  10
   2  -7  -3 76555.7 1846.38   9
   2  -7  -3 79561.4 1613.93   5
  -2   7   3 75793.9 2008.52   2
  -2   7   3 77211.0 1998.79   6
  -2   7   3 76362.5 1901.32  10
  -2   7   2 27458.6 1158.32  10
  -2   7   2 28758.6 1200.78   2
   2  -7  -2 30170.5 868.649   5
  -2   7   2 28656.4 1219.32   6
   2  -7  -2 28268.9 1162.15   9
   2  -7  -2 28350.0 1170.38  10
  -2   7   1 125928. 2537.63  10
  -2   7   1 124684. 2528.80   6
  -2   7   1 129423. 2453.04   2
   2  -7  -1 120749. 2488.70   9
   2  -7   0 41634.0 1485.29   9
  -2   7   0 40671.5 1321.33   2
  -2   7   0 40728.4 1455.92   6
  -2   7   0 41475.1 1487.38  10
  -2   7  -1 6509.25 601.244   6
  -2   7  -1 6467.09 612.962  10
  -2   7  -1 6835.32 515.437   2
   2  -7   1 7092.60 636.091   9
  -2   7  -2 3142.96 431.659   6
   2  -7   2 2989.22 423.264   9
  -2   7  -2 3329.03 449.898  10
  -2   7  -2 3268.18 419.728   8
  -2   7  -2 3510.90 464.496   3
  -2   7  -3 2448.71 400.632  10
  -2   7  -3 2890.04 425.447   3
   2  -7   3 3063.68 444.772   9
  -2   7  -3 2468.16 377.006   8
  -2   7  -4 3415.39 508.670   3
  -2   7  -4 3563.06 443.904   8
  -2   7  -4 4744.08 569.601  10
   2  -7   4 3720.67 496.832   9
  -2   6   8 9728.55 787.496   2
  -2   6   8 8996.92 755.698   6
   2  -6  -7 36751.0 1552.79   5
  -2   6   7 35992.7 1509.95   2
  -2   6   7 35744.2 1463.58   6
   2  -6  -6 107.010 110.307   5
  -2   6   6 61.3502 116.155   6
  -2   6   6 55.2711 125.575   2
  -2   6   5 8297.40 652.116   6
  -2   6   5 8089.18 465.683   4
  -2   6   5 7715.63 648.034   2
   2  -6  -5 7569.04 478.500   9
   2  -6  -5 8196.13 542.290  10
   2  -6  -5 8486.81 546.804  12
   2  -6  -5 7825.10 617.619   5
   2  -6  -4 15320.9 791.225   5
   2  -6  -4 15663.4 762.093  10
   2  -6  -4 15575.9 726.649   9
   2  -6  -4 16864.1 500.239  11
  -2   6   4 16680.8 537.986   4
  -2   6   4 16112.8 907.626   2
  -2   6   4 15704.3 867.289   6
  -2   6   3 572.399 183.720   6
   2  -6  -3 430.366 157.126  10
  -2   6   3 376.346 140.405  10
   2  -6  -3 220.421 109.443   5
   2  -6  -3 469.430 157.680   9
  -2   6   3 426.259 174.863   2
   2  -6  -2 62347.5 1579.52   9
   2  -6  -2 65440.4 1291.21   5
  -2   6   2 62516.9 1648.35   2
   2  -6  -2 62327.2 1576.91  10
  -2   6   2 64485.8 1630.29  10
  -2   6   2 63197.7 1665.52   6
   2  -6  -1 37714.5 805.582   5
   2  -6  -1 37953.5 1273.31   9
   2  -6  -1 38118.0 629.098   1
  -2   6   1 38509.9 1249.38   2
  -2   6   1 37454.6 1265.48  10
  -2   6   1 36707.4 1275.99   6
  -2   6   0 11992.7 737.543   6
  -2   6   0 12309.0 747.294  10
   2  -6   0 12181.3 743.610   9
  -2   6   0 12216.8 679.217   2
   2  -6   0 12118.7 471.807   1
   2  -6   1 18511.8 944.995   9
  -2   6  -1 17862.2 916.142   6
  -2   6  -1 19566.9 806.346   2
  -2   6  -1 19531.2 484.090  11
  -2   6  -1 18181.2 939.937  10
  -2   6  -2 28367.5 1174.25   6
  -2   6  -2 29846.6 922.055   2
  -2   6  -2 28811.7 795.534  11
  -2   6  -2 26755.4 1176.02   3
   2  -6   2 28990.9 1207.83   9
  -2   6  -2 27895.7 1193.87  10
  -2   6  -3 15725.8 910.570   6
  -2   6  -3 15784.6 847.174   8
  -2   6  -3 16716.8 960.944   3
  -2   6  -3 18064.0 985.573  10
  -2   6  -3 17517.6 734.281  11
   2  -6   3 16753.5 928.914   9
   2  -6   4 2443.22 375.992   9
  -2   6  -4 2840.88 381.552   8
  -2   6  -4 2920.95 347.107  11
  -2   6  -4 2734.17 408.770  10
   2  -6   5 3355.66 442.176   9
  -2   6  -5 3613.60 514.368   3
  -2   6  -5 3332.24 473.702  10
  -2   5   8 291.933 147.987   6
  -2   5   8 509.823 209.525   2
   2  -5  -8 496.297 189.636  11
  -2   5   7 52.1941 91.7857   6
   2  -5  -7 109.780 136.608   5
  -2   5   7 112.071 116.785   4
  -2   5   7 293.740 179.060   7
  -2   5   7 266.434 150.141   2
   2  -5  -7 203.970 127.950  11
   2  -5  -6 8543.66 695.267   5
  -2   5   6 7458.72 552.321   4
  -2   5   6 8450.14 671.016   2
   2  -5  -6 7152.92 518.633  11
  -2   5   6 7636.03 651.140   7
  -2   5   6 7395.03 602.164   6
   2  -5  -5 205243. 2403.27  10
   2  -5  -5 210499. 2133.31   9
   2  -5  -5 208132. 3162.68   5
  -2   5   5 213174. 2583.50   4
   2  -5  -5 209137. 2401.48  12
  -2   5   5 209721. 3047.51   6
  -2   5   5 202767. 3146.18   2
   2  -5  -5 210771. 2468.81  11
   2  -5  -4 329069. 3622.02   5
   2  -5  -4 340343. 3152.33  10
  -2   5   4 341660. 2508.66  11
   2  -5  -4 337806. 2950.27   9
  -2   5   4 336588. 2802.28   4
  -2   5   4 327986. 3854.34   2
   2  -5  -4 344158. 2665.74  11
  -2   5   4 331669. 3722.97   6
   2  -5  -3 44314.9 1147.89   9
   2  -5  -3 44646.7 1209.35   5
   2  -5  -3 46470.1 1190.27  10
  -2   5   3 48249.3 856.402   4
  -2   5   3 45543.7 1325.44   6
  -2   5   3 45611.3 1372.59   2
  -2   5   3 48864.7 774.228  11
  -2   5   2 31798.7 1077.66   6
   2  -5  -2 33879.0 930.935   5
   2  -5  -2 32528.8 1032.00   9
  -2   5   2 31552.1 1029.72  10
  -2   5   2 33847.3 517.690   4
  -2   5   2 32246.7 1113.28   2
  -2   5   1 474.204 154.771   2
  -2   5   1 555.882 155.995  10
   2  -5  -1 525.005 101.093   5
   2  -5  -1 448.124 149.030   9
   2  -5  -1 632.639 66.8426   1
  -2   5   1 515.567 159.239   6
   2  -5   0 19032.6 416.049   5
  -2   5   0 19351.6 846.055  10
   2  -5   0 17860.1 537.934   1
  -2   5   0 18522.0 374.130   4
  -2   5   0 17931.8 754.224   2
   2  -5   0 17555.2 815.368   9
  -2   5   0 18430.6 828.835   6
  -2   5  -1 15545.5 469.234   4
   2  -5   1 15635.9 792.322   9
  -2   5  -1 15609.7 425.232  11
  -2   5  -1 14669.4 646.075   2
  -2   5  -1 15162.3 772.232   6
  -2   5  -1 15174.6 778.485  10
   2  -5   2 121467. 2259.09   9
  -2   5  -2 118949. 1706.38   2
  -2   5  -2 125997. 1564.07   4
  -2   5  -2 122984. 1575.62  11
  -2   5  -2 117763. 2271.25   3
  -2   5  -2 116665. 2222.14   6
  -2   5  -2 117544. 2256.87  10
   2  -5   3 8786.56 632.617   9
  -2   5  -3 8419.47 627.692   6
  -2   5  -3 8865.42 407.237   2
  -2   5  -3 8813.29 575.398   8
  -2   5  -3 8117.15 631.327   3
  -2   5  -3 9097.59 512.526  11
  -2   5  -3 9306.26 662.506  10
  -2   5  -4 85494.6 2167.78   3
   2  -5   4 85088.9 1984.02   9
  -2   5  -4 86144.9 1844.30   8
  -2   5  -4 85100.7 1794.99  11
  -2   5  -4 83386.9 2043.01  10
  -2   5  -5 710.456 221.233   3
   2  -5   5 704.238 203.386   9
  -2   5  -5 633.957 186.600   8
  -2   5  -5 748.104 197.726  11
  -2   5  -5 902.379 244.093  10
  -2   5  -6 3169.25 485.711   3
   2  -5   6 3503.82 434.546   7
  -2   5  -6 3138.72 418.551  11
  -2   5  -6 3308.67 443.812  10
  -2   4   8 3673.12 451.633   6
   2  -4  -8 3966.21 500.777  11
  -2   4   8 4495.98 555.277   4
   2  -4  -7 1818.69 309.701  11
  -2   4   7 1804.16 314.891   6
   2  -4  -7 1610.01 324.435   5
  -2   4   7 1635.95 304.265   2
  -2   4   7 1785.04 324.624   4
  -2   4   7 1551.92 309.858   7
  -2   4   6 1550.38 274.254   2
   2  -4  -6 1623.57 322.743   5
  -2   4   6 1191.44 241.388   4
   2  -4  -6 1322.09 246.674  11
  -2   4   6 1237.50 268.355   7
  -2   4   6 1177.61 229.257   6
  -2   4   5 101546. 2149.42   7
   2  -4  -5 103483. 1476.60  10
   2  -4  -5 102088. 2189.28   5
   2  -4  -5 105962. 1160.86   9
  -2   4   5 104985. 1938.48   4
  -2   4   5 103077. 2117.96   2
   2  -4  -5 102515. 1855.35  11
  -2   4   5 99010.9 1979.68   6
   2  -4  -5 105436. 1472.17  12
   2  -4  -4 126083. 1652.28  12
   2  -4  -4 125152. 2222.65   5
   2  -4  -4 126464. 1528.28   9
  -2   4   4 123844. 2182.50   7
  -2   4   4 124261. 1869.62   4
  -2   4   4 121753. 2220.23   2
   2  -4  -4 126135. 1662.34  10
   2  -4  -4 127921. 1793.22  11
  -2   4   4 125913. 1194.39   1
   2  -4  -4 129283. 1606.47  10
  -2   4   4 124830. 2108.47   6
  -2   4   3 228065. 2711.96   6
   2  -4  -3 235910. 2345.57  10
  -2   4   3 230813. 1980.28  11
   2  -4  -3 233246. 2733.91   5
   2  -4  -3 231188. 2261.66   9
  -2   4   3 233120. 2160.22   4
  -2   4   3 226345. 2880.18   2
   2  -4  -3 231457. 2242.23  10
   2  -4  -3 237165. 2050.07  11
  -2   4   2 62671.4 1436.05   2
   2  -4  -2 65087.5 1274.69   9
   2  -4  -2 62870.5 1252.34   5
  -2   4   2 65396.9 918.462   4
  -2   4   2 64229.2 795.587  11
  -2   4   2 64337.9 1271.84  10
  -2   4   2 65071.2 1395.86   6
   2  -4  -1 58595.8 1026.60   5
  -2   4   1 57397.6 1309.86   2
   2  -4  -1 58659.6 1267.08   9
  -2   4   1 60771.7 1018.04   5
  -2   4   1 58584.5 1321.79   6
   2  -4  -1 59741.3 1105.14   7
  -2   4   1 58972.7 1252.44  10
  -2   4   0 23310.8 842.699   6
   2  -4   0 24734.5 506.984   5
   2  -4   0 23152.6 836.606   9
   2  -4   0 24442.1 543.182   1
  -2   4   0 25025.9 508.812   5
  -2   4   0 23960.9 797.965   2
  -2   4   0 24240.8 845.425  10
  -2   4   0 23757.5 307.393  11
   2  -4   1 20171.6 814.318   9
  -2   4  -1 20478.2 532.573   4
  -2   4  -1 19946.9 806.286   6
  -2   4  -1 20285.9 682.728   2
  -2   4  -1 21037.9 819.820  10
   2  -4   1 21324.7 641.509   1
   2  -4   1 21473.0 671.445   2
  -2   4  -1 21395.1 489.539  11
  -2   4  -2 12102.1 658.766   6
   2  -4   2 13131.4 679.607   9
  -2   4  -2 13031.2 693.816   3
  -2   4  -2 13165.9 501.523   2
   2  -4   2 13061.2 482.193   2
  -2   4  -2 12712.8 490.176  11
  -2   4  -2 12532.3 500.340   4
  -2   4  -2 12571.2 669.235  10
   2  -4   3 258422. 3085.64   9
  -2   4  -3 257576. 2764.50   8
  -2   4  -3 257218. 3174.53  10
  -2   4  -3 261153. 2652.58  11
  -2   4  -3 249954. 3246.11   3
  -2   4  -4 53439.0 1377.06  11
  -2   4  -4 53877.6 1313.02   8
  -2   4  -4 51496.0 1589.74   3
   2  -4   4 52282.6 1437.84   9
  -2   4  -4 51677.3 1488.99  10
   2  -4   5 20614.3 917.357   9
  -2   4  -5 20874.4 990.406  10
  -2   4  -5 20002.2 937.088  11
  -2   4  -5 21846.9 881.422   8
  -2   4  -5 19846.0 1049.30   3
   2  -4   6 4486.22 440.688   9
   2  -4   6 4134.45 451.048   7
  -2   4  -6 3380.23 473.949   3
  -2   4  -6 3494.91 429.796  10
  -2   4  -6 3683.19 450.204  11
  -2   4  -7 240.345 119.508  10
   2  -4   7 25.4505 96.5390   7
  -2   4  -7 112.096 126.629  11
   2  -3  -8 4333.55 543.705  11
  -2   3   8 4084.11 544.998   4
  -2   3   7 7233.09 586.422   6
  -2   3   7 6805.46 566.627   2
   2  -3  -7 7230.89 634.530  11
  -2   3   7 7411.94 665.727   4
   2  -3  -7 7281.34 668.677   5
  -2   3   7 6934.30 660.960   7
  -2   3   6 5683.87 535.972   4
   2  -3  -6 5465.80 541.036   5
   2  -3  -6 5622.03 516.352  11
  -2   3   6 6471.06 510.871   6
  -2   3   6 5322.53 476.351   2
  -2   3   6 5940.75 566.687   7
   2  -3  -5 85463.5 1076.74  10
   2  -3  -5 80068.5 1931.08   5
  -2   3   5 80163.0 1679.68   6
   2  -3  -5 84798.1 1061.41  12
  -2   3   5 81090.3 1800.16   4
  -2   3   5 81097.5 1907.58   7
   2  -3  -5 82944.1 1768.42  11
  -2   3   5 83916.1 1812.33   2
   2  -3  -4 492361. 2677.25  10
   2  -3  -4 471406. 4301.67   5
   2  -3  -4 481863. 2303.96   9
  -2   3   4 470638. 3865.37   4
  -2   3   4 464331. 3751.61   6
   2  -3  -4 471643. 2622.57  10
  -2   3   4 473315. 4097.53   2
   2  -3  -4 490877. 2666.97  12
   2  -3  -4 462575. 3714.47  11
  -2   3   4 478395. 4184.99   7
  -2   3   3 340112. 3166.64   7
   2  -3  -3 355408. 2377.23  10
   2  -3  -3 339593. 3290.50   5
  -2   3   3 348869. 2866.93   4
  -2   3   3 348955. 3047.49   6
  -2   3   3 352046. 3347.58   2
   2  -3  -3 348208. 2760.49  11
  -2   3   3 357714. 2716.35  11
   2  -3  -3 357002. 2371.56   9
   2  -3  -3 351875. 2352.57  10
   2  -3  -2 1177.12 166.663   6
   2  -3  -2 1206.25 155.074   9
   2  -3  -2 1931.70 222.156   5
  -2   3   2 1156.07 166.548   5
  -2   3   2 1249.52 173.694   7
  -2   3   2 1243.69 84.5926   1
   2  -3  -2 1412.71 148.122  11
  -2   3   2 1216.12 134.124  11
  -2   3   2 1241.03 148.249   4
   2  -3  -2 1249.38 169.138   7
  -2   3   2 1366.98 162.286  10
   2  -3  -2 1460.72 165.893  10
  -2   3   2 1237.17 198.178   2
   2  -3  -2 1280.07 148.832  10
   2  -3  -1 41381.7 854.748   5
   2  -3  -1 41174.2 931.745   9
  -2   3   1 41059.2 825.165   5
  -2   3   1 40396.0 895.010  10
  -2   3   1 41870.5 581.470  11
   2  -3  -1 42208.8 822.018   7
  -2   3   1 41322.4 973.278   6
  -2   3   1 40383.8 1005.62   2
   2  -3  -1 41218.4 938.036   6
   2  -3  -1 40598.7 859.929  10
   2  -3   0 117922. 1155.31   5
   2  -3   0 117563. 1643.62   9
   2  -3   0 121879. 1565.20   2
  -2   3   0 117690. 1597.93   2
   2  -3   0 117326. 1039.31   1
  -2   3   0 119368. 1123.53   5
   2  -3   0 123610. 1631.85   6
  -2   3   0 117211. 1609.61  10
   2  -3   0 121942. 1582.22  10
  -2   3   0 115853. 1645.59   6
   2  -3   1 36584.3 784.580   2
  -2   3  -1 35290.5 394.912   5
   2  -3   1 35909.1 748.974   1
   2  -3   1 35484.8 954.569   9
  -2   3  -1 36062.3 626.146  11
  -2   3  -1 37594.0 973.974  10
  -2   3  -1 35691.3 953.720   6
  -2   3  -1 35552.5 804.497   2
  -2   3  -2 155811. 1514.82   2
   2  -3   2 152929. 2064.25   9
   2  -3   2 163811. 1910.03   1
  -2   3  -2 160026. 1738.87   4
  -2   3  -2 156967. 2136.01  10
  -2   3  -2 153878. 2138.26   3
  -2   3  -2 157173. 1656.47  11
  -2   3  -2 162698. 2157.43   6
  -2   3  -3 6720.88 411.889  11
  -2   3  -3 6837.97 179.396   5
   2  -3   3 6376.51 441.970   9
  -2   3  -3 6880.58 258.614   2
  -2   3  -3 6827.22 391.687   8
  -2   3  -3 7222.15 493.671  10
  -2   3  -3 6768.41 498.097   3
  -2   3  -4 147543. 2491.07   3
  -2   3  -4 155978. 1297.01   5
   2  -3   4 151197. 2199.59   9
  -2   3  -4 151366. 2241.74  11
  -2   3  -4 149359. 2339.36  10
  -2   3  -4 157157. 1964.56   8
   2  -3   5 61144.0 1436.07   9
  -2   3  -5 58707.0 1698.63   3
  -2   3  -5 59738.2 1289.68   8
   2  -3   5 59874.7 1444.71   7
  -2   3  -5 62116.3 1028.07   5
  -2   3  -5 60291.3 1585.11  11
  -2   3  -5 59196.4 1550.92  10
  -2   3  -6 184.860 135.209   3
   2  -3   6 679.532 172.855   9
   2  -3   6 470.662 154.378   7
  -2   3  -6 89.2214 79.9365  10
  -2   3  -6 118.103 78.3977   8
  -2   3  -6 343.000 140.070  11
  -2   3  -7 600.654 221.660   3
  -2   3  -7 859.705 217.004  10
   2  -3   7 632.286 181.589   7
  -2   3  -7 978.323 265.101  11
   2  -3   8 6220.38 597.743   7
   2  -2  -7 252.014 174.226   3
  -2   2   7 223.386 143.650   4
  -2   2   7 281.811 150.987   7
   2  -2  -7 613.072 205.827  11
   2  -2  -7 446.298 192.893   5
  -2   2   7 422.607 138.252   6
   2  -2  -6 10935.9 759.069   3
   2  -2  -6 11305.7 778.977   5
  -2   2   6 11084.3 781.046   7
  -2   2   6 10181.5 621.167   6
  -2   2   6 11089.8 771.225   4
  -2   2   6 10913.4 647.937   2
   2  -2  -6 11639.6 768.091  11
  -2   2   5 19466.6 942.349   7
   2  -2  -5 20372.9 949.887   3
   2  -2  -5 19057.7 902.351  11
   2  -2  -5 21084.3 984.862   5
  -2   2   5 20134.6 837.660   2
  -2   2   5 21213.2 820.344   6
  -2   2   5 21161.0 968.553   4
   2  -2  -4 92329.7 815.237  12
   2  -2  -4 90967.3 812.558  10
   2  -2  -4 89870.4 1815.83   3
   2  -2  -4 88800.9 1855.50   5
  -2   2   4 88110.3 1543.91   6
  -2   2   4 90211.8 1791.48   4
   2  -2  -4 89334.6 829.592  10
  -2   2   4 89078.8 1815.07   7
   2  -2  -4 89526.8 1731.92  11
  -2   2   4 90993.8 1702.70   2
   2  -2  -3 7467.49 273.610   9
   2  -2  -3 7464.73 484.946   5
  -2   2   3 7093.20 455.470   7
   2  -2  -3 8690.46 469.520  11
  -2   2   3 7254.22 447.113   4
  -2   2   3 7699.58 414.154   6
   2  -2  -3 7402.10 252.915  10
   2  -2  -3 7538.40 252.329  12
   2  -2  -3 7706.21 403.567   6
   2  -2  -3 7341.26 249.611  10
  -2   2   3 7537.03 462.462   2
  -2   2   2 169690. 1337.43  10
  -2   2   2 173454. 1973.16   5
   2  -2  -2 169960. 2020.55   5
  -2   2   2 168873. 1471.30   9
   2  -2  -2 165908. 1494.42   9
  -2   2   2 165111. 1896.74   7
  -2   2   2 172075. 2042.80   2
  -2   2   2 170968. 1993.46   8
  -2   2   2 170591. 1844.70   4
   2  -2  -2 175942. 1857.65   7
   2  -2  -2 170797. 1762.58  11
   2  -2  -2 172243. 1303.01  10
  -2   2   2 170285. 1935.37   3
   2  -2  -2 172774. 1713.55   6
  -2   2   2 175116. 1744.15  11
   2  -2  -2 175388. 1347.71  10
  -2   2   2 172212. 1774.80   6
   2  -2  -1 40460.5 692.387  10
   2  -2  -1 40092.9 840.676   5
  -2   2   1 38520.0 752.294   9
  -2   2   1 40283.8 819.045   5
   2  -2  -1 38949.6 776.756   9
  -2   2   1 39742.9 536.839   1
   2  -2  -1 39730.8 782.952   6
  -2   2   1 38166.8 900.784   2
  -2   2   1 39666.6 674.573  11
  -2   2   1 38895.8 754.834   7
   2  -2  -1 39469.6 734.730   7
  -2   2   1 39540.4 809.526   6
  -2   2   1 38877.5 699.886  10
   2  -2   0 255424. 1437.68   1
   2  -2   0 255826. 1775.83   5
  -2   2   0 260258. 1723.12   5
  -2   2   0 259299. 2059.29   9
   2  -2   0 255393. 2113.63   9
   2  -2   0 257239. 1509.53   7
  -2   2   0 251458. 1442.07   1
  -2   2   0 258702. 2083.61   6
  -2   2   0 250728. 2116.66   2
   2  -2   0 269088. 2053.41   6
  -2   2   0 259021. 2000.71  10
   2  -2   0 262926. 1939.31  10
  -2   2  -1 185663. 1903.70   6
   2  -2   1 194223. 1825.16  10
  -2   2  -1 184992. 1827.92   9
   2  -2   1 184070. 1896.80   9
  -2   2  -1 186666. 1144.21   5
   2  -2   1 186875. 1550.30   1
  -2   2  -1 188510. 1886.08  10
   2  -2   1 198041. 1885.13   6
  -2   2  -1 182742. 1621.92   2
  -2   2  -2 181979. 2058.72   6
  -2   2  -2 186068. 1935.42   9
   2  -2   2 176593. 1957.84   9
   2  -2   2 177147. 1947.02  10
   2  -2   2 185434. 1866.92   1
  -2   2  -2 177006. 2026.55   3
  -2   2  -2 182742. 1393.03   2
   2  -2   2 187413. 1990.65   6
  -2   2  -2 175962. 2004.31  10
  -2   2  -2 176960. 1692.35  11
  -2   2  -3 41962.4 1094.21   3
  -2   2  -3 41991.6 1063.45  10
  -2   2  -3 43132.7 640.475   5
   2  -2   3 42201.2 999.427   9
  -2   2  -3 42551.3 804.559   8
  -2   2  -3 43794.4 1007.54   4
  -2   2  -3 42559.2 988.416  11
  -2   2  -3 43735.1 507.585   2
   2  -2   4 55445.9 1194.86   9
  -2   2  -4 56792.6 914.248   5
  -2   2  -4 56915.6 998.189   8
  -2   2  -4 55251.5 1404.40   3
  -2   2  -4 54959.0 1300.38  11
   2  -2   4 55273.4 1147.63   7
  -2   2  -4 55928.1 1322.38  10
  -2   2  -5 27661.4 761.347   5
   2  -2   5 26624.0 856.144   9
  -2   2  -5 27151.6 766.078   8
  -2   2  -5 26805.1 973.484  10
   2  -2   5 27856.0 931.601   7
  -2   2  -5 27134.0 1035.76  11
  -2   2  -5 25751.8 1060.47   3
  -2   2  -6 5275.54 379.587   5
   2  -2   6 5203.44 390.766   9
  -2   2  -6 4373.90 489.539   3
  -2   2  -6 5481.67 518.902  11
  -2   2  -6 5340.13 370.264   8
   2  -2   6 4811.38 441.783   7
  -2   2  -6 4800.89 443.919  10
  -2   2  -7 4318.18 441.083  10
   2  -2   7 3873.47 433.103   7
  -2   2  -7 3945.76 491.568   3
  -2   2  -7 4244.01 494.618  11
  -2   2  -8 48933.8 1866.39   3
   2  -2   8 48596.3 1660.02   7
  -2   2  -8 48389.2 1809.77  11
   2  -1  -7 35552.6 1511.92  11
   2  -1  -7 34897.2 1479.88   3
   2  -1  -7 36586.2 1503.11   5
  -2   1   7 35895.9 1544.41   4
  -2   1   7 33858.8 1488.85   7
   2  -1  -6 80502.4 2073.27   3
   2  -1  -6 82603.0 2068.08   5
  -2   1   6 82867.5 1709.59   2
  -2   1   6 83244.3 2176.83   4
  -2   1   6 82883.8 2131.58   7
   2  -1  -6 81250.4 2098.24  11
  -2   1   6 82736.4 1722.46   6
   2  -1  -5 194342. 2953.27   3
   2  -1  -5 197435. 2990.43   5
  -2   1   5 198666. 3074.00   4
  -2   1   5 196550. 3024.42   7
  -2   1   5 197973. 2396.41   6
  -2   1   5 199645. 2511.03   2
   2  -1  -5 198268. 3009.41  11
   2  -1  -4 245441. 2991.00   3
   2  -1  -4 245516. 3062.45   5
  -2   1   4 247674. 3090.31   4
  -2   1   4 241884. 3052.82   7
  -2   1   4 252846. 2697.78   2
  -2   1   4 248883. 2400.58   6
   2  -1  -4 241105. 3002.59  11
  -2   1   3 154.158 35.7040   9
   2  -1  -3 193.643 95.1792   3
  -2   1   3 182.186 91.2718   2
   2  -1  -3 276.966 48.8574   9
   2  -1  -3 272.965 103.108   8
  -2   1   3 291.288 87.1191   6
   2  -1  -3 146.178 88.7450  11
  -2   1   3 183.419 96.5879   4
  -2   1   2 116745. 1627.08   4
   2  -1  -2 114586. 1677.68   5
  -2   1   2 117716. 1637.23   5
   2  -1  -2 119586. 1243.06   6
  -2   1   2 119139. 1646.90   8
  -2   1   2 117986. 1609.03   7
   2  -1  -2 115725. 1587.25   3
   2  -1  -2 117258. 1077.63   9
   2  -1  -2 116635. 1592.01  11
  -2   1   2 120558. 1064.98   9
  -2   1   2 121303. 1572.25  11
  -2   1   2 118094. 1275.42   6
  -2   1   2 121009. 1553.92   3
  -2   1   1 582013. 3154.61   5
  -2   1   1 575565. 2534.51   9
  -2   1   1 578793. 2899.91   3
   2  -1  -1 566504. 2570.70   9
   2  -1  -1 551554. 3185.10   5
   2  -1  -1 539509. 2925.20  11
  -2   1   1 578466. 3188.18   8
  -2   1   1 575528. 2888.33   7
  -2   1   1 557918. 2835.53  11
   2  -1  -1 542317. 2365.72   6
   2  -1  -1 564561. 1832.05  10
  -2   1   1 547927. 2430.61   6
  -2   1   1 562360. 1851.21  10
   2  -1   0 283046. 1646.39  10
  -2   1   0 275472. 1646.36  10
  -2   1   0 272600. 1641.19   1
   2  -1   0 285103. 1927.68   9
  -2   1   0 282172. 1728.76   6
  -2   1   0 286514. 1872.03   5
  -2   1   0 282750. 1927.78   8
  -2   1   0 279998. 1896.63   9
  -2   1   0 277052. 1448.62   7
   2  -1   0 273928. 1603.61   1
   2  -1   0 281415. 1697.44   6
  -2   1  -1 492327. 2616.12  10
   2  -1   1 508084. 2551.19  10
  -2   1  -1 502526. 2590.20   6
   2  -1   1 492092. 2720.39   9
  -2   1  -1 503844. 2648.76   9
   2  -1   1 513869. 2552.48   6
  -2   1  -1 487994. 2415.48   1
   2  -1   1 500468. 2378.88   1
   2  -1   2 441950. 2733.76   6
  -2   1  -2 412509. 2657.59   1
  -2   1  -2 421159. 2574.48   9
   2  -1   2 428854. 2673.24   9
   2  -1   2 436971. 2644.31   1
  -2   1  -2 424364. 2759.46  10
   2  -1   2 423029. 1596.53   7
  -2   1  -2 424068. 2648.06   3
   2  -1   2 424676. 2652.52  10
  -2   1  -3 388702. 2946.98  10
   2  -1   3 398706. 2866.29  12
  -2   1  -3 386537. 2998.44   3
   2  -1   3 402185. 3002.35   6
  -2   1  -3 400928. 2632.11   9
   2  -1   3 400536. 2967.93   1
   2  -1   3 390733. 2686.95   9
   2  -1   3 395554. 2866.99  10
  -2   1  -3 397202. 1789.16   8
   2  -1   3 387996. 2261.81   7
   2  -1   3 409840. 2928.23   3
  -2   1  -3 388401. 2883.09  11
  -2   1  -4 58394.3 1247.94  10
  -2   1  -4 59257.2 1086.34   9
   2  -1   4 59306.8 1096.52   9
  -2   1  -4 59583.2 1030.65   5
  -2   1  -4 58062.7 1324.15   3
  -2   1  -4 59117.3 810.573   8
  -2   1  -4 56754.5 1277.54  11
   2  -1   4 57869.9 1097.53   7
   2  -1   5 291.061 120.924   7
  -2   1  -5 223.105 105.460  10
  -2   1  -5 301.984 120.278  11
  -2   1  -5 317.753 138.684   3
  -2   1  -5 349.551 99.6713   5
   2  -1   5 336.516 99.4237   9
  -2   1  -5 362.375 85.7617   8
  -2   1  -6 62359.0 1489.24  10
   2  -1   6 65782.6 1204.30   9
  -2   1  -6 64802.0 1138.12   8
   2  -1   6 62457.0 1500.18   7
  -2   1  -6 65544.2 1389.96   5
  -2   1  -6 63384.7 1699.80  11
  -2   1  -6 62634.2 1706.65   3
  -2   1  -7 49454.7 1342.20   5
   2  -1   7 49860.1 1477.21   7
  -2   1  -7 51287.8 1655.41  11
  -2   1  -7 48016.9 1629.53   3
  -2   1  -7 49389.0 1397.09  10
   2  -1   8 571.664 186.313   7
  -2   1  -8 768.228 251.430   3
  -2   1  -8 601.651 166.135  10
  -2   1  -8 411.933 182.997  11
  -2   1  -8 503.163 167.776   5
   2  -1   9 52195.2 1794.96   7
   2   0  -7 6808.43 675.220   3
   2   0  -7 6360.22 629.224   5
  -2   0   7 6191.84 667.843   4
  -2   0   7 5848.01 643.709   7
   2   0  -7 6504.60 675.674  11
   2   0  -6 7893.50 667.420   3
   2   0  -6 7934.06 648.046   5
  -2   0   6 8945.04 740.152   4
   2   0  -6 8321.02 649.856   8
  -2   0   6 8723.49 714.312   7
   2   0  -6 9185.10 735.094  11
  -2   0   6 8563.42 550.274   6
   2   0  -5 117241. 2291.94   5
  -2   0   5 115800. 2443.31   4
   2   0  -5 116779. 2255.44   8
  -2   0   5 118334. 2422.29   7
   2   0  -5 116502. 2306.26   3
   2   0  -5 116604. 2415.69  11
  -2   0   5 121072. 1835.87   6
  -2   0   5 122300. 1872.96   2
  -2   0   4 16539.0 605.064   6
  -2   0   4 16960.7 673.167   2
   2   0  -4 17033.4 809.056   5
   2   0  -4 17067.9 842.276  11
  -2   0   4 16009.5 334.018   9
   2   0  -4 16511.9 783.473   3
   2   0  -4 16167.2 783.402   8
  -2   0   4 17094.5 837.894   7
   2   0  -3 2313.47 275.349   5
  -2   0   3 2148.50 274.883   4
   2   0  -3 2096.16 261.321   8
  -2   0   3 2753.28 304.864   7
   2   0  -3 2135.58 253.179   3
   2   0  -3 2415.02 288.703  11
  -2   0   3 2801.58 216.604   6
  -2   0   3 2150.56 145.054   9
   2   0  -2 19022.2 690.005   5
  -2   0   2 19593.6 452.669   9
   2   0  -2 19310.1 467.051   9
   2   0  -2 19106.2 697.346   8
  -2   0   2 19256.6 714.393   4
  -2   0   2 19684.9 692.514   7
   2   0  -2 19815.6 709.596  11
  -2   0   2 19403.4 455.858   6
  -2   0   2 19629.1 628.528   3
   2   0  -2 18897.5 633.184   3
   2   0  -1 4605.94 255.603   3
   2   0  -1 4853.95 311.090   5
  -2   0   1 5758.02 250.317   9
   2   0  -1 5124.44 245.857   9
  -2   0   1 5094.28 303.194   5
  -2   0   1 5132.28 172.197   6
   2   0  -1 5190.46 321.821   8
  -2   0   1 5449.01 317.128   8
  -2   0   1 4965.89 258.202   3
   2   0  -1 4804.35 309.472  11
  -2   0   1 5470.62 310.209  11
  -2   0   0 529411. 1514.45   6
   2   0   0 544174. 1851.59  10
  -2   0   0 542410. 2716.44   5
  -2   0   0 535099. 2477.93   9
   2   0   0 529684. 2510.83   9
   2   0   0 539041. 1831.84  12
  -2   0   0 539359. 2669.12   8
   2   0   0 533541. 2733.50   8
  -2   0   0 538321. 1862.45  12
  -2   0   0 538745. 1877.89  10
  -2   0   0 527971. 2015.80   3
  -2   0  -1 883877. 3087.26  10
   2   0   1 874323. 3213.37   1
  -2   0  -1 920520. 3349.74   9
   2   0   1 917874. 3437.23   9
  -2   0  -1 900383. 3102.18  12
   2   0   1 882780. 2983.42  12
  -2   0  -1 925773. 2770.01   8
   2   0   1 905825. 3029.20  10
  -2   0  -2 110400. 1273.74  10
   2   0   2 106816. 1215.73  10
   2   0   2 106703. 1212.99  12
   2   0   2 106446. 1209.60   9
   2   0   2 109372. 1253.91   1
  -2   0  -2 106306. 1189.96   9
  -2   0  -2 103635. 1271.72   1
   2   0   2 109574. 1079.23   3
  -2   0  -2 107163. 759.974   7
  -2   0  -2 106621. 1245.60  12
  -2   0  -2 104974. 1077.18   3
   2   0   3 209503. 1594.83   7
  -2   0  -3 205876. 1975.57  10
  -2   0  -3 206478. 2082.51   1
  -2   0  -3 205635. 1726.64   9
  -2   0  -3 209499. 1282.26   2
   2   0   3 215421. 1945.60  10
   2   0   3 206511. 1759.95   9
   2   0   3 214752. 1880.56   3
   2   0   3 214574. 2030.84   1
   2   0   3 213513. 1935.19  12
  -2   0  -3 209755. 1518.21   7
  -2   0  -3 209695. 1923.24   3
  -2   0  -4 49414.9 877.932   9
  -2   0  -4 51496.4 1099.99  10
   2   0   4 49940.7 903.421   9
   2   0   4 49979.1 1048.86  10
  -2   0  -4 50389.6 1022.79   5
  -2   0  -4 50131.2 576.955   2
   2   0   4 50065.9 971.069   7
   2   0   4 50859.3 1049.67  12
  -2   0  -4 50944.6 1165.52  11
  -2   0  -4 49038.4 1113.71   3
  -2   0  -5 25855.1 661.034   9
   2   0   5 24965.5 657.701   9
  -2   0  -5 25313.6 816.917   5
  -2   0  -5 24766.6 912.286   3
   2   0   5 24955.7 517.537   8
   2   0   5 25587.9 824.958   7
  -2   0  -5 25270.1 848.715  10
  -2   0  -5 25745.5 937.565  11
  -2   0  -6 86583.9 1688.32  10
   2   0   6 86361.6 1240.85   9
  -2   0  -6 88327.4 1683.00   5
   2   0   6 88519.7 1136.05   8
  -2   0  -6 86929.3 1913.62  11
   2   0   6 84885.5 1699.07   7
  -2   0  -6 83395.7 1880.52   3
  -2   0  -7 4243.40 398.215  10
   2   0   7 4157.57 268.868   9
   2   0   7 4366.64 437.917   7
  -2   0  -7 3938.94 454.704  11
  -2   0  -7 4004.66 453.890   3
  -2   0  -7 3679.19 382.482   5
  -2   0  -8 27659.8 1132.99   5
   2   0   8 27399.1 1192.00   7
  -2   0  -8 27403.9 1062.26  10
  -2   0  -8 26709.9 1270.62   3
  -2   0  -8 27292.4 1282.35  11
  -2   0  -9 44251.9 1513.38   5
  -2   0  -9 44877.9 1790.55  11
  -2   0  -9 42344.6 1738.89   3
   2   0   9 43361.5 1638.55   7
   2   1  -7 4768.74 533.390   5
   2   1  -7 4527.37 520.464   8
   2   1  -7 4383.16 557.900   3
   2   1  -6 78571.2 2113.53   3
   2   1  -6 79198.8 2064.26   5
  -2  -1   6 80508.1 2275.86   4
   2   1  -6 82057.0 2117.79   8
  -2  -1   6 78697.5 2190.99   7
   2   1  -6 78803.1 2217.10  11
  -2  -1   5 153.502 84.0228   6
   2   1  -5 151.088 108.015   3
  -2  -1   5 35.1287 116.263   4
   2   1  -5 164.928 111.463   8
   2   1  -5 310.283 145.136   5
  -2  -1   5 67.2802 66.6664   2
   2   1  -5 115.301 130.481  11
  -2  -1   5 246.218 159.569   7
  -2  -1   4 208897. 1229.88  10
  -2  -1   4 209867. 1266.37  10
   2   1  -4 205488. 2817.82   5
  -2  -1   4 207594. 1220.62  12
  -2  -1   4 218721. 1656.46   9
  -2  -1   4 206736. 3095.46   4
   2   1  -4 212975. 2939.21   8
  -2  -1   4 211513. 2170.61   6
  -2  -1   4 206184. 3023.86   7
   2   1  -4 208697. 2847.18   3
   2   1  -4 205682. 3047.55  11
   2   1  -4 215897. 1284.72  10
  -2  -1   3 1141.01 91.9483  10
   2   1  -3 1161.37 203.077   5
  -2  -1   3 1129.91 90.1005  10
  -2  -1   3 1216.20 143.542   6
  -2  -1   3 1146.47 135.172   9
  -2  -1   3 1068.61 87.7677  12
   2   1  -3 1376.96 222.257   8
  -2  -1   3 1192.75 219.598   4
   2   1  -3 1159.68 92.7249  10
   2   1  -3 1206.96 202.625   3
   2   1  -2 21586.3 794.409  11
  -2  -1   2 22185.2 381.118  10
  -2  -1   2 22159.0 564.670   9
   2   1  -2 22210.4 756.279   5
   2   1  -2 22062.8 792.068   8
  -2  -1   2 22874.7 817.680   4
  -2  -1   2 22112.1 375.797  10
  -2  -1   2 22724.3 700.835   3
  -2  -1   2 22100.4 478.803   6
   2   1  -2 21954.0 706.214   3
  -2  -1   1 476846. 1486.76   6
  -2  -1   1 490859. 1808.17  12
  -2  -1   1 490245. 1814.21  10
  -2  -1   1 485297. 3024.51   5
  -2  -1   1 502487. 2633.78   9
   2   1  -1 488150. 2694.89   9
  -2  -1   1 505250. 3219.20   8
   2   1  -1 493920. 3355.45   8
   2   1  -1 459941. 3249.46  11
  -2  -1   1 496022. 2653.42   3
  -2  -1   1 485694. 3161.37  11
   2   1  -1 491915. 2704.79   3
  -2  -1   1 479582. 1794.34  10
   2   1   0 350.544 61.0642  10
  -2  -1   0 186.537 42.9182   3
   2   1   0 213.754 48.3128   3
  -2  -1   0 285.444 54.5282  10
  -2  -1   0 227.150 67.3150   9
   2   1   0 336.521 84.6759   9
  -2  -1   0 239.170 75.6071   8
   2   1   0 164.224 63.4756   8
  -2  -1   0 292.847 57.1944  12
  -2  -1   0 193.382 73.3298  11
  -2  -1   0 354.416 95.2918   1
  -2  -1  -1 33082.7 612.251  10
   2   1   1 33392.4 596.515  10
  -2  -1  -1 32608.0 663.740   9
  -2  -1  -1 33099.3 608.774  12
   2   1   1 32805.5 675.489   9
  -2  -1  -1 33377.8 613.432   8
  -2  -1  -1 33041.6 698.582   1
   2   1   1 32194.2 624.940   8
   2   1   1 34261.0 598.814  12
   2   1   1 33955.4 683.543   1
   2   1   2 288584. 1968.04  10
   2   1   2 283956. 2026.64   1
   2   1   2 282448. 1944.74  12
  -2  -1  -2 281576. 2017.24  10
  -2  -1  -2 276634. 1878.63   2
  -2  -1  -2 285361. 1937.61   9
   2   1   2 277640. 1347.07   3
   2   1   2 276739. 1978.90   9
   2   1   2 280055. 1396.39   8
  -2  -1  -2 277778. 1995.92  12
  -2  -1  -2 273450. 2072.42   1
  -2  -1  -2 282724. 1340.35   3
   2   1   3 526.532 102.039  12
  -2  -1  -3 566.949 96.4660   3
  -2  -1  -3 552.121 108.386  10
  -2  -1  -3 166.701 79.5381   1
   2   1   3 457.862 96.9360  10
   2   1   3 253.454 72.4276   9
  -2  -1  -3 397.965 81.1864   9
  -2  -1  -3 381.705 74.9877   7
   2   1   3 286.398 82.3894   1
   2   1   3 242.326 66.3444   2
  -2  -1  -3 459.170 102.683  12
  -2  -1  -3 322.328 73.0267   2
  -2  -1  -4 121246. 1655.63  10
   2   1   4 125521. 1623.16  10
   2   1   4 124406. 1251.92   2
  -2  -1  -4 122083. 1718.98   1
  -2  -1  -4 122607. 1321.91   9
   2   1   4 122803. 1349.11   9
  -2  -1  -4 122730. 1655.45  12
   2   1   4 128011. 1611.68   3
  -2  -1  -4 118653. 1241.32   2
   2   1   4 120393. 814.565   8
   2   1   4 129705. 1719.56   1
  -2  -1  -4 123859. 1759.60  11
   2   1   4 126105. 1566.49   7
  -2  -1  -4 126970. 1498.08   7
   2   1   4 128286. 1622.32  12
  -2  -1  -4 121880. 1630.17   3
  -2  -1  -5 545.203 138.070  10
  -2  -1  -5 732.386 101.809   2
   2   1   5 445.696 83.1098   2
  -2  -1  -5 399.554 128.137   3
  -2  -1  -5 521.380 132.601  12
  -2  -1  -5 521.655 91.6351   9
  -2  -1  -5 672.341 151.817   5
   2   1   5 564.937 94.2529   9
   2   1   5 622.369 78.1930   8
  -2  -1  -5 482.392 141.671  11
   2   1   5 540.457 135.161   7
   2   1   6 107897. 1257.66   9
  -2  -1  -6 106615. 1830.31  10
  -2  -1  -6 106327. 1915.80   5
  -2  -1  -6 109160. 1257.49   9
   2   1   6 110064. 1188.71   2
   2   1   6 107341. 1904.53   7
  -2  -1  -6 104068. 2059.10  11
   2   1   6 107588. 1210.92   8
  -2  -1  -6 110457. 1193.43   2
  -2  -1  -6 102933. 1991.98   3
   2   1   7 101487. 2061.92   7
  -2  -1  -7 97282.6 2148.97   3
   2   1   7 104780. 1130.98   2
   2   1   7 104393. 1176.48   9
  -2  -1  -7 102573. 2219.83  11
  -2  -1  -7 101131. 1891.32  10
  -2  -1  -7 99238.8 2011.86   5
  -2  -1  -8 119.028 130.526   3
  -2  -1  -8 113.441 99.5434  10
  -2  -1  -8 356.821 187.513  11
   2   1   8 19.1655 102.888   7
  -2  -1  -8 79.2134 79.3303   5
  -2  -1  -9 1848.11 355.944   3
   2   1   9 2065.74 368.129   6
  -2  -1  -9 2802.20 435.271  11
  -2  -1  -9 1859.31 337.631   5
   2   1   9 1958.34 353.653   7
  -2  -1 -10 61452.9 1869.62   5
   2   2  -6 656.946 227.268   3
  -2  -2   6 873.461 262.339   4
   2   2  -6 769.458 239.055   8
  -2  -2   6 606.141 222.625   7
   2   2  -6 705.184 236.400  11
   2   2  -5 1500.04 292.247   3
  -2  -2   5 1472.51 308.537   4
   2   2  -5 1048.14 243.293   8
  -2  -2   5 1550.94 313.466   7
   2   2  -5 1110.44 268.854  11
  -2  -2   4 195823. 3115.37   4
   2   2  -4 193237. 2945.08   8
  -2  -2   4 201140. 1744.32  10
   2   2  -4 194502. 3069.19  11
   2   2  -4 193642. 2861.59   3
  -2  -2   3 109082. 1221.77  10
  -2  -2   3 109262. 1370.81   6
  -2  -2   3 111076. 1457.45   9
   2   2  -3 110430. 1279.74  10
   2   2  -3 107386. 2086.28  11
   2   2  -3 106077. 2044.44   8
  -2  -2   3 107185. 2086.79   4
  -2  -2   3 109233. 1257.10  10
   2   2  -3 111702. 1947.37   3
  -2  -2   2 1920.88 161.189  10
   2   2  -2 1966.27 262.311  11
  -2  -2   2 1560.89 179.250   9
   2   2  -2 1851.91 253.404   8
  -2  -2   2 1560.15 229.726   4
  -2  -2   2 1647.58 148.472   6
   2   2  -2 1546.88 204.862   3
  -2  -2   2 1652.92 153.151  10
   2   2  -2 1810.67 161.855  10
  -2  -2   1 89413.1 1083.54  10
  -2  -2   1 90212.5 1356.96   5
  -2  -2   1 87998.7 1300.93   9
  -2  -2   1 87610.1 1237.05   3
   2   2  -1 88536.6 1547.50   8
   2   2  -1 88003.3 1512.66  11
   2   2  -1 87480.6 1259.50   3
  -2  -2   1 88744.7 1073.58  10
  -2  -2   1 87861.0 860.074   6
  -2  -2   0 308642. 2065.23  10
  -2  -2   0 306799. 1385.75   6
  -2  -2   0 311671. 2703.53   1
  -2  -2   0 314266. 2373.16   2
  -2  -2   0 310763. 2344.66   9
  -2  -2   0 313043. 2517.13   8
   2   2   0 311567. 2607.23   8
  -2  -2   0 311913. 1805.32   3
  -2  -2   0 313907. 2423.85  11
   2   2   0 310254. 1843.65   3
   2   2   0 310873. 1419.07   6
  -2  -2   0 305936. 2035.01  10
   2   2   1 119.348 66.1741   1
  -2  -2  -1 233.112 50.1955   6
   2   2   1 93.1803 42.1353   6
  -2  -2  -1 171.405 81.4979   2
  -2  -2  -1 78.9489 61.0532  10
   2   2   1 110.497 53.6358  10
   2   2   1 96.7908 64.1105   9
  -2  -2  -1 122.844 64.0165  12
  -2  -2  -1 167.937 76.9105   1
   2   2   1 150.912 71.5747   8
   2   2   1 246.008 38.8780   3
  -2  -2  -2 200185. 1860.45  10
   2   2   2 213786. 1820.68  10
  -2  -2  -2 202563. 1858.20   1
   2   2   2 199483. 1889.46   2
  -2  -2  -2 211229. 1873.75   2
  -2  -2  -2 203565. 1835.91   9
   2   2   2 200888. 1885.71   9
   2   2   2 202689. 1645.91   8
   2   2   2 209772. 1816.42   1
   2   2   2 209949. 1799.03  12
   2   2   2 200715. 1621.43   6
  -2  -2  -2 199613. 1851.18  12
   2   2   2 205727. 1093.07   3
  -2  -2  -3 399705. 2835.21  10
  -2  -2  -3 410503. 2251.02   3
   2   2   3 417975. 2777.16  10
  -2  -2  -3 402569. 2821.39  12
  -2  -2  -3 399297. 2745.89   1
   2   2   3 397328. 2675.11   2
  -2  -2  -3 406110. 2547.88   9
   2   2   3 410868. 2630.77   9
  -2  -2  -3 408034. 2647.94   2
  -2  -2  -3 415801. 2597.91   7
   2   2   3 410218. 2746.15  12
   2   2   3 408004. 2777.31   6
   2   2   3 423568. 2702.25   1
   2   2   3 402826. 2203.27   3
  -2  -2  -4 24468.1 688.318   3
  -2  -2  -4 24637.3 764.543  10
   2   2   4 26181.6 751.833  10
   2   2   4 23895.8 772.599   6
   2   2   4 25151.5 692.279   2
  -2  -2  -4 25168.3 623.525   9
   2   2   4 23065.3 623.003   9
  -2  -2  -4 24464.0 745.875   1
  -2  -2  -4 24898.9 761.771  12
  -2  -2  -4 24572.1 671.089   2
   2   2   4 25467.7 689.512   3
   2   2   4 25910.2 747.343   1
  -2  -2  -4 25343.0 713.379   7
   2   2   4 25113.0 733.490  12
   2   2   5 102635. 1780.97   6
  -2  -2  -5 100930. 1647.74  10
  -2  -2  -5 103715. 1665.31  12
  -2  -2  -5 103942. 1267.60   9
   2   2   5 103656. 1430.42   2
  -2  -2  -5 102734. 1790.42   5
   2   2   5 101783. 1284.86   9
   2   2   5 104997. 1116.01   8
  -2  -2  -5 100647. 1661.84   3
   2   2   5 100317. 1673.72   7
  -2  -2  -5 102429. 1394.65   2
  -2  -2  -5 102963. 1775.60  11
  -2  -2  -6 27450.6 735.626   2
  -2  -2  -6 27711.2 636.610   9
   2   2   6 27547.6 758.692   2
  -2  -2  -6 26265.2 993.435   5
   2   2   6 27480.2 647.793   9
  -2  -2  -6 27010.8 983.670   3
   2   2   6 28363.1 651.350   8
   2   2   6 26324.0 1003.81   6
  -2  -2  -6 27116.0 922.370  10
  -2  -2  -6 26604.0 912.553  12
   2   2   6 27528.4 980.881   7
  -2  -2  -6 27262.1 1023.40  11
   2   2   7 9104.25 645.437   6
  -2  -2  -7 8478.71 547.895  10
  -2  -2  -7 8750.12 616.569   5
  -2  -2  -7 8790.60 640.388  11
  -2  -2  -7 8565.47 546.317  12
   2   2   7 8803.42 341.325   9
  -2  -2  -7 7993.29 604.312   3
   2   2   7 9113.12 444.882   2
   2   2   7 8332.67 596.636   7
   2   2   8 15436.9 895.860   6
  -2  -2  -8 15109.8 869.096   5
   2   2   8 15209.0 877.682   7
  -2  -2  -8 14858.3 758.389  10
  -2  -2  -8 15731.3 912.537   3
  -2  -2  -8 14650.2 899.824  11
   2   2   9 1207.38 283.254   6
  -2  -2  -9 1199.37 287.537   3
   2   2   9 1461.85 311.441   7
  -2  -2  -9 1114.59 259.559   5
  -2  -2  -9 1262.14 281.859  11
  -2  -2 -10 5391.23 586.331   5
   2   3  -6 13480.8 909.733   8
   2   3  -6 12655.4 898.961   3
   2   3  -5-58.3977 108.919  11
   2   3  -5 155.135 117.838   3
  -2  -3   5 229.224 184.963   4
   2   3  -5 292.045 162.123   8
  -2  -3   5-31.2700 131.576   7
   2   3  -4 393.781 146.763   3
   2   3  -4 467.226 175.935  11
   2   3  -4 757.381 214.035   8
  -2  -3   4 707.737 209.042   4
  -2  -3   3 2715.94 249.580  10
   2   3  -3 2391.71 308.156   3
   2   3  -3 1974.72 307.950  11
  -2  -3   3 1993.08 308.260   4
   2   3  -3 2120.14 312.865   8
   2   3  -3 2830.84 250.312  10
   2   3  -2 52585.9 1248.91   3
   2   3  -2 51459.8 1407.09   8
  -2  -3   2 51291.4 1354.73   4
   2   3  -2 53477.5 1401.06  11
   2   3  -2 52457.8 1061.60  10
  -2  -3   2 51400.6 1042.36  10
  -2  -3   2 53006.9 936.614   6
  -2  -3   2 51786.1 999.651  10
  -2  -3   1 224416. 2143.30  10
  -2  -3   1 224488. 1766.12   6
  -2  -3   1 224428. 2220.47   5
   2   3  -1 228593. 2605.99  11
  -2  -3   1 230631. 2103.35  10
   2   3  -1 225479. 2714.61   8
  -2  -3   1 227463. 2542.32   4
   2   3  -1 226395. 2256.58   3
   2   3   0 17845.1 477.594   6
  -2  -3   0 17921.1 462.852   6
  -2  -3   0 18280.4 606.077  10
  -2  -3   0 18354.2 633.398   2
   2   3   0 18047.7 716.391   8
   2   3   0 17585.1 533.965   3
  -2  -3   0 18959.7 643.705  11
  -2  -3   0 18324.4 599.017  10
  -2  -3  -1 275600. 2394.15  10
   2   3   1 296200. 2375.54  10
  -2  -3  -1 280575. 2526.57   1
  -2  -3  -1 293677. 2524.07   2
  -2  -3  -1 294896. 2299.94  11
  -2  -3  -1 288389. 2517.53   9
   2   3   1 279901. 2578.83   8
   2   3   1 280147. 1779.00   3
   2   3   1 288527. 1985.30   6
  -2  -3  -1 280191. 1887.94   6
  -2  -3  -1 289448. 2413.90  10
  -2  -3  -2 28956.1 790.718  10
   2   3   2 28913.2 821.895   2
   2   3   2 29947.3 707.815   6
   2   3   2 31678.0 767.456   1
  -2  -3  -2 31016.2 826.387   2
  -2  -3  -2 29986.0 793.857   9
  -2  -3  -2 29319.0 794.159  12
  -2  -3  -2 29984.0 768.653   1
  -2  -3  -2 30199.8 680.458   6
   2   3   2 30023.0 781.507  10
   2   3   3 48636.1 1041.90  10
  -2  -3  -3 47049.6 1058.42  10
   2   3   3 46549.4 1054.01   2
  -2  -3  -3 46840.0 1051.99  12
  -2  -3  -3 48020.4 977.035   9
  -2  -3  -3 47198.8 1035.12   2
   2   3   3 47974.0 782.140   3
   2   3   3 48393.7 941.360   1
  -2  -3  -3 47033.8 958.774   6
   2   3   3 46765.4 982.252   6
  -2  -3  -3 47148.9 962.445   1
   2   3   4 195070. 2004.82   1
   2   3   4 187956. 2146.82   2
  -2  -3  -4 190259. 1915.88   9
  -2  -3  -4 189718. 2222.02  12
  -2  -3  -4 188875. 2039.37   1
  -2  -3  -4 186378. 2217.52  10
   2   3   4 187886. 2236.14   6
   2   3   4 193790. 1879.87   3
  -2  -3  -5 8290.66 492.788  10
  -2  -3  -5 8593.49 480.736   1
  -2  -3  -5 8548.47 399.083   9
   2   3   5 8276.04 469.101   2
  -2  -3  -5 8654.15 548.542   5
  -2  -3  -5 8358.94 471.317   3
   2   3   5 8243.83 519.699   6
  -2  -3  -5 8233.55 492.784  12
  -2  -3  -5 8660.17 507.322  11
  -2  -3  -6 129736. 2114.23   3
   2   3   6 131741. 1905.27   2
  -2  -3  -6 136802. 1519.80   9
  -2  -3  -6 124552. 2235.37   5
  -2  -3  -6 129513. 2069.06  10
   2   3   6 133750. 1547.25   8
  -2  -3  -6 130009. 2065.01  12
   2   3   6 131758. 2251.54   6
  -2  -3  -6 129513. 2166.42  11
  -2  -3  -7 141806. 2565.52   5
   2   3   7 149191. 2068.30   2
  -2  -3  -7 144314. 2474.69   3
  -2  -3  -7 146260. 2292.51  10
  -2  -3  -7 144586. 2277.33  12
   2   3   7 143596. 2501.04   7
   2   3   7 144932. 2575.24   6
  -2  -3  -7 143899. 2504.81  11
  -2  -3  -8 1682.59 307.954   3
  -2  -3  -8 1756.00 274.674  10
   2   3   8 1918.57 329.694   6
   2   3   8 1951.48 250.112   2
  -2  -3  -8 1692.91 309.980   5
   2   3   8 1815.21 320.388   7
  -2  -3  -8 1904.77 280.696  12
  -2  -3  -8 1974.37 332.417  11
   2   3   9 1282.56 301.145   7
  -2  -3  -9 1351.51 248.673  10
  -2  -3  -9 1665.92 339.433   3
  -2  -3  -9 1417.81 315.403   5
  -2  -3  -9 1303.44 293.098  11
   2   3   9 1380.14 303.699   6
  -2  -3 -10 949.322 265.935   5
   2   3  10 1071.25 301.468   7
   2   4  -5 2802.45 423.108   8
  -2  -4   5 2635.00 427.789   4
   2   4  -5 2917.40 430.033   3
   2   4  -5 2696.47 432.986  11
  -2  -4   4 79620.2 2113.36   4
   2   4  -4 79197.9 2112.19   8
   2   4  -4 80304.9 2133.62  11
   2   4  -4 78842.0 1995.29   3
   2   4  -3 263942. 2766.71  10
   2   4  -3 258139. 3308.85   3
  -2  -4   3 261482. 2775.22  10
  -2  -4   3 254501. 3460.58   4
   2   4  -3 258368. 3579.79   8
   2   4  -3 258602. 3547.16  11
   2   4  -2 11087.2 709.250   8
  -2  -4   2 12001.9 580.562  10
  -2  -4   2 11083.7 661.333   4
   2   4  -2 11446.8 683.069  11
   2   4  -2 11679.9 637.027   3
   2   4  -2 11350.1 568.964  10
   2   4  -1 889.560 140.702   6
  -2  -4   1 728.096 123.168   6
   2   4  -1 646.823 149.738   3
  -2  -4   1 628.057 142.986  10
   2   4  -1 717.901 178.112   8
  -2  -4   1 577.436 147.678   4
   2   4  -1 740.012 166.112  11
   2   4  -1 773.908 155.880  10
   2   4   0 23499.1 666.451   6
   2   4   0 23090.8 893.440   8
  -2  -4   0 22689.7 747.581   4
   2   4   0 21631.8 692.289   3
  -2  -4   0 22200.5 773.222  10
  -2  -4   0 22896.6 639.736   6
  -2  -4  -1 113644. 1753.13  10
   2   4   1 113161. 1785.82   2
  -2  -4  -1 114414. 1788.53   1
   2   4   1 114840. 1872.49   8
   2   4   1 114559. 1493.60   6
   2   4   1 116529. 1427.93   3
  -2  -4  -1 116403. 1553.87  11
  -2  -4  -1 112835. 1433.30   6
   2   4   2 41679.6 1103.52   2
  -2  -4  -2 42334.2 1007.51   1
  -2  -4  -2 42346.9 1073.50  10
  -2  -4  -2 42790.5 916.869   6
   2   4   2 41821.6 953.628   6
   2   4   3 392189. 2516.52   3
  -2  -4  -3 386399. 3303.31  10
  -2  -4  -3 383433. 2915.95   1
   2   4   3 379857. 3370.86   2
  -2  -4  -3 380806. 3269.68  12
   2   4   3 389985. 3105.71   6
   2   4   4 765.033 172.371   2
   2   4   4 796.991 127.634   3
  -2  -4  -4 734.849 159.378  10
  -2  -4  -4 697.198 134.540   1
  -2  -4  -4 766.592 168.293  12
   2   4   4 1147.42 193.291   6
   2   4   4 777.658 132.655   1
  -2  -4  -5 102496. 1839.88  10
   2   4   5 102010. 1825.63   2
  -2  -4  -5 102425. 1931.64   5
  -2  -4  -5 100065. 1603.84   1
  -2  -4  -5 100260. 1811.34  12
   2   4   5 100384. 1855.00   6
  -2  -4  -6 6144.38 474.462  10
  -2  -4  -6 7728.81 482.325   1
  -2  -4  -6 5883.53 348.332   9
  -2  -4  -6 5365.53 483.813   5
   2   4   6 6084.08 460.972   2
  -2  -4  -6 6481.92 485.690  12
   2   4   6 5829.34 492.700   6
  -2  -4  -6 6216.84 464.000  11
   2   4   7 1324.50 258.355   6
  -2  -4  -7 1357.85 238.372  10
   2   4   7 1657.19 251.578   2
  -2  -4  -7 1526.50 277.168   5
  -2  -4  -7 1443.10 254.236   3
  -2  -4  -7 1423.32 241.339  12
  -2  -4  -7 1372.83 246.947  11
  -2  -4  -8 1123.16 224.011  10
   2   4   8 1356.90 295.146   6
  -2  -4  -8 1394.65 251.302  12
  -2  -4  -8 1171.82 260.116  11
  -2  -4  -8 1594.98 308.562   5
  -2  -4  -8 1595.43 295.697   3
   2   4   8 1465.87 238.211   2
  -2  -4  -9 45480.6 1626.23  11
  -2  -4  -9 44288.1 1628.44   3
  -2  -4  -9 44919.0 1431.91  12
  -2  -4  -9 46246.5 1689.26   5
  -2  -4  -9 44947.1 1438.24  10
   2   4   9 46558.2 1683.79   6
  -2  -4 -10 6014.19 645.446  11
  -2  -5   4 6716.55 646.480   4
   2   5  -4 6749.26 674.072   8
   2   5  -4 6706.96 657.522  11
   2   5  -4 6314.87 608.454   3
  -2  -5   3 2397.13 302.371  10
   2   5  -3 2189.03 346.411  11
  -2  -5   3 2502.84 372.033   4
   2   5  -3 2469.35 385.465   8
   2   5  -3 2224.90 339.241   3
   2   5  -2 20824.3 864.434  10
   2   5  -2 19687.9 1006.00   8
  -2  -5   2 19859.0 915.229   4
  -2  -5   2 19449.3 834.422  10
   2   5  -2 18390.0 901.436  11
   2   5  -2 20433.0 904.777   3
   2   5  -1 4739.68 357.518   6
  -2  -5   1 4722.13 408.498  10
   2   5  -1 4590.40 398.881   3
   2   5  -1 4406.83 459.734   8
  -2  -5   1 4636.73 400.283   4
   2   5   0 7872.43 447.879   6
  -2  -5   0 8023.85 528.898  10
   2   5   0 7297.58 562.619   8
  -2  -5   0 6401.11 420.207   4
   2   5   0 7162.97 447.543   3
  -2  -5   0 8194.18 577.519   1
  -2  -5  -1 12536.2 653.069  10
   2   5   1 12852.8 671.549   2
  -2  -5  -1 12618.7 654.169   1
   2   5   1 12757.0 557.455   3
   2   5   1 12573.1 565.832   6
   2   5   1 12692.2 698.188   8
  -2  -5  -2 110325. 1936.06  10
   2   5   2 108752. 1944.67   2
  -2  -5  -2 111256. 1492.30  11
  -2  -5  -2 109414. 1771.82   1
   2   5   2 109162. 1733.98   6
  -2  -5  -3 211004. 2706.56  10
  -2  -5  -3 210356. 2315.91   1
   2   5   3 212403. 2775.17   2
   2   5   3 212598. 2529.08   6
  -2  -5  -4 87292.9 1757.32  10
   2   5   4 83479.2 1353.11   1
   2   5   4 85203.2 1781.06   2
  -2  -5  -4 84318.7 1727.93  12
  -2  -5  -4 83972.1 1427.59   1
   2   5   4 84649.4 1696.20   6
  -2  -5  -5 8453.00 573.519  10
  -2  -5  -5 7696.09 541.951  12
   2   5   5 8072.25 569.349   2
  -2  -5  -5 9461.86 610.213   5
  -2  -5  -5 8531.78 424.782   4
  -2  -5  -5 8725.59 473.164   1
   2   5   5 8375.20 572.273   6
  -2  -5  -6 21588.9 782.473   1
  -2  -5  -6 20234.6 900.777  12
   2   5   6 21825.5 948.593   2
  -2  -5  -6 22603.8 1011.18   5
  -2  -5  -6 21781.1 846.360  11
   2   5   6 20809.4 959.376   6
  -2  -5  -6 21311.0 925.931  10
  -2  -5  -7 261.242 125.174  11
  -2  -5  -7 152.213 118.737  10
  -2  -5  -7 125.292 120.662   5
   2   5   7 57.7559 91.3597   2
  -2  -5  -7 126.444 119.280  12
  -2  -5  -8 45309.2 1433.76  10
  -2  -5  -8 48660.7 1667.09   5
   2   5   8 46858.3 1437.21   2
  -2  -5  -8 45002.7 1424.75  12
   2   5   8 44971.5 1585.96   6
  -2  -5  -8 47258.5 1476.89  11
  -2  -5  -9 76312.0 1926.72  12
  -2  -5  -9 79484.9 2257.93   5
   2   5   9 82038.8 1944.91   2
  -2  -5  -9 79548.1 2104.33  11
   2   5   9 81124.1 2257.46   6
  -2  -5  -9 79805.1 1977.11  10
  -2  -5 -10 587.539 224.662  11
  -2  -6   4 99288.0 2380.15   4
   2   6  -4 96976.3 2414.70  11
  -2  -6   3 207295. 3330.96   4
   2   6  -3 208199. 3712.35   8
   2   6  -3 207667. 3362.64   3
  -2  -6   2 20701.8 962.875  10
  -2  -6   2 20577.8 981.938   4
   2   6  -2 20642.1 1108.21   8
   2   6  -2 20390.0 976.208   3
   2   6  -1 2042.81 261.444   6
  -2  -6   1 2048.83 298.188  10
   2   6  -1 2222.93 304.464   3
  -2  -6   1 2279.54 300.978   4
   2   6  -1 2192.64 347.453   8
   2   6   0 80366.4 1610.21   6
  -2  -6   0 79613.3 1818.94  10
   2   6   0 81805.1 1673.28   3
   2   6   0 81208.9 2012.94   8
  -2  -6   0 83050.0 1552.16   4
  -2  -6   0 80360.1 1918.69   1
  -2  -6  -1 2268.58 312.711  10
   2   6   1 2079.06 297.957   2
  -2  -6  -1 2194.57 295.157   1
   2   6   1 2052.55 314.496   8
  -2  -6  -1 2059.67 218.582   4
   2   6   1 2333.23 271.250   3
   2   6   1 2386.22 281.328   6
  -2  -6  -2 337769. 3724.37  10
   2   6   2 334894. 3720.77   2
   2   6   2 344015. 3846.60   8
   2   6   2 337602. 3370.06   6
  -2  -6  -2 341093. 3365.05   1
  -2  -6  -3 119445. 2222.40  10
   2   6   3 115306. 2212.68   2
  -2  -6  -3 120504. 1868.02   1
   2   6   3 116920. 2050.31   6
  -2  -6  -4 8707.71 603.643  10
   2   6   4 8891.36 628.882   2
  -2  -6  -4 9088.42 616.395  12
   2   6   4 8408.42 571.357   6
  -2  -6  -4 9199.76 496.566   1
  -2  -6  -5 39305.5 1313.34  10
   2   6   5 40159.9 1353.64   2
  -2  -6  -5 42498.7 876.544   4
  -2  -6  -5 41530.4 1039.31   1
   2   6   5 40949.2 1323.17   6
  -2  -6  -5 39651.8 1313.98  12
  -2  -6  -5 39562.6 1288.42   5
  -2  -6  -6 31420.6 1192.34  10
  -2  -6  -6 30814.3 1209.12   5
   2   6   6 32576.8 1242.94   2
  -2  -6  -6 33191.0 951.588   1
   2   6   6 32947.1 1252.77   6
  -2  -6  -6 31936.6 1196.22  12
  -2  -6  -6 32774.1 1005.08  11
  -2  -6  -7 5829.96 562.448   5
   2   6   7 6631.88 575.304   2
  -2  -6  -7 7668.44 531.941  11
  -2  -6  -7 6803.90 568.178  12
  -2  -6  -7 6939.90 578.405  10
   2   6   7 7032.48 614.614   6
  -2  -6  -8 57727.2 1681.00  10
  -2  -6  -8 60126.4 1885.00   5
   2   6   8 58520.6 1736.76   2
   2   6   8 58593.4 1854.53   6
  -2  -6  -8 58401.3 1680.83  12
  -2  -6  -8 58168.8 1606.71  11
  -2  -6  -9 33860.6 1340.89  10
  -2  -6  -9 31451.2 1448.89   5
   2   6   9 33447.0 1354.47   2
  -2  -6  -9 32801.4 1316.73  12
  -2  -6  -9 34420.8 1349.15  11
   2   6   9 34910.2 1524.32   6
  -2  -6 -10 105478. 2472.98  11
  -2  -7   2 2858.51 390.275  10
   2   7  -2 2528.03 425.840   8
   2   7  -2 3022.39 397.237   3
  -2  -7   1 23479.7 1102.16  10
   2   7  -1 23670.1 1213.05   8
   2   7  -1 24537.2 1087.57   3
  -2  -7   1 24081.1 1204.50   1
  -2  -7   0 5.61258 99.1510   1
  -2  -7   0 122.624 124.503  10
   2   7   0 20.6239 82.2641   3
   2   7   0-90.9133 97.1202   6
   2   7   0 177.887 142.634   8
   2   7   1 20646.4 888.042   6
  -2  -7  -1 20099.8 992.982  10
   2   7   1 19711.7 948.832   2
  -2  -7  -1 19267.7 921.074   1
   2   7   1 20031.1 1048.58   8
  -2  -7  -1 20545.9 708.957   4
   2   7   1 20343.4 863.076   3
   2   7   2 704.466 183.913   6
  -2  -7  -2 761.517 208.008  10
  -2  -7  -2 678.890 179.996   1
   2   7   2 690.546 199.067   2
   2   7   2 713.070 220.029   8
  -2  -7  -2 806.135 123.226   4
  -2  -7  -3 230318. 3378.70  10
   2   7   3 228502. 3356.24   2
  -2  -7  -3 232924. 2789.58   1
   2   7   3 231926. 3092.23   6
  -2  -7  -4 52455.5 1605.57  10
   2   7   4 52371.5 1629.96   2
  -2  -7  -4 55577.8 1277.04   1
  -2  -7  -4 53486.8 1611.29  12
   2   7   4 54698.5 1564.64   6
   2   7   5 6604.99 594.084   2
  -2  -7  -5 6552.70 548.374   5
  -2  -7  -5 6502.92 426.241   1
  -2  -7  -5 6892.58 594.376  10
  -2  -7  -5 6898.41 591.584  12
   2   7   5 6889.29 578.970   6
   2   7   6 2952.27 395.543   6
  -2  -7  -6 2485.91 355.900  10
  -2  -7  -6 2780.39 287.649  11
   2   7   6 2730.80 389.825   2
  -2  -7  -6 3346.25 411.599   5
  -2  -7  -6 2705.11 278.104   1
  -2  -7  -6 2985.30 396.918  12
   2   7   7 676.888 223.172   2
   2   7   7 892.482 240.255   6
  -2  -7  -7 1011.48 249.635  10
  -2  -7  -7 606.376 202.225   5
  -2  -7  -7 917.144 237.747  12
  -2  -7  -7 1151.95 207.318  11
  -2  -7  -8 3238.72 433.473  10
  -2  -7  -8 3867.14 490.862   5
  -2  -7  -8 3360.73 439.103  12
   2   7   8 3846.40 485.478   2
  -2  -7  -8 3968.67 412.073  11
   2   7   8 3563.86 480.992   6
   2   7   9 68661.7 2218.24   6
  -2  -7  -9 65837.9 1945.57  10
  -2  -7  -9 69101.0 2201.41   5
   2   7   9 70430.4 2078.50   2
  -2  -7  -9 68565.8 1978.18  12
  -2  -8   1 33598.4 1386.77  10
  -2  -8   1 33203.6 1485.58   1
  -2  -8   0 14455.1 923.044  10
   2   8   0 15803.2 874.650   3
  -2  -8   0 14209.3 916.736   1
   2   8   0 14981.5 1016.75   8
   2   8   1 76.6821 106.418   3
   2   8   1 196.211 125.501   6
  -2  -8  -1-85.5134 133.147  10
   2   8   1 6.45132 126.799   8
  -2  -8  -1 149.056 109.600   1
  -2  -8  -2 54422.4 1750.29  10
   2   8   2 54114.4 1703.71   2
   2   8   2 54953.9 1812.17   8
   2   8   2 57559.1 1636.50   6
   2   8   2 54717.9 1521.67   3
  -2  -8  -2 55392.7 1554.54   1
  -2  -8  -3 60163.4 1832.12  10
   2   8   3 59488.8 1801.88   2
  -2  -8  -3 61977.8 1522.72   1
   2   8   3 58501.3 1662.12   6
   2   8   4 588.940 193.717   2
   2   8   4 264.590 141.800   6
  -2  -8  -4 159.274 91.3655   1
  -2  -8  -4 368.018 160.885  10
   2   8   5 1202.12 264.834   6
  -2  -8  -5 1044.89 252.125  10
  -2  -8  -5 947.635 232.112   5
  -2  -8  -5 803.183 231.952  12
   2   8   5 1233.83 288.108   2
   2   8   6 251.275 155.642   2
   2   8   6-102.334 131.500   6
  -2  -8  -6 33.4465 137.249  10
  -2  -8  -6-146.807 121.462   5
  -2  -8  -6 196.694 161.184  12
  -2  -8  -7 9426.77 739.265   5
   2   8   7 10445.6 827.575   2
  -2  -8  -7 10617.8 796.027  10
  -2  -8  -7 10107.4 772.940  12
   2   8   7 11299.8 844.324   6
   2   8   8 3121.33 470.508   2
  -2  -8  -8 2757.60 428.987   5
  -2  -8  -8 2878.51 436.137  10
   2   8   8 2812.88 434.471   6
  -2  -8  -8 3173.37 453.884  12
  -2  -8  -9 16679.8 1020.66  10
   2   8   9 17721.4 1094.08   2
  -2  -8  -9 16499.8 1011.63  12
  -2  -9   0 60978.1 1891.97   1
  -2  -9  -1 6879.58 673.322  10
  -2  -9  -1 7835.68 652.017   1
  -2  -9  -2 6666.21 669.577  10
   2   9   2 6187.69 626.598   2
   2   9   2 6021.92 652.936   8
   2   9   2 6611.13 601.514   6
  -2  -9  -3 49863.7 1798.69  10
   2   9   3 49815.5 1832.19   8
   2   9   3 46845.3 1728.04   2
   2   9   3 48127.5 1646.63   6
   2   9   4 9230.92 773.448   2
  -2  -9  -4 9289.32 776.115  10
   2   9   4 9712.30 752.399   6
  -2  -9  -5 2959.24 441.388  12
  -2  -9  -5 3282.22 466.267  10
   2   9   5 2997.45 461.501   2
  -2  -9  -5 2689.96 365.724   5
   2   9   5 3062.50 443.116   6
   2   9   6 97686.9 2519.08   6
   2   9   6 98288.5 2593.62   2
  -2  -9  -6 95973.0 2289.97   5
  -2  -9  -6 91980.4 2446.75  12
  -2  -9  -6 95247.2 2493.76  10
   2   9   7 2060.92 383.109   6
  -2  -9  -7 2307.97 416.323  10
   2   9   7 2207.96 422.081   2
  -2  -9  -7 2088.93 398.086  12
  -2  -9  -7 1496.62 329.827   5
  -2  -9  -8 43438.3 1699.15   5
   2  10   3 20785.7 1111.28   6
   2  10   4 6589.49 647.084   6
   2  10   5 189.932 183.573   6
   3  -9  -5 16957.5 976.516  10
   3  -9  -4 3209.56 455.799  10
   3  -9  -4 3724.71 475.948   9
  -3   9   3 2039.48 390.865   6
  -3   9   3 1872.04 377.205   2
   3  -9  -3 2130.06 376.025  10
   3  -9  -3 2059.42 374.781   9
   3  -9  -2 58298.5 1987.24   9
  -3   9   2 61942.1 2094.60   6
  -3   9   2 61033.0 2038.56   2
   3  -9  -2 58332.8 1984.10  10
  -3   9   2 57782.0 1984.77  10
  -3   9   1 43140.8 1756.05   6
   3  -9  -1 40297.0 1662.83  10
   3  -9  -1 41974.4 1719.98   9
  -3   9   1 41580.9 1620.03   2
  -3   9   1 44119.0 1764.26  10
  -3   9   0 29057.1 1287.38   2
   3  -8  -6 12266.5 881.049   5
  -3   8   5 343.535 193.857   2
  -3   8   5 9.72370 120.463   6
   3  -8  -5 160.477 155.487   5
   3  -8  -5 72.1794 97.4608  10
   3  -8  -4 8117.04 616.387   5
   3  -8  -4 7111.41 611.517   9
  -3   8   4 6715.34 671.554   2
  -3   8   4 7270.60 692.298   6
   3  -8  -4 6902.70 608.071  10
  -3   8   3 27933.3 1310.56   6
   3  -8  -3 27251.5 1217.02   9
   3  -8  -3 27922.5 1231.61  10
  -3   8   3 28423.8 1337.11   2
  -3   8   3 27288.4 1234.16  10
   3  -8  -2 27604.5 1255.10  10
   3  -8  -2 28527.0 1283.40   9
  -3   8   2 27920.8 1287.95   2
  -3   8   2 28359.8 1279.77  10
  -3   8   2 30887.7 1375.36   6
  -3   8   1 15648.9 976.643   6
   3  -8  -1 14899.6 947.168   9
  -3   8   1 15477.0 970.602  10
  -3   8   1 15920.7 954.070   2
  -3   8   0 3629.43 485.200   6
   3  -8   0 3611.57 479.235   9
  -3   8   0 3831.82 458.991   2
  -3   8   0 3453.62 478.080  10
  -3   8  -1 52486.4 1850.24   6
   3  -8   1 51095.5 1841.15   9
  -3   8  -1 54980.7 1897.23  10
  -3   8  -1 52860.4 1592.82   2
  -3   8  -2 19438.2 1172.96   6
   3  -8   2 19783.2 1178.85   9
  -3   8  -2 20424.7 1202.80   3
  -3   8  -2 19425.1 1170.43  10
  -3   8  -3 6355.39 599.274   8
   3  -7  -6 17701.1 1072.90   5
  -3   7   6 17719.1 1120.79   2
  -3   7   6 19179.2 1105.42   6
   3  -7  -5 21436.1 951.084  10
   3  -7  -5 21048.7 1069.85   5
  -3   7   5 19379.9 1117.91   2
  -3   7   5 20293.3 1100.67   6
  -3   7   4 651.944 208.534   6
  -3   7   4 336.674 184.512   2
   3  -7  -4 457.773 147.845  10
   3  -7  -4 426.626 156.363   5
   3  -7  -4 433.477 164.819   9
  -3   7   3 60743.2 1806.40   6
   3  -7  -3 60596.3 1667.18  10
   3  -7  -3 61335.9 1513.84   5
   3  -7  -3 60429.7 1664.24   9
  -3   7   3 59579.4 1844.28   2
  -3   7   3 59810.0 1671.43  10
   3  -7  -2 18363.3 950.067  10
   3  -7  -2 20548.0 771.251   5
   3  -7  -2 19274.7 965.205   9
  -3   7   2 20137.1 1042.22   2
  -3   7   2 19994.8 1032.95   6
  -3   7   2 19311.0 978.296  10
   3  -7  -1 115829. 2440.61   9
  -3   7   1 113446. 2377.91   2
  -3   7   1 110987. 2407.64  10
  -3   7   1 110624. 2453.17   6
  -3   7   0 71996.1 1975.88   6
   3  -7   0 72712.2 1989.64   9
  -3   7   0 72152.8 1822.83   2
  -3   7   0 75149.5 2023.89  10
  -3   7  -1 3456.01 450.543   6
   3  -7   1 3855.49 473.874   9
  -3   7  -1 2945.33 425.039  10
  -3   7  -1 3773.09 401.633   2
   3  -7   2 32195.1 1376.74   9
  -3   7  -2 31308.1 1373.98   3
  -3   7  -2 29655.0 1326.99   6
  -3   7  -2 32389.6 1407.03  10
  -3   7  -3 3729.43 496.314   6
   3  -7   3 3428.11 479.491   9
  -3   7  -3 3450.97 476.874   3
  -3   7  -3 3946.68 462.242   8
  -3   7  -3 3574.69 492.425  10
  -3   7  -4 472.991 199.246  10
   3  -7   4 495.056 200.453   9
  -3   7  -4 609.141 187.480   8
  -3   6   7 4890.73 591.485   2
  -3   6   7 4942.77 552.587   6
   3  -6  -6 63907.1 1990.59   5
  -3   6   6 62827.6 2010.88   2
  -3   6   6 65374.2 1932.54   6
  -3   6   5 660.792 197.433   6
  -3   6   5 641.113 209.970   2
   3  -6  -5 983.506 240.143   5
   3  -6  -4 48302.0 1311.40  10
   3  -6  -4 48443.4 1480.39   5
   3  -6  -4 47864.6 1284.60   9
  -3   6   4 46603.4 1607.92   2
  -3   6   4 45811.3 1506.95   6
   3  -6  -3 1909.64 272.060  10
  -3   6   3 1581.42 282.893   6
   3  -6  -3 1653.82 264.380   5
   3  -6  -3 1717.50 265.325   9
  -3   6   3 2038.66 342.225   2
  -3   6   3 1692.77 260.332  10
   3  -6  -2 43774.5 1145.78   5
   3  -6  -2 43897.6 1344.35   9
  -3   6   2 42881.9 1444.23   2
  -3   6   2 43164.1 1336.01  10
  -3   6   2 41888.0 1402.86   6
   3  -6  -1 77397.8 1845.42   9
   3  -6  -1 80744.2 1330.57   5
  -3   6   1 77240.9 1859.50   2
  -3   6   1 75956.9 1819.99  10
  -3   6   1 75583.2 1884.09   6
  -3   6   0 353.250 134.785   2
  -3   6   0 418.442 172.824   6
  -3   6   0 665.358 202.756  10
   3  -6   0 480.476 177.940   9
   3  -6   1 67341.2 1824.96   9
  -3   6  -1 66896.3 1569.13   2
  -3   6  -1 65061.0 1802.98   6
  -3   6  -1 65981.0 1805.68  10
  -3   6  -2 151504. 2823.42   6
   3  -6   2 150153. 2793.59   9
  -3   6  -2 156781. 2255.96   2
  -3   6  -2 151789. 2833.91   3
  -3   6  -2 157063. 2869.71  10
  -3   6  -3 11629.3 817.155  10
  -3   6  -3 11142.1 793.304   6
   3  -6   3 10735.1 762.678   9
  -3   6  -3 11167.2 805.300   3
   3  -6   4 7842.39 672.439   9
  -3   6  -4 8921.94 752.589   3
  -3   6  -4 10406.3 686.343   8
  -3   6  -4 8581.80 721.930  10
  -3   6  -5 25349.0 1345.97   3
   3  -6   5 24504.5 1220.69   9
  -3   6  -5 23536.2 1256.02  10
  -3   5   7 3057.44 419.777   4
  -3   5   7 3728.15 452.992   6
  -3   5   7 3163.63 448.822   2
   3  -5  -7 3622.48 435.983  11
  -3   5   7 3816.08 524.707   7
  -3   5   6 2201.20 343.509   6
  -3   5   6 1913.34 347.790   2
   3  -5  -6 1656.39 326.979   5
  -3   5   6 2079.03 318.495   4
  -3   5   6 1604.82 325.565   7
   3  -5  -6 2061.22 308.775  11
  -3   5   5 840.577 212.829   6
  -3   5   5 1123.16 253.981   2
   3  -5  -5 699.798 213.696   5
  -3   5   5 777.497 217.742   7
  -3   5   5 771.801 181.600   4
   3  -5  -5 779.504 179.228  11
  -3   5   4 20472.0 1025.88   2
   3  -5  -4 21892.8 998.543   5
   3  -5  -4 22232.2 767.346  11
  -3   5   4 21689.1 801.384   4
   3  -5  -4 21849.9 773.790  10
  -3   5   4 22102.6 978.074   6
   3  -5  -4 21185.7 768.173   9
   3  -5  -3 39407.6 1086.50  10
   3  -5  -3 39342.5 1222.08   5
  -3   5   3 36888.9 1325.33   2
  -3   5   3 41399.4 959.335   4
  -3   5   3 38359.9 1248.42   6
  -3   5   3 42125.3 828.461  11
  -3   5   3 40437.1 1111.87  10
   3  -5  -3 39978.3 1118.85   9
  -3   5   2 1106.70 196.789  10
  -3   5   2 992.013 218.802   2
   3  -5  -2 1032.13 188.423   5
   3  -5  -2 952.904 191.579   9
  -3   5   2 1225.89 147.126   4
  -3   5   2 1091.83 110.285  11
   3  -5  -1 73768.2 1298.32   5
   3  -5  -1 68630.1 1601.39   9
  -3   5   1 70849.8 1232.07   5
  -3   5   1 68633.1 529.818  11
  -3   5   1 70055.0 1576.60  10
  -3   5   1 71804.6 1679.71   6
  -3   5   1 70962.1 1675.94   2
  -3   5   0 19269.6 884.178   6
   3  -5   0 19910.0 892.011   9
  -3   5   0 20620.0 552.669   5
  -3   5   0 19022.3 831.583   2
   3  -5   0 20378.5 652.551   7
   3  -5   0 19927.8 524.718   1
  -3   5   0 17801.4 268.565  11
  -3   5   0 19341.6 283.755  11
  -3   5   0 20007.9 875.284  10
   3  -5   1 7017.55 550.403   9
  -3   5  -1 7697.07 348.785   4
   3  -5   1 7764.27 401.358   1
  -3   5  -1 7529.99 568.705   6
  -3   5  -1 7614.78 495.956   2
  -3   5  -1 7561.08 290.602  11
  -3   5  -1 7921.24 579.393  10
  -3   5  -2 2273.03 332.075   6
  -3   5  -2 2477.44 219.340  11
   3  -5   2 2750.16 361.915   9
  -3   5  -2 2780.41 363.283  10
  -3   5  -2 2680.09 277.905   2
  -3   5  -3 806.382 206.315   3
  -3   5  -3 759.563 224.307   6
   3  -5   3 1465.13 284.268   9
  -3   5  -3 1183.56 167.263   2
  -3   5  -3 735.958 152.202  11
  -3   5  -3 800.445 220.220  10
   3  -5   4 4348.08 471.233   9
  -3   5  -4 4289.86 398.614   8
  -3   5  -4 4013.96 480.002   3
  -3   5  -4 4596.54 406.858  11
  -3   5  -4 5033.68 524.745  10
   3  -5   5 67964.0 1886.37   9
  -3   5  -5 72138.4 2116.65   3
  -3   5  -5 68828.9 1622.00   8
  -3   5  -5 69812.6 1761.78  11
  -3   5  -5 68479.1 1979.31  10
   3  -5   6 14069.9 864.110   9
  -3   5  -6 14939.2 1031.06   3
  -3   5  -6 14914.2 878.143  11
  -3   5  -6 14956.5 971.738  10
  -3   4   7 1952.60 309.981   6
  -3   4   7 2185.88 361.852   2
  -3   4   7 1879.08 372.463   7
   3  -4  -7 2112.04 395.675   5
  -3   4   7 2611.88 414.403   4
   3  -4  -7 2183.75 364.953  11
   3  -4  -6 16709.7 1009.50   5
   3  -4  -6 17614.4 925.416  11
  -3   4   6 17218.5 1004.93   7
  -3   4   6 17598.3 948.462   4
  -3   4   6 17349.0 975.086   2
  -3   4   6 17268.8 890.536   6
  -3   4   5 78745.4 1974.08   7
  -3   4   5 80850.1 2003.63   2
   3  -4  -5 82063.2 2088.81   5
  -3   4   5 80745.6 1802.74   6
  -3   4   5 79660.3 1835.13   4
   3  -4  -5 83120.9 1801.43  11
   3  -4  -4 53107.3 1007.74  10
   3  -4  -4 50602.5 1514.63   5
   3  -4  -4 50858.3 1025.23   9
   3  -4  -4 52780.0 996.778  12
  -3   4   4 51386.6 1333.19   4
  -3   4   4 49445.0 1513.30   2
   3  -4  -4 52658.7 1292.72  11
  -3   4   4 50744.6 1446.98   7
  -3   4   4 51780.9 1390.54   6
  -3   4   4 55804.9 933.851   1
   3  -4  -3 92598.0 1446.31  10
  -3   4   3 91762.8 1775.18   7
   3  -4  -3 89128.9 1853.18   5
  -3   4   3 93461.7 915.009   1
   3  -4  -3 88757.9 1484.91   9
  -3   4   3 90397.0 1951.98   2
  -3   4   3 89094.6 1560.65   4
   3  -4  -3 92817.6 1376.44  10
   3  -4  -3 93017.7 1491.73  11
  -3   4   3 91629.4 1782.73   6
   3  -4  -2 23329.4 850.293   5
   3  -4  -2 24162.3 826.365   9
  -3   4   2 24403.9 968.318   2
  -3   4   2 24396.3 630.239  11
  -3   4   2 24400.2 788.839  10
  -3   4   2 24773.9 901.912   6
  -3   4   1 183575. 2269.72  10
   3  -4  -1 182917. 2074.60   5
   3  -4  -1 179917. 2338.42   9
  -3   4   1 187340. 2030.76   5
   3  -4  -1 181656. 1944.38   7
  -3   4   1 180554. 2512.79   2
  -3   4   1 184293. 1447.58  11
  -3   4   1 181162. 2397.88   6
  -3   4   0 517.019 167.150   6
  -3   4   0 167.693 160.543   2
  -3   4   0 79.0694 56.7565   5
   3  -4   0-26.5110 77.0287   9
   3  -4   0 7.19576 45.4508   7
   3  -4   0 32.8688 50.8787   1
  -3   4   0 1292.68 122.523  11
  -3   4   0 1477.96 261.380  10
  -3   4  -1 12951.0 673.079   6
   3  -4   1 13965.0 706.788   9
  -3   4  -1 13533.7 365.896   5
   3  -4   1 13766.0 506.292   1
  -3   4  -1 13561.8 415.311  11
  -3   4  -1 13117.8 673.900  10
  -3   4  -1 13123.8 606.538   2
   3  -4   2 67468.0 1591.59   9
  -3   4  -2 70927.5 1138.63  11
  -3   4  -2 70615.2 1205.78   4
  -3   4  -2 69336.4 1279.98   2
  -3   4  -2 67012.3 1588.28  10
  -3   4  -2 68747.3 1616.79   6
  -3   4  -3 299241. 3587.52   6
   3  -4   3 302556. 3470.18   9
  -3   4  -3 304155. 2788.94  11
  -3   4  -3 309244. 2402.85   2
  -3   4  -3 299369. 3568.79   3
  -3   4  -3 303835. 3573.03  10
   3  -4   4 74642.3 1781.38   9
  -3   4  -4 75139.5 1866.78  10
  -3   4  -4 72520.9 1868.85   3
  -3   4  -4 77585.7 1483.18   8
  -3   4  -4 76130.1 1586.73  11
   3  -4   5 26430.8 1078.12   9
  -3   4  -5 26927.2 908.484   8
  -3   4  -5 28017.0 1243.46   3
  -3   4  -5 26766.8 1047.89  11
  -3   4  -5 26049.2 1147.92  10
  -3   4  -6 662.385 238.740   3
  -3   4  -6 596.297 203.650  10
   3  -4   6 422.911 155.817   9
  -3   4  -6 410.423 153.630  11
  -3   4  -7 34141.6 1428.21  11
  -3   4  -7 34311.1 1424.51  10
   3  -3  -7 30608.0 1459.87   5
   3  -3  -7 29608.7 1361.92  11
  -3   3   7 31235.0 1476.12   7
  -3   3   7 30282.0 1434.07   4
  -3   3   7 30840.5 1266.05   2
   3  -3  -6 472.016 183.283  11
  -3   3   6 213.247 147.509   2
   3  -3  -6 779.773 247.867   5
  -3   3   6 412.838 188.066   7
  -3   3   6 569.676 163.320   6
  -3   3   6 801.404 245.595   4
   3  -3  -5 17191.0 951.346   5
  -3   3   5 17726.5 899.767   2
  -3   3   5 16925.1 886.067   4
  -3   3   5 18375.4 807.913   6
  -3   3   5 17759.1 937.224   7
   3  -3  -5 17402.9 866.570  11
   3  -3  -4 15306.9 395.568  10
  -3   3   4 15106.5 791.432   7
   3  -3  -4 14715.1 819.531   5
   3  -3  -4 15747.3 397.229  12
   3  -3  -4 15735.7 476.684   9
  -3   3   4 16396.8 630.058   1
   3  -3  -4 14706.0 727.779  11
  -3   3   4 14547.8 755.984   4
  -3   3   4 13916.0 765.076   2
  -3   3   4 15120.2 696.296   6
   3  -3  -3 148874. 1448.66  10
  -3   3   3 149564. 1585.39   1
   3  -3  -3 147642. 2355.60   5
   3  -3  -3 145571. 1669.02   9
  -3   3   3 144623. 2108.14   4
   3  -3  -3 147077. 1429.01  10
  -3   3   3 140936. 2173.92   7
   3  -3  -3 146956. 2051.41  11
  -3   3   3 145033. 2362.00   2
  -3   3   3 147374. 2064.70   6
   3  -3  -2 39494.5 1105.13   5
  -3   3   2 39303.9 902.279   9
   3  -3  -2 38854.3 935.546   9
  -3   3   2 38560.9 678.758   1
  -3   3   2 38179.1 993.559   7
  -3   3   2 39832.5 888.817  11
  -3   3   2 38122.9 1155.77   2
  -3   3   2 38645.6 833.798  10
  -3   3   2 36537.6 982.548   6
   3  -3  -2 37337.5 789.404  10
   3  -3  -1 5027.46 350.895   5
  -3   3   1 5097.99 344.440   9
  -3   3   1 5193.07 343.115   5
   3  -3  -1 5134.31 358.885   9
  -3   3   1 5179.82 225.796   1
  -3   3   1 5023.90 325.678  10
   3  -3  -1 5638.37 319.640   7
  -3   3   1 5412.74 324.683   7
  -3   3   1 4894.66 274.967  11
  -3   3   1 5109.40 404.711   2
  -3   3   1 4922.61 355.561   6
   3  -3  -1 5022.41 312.609  10
   3  -3   0 87226.8 1392.97  10
  -3   3   0 85822.2 1208.82   5
   3  -3   0 84427.6 1502.49   9
   3  -3   0 84701.9 986.547   1
  -3   3   0 82465.4 1002.93   1
   3  -3   0 87743.3 1058.38   7
  -3   3   0 83992.6 1414.29  10
  -3   3   0 84610.5 1515.95   2
  -3   3   0 81005.2 1453.71   6
  -3   3  -1 33324.1 974.935   6
  -3   3  -1 36139.7 663.130   5
   3  -3   1 34510.0 1006.56   9
   3  -3   1 35713.3 592.051   7
  -3   3  -1 34652.2 907.168   2
   3  -3   1 35698.7 771.012   1
  -3   3  -1 34725.9 979.820  10
  -3   3  -2 28680.6 952.018   6
   3  -3   2 31644.2 835.113   1
  -3   3  -2 29316.2 964.450  10
   3  -3   2 30002.7 974.780   9
  -3   3  -2 30152.9 780.870   2
  -3   3  -2 29140.4 734.648  11
  -3   3  -2 30492.1 496.107   5
  -3   3  -3 86103.0 1465.45  11
   3  -3   3 87428.4 1707.26   9
  -3   3  -3 88485.5 797.607   5
  -3   3  -3 86014.6 1744.90  10
  -3   3  -3 87639.4 1169.76   2
  -3   3  -3 85423.3 1750.97   3
   3  -3   4 16584.9 771.177   9
  -3   3  -4 16951.8 402.864   5
  -3   3  -4 15710.6 797.035  10
  -3   3  -4 15944.6 585.561   8
  -3   3  -4 16793.8 379.983   2
  -3   3  -4 16609.3 726.171  11
  -3   3  -4 15810.4 813.413   3
  -3   3  -5 178589. 1593.89   5
   3  -3   5 168572. 2526.68   9
  -3   3  -5 174128. 1987.42   8
   3  -3   5 174705. 2215.05   7
  -3   3  -5 168591. 2865.08   3
  -3   3  -5 165028. 2545.74  11
  -3   3  -5 169052. 2740.88  10
   3  -3   6 32758.5 1144.97   9
   3  -3   6 31254.7 1058.20   7
  -3   3  -6 31099.8 1322.55   3
  -3   3  -6 30447.3 1204.50  11
  -3   3  -6 29788.0 1207.36  10
  -3   3  -7 9833.66 734.949  10
   3  -3   7 9698.49 660.594   7
  -3   3  -7 9412.77 738.856  11
  -3   3  -7 8693.43 757.971   3
  -3   3  -8 10643.3 843.528  11
  -3   3  -8 10000.7 750.843  10
   3  -2  -7 182.625 155.352   5
  -3   2   7 307.002 202.479   4
   3  -2  -7 387.242 176.180  11
  -3   2   6 50846.1 1748.72   7
   3  -2  -6 49316.5 1720.97   5
  -3   2   6 49948.8 1721.55   4
  -3   2   6 50004.3 1532.03   2
   3  -2  -6 50155.8 1678.16  11
  -3   2   6 51296.3 1375.56   6
  -3   2   5 1472.33 253.483   2
   3  -2  -5 1550.15 296.222   5
  -3   2   5 1973.75 260.024   6
  -3   2   5 1701.09 302.720   4
  -3   2   5 1301.62 267.260   7
   3  -2  -5 1217.62 254.150  11
  -3   2   4 49573.0 1151.71   6
   3  -2  -4 48829.5 1487.62   5
   3  -2  -4 52472.9 720.320   9
  -3   2   4 49704.8 1438.61   4
  -3   2   4 49134.7 1424.38   7
   3  -2  -4 50710.4 1427.12  11
  -3   2   4 49791.3 1391.76   2
   3  -2  -3 37812.8 394.094  10
   3  -2  -3 42469.1 950.134   6
   3  -2  -3 37315.3 387.230  10
   3  -2  -3 40779.5 1243.03   5
  -3   2   3 40918.0 776.250   9
   3  -2  -3 40558.3 779.486   9
   3  -2  -3 41015.9 1157.48  11
  -3   2   3 39899.4 1169.55   4
  -3   2   3 38785.9 1150.56   7
  -3   2   3 40472.3 965.903   6
  -3   2   3 40533.0 1199.37   2
   3  -2  -2 7464.60 267.611  10
  -3   2   2 6917.47 470.354   2
  -3   2   2 7262.48 364.024   1
   3  -2  -2 7596.78 276.366  10
   3  -2  -2 7517.16 487.428   5
  -3   2   2 7382.70 358.576   9
   3  -2  -2 7639.36 441.035  11
   3  -2  -2 7394.41 369.047   9
  -3   2   2 7469.60 440.754   7
   3  -2  -2 7584.34 380.185   6
  -3   2   2 7722.27 280.768  10
  -3   2   2 7612.67 396.915   6
   3  -2  -1 406117. 2336.62  10
  -3   2   1 405163. 3370.31   2
   3  -2  -1 402718. 3194.14   5
  -3   2   1 416781. 2821.20   9
   3  -2  -1 403841. 2843.66   9
  -3   2   1 410083. 2389.57   1
  -3   2   1 415031. 2751.29  11
  -3   2   1 401488. 2720.78   7
   3  -2  -1 420843. 2709.58   6
  -3   2   1 410057. 2384.31  10
  -3   2   1 400944. 2734.57   6
  -3   2   0 533097. 3198.49   6
   3  -2   0 540972. 2985.17  10
  -3   2   0 547739. 3160.13   5
  -3   2   0 548926. 3362.49   9
   3  -2   0 532128. 3427.95   9
   3  -2   0 532773. 2389.02   7
  -3   2   0 527231. 2451.26   7
   3  -2   0 516164. 2565.12   1
  -3   2   0 541383. 2680.18   1
   3  -2   0 512173. 3071.32   6
  -3   2   0 537505. 3078.32  10
   3  -2   1 127311. 1602.83  10
  -3   2  -1 119033. 1613.11   6
  -3   2  -1 124450. 1322.80   5
  -3   2  -1 121846. 1651.40   9
   3  -2   1 114792. 1674.86   9
   3  -2   1 125235. 1586.00   6
  -3   2  -1 120749. 1396.11   1
   3  -2   1 121161. 778.259   7
   3  -2   1 133962. 1427.52   1
  -3   2  -1 119782. 1611.19  10
  -3   2  -2 172906. 2104.48   6
  -3   2  -2 168376. 1879.15   1
   3  -2   2 174273. 2115.35   9
   3  -2   2 178197. 1907.54   1
  -3   2  -2 169558. 2092.71  10
   3  -2   3 174087. 1347.75   7
  -3   2  -3 172030. 2216.52   3
  -3   2  -3 171890. 1523.01   2
  -3   2  -3 165780. 1994.79  11
   3  -2   3 170454. 2201.14   9
  -3   2  -3 173493. 2272.52  10
  -3   2  -4 234808. 2867.67   3
  -3   2  -4 237771. 2856.00  10
   3  -2   4 233705. 2641.38   9
  -3   2  -4 241348. 1898.20   5
  -3   2  -4 239369. 1813.87   8
   3  -2   4 232280. 2031.21   7
  -3   2  -4 239393. 1345.15   2
  -3   2  -4 232785. 2648.80  11
   3  -2   5 92697.3 1725.13   9
  -3   2  -5 95008.6 1351.73   5
  -3   2  -5 98161.7 1219.14   8
   3  -2   5 96055.7 1534.69   7
  -3   2  -5 92420.1 1974.39   3
  -3   2  -5 94279.2 1877.42  11
  -3   2  -5 91914.0 1912.43  10
  -3   2  -6 59856.4 1223.01   5
   3  -2   6 60185.7 1414.68   9
  -3   2  -6 62747.0 1057.63   8
   3  -2   6 61060.0 1410.33   7
  -3   2  -6 59728.3 1720.05   3
  -3   2  -6 59117.3 1641.91  11
  -3   2  -6 56792.8 1577.32  10
   3  -2   7 8560.01 546.493   9
  -3   2  -7 8687.55 717.587   3
   3  -2   7 8123.62 582.509   7
  -3   2  -7 8644.69 685.842  11
  -3   2  -7 7749.45 613.621  10
   3  -2   8 26685.0 1150.58   7
  -3   2  -8 26361.2 1297.33  11
  -3   2  -8 25876.8 1339.31   3
  -3   2  -8 24454.3 1148.50  10
   3  -1  -7 167491. 3387.98   3
   3  -1  -6 2328.48 381.255   5
  -3   1   6 2671.28 415.476   4
  -3   1   6 3140.00 448.430   7
  -3   1   6 3401.80 390.099   2
   3  -1  -6 2332.80 386.678  11
   3  -1  -6 2744.16 406.482   3
   3  -1  -5 4277.10 464.854   3
   3  -1  -5 4274.94 482.142   5
  -3   1   5 4006.16 474.225   4
  -3   1   5 4403.11 488.959   7
   3  -1  -5 4234.10 474.937  11
  -3   1   5 4729.15 371.144   6
  -3   1   5 4079.37 407.147   2
   3  -1  -4 27051.7 1107.44   5
  -3   1   4 27242.8 993.678   2
  -3   1   4 26993.8 1111.64   4
  -3   1   4 26512.2 1085.94   7
   3  -1  -4 26679.3 1085.20  11
  -3   1   4 27601.5 798.629   6
   3  -1  -4 26164.3 1030.66   3
   3  -1  -3 42688.4 1190.32   3
   3  -1  -3 43429.2 1305.91   5
  -3   1   3 45904.6 775.424   9
   3  -1  -3 46327.8 790.021   9
  -3   1   3 45793.6 917.177   6
  -3   1   3 42646.2 1273.52   4
  -3   1   3 42892.2 1224.20   7
   3  -1  -3 45471.9 1288.14  11
   3  -1  -2 101603. 1799.76   5
  -3   1   2 101309. 1260.45   9
   3  -1  -2 103813. 1276.90   9
  -3   1   2 100926. 1655.81   7
  -3   1   2 104200. 1582.52   1
   3  -1  -2 99894.3 1201.58   6
   3  -1  -2 102052. 1731.59  11
  -3   1   2 102377. 1236.36   6
   3  -1  -1 64037.7 690.643  10
   3  -1  -1 63410.6 1293.59   5
  -3   1   1 63486.4 1039.07   9
   3  -1  -1 63769.2 1055.19   9
   3  -1  -1 64653.6 692.650  12
  -3   1   1 64455.8 1095.28   1
  -3   1   1 66223.3 1120.88   3
  -3   1   1 63241.0 1114.19   7
  -3   1   1 64979.4 1174.28  11
   3  -1  -1 63943.8 874.320   6
  -3   1   1 64050.4 903.390   6
  -3   1   1 65973.2 715.980  10
   3  -1   0 44033.0 720.385  10
  -3   1   0 43067.9 744.630   6
  -3   1   0 45828.7 903.028   9
   3  -1   0 45013.8 823.957   1
   3  -1   0 42895.4 895.945   9
  -3   1   0 42363.2 832.744   1
  -3   1   0 43166.0 733.761  10
  -3   1   0 45069.1 930.252   8
  -3   1   0 42491.2 726.194   7
  -3   1   0 44260.1 925.815   5
  -3   1   0 43484.2 876.565  11
   3  -1   0 42906.6 733.089   6
   3  -1   0 44091.9 712.785  12
  -3   1  -1 144035. 1558.04  10
   3  -1   1 143564. 1495.40  10
  -3   1  -1 139691. 1489.89   6
   3  -1   1 143073. 1487.62  12
  -3   1  -1 146317. 1668.03   9
   3  -1   1 139229. 1688.02   9
   3  -1   1 144228. 1495.01   1
  -3   1  -1 143273. 1456.60   8
  -3   1  -1 139433. 803.895   7
  -3   1  -1 137849. 1521.89   1
   3  -1   1 143726. 1461.84   6
  -3   1  -2 75185.2 1262.60  10
   3  -1   2 77904.4 1243.87  10
   3  -1   2 78448.4 1210.62   6
   3  -1   2 76406.5 1196.19   1
  -3   1  -2 77918.7 1254.37   9
   3  -1   2 78733.5 1310.79   9
   3  -1   2 76877.9 1222.65  12
  -3   1  -2 74814.4 1219.87   1
  -3   1  -3 19460.5 708.012  10
  -3   1  -3 20455.2 675.149   9
   3  -1   3 19132.6 675.615   9
  -3   1  -3 19609.0 703.276   1
  -3   1  -3 19466.7 663.550   3
   3  -1   3 19947.0 689.615   1
   3  -1   3 20233.5 387.789   7
  -3   1  -4 1158.74 189.912  10
  -3   1  -4 983.217 177.828   3
  -3   1  -4 711.317 83.4969   2
   3  -1   4 582.198 133.808   9
  -3   1  -4 681.395 66.8341   8
   3  -1   4 667.000 106.774   7
  -3   1  -4 917.580 178.816  11
  -3   1  -5 153083. 2333.04  10
   3  -1   5 154305. 2030.17   9
  -3   1  -5 155778. 1911.84   5
  -3   1  -5 157328. 1099.87   8
   3  -1   5 154005. 1846.80   7
  -3   1  -5 153156. 2362.14   3
  -3   1  -5 156610. 2362.10  11
  -3   1  -6 19465.8 885.985  10
  -3   1  -6 20601.7 953.003  11
   3  -1   6 20566.1 759.611   9
  -3   1  -6 19759.2 745.994   5
  -3   1  -6 22044.5 488.831   8
   3  -1   6 20360.0 779.219   7
  -3   1  -6 19363.6 931.785   3
  -3   1  -7 13060.6 764.364  10
  -3   1  -7 12814.0 814.502  11
  -3   1  -7 12725.4 656.171   5
   3  -1   7 13405.0 626.116   9
   3  -1   7 12636.2 698.641   7
  -3   1  -7 12847.0 827.186   3
  -3   1  -8 15462.6 795.639   5
   3  -1   8 15258.4 864.555   7
  -3   1  -8 15141.6 961.244  11
  -3   1  -8 16657.2 1019.77   3
  -3   1  -8 14861.1 856.605  10
   3  -1   9 38416.5 1456.59   7
   3   0  -6 27358.9 1287.27   3
   3   0  -6 24603.9 1236.54   5
  -3   0   6 27259.7 1357.71   4
  -3   0   6 27294.0 1334.58   7
   3   0  -6 26656.3 1328.48  11
   3   0  -5 24812.7 1106.98   3
   3   0  -5 23377.6 1107.42   5
  -3   0   5 23603.1 1169.34   4
   3   0  -5 23701.3 1109.10   8
  -3   0   5 22542.8 1119.51   7
   3   0  -5 24546.7 1176.67  11
  -3   0   5 24296.9 966.636   2
   3   0  -4 60033.3 1567.50   3
   3   0  -4 57559.7 1629.30   5
  -3   0   4 61642.0 1738.53   4
   3   0  -4 56816.9 1634.24   8
  -3   0   4 57758.6 1651.44   7
   3   0  -4 59899.5 1692.52  11
  -3   0   4 61673.0 1126.24   6
   3   0  -3 17226.4 753.137   3
   3   0  -3 16584.1 808.296   5
  -3   0   3 16501.7 486.393   9
  -3   0   3 16127.3 816.703   4
   3   0  -3 15902.2 798.851   8
  -3   0   3 16066.2 786.965   7
   3   0  -3 16418.2 812.472  11
  -3   0   3 17662.2 512.402   6
   3   0  -2 34298.9 932.336   3
   3   0  -2 34770.6 1073.70   5
  -3   0   2 34490.5 743.158   9
   3   0  -2 35299.1 773.229   9
   3   0  -2 34129.4 1069.43   8
  -3   0   2 34500.7 1015.55   7
   3   0  -2 35164.2 1081.17  11
  -3   0   2 36063.1 596.135   6
  -3   0   1 309068. 2283.78   9
   3   0  -1 307545. 2321.55   9
  -3   0   1 300174. 2700.05   1
   3   0  -1 309590. 2929.08   8
  -3   0   1 313707. 2309.99   3
  -3   0   1 297692. 1348.71   6
  -3   0   0 596319. 2404.58  10
  -3   0   0 573449. 2577.07   3
  -3   0   0 580672. 1888.71   6
   3   0   0 595687. 2342.03  10
  -3   0   0 584610. 3485.21   5
   3   0   0 595592. 2322.46  12
  -3   0   0 590827. 3189.02   9
   3   0   0 579611. 3258.79   9
  -3   0   0 603932. 3450.38   8
   3   0   0 576020. 3518.22   8
  -3   0   0 559302. 3341.98  11
  -3   0   0 562352. 3345.23   1
   3   0   1 370090. 1900.25   6
  -3   0  -1 357981. 2270.91  10
  -3   0  -1 358898. 2583.08   1
   3   0   1 364780. 2202.50  10
  -3   0  -1 377160. 2553.21   9
   3   0   1 363537. 2635.47   9
   3   0   1 364760. 2202.08  12
  -3   0  -1 369865. 2327.21   8
   3   0   1 368888. 2395.42   8
  -3   0  -1 362060. 2261.32  12
   3   0   1 357471. 2487.54   1
  -3   0  -2 206367. 1967.45  10
   3   0   2 212600. 1773.28   6
   3   0   2 212337. 1979.17   1
  -3   0  -2 207652. 1949.98   9
   3   0   2 206258. 2035.77   9
   3   0   2 214877. 1908.12  10
  -3   0  -2 211878. 1424.30   8
   3   0   2 215540. 1900.26  12
  -3   0  -2 207093. 1523.89   3
  -3   0  -2 205478. 1947.76  12
  -3   0  -2 206401. 2021.81   1
  -3   0  -3 500957. 3424.13  10
   3   0   3 527609. 3293.20  12
   3   0   3 525825. 3296.60  10
  -3   0  -3 529163. 3213.42   9
   3   0   3 489564. 3222.60   9
  -3   0  -3 492998. 3427.89   1
  -3   0  -3 506318. 1981.52   7
  -3   0  -3 502646. 2924.89   3
   3   0   3 525366. 3405.90   1
  -3   0  -4 122479. 1849.29  10
  -3   0  -4 124178. 1633.07   9
  -3   0  -4 121088. 1226.52   2
  -3   0  -4 118561. 1878.63   1
   3   0   4 122709. 1649.52   9
   3   0   4 124345. 1346.76   7
  -3   0  -4 124302. 1290.75   7
   3   0   4 126789. 1683.47   3
  -3   0  -4 119037. 1679.08   3
  -3   0  -5 115569. 1919.29  10
  -3   0  -5 120433. 1623.32   9
   3   0   5 116462. 1648.54   9
  -3   0  -5 116289. 1756.76   5
  -3   0  -5 117095. 1105.19   2
   3   0   5 115048. 1591.20   7
  -3   0  -5 114272. 1894.67   3
  -3   0  -5 114864. 1989.86  11
  -3   0  -6 122633. 2133.12  10
   3   0   6 123200. 1733.10   9
  -3   0  -6 119665. 1944.93   5
  -3   0  -6 122568. 2265.39  11
   3   0   6 124351. 1906.00   7
  -3   0  -6 119219. 831.605   2
  -3   0  -6 121758. 2198.68   3
  -3   0  -7 43296.0 1335.09  10
  -3   0  -7 43974.0 1264.59   5
   3   0   7 45755.2 1070.07   9
  -3   0  -7 42926.3 1434.94   3
   3   0   7 44373.9 1284.95   7
  -3   0  -7 44455.2 1484.32  11
  -3   0  -8 24114.9 1050.69  10
  -3   0  -8 24368.4 1035.55   5
  -3   0  -8 24898.7 1193.56   3
   3   0   8 24744.4 1061.46   7
  -3   0  -8 25326.5 1218.58  11
  -3   0  -9 27493.3 1181.23  10
  -3   0  -9 28465.1 1392.92   3
  -3   0  -9 27264.2 1161.05   5
   3   0   9 29076.8 1265.71   7
  -3   0  -9 27925.7 1384.36  11
   3   1  -6 17402.2 1035.80   3
  -3  -1   6 19448.4 1198.82   4
   3   1  -6 17487.5 1066.86   8
  -3  -1   6 17901.5 1128.58   7
   3   1  -6 17309.7 1110.86  11
   3   1  -5 21894.2 1057.50   3
  -3  -1   5 23392.2 1196.89   4
   3   1  -5 22320.7 1122.88   8
  -3  -1   5 22547.6 1156.84   7
   3   1  -5 22432.5 1163.62  11
   3   1  -4 58860.7 1578.06   3
   3   1  -4 59432.8 1766.06  11
  -3  -1   4 60277.0 1788.64   4
   3   1  -4 60273.2 1710.24   8
  -3  -1   4 58939.1 1723.41   7
  -3  -1   4 62025.4 1080.48   6
   3   1  -3 24705.8 915.124   3
  -3  -1   3 26169.1 570.862   6
  -3  -1   3 26409.1 668.389   9
   3   1  -3 24434.1 1024.63   8
  -3  -1   3 24758.2 1046.47   4
   3   1  -3 23988.4 1031.78  11
  -3  -1   3 26391.0 585.053   6
   3   1  -2 275763. 2658.24   3
  -3  -1   2 269560. 1418.26   6
  -3  -1   2 276968. 2281.72   9
   3   1  -2 272720. 3139.37   8
  -3  -1   2 268560. 3136.61   4
   3   1  -2 269290. 3147.88  11
  -3  -1   2 273652. 1404.28   6
   3   1  -1 8001.01 383.724   3
  -3  -1   1 7551.59 235.142  10
  -3  -1   1 7420.81 472.753   1
  -3  -1   1 7700.19 386.420   9
   3   1  -1 7630.95 399.796   9
   3   1  -1 7824.06 485.570   8
  -3  -1   1 7653.24 234.465  12
  -3  -1   1 7775.36 368.460   3
  -3  -1   1 7633.15 235.528  10
  -3  -1   0 1086.49 112.227  10
   3   1   0 1001.07 108.608   3
   3   1   0 1180.39 111.596  10
  -3  -1   0 1047.12 168.018   1
  -3  -1   0 1043.49 160.414   5
  -3  -1   0 949.136 142.338   9
   3   1   0 1073.45 154.061   9
  -3  -1   0 1071.78 162.436   8
  -3  -1   0 1014.34 107.836  12
   3   1   0 941.245 159.980   8
  -3  -1   0 1189.24 174.296  11
  -3  -1   0 1121.87 109.004   3
  -3  -1  -1 131922. 1368.13  10
   3   1   1 133302. 1617.98   1
  -3  -1  -1 134051. 1571.03   9
   3   1   1 129051. 1616.62   9
  -3  -1  -1 132259. 1503.47   8
   3   1   1 129289. 1544.56   8
  -3  -1  -1 129969. 1679.63   1
  -3  -1  -1 129547. 1350.05  12
   3   1   1 130869. 1320.75  10
   3   1   1 132761. 1321.70  12
  -3  -1  -1 127568. 704.866   3
  -3  -1  -2 147.589 85.0795   1
  -3  -1  -2 209.472 36.0820   3
  -3  -1  -2 13.5072 42.5115  10
   3   1   2 22.1689 36.1081  10
  -3  -1  -2-18.9434 63.7382   9
   3   1   2 84.0176 74.8251   9
  -3  -1  -2 58.4496 35.5993   8
  -3  -1  -2 29.0950 59.0154  12
   3   1   2 42.9983 50.8683  12
   3   1   2-47.1550 64.4389   1
  -3  -1  -3 1276.98 175.147  10
   3   1   3 1192.37 169.732   1
   3   1   3 1031.88 153.175  10
  -3  -1  -3 1342.29 180.162  12
  -3  -1  -3 1156.70 148.453   2
  -3  -1  -3 979.838 148.241   9
   3   1   3 1313.67 179.359   9
  -3  -1  -3 1060.58 170.685   1
   3   1   3 1129.40 91.7470   8
   3   1   3 971.954 109.076   3
   3   1   3 1018.87 147.971  12
  -3  -1  -3 1002.19 114.014   7
  -3  -1  -3 1060.48 115.459   3
  -3  -1  -4 763.902 149.802  12
  -3  -1  -4 697.837 158.685   1
   3   1   4 600.773 113.316   3
  -3  -1  -4 605.126 114.772   3
  -3  -1  -4 852.127 162.336  10
  -3  -1  -4 701.036 115.184   2
  -3  -1  -4 736.715 128.446   9
   3   1   4 667.077 126.751   9
  -3  -1  -4 599.075 102.795   7
  -3  -1  -5 110353. 1899.29   1
  -3  -1  -5 113604. 1553.92   9
   3   1   5 115333. 1585.50   9
  -3  -1  -5 112795. 1853.90  12
   3   1   5 112631. 1597.50   7
  -3  -1  -5 113572. 1372.47   2
  -3  -1  -5 111068. 1844.98  10
  -3  -1  -5 117145. 1537.20   7
  -3  -1  -5 110313. 1930.53  11
  -3  -1  -5 113637. 1744.48   3
   3   1   6 162127. 2187.88   7
  -3  -1  -6 161399. 2398.39  10
  -3  -1  -6 167363. 1848.43   9
   3   1   6 164115. 1915.18   9
  -3  -1  -6 163079. 2363.35   5
  -3  -1  -6 159904. 2538.32  11
  -3  -1  -6 164724. 1565.35   2
  -3  -1  -6 161966. 2394.50   3
  -3  -1  -7 2955.25 354.587  10
  -3  -1  -7 2783.96 336.261   5
   3   1   7 3084.87 266.918   9
   3   1   7 3085.93 345.441   7
  -3  -1  -7 3008.84 388.976  11
  -3  -1  -7 2895.86 365.392   3
  -3  -1  -8 34727.6 1229.45  10
  -3  -1  -8 35744.8 1280.81   5
   3   1   8 39738.3 1342.57   7
  -3  -1  -8 35377.9 1410.06  11
  -3  -1  -8 35046.0 1358.53   3
  -3  -1  -9 304.080 165.497   3
  -3  -1  -9 159.286 128.441  10
  -3  -1  -9-21.8555 99.1416   5
  -3  -1  -9 57.6196 128.457  11
   3   1   9 46.2955 118.681   7
  -3  -1 -10 39107.6 1478.26   5
   3   1  10 42251.2 1594.72   7
   3   2  -6 1896.64 354.305   3
   3   2  -5 2481.20 378.195   3
   3   2  -5 2659.81 414.441   8
  -3  -2   5 2285.76 408.569   4
  -3  -2   5 2675.58 427.572   7
   3   2  -5 2728.98 430.788  11
   3   2  -4 232.344 142.352   3
   3   2  -4 249.367 143.197   8
   3   2  -4 210.789 149.004  11
  -3  -2   3 8.52478 31.4471   6
   3   2  -3 7.69419 90.6673   3
   3   2  -3 69.2563 93.2965   8
  -3  -2   3 141.333 121.807   4
   3   2  -3-29.2578 144.757  11
   3   2  -2 253.487 125.942  11
  -3  -2   2 302.335 55.8646   6
   3   2  -2 401.910 122.235   3
  -3  -2   2 375.731 70.5162  10
  -3  -2   2 277.649 63.3286  10
   3   2  -2 262.417 129.677   8
  -3  -2   2 191.001 102.311   4
  -3  -2   2 426.210 62.2531   6
  -3  -2   2 291.543 63.1509  12
  -3  -2   1 530995. 2639.01  10
  -3  -2   1 534246. 2646.20  12
   3   2  -1 528837. 4281.94   8
  -3  -2   1 558359. 3238.12   3
  -3  -2   1 539530. 2663.37  10
   3   2  -1 549872. 3281.43   3
  -3  -2   0 446028. 2568.67  10
   3   2   0 442620. 2529.90  10
  -3  -2   0 452301. 3172.80   9
  -3  -2   0 434569. 3583.39   1
   3   2   0 446694. 3269.78   9
   3   2   0 442489. 3567.42   8
  -3  -2   0 439321. 2266.86   3
  -3  -2   0 438947. 2550.10  12
  -3  -2   0 432156. 2583.02  10
   3   2   0 430916. 2294.37   3
  -3  -2  -1 27227.4 683.118  10
   3   2   1 26138.5 323.366   3
   3   2   1 28336.4 675.598  10
  -3  -2  -1 27462.6 771.985   9
   3   2   1 27188.6 800.223   9
  -3  -2  -1 28468.2 781.316   8
   3   2   1 27307.8 789.915   8
  -3  -2  -1 27667.2 840.958   1
   3   2   1 27485.2 423.949   6
  -3  -2  -1 27154.2 680.717  12
  -3  -2  -2 72216.8 1203.43  10
   3   2   2 74049.1 1171.57  10
  -3  -2  -2 74447.1 1273.03   2
  -3  -2  -2 71160.5 1305.31   1
  -3  -2  -2 73175.9 1248.43   9
   3   2   2 73674.3 1305.94   9
  -3  -2  -2 74746.1 1124.60   8
   3   2   2 73316.9 1147.30   8
   3   2   2 75683.6 1289.89   1
  -3  -2  -2 71856.8 1193.31  12
   3   2   2 74819.7 1171.58  12
   3   2   2 72115.6 950.612   6
  -3  -2  -3 123144. 993.762   3
  -3  -2  -3 120490. 1671.30  10
   3   2   3 127755. 1657.64  10
  -3  -2  -3 126742. 1643.83   2
  -3  -2  -3 124405. 1634.81   9
   3   2   3 128265. 1691.66   1
   3   2   3 119429. 1653.00   9
   3   2   3 124477. 1293.80   8
   3   2   3 122353. 1509.73   6
  -3  -2  -3 121850. 1676.06  12
   3   2   3 127399. 1649.38  12
   3   2   3 122296. 991.645   3
  -3  -2  -3 121381. 1713.38   1
  -3  -2  -4 38373.3 1020.65  10
  -3  -2  -4 39279.1 926.954   9
  -3  -2  -4 38023.5 905.085   2
   3   2   4 37572.7 925.707   9
   3   2   4 39117.4 620.040   8
  -3  -2  -4 38610.6 1025.55   1
  -3  -2  -4 37836.8 779.149   3
  -3  -2  -4 38301.3 1013.67  12
  -3  -2  -4 39998.5 876.247   7
   3   2   4 39348.6 777.390   3
  -3  -2  -5 183273. 2364.53  10
   3   2   5 179547. 1992.21   2
  -3  -2  -5 186502. 1999.86   9
   3   2   5 182367. 2031.48   9
  -3  -2  -5 179604. 2380.08   1
  -3  -2  -5 182907. 1996.38   2
  -3  -2  -5 184197. 2362.56  12
   3   2   5 189467. 2063.98   3
  -3  -2  -5 177749. 2057.30   3
  -3  -2  -6 420569. 3833.56  10
   3   2   6 416135. 3029.88   2
  -3  -2  -6 419897. 3932.73   1
  -3  -2  -6 425882. 2994.61   9
   3   2   6 418240. 3087.36   9
  -3  -2  -6 404045. 3899.13   5
   3   2   6 423846. 1826.58   8
  -3  -2  -6 397851. 2901.80   2
  -3  -2  -6 409078. 3628.79   3
  -3  -2  -6 409928. 3970.12  11
  -3  -2  -6 419719. 3825.65  12
  -3  -2  -7 1405.63 248.601   3
  -3  -2  -7 1267.68 235.790  10
   3   2   7 1429.70 182.062   2
  -3  -2  -7 1034.15 236.605  11
   3   2   7 1311.36 179.007   9
  -3  -2  -7 1401.30 262.500   5
  -3  -2  -7 1428.61 246.094  12
   3   2   7 1232.62 231.720   7
  -3  -2  -8 29506.5 1141.70  10
  -3  -2  -8 28510.3 1179.32   5
   3   2   8 28680.5 1137.55   7
  -3  -2  -8 28802.4 1249.02  11
   3   2   8 29403.9 1241.18   6
  -3  -2  -8 28744.3 1178.42   3
   3   2   9 33.8028 104.255   6
  -3  -2  -9-26.3239 113.536   3
  -3  -2  -9-30.4386 103.495  10
  -3  -2  -9-69.4472 148.429   5
   3   2   9 101.851 84.3932   7
  -3  -2  -9 88.2408 116.768  11
   3   2  10 298.078 167.375   7
  -3  -2 -10 573.505 193.823   5
  -3  -3   5 37270.6 1629.81   4
   3   3  -5 35306.2 1520.39   8
   3   3  -5 36056.8 1609.36  11
   3   3  -5 35524.1 1425.10   3
   3   3  -4 79914.5 2195.72  11
  -3  -3   4 80408.9 2194.23   4
   3   3  -4 78938.5 2143.97   8
   3   3  -4 79603.3 1961.84   3
   3   3  -3 1042.92 209.131   3
   3   3  -3 1000.32 240.164   8
  -3  -3   3 1115.61 253.706   4
   3   3  -3 1077.20 251.658  11
  -3  -3   2 74700.2 1179.59  10
   3   3  -2 70637.3 1799.65   8
  -3  -3   2 71913.9 1764.47   4
   3   3  -2 71885.2 1786.94  11
   3   3  -2 72694.3 1500.95   3
  -3  -3   1 53804.1 1024.86  10
   3   3  -1 51872.6 1438.18   8
  -3  -3   1 51800.7 1363.96   4
  -3  -3   1 53291.9 1067.55   3
  -3  -3   1 52244.4 678.191   6
   3   3  -1 52835.7 1114.00   3
  -3  -3   1 52447.7 996.603  10
   3   3   0 10958.6 302.834   6
  -3  -3   0 11612.3 488.376  10
   3   3   0 10968.6 417.788   3
   3   3   0 10869.0 608.992   8
  -3  -3   0 11280.7 632.460   1
  -3  -3   0 10904.7 473.118  12
  -3  -3   0 10711.2 295.263   6
  -3  -3   0 10878.5 472.836  10
  -3  -3  -1 1161.35 166.662  10
   3   3   1 1562.91 181.630  10
   3   3   1 1368.90 123.898   6
  -3  -3  -1 1223.94 204.871   1
   3   3   1 1238.39 196.419   8
  -3  -3  -1 1096.97 158.744  12
  -3  -3  -1 1760.70 134.642   6
   3   3   1 2096.27 139.423   3
  -3  -3  -1 1463.91 182.797  10
  -3  -3  -2 27834.6 812.555  10
   3   3   2 28589.5 802.816  10
  -3  -3  -2 28389.9 818.628  12
   3   3   2 28268.1 886.379   9
   3   3   2 28203.7 834.761   8
  -3  -3  -2 28210.0 882.309   1
   3   3   2 28039.8 378.329   3
   3   3   2 28425.8 654.254   6
  -3  -3  -3 8151.63 467.099   1
  -3  -3  -3 8181.24 469.441  10
   3   3   3 8015.69 470.370   9
   3   3   3 8343.36 412.529   8
  -3  -3  -3 8724.33 480.364  12
   3   3   3 8487.37 414.187   6
   3   3   3 8720.93 264.796   3
  -3  -3  -4 16686.3 699.649  10
   3   3   4 16620.4 679.237   2
  -3  -3  -4 16143.2 684.804  12
   3   3   4 16126.0 656.222   9
  -3  -3  -4 16498.9 678.326   1
   3   3   4 17202.0 668.638   6
   3   3   4 16797.9 497.167   3
   3   3   5 713.851 161.561   2
   3   3   5 715.575 128.617   3
  -3  -3  -5 658.251 129.935   3
  -3  -3  -5 759.880 174.317  10
  -3  -3  -5 791.364 181.612   1
   3   3   5 759.501 169.647   6
   3   3   5 921.029 161.884   9
  -3  -3  -5 520.706 146.283  12
  -3  -3  -6 95785.4 1698.67   3
  -3  -3  -6 95836.5 1886.19  10
   3   3   6 97411.1 1660.65   2
  -3  -3  -6 94740.2 1840.49   1
  -3  -3  -6 95771.9 1888.89  11
  -3  -3  -6 94111.6 1952.03   5
   3   3   6 95645.6 1562.05   9
   3   3   6 98117.0 1950.40   6
  -3  -3  -6 95785.7 1874.48  12
  -3  -3  -7 164529. 2516.03   3
  -3  -3  -7 169027. 2599.55  10
   3   3   7 173428. 2212.92   2
  -3  -3  -7 165157. 2755.34   5
   3   3   7 171280. 2029.16   9
  -3  -3  -7 166556. 2575.38  12
   3   3   7 169705. 2774.19   6
  -3  -3  -7 167856. 2732.73  11
  -3  -3  -8 11109.7 728.480   3
  -3  -3  -8 11910.0 727.289  10
  -3  -3  -8 11328.0 706.466  12
   3   3   8 11612.6 591.751   2
  -3  -3  -8 11233.3 761.035   5
   3   3   8 11797.3 798.388   6
  -3  -3  -8 12311.1 802.368  11
   3   3   9 354.411 171.894   6
  -3  -3  -9 126.735 119.990  10
  -3  -3  -9 169.633 137.260   3
  -3  -3  -9 263.892 144.852   5
  -3  -3  -9 296.339 155.019  12
  -3  -3  -9 190.269 128.498  11
   3   3  10 1038.95 297.578   6
  -3  -3 -10 491.967 167.088  10
  -3  -3 -10 743.880 240.026   3
   3   3  10 490.719 192.127   7
  -3  -3 -10 907.056 273.241   5
  -3  -3 -10 955.520 283.363  11
  -3  -4   4 19401.0 1120.62   4
   3   4  -4 17952.2 1091.29   8
   3   4  -4 19066.3 1127.99  11
   3   4  -4 18480.3 990.282   3
  -3  -4   3 7519.55 643.283   4
   3   4  -3 7086.80 645.021   8
   3   4  -3 6913.87 624.720  11
   3   4  -3 7483.23 577.403   3
   3   4  -2 865.069 184.935   3
  -3  -4   2 927.288 167.759  10
   3   4  -2 1330.12 269.613   8
  -3  -4   2 1073.37 235.286   4
  -3  -4   1 1318.51 192.293  10
   3   4  -1 1408.91 205.582   3
   3   4  -1 1347.87 260.706   8
  -3  -4   1 1323.05 237.897   4
   3   4   0 338248. 2237.45   6
  -3  -4   0 334344. 3012.73  10
   3   4   0 329533. 3656.89   8
  -3  -4   0 330034. 3695.98   1
  -3  -4   0 344374. 2159.20   6
   3   4   0 342440. 2671.86   3
  -3  -4  -1 252779. 2991.41   1
  -3  -4  -1 251568. 2644.01  10
   3   4   1 256901. 3021.57   8
  -3  -4  -1 251697. 2642.41  12
   3   4   1 261200. 1986.53   3
  -3  -4  -1 254899. 1965.85   6
   3   4   1 255662. 2039.51   6
  -3  -4  -2 36564.0 1029.26  10
   3   4   2 37121.1 1073.27   8
   3   4   2 37203.0 649.259   3
  -3  -4  -2 36438.3 1071.43   1
  -3  -4  -2 35840.2 1018.60  12
  -3  -4  -2 36726.6 815.601   6
   3   4   2 37146.6 854.431   6
   3   4   3 29647.2 577.169   3
  -3  -4  -3 28418.4 942.906  10
   3   4   3 28162.1 958.704   2
  -3  -4  -3 28425.8 915.413   1
   3   4   3 28794.4 892.212   8
  -3  -4  -3 28269.9 935.119  12
  -3  -4  -3 29626.8 802.026   6
   3   4   3 28493.6 816.512   6
  -3  -4  -4 56056.4 1360.70  12
  -3  -4  -4 56794.0 1374.64  10
   3   4   4 56443.0 1371.79   2
   3   4   4 56198.0 1265.17   6
  -3  -4  -4 57756.7 1301.17   1
   3   4   4 56734.7 942.080   3
   3   4   5 1185.28 225.957   2
   3   4   5 921.128 196.333   6
   3   4   5 1004.30 147.256   3
  -3  -4  -5 852.213 184.640  10
  -3  -4  -5 936.164 185.024   1
  -3  -4  -5 1111.91 206.786  12
  -3  -4  -6 286126. 3352.36  10
   3   4   6 284828. 3148.09   2
  -3  -4  -6 281674. 3100.67   1
  -3  -4  -6 287498. 3347.57  12
   3   4   6 288251. 3388.12   6
  -3  -4  -7 147605. 2526.10  10
  -3  -4  -7 143434. 2314.93   3
  -3  -4  -7 146512. 2387.90   1
   3   4   7 146162. 2282.46   2
  -3  -4  -7 145158. 2657.52   5
  -3  -4  -7 143956. 2485.65  12
   3   4   7 145760. 2614.29   6
  -3  -4  -7 145140. 2507.90  11
  -3  -4  -8 73514.5 1840.65  10
  -3  -4  -8 72256.9 1810.35   3
   3   4   8 75833.4 1676.77   2
  -3  -4  -8 74709.6 2016.07   5
  -3  -4  -8 72842.0 1830.44  12
   3   4   8 73762.5 1987.29   6
  -3  -4  -8 75606.2 1939.23  11
  -3  -4  -9 4656.16 488.834  10
  -3  -4  -9 4110.57 482.205   3
  -3  -4  -9 4929.90 556.857   5
   3   4   9 4677.23 544.286   6
  -3  -4  -9 4119.17 489.611  11
  -3  -4  -9 3996.40 450.411  12
   3   4  10 1007.90 283.088   6
  -3  -4 -10 1090.85 245.476  10
  -3  -4 -10 1435.19 316.151   3
  -3  -4 -10 1286.68 318.021   5
  -3  -4 -10 979.629 268.599  11
  -3  -4 -10 1328.76 271.654  12
  -3  -5   3 13631.0 905.325   4
   3   5  -3 13216.0 936.506   8
   3   5  -3 12856.4 793.368   3
  -3  -5   2 12629.1 658.274  10
   3   5  -2 12325.6 849.457   8
  -3  -5   2 13122.7 810.756   4
   3   5  -2 13058.2 732.459   3
  -3  -5   1 8295.95 532.758  10
   3   5  -1 8184.68 662.513   8
  -3  -5   1 8268.31 586.600   4
  -3  -5   1 8371.96 681.932   1
   3   5  -1 7840.47 510.307   3
   3   5   0 57547.7 1095.00   6
  -3  -5   0 56387.6 1378.49  10
   3   5   0 55466.2 1632.06   8
  -3  -5   0 54419.7 1602.63   1
  -3  -5   0 56833.5 1412.89   4
   3   5   0 57556.2 1225.65   3
  -3  -5  -1 13918.8 691.333  10
  -3  -5  -1 12928.1 728.359   1
   3   5   1 13936.3 539.765   3
   3   5   1 13598.7 769.150   8
  -3  -5  -1 14229.7 519.812   6
   3   5   1 13833.1 551.109   6
  -3  -5  -2 21942.5 882.715  10
   3   5   2 21996.0 930.632   8
   3   5   2 23224.3 640.926   3
  -3  -5  -2 20858.5 878.741   1
  -3  -5  -2 22112.9 880.815  12
   3   5   2 22877.5 746.210   6
  -3  -5  -3 54585.5 1414.68  10
   3   5   3 55370.7 1474.30   2
  -3  -5  -3 55618.2 1363.39   1
   3   5   3 53898.4 1385.04   8
  -3  -5  -3 53789.8 1399.61  12
   3   5   3 56313.2 1247.91   6
  -3  -5  -4 91901.3 1707.51   1
   3   5   4 93625.4 1295.84   3
  -3  -5  -4 93106.3 1883.03  10
  -3  -5  -4 92629.9 1861.42  12
   3   5   4 91588.2 1716.67   6
  -3  -5  -5 10013.6 643.394  10
   3   5   5 9219.82 621.093   2
  -3  -5  -5 9903.71 636.236  12
  -3  -5  -5 9506.74 559.196   1
   3   5   5 10114.1 607.836   6
  -3  -5  -6 10292.3 673.757  10
   3   5   6 11108.9 683.214   2
  -3  -5  -6 10934.3 614.397   1
  -3  -5  -6 10393.1 674.627  12
   3   5   6 11149.3 688.728   6
  -3  -5  -7 3199.44 393.931  10
   3   5   7 2448.86 328.722   2
  -3  -5  -7 2738.11 325.967   1
  -3  -5  -7 2768.24 391.610   5
  -3  -5  -7 2855.75 371.249  12
   3   5   7 2786.20 367.781   6
  -3  -5  -7 3086.19 362.728  11
  -3  -5  -8 53554.8 1629.17  10
   3   5   8 55169.5 1561.97   2
  -3  -5  -8 57200.6 1808.83   5
  -3  -5  -8 54482.9 1633.21  12
   3   5   8 57261.1 1771.66   6
  -3  -5  -8 54407.9 1621.29  11
  -3  -5  -9 15944.9 921.932  10
  -3  -5  -9 18379.2 1005.10  11
   3   5   9 17555.1 899.058   2
  -3  -5  -9 17896.5 1067.26   5
  -3  -5  -9 16655.4 941.622  12
   3   5   9 17523.9 1041.92   6
  -3  -5 -10 1809.28 328.292  10
  -3  -5 -10 1961.69 333.614  12
  -3  -5 -10 1724.39 343.613  11
  -3  -6   3 2162.79 359.621   4
   3   6  -2 410.132 194.395   8
  -3  -6   2 211.767 148.971   4
  -3  -6   2 271.167 169.405   1
   3   6  -1 187.463 108.060   3
  -3  -6   1 162.860 178.156   1
  -3  -6   1 330.769 124.933  10
   3   6  -1 200.335 126.448   8
  -3  -6   1 279.354 143.288   4
   3   6   0 15441.0 656.296   6
  -3  -6   0 14500.5 775.081  10
   3   6   0 13585.6 664.066   3
  -3  -6   0 14017.4 871.755   1
   3   6   0 13961.9 874.473   8
  -3  -6   0 14486.3 740.609   4
   3   6   1 174482. 2203.92   6
  -3  -6  -1 172609. 2815.48   1
  -3  -6  -1 174683. 2690.40  10
   3   6   1 170932. 2933.57   8
  -3  -6  -1 177551. 2340.21   4
   3   6   1 179255. 2194.33   3
  -3  -6  -2 60450.9 1604.20  10
   3   6   2 63135.6 1709.48   8
   3   6   2 62643.4 1207.60   3
  -3  -6  -2 62396.7 1605.58   1
   3   6   2 62859.8 1369.98   6
  -3  -6  -3 422.418 138.322   1
   3   6   3 445.931 137.677   6
  -3  -6  -3 334.202 147.813  10
   3   6   3 398.813 148.146   8
   3   6   3 222.551 113.030   2
  -3  -6  -3 394.607 143.606  12
  -3  -6  -4 10037.4 662.167  12
  -3  -6  -4 9947.57 591.093   1
  -3  -6  -4 9428.67 644.447  10
   3   6   4 9423.82 669.408   2
   3   6   4 9454.26 589.920   6
  -3  -6  -5 37516.9 1306.46  12
  -3  -6  -5 36893.2 1299.18  10
   3   6   5 36847.0 1322.45   2
  -3  -6  -5 38695.8 1144.24   1
   3   6   5 37059.5 1235.15   6
  -3  -6  -6 72889.8 1886.52  10
   3   6   6 74953.7 1893.09   2
  -3  -6  -6 75377.0 1612.74   1
  -3  -6  -6 73956.4 1886.62  12
   3   6   6 75629.7 1878.16   6
  -3  -6  -7 76024.1 1966.88  10
   3   6   7 77779.5 1976.55   2
  -3  -6  -7 79867.1 1698.88   1
  -3  -6  -7 81655.1 2100.97   5
  -3  -6  -7 78405.3 1986.83  12
   3   6   7 77760.5 2007.45   6
  -3  -6  -7 82152.5 1802.22  11
   3   6   8-81.2134 150.148   6
  -3  -6  -8-81.2920 118.068  10
  -3  -6  -8-18.7844 106.815   5
  -3  -6  -8 1.08339 115.845  12
   3   6   8 157.771 119.117   2
  -3  -6  -8 91.2379 109.688  11
  -3  -6  -9 7944.93 679.636  10
   3   6   9 8106.15 669.640   2
  -3  -6  -9 8707.46 761.059   5
  -3  -6  -9 8347.14 699.800  12
   3   6   9 8836.31 765.464   6
  -3  -6  -9 9819.88 729.367  11
  -3  -6 -10 1263.86 282.386  10
  -3  -6 -10 1731.53 331.474  12
  -3  -6 -10 1589.78 326.397  11
  -3  -7   1 6544.67 571.167  10
  -3  -7   1 6986.21 704.792   1
   3   7  -1 6023.61 653.678   8
  -3  -7   0 12147.8 781.981  10
  -3  -7   0 11115.3 812.191   1
   3   7   0 10716.5 828.115   8
  -3  -7   0 12855.4 723.297   4
   3   7   1 18695.7 807.086   6
  -3  -7  -1 17657.7 956.034   1
  -3  -7  -1 18420.1 956.176  10
   3   7   1 18928.7 803.166   3
   3   7   1 17505.9 1017.29   8
  -3  -7  -1 18942.4 798.949   4
  -3  -7  -2 16817.3 912.674  10
   3   7   2 16677.2 959.635   8
  -3  -7  -2 17663.4 697.875   4
   3   7   2 17080.4 721.154   3
  -3  -7  -2 17420.3 901.200   1
   3   7   2 17792.9 802.987   6
  -3  -7  -3 7528.32 616.788  10
   3   7   3 7250.46 618.540   2
   3   7   3 7912.21 642.213   8
  -3  -7  -3 7326.80 552.579   1
  -3  -7  -3 7560.38 616.131  12
   3   7   3 8262.69 565.498   6
  -3  -7  -4 75602.0 1960.60  10
  -3  -7  -4 74944.3 1695.78   1
   3   7   4 73208.2 1968.88   2
   3   7   4 74054.3 1900.05   8
  -3  -7  -4 74657.6 1944.48  12
   3   7   4 74482.0 1770.10   6
  -3  -7  -5 96427.8 2244.20  10
   3   7   5 95066.0 2260.21   2
  -3  -7  -5 97886.9 2250.62  12
  -3  -7  -5 96249.5 1862.83   1
   3   7   5 96093.6 2092.86   6
  -3  -7  -6 7774.68 656.367  10
   3   7   6 7959.58 664.221   2
  -3  -7  -6 8241.46 670.008  12
  -3  -7  -6 8446.52 663.772   5
  -3  -7  -6 7622.93 521.964   1
   3   7   6 8416.60 650.699   6
   3   7   7 1.92804 89.4603   2
  -3  -7  -7 208.413 107.614   1
   3   7   7 432.171 188.133   6
  -3  -7  -7 385.416 181.076  10
  -3  -7  -7 459.624 179.974   5
  -3  -7  -7 222.533 123.539  12
  -3  -7  -7 509.865 151.624  11
   3   7   8 569.985 192.886   2
   3   7   8 1090.05 275.469   6
  -3  -7  -8 1035.60 253.979  10
  -3  -7  -8 1042.95 225.388  11
  -3  -7  -8 880.452 257.531   5
  -3  -7  -8 635.933 219.677  12
  -3  -7  -9 32879.1 1437.12  10
   3   7   9 31945.8 1393.51   2
  -3  -7  -9 33995.3 1547.45   5
   3   7   9 33535.9 1526.81   6
  -3  -7  -9 32386.1 1270.66  11
  -3  -7  -9 31758.2 1403.40  12
   3   7  10 2040.74 348.474   2
  -3  -7 -10 2403.87 396.378  10
  -3  -7 -10 1924.50 348.557  12
  -3  -8   0 16392.8 958.416  10
  -3  -8   0 16312.3 1038.00   1
  -3  -8  -1 75416.7 2093.66  10
   3   8   1 80246.8 2333.44   8
  -3  -8  -1 77191.4 2138.65   1
   3   8   2 26992.5 1079.94   6
  -3  -8  -2 27450.1 1247.88  10
  -3  -8  -2 28024.0 1207.77   1
   3   8   2 27631.8 1315.21   8
  -3  -8  -3 17170.1 980.553  10
   3   8   3 17018.8 996.087   2
   3   8   3 16985.3 1001.77   8
  -3  -8  -3 16429.5 874.186   1
  -3  -8  -3 17424.9 987.921  12
   3   8   3 17634.8 892.036   6
   3   8   4 26.1392 106.762   2
  -3  -8  -4 97.2862 138.273  12
   3   8   4 153.754 128.009   6
  -3  -8  -4 14.4605 115.228  10
  -3  -8  -4 93.3278 102.300   1
   3   8   4 147.415 160.671   8
  -3  -8  -5 6714.48 632.795  10
   3   8   5 6147.18 616.963   2
   3   8   5 6312.71 578.738   6
  -3  -8  -5 6369.11 614.084  12
  -3  -8  -5 6155.63 496.563   1
  -3  -8  -6 127998. 2775.74  10
   3   8   6 131356. 2845.28   2
  -3  -8  -6 126520. 2620.50   5
  -3  -8  -6 126053. 2743.20  12
   3   8   6 130197. 2680.01   6
  -3  -8  -7 127683. 2801.27  10
   3   8   7 126510. 2835.08   2
  -3  -8  -7 124707. 2738.04   5
  -3  -8  -7 129552. 2813.40  12
   3   8   7 126888. 2760.53   6
   3   8   8 272.222 171.417   2
   3   8   8 143.602 144.452   6
  -3  -8  -8 91.1233 99.3345  10
  -3  -8  -8 206.231 180.662   5
  -3  -8  -8 10.2202 100.668  12
  -3  -8  -9 10381.1 842.655  10
   3   8   9 11793.4 889.647   2
  -3  -8  -9 11154.4 868.374  12
  -3  -9  -1 13421.9 910.018   1
  -3  -9  -2 867.774 232.767   1
  -3  -9  -2 829.950 251.253  10
  -3  -9  -3 17270.1 1075.12  10
   3   9   3 18176.2 1104.53   2
   3   9   3 17854.2 1118.16   8
  -3  -9  -3 18392.2 1098.77  12
   3   9   3 18015.3 959.601   6
  -3  -9  -4 12962.7 927.463  10
   3   9   4 13231.2 948.471   2
  -3  -9  -4 13663.3 948.923  12
   3   9   4 13361.6 946.004   8
   3   9   4 12045.4 812.566   6
  -3  -9  -5 49552.6 1809.19  10
   3   9   5 49899.5 1836.81   2
  -3  -9  -5 49156.5 1598.31   5
  -3  -9  -5 48826.2 1791.74  12
   3   9   5 49679.6 1786.97   8
   3   9   5 48157.3 1682.36   6
  -3  -9  -6 37840.1 1606.64  10
   3   9   6 38761.5 1564.53   6
   3   9   6 40187.0 1682.06   2
  -3  -9  -6 39985.7 1524.08   5
  -3  -9  -6 39154.8 1627.36  12
  -3  -9  -7 5330.31 588.722   5
   3   9   7 5383.25 615.812   6
  -3  -9  -8 28.1536 150.239   5
   3  10   5 288.309 149.684   6
   4  -9  -3 12069.0 867.753  10
   4  -9  -3 11743.6 866.089   9
  -4   9   2 1005.19 288.066   2
  -4   9   2 999.365 285.668  10
   4  -9  -2 1051.68 287.155  10
   4  -9  -2 960.319 267.527   9
  -4   9   1 23420.4 1254.58   2
  -4   9   0 36146.7 1471.02   2
   4  -8  -5 3039.85 423.947   5
   4  -8  -4 9200.74 684.144  10
   4  -8  -4 9488.68 688.638   5
   4  -8  -4 9153.05 686.674   9
  -4   8   4 7980.85 738.975   6
   4  -8  -3 5208.59 546.068  10
   4  -8  -3 5509.28 568.443   9
  -4   8   3 5216.14 608.969   2
  -4   8   3 5603.23 613.993   6
  -4   8   3 5505.69 557.307  10
   4  -8  -2 13964.5 903.545  10
   4  -8  -2 14475.3 933.013   9
  -4   8   2 14773.1 981.723   2
  -4   8   2 13931.2 914.869  10
  -4   8   2 14933.3 984.841   6
  -4   8   1 54.5829 129.379   2
  -4   8   1 78.2010 136.380   6
  -4   8   1 162.790 139.955  10
   4  -8  -1 106.207 123.304   9
   4  -8   0 42118.4 1659.62   9
  -4   8   0 43898.1 1592.50   2
  -4   8   0 45999.6 1746.77   6
  -4   8   0 43826.5 1685.55  10
  -4   8  -1 27256.7 1378.74   6
   4  -8   1 27740.3 1383.25   9
  -4   8  -1 26009.6 1171.10   2
  -4   8  -1 27978.5 1381.03  10
  -4   7   6 30282.4 1378.78   6
   4  -7  -5 26960.1 1291.50   5
  -4   7   5 28752.9 1444.91   2
  -4   7   5 28276.8 1326.44   6
   4  -7  -4 31411.3 1281.58   5
   4  -7  -4 32356.0 1211.68   9
  -4   7   4 32487.9 1475.89   2
  -4   7   4 32030.1 1387.08   6
   4  -7  -3 8381.28 626.164  10
   4  -7  -3 9595.13 653.228   5
   4  -7  -3 9400.16 683.934   9
  -4   7   3 9684.78 783.714   2
  -4   7   3 8529.35 640.296  10
  -4   7   3 8841.65 711.471   6
  -4   7   2 167.640 128.961   6
  -4   7   2 181.324 136.781   2
  -4   7   2 435.020 162.077  10
   4  -7  -2 343.451 131.513   5
   4  -7  -2 142.370 128.459   9
  -4   7   1 30250.7 1311.74   6
   4  -7  -1 29481.5 1259.14   9
  -4   7   1 30567.0 1292.81   2
  -4   7   1 29813.6 1256.25  10
  -4   7   0 140185. 2833.14   6
  -4   7   0 139201. 2789.46  10
   4  -7   0 140662. 2827.17   9
  -4   7   0 138189. 2639.56   2
  -4   7  -1 23144.7 1183.00   6
   4  -7   1 23272.2 1174.41   9
  -4   7  -1 22978.5 1028.85   2
  -4   7  -1 25356.2 1220.46  10
  -4   7  -2 2823.24 438.918   6
  -4   7  -2 2281.87 377.085  10
   4  -7   2 2584.82 413.593   9
  -4   7  -2 2568.41 337.596   2
  -4   7  -3 328.053 164.426   3
  -4   7  -3 536.328 223.790   6
  -4   7  -3 396.447 176.738  10
   4  -7   3 122.888 137.942   9
   4  -7   4 5974.96 645.431   9
  -4   6   6 34492.8 1568.69   2
  -4   6   6 33800.3 1377.29   6
  -4   6   5 2274.45 389.730   2
   4  -6  -5 2480.99 403.321   5
  -4   6   5 2825.20 401.914   6
   4  -6  -4 40190.1 1445.65   5
   4  -6  -4 40512.2 1237.43   9
  -4   6   4 39875.4 1575.38   2
  -4   6   4 38600.2 1420.38   6
   4  -6  -3 4614.44 419.509  10
   4  -6  -3 4955.22 470.686   5
   4  -6  -3 5116.55 463.179   9
  -4   6   3 4835.83 529.906   2
  -4   6   3 4248.92 411.971  10
  -4   6   3 4353.83 469.899   6
   4  -6  -2 48150.3 1319.26   5
   4  -6  -2 45632.5 1408.29   9
  -4   6   2 45326.0 1565.35   2
  -4   6   2 45293.8 1380.71  10
  -4   6   2 47184.4 1523.15   6
   4  -6  -1 12841.5 774.670   9
  -4   6   1 12282.4 783.179   2
  -4   6   1 12928.6 797.959   6
  -4   6   1 11691.4 726.252  10
   4  -6   0 16593.2 912.195   9
  -4   6   0 17146.2 924.734   6
  -4   6   0 16119.9 863.869   2
  -4   6   0 16559.6 890.586  10
  -4   6  -1 32434.0 1301.05   6
   4  -6   1 34243.2 1333.82   9
  -4   6  -1 33172.6 1174.84   2
  -4   6  -1 32564.4 1294.19  10
  -4   6  -2 5714.82 569.713   6
   4  -6   2 6098.07 584.405   9
  -4   6  -2 5930.17 471.807   2
  -4   6  -2 5869.09 576.860  10
  -4   6  -3 636.411 211.910   3
  -4   6  -3 732.204 233.098   6
  -4   6  -3 1065.45 267.345  10
   4  -6   3 641.692 207.262   9
  -4   6  -4 9461.22 776.707  10
   4  -6   4 9221.85 753.578   9
  -4   6  -4 8722.97 615.822   8
  -4   6  -4 8851.24 761.194   3
   4  -6   5 73843.9 2165.35   9
  -4   6  -5 73980.2 2335.05   3
  -4   6  -5 75106.9 2295.87  10
   4  -6   6 127385. 2791.64   9
  -4   5   6 596.926 185.990   6
  -4   5   6 658.610 233.811   2
   4  -5  -6 333.790 149.866   5
  -4   5   6 1009.37 248.441   4
  -4   5   6 926.613 274.015   7
   4  -5  -5 41051.3 1557.75   5
  -4   5   5 42206.4 1408.22   4
  -4   5   5 40983.2 1585.95   2
  -4   5   5 39457.5 1486.97   7
  -4   5   5 41035.0 1417.28   6
   4  -5  -4 130690. 2619.62   5
   4  -5  -4 137340. 2057.30   9
  -4   5   4 134866. 2782.74   2
  -4   5   4 137811. 2267.66   4
  -4   5   4 135306. 2457.31   6
   4  -5  -3 97588.8 1689.96  10
   4  -5  -3 95038.1 2060.54   5
   4  -5  -3 95042.8 1800.82   9
  -4   5   3 99701.6 1729.17   4
  -4   5   3 94768.2 2244.55   2
  -4   5   3 96126.2 1702.59  10
  -4   5   3 93464.7 1994.73   6
  -4   5   2 1460.93 254.253   6
   4  -5  -2 1556.40 251.273   5
  -4   5   2 1625.13 296.531   2
   4  -5  -2 1488.95 251.911   9
  -4   5   2 1484.77 233.141  10
   4  -5  -1 49521.1 1210.31   5
   4  -5  -1 49659.7 1406.37   9
  -4   5   1 50029.0 1498.46   2
  -4   5   1 50719.9 790.706  11
  -4   5   1 49631.4 1361.13  10
  -4   5   1 48064.0 1421.94   6
  -4   5   0 1762.21 285.709   6
  -4   5   0 1697.46 275.416   2
   4  -5   0 1684.48 278.001   9
  -4   5   0 2246.49 201.393   5
   4  -5   0 2063.50 170.204   1
  -4   5   0 1966.87 147.451  11
  -4   5   0 1701.35 270.363  10
  -4   5  -1 66469.7 1739.12   6
  -4   5  -1 65755.0 1578.92   2
   4  -5   1 65882.7 1741.68   9
  -4   5  -1 69571.9 968.025   5
  -4   5  -1 69142.2 996.805  11
  -4   5  -1 67653.0 1718.90  10
  -4   5  -2 144569. 2646.12   6
   4  -5   2 147150. 2669.63   9
  -4   5  -2 150256. 2218.54   2
  -4   5  -2 153333. 1732.11  11
  -4   5  -2 146161. 2627.97  10
  -4   5  -3 1107.66 246.642   3
  -4   5  -3 1071.39 180.666   2
  -4   5  -3 1420.40 279.597   6
  -4   5  -3 1072.49 242.684  10
   4  -5   3 1122.69 254.984   9
  -4   5  -3 1236.52 190.675  11
   4  -5   4 41666.4 1477.18   9
  -4   5  -4 41701.8 1528.24   3
  -4   5  -4 42524.9 1534.97  10
  -4   5  -4 42582.8 1201.13  11
   4  -5   5 8926.10 714.274   9
  -4   5  -5 9527.96 779.251   3
  -4   5  -5 9204.62 629.400  11
  -4   5  -5 9233.49 749.570  10
   4  -5   6 2782.90 411.352   9
  -4   5  -6 3457.46 506.776   3
  -4   5  -6 3738.84 438.836  11
  -4   5  -6 3818.06 515.823  10
  -4   4   7 890.390 247.229   2
   4  -4  -6 11974.6 820.781  11
   4  -4  -6 10872.4 869.423   5
  -4   4   6 10978.3 814.675   4
  -4   4   6 9440.83 790.617   7
  -4   4   6 10990.3 828.803   2
   4  -4  -5 59472.5 1888.72   5
  -4   4   5 57518.6 1779.01   7
  -4   4   5 56710.7 1687.06   4
   4  -4  -5 59592.5 1659.92  11
  -4   4   5 58852.3 1833.19   2
  -4   4   5 57293.5 1579.32   6
   4  -4  -4 70036.0 1905.51   5
  -4   4   4 69191.1 1785.50   7
  -4   4   4 71684.1 1721.19   4
  -4   4   4 70750.2 1943.96   2
  -4   4   4 72507.9 1679.84   6
   4  -4  -3 7188.20 392.526  10
  -4   4   3 7515.09 343.703   1
   4  -4  -3 6881.29 563.671   5
   4  -4  -3 7208.44 454.188   9
  -4   4   3 7028.83 492.842   4
  -4   4   3 6836.88 511.771   7
  -4   4   3 6330.85 565.161   2
  -4   4   3 6873.45 502.302   6
   4  -4  -2 190065. 2684.30   5
   4  -4  -2 187676. 2434.63   9
  -4   4   2 185563. 2369.39   7
  -4   4   2 193530. 1508.04   1
  -4   4   2 184746. 2889.61   2
  -4   4   2 190787. 2202.79  10
  -4   4   2 186666. 2547.12   6
   4  -4  -1 31619.2 997.348   5
   4  -4  -1 29314.6 1008.93   9
  -4   4   1 30085.7 590.058   1
   4  -4  -1 30290.7 791.150   7
  -4   4   1 30011.5 730.037  11
  -4   4   1 29618.4 1105.99   2
  -4   4   1 30110.3 936.049  10
  -4   4   1 29861.2 1018.75   6
  -4   4   0 185462. 2552.34   6
  -4   4   0 187668. 1679.95   1
   4  -4   0 191730. 2653.23   9
   4  -4   0 188686. 1645.74   1
   4  -4   0 186655. 1738.67   7
  -4   4   0 190391. 1739.52  11
  -4   4   0 187676. 2654.23   2
  -4   4   0 184052. 2468.25  10
  -4   4  -1 20856.5 886.843   6
  -4   4  -1 21852.0 605.762   5
   4  -4   1 20738.9 902.118   9
   4  -4   1 21403.3 517.499   7
  -4   4  -1 20379.3 828.741   2
  -4   4  -1 21153.3 877.189  10
   4  -4   1 21786.2 652.849   1
  -4   4  -2 3350.56 379.324   6
  -4   4  -2 3104.84 189.960   5
   4  -4   2 2642.12 341.537   9
  -4   4  -2 2878.47 293.739   2
  -4   4  -2 2775.59 242.688  11
  -4   4  -2 2927.68 351.761  10
  -4   4  -3 95817.3 2072.33   6
  -4   4  -3 95058.2 763.212   5
   4  -4   3 96428.0 2050.54   9
  -4   4  -3 94780.9 2045.44   3
  -4   4  -3 99532.7 1581.61   2
  -4   4  -3 97738.5 1607.08  11
  -4   4  -3 98295.9 2094.47  10
  -4   4  -4 60853.9 1732.45   3
   4  -4   4 62657.0 1699.19   9
  -4   4  -4 62885.4 1093.59   2
  -4   4  -4 62071.1 1418.75  11
  -4   4  -4 59663.4 1722.69  10
  -4   4  -5 35682.0 1402.35   3
   4  -4   5 34346.0 1290.34   9
  -4   4  -5 37538.8 1010.73   8
  -4   4  -5 34219.2 1179.94  11
  -4   4  -5 33445.5 1347.43  10
   4  -4   6 267705. 3731.66   9
  -4   4  -6 270028. 4104.97   3
  -4   4  -6 269756. 3643.67  11
  -4   4  -6 274131. 3997.06  10
   4  -4   7 17641.4 950.075   9
  -4   4  -7 17781.4 1137.87   3
  -4   4  -7 16801.9 983.963  11
  -4   4  -7 17891.3 1077.95  10
   4  -3  -6 8527.43 774.638   5
   4  -3  -6 8953.49 741.226  11
  -4   3   6 8875.03 760.376   4
  -4   3   6 8841.36 773.360   7
  -4   3   6 9094.48 734.110   2
  -4   3   5 2311.12 291.262   1
   4  -3  -5 2284.29 379.351   5
  -4   3   5 2295.16 367.731   4
  -4   3   5 1969.73 332.404   7
  -4   3   5 2330.60 359.336   2
   4  -3  -5 1945.68 319.419  11
  -4   3   5 2357.64 301.490   6
  -4   3   4 201393. 3152.56   2
  -4   3   4 209616. 2488.77   1
   4  -3  -4 205394. 3297.57   5
  -4   3   4 197364. 3012.72   4
   4  -3  -4 204196. 2953.31  11
  -4   3   4 205181. 2601.08   6
  -4   3   4 200244. 3028.74   7
   4  -3  -3 131623. 1243.68  10
   4  -3  -3 123856. 2384.72   5
   4  -3  -3 127452. 1736.78   9
  -4   3   3 126778. 2209.34   4
  -4   3   3 124245. 2172.23   7
  -4   3   3 132098. 1747.68   1
  -4   3   3 128496. 2430.22   2
  -4   3   3 127574. 1945.37   6
   4  -3  -2 46799.5 875.348  10
   4  -3  -2 44638.0 1318.22   5
   4  -3  -2 46054.4 1103.60   9
  -4   3   2 46019.6 932.020   1
  -4   3   2 45960.4 1174.20   7
  -4   3   2 45212.0 908.501  10
  -4   3   2 44013.5 1364.74   2
  -4   3   2 45492.0 1130.46   6
   4  -3  -1 4608.87 304.659  10
   4  -3  -1 4346.91 361.756   9
  -4   3   1 4489.68 322.511   7
  -4   3   1 4725.13 321.622  11
  -4   3   1 4820.83 281.922   1
  -4   3   1 4305.04 312.124  10
  -4   3   1 4357.25 412.133   2
  -4   3   1 4751.42 369.609   6
  -4   3   0 12212.6 595.871   6
   4  -3   0 12525.3 632.077   9
  -4   3   0 12869.1 469.170   1
   4  -3   0 12759.5 428.499   7
  -4   3   0 12436.2 492.000  11
   4  -3   0 12527.6 450.911   1
  -4   3   0 11935.3 646.212   2
  -4   3   0 12051.5 562.611  10
   4  -3   1 87.0630 34.3933   7
  -4   3  -1 36.3122 77.2750   6
  -4   3  -1 233.038 108.980  10
  -4   3  -1 181.447 116.445   2
   4  -3   1 89.7715 60.8567   1
   4  -3   1 47.8240 66.3826   9
  -4   3  -2 295493. 3182.34   6
  -4   3  -2 309719. 2190.16   5
   4  -3   2 304452. 3293.66   9
   4  -3   2 294681. 1156.68   7
  -4   3  -2 299695. 2837.62   2
  -4   3  -2 300141. 3225.11  10
   4  -3   3 15869.3 780.297   9
   4  -3   3 14840.9 335.690   7
  -4   3  -3 14483.5 733.387   3
  -4   3  -3 14912.8 583.879   2
  -4   3  -3 14749.2 755.427  10
   4  -3   4 88728.0 1096.34   7
  -4   3  -4 82515.1 1860.38   3
  -4   3  -4 86348.0 1220.88   2
  -4   3  -4 80199.3 1876.78  10
  -4   3  -4 85151.9 1661.51  11
   4  -3   5 2725.82 348.346   9
  -4   3  -5 3288.64 224.984   5
  -4   3  -5 3103.75 248.689   8
   4  -3   5 2522.52 230.353   7
  -4   3  -5 2644.87 368.919   3
  -4   3  -5 2522.40 320.453  11
  -4   3  -5 2358.40 350.714  10
   4  -3   6 12721.4 746.536   9
   4  -3   6 13138.6 615.551   7
  -4   3  -6 12743.7 839.081   3
  -4   3  -6 11383.7 731.119  11
  -4   3  -6 12831.7 824.034  10
   4  -3   7 6616.94 560.857   9
  -4   3  -7 6532.19 653.014   3
  -4   3  -7 7166.10 637.815  11
  -4   3  -7 6441.32 612.574  10
  -4   3  -8 2563.45 416.011  11
  -4   3  -8 3059.31 452.090  10
   4  -2  -6 15642.9 1052.64   5
  -4   2   6 17158.9 1085.95   4
  -4   2   6 16477.1 1061.06   7
   4  -2  -6 15484.5 1017.54  11
  -4   2   6 16122.9 938.134   2
  -4   2   6 16587.4 913.695   1
   4  -2  -5 40458.7 1561.31   5
  -4   2   5 38566.7 1487.55   4
  -4   2   5 37919.5 1454.29   7
   4  -2  -5 39213.7 1470.59  11
  -4   2   5 41469.7 1358.99   1
  -4   2   5 38323.1 1398.38   2
   4  -2  -4 28796.0 1245.49   5
  -4   2   4 29805.9 1042.44   1
  -4   2   4 27361.9 1164.39   4
  -4   2   4 27684.9 1141.10   7
   4  -2  -4 28115.0 1157.38  11
  -4   2   4 29733.9 907.182   6
  -4   2   4 27339.4 1127.32   2
   4  -2  -3 15218.1 845.937   5
  -4   2   3 14462.1 651.182   1
   4  -2  -3 14394.2 545.245   9
  -4   2   3 14353.2 780.481   4
  -4   2   3 14310.8 748.544   7
   4  -2  -3 14173.5 758.502  11
  -4   2   3 14979.2 592.947   6
  -4   2   3 14210.7 785.948   2
  -4   2   2 10913.4 654.432   2
   4  -2  -2 10416.6 308.951  10
   4  -2  -2 10701.4 652.660   5
   4  -2  -2 10671.6 313.234  10
   4  -2  -2 10092.8 491.128   9
  -4   2   2 10487.6 568.172   7
   4  -2  -2 10688.4 311.600  12
   4  -2  -2 10983.1 464.159   6
  -4   2   2 10316.0 507.147   1
  -4   2   2 11079.3 324.656  10
  -4   2   2 10481.3 476.252   6
   4  -2  -1 327.761 92.9615   6
  -4   2   1 257.801 87.6970   6
   4  -2  -1 426.052 87.7591  10
   4  -2  -1 327.638 106.861   9
  -4   2   1 392.468 102.418   1
  -4   2   1 350.322 99.5512   7
   4  -2   0 1099.80 147.940  10
   4  -2   0 682.474 127.571   6
  -4   2   0 672.556 127.583   6
   4  -2   0 673.413 117.136   1
   4  -2   0 649.886 145.615   9
  -4   2   0 730.428 111.559   7
  -4   2   0 760.840 135.430  11
  -4   2   0 1187.90 157.326   1
  -4   2   0 890.904 143.631  10
   4  -2   1 2676.46 251.524  10
  -4   2  -1 724.380 142.604   6
  -4   2  -1 1516.67 183.251   5
  -4   2  -1 580.588 132.464  10
  -4   2  -1 391.457 105.053   1
   4  -2   1 651.609 153.090   9
   4  -2   1 766.039 129.887   1
  -4   2  -1 410.976 98.5489   8
   4  -2   1 2998.39 262.115   6
  -4   2  -2 26704.7 866.318   6
   4  -2   2 27519.6 922.255   9
  -4   2  -2 25917.6 796.423   1
   4  -2   2 28648.8 805.374   1
  -4   2  -2 26721.5 877.495  10
  -4   2  -3 153488. 2254.13  10
  -4   2  -3 151933. 2122.22   1
   4  -2   3 155699. 2260.93   9
  -4   2  -3 151907. 2132.33   3
  -4   2  -4 27199.4 1009.96  10
   4  -2   4 26464.2 966.539   9
   4  -2   4 27317.8 520.543   7
  -4   2  -4 26039.9 951.331   3
  -4   2  -4 25192.0 893.958  11
  -4   2  -4 26106.0 667.354   2
  -4   2  -5 4848.69 219.417   2
   4  -2   5 4992.42 434.911   9
  -4   2  -5 5148.46 331.552   5
  -4   2  -5 5105.96 240.156   8
   4  -2   5 4971.64 296.508   7
  -4   2  -5 4434.46 434.957   3
  -4   2  -5 4742.22 219.691   2
  -4   2  -5 4681.00 428.497  11
  -4   2  -5 4730.99 457.987  10
   4  -2   6 31697.7 1100.70   9
  -4   2  -6 31623.0 887.078   5
   4  -2   6 33351.2 914.400   7
  -4   2  -6 29957.0 1201.06   3
  -4   2  -6 30757.2 1178.78  11
  -4   2  -6 30320.4 1208.43  10
   4  -2   7 65426.7 1628.62   9
   4  -2   7 71674.7 1559.30   7
  -4   2  -7 66263.8 1929.82   3
  -4   2  -7 66554.8 1881.37  11
  -4   2  -7 67689.5 1877.94  10
  -4   2  -8 26039.6 1325.17   3
  -4   2  -8 26147.0 1283.52  11
  -4   2  -8 26916.6 1262.98  10
  -4   2  -9 37174.2 1483.77  10
   4  -1  -6 21308.5 1223.05   5
   4  -1  -6 22081.4 1250.66  11
   4  -1  -5 252.014 124.471   5
  -4   1   5 386.613 147.673   2
  -4   1   5 610.575 227.134   4
  -4   1   5 370.375 185.718   7
   4  -1  -5 327.317 157.696  11
   4  -1  -4 167985. 2998.21   5
  -4   1   4 163321. 2938.40   4
  -4   1   4 163815. 2847.79   7
   4  -1  -4 162266. 2881.42  11
  -4   1   4 170158. 2723.34   1
  -4   1   4 163520. 2712.81   2
   4  -1  -3 71341.5 1839.43   5
   4  -1  -3 76869.5 1223.77   9
  -4   1   3 71650.4 1815.18   4
  -4   1   3 76242.9 1668.01   1
  -4   1   3 70107.1 1699.71   7
   4  -1  -3 74928.7 1827.85  11
  -4   1   3 76466.9 1172.81   6
  -4   1   2 575.468 102.793   6
  -4   1   2 692.601 158.949   1
  -4   1   2 466.484 104.497   9
   4  -1  -2 432.494 104.616   9
  -4   1   2 785.940 170.605   7
   4  -1  -1 275653. 1607.13  10
   4  -1  -1 276602. 2565.69   9
  -4   1   1 275341. 2595.58   7
   4  -1  -1 278468. 1599.35  12
  -4   1   1 277565. 2668.44   1
   4  -1  -1 276414. 1902.81   6
  -4   1   1 276138. 1637.21  10
  -4   1   1 274249. 1945.34   6
  -4   1   0 50426.9 872.470   6
   4  -1   0 50706.3 858.259  10
  -4   1   0 48419.3 962.366   3
   4  -1   0 51199.7 1133.64   9
  -4   1   0 50472.2 1081.37   1
  -4   1   0 47507.2 909.184   7
   4  -1   0 50100.2 853.116  12
   4  -1   0 53963.6 1089.86   1
   4  -1   0 50864.2 845.807   6
  -4   1   0 49865.8 883.861  10
  -4   1  -1 187935. 1945.16  10
   4  -1   1 193234. 1905.65  10
  -4   1  -1 186202. 1837.56   6
   4  -1   1 188309. 2232.57   9
  -4   1  -1 194902. 2028.73   8
  -4   1  -1 193373. 1328.68   7
   4  -1   1 192246. 1893.35  12
   4  -1   1 194917. 2037.83   1
  -4   1  -1 182045. 2026.13   1
   4  -1   1 188553. 1801.52   6
  -4   1  -2 225325. 2354.16  10
   4  -1   2 231991. 2210.89   6
   4  -1   2 237738. 2342.33   1
   4  -1   2 222956. 2497.60   9
  -4   1  -2 232874. 1946.08   8
  -4   1  -2 224673. 2353.74   1
  -4   1  -3 885.574 156.144   3
  -4   1  -3 693.779 147.269   1
  -4   1  -3 756.345 162.432  10
   4  -1   3 702.394 153.528   9
  -4   1  -3 975.346 108.912   8
  -4   1  -4 263771. 2988.14  10
  -4   1  -4 257731. 2953.15   1
   4  -1   4 258607. 2820.90   9
  -4   1  -4 257807. 1328.76   8
  -4   1  -4 260857. 2718.07   3
  -4   1  -5 297.062 67.2977   2
  -4   1  -5 217.794 110.712   3
  -4   1  -5 506.857 155.722  10
   4  -1   5 239.413 116.913   9
   4  -1   5 416.541 93.6228   7
  -4   1  -5 222.969 118.038  11
  -4   1  -6 433.239 157.122   3
  -4   1  -6 312.227 149.353  10
   4  -1   6 299.513 120.140   9
  -4   1  -6 445.825 126.319   5
   4  -1   6 647.454 135.919   7
  -4   1  -6 274.240 147.901  11
  -4   1  -7 220240. 3259.93  10
   4  -1   7 222608. 2801.05   9
  -4   1  -7 225134. 2746.52   5
   4  -1   7 231207. 2712.63   7
  -4   1  -7 222483. 3357.83   3
  -4   1  -7 220104. 3352.14  11
  -4   1  -8 4790.21 514.802  10
   4  -1   8 5383.59 473.227   7
  -4   1  -8 5273.75 455.656   5
  -4   1  -8 5617.54 583.580  11
  -4   1  -8 4588.37 529.285   3
  -4   1  -9 40676.2 1699.11  11
  -4   1  -9 41745.0 1723.88   3
  -4   1  -9 41852.2 1567.18  10
   4   0  -6 18654.0 1073.29   3
   4   0  -5 22992.5 1118.81   3
  -4   0   5 22481.8 1214.29   4
   4   0  -5 21785.3 1178.04   8
  -4   0   5 21561.8 1161.30   7
   4   0  -5 21148.3 1173.65  11
  -4   0   5 22652.4 1034.33   2
   4   0  -4 38405.4 1306.68   3
  -4   0   4 40450.2 1514.97   4
   4   0  -4 39143.4 1463.83   8
  -4   0   4 39538.9 1440.76   7
   4   0  -4 39801.7 1490.66  11
   4   0  -3 2132.61 282.762   3
   4   0  -3 2332.77 344.884   8
  -4   0   3 2220.32 317.940   1
  -4   0   3 1767.97 306.800   4
  -4   0   3 2525.48 344.991   7
   4   0  -3 2222.85 340.050  11
  -4   0   3 2383.26 172.253   6
  -4   0   2 59897.5 1099.34   9
   4   0  -2 59361.1 1175.13   9
  -4   0   2 59242.0 1472.68   1
   4   0  -2 59666.2 1577.50   8
  -4   0   2 58545.7 1451.45   7
  -4   0   2 61257.8 687.846   6
  -4   0   1 9432.51 226.686   6
  -4   0   1 9047.00 528.495   1
   4   0  -1 9218.39 234.425  10
   4   0  -1 9167.85 469.401   9
   4   0  -1 9316.83 578.436   8
  -4   0   1 9082.96 430.002   3
  -4   0   1 8852.55 232.477  10
  -4   0   0 75574.7 980.472  10
   4   0   0 77375.1 966.990  10
   4   0   0 74217.1 1359.40   9
   4   0   0 74996.8 1478.93   8
  -4   0   0 74789.3 1425.26   1
   4   0   0 76476.6 954.924  12
   4   0   0 75495.2 727.240   6
  -4   0   0 75625.5 1082.64   3
  -4   0  -1 139314. 1561.29  10
   4   0   1 137289. 1519.09  10
   4   0   1 144815. 1841.76   1
  -4   0  -1 134652. 1852.95   1
   4   0   1 135991. 1862.70   9
   4   0   1 141453. 1521.91  12
  -4   0  -1 140977. 1753.75   8
   4   0   1 136828. 1794.87   8
   4   0   1 133896. 1235.88   6
  -4   0  -2 70040.8 1251.97  10
   4   0   2 73448.4 1098.53   6
   4   0   2 74247.9 1245.09  10
   4   0   2 72536.0 1389.33   9
  -4   0  -2 73905.9 1099.59   8
   4   0   2 72202.7 1119.36   8
   4   0   2 74613.4 1238.60  12
  -4   0  -2 70066.6 1339.03   1
  -4   0  -3 22659.2 777.968  10
   4   0   3 22342.2 704.085   6
   4   0   3 21480.2 771.110   9
  -4   0  -3 22305.9 495.152   8
  -4   0  -3 22049.4 794.340   1
  -4   0  -3 22370.0 376.573   7
  -4   0  -3 21854.4 600.573   3
  -4   0  -4 80679.1 1595.11  10
   4   0   4 81969.3 1540.12   9
  -4   0  -4 81900.4 1617.54   1
  -4   0  -4 83348.7 904.326   7
  -4   0  -4 83065.5 1371.84   3
  -4   0  -5 5069.89 434.255  10
  -4   0  -5 4891.47 290.756   2
  -4   0  -5 5196.49 447.535   1
   4   0   5 5495.64 411.895   9
  -4   0  -5 5015.85 386.067   3
  -4   0  -6 36390.9 1221.04  10
   4   0   6 36148.9 1068.64   9
  -4   0  -6 37634.8 1102.81   5
  -4   0  -6 36919.1 703.712   2
   4   0   6 37280.7 934.504   7
  -4   0  -6 35182.3 1141.77   3
  -4   0  -6 35052.7 1229.80  11
  -4   0  -7 10840.2 711.943  10
   4   0   7 10072.8 570.348   9
  -4   0  -7 10034.7 610.346   5
   4   0   7 9928.27 561.089   7
  -4   0  -7 10509.4 731.611  11
  -4   0  -7 10569.3 697.424   3
  -4   0  -8 29247.0 1221.84  10
   4   0   8 29838.8 1092.52   7
  -4   0  -8 28404.8 1111.07   5
   4   0   8 29260.1 982.408   9
  -4   0  -8 28106.4 1270.82  11
  -4   0  -8 29073.0 1257.54   3
  -4   0  -9 40775.7 1523.71  10
  -4   0  -9 40923.4 1395.89   5
   4   0   9 40813.5 1398.44   7
  -4   0  -9 39936.0 1639.04  11
  -4   0  -9 38248.6 1577.03   3
   4   1  -5 15543.2 927.967   3
  -4  -1   5 15142.6 1040.73   4
   4   1  -5 15192.4 1016.16   8
  -4  -1   5 14543.8 999.701   7
   4   1  -5 15814.8 1046.71  11
   4   1  -4 1575.39 273.202   3
   4   1  -4 1621.38 315.618   8
  -4  -1   4 1436.39 304.099   4
  -4  -1   4 1613.21 320.989   7
   4   1  -4 1307.09 285.919  11
   4   1  -3 66938.5 1570.04   3
   4   1  -3 64819.2 1806.70   8
  -4  -1   3 64113.5 1828.94   4
  -4  -1   3 62282.9 1740.48   7
   4   1  -3 64457.6 1848.07  11
  -4  -1   3 67040.5 1835.74   1
   4   1  -2 110967. 1792.36   3
   4   1  -2 111315. 2230.38   8
  -4  -1   2 112797. 2243.44   4
  -4  -1   2 115853. 2224.54   1
  -4  -1   1 67644.7 718.218  10
   4   1  -1 67553.6 1202.83   3
  -4  -1   1 67466.3 1574.24   1
   4   1  -1 66680.0 1335.37   9
   4   1  -1 66557.3 1589.69   8
  -4  -1   1 66728.7 710.721  12
  -4  -1   1 67693.2 1152.55   3
  -4  -1   1 64456.2 721.500  10
  -4  -1   0 18434.2 490.570  10
   4   1   0 19009.6 497.226  10
   4   1   0 18923.7 709.231   9
   4   1   0 17237.7 744.032   8
  -4  -1   0 18519.5 489.924  12
  -4  -1   0 18214.5 497.187   3
  -4  -1   0 18210.2 762.934   1
  -4  -1  -1 68713.1 1090.80  10
   4   1   1 67824.9 1065.68  10
   4   1   1 67007.9 1334.53   9
  -4  -1  -1 69196.3 1408.22   1
   4   1   1 69247.6 1338.68   8
  -4  -1  -1 67992.5 1084.40  12
   4   1   1 67647.0 1067.98  12
  -4  -1  -1 69772.1 707.400   3
   4   1   1 68163.6 642.542   6
  -4  -1  -2 14519.9 563.941  10
   4   1   2 14635.3 435.640   6
   4   1   2 15242.2 559.466  10
  -4  -1  -2 14911.9 652.334   1
   4   1   2 14681.4 628.772   9
  -4  -1  -2 14714.3 523.543   8
   4   1   2 14575.7 537.901   8
  -4  -1  -2 14371.0 272.636   3
  -4  -1  -2 14760.4 566.429  12
   4   1   2 15534.7 558.116  12
  -4  -1  -3 3346.29 297.500  10
   4   1   3 2690.03 280.201   9
  -4  -1  -3 3092.26 203.373   8
   4   1   3 2950.37 202.318   8
  -4  -1  -3 3247.36 182.870   3
  -4  -1  -3 3547.56 330.936   1
  -4  -1  -3 3668.62 310.275  12
  -4  -1  -4 791.974 169.337  10
  -4  -1  -4 956.617 153.494   2
   4   1   4 908.050 172.332   9
   4   1   4 1239.07 95.1706   8
  -4  -1  -4 1049.30 128.071   7
  -4  -1  -4 1005.56 188.661  12
  -4  -1  -4 906.095 128.599   3
  -4  -1  -5 40735.9 1188.74  10
  -4  -1  -5 43275.0 950.108   2
   4   1   5 41838.8 1096.33   9
  -4  -1  -5 41761.2 1240.57   1
  -4  -1  -5 42924.7 867.944   7
  -4  -1  -5 42974.1 1029.04   3
  -4  -1  -5 40689.3 1183.34  12
  -4  -1  -6 126248. 2238.33  10
  -4  -1  -6 120022. 2252.65   1
   4   1   6 124660. 1917.05   9
  -4  -1  -6 127174. 1553.06   2
  -4  -1  -6 124802. 2211.99  12
  -4  -1  -6 125503. 2009.35   3
  -4  -1  -7 168508. 2741.05  10
   4   1   7 166972. 2237.24   9
  -4  -1  -7 171539. 2631.34   5
   4   1   7 173394. 2354.52   7
  -4  -1  -7 167313. 2858.85  11
  -4  -1  -7 164413. 2593.66   3
  -4  -1  -8 33157.6 1275.02  10
  -4  -1  -8 33584.5 1239.17   5
   4   1   8 35004.7 1032.41   9
   4   1   8 35086.9 1173.28   7
  -4  -1  -8 35035.4 1401.18  11
  -4  -1  -8 32704.2 1270.69   3
  -4  -1  -9 9384.64 714.500  10
  -4  -1  -9 9513.77 710.487   5
  -4  -1  -9 10162.0 808.683  11
  -4  -1  -9 9780.18 773.100   3
   4   1   9 9719.02 687.713   7
  -4  -1 -10 62.7915 152.196  10
  -4  -1 -10-41.3529 106.600   5
   4   1  10 36.0772 88.4496   7
   4   2  -5 6657.37 610.965   3
   4   2  -4 839.201 211.471   3
   4   2  -4 855.399 260.426   8
  -4  -2   4 1009.00 274.421   4
  -4  -2   4 844.027 252.731   7
   4   2  -4 1180.65 287.535  11
   4   2  -3 73926.2 1687.55   3
   4   2  -3 70122.1 1966.99   8
  -4  -2   3 68513.5 1954.65   4
   4   2  -3 71482.1 1998.97  11
   4   2  -2 419.153 116.595   3
  -4  -2   2 66.6212 102.768   1
   4   2  -2 46.2180 112.404   8
  -4  -2   2 4.73167 126.526   4
   4   2  -1 179369. 1985.66   3
  -4  -2   1 185286. 1526.00  10
  -4  -2   1 177579. 2751.59   1
   4   2  -1 173951. 2700.27   8
  -4  -2   1 183100. 1511.66  12
  -4  -2   1 184181. 1885.95   3
  -4  -2   1 178888. 1496.78  10
   4   2   0 66126.4 946.614   3
  -4  -2   0 65037.6 1036.70  10
  -4  -2   0 62778.4 1517.36   1
   4   2   0 65775.6 1024.30  10
   4   2   0 63537.3 1388.15   9
   4   2   0 65198.4 1527.51   8
  -4  -2   0 63356.6 935.822   3
  -4  -2   0 64447.3 1032.54  12
  -4  -2   0 65521.3 1038.70  10
  -4  -2  -1 24196.5 693.435  10
   4   2   1 24300.0 677.545  10
   4   2   1 23445.2 829.562   9
   4   2   1 23728.8 844.189   8
  -4  -2  -1 23205.3 884.441   1
  -4  -2  -1 23827.2 688.080  12
  -4  -2  -2 16819.8 621.979  10
   4   2   2 17356.3 606.742  10
  -4  -2  -2 17016.1 729.108   1
   4   2   2 17227.9 714.466   9
  -4  -2  -2 16936.3 617.409   8
   4   2   2 16852.4 643.808   8
  -4  -2  -2 17441.1 629.251  12
   4   2   2 17450.5 606.690  12
   4   2   2 16543.1 441.421   6
  -4  -2  -3 115440. 1894.73   1
  -4  -2  -3 118387. 1777.84  10
  -4  -2  -3 119427. 1777.23  12
   4   2   3 115599. 1852.03   9
   4   2   3 117170. 1491.75   8
   4   2   3 118423. 1487.27   6
  -4  -2  -4 37267.1 1066.98  10
   4   2   4 36732.0 1037.99   9
   4   2   4 39206.1 721.751   8
   4   2   4 38042.3 675.241   3
  -4  -2  -4 36877.9 1057.92  12
  -4  -2  -4 36256.8 1097.81   1
  -4  -2  -4 37976.2 681.159   3
  -4  -2  -5 420168. 3820.44  10
   4   2   5 427759. 2905.92   3
   4   2   5 421538. 3533.26   9
  -4  -2  -5 416835. 3873.29   1
   4   2   5 423815. 1814.85   8
  -4  -2  -5 412866. 3779.16  12
  -4  -2  -5 420938. 3030.92   7
  -4  -2  -5 421769. 2913.17   3
  -4  -2  -6 85.5114 93.7217   1
  -4  -2  -6 137.192 96.6848   3
  -4  -2  -6 36.3054 78.4609  10
   4   2   6 154.572 105.365   9
  -4  -2  -6 94.0419 91.0086  12
  -4  -2  -7 188465. 2882.24  10
   4   2   7 196966. 2415.33   9
  -4  -2  -7 183573. 2865.54   5
  -4  -2  -7 187567. 2866.04  12
  -4  -2  -7 190283. 3016.47  11
  -4  -2  -7 190515. 2644.03   3
  -4  -2  -8 3757.01 434.875  10
  -4  -2  -8 3601.99 408.353   3
  -4  -2  -8 3289.86 403.075   5
   4   2   8 3570.69 330.169   9
  -4  -2  -8 3293.10 429.716  11
  -4  -2  -9 6573.42 593.262  10
  -4  -2  -9 6823.14 615.986   5
   4   2   9 7222.52 664.680   6
  -4  -2  -9 6776.66 651.298  11
  -4  -2  -9 5957.93 577.946   3
  -4  -2 -10 11494.9 871.964   3
  -4  -2 -10 10542.9 783.044  10
  -4  -2 -10 12069.1 860.657   5
   4   3  -4 694.785 191.685   3
   4   3  -4 792.432 249.566   8
  -4  -3   4 1244.09 308.323   4
   4   3  -3 2502.08 327.520   3
  -4  -3   3 2443.14 403.180   1
   4   3  -3 2133.58 359.488   8
  -4  -3   3 2160.94 365.494   4
   4   3  -2 78351.7 2053.10   8
  -4  -3   2 79261.5 2017.17   4
  -4  -3   2 80728.8 2108.34   1
   4   3  -2 79568.5 1612.58   3
  -4  -3   1 195249. 1942.56  10
  -4  -3   1 192978. 3061.39   1
   4   3  -1 192747. 3026.90   8
  -4  -3   1 194952. 1928.76  12
   4   3  -1 198628. 2174.81   3
  -4  -3   0 8089.03 417.928  10
  -4  -3   0 8264.82 598.487   1
   4   3   0 7587.96 562.457   8
  -4  -3   0 9042.69 439.387  12
  -4  -3   0 8033.74 404.049  10
   4   3   0 8323.80 367.355   3
   4   3   1 29214.5 468.304   3
  -4  -3  -1 28477.0 826.638  10
   4   3   1 27913.9 976.658   9
   4   3   1 28055.0 995.717   8
  -4  -3  -1 29131.5 833.203  12
  -4  -3  -1 28551.1 1046.77   1
   4   3   1 28280.7 402.411   6
  -4  -3  -2 2322.32 253.137  10
   4   3   2 2408.82 292.397   9
  -4  -3  -2 2406.28 297.341   1
   4   3   2 2358.70 271.740   8
  -4  -3  -2 1969.47 232.932  12
   4   3   2 2384.25 177.241   6
   4   3   3 121.859 62.4033   6
  -4  -3  -3 61.3856 67.2615  10
  -4  -3  -3 59.8517 85.9491   1
   4   3   3-5.46122 83.3279   9
   4   3   3 100.869 73.9834   8
  -4  -3  -3 155.591 99.3316  12
  -4  -3  -4 3474.47 342.746  12
  -4  -3  -4 3485.07 344.939  10
   4   3   4 3722.82 354.328   9
   4   3   4 3728.95 279.052   8
   4   3   4 4540.28 207.729   3
   4   3   4 3610.78 309.890   6
  -4  -3  -4 3313.77 341.320   1
  -4  -3  -5 10270.3 614.126  12
  -4  -3  -5 9537.60 414.229   3
  -4  -3  -5 9796.23 602.489  10
   4   3   5 10378.9 583.980   9
   4   3   5 10268.6 414.775   8
  -4  -3  -5 10464.5 622.254   1
   4   3   5 11649.4 451.890   3
   4   3   5 9879.34 563.918   6
  -4  -3  -6 236401. 2496.26   3
  -4  -3  -6 231877. 3078.06  10
   4   3   6 242553. 2784.00   9
  -4  -3  -6 233034. 3060.15   1
   4   3   6 247192. 1737.93   8
  -4  -3  -6 231111. 3049.31  12
   4   3   6 239967. 3053.23   6
  -4  -3  -7 350060. 3436.85   3
  -4  -3  -7 340852. 3880.97  10
  -4  -3  -7 336610. 3892.77   1
   4   3   7 335684. 3253.35   9
  -4  -3  -7 341658. 3862.71  12
   4   3   7 351043. 3999.71   6
  -4  -3  -7 329668. 3933.80  11
  -4  -3  -8 40062.2 1314.53   3
  -4  -3  -8 42427.7 1437.19  10
  -4  -3  -8 41307.6 1469.06   5
   4   3   8 41972.8 1150.31   9
  -4  -3  -8 41226.0 1411.74  12
   4   3   8 43900.5 1526.87   6
  -4  -3  -8 41224.5 1473.92  11
  -4  -3  -9 4895.20 513.919   3
  -4  -3  -9 5593.19 551.582  10
  -4  -3  -9 4943.47 540.957   5
  -4  -3  -9 5008.51 521.073  12
   4   3   9 6245.45 619.072   6
  -4  -3  -9 6356.97 626.764  11
  -4  -3 -10 2676.85 399.947  10
   4   3  10 2672.04 439.266   6
  -4  -3 -10 2373.90 394.134   3
  -4  -3 -10 2236.32 390.023   5
  -4  -3 -10 2641.52 437.025  11
  -4  -4   3 15121.8 986.627   4
   4   4  -3 17165.2 1077.90   8
  -4  -4   3 16559.9 1086.09   1
   4   4  -2 6789.86 641.697   8
  -4  -4   2 6483.50 597.148   4
  -4  -4   2 6551.52 645.940   1
   4   4  -2 6736.42 499.524   3
  -4  -4   1 32264.1 913.474  10
  -4  -4   1 31397.7 1315.45   1
   4   4  -1 32141.0 1300.44   8
  -4  -4   1 32516.1 1233.52   4
  -4  -4   1 30643.8 891.604  12
   4   4  -1 32452.2 949.389   3
  -4  -4   0 53860.6 1213.18  10
  -4  -4   0 53272.1 1604.32   1
   4   4   0 53771.2 1597.11   8
  -4  -4   0 53575.9 1204.10  12
   4   4   0 56386.9 1053.70   3
   4   4   1 14229.4 395.242   6
  -4  -4  -1 13473.8 631.160  10
   4   4   1 13851.9 756.293   8
  -4  -4  -1 14076.0 641.691  12
   4   4   1 14599.4 422.093   3
  -4  -4  -1 15087.4 808.845   1
  -4  -4  -2 103923. 1802.80  10
   4   4   2 104494. 1944.75   8
  -4  -4  -2 102579. 2011.59   1
  -4  -4  -2 104072. 1791.11  12
   4   4   2 101980. 751.421   3
   4   4   2 108595. 1332.09   6
  -4  -4  -3 67907.2 1513.96  10
  -4  -4  -3 68462.2 1584.67   1
   4   4   3 70647.4 1492.09   8
  -4  -4  -3 68379.4 1513.57  12
   4   4   3 70138.8 1238.11   6
   4   4   4 434.785 122.189   6
   4   4   4 336.109 61.7143   3
  -4  -4  -4 233.671 119.063  10
   4   4   4 280.094 134.645   9
   4   4   4 463.446 123.759   8
  -4  -4  -4 200.647 102.010  12
  -4  -4  -4 241.750 122.061   1
  -4  -4  -5 75015.5 1725.28  10
   4   4   5 75619.5 1662.76   9
   4   4   5 77184.8 1368.02   8
  -4  -4  -5 74404.4 1707.05  12
  -4  -4  -5 77227.5 1684.41   1
   4   4   5 74964.5 1572.00   6
   4   4   5 77886.3 1127.76   3
   4   4   6 555.049 156.226   2
   4   4   6 520.735 161.262   6
  -4  -4  -6 651.350 193.576  10
  -4  -4  -6 887.260 207.197   1
   4   4   6 442.516 147.129   9
   4   4   6 531.839 116.724   8
  -4  -4  -6 510.160 178.802  12
  -4  -4  -7 116093. 2328.18  10
  -4  -4  -7 113407. 1921.84   3
   4   4   7 114803. 2092.80   2
  -4  -4  -7 112596. 2221.41   1
   4   4   7 118101. 2014.77   9
  -4  -4  -7 113909. 2299.82  12
   4   4   7 113206. 2304.04   6
   4   4   8 177.561 88.1517   2
   4   4   8 320.240 152.786   6
  -4  -4  -8 225.616 148.866  10
  -4  -4  -8 195.635 111.722   3
  -4  -4  -8 378.532 149.947   1
  -4  -4  -8 155.942 145.784   5
  -4  -4  -8 158.108 126.473  12
  -4  -4  -8 202.311 109.124  11
   4   4   9 261.073 150.522   6
  -4  -4  -9 370.770 188.222  10
  -4  -4  -9 210.566 138.241   3
   4   4   9 223.060 105.803   2
  -4  -4  -9 349.961 169.332   5
  -4  -4  -9 234.923 156.580  12
  -4  -4  -9 293.856 186.567  11
  -4  -4 -10 97201.6 2402.84  10
  -4  -4 -10 94547.3 2365.76   3
  -4  -4 -10 97349.1 2578.60   5
  -4  -4 -10 99909.7 2418.90  12
   4   4  10 96923.6 2630.73   6
  -4  -4 -10 97533.2 2583.82  11
  -4  -5   3 9522.46 790.626   4
   4   5  -2 17721.9 1096.10   8
  -4  -5   2 16791.0 998.599   4
  -4  -5   2 19186.0 1147.52   1
  -4  -5   1 34955.4 1070.64  10
  -4  -5   1 34884.7 1456.06   1
   4   5  -1 36033.1 1458.68   8
  -4  -5   1 35407.9 1329.93   4
  -4  -5   1 34667.1 1067.27  12
   4   5   0 59.0643 49.4565   3
  -4  -5   0 154.681 138.582   1
  -4  -5   0 23.9383 71.2703  10
   4   5   0 4.31060 115.808   8
  -4  -5   0 75.9031 92.2052   4
  -4  -5   0 83.8973 82.5416  12
   4   5   1 69.8546 48.0054   6
   4   5   1 75.8996 62.3974   3
  -4  -5  -1-46.9890 86.4850  10
  -4  -5  -1 149.114 110.572   1
   4   5   1 25.7788 92.2941   8
  -4  -5  -1 31.8399 67.0454  12
  -4  -5  -2 21597.1 890.600  10
   4   5   2 20860.5 953.391   8
  -4  -5  -2 22332.8 999.567   1
  -4  -5  -2 22371.5 902.375  12
   4   5   2 23560.0 536.843   3
   4   5   2 22552.4 688.681   6
   4   5   3 194872. 1371.30   3
  -4  -5  -3 190235. 2718.69  10
  -4  -5  -3 187661. 2780.89   1
   4   5   3 191824. 2738.87   8
   4   5   3 200048. 1420.90   3
  -4  -5  -3 190226. 2698.25  12
   4   5   3 198880. 2245.13   6
  -4  -5  -4 63214.0 1607.91  10
  -4  -5  -4 64900.0 1598.83   1
   4   5   4 63867.0 1496.46   8
  -4  -5  -4 64669.0 1619.96  12
   4   5   4 65613.7 1409.83   6
   4   5   4 67480.3 885.758   3
  -4  -5  -5 66021.3 1698.58  10
   4   5   5 66637.1 1721.38   2
   4   5   5 66697.3 1456.58   8
  -4  -5  -5 67401.8 1707.08  12
   4   5   5 68097.3 1553.58   6
  -4  -5  -5 66665.5 1625.92   1
   4   5   5 68010.2 1055.68   3
  -4  -5  -6 53319.5 1576.21  10
   4   5   6 52803.9 1536.90   2
   4   5   6 54017.0 1252.41   8
  -4  -5  -6 50740.6 1435.83   1
  -4  -5  -6 52919.1 1561.89  12
   4   5   6 51960.5 1470.95   6
  -4  -5  -7 113162. 2372.77  10
   4   5   7 109768. 2216.49   2
  -4  -5  -7 108019. 2163.00   1
  -4  -5  -7 111384. 2347.05  12
   4   5   7 109313. 2284.70   6
  -4  -5  -8 87017.1 2152.01  10
   4   5   8 86941.7 1987.62   2
  -4  -5  -8 86365.1 1995.80   1
  -4  -5  -8 87407.0 2261.79   5
  -4  -5  -8 87701.7 2141.90  12
   4   5   8 88140.7 2181.31   6
  -4  -5  -8 87750.6 2105.83  11
  -4  -5  -9 79210.7 2111.67  10
   4   5   9 83378.6 1977.91   2
  -4  -5  -9 76431.6 2212.55   5
  -4  -5  -9 80694.7 2121.54  12
   4   5   9 80472.8 2229.91   6
  -4  -5  -9 81149.3 2150.79  11
  -4  -5 -10 52215.1 1797.62  10
  -4  -5 -10 52384.3 1795.20  12
  -4  -5 -10 53827.1 1885.43  11
  -4  -6   2 2021.94 364.360   4
  -4  -6   1 8805.50 779.129   1
   4   6  -1 7748.52 724.858   8
  -4  -6   1 7243.61 625.567   4
  -4  -6   0 2306.97 317.111  10
  -4  -6   0 3235.06 451.237   1
   4   6   0 2440.77 391.588   8
  -4  -6   0 2164.59 325.447   4
  -4  -6   0 2075.44 299.543  12
  -4  -6  -1 3024.60 357.554  10
   4   6   1 2836.51 410.827   8
  -4  -6  -1 2758.27 341.601  12
  -4  -6  -1 2984.53 406.299   1
  -4  -6  -2 51622.8 1492.27  10
   4   6   2 54399.2 1661.12   8
  -4  -6  -2 54605.5 1643.36   1
  -4  -6  -2 55412.6 1544.67  12
   4   6   2 58481.8 1229.26   6
  -4  -6  -3 217829. 3103.98  10
  -4  -6  -3 213631. 3111.24   1
   4   6   3 219206. 3203.12   8
  -4  -6  -3 211547. 3049.36  12
   4   6   3 224204. 2584.72   6
  -4  -6  -4 1432.92 280.595  10
  -4  -6  -4 1450.53 264.790   1
   4   6   4 1417.83 254.784   8
  -4  -6  -4 1320.92 261.868  12
   4   6   4 1499.86 233.415   6
  -4  -6  -5 115896. 2383.44  10
   4   6   5 116158. 2413.27   2
   4   6   5 114197. 2134.66   8
  -4  -6  -5 114295. 2357.33  12
   4   6   5 114903. 2117.75   6
  -4  -6  -5 115149. 2172.67   1
  -4  -6  -6 16066.5 911.430  10
   4   6   6 16559.1 920.749   2
   4   6   6 16471.7 780.447   8
  -4  -6  -6 16250.8 824.387   1
  -4  -6  -6 16656.2 925.342  12
   4   6   6 18897.1 921.709   6
  -4  -6  -7 57365.4 1756.61  10
   4   6   7 57575.3 1716.07   2
  -4  -6  -7 56707.6 1560.04   1
  -4  -6  -7 57476.0 1746.80  12
   4   6   7 56146.0 1678.19   6
  -4  -6  -8 2308.42 377.376  10
   4   6   8 1999.76 342.602   6
  -4  -6  -8 2443.70 389.845  12
   4   6   8 2499.21 367.934   2
  -4  -6  -8 2289.54 326.474   1
  -4  -6  -8 2272.01 389.366   5
  -4  -6  -8 2093.73 328.597  11
   4   6   9 781.507 230.936   2
   4   6   9 1164.11 286.682   6
  -4  -6  -9 998.903 267.062  10
  -4  -6  -9 1131.87 296.536   5
  -4  -6  -9 1112.00 270.054  12
  -4  -6  -9 1222.39 273.765  11
  -4  -6 -10 77034.8 2228.93  10
  -4  -6 -10 79117.4 2246.19  12
  -4  -6 -10 78228.8 2201.46  11
  -4  -7   0 8195.88 753.352   1
  -4  -7   0 7964.75 620.269  10
   4   7   0 8210.38 761.011   8
  -4  -7   0 8639.87 639.868  12
  -4  -7  -1-59.6165 117.198  10
  -4  -7  -1 60.8829 129.170   1
   4   7   1 87.2879 107.753   8
  -4  -7  -1-14.9272 92.9100   4
  -4  -7  -1 3.72042 96.0724  12
  -4  -7  -2 151.749 131.394   1
  -4  -7  -2 63.2525 87.0799  10
   4   7   2 356.071 173.007   8
  -4  -7  -2-43.9187 112.732  12
  -4  -7  -3 19465.3 999.098  10
  -4  -7  -3 19570.6 989.533   1
   4   7   3 20367.2 1055.92   8
  -4  -7  -3 20626.1 1026.07  12
   4   7   3 19886.0 842.619   6
  -4  -7  -4 85698.0 2111.38  10
  -4  -7  -4 86965.0 2001.88   1
   4   7   4 85166.0 2069.43   8
  -4  -7  -4 86902.4 2114.60  12
   4   7   4 89088.8 1861.68   6
   4   7   5 227.648 126.916   2
   4   7   5-26.5039 85.5583   6
  -4  -7  -5-23.3852 129.156  10
  -4  -7  -5-0.72428 119.262  12
  -4  -7  -5 4.21407 91.7563   1
  -4  -7  -6 7639.17 655.312  10
   4   7   6 7743.03 672.308   2
  -4  -7  -6 8267.22 681.610  12
   4   7   6 7423.67 577.616   8
  -4  -7  -6 7022.75 554.513   1
   4   7   6 7930.65 622.465   6
  -4  -7  -7 33031.6 1392.66  10
   4   7   7 31494.9 1363.26   2
  -4  -7  -7 33664.4 1226.62   1
  -4  -7  -7 31951.9 1366.59  12
   4   7   7 32302.2 1334.55   6
  -4  -7  -8 174119. 3280.98  10
   4   7   8 169374. 3184.73   2
  -4  -7  -8 177191. 3383.31   5
  -4  -7  -8 170573. 2814.58   1
  -4  -7  -8 175672. 3271.58  12
   4   7   8 176354. 3269.39   6
  -4  -7  -8 168957. 2880.30  11
  -4  -7  -9 50184.0 1833.03  10
   4   7   9 53231.4 1812.13   2
  -4  -7  -9 54255.8 1972.57   5
  -4  -7  -9 53309.1 1866.28  12
   4   7   9 53335.7 1906.70   6
  -4  -7  -9 54290.7 1702.49  11
   4   7  10 25188.2 1205.77   2
  -4  -7 -10 25734.5 1193.12  11
  -4  -8  -1 18335.9 1006.60  10
  -4  -8  -1 17899.1 993.897  12
  -4  -8  -1 19253.2 1144.28   1
  -4  -8  -2 41430.2 1556.70  10
   4   8   2 43606.8 1727.55   8
  -4  -8  -2 41984.9 1603.62   1
  -4  -8  -2 42253.1 1565.30  12
  -4  -8  -3 5233.99 558.538  10
  -4  -8  -3 4604.98 510.153   1
   4   8   3 5199.57 581.178   8
  -4  -8  -3 5093.83 549.210  12
  -4  -8  -4 13554.3 892.097  10
  -4  -8  -4 13800.9 853.989   1
   4   8   4 13328.4 894.846   8
  -4  -8  -4 13774.6 899.089  12
   4   8   4 14034.6 802.992   6
  -4  -8  -5 2886.39 382.126   1
  -4  -8  -5 2552.39 405.130  10
   4   8   5 2913.76 441.412   2
   4   8   5 2725.97 402.242   8
  -4  -8  -5 3400.60 457.951  12
   4   8   5 2710.28 369.870   6
   4   8   6-35.9575 134.907   2
   4   8   6 312.401 146.470   6
  -4  -8  -6 369.411 211.315  10
  -4  -8  -6 223.052 144.480   1
   4   8   6 427.058 188.860   8
  -4  -8  -6 250.043 178.384  12
   4   8   7 2363.24 402.460   2
   4   8   7 1778.93 336.018   6
  -4  -8  -7 2357.59 396.867  10
  -4  -8  -7 1864.39 345.764   5
  -4  -8  -7 1676.80 340.832  12
  -4  -8  -8 9291.95 803.872  10
   4   8   8 9731.12 824.648   2
  -4  -8  -8 10090.3 834.630   5
  -4  -8  -8 9637.66 809.238  12
   4   8   8 10021.4 817.174   6
  -4  -9  -2 398.456 178.389   1
  -4  -9  -3 38753.0 1586.53  10
  -4  -9  -3 36798.6 1481.96   1
  -4  -9  -3 39498.5 1598.70  12
  -4  -9  -4 4631.75 568.794  10
  -4  -9  -4 4403.77 495.671   1
   4   9   4 4520.23 570.462   8
  -4  -9  -4 3971.67 524.560  12
  -4  -9  -5 3720.47 516.641  10
   4   9   5 3222.35 485.094   2
   4   9   5 3309.90 473.836   8
  -4  -9  -5 3405.70 488.074  12
   4   9   5 3568.96 442.478   6
   4   9   6 15078.6 976.916   8
   4   9   6 15965.2 973.400   6
  -4  -9  -7 2182.73 389.809   5
   4   9   7 2430.07 395.485   8
   4   9   7 2736.12 429.279   6
  -5   8   3-84.1117 118.987   6
   5  -8  -3 55.4701 115.793   9
  -5   8   2 19291.5 1155.87   6
   5  -8  -2 18660.1 1040.50  10
   5  -8  -2 18300.0 1076.17   9
  -5   8   2 18327.8 1155.11   2
  -5   8   2 18888.9 1062.29  10
  -5   8   1 28176.6 1392.73   6
   5  -8  -1 28507.6 1378.30   9
  -5   8   1 27506.3 1360.73   2
  -5   8   1 27397.8 1322.76  10
  -5   8   0 21190.3 1223.91   6
   5  -8   0 21166.9 1211.33   9
  -5   8   0 20783.8 1143.95   2
  -5   8   0 22098.0 1228.84  10
  -5   8  -1 31945.1 1334.40   2
  -5   8  -1 29299.5 1453.80  10
  -5   7   5 35129.4 1429.71   6
   5  -7  -4 5211.89 561.541   5
  -5   7   4 4349.26 517.199   6
   5  -7  -3 4467.64 485.849   5
   5  -7  -3 5145.06 521.305   9
  -5   7   3 4809.93 592.051   2
  -5   7   3 4919.15 552.603   6
  -5   7   2 8773.43 733.486   6
   5  -7  -2 7635.99 658.404   9
  -5   7   2 7685.61 718.586   2
  -5   7   2 7492.85 628.530  10
  -5   7   1 45089.6 1648.81   6
   5  -7  -1 42402.5 1570.30   9
  -5   7   1 42599.5 1613.51   2
  -5   7   1 44658.7 1566.70  10
  -5   7   0 135201. 2859.92   6
   5  -7   0 132583. 2828.24   9
  -5   7   0 130416. 2715.27   2
  -5   7   0 130620. 2742.10  10
  -5   7  -1 40790.3 1604.43   6
   5  -7   1 40714.7 1598.50   9
  -5   7  -1 40603.7 1454.29   2
  -5   7  -1 39734.4 1553.77  10
  -5   7  -2 3187.33 473.536   6
   5  -7   2 2776.27 434.352   9
  -5   7  -2 2877.15 379.490   2
  -5   7  -2 2837.84 434.186  10
  -5   7  -3 11435.9 908.238   6
   5  -7   3 11385.2 900.216   9
  -5   7  -3 11758.7 914.406   3
  -5   7  -3 11872.9 919.793  10
   5  -6  -5 13465.4 965.620   5
  -5   6   5 14300.0 869.300   6
  -5   6   4 159.219 152.372   6
  -5   6   4 82.6285 160.446   2
   5  -6  -4 39.3855 137.500   5
   5  -6  -3 12920.1 822.121   5
   5  -6  -3 13733.0 789.198   9
  -5   6   3 13470.0 938.007   2
  -5   6   3 13293.6 842.336   6
  -5   6   2 426.891 183.660   6
  -5   6   2 461.198 211.761   2
  -5   6   2 499.294 152.866  10
   5  -6  -2 451.762 168.151   9
  -5   6   1 21188.8 1043.44   6
   5  -6  -1 20556.1 1020.04   9
  -5   6   1 20321.0 1079.16   2
  -5   6   1 19929.6 956.067  10
  -5   6   0 558.645 199.187   6
  -5   6   0 472.643 180.093   2
  -5   6   0 326.937 148.762  10
   5  -6   0 289.282 155.973   9
  -5   6  -1 66362.6 1909.97   6
   5  -6   1 66736.1 1931.64   9
  -5   6  -1 64363.2 1752.91   2
  -5   6  -1 66123.9 1870.40  10
  -5   6  -2 36551.5 1461.26   6
   5  -6   2 36402.0 1460.79   9
  -5   6  -2 35789.6 1240.47   2
  -5   6  -2 34294.6 1401.72  10
  -5   6  -3 32643.9 1428.87   6
   5  -6   3 32306.8 1410.03   9
  -5   6  -3 31061.1 1387.06   3
  -5   6  -3 33290.9 1423.00  10
  -5   6  -4 146.749 153.423   3
  -5   6  -4-14.1674 145.561  10
   5  -6   4 220.427 158.776   9
   5  -6   5 727.167 251.975   9
   5  -5  -5 63398.5 2104.80   5
  -5   5   5 64353.0 1834.02   4
  -5   5   5 59660.9 1894.40   7
  -5   5   5 65931.4 2155.19   2
   5  -5  -4 70566.9 2066.16   5
  -5   5   4 71495.8 1820.57   4
  -5   5   4 70920.3 2145.87   2
  -5   5   4 71667.3 1922.12   7
  -5   5   4 70021.8 1829.37   6
   5  -5  -3 13255.0 836.022   5
   5  -5  -3 14064.1 735.149   9
  -5   5   3 12715.3 708.844   4
  -5   5   3 12625.3 879.783   2
  -5   5   3 12369.0 751.672   6
   5  -5  -2 52939.2 1479.26   9
  -5   5   2 52950.4 1731.45   2
  -5   5   2 54265.3 1375.76  10
  -5   5   2 53593.3 1532.85   6
  -5   5   1 29276.4 1131.49   6
   5  -5  -1 28156.8 1120.45   9
  -5   5   1 27225.2 1195.53   2
  -5   5   1 28265.2 1034.75  10
  -5   5   0 45593.0 1427.25   6
   5  -5   0 42714.7 1416.42   9
  -5   5   0 45126.9 1469.93   2
  -5   5   0 45676.1 1377.80  10
  -5   5  -1 154916. 2709.20   6
   5  -5   1 160550. 2822.68   9
  -5   5  -1 155619. 2604.82   2
  -5   5  -1 155612. 2672.92  10
  -5   5  -2 13062.7 818.742   6
   5  -5   2 12661.0 813.508   9
  -5   5  -2 12175.2 693.793   2
  -5   5  -2 13423.4 562.568  11
  -5   5  -2 12372.3 787.375  10
  -5   5  -3 917.245 243.717   3
  -5   5  -3 816.808 237.516   6
  -5   5  -3 842.435 189.044   2
  -5   5  -3 949.650 243.965  10
   5  -5   3 865.032 248.844   9
  -5   5  -3 970.426 175.870  11
   5  -5   4 4474.51 510.298   9
  -5   5  -4 3891.58 482.945   3
  -5   5  -4 4674.45 406.225  11
  -5   5  -4 4318.97 502.759  10
   5  -5   5 31909.5 1394.01   9
  -5   5  -5 30528.8 1397.56   3
  -5   5  -5 30724.6 1128.52  11
  -5   5  -5 28760.6 1353.24  10
  -5   5  -6 225.150 141.673   3
  -5   5  -6 503.048 195.552  10
   5  -5   6 382.006 166.864   9
   5  -5   7 21933.2 1109.83   9
  -5   4   6 11851.8 872.024   4
   5  -4  -5 26189.0 1358.02   5
  -5   4   5 25573.1 1233.71   4
  -5   4   5 24966.9 1232.55   7
  -5   4   5 24257.6 1275.10   2
   5  -4  -4 14512.5 935.398   5
  -5   4   4 14025.1 838.698   4
  -5   4   4 15371.3 897.925   7
  -5   4   4 14667.8 947.993   2
  -5   4   4 14851.9 773.343   6
   5  -4  -3 3337.41 430.702   5
   5  -4  -3 3442.74 341.950   9
  -5   4   3 3139.17 369.989   4
  -5   4   3 2927.37 361.319   7
  -5   4   3 2895.51 417.006   2
  -5   4   3 2652.70 319.319   6
   5  -4  -2 38603.3 1178.14   9
  -5   4   2 38337.0 1143.30   7
  -5   4   2 42120.0 891.125   1
  -5   4   2 39329.7 1445.68   2
  -5   4   2 40926.0 1038.62  10
  -5   4   2 38251.1 1189.52   6
  -5   4   1 7514.32 530.284   6
   5  -4  -1 8653.11 580.955   9
  -5   4   1 7687.96 377.891   1
  -5   4   1 8256.54 636.597   2
  -5   4   1 7772.28 485.174  10
  -5   4   0 53.6801 68.8223   1
  -5   4   0 141.536 105.507   6
  -5   4   0 271.185 133.755  10
  -5   4   0 24.1900 100.741   2
   5  -4   0-3.28065 102.035   9
  -5   4  -1 27846.0 1058.04   6
  -5   4  -1 29124.2 828.262   1
   5  -4   1 28708.0 1132.12   9
  -5   4  -1 28322.5 1084.08   2
  -5   4  -1 28934.1 1061.99  10
  -5   4  -2 50788.4 1490.23   6
   5  -4   2 49583.5 1521.52   9
  -5   4  -2 49875.0 1353.42   2
  -5   4  -2 49889.4 1476.14  10
  -5   4  -3 50244.2 1563.12   6
   5  -4   3 54222.9 1620.18   9
  -5   4  -3 54897.9 1319.85   2
  -5   4  -3 48960.9 1196.06  11
  -5   4  -3 52628.2 1588.11  10
   5  -4   4 81960.9 2033.21   9
  -5   4  -4 79861.6 2007.08   3
  -5   4  -4 82518.3 1691.22  11
  -5   4  -4 84261.0 1506.52   2
  -5   4  -4 80590.0 2067.45  10
   5  -4   5 2668.10 386.482   9
  -5   4  -5 2357.75 372.591   3
  -5   4  -5 2264.23 314.038  11
  -5   4  -5 2838.86 417.071  10
   5  -4   6 6504.95 613.296   9
  -5   4  -6 7281.62 686.059   3
  -5   4  -6 6434.33 562.738  11
  -5   4  -6 6964.04 666.501  10
   5  -4   7 6889.39 630.147   9
  -5   4  -7 6866.56 707.209   3
  -5   4  -7 6642.68 612.413  11
  -5   4  -7 7011.75 705.523  10
  -5   3   6 358.225 162.772   2
   5  -3  -5 138781. 3119.54   5
  -5   3   5 135907. 2950.33   4
  -5   3   5 140569. 2945.06   7
  -5   3   5 138710. 2971.40   2
   5  -3  -4 57005.0 1860.43   5
  -5   3   4 57150.8 1746.40   4
  -5   3   4 55603.3 1702.16   7
  -5   3   4 56596.6 1811.71   2
   5  -3  -3 14516.6 647.391   9
  -5   3   3 14612.5 666.092   1
  -5   3   3 14361.3 817.734   4
  -5   3   3 14315.5 783.306   7
  -5   3   3 14430.5 880.756   2
  -5   3   3 14581.6 673.481   6
  -5   3   2 8406.72 462.362   1
   5  -3  -2 7842.34 502.297   9
  -5   3   2 9090.26 562.809   7
  -5   3   2 9066.28 404.272  10
  -5   3   2 7923.69 633.624   2
  -5   3   2 9226.21 524.247   6
  -5   3   1 15155.4 670.708   6
   5  -3  -1 15814.7 739.357   9
  -5   3   1 15244.9 633.728   7
  -5   3   1 15482.3 607.526  10
  -5   3   1 14675.1 825.217   2
  -5   3   1 15433.9 593.753   1
  -5   3   0 36082.6 1058.86   6
   5  -3   0 36879.3 1167.08   9
   5  -3   0 38876.9 889.553   1
  -5   3   0 38282.6 938.684   1
  -5   3   0 37092.1 1024.99  10
  -5   3  -1 209267. 2636.70   6
   5  -3   1 206729. 2828.96   9
  -5   3  -1 211180. 2298.77   1
  -5   3  -1 204448. 2597.32  10
  -5   3  -1 205615. 2817.94   2
  -5   3  -2 59982.0 1486.08   6
   5  -3   2 60475.4 1580.77   9
  -5   3  -2 61457.1 1329.05   1
  -5   3  -2 59545.0 1434.50   2
  -5   3  -2 60884.9 1511.33  10
  -5   3  -3 3997.52 278.021   5
   5  -3   3 3734.17 409.687   9
  -5   3  -3 4223.17 363.699   2
  -5   3  -3 4084.82 413.124  10
   5  -3   4 14008.6 799.484   9
  -5   3  -4 14785.4 791.228   3
  -5   3  -4 15115.7 624.006   2
  -5   3  -4 15149.9 848.296  10
   5  -3   5 25557.6 1097.60   9
  -5   3  -5 27746.9 1159.44   3
  -5   3  -5 27148.1 1049.26  11
  -5   3  -5 27109.6 1187.69  10
   5  -3   6 20036.0 992.983   9
  -5   3  -6 20056.2 1053.52   3
  -5   3  -6 18973.3 949.390  11
  -5   3  -6 18695.3 1029.96  10
   5  -3   7 47125.3 1563.08   9
  -5   3  -7 48013.6 1746.43   3
  -5   3  -7 48027.9 1638.82  11
  -5   3  -7 46838.8 1702.18  10
  -5   3  -8 19991.6 1117.50  11
  -5   3  -8 20909.4 1188.53  10
  -5   2   5 46695.2 1782.45   4
  -5   2   5 45775.1 1727.22   7
  -5   2   5 49258.5 1722.09   2
  -5   2   4 2505.76 335.058   1
  -5   2   4 2477.26 392.941   4
  -5   2   4 2208.93 345.631   7
  -5   2   4 2401.17 368.059   2
  -5   2   3 580.614 199.775   2
   5  -2  -3 670.536 140.610   9
  -5   2   3 55.3239 72.0077   1
  -5   2   3 16.5508 111.043   4
  -5   2   3-22.3787 85.2497   7
   5  -2  -2 4613.03 366.916   9
  -5   2   2 4855.04 394.989   1
  -5   2   2 4943.23 420.617   7
  -5   2   2 4799.26 328.272   6
  -5   2   1 84182.0 1365.05   6
   5  -2  -1 82458.3 1120.69  10
  -5   2   1 82003.0 1520.12   1
   5  -2  -1 83993.8 1628.17   9
   5  -2  -1 83838.7 1123.87  12
  -5   2   1 82808.2 1513.84   7
   5  -2  -1 84710.3 1273.47   6
  -5   2   1 83611.2 1187.99  10
   5  -2   0 47074.3 974.358  12
  -5   2   0 49457.4 1141.11   1
  -5   2   0 48288.4 1074.94   6
   5  -2   0 48242.0 985.463  10
   5  -2   0 47356.0 1257.20   9
  -5   2   0 52352.1 997.361   7
   5  -2   0 50335.3 1039.16   6
  -5   2   0 50413.4 1065.48  10
  -5   2  -1 2578.72 266.486   6
   5  -2   1 1860.44 262.929   9
  -5   2  -1 1945.14 141.978   7
  -5   2  -1 2251.75 250.726   1
  -5   2  -1 1922.99 239.421  10
  -5   2  -2 103231. 1763.42   6
   5  -2   2 101235. 1932.10   9
  -5   2  -2 102198. 1732.70   1
  -5   2  -2 100846. 1812.32  10
  -5   2  -3 216380. 2832.33  10
   5  -2   3 211192. 2873.51   9
  -5   2  -3 214849. 2665.31   1
  -5   2  -4 25144.3 1026.90  10
  -5   2  -4 25297.9 983.215   1
   5  -2   4 25364.0 1015.34   9
  -5   2  -4 25478.6 616.245   8
  -5   2  -4 24610.7 934.240   3
  -5   2  -5 27448.0 1134.14  10
   5  -2   5 26234.5 1051.09   9
  -5   2  -5 27921.6 549.029   8
  -5   2  -5 25667.9 1033.74   3
  -5   2  -5 25901.0 1028.44  11
  -5   2  -5 28429.9 756.198   2
   5  -2   6 26159.9 1069.94   9
  -5   2  -6 28192.7 884.043   5
  -5   2  -6 26847.6 1133.04   3
  -5   2  -6 27242.3 1124.15  11
  -5   2  -6 26713.6 1176.57  10
   5  -2   7 2734.16 365.922   9
  -5   2  -7 3073.62 422.975   3
  -5   2  -7 2643.41 386.041  11
  -5   2  -7 2989.13 418.701  10
   5  -2   8 32270.6 1238.06   9
  -5   2  -8 31544.7 1443.71   3
  -5   2  -8 32241.7 1419.87  11
  -5   2  -8 30445.4 1392.52  10
  -5   1   5 74053.4 2017.89   1
  -5   1   5 71743.9 2278.00   4
  -5   1   5 72265.7 2191.86   7
  -5   1   5 72770.6 2023.87   2
  -5   1   4 139782. 2657.12   1
  -5   1   4 137885. 2898.51   4
  -5   1   4 138660. 2777.18   7
  -5   1   4 138962. 2766.92   2
  -5   1   3 2081.01 302.101   1
  -5   1   3 2159.58 348.837   4
  -5   1   3 2534.09 355.970   7
   5  -1  -2 2839.53 285.515   9
  -5   1   2 2613.56 320.918   7
  -5   1   2 3060.01 342.482   1
  -5   1   2 2943.39 203.428   6
  -5   1   1 48780.9 826.424   6
   5  -1  -1 45915.9 686.089  10
   5  -1  -1 45445.6 1170.23   9
  -5   1   1 45526.2 1222.69   1
  -5   1   1 45669.1 1175.00   7
   5  -1  -1 46558.5 686.357  12
   5  -1  -1 46974.7 775.841   6
  -5   1   1 46758.0 714.079  10
  -5   1   0 3871.10 254.100   6
   5  -1   0 3948.14 260.376  10
  -5   1   0 3934.28 352.368   1
   5  -1   0 4082.73 362.708   9
  -5   1   0 4012.67 302.639   7
   5  -1   0 3726.95 250.850  12
   5  -1   0 3784.57 243.621   6
  -5   1  -1 137967. 1792.51  10
  -5   1  -1 137852. 2008.17   1
   5  -1   1 135485. 1706.75  10
   5  -1   1 135467. 2133.02   9
  -5   1  -1 140978. 1404.70   7
   5  -1   1 136020. 1698.46  12
   5  -1   1 137784. 1622.47   6
  -5   1  -2 280852. 2828.68  10
   5  -1   2 278785. 3095.20   9
  -5   1  -2 280996. 2922.37   1
   5  -1   2 289538. 2552.74   6
  -5   1  -3 479.372 120.421   3
  -5   1  -3 314.609 128.814  10
  -5   1  -3 327.078 124.289   1
   5  -1   3 147.805 116.563   9
  -5   1  -4 51241.8 1396.87  10
   5  -1   4 51744.2 1400.91   9
  -5   1  -4 53648.6 1408.63   1
  -5   1  -4 55534.5 806.026   8
  -5   1  -4 52096.8 1226.51   3
  -5   1  -5 250.202 109.385   3
  -5   1  -5 443.784 153.842  10
   5  -1   5 304.446 128.034   9
  -5   1  -5 110.116 106.078   1
  -5   1  -6 1860.59 306.370  10
   5  -1   6 2961.14 349.272   9
  -5   1  -6 2404.74 316.369   3
  -5   1  -6 2417.57 347.152  11
  -5   1  -7 1528.36 285.483   3
  -5   1  -7 1346.88 277.747  10
  -5   1  -7 1375.96 224.437   5
   5  -1   7 1214.00 237.118   9
  -5   1  -7 1470.71 287.518  11
  -5   1  -8 3167.65 435.405  10
   5  -1   8 3262.99 382.377   9
  -5   1  -8 2999.05 429.297  11
  -5   1  -8 2989.04 432.542   3
  -5   1  -9 22045.1 1247.12  11
  -5   1  -9 20591.1 1199.67   3
  -5   1  -9 21000.0 1165.74  10
  -5   0   5 11029.4 833.455   1
  -5   0   4 32501.5 1369.66   1
  -5   0   4 32084.6 1440.94   4
   5   0  -4 33255.5 1463.61   8
  -5   0   4 31730.1 1391.73   7
  -5   0   3 466.539 179.137   1
   5   0  -3 292.178 140.103   8
  -5   0   3 510.725 196.056   4
  -5   0   3 231.778 93.1772   7
  -5   0   2 2385.18 328.293   1
   5   0  -2 2345.92 272.598   9
   5   0  -2 2759.93 378.739   8
  -5   0   2 2398.63 325.138   7
   5   0  -1 65749.3 648.705  10
   5   0  -1 67800.3 1434.94   9
   5   0  -1 65481.7 1698.80   8
  -5   0   1 66490.0 1490.91   7
  -5   0   1 70133.6 1643.58   1
  -5   0   1 65461.0 661.629  10
  -5   0   0 130567. 1426.71  10
   5   0   0 127809. 1382.29  10
   5   0   0 128892. 2008.13   9
  -5   0   0 127940. 2117.78   1
   5   0   0 131541. 2218.90   8
   5   0   0 127825. 1375.20  12
   5   0   0 130516. 931.614   6
  -5   0   0 129614. 1537.19   3
   5   0   1 581.649 90.1318   6
   5   0   1 251.432 78.4348  10
   5   0   1 167.308 114.739   9
  -5   0  -1 280.225 119.818   1
   5   0   1 303.045 115.881   8
   5   0   1 352.861 96.9792  12
   5   0   2 8781.14 402.705   6
  -5   0  -2 8576.30 476.517  10
   5   0   2 8376.54 530.734   9
   5   0   2 8494.12 458.765   8
  -5   0  -2 8507.33 524.969   1
  -5   0  -3 156776. 2206.69  10
   5   0   3 155784. 2322.08   9
  -5   0  -3 154489. 1667.05   8
  -5   0  -3 161413. 1641.12   3
  -5   0  -3 157652. 2308.69   1
  -5   0  -4 302141. 3263.15  10
   5   0   4 292085. 3250.03   9
  -5   0  -4 303559. 1844.01   8
  -5   0  -4 293338. 3308.23   1
  -5   0  -4 298746. 1421.10   7
  -5   0  -4 306823. 2596.76   3
  -5   0  -5 1562.02 257.598  10
   5   0   5 1859.35 275.580   9
  -5   0  -5 2137.27 311.270   1
  -5   0  -5 2046.07 240.851   3
  -5   0  -6 45371.5 1438.14  10
  -5   0  -6 45436.9 1464.13   1
   5   0   6 47512.5 1340.87   9
  -5   0  -6 46659.0 1285.62   3
  -5   0  -7 23845.0 1099.70  10
   5   0   7 23419.2 955.401   9
  -5   0  -7 22767.7 945.040   5
  -5   0  -7 23234.1 1004.43   3
  -5   0  -7 22388.2 1083.30  11
  -5   0  -8 33230.0 1349.21  10
   5   0   8 32354.1 1145.91   9
  -5   0  -8 31392.7 1189.22   5
  -5   0  -8 31056.8 1346.28  11
  -5   0  -8 31955.1 1284.41   3
  -5   0  -9 18193.1 1066.97  10
  -5   0  -9 19162.2 956.101   5
  -5   0  -9 17579.8 1087.34  11
  -5   0  -9 18331.3 1081.84   3
   5   1  -4 4069.35 452.888   3
  -5  -1   4 4071.17 518.225   1
  -5  -1   4 3844.78 524.295   4
   5   1  -4 4174.02 546.205   8
  -5  -1   4 4133.19 532.055   7
  -5  -1   3 41364.5 1528.66   1
  -5  -1   3 43105.3 1623.27   4
   5   1  -3 42363.9 1603.47   8
  -5  -1   3 41735.4 1509.36   7
  -5  -1   2 34629.4 1308.85   1
   5   1  -2 35985.2 1391.34   8
  -5  -1   2 35080.0 1369.55   4
  -5  -1   1 11636.1 712.615   1
  -5  -1   1 12266.0 292.421  10
   5   1  -1 13098.6 656.882   9
   5   1  -1 11171.9 727.146   8
  -5  -1   0 3056.48 219.229  10
   5   1   0 2667.63 202.370  10
   5   1   0 2818.47 309.138   9
   5   1   0 2862.01 347.091   8
  -5  -1   0 3058.73 358.665   1
  -5  -1   0 2680.98 208.590   3
  -5  -1  -1 104273. 1460.69  10
   5   1   1 103840. 1399.06  10
   5   1   1 102725. 1846.35   9
  -5  -1  -1 102594. 1932.34   1
   5   1   1 101401. 1848.86   8
  -5  -1  -1 103556. 1448.87  12
   5   1   1 104100. 1392.15  12
   5   1   1 97518.0 665.493   6
  -5  -1  -1 102858. 1032.31   3
   5   1   1 99064.2 676.325   6
  -5  -1  -2 24043.2 399.623   3
   5   1   2 24584.8 586.571   6
  -5  -1  -2 24257.8 785.965  10
  -5  -1  -2 22996.1 904.691   1
   5   1   2 22432.7 866.751   9
   5   1   2 23700.4 813.952   8
  -5  -1  -2 23944.6 777.324  12
  -5  -1  -3 28139.4 909.539  10
   5   1   3 29468.2 769.204   6
  -5  -1  -3 29055.4 920.215  12
   5   1   3 28237.9 983.567   9
  -5  -1  -3 29222.2 768.535   8
   5   1   3 29158.2 782.675   8
  -5  -1  -3 28994.2 515.317   3
  -5  -1  -3 26856.6 977.777   1
  -5  -1  -4 5311.87 433.687  10
   5   1   4 4825.20 417.720   9
  -5  -1  -4 5082.98 270.281   8
   5   1   4 5275.74 276.077   8
  -5  -1  -4 5133.58 451.294   1
  -5  -1  -4 5025.44 420.542  12
  -5  -1  -4 5081.27 271.329   7
  -5  -1  -4 5335.79 285.724   3
  -5  -1  -5 48928.2 1380.77  10
   5   1   5 48563.1 1323.38   9
  -5  -1  -5 50642.5 1440.90   1
  -5  -1  -5 52381.0 896.554   7
  -5  -1  -5 50445.5 1390.46  12
  -5  -1  -5 49517.7 1056.86   3
  -5  -1  -6 18735.3 913.996  10
   5   1   6 19168.0 837.492   9
  -5  -1  -6 18996.1 940.056   1
  -5  -1  -6 19841.2 594.182   7
  -5  -1  -6 19029.3 757.921   3
  -5  -1  -7 8702.40 663.105  10
  -5  -1  -7 8044.96 646.064   1
   5   1   7 8399.01 563.132   9
  -5  -1  -7 8801.18 675.464  11
  -5  -1  -7 8236.09 564.251   3
  -5  -1  -8 68.4329 86.4349   3
  -5  -1  -8 205.034 142.791  10
  -5  -1  -8 239.451 131.064   5
   5   1   8 191.716 109.918   9
  -5  -1  -8 319.618 187.353  11
  -5  -1  -9 27049.8 1262.43  10
  -5  -1  -9 27628.8 1212.07   5
  -5  -1  -9 29323.5 1377.70  11
  -5  -1  -9 28342.8 1275.89   3
  -5  -1 -10 66338.9 2050.03  10
  -5  -1 -10 66562.7 1904.89   5
  -5  -1 -10 67067.3 2091.02   3
  -5  -2   3 58575.7 1920.31   1
  -5  -2   3 60119.2 1958.00   4
   5   2  -3 57532.8 1910.23   8
  -5  -2   3 55636.7 1846.81   7
   5   2  -2 3735.69 356.841   3
  -5  -2   2 3850.51 471.581   1
   5   2  -2 3555.91 460.972   8
  -5  -2   2 3557.70 453.891   4
   5   2  -1 114017. 1638.61   3
  -5  -2   1 108711. 2325.77   1
   5   2  -1 107852. 2327.38   8
  -5  -2   0 172317. 1745.84  10
   5   2   0 170221. 1670.05  10
   5   2   0 167009. 2461.17   9
   5   2   0 163572. 2692.11   8
  -5  -2   0 170537. 1730.38  12
  -5  -2   0 171893. 1578.31   3
  -5  -2   0 164863. 2732.20   1
  -5  -2   0 168361. 1677.42  10
  -5  -2  -1 32358.5 851.454  10
   5   2   1 32240.6 805.956  10
   5   2   1 31950.4 1073.28   9
   5   2   1 31390.1 1092.40   8
  -5  -2  -1 31479.3 1132.46   1
  -5  -2  -1 31767.5 462.964   3
  -5  -2  -1 31924.0 841.814  12
   5   2   2 53.0569 38.2201   6
   5   2   2 7.27577 26.8228   6
  -5  -2  -2 140.042 77.6565  10
  -5  -2  -2 77.5601 84.9930   1
   5   2   2 137.632 88.1008   8
  -5  -2  -2 68.6565 74.1950  12
  -5  -2  -3 10615.3 571.953  10
  -5  -2  -3 10364.2 629.769   1
   5   2   3 10994.3 630.127   9
   5   2   3 10815.1 523.012   8
  -5  -2  -3 10045.2 552.091  12
   5   2   3 10751.4 450.755   6
  -5  -2  -4 81431.6 1660.47  10
   5   2   4 79737.7 1702.59   9
   5   2   4 83802.9 1264.86   8
  -5  -2  -4 82453.5 1665.64  12
  -5  -2  -4 82744.9 1789.28   1
  -5  -2  -4 83947.1 811.964   3
  -5  -2  -5 106706. 2041.74  10
   5   2   5 101198. 1926.51   9
   5   2   5 108556. 1154.47   8
  -5  -2  -5 105164. 2086.48   1
  -5  -2  -5 104429. 2009.20  12
  -5  -2  -5 110805. 1492.14   7
  -5  -2  -5 106345. 1342.76   3
  -5  -2  -6 65994.8 1695.60  10
   5   2   6 67072.6 1577.74   9
  -5  -2  -6 66701.6 1744.70   1
  -5  -2  -6 66413.8 1693.30  12
  -5  -2  -6 67245.0 1303.10   3
  -5  -2  -7 57534.7 1665.92  10
  -5  -2  -7 55852.1 1675.45   1
   5   2   7 56459.8 1449.10   9
  -5  -2  -7 57083.2 1649.10  12
  -5  -2  -7 55327.6 1368.99   3
  -5  -2  -8 58450.3 1767.61  10
   5   2   8 58139.2 1481.42   9
  -5  -2  -8 57476.2 1706.58   5
  -5  -2  -8 58015.7 1747.36  12
  -5  -2  -8 59813.9 1827.60  11
  -5  -2  -8 57332.7 1558.14   3
  -5  -2  -9 27971.1 1275.25  10
  -5  -2  -9 26313.5 1221.25   5
  -5  -2  -9 26462.7 1297.78  11
  -5  -2  -9 28135.4 1218.25   3
  -5  -2 -10 16083.8 1016.50  10
  -5  -2 -10 17458.6 1033.93   5
  -5  -2 -10 15842.2 990.594   3
  -5  -3   3 3039.34 476.128   1
  -5  -3   3 2737.03 446.219   4
   5   3  -3 2570.95 428.262   8
  -5  -3   2 21426.4 1161.42   1
   5   3  -2 22894.6 1182.00   8
  -5  -3   2 21336.8 1133.87   4
  -5  -3   1 169.590 117.721   1
   5   3  -1 408.187 194.377   8
  -5  -3   0 13214.0 546.197  10
   5   3   0 13497.6 468.123   3
   5   3   0 12179.7 770.052   8
  -5  -3   0 12863.3 536.052  12
  -5  -3   0 11954.7 782.007   1
  -5  -3  -1 11659.0 555.142  10
   5   3   1 11697.0 692.257   9
   5   3   1 11943.2 718.145   8
  -5  -3  -1 11959.1 748.559   1
  -5  -3  -1 12547.5 568.423  12
  -5  -3  -2 251703. 2708.69  10
   5   3   2 251716. 3160.59   9
  -5  -3  -2 242123. 3242.40   1
   5   3   2 247175. 3011.84   8
  -5  -3  -2 251412. 2695.94  12
   5   3   2 257612. 1545.42   6
  -5  -3  -3 2090.23 268.087  10
  -5  -3  -3 2245.93 311.135   1
   5   3   3 1635.75 270.480   9
   5   3   3 1643.76 225.662   8
  -5  -3  -3 1576.33 238.456  12
   5   3   3 1678.42 176.002   6
   5   3   4 263.283 99.6696   6
  -5  -3  -4 238.151 123.632  10
   5   3   4 376.211 161.079   9
   5   3   4 172.012 82.1203   8
  -5  -3  -4 132.011 98.7794  12
  -5  -3  -4 235.856 102.619   1
   5   3   5 53.9268 73.2765   6
   5   3   5 25.0868 30.1995   3
  -5  -3  -5-0.25946 67.8826  10
   5   3   5 112.884 105.912   9
  -5  -3  -5-12.5838 102.299   1
   5   3   5 39.2916 42.8355   8
  -5  -3  -5-11.8481 81.2172  12
  -5  -3  -6 38183.0 906.130   3
  -5  -3  -6 37416.9 1283.97  10
   5   3   6 39101.0 1234.12   9
   5   3   6 39096.8 723.798   8
  -5  -3  -6 37453.8 1302.80   1
  -5  -3  -6 37893.4 1292.42  12
   5   3   6 37691.1 1212.00   6
  -5  -3  -7 26557.7 896.056   3
  -5  -3  -7 24770.6 1105.50  10
   5   3   7 25139.3 992.952   9
  -5  -3  -7 27039.9 1155.49   1
  -5  -3  -7 26031.0 1125.61  12
   5   3   7 24945.8 1074.06   6
  -5  -3  -8 43156.4 1297.95   3
  -5  -3  -8 42698.3 1513.60  10
  -5  -3  -8 43071.6 1528.74   1
   5   3   8 43419.9 1304.83   9
  -5  -3  -8 43526.3 1523.94  12
   5   3   8 43498.2 1520.08   6
  -5  -3  -8 42825.8 1548.13  11
  -5  -3  -9 5548.86 524.964   3
  -5  -3  -9 4901.93 540.255  10
  -5  -3  -9 5551.68 581.570   5
   5   3   9 5766.68 474.173   9
  -5  -3  -9 5295.64 561.833  12
   5   3   9 5274.51 570.518   6
  -5  -3  -9 6037.69 618.183  11
  -5  -3 -10 86208.7 2221.69   3
  -5  -3 -10 88906.3 2387.45  10
  -5  -3 -10 85122.7 2360.38   5
  -5  -3 -10 90866.6 2537.96  11
  -5  -4   2 1074.48 290.806   1
   5   4  -2 2165.99 411.751   8
  -5  -4   2 1921.24 366.447   4
  -5  -4   1 46113.1 1688.30   1
   5   4  -1 46642.9 1681.96   8
  -5  -4   1 46035.5 1607.88   4
  -5  -4   0 23556.6 1150.45   1
  -5  -4   0 23357.9 810.732  10
   5   4   0 24394.9 1149.47   8
  -5  -4   0 24336.0 824.639  12
  -5  -4  -1 115839. 1870.17  10
   5   4   1 112790. 2319.53   8
  -5  -4  -1 113913. 1847.38  12
  -5  -4  -1 109768. 2388.63   1
  -5  -4  -2 225998. 2742.84  10
   5   4   2 228881. 3119.82   8
  -5  -4  -2 229651. 3291.64   1
  -5  -4  -2 226580. 2741.05  12
   5   4   2 235942. 1633.04   6
   5   4   3 130.425 76.0948   6
  -5  -4  -3 12.1821 70.0445  10
   5   4   3 173.178 133.229   9
  -5  -4  -3 100.750 115.528   1
   5   4   3-32.5985 87.8370   8
  -5  -4  -3 98.6103 93.7052  12
  -5  -4  -4 45360.0 1401.00   1
  -5  -4  -4 43713.7 1315.25  10
   5   4   4 42933.0 1366.66   9
   5   4   4 44518.0 1188.47   8
  -5  -4  -4 43353.7 1304.79  12
   5   4   4 44597.3 1081.09   6
  -5  -4  -5 15130.1 808.408  10
   5   4   5 14311.9 787.580   9
   5   4   5 14728.7 633.884   8
  -5  -4  -5 15545.0 818.401  12
   5   4   5 14508.2 688.562   6
  -5  -4  -5 15991.2 844.045   1
  -5  -4  -6 23301.0 1046.33  10
   5   4   6 23880.5 1007.71   9
   5   4   6 24457.6 737.578   8
  -5  -4  -6 22066.7 1008.11   1
  -5  -4  -6 23227.4 1035.50  12
   5   4   6 23196.9 959.480   6
  -5  -4  -7 40660.4 1431.93  10
   5   4   7 40032.9 1288.00   9
  -5  -4  -7 41286.6 1422.76   1
  -5  -4  -7 39194.4 1401.49  12
   5   4   7 41189.0 1378.16   6
   5   4   8 461.795 181.508   6
  -5  -4  -8 306.238 135.271  10
  -5  -4  -8 273.368 113.360   3
   5   4   8 359.462 141.357   9
  -5  -4  -8 400.783 158.258  12
  -5  -4  -8 306.885 145.339   1
  -5  -4  -9 46973.0 1665.96  10
  -5  -4  -9 46791.0 1463.76   3
  -5  -4  -9 49183.9 1739.18   5
   5   4   9 48023.1 1390.95   9
  -5  -4  -9 47376.8 1665.04  12
   5   4   9 47043.9 1699.78   6
  -5  -4  -9 46590.4 1686.25  11
  -5  -4 -10 2786.20 434.796  10
  -5  -4 -10 2275.32 358.524   3
  -5  -4 -10 2376.40 419.375   5
  -5  -4 -10 2648.08 418.339  12
   5   4  10 2708.27 462.649   6
  -5  -4 -10 2581.49 438.822  11
  -5  -5   2 1299.99 302.871   4
  -5  -5   1 4237.55 548.712   1
   5   5  -1 4791.42 575.193   8
  -5  -5   1 4765.15 543.028   4
   5   5   0 33.7720 112.341   8
  -5  -5   0 75.5426 95.3985   4
  -5  -5   0 167.325 158.415   1
  -5  -5  -1 16782.9 789.520  10
   5   5   1 16369.0 947.167   8
  -5  -5  -1 16160.4 769.529  12
  -5  -5  -1 16084.9 958.327   1
  -5  -5  -2 96586.5 1923.50  10
   5   5   2 94092.1 2156.38   8
  -5  -5  -2 93688.0 2236.39   1
  -5  -5  -2 92752.0 1875.93  12
  -5  -5  -3 186028. 2758.98  10
  -5  -5  -3 192989. 3080.93   1
   5   5   3 184082. 2867.06   8
  -5  -5  -3 186275. 2751.23  12
   5   5   4 576.071 141.266   6
  -5  -5  -4 448.402 164.925  10
  -5  -5  -4 501.360 166.048   1
   5   5   4 596.365 171.672   8
  -5  -5  -4 560.818 164.529  12
   5   5   5 518.371 134.245   6
  -5  -5  -5 176.552 102.513  10
   5   5   5 216.654 112.679   8
  -5  -5  -5 322.152 142.194  12
  -5  -5  -5 364.851 158.816   1
  -5  -5  -6 22937.3 1079.06  10
   5   5   6 23991.5 857.335   8
  -5  -5  -6 23531.7 1046.65   1
  -5  -5  -6 23148.1 1077.43  12
   5   5   6 23447.2 972.999   6
  -5  -5  -7 22111.5 1086.71  10
   5   5   7 22646.8 791.461   8
  -5  -5  -7 20245.5 1001.94   1
   5   5   7 22734.6 1031.00   6
  -5  -5  -7 21605.3 1068.77  12
  -5  -5  -8 4328.00 500.006  10
  -5  -5  -8 4703.82 500.305   1
  -5  -5  -8 4100.91 482.640  12
   5   5   8 4115.66 476.796   6
  -5  -5  -9 43721.1 1627.90  10
  -5  -5  -9 44771.8 1593.05   1
  -5  -5  -9 41821.8 1659.09   5
  -5  -5  -9 44214.9 1631.95  12
   5   5   9 43554.8 1643.50   6
  -5  -5  -9 44932.2 1640.83  11
  -5  -5 -10 3148.59 476.657  10
  -5  -5 -10 3365.86 483.412  12
  -5  -5 -10 3345.31 482.444  11
  -5  -6   1 2555.69 396.961   4
   5   6   0 44943.3 1763.17   8
  -5  -6   0 43758.0 1562.65   4
  -5  -6   0 43952.0 1748.55   1
  -5  -6  -1 33155.3 1198.78  10
   5   6   1 33363.6 1438.77   8
  -5  -6  -1 32747.1 1188.51  12
  -5  -6  -1 31945.5 1422.06   1
  -5  -6  -2 134730. 2455.35  10
   5   6   2 139957. 2782.56   8
  -5  -6  -2 140805. 2830.23   1
  -5  -6  -2 138599. 2484.29  12
  -5  -6  -3 102050. 2178.87  10
  -5  -6  -3 105990. 2375.40   1
   5   6   3 101286. 2280.38   8
  -5  -6  -3 101317. 2163.01  12
  -5  -6  -4 10426.0 714.084  10
  -5  -6  -4 10739.1 742.033   1
   5   6   4 11004.8 721.901   8
  -5  -6  -4 10324.6 707.643  12
   5   6   4 11771.1 614.774   6
  -5  -6  -5 3635.97 439.906  10
   5   6   5 3736.82 407.152   8
  -5  -6  -5 3624.04 434.825  12
   5   6   5 3980.77 388.247   6
  -5  -6  -5 3536.45 424.771   1
  -5  -6  -6 16857.8 960.373  10
   5   6   6 16963.4 813.537   8
  -5  -6  -6 16554.4 946.303  12
  -5  -6  -6 16107.2 891.208   1
   5   6   6 17308.6 865.815   6
  -5  -6  -7 19639.6 1067.20  10
   5   6   7 19205.3 834.992   8
  -5  -6  -7 18806.3 972.897   1
  -5  -6  -7 18847.7 1038.24  12
   5   6   7 18656.5 957.002   6
  -5  -6  -8 5088.09 561.395  10
  -5  -6  -8 4478.62 487.652   1
  -5  -6  -8 4865.51 547.084  12
   5   6   8 4075.53 480.492   6
   5   6   9 860.154 256.728   6
  -5  -6  -9 932.907 256.197  10
  -5  -6  -9 1027.51 276.404   5
  -5  -6  -9 892.420 244.048  12
  -5  -6  -9 1123.87 276.084  11
  -5  -6  -9 1023.71 244.824   1
  -5  -6 -10 10592.3 838.620  11
  -5  -7  -1 919.689 268.798   1
   5   7   1 477.867 210.345   8
  -5  -7  -1 339.221 131.095   4
  -5  -7  -2 79089.4 2033.00  10
   5   7   2 81340.8 2298.82   8
  -5  -7  -2 79554.1 2259.19   1
  -5  -7  -2 78449.5 2015.64  12
  -5  -7  -3 58952.5 1781.39  10
  -5  -7  -3 60181.7 1878.48   1
   5   7   3 60572.4 1901.27   8
  -5  -7  -3 61048.1 1800.83  12
  -5  -7  -4 10480.8 761.085  10
  -5  -7  -4 10299.4 755.730   1
   5   7   4 10708.2 770.635   8
  -5  -7  -4 10524.6 753.745  12
  -5  -7  -5 9469.53 708.463   1
  -5  -7  -5 8941.52 717.893  10
   5   7   5 9674.48 704.117   8
  -5  -7  -5 10414.0 770.404  12
   5   7   5 9751.77 644.502   6
  -5  -7  -6 7628.84 677.214  10
   5   7   6 7872.81 615.394   8
  -5  -7  -6 7856.64 683.773  12
  -5  -7  -6 7589.76 627.434   1
   5   7   6 7536.40 600.709   6
  -5  -7  -7 25068.4 1252.46  10
   5   7   7 23811.6 1029.92   8
  -5  -7  -7 24618.7 1137.07   1
  -5  -7  -7 23533.7 1203.67  12
   5   7   7 24407.2 1145.39   6
  -5  -7  -8 35254.5 1515.87  10
   5   7   8 35444.8 1502.86   2
  -5  -7  -8 36383.6 1405.46   1
  -5  -7  -8 36355.1 1530.21  12
   5   7   8 39842.8 1553.79   6
   5   7   9 10644.5 828.244   2
  -5  -7  -9 11180.8 781.677   1
   5   7   9 11766.4 895.312   6
  -5  -7  -9 10551.3 782.831  11
  -5  -7 -10 4218.05 505.370  11
  -5  -8  -2 54703.9 1743.78  10
  -5  -8  -2 55233.3 1967.53   1
  -5  -8  -2 55216.9 1739.63  12
  -5  -8  -3 43435.6 1615.01  10
  -5  -8  -3 43277.1 1681.53   1
   5   8   3 44965.3 1763.55   8
  -5  -8  -3 43813.6 1611.08  12
  -5  -8  -4 4915.12 561.335  10
  -5  -8  -4 4705.23 540.007   1
   5   8   4 6263.65 641.975   8
  -5  -8  -4 5264.00 580.827  12
  -5  -8  -5 204.526 151.536   1
  -5  -8  -5 275.061 162.801  10
   5   8   5-24.6520 123.392   8
  -5  -8  -5 77.6847 132.825  12
   5   8   6 936.058 236.009   6
  -5  -8  -6 1089.05 278.303  10
   5   8   6 986.919 251.882   8
  -5  -8  -6 929.522 235.804   1
  -5  -8  -6 1131.82 282.459  12
  -5  -8  -7 42245.5 1704.69  10
   5   8   7 43313.8 1503.78   8
  -5  -8  -7 43412.6 1532.11   1
  -5  -8  -7 44360.1 1737.34  12
   5   8   7 43693.7 1583.80   6
  -5  -8  -8 3338.68 506.117   5
   5   8   8 3271.73 465.374   6
  -5  -9  -4 9870.21 784.676   1
  -5  -9  -5 19238.2 1062.39   1
   5   9   6 4389.25 534.981   8
   5   9   7 2984.05 426.885   6
   5   9   7 3057.99 429.003   8
   6  -8  -2 33214.7 1434.64   9
  -6   8   1 2028.27 369.681  10
  -6   8   0 3095.39 466.525   2
  -6   8  -1 23908.1 1187.07   2
  -6   7   3 6380.88 618.980   6
  -6   7   2 11403.9 847.831   6
   6  -7  -2 11216.5 808.952   9
  -6   7   1 52670.4 1838.85   6
   6  -7  -1 53194.8 1834.97   9
  -6   7   1 54776.3 1950.62   2
  -6   7   1 54832.0 1735.68  10
  -6   7   0 41049.3 1644.94   6
   6  -7   0 39998.2 1635.83   9
  -6   7   0 42224.7 1659.96   2
  -6   7   0 40758.5 1579.26  10
  -6   7  -1 19322.6 1154.88   6
   6  -7   1 17464.9 1104.83   9
  -6   7  -1 18681.5 1053.43   2
  -6   7  -1 18765.4 1107.25  10
  -6   7  -2 19160.1 1170.78   6
   6  -7   2 19208.7 1185.52   9
  -6   7  -2 18307.3 976.459   2
  -6   7  -2 18622.6 1145.03  10
  -6   6   3 23086.2 1107.70   6
  -6   6   2 27520.4 1237.16   6
   6  -6  -2 27405.2 1197.96   9
  -6   6   2 28779.0 1395.96   2
  -6   6   1 2435.84 380.763   6
  -6   6   1 2160.40 378.017   2
   6  -6  -1 2699.75 399.881   9
  -6   6   1 2250.01 344.961  10
  -6   6   0 14301.1 905.961   6
   6  -6   0 14851.5 928.911   9
  -6   6   0 14799.1 933.186   2
  -6   6   0 15211.2 893.538  10
  -6   6  -1 10392.4 785.616   6
   6  -6   1 10445.5 798.286   9
  -6   6  -1 11433.6 794.053   2
  -6   6  -1 10920.9 783.676  10
  -6   6  -2 40521.2 1571.92   6
   6  -6   2 39678.7 1577.91   9
  -6   6  -2 39358.3 1420.39   2
  -6   6  -2 38516.2 1514.29  10
  -6   6  -3 35717.5 1541.59   6
   6  -6   3 34056.5 1512.58   9
  -6   6  -3 34872.7 1512.68   3
  -6   6  -3 36238.4 1527.86  10
  -6   6  -4 275.142 170.254   3
  -6   6  -4 224.955 156.797  10
   6  -6   4 321.473 201.936   9
  -6   5   4 27315.5 1190.15   7
  -6   5   3 71061.1 1837.65   4
  -6   5   3 70957.6 2210.90   2
  -6   5   3 70710.9 1795.29   6
  -6   5   2 3964.70 436.130   6
   6  -5  -2 3872.11 431.090   9
  -6   5   2 3275.16 462.918   2
  -6   5   1 49172.0 1516.05   6
   6  -5  -1 48379.7 1532.74   9
  -6   5   1 50418.9 1744.24   2
  -6   5   1 51289.5 1440.93  10
  -6   5   0 51245.8 1568.03   6
   6  -5   0 52382.5 1647.09   9
  -6   5   0 52038.3 1702.32   2
  -6   5   0 52839.6 1528.49  10
  -6   5  -1 43937.8 1485.86   6
   6  -5   1 46666.3 1590.72   9
  -6   5  -1 45844.1 1531.91   2
  -6   5  -1 45417.4 1474.87  10
  -6   5  -2 799.942 231.238   6
  -6   5  -2 475.917 179.961  10
  -6   5  -2 669.885 187.314   2
   6  -5   2 543.632 206.431   9
  -6   5  -3 36925.2 1450.50   6
   6  -5   3 37275.5 1490.22   9
  -6   5  -3 35938.0 1226.27   2
  -6   5  -3 36000.6 1432.28  10
   6  -5   4 66459.3 2028.41   9
  -6   5  -4 66345.9 1997.54   3
  -6   5  -4 67520.2 2032.68  10
   6  -5   5 76416.1 2247.46   9
  -6   5  -5 76580.9 2249.35   3
  -6   5  -5 78716.0 2307.61  10
   6  -5   6 480.267 207.480   9
  -6   4   4 11209.6 818.907   4
  -6   4   4 12218.9 820.671   7
  -6   4   4 12307.0 937.709   2
  -6   4   3 22020.8 1081.58   4
  -6   4   3 23858.8 1061.19   7
  -6   4   3 21766.4 1201.19   2
  -6   4   2 81819.0 1797.96   6
   6  -4  -2 80643.1 1845.05   9
  -6   4   2 81488.9 1768.19   7
  -6   4   2 81501.9 2225.81   2
  -6   4   1 144.814 101.380   6
  -6   4   1 473.333 134.929  10
  -6   4   1 116.279 117.858   2
   6  -4  -1 103.493 120.581   9
  -6   4   0 15386.5 794.719   6
   6  -4   0 14920.5 832.120   9
  -6   4   0 15097.4 625.280   1
  -6   4   0 14229.2 871.317   2
  -6   4   0 15166.6 753.142  10
  -6   4  -1 29059.6 1114.20   6
   6  -4   1 30311.5 1221.63   9
  -6   4  -1 31297.7 943.825   1
  -6   4  -1 29380.2 1191.11   2
  -6   4  -1 28684.8 1093.20  10
  -6   4  -2 45054.5 1455.70   6
  -6   4  -2 46114.1 1223.42   1
   6  -4   2 46636.6 1552.18   9
  -6   4  -2 45568.5 1416.22   2
  -6   4  -2 47151.7 1478.64  10
   6  -4   3 92390.0 2225.49   9
  -6   4  -3 92458.7 1906.04   2
  -6   4  -3 90375.1 2161.80  10
   6  -4   4 72557.9 2021.21   9
  -6   4  -4 73556.8 1942.10   3
  -6   4  -4 77175.5 1638.30   2
  -6   4  -4 73018.3 1677.38  11
  -6   4  -4 73837.1 2003.49  10
   6  -4   5 4675.81 533.133   9
  -6   4  -5 4838.20 525.894   3
  -6   4  -5 5161.76 480.367  11
  -6   4  -5 5300.08 576.644  10
   6  -4   6 61755.5 1957.83   9
  -6   4  -6 61434.6 2004.13   3
  -6   4  -6 62528.2 1758.18  11
  -6   4  -6 59480.9 1992.95  10
   6  -4   7 41070.4 1595.11   9
  -6   4  -7 40932.0 1489.94  11
  -6   3   4 8208.68 737.177   4
  -6   3   4 8439.42 694.335   7
  -6   3   4 8196.36 750.476   2
  -6   3   3 110174. 2485.32   4
  -6   3   3 109220. 2304.49   7
  -6   3   3 113326. 2651.34   2
  -6   3   2 42123.6 1171.69   1
   6  -3  -2 39760.6 1230.50   9
  -6   3   2 40868.2 1269.50   7
  -6   3   2 39807.6 1522.11   2
  -6   3   1 3306.02 325.425   6
   6  -3  -1 3175.95 359.383   9
  -6   3   1 3323.49 326.178   7
  -6   3   1 3295.09 285.560  10
  -6   3   1 3331.58 324.225   1
  -6   3   1 3158.15 426.539   2
  -6   3   0 20469.6 1028.14   2
  -6   3   0 18968.9 794.775   6
   6  -3   0 18086.3 879.773   9
  -6   3   0 19866.3 651.645   7
  -6   3   0 19662.0 757.499   1
  -6   3   0 18759.3 755.368  10
  -6   3  -1 1387.72 232.186   6
  -6   3  -1 1436.60 231.376  10
  -6   3  -1 1460.71 278.626   2
   6  -3   1 1182.55 245.660   9
  -6   3  -2 8393.92 602.336   2
  -6   3  -2 7362.80 545.466   6
   6  -3   2 7684.96 601.048   9
  -6   3  -2 7773.37 514.008   1
  -6   3  -2 7579.95 565.181  10
   6  -3   3 19478.4 978.820   9
  -6   3  -3 18545.1 836.291   1
  -6   3  -3 18075.6 911.879  10
  -6   3  -3 17040.4 812.717   2
   6  -3   4 6929.95 591.647   9
  -6   3  -4 7014.22 556.609   3
  -6   3  -4 6456.77 465.467   2
  -6   3  -4 6537.32 577.926  10
   6  -3   5 87572.2 2135.59   9
  -6   3  -5 85100.4 2041.13   3
  -6   3  -5 88400.9 1606.85   2
  -6   3  -5 84317.5 1919.24  11
  -6   3  -5 85649.5 2165.02  10
  -6   3  -6 1933.14 336.869   3
  -6   3  -6 1793.23 337.883  10
   6  -3   6 1770.45 315.659   9
  -6   3  -6 2234.41 344.108  11
  -6   3  -7-1.30223 111.875   3
  -6   3  -7 95.9989 122.914  10
   6  -3   7 380.636 161.777   9
  -6   3  -7 337.720 153.917  11
   6  -3   8 11556.9 817.931   9
  -6   3  -8 13120.6 899.520  11
  -6   2   4 2309.33 401.465   2
  -6   2   4 2743.27 443.576   4
  -6   2   4 2528.66 405.247   7
  -6   2   3 10162.7 782.803   4
  -6   2   3 9926.87 658.807   1
  -6   2   3 10515.1 734.174   7
  -6   2   3 10220.8 788.895   2
   6  -2  -2 29430.1 1027.55   9
  -6   2   2 31950.6 1118.69   1
  -6   2   2 29732.6 1107.43   7
  -6   2   1 1763.31 204.519   6
  -6   2   1 1955.46 271.253   1
   6  -2  -1 2160.38 293.729   9
  -6   2   1 1895.31 253.623   7
  -6   2   0 1831.31 259.758   1
  -6   2   0 1315.80 187.578   6
   6  -2   0 1090.87 215.377   9
  -6   2   0 1367.41 186.783   7
  -6   2   0 1263.05 184.059  10
  -6   2  -1 16843.1 698.314   6
   6  -2   1 17344.0 846.935   9
  -6   2  -1 16798.0 487.836   7
  -6   2  -1 16471.1 746.000   1
  -6   2  -1 17075.8 719.528  10
   6  -2   2 339892. 3861.91   9
  -6   2  -2 349245. 3480.09   1
  -6   2  -2 342220. 3501.18  10
   6  -2   3 317493. 3802.54   9
  -6   2  -3 324278. 3505.98   1
  -6   2  -3 318950. 3600.00  10
  -6   2  -4 23984.0 1046.56  10
   6  -2   4 24063.4 1066.52   9
  -6   2  -4 24115.9 1007.60   1
  -6   2  -4 24020.8 937.363   3
  -6   2  -5 6944.35 595.737  10
  -6   2  -5 6822.37 574.253   1
   6  -2   5 7528.20 614.706   9
  -6   2  -5 7298.64 550.855   3
  -6   2  -6 1593.57 286.715   3
  -6   2  -6 1817.47 332.603  10
   6  -2   6 1569.43 295.896   9
  -6   2  -6 1688.64 301.279  11
   6  -2   7 8579.31 681.414   9
  -6   2  -7 8871.07 707.934   3
  -6   2  -7 9558.77 726.662  11
  -6   2  -7 8586.80 727.536  10
   6  -2   8 64689.4 1865.95   9
  -6   2  -8 65013.3 2049.21   3
  -6   2  -8 62178.0 1987.89  11
  -6   2  -8 65485.9 2109.68  10
  -6   1   4 37072.5 1517.34   7
  -6   1   4 37426.1 1420.26   1
  -6   1   4 37047.8 1530.01   2
  -6   1   3 53063.6 1817.40   4
  -6   1   3 54290.9 1713.88   7
  -6   1   3 54681.0 1669.31   1
   6  -1  -2 70883.0 1585.78   9
  -6   1   2 68729.3 1753.02   1
  -6   1   2 68066.6 1735.93   7
   6  -1  -1 18566.1 824.113   9
  -6   1   1 18167.6 861.307   1
  -6   1   1 18013.7 804.127   7
  -6   1   0 3512.57 370.381   1
   6  -1   0 4032.64 397.183   9
  -6   1   0 3943.49 332.384   7
  -6   1   0 3952.94 286.871  10
  -6   1  -1 17.7419 87.5108   1
   6  -1   1-6.16874 50.0820   6
  -6   1  -1-14.1707 51.7990  10
   6  -1   1 148.267 115.841   9
  -6   1  -1 15.1353 50.6857   7
  -6   1  -2 36068.1 1065.42  10
   6  -1   2 36053.5 1229.85   9
  -6   1  -2 37387.7 602.617   7
  -6   1  -2 35984.3 1148.67   1
  -6   1  -3 26.8864 101.552  10
   6  -1   3 130.257 94.0332   9
  -6   1  -4 27393.4 1072.80  10
   6  -1   4 27105.9 1099.11   9
  -6   1  -4 28673.3 1098.79   1
  -6   1  -4 30127.7 705.706   8
  -6   1  -4 27792.4 904.432   3
  -6   1  -5 18219.0 936.700  10
   6  -1   5 19155.1 939.926   9
  -6   1  -5 18111.2 916.902   1
  -6   1  -5 18900.8 809.702   3
  -6   1  -6 10952.8 759.294  10
  -6   1  -6 12012.7 791.581   1
   6  -1   6 10587.9 713.697   9
  -6   1  -6 10524.1 654.190   3
  -6   1  -7 1093.66 242.030   3
  -6   1  -7 1343.53 286.847  10
   6  -1   7 920.634 209.623   9
  -6   1  -7 831.995 224.357  11
  -6   1  -8 235.209 142.113   3
  -6   1  -8 226.864 141.784  10
   6  -1   8 180.193 117.441   9
  -6   1  -8 224.131 134.201  11
  -6   1  -9 30818.5 1407.31   3
  -6   0   4 937.127 249.339   2
  -6   0   4 597.798 224.356   1
  -6   0   3 8094.03 734.794   4
  -6   0   3 8330.38 703.639   7
  -6   0   3 8702.08 706.818   1
   6   0  -2 7462.92 530.356   9
   6   0  -2 8352.84 709.093   8
  -6   0   2 7989.30 623.898   7
  -6   0   2 7230.86 609.904   1
   6   0  -1 18134.4 819.432   9
   6   0  -1 17885.7 966.786   8
  -6   0   1 18783.6 924.352   1
  -6   0   1 18707.9 857.907   7
  -6   0   0 8694.82 391.043  10
   6   0   0 9530.76 604.837   9
  -6   0   0 7505.11 563.102   1
   6   0   0 7155.89 579.969   8
  -6   0   0 7987.82 507.043   7
  -6   0  -1 5960.28 313.503   3
  -6   0  -1 6417.67 396.533  10
  -6   0  -1 6297.17 507.243   1
   6   0   1 5771.03 483.520   9
   6   0   1 6147.17 497.771   8
  -6   0  -2 121721. 2180.49   1
  -6   0  -2 121340. 1889.58  10
   6   0   2 119402. 2201.33   9
   6   0   2 124990. 1481.67   6
  -6   0  -3 498868. 4137.32  10
   6   0   3 490488. 4490.89   9
  -6   0  -3 500879. 3009.46   3
  -6   0  -4 54355.5 1465.89  10
   6   0   4 54426.4 1529.43   9
  -6   0  -4 55755.3 973.812   8
  -6   0  -4 55298.7 1533.01   1
  -6   0  -4 55643.8 1095.48   3
  -6   0  -5 62818.6 1678.49  10
   6   0   5 61460.2 1654.39   9
  -6   0  -5 62323.1 1701.61   1
  -6   0  -5 66117.1 1338.85   3
  -6   0  -6 51500.4 1589.67  10
  -6   0  -6 49099.0 1589.64   1
   6   0   6 50034.5 1498.44   9
  -6   0  -6 50719.7 1313.66   3
  -6   0  -7 31742.9 1317.88  10
  -6   0  -7 30433.6 1316.68   1
   6   0   7 30227.6 1177.24   9
  -6   0  -7 31783.7 1148.27   3
  -6   0  -8 32944.1 1401.11  10
   6   0   8 33102.8 1270.03   9
  -6   0  -8 32701.3 1251.41   5
  -6   0  -8 35069.0 1455.18  11
  -6   0  -8 33392.0 1305.62   3
  -6   0  -9 38193.5 1601.99  10
  -6   0  -9 38482.8 1363.20   5
  -6   0  -9 38085.9 1635.57  11
  -6   0  -9 36657.5 1482.33   3
  -6  -1   3 28659.4 1361.34   1
  -6  -1   3 29017.2 1428.25   4
   6   1  -3 28056.6 1417.58   8
  -6  -1   3 28637.5 1345.58   7
   6   1  -2 116373. 2681.49   8
  -6  -1   2 115343. 2666.51   4
  -6  -1   2 110456. 2423.93   7
  -6  -1   2 114769. 2548.66   1
   6   1  -1 174480. 2611.67   9
   6   1  -1 176244. 3110.10   8
  -6  -1   1 173375. 2989.38   1
  -6  -1   0 11309.8 438.104  10
   6   1   0 10689.9 652.577   9
  -6  -1   0 10921.7 720.854   1
   6   1   0 10895.9 729.077   8
  -6  -1  -1 18325.4 653.713  10
  -6  -1  -1 17834.0 889.836   1
   6   1   1 18755.9 868.256   9
   6   1   1 17362.7 852.106   8
  -6  -1  -2 62449.8 1332.57  10
  -6  -1  -2 62013.4 1635.35   1
   6   1   2 62641.8 1598.36   9
   6   1   2 62390.3 1483.71   8
  -6  -1  -2 62846.1 1327.69  12
  -6  -1  -2 62981.8 711.889   3
   6   1   2 63633.5 887.650   6
  -6  -1  -3 94.5085 34.3442   3
   6   1   3 40.3411 41.7207   6
  -6  -1  -3 244.183 122.816  10
   6   1   3-22.9462 102.688   9
   6   1   3 279.408 104.749   8
  -6  -1  -3 231.028 114.717  12
  -6  -1  -3 281.264 166.216   1
  -6  -1  -4 5494.06 467.103  10
   6   1   4 5010.01 466.636   9
  -6  -1  -4 5285.45 319.080   8
   6   1   4 5682.77 348.860   8
  -6  -1  -4 5444.04 459.936  12
  -6  -1  -4 6080.40 522.096   1
  -6  -1  -4 5887.07 281.215   3
  -6  -1  -5 36.7675 50.3150   3
  -6  -1  -5 18.9215 92.8690  10
   6   1   5-27.1850 81.8918   9
  -6  -1  -5 10.5686 92.3058  12
  -6  -1  -5 60.3528 42.0210   7
  -6  -1  -6 96049.2 2158.72  10
   6   1   6 98753.0 2065.82   9
  -6  -1  -6 97884.1 2220.58   1
  -6  -1  -6 99040.3 1664.87   3
  -6  -1  -7 102378. 2351.43  10
  -6  -1  -7 99849.1 2355.80   1
   6   1   7 97930.3 2096.01   9
  -6  -1  -7 102166. 1908.49   3
  -6  -1  -8 37575.6 1477.28  10
   6   1   8 36471.8 1304.34   9
  -6  -1  -8 38159.0 1513.00  11
  -6  -1  -8 36971.8 1290.44   3
  -6  -1  -9 38260.0 1562.49  10
   6   1   9 37345.3 1307.15   9
  -6  -1  -9 37449.6 1440.44   5
  -6  -1  -9 38268.1 1604.31  11
  -6  -1  -9 38782.8 1445.51   3
  -6  -1 -10-217.773 145.435   3
  -6  -1 -10-64.4838 131.927   5
   6   2  -2 884.244 257.755   8
  -6  -2   2 781.123 245.196   4
  -6  -2   2 651.067 235.796   1
   6   2  -1 10098.7 773.265   8
  -6  -2   1 9713.76 760.527   1
   6   2   0 157152. 2576.78   9
   6   2   0 153781. 2822.79   8
  -6  -2   0 152322. 2844.41   1
  -6  -2  -1 6869.41 414.877  10
   6   2   1 6565.35 539.144   9
  -6  -2  -1 6453.12 568.124   1
   6   2   1 6451.51 549.191   8
  -6  -2  -1 6512.23 403.904  12
  -6  -2  -2 192857. 2370.99  10
  -6  -2  -2 191498. 2986.20   1
   6   2   2 190032. 2850.09   9
   6   2   2 192758. 2725.01   8
  -6  -2  -2 191953. 2357.57  12
   6   2   2 192151. 1101.29   6
  -6  -2  -3 123483. 2042.15  10
   6   2   3 128437. 1447.62   6
  -6  -2  -3 118133. 2340.64   1
   6   2   3 118296. 2259.25   9
   6   2   3 121569. 1970.87   8
  -6  -2  -3 119944. 2002.68  12
   6   2   3 123808. 1471.44   6
  -6  -2  -4 25804.1 999.654  10
   6   2   4 26087.2 1065.84   9
   6   2   4 27649.2 841.203   8
  -6  -2  -4 26234.3 1001.56  12
  -6  -2  -4 26308.5 1100.56   1
  -6  -2  -5 135164. 2416.20  10
   6   2   5 132302. 2419.95   9
   6   2   5 141295. 1631.49   8
  -6  -2  -5 139739. 2590.46   1
  -6  -2  -5 138880. 2438.26  12
  -6  -2  -5 144026. 1344.93   3
  -6  -2  -6 251118. 3452.37  10
   6   2   6 253035. 3334.15   9
  -6  -2  -6 243848. 3539.67   1
  -6  -2  -6 250524. 3423.49  12
  -6  -2  -6 258990. 2371.96   3
  -6  -2  -7 3569.54 438.587  10
   6   2   7 2649.81 352.229   9
  -6  -2  -7 2468.07 383.660   1
  -6  -2  -7 3126.75 405.719  12
  -6  -2  -7 2659.88 289.619   3
  -6  -2  -8 142243. 2847.29  10
  -6  -2  -8 143931. 2908.13   1
  -6  -2  -8 142278. 2361.66   3
  -6  -2  -9 5983.66 617.279  10
   6   2   9 5607.26 512.155   9
  -6  -2  -9 5988.51 602.782   5
  -6  -2  -9 5616.38 608.646  11
  -6  -2  -9 5225.75 509.722   3
  -6  -2 -10 351.395 162.503   3
  -6  -2 -10 267.455 185.882  10
  -6  -2 -10 116.084 135.199   5
  -6  -3   2 50461.4 1908.04   1
  -6  -3   2 52928.3 1933.52   4
   6   3  -1 118936. 2730.03   8
  -6  -3   1 119797. 2771.22   1
   6   3   0 21488.7 1096.85   8
  -6  -3   0 21116.6 1115.68   1
  -6  -3  -1 38791.7 1047.39  10
   6   3   1 38677.3 1335.76   9
   6   3   1 39319.4 1407.09   8
  -6  -3  -1 39774.1 1471.50   1
  -6  -3  -1 38719.5 1037.43  12
  -6  -3  -2 23080.6 853.660  10
  -6  -3  -2 22429.9 1073.53   1
   6   3   2 22648.1 1031.79   9
   6   3   2 21839.0 983.441   8
  -6  -3  -2 23530.3 858.919  12
  -6  -3  -3 9461.64 582.386  10
  -6  -3  -3 9792.79 698.868   1
   6   3   3 9838.00 681.834   9
   6   3   3 9516.81 600.330   8
  -6  -3  -3 10088.5 603.278  12
   6   3   3 10403.8 399.121   6
  -6  -3  -4 62350.2 1573.47  10
   6   3   4 63096.0 1711.49   9
   6   3   4 63449.9 1405.01   8
  -6  -3  -4 62984.2 1573.76  12
   6   3   4 64220.7 1235.80   6
  -6  -3  -4 61982.6 1734.01   1
  -6  -3  -5 5760.98 506.299  10
   6   3   5 5635.23 516.160   9
   6   3   5 6063.94 389.743   8
  -6  -3  -5 6191.19 523.029  12
   6   3   5 5789.58 429.912   6
  -6  -3  -5 6339.28 572.036   1
  -6  -3  -6 79343.8 1961.59  10
  -6  -3  -6 82281.3 1131.39   3
   6   3   6 77388.2 1895.22   9
   6   3   6 84440.3 1228.13   8
  -6  -3  -6 78326.2 2022.66   1
  -6  -3  -6 81616.0 1980.47  12
   6   3   6 80162.6 1767.50   6
  -6  -3  -7 96246.9 1582.84   3
  -6  -3  -7 91895.1 2209.52  10
   6   3   7 90986.6 2057.86   9
  -6  -3  -7 93652.9 2257.70   1
  -6  -3  -7 90626.3 2180.26  12
   6   3   7 91469.7 2043.52   6
  -6  -3  -8 5179.43 429.248   3
  -6  -3  -8 3624.07 463.703  10
  -6  -3  -8 4301.93 508.184   1
   6   3   8 4038.36 439.605   9
  -6  -3  -8 4031.67 487.438  12
   6   3   8 4112.54 478.267   6
  -6  -3  -9 30098.6 1149.96   3
  -6  -3  -9 31561.1 1408.42  10
  -6  -3  -9 29738.9 1378.07   1
  -6  -3  -9 30082.5 1366.66   5
   6   3   9 28606.5 1162.34   9
  -6  -3  -9 30735.7 1385.01  12
   6   3   9 31746.7 1402.02   6
  -6  -3  -9 28451.0 1357.12  11
  -6  -3 -10 1069.58 295.108  10
  -6  -3 -10 1867.87 327.231   3
  -6  -3 -10 1782.79 359.034   5
   6   4  -1 12005.5 918.950   8
  -6  -4   1 11753.4 892.497   4
  -6  -4   1 11426.8 904.460   1
   6   4   0 9465.45 773.212   8
  -6  -4   0 10022.2 814.489   1
  -6  -4  -1 56645.0 1356.04  10
   6   4   1 54143.9 1732.43   8
  -6  -4  -1 57226.7 1849.22   1
  -6  -4  -1 54306.5 1321.44  12
  -6  -4  -2 3990.73 380.377  10
  -6  -4  -2 3546.67 452.258   1
   6   4   2 3632.83 429.994   8
  -6  -4  -2 3522.69 353.602  12
  -6  -4  -3 54355.7 1456.37  10
  -6  -4  -3 55248.4 1720.84   1
   6   4   3 55385.3 1665.46   9
   6   4   3 54392.8 1540.94   8
  -6  -4  -3 52345.8 1419.98  12
  -6  -4  -4 41879.1 1342.64  10
  -6  -4  -4 42668.4 1485.17   1
   6   4   4 41190.5 1438.19   9
   6   4   4 42951.3 1272.72   8
  -6  -4  -4 40699.7 1311.93  12
   6   4   4 44040.1 1018.09   6
  -6  -4  -5 204286. 3078.91  10
   6   4   5 207036. 3209.76   9
   6   4   5 211367. 2579.73   8
  -6  -4  -5 201493. 3045.26  12
   6   4   5 206868. 2528.69   6
  -6  -4  -5 205605. 3262.71   1
  -6  -4  -6 59098.2 1727.36  10
   6   4   6 60420.0 1737.89   9
   6   4   6 62520.7 1267.28   8
  -6  -4  -6 59563.5 1783.38   1
  -6  -4  -6 61049.0 1746.49  12
   6   4   6 60148.0 1513.28   6
   6   4   7 99.5915 104.817   6
  -6  -4  -7 190.983 151.951  10
  -6  -4  -7 127.691 141.599   1
   6   4   7 483.172 191.044   9
  -6  -4  -7 215.084 148.555  12
  -6  -4  -8 1268.45 277.732   1
   6   4   8 1532.73 298.117   6
  -6  -4  -8 1763.71 325.771  10
   6   4   8 1676.46 297.278   9
  -6  -4  -8 1409.73 290.636  12
  -6  -4  -9 22710.6 1194.91  10
  -6  -4  -9 22778.9 1199.60   1
   6   4   9 20583.5 1013.41   9
  -6  -4  -9 22827.8 1197.72  12
   6   4   9 22841.1 1182.91   6
  -6  -4  -9 20360.6 1156.20  11
  -6  -4 -10 18314.0 1145.92   5
  -6  -5   0 390.045 213.868   1
   6   5   0 326.307 157.792   8
  -6  -5   0 401.540 176.085   4
  -6  -5  -1 326.168 174.470   1
   6   5   1 651.402 235.412   8
  -6  -5  -2 25266.6 1027.81  10
  -6  -5  -2 23968.2 1207.77   1
   6   5   2 25958.6 1201.61   8
  -6  -5  -2 23784.2 986.333  12
  -6  -5  -3 2443.26 331.780  10
  -6  -5  -3 2468.00 393.518   1
   6   5   3 2445.66 358.260   8
  -6  -5  -3 2316.87 322.064  12
  -6  -5  -4 137303. 2519.82  10
  -6  -5  -4 139820. 2784.03   1
   6   5   4 141991. 2493.96   8
  -6  -5  -4 134766. 2490.59  12
   6   5   5 97.2606 111.186   6
  -6  -5  -5 130.879 104.381  10
   6   5   5 20.9672 114.410   9
   6   5   5 144.550 95.8326   8
  -6  -5  -5 159.232 115.425  12
  -6  -5  -5 180.531 151.298   1
  -6  -5  -6 187954. 3173.19  10
   6   5   6 196628. 3228.63   9
   6   5   6 199100. 2585.14   8
  -6  -5  -6 189982. 3172.27  12
  -6  -5  -6 195286. 3267.72   1
   6   5   6 196007. 2767.45   6
  -6  -5  -7 17555.7 999.627  10
   6   5   7 17350.0 961.102   9
  -6  -5  -7 17425.6 997.135   1
  -6  -5  -7 18788.8 1025.30  12
   6   5   7 18124.7 909.358   6
   6   5   8 68.8663 82.1158   6
  -6  -5  -8 51.8070 113.423   1
  -6  -5  -8 36.6937 90.2796  10
   6   5   8 27.1032 116.977   9
  -6  -5  -8 42.5714 95.7105  12
  -6  -5  -9 17500.4 1073.26  10
  -6  -5  -9 18774.2 1093.72   1
  -6  -5  -9 18919.7 1116.59  12
   6   5   9 18192.0 1069.16   6
  -6  -5 -10 14847.2 996.765   1
  -6  -6   0 13659.0 912.910   4
   6   6   1 6612.28 685.782   8
  -6  -6  -1 6903.03 712.583   1
  -6  -6  -2 12677.4 765.637  10
  -6  -6  -2 12376.6 909.550   1
   6   6   2 11981.2 877.945   8
  -6  -6  -2 11961.4 738.289  12
  -6  -6  -3 13615.2 824.464  10
  -6  -6  -3 14735.2 963.637   1
   6   6   3 14134.7 905.933   8
  -6  -6  -3 13123.6 808.649  12
  -6  -6  -4 12860.5 815.154  10
  -6  -6  -4 12951.3 882.189   1
   6   6   4 15555.8 893.324   8
  -6  -6  -4 14140.0 845.178  12
  -6  -6  -5 59686.9 1854.76   1
  -6  -6  -5 58379.7 1782.80  10
   6   6   5 61420.7 1693.48   8
  -6  -6  -5 59135.6 1786.05  12
  -6  -6  -6 112855. 2533.95  10
   6   6   6 113555. 2199.14   8
  -6  -6  -6 112098. 2518.95  12
  -6  -6  -6 108551. 2482.25   1
   6   6   6 112715. 2191.96   6
   6   6   7 352.649 147.614   6
  -6  -6  -7 121.566 109.566  10
  -6  -6  -7-7.20380 127.961   1
  -6  -6  -7 45.5712 96.5455  12
   6   6   8 71.2179 99.8512   6
  -6  -6  -8 245.551 136.009  10
  -6  -6  -8 339.122 146.336   1
  -6  -6  -8 319.115 172.001  12
  -6  -6  -9 5793.02 646.265  10
  -6  -6  -9 6491.72 646.505   1
  -6  -6  -9 6077.58 651.149  12
   6   6   9 7001.06 670.011   6
  -6  -6 -10 53920.6 1867.51   1
  -6  -7  -3 13339.9 855.944  10
  -6  -7  -3 13795.3 979.283   1
   6   7   3 13365.5 946.793   8
  -6  -7  -3 12868.9 841.577  12
  -6  -7  -4 44833.1 1607.60  10
  -6  -7  -4 45808.2 1725.63   1
   6   7   4 46199.5 1687.66   8
  -6  -7  -4 44376.0 1596.68  12
  -6  -7  -5 3561.02 479.328   1
  -6  -7  -5 3394.40 464.969  10
   6   7   5 3939.59 471.470   8
  -6  -7  -5 3260.68 443.947  12
  -6  -7  -6 2067.86 375.089  10
   6   7   6 2221.10 345.389   8
  -6  -7  -6 2264.51 387.203   1
  -6  -7  -6 1962.16 356.911  12
  -6  -7  -7 21793.5 1205.08  10
  -6  -7  -7 21557.3 1155.15   1
  -6  -7  -7 22365.1 1211.27  12
   6   7   7 22630.8 1087.85   6
  -6  -7  -8 20585.2 1209.31  10
  -6  -7  -8 21535.5 1143.74   1
  -6  -7  -8 20240.7 1189.48  12
   6   7   8 21578.5 1120.86   6
  -6  -7  -9 24852.0 1232.98   1
   6   7   9 25575.2 1282.69   6
  -6  -8  -3 5754.17 568.810  10
  -6  -8  -3 5409.85 551.206  12
  -6  -8  -4 47288.6 1710.65  10
  -6  -8  -4 47146.2 1802.35   1
  -6  -8  -4 46949.1 1697.66  12
  -6  -8  -5 146.530 142.342   1
  -6  -8  -5 29.2764 110.526  10
  -6  -8  -5-126.823 162.756  12
   6   8   6 6832.71 632.627   8
  -6  -8  -6 7610.78 701.167   1
  -6  -8  -7 70014.4 2072.81   1
  -6  -8  -8 3766.59 481.535   1
   6   8   8 3604.78 466.556   6
  -7   7   1 42440.7 1635.38   6
  -7   7   0 22104.4 1129.01  10
  -7   7  -1 101072. 2568.32   2
  -7   7  -1 104110. 2579.20  10
  -7   6   1 5130.44 545.002   6
   7  -6  -1 4840.00 540.077   9
  -7   6   0 925.558 255.403   6
  -7   6   0 951.445 239.495  10
   7  -6   0 842.218 236.495   9
  -7   6  -1 292.310 161.755   6
  -7   6  -1 135.617 135.220  10
  -7   6  -1 143.171 143.210   2
   7  -6   1 333.009 198.876   9
  -7   6  -2 279.635 172.422   6
  -7   6  -2 113.131 100.934   2
  -7   6  -2 438.672 201.489  10
   7  -6   2 256.252 194.588   9
  -7   6  -3 368.186 175.453  10
  -7   6  -3 420.259 192.565   3
  -7   5   1 92504.9 2133.36   6
   7  -5  -1 93703.3 2272.14   9
  -7   5   1 97357.7 2577.79   2
  -7   5   0 30148.6 1248.85   6
   7  -5   0 29879.7 1321.69   9
  -7   5   0 31420.9 1413.67   2
  -7   5   0 30142.3 1181.56  10
  -7   5  -1 50004.6 1650.54   6
   7  -5   1 50538.1 1741.76   9
  -7   5  -1 51383.3 1748.15   2
  -7   5  -1 50295.4 1612.51  10
  -7   5  -2 103104. 2429.72   6
   7  -5   2 101647. 2523.28   9
  -7   5  -2 101359. 2373.30   2
  -7   5  -2 100984. 2384.71  10
   7  -5   3 5314.49 600.168   9
  -7   5  -3 5221.93 519.815   2
  -7   5  -3 5633.88 589.577  10
   7  -5   4 28265.3 1396.07   9
  -7   5  -4 27409.3 1326.63   3
  -7   5  -4 28263.2 1372.83  10
  -7   5  -5 5407.92 613.938   3
  -7   4   3 31081.9 1356.44   4
  -7   4   2 12919.1 959.277   2
   7  -4  -1 25564.6 1153.42   9
  -7   4   1 24664.4 1276.64   2
  -7   4   0 499.917 169.976   6
  -7   4   0 651.407 167.048  10
  -7   4   0 341.641 169.104   2
   7  -4   0 313.028 178.710   9
  -7   4  -1 20903.0 984.645   6
   7  -4   1 21241.5 1073.14   9
  -7   4  -1 18936.9 1040.17   2
  -7   4  -1 20048.8 956.547  10
  -7   4  -2 7795.23 620.967   6
   7  -4   2 7366.20 651.606   9
  -7   4  -2 7633.61 534.086   1
  -7   4  -2 7188.05 619.680   2
  -7   4  -2 7254.82 601.985  10
  -7   4  -3 323.388 163.043  10
  -7   4  -3 406.203 164.897   2
   7  -4   3 380.634 185.508   9
   7  -4   4 4269.06 520.611   9
  -7   4  -4 4887.36 520.925   3
  -7   4  -4 4810.74 463.984   2
  -7   4  -4 4704.39 534.281  10
   7  -4   5 25524.9 1281.99   9
  -7   4  -5 24656.8 1219.50   3
  -7   4  -5 25088.6 1084.30  11
  -7   4  -5 24958.6 1278.68  10
   7  -4   6 77804.0 2283.22   9
  -7   4  -6 76887.1 2243.15   3
  -7   4  -6 80708.6 2013.23  11
  -7   4  -6 80017.5 2402.08  10
  -7   3   3 15000.1 994.210   4
  -7   3   2 4434.14 562.840   2
   7  -3  -1 4584.87 475.117   9
  -7   3   1 5822.28 617.018   2
  -7   3   0 31736.6 1060.64   6
   7  -3   0 32205.5 1259.84   9
  -7   3   0 32327.9 1092.87   1
  -7   3   0 32574.9 1028.54  10
  -7   3  -1 146893. 2838.48   2
  -7   3  -1 148558. 2385.00   6
   7  -3   1 145844. 2721.04   9
  -7   3  -1 150018. 2356.32   1
  -7   3  -1 150205. 2400.94  10
   7  -3   2 110865. 2422.59   9
  -7   3  -2 113464. 2108.14   1
  -7   3  -2 108609. 2175.40  10
  -7   3  -3 89.8950 89.8046   1
  -7   3  -3 19.8586 77.9748  10
  -7   3  -3 105.322 90.7966   2
   7  -3   3 211.101 177.302   9
  -7   3  -4 35886.3 1291.51   1
   7  -3   4 37074.5 1450.96   9
  -7   3  -4 36317.7 1292.58   3
  -7   3  -4 36715.6 1247.28   2
  -7   3  -4 36103.1 1392.78  10
   7  -3   5 3054.05 433.174   9
  -7   3  -5 2658.84 371.630   3
  -7   3  -5 2887.67 338.709   2
  -7   3  -5 3081.04 429.144  10
  -7   3  -6 2007.64 370.322  10
   7  -3   6 2434.72 399.807   9
  -7   3  -6 2352.20 371.038   3
  -7   3  -6 2134.71 346.390  11
   7  -3   7 8466.14 745.764   9
  -7   3  -7 8880.58 754.841   3
  -7   3  -7 8639.86 712.805  11
  -7   2   3 33423.7 1535.56   4
  -7   2   3 34756.1 1362.56   7
  -7   2   2 10037.9 822.883   2
  -7   2   2 9490.85 661.934   7
  -7   2   1 381.613 149.451   1
   7  -2  -1 434.719 160.901   9
  -7   2   1 396.538 134.692   7
   7  -2   0 48665.4 1489.31   9
  -7   2   0 52300.3 1476.50   1
  -7   2  -1 39.1730 80.3991  10
   7  -2   1-27.5622 96.8548   9
  -7   2  -1 46.2040 84.0435   1
   7  -2   2 11926.8 777.358   9
  -7   2  -2 11855.4 696.087   1
  -7   2  -2 12217.8 687.695  10
   7  -2   3 4123.36 464.669   9
  -7   2  -3 4437.52 441.218   1
  -7   2  -3 4513.33 450.657  10
   7  -2   4 40868.0 1483.00   9
  -7   2  -4 40778.0 1373.53   1
  -7   2  -4 41509.7 1253.78   3
  -7   2  -4 39710.9 1394.99  10
  -7   2  -5 22629.2 1109.15  10
  -7   2  -5 21140.1 1047.35   1
   7  -2   5 21967.7 1106.77   9
  -7   2  -5 21946.7 966.538   3
  -7   2  -6 64849.1 1968.70  10
   7  -2   6 63380.9 1902.41   9
  -7   2  -6 65206.7 1789.42   3
   7  -2   7 6740.99 647.454   9
  -7   2  -7 7194.80 641.109   3
  -7   2  -7 6832.18 638.149  11
  -7   2  -7 6779.47 671.564  10
   7  -2   8 19660.3 1098.95   9
  -7   2  -8 19697.3 1104.62   3
  -7   2  -8 19480.4 1121.35  11
  -7   1   3 51609.0 1667.42   1
  -7   1   3 50359.2 1678.58   7
  -7   1   2 11809.5 792.093   1
  -7   1   2 11932.6 777.930   7
  -7   1   1 6407.41 563.743   1
   7  -1  -1 6243.18 528.802   9
  -7   1   1 5100.05 462.868   7
  -7   1   0 495.520 168.796   1
   7  -1   0 549.707 167.439   9
  -7   1   0 522.399 147.113   7
  -7   1  -1 68106.4 1718.26   1
   7  -1   1 67030.2 1776.43   9
  -7   1  -1 70361.0 1284.59   7
  -7   1  -1 68227.0 1431.63  10
  -7   1  -2 224325. 2798.59  10
   7  -1   2 216601. 3236.78   9
  -7   1  -2 218222. 3095.41   1
  -7   1  -3 5646.79 481.981  10
   7  -1   3 6244.19 561.340   9
  -7   1  -3 5289.14 495.615   1
  -7   1  -4 24151.2 1056.51  10
   7  -1   4 25587.8 1144.42   9
  -7   1  -4 25088.9 1095.48   1
  -7   1  -4 26880.1 895.237   3
  -7   1  -5 43781.2 1487.97  10
   7  -1   5 43989.6 1528.80   9
  -7   1  -5 42455.3 1470.39   1
  -7   1  -5 44101.6 1235.09   3
  -7   1  -6 756.119 187.734   3
  -7   1  -6 732.384 219.776  10
   7  -1   6 464.341 191.012   9
  -7   1  -6 794.538 230.965   1
  -7   1  -7 0.98117 93.3342   3
  -7   1  -7-33.4203 126.383  10
   7  -1   7 16.2754 113.041   9
  -7   1  -8 21875.2 1214.31  10
   7  -1   8 20355.4 1097.64   9
  -7   1  -8 20849.5 1072.70   3
  -7   1  -8 20608.5 1162.45  11
   7  -1   9 11500.1 799.310   9
  -7   1  -9 11883.6 846.974   3
  -7   0   3 101.241 179.654   1
  -7   0   3 148.619 136.905   7
  -7   0   2 18967.2 1060.53   1
  -7   0   2 18053.3 1125.54   4
  -7   0   2 18331.7 1006.01   7
   7   0  -1 62327.4 1674.53   9
  -7   0   1 59635.0 1803.70   1
  -7   0   1 59655.3 1677.18   7
  -7   0   0 17536.4 940.046   1
   7   0   0 17986.6 901.142   9
  -7   0   0 17837.0 824.828   7
  -7   0  -1 174.171 76.4099  10
  -7   0  -1 299.599 152.930   1
   7   0   1 297.215 146.427   9
  -7   0  -1 312.909 103.198   7
  -7   0  -2 292.085 113.325  10
   7   0   2-14.3110 106.781   9
  -7   0  -2 160.684 75.4236   7
  -7   0  -2 123.178 115.009   1
  -7   0  -3 95.4765 58.9512   3
  -7   0  -3 90.1143 87.8393  10
   7   0   3 60.4574 101.753   9
  -7   0  -3 140.207 135.536   1
  -7   0  -4 64525.1 1674.23  10
   7   0   4 65750.8 1813.41   9
  -7   0  -4 65157.3 1788.12   1
  -7   0  -4 69241.8 1231.50   3
  -7   0  -5 37694.6 1351.47  10
   7   0   5 38510.1 1399.63   9
  -7   0  -5 40861.0 1451.20   1
  -7   0  -5 40908.7 1053.52   3
  -7   0  -6 53418.5 1689.60  10
   7   0   6 57282.6 1722.86   9
  -7   0  -6 53629.2 1731.35   1
  -7   0  -6 56405.9 1376.77   3
  -7   0  -7 21417.7 1124.29  10
  -7   0  -7 23692.1 1196.42   1
   7   0   7 22534.4 1102.29   9
  -7   0  -7 24474.6 1001.26   3
  -7   0  -8 205.500 132.517   3
  -7   0  -8 155.288 127.453  10
   7   0   8-73.5565 120.465   9
  -7   0  -8 417.165 221.881  11
   7   0   9 7456.55 641.472   9
  -7   0  -9 8205.32 671.161   3
  -7  -1   2 126350. 2741.07   7
  -7  -1   2 129879. 2916.97   1
   7   1  -1 17451.5 907.189   9
  -7  -1   1 17004.4 1022.32   1
   7   1  -1 18294.8 1087.81   8
  -7  -1   1 17850.1 965.618   7
   7   1   0 20547.7 981.135   9
  -7  -1   0 20649.7 1066.28   1
   7   1   0 21445.2 1106.69   8
  -7  -1  -1 7987.79 652.844   1
   7   1   1 8424.42 635.696   9
   7   1   1 7800.76 628.390   8
  -7  -1  -2 79818.9 1605.49  10
  -7  -1  -2 79555.1 2008.24   1
   7   1   2 77237.5 1916.67   9
   7   1   2 79059.9 1855.44   8
  -7  -1  -3 8526.77 562.624  10
   7   1   3 8157.24 634.113   9
   7   1   3 8330.94 552.137   8
  -7  -1  -3 8459.67 655.454   1
  -7  -1  -4 8738.41 611.577  10
   7   1   4 8528.19 655.974   9
  -7  -1  -4 8881.32 678.360   1
  -7  -1  -5 931.301 227.743  10
  -7  -1  -5 1565.71 307.388   1
   7   1   5 1141.86 249.272   9
  -7  -1  -5 1257.62 156.491   3
  -7  -1  -6 66748.1 1858.46  10
   7   1   6 65250.2 1831.60   9
  -7  -1  -6 65328.9 1914.89   1
  -7  -1  -6 66898.2 1317.74   3
  -7  -1  -7 31247.0 1336.52  10
   7   1   7 27919.2 1206.57   9
  -7  -1  -7 29205.9 1318.58   1
  -7  -1  -7 30475.7 1009.66   3
  -7  -1  -8 3122.30 452.256  10
   7   1   8 2884.33 402.286   9
  -7  -1  -8 2915.14 352.618   3
  -7  -1  -8 2685.44 433.231   1
  -7  -1  -9 3223.26 483.007  10
   7   1   9 3640.85 447.457   9
  -7  -1  -9 3664.04 464.662   5
  -7  -1  -9 2956.10 472.887  11
  -7  -1  -9 3669.57 425.127   3
   7   2  -1 53573.0 1919.82   8
  -7  -2   1 55014.8 1922.18   1
   7   2   0 94869.2 2193.50   9
  -7  -2   0 96725.9 2436.88   1
   7   2   0 99618.7 2459.59   8
   7   2   1 1187.17 251.386   9
   7   2   1 986.841 269.389   8
  -7  -2  -1 1019.56 257.810   1
  -7  -2  -2 6145.87 450.064  10
  -7  -2  -2 6390.96 592.163   1
   7   2   2 6094.70 561.267   9
   7   2   2 6356.07 553.222   8
  -7  -2  -2 6858.02 473.265  12
  -7  -2  -3 1750.38 261.882  10
  -7  -2  -3 1523.24 298.342   1
   7   2   3 1423.03 274.486   9
   7   2   3 1580.21 261.012   8
  -7  -2  -3 1479.13 237.830  12
  -7  -2  -4 40045.9 1303.96  10
   7   2   4 41893.3 1461.42   9
   7   2   4 42386.3 1186.00   8
  -7  -2  -4 42026.9 1328.28  12
   7   2   4 43424.3 1035.47   6
  -7  -2  -4 43060.7 1509.87   1
  -7  -2  -5 29482.5 1175.09  10
   7   2   5 31251.9 1270.12   9
   7   2   5 27811.3 846.732   8
  -7  -2  -5 30124.0 1182.63  12
  -7  -2  -5 30227.1 1282.68   1
  -7  -2  -6 7661.62 637.975  10
   7   2   6 6871.36 598.835   9
  -7  -2  -6 7556.60 663.577   1
  -7  -2  -6 7661.84 634.687  12
  -7  -2  -7 6332.57 603.754  10
   7   2   7 6576.63 591.161   9
  -7  -2  -7 6043.92 605.075   1
  -7  -2  -7 5719.00 571.560  12
  -7  -2  -8 9788.71 779.752  10
  -7  -2  -8 9878.72 802.216   1
   7   2   8 10300.1 751.163   9
  -7  -2  -9 873.044 285.056  10
  -7  -2  -9 637.637 250.271   1
   7   2   9 636.377 211.846   9
  -7  -2  -9 652.132 254.746  11
  -7  -2 -10-62.8318 127.683   5
   7   3   0 1243.08 295.978   8
  -7  -3   0 1031.10 289.890   1
   7   3   1 739.373 213.911   9
   7   3   1 701.520 202.889   8
  -7  -3  -1 677.322 222.097   1
  -7  -3  -2 26130.2 955.658  10
  -7  -3  -2 25931.1 1240.58   1
   7   3   2 26076.6 1175.54   9
   7   3   2 25446.1 1140.73   8
  -7  -3  -2 26677.0 958.786  12
  -7  -3  -3 81445.9 1783.92  10
  -7  -3  -3 82675.3 2179.68   1
   7   3   3 82939.6 2102.37   9
   7   3   3 81208.4 1901.96   8
  -7  -3  -3 80544.2 1764.93  12
  -7  -3  -4 17221.1 981.574   1
  -7  -3  -4 16453.0 845.581  10
   7   3   4 17587.3 964.152   9
   7   3   4 17131.0 807.802   8
  -7  -3  -4 17178.7 858.983  12
  -7  -3  -5 42206.9 1420.01  10
   7   3   5 41977.5 1490.48   9
   7   3   5 43311.9 1160.86   8
  -7  -3  -5 42071.8 1411.47  12
   7   3   5 42876.3 1147.69   6
  -7  -3  -5 42249.2 1548.97   1
  -7  -3  -6 8827.49 682.123  10
   7   3   6 9667.65 721.094   9
  -7  -3  -6 9131.18 729.406   1
  -7  -3  -6 9352.73 703.472  12
   7   3   6 8855.33 591.742   6
  -7  -3  -7 72549.1 2034.60  10
   7   3   7 70812.6 1959.05   9
  -7  -3  -7 75639.2 2143.85   1
  -7  -3  -7 72892.7 2030.22  12
   7   3   7 70455.0 1808.11   6
  -7  -3  -8 42109.8 1614.62  10
   7   3   8 41264.9 1507.29   9
  -7  -3  -8 42600.2 1645.54   1
  -7  -3  -8 42886.0 1618.21  12
   7   3   8 40294.7 1482.96   6
   7   3   9 92.6752 135.353   6
  -7  -3  -9 368.546 197.294  10
   7   3   9-50.3204 109.875   9
  -7  -3  -9 216.408 147.782  12
  -7  -3  -9 40.3748 123.220   1
  -7  -4  -1 22188.9 1225.03   1
   7   4   1 22896.7 1215.37   8
  -7  -4  -2 47961.9 1755.25   1
   7   4   2 47704.3 1647.01   8
  -7  -4  -3 69180.9 1723.63  10
  -7  -4  -3 69044.0 2062.73   1
   7   4   3 70948.1 2013.15   9
   7   4   3 69714.3 1867.06   8
  -7  -4  -3 68434.1 1706.02  12
  -7  -4  -4 81587.3 1927.48  10
  -7  -4  -4 79165.1 2173.61   1
   7   4   4 81042.6 2151.06   9
   7   4   4 79723.6 1862.98   8
  -7  -4  -4 79714.2 1891.65  12
  -7  -4  -5 77662.9 1945.80  10
   7   4   5 76635.2 2101.32   9
   7   4   5 78844.5 1724.25   8
  -7  -4  -5 76738.3 1924.52  12
  -7  -4  -5 80699.0 2180.71   1
  -7  -4  -6 7217.66 624.528  10
   7   4   6 7530.50 658.480   9
  -7  -4  -6 6772.47 607.409  12
  -7  -4  -6 7005.26 653.732   1
   7   4   6 8066.86 557.588   6
   7   4   7 386.286 157.077   6
  -7  -4  -7 329.548 164.285  10
  -7  -4  -7 195.391 165.851   1
   7   4   7 355.172 159.381   9
  -7  -4  -7 290.808 163.174  12
   7   4   8 461.774 185.844   6
  -7  -4  -8 228.611 143.288   1
  -7  -4  -8 380.310 182.202  10
   7   4   8 191.918 156.501   9
  -7  -4  -8 224.158 154.495  12
  -7  -4  -9 908.206 256.861   1
   7   4   9 1144.77 269.886   6
  -7  -4  -9 1376.27 327.484  10
   7   4   9 1166.04 275.229   9
  -7  -4  -9 1015.12 291.504  12
  -7  -5  -2 5595.37 634.211   1
   7   5   2 5336.49 594.190   8
  -7  -5  -3 37241.2 1325.04  10
  -7  -5  -3 37195.6 1569.28   1
   7   5   3 35470.3 1429.40   8
  -7  -5  -3 36340.7 1297.88  12
  -7  -5  -4 9948.60 710.071  10
  -7  -5  -4 9697.94 795.260   1
   7   5   4 10095.2 721.392   8
  -7  -5  -4 10052.3 709.594  12
  -7  -5  -5 22843.8 1098.18  10
   7   5   5 22566.1 1164.47   9
   7   5   5 22516.8 1012.64   8
  -7  -5  -5 22695.0 1089.34  12
  -7  -5  -5 22235.6 1172.87   1
  -7  -5  -6 59489.7 1838.01  10
   7   5   6 57311.7 1863.39   9
  -7  -5  -6 58543.1 1816.73  12
  -7  -5  -6 59786.8 1933.60   1
  -7  -5  -7 42162.2 1604.78  10
   7   5   7 40928.6 1581.59   9
  -7  -5  -7 41611.0 1632.24   1
  -7  -5  -7 42774.0 1601.74  12
   7   5   7 40420.3 1374.65   6
  -7  -5  -8 50738.0 1813.80  10
   7   5   8 49393.3 1753.41   9
  -7  -5  -8 51356.6 1845.53   1
  -7  -5  -8 48861.3 1778.31  12
   7   5   8 47966.3 1612.84   6
  -7  -5  -9 8884.51 793.659   1
   7   5   9 7361.58 673.594   9
   7   5   9 7952.26 709.024   6
  -7  -6  -3 29444.6 1207.32  10
  -7  -6  -3 31204.0 1514.32   1
   7   6   3 29784.4 1398.88   8
  -7  -6  -3 29775.9 1208.29  12
  -7  -6  -4 3662.43 450.576  10
  -7  -6  -4 3040.55 473.660   1
   7   6   4 3625.16 464.973   8
  -7  -6  -4 3073.01 415.588  12
  -7  -6  -5 45673.9 1750.28   1
  -7  -6  -5 46719.6 1659.50  10
   7   6   5 45469.7 1559.84   8
  -7  -6  -5 45313.3 1618.69  12
  -7  -6  -6 5505.40 588.112  10
   7   6   6 5455.79 510.217   8
  -7  -6  -6 5831.97 606.053  12
  -7  -6  -6 5568.89 625.506   1
  -7  -6  -7 764.028 247.179  10
  -7  -6  -7 722.785 241.003   1
  -7  -6  -7 731.242 234.334  12
   7   6   8 699.578 200.348   6
  -7  -6  -8 717.396 252.050  10
  -7  -6  -8 698.032 239.347   1
  -7  -6  -8 543.184 213.888  12
   7   6   9 186.598 124.219   6
  -7  -6  -9 79.0733 128.817   1
  -7  -7  -4 4822.34 527.835  10
   7   7   4 4582.70 547.566   8
  -7  -7  -4 4572.41 509.860  12
  -7  -7  -5 392.352 215.022   1
  -7  -7  -5 173.608 114.755  10
   7   7   5 195.362 133.828   8
  -7  -7  -5 465.771 197.811  12
  -7  -7  -6 1834.82 355.827  10
   7   7   6 1420.87 288.276   8
  -7  -7  -6 1659.93 375.680   1
  -7  -7  -6 1971.22 373.329  12
  -7  -7  -7 51783.7 1902.00   1
  -7  -7  -8 64547.2 2112.17   1
  -8   6  -1 16800.3 1011.65   6
  -8   6  -1 17916.4 986.178  10
  -8   6  -2 19702.7 1121.09   2
  -8   6  -2 18171.5 1065.82  10
   8  -5   0 57304.5 1895.90   9
  -8   5  -1 8796.86 687.949   6
   8  -5   1 9423.32 797.864   9
  -8   5  -1 9212.35 812.435   2
  -8   5  -1 10264.7 724.406  10
  -8   5  -2 1847.96 331.903  10
  -8   5  -2 1881.48 364.598   2
   8  -5   2 1921.19 379.298   9
  -8   5  -3 97.4514 136.158  10
  -8   5  -3 1.67015 111.865   2
  -8   5  -4 3969.41 500.592   3
   8  -4  -1 33556.7 1341.74   9
   8  -4   0 21407.6 1133.84   9
  -8   4   0 22549.9 1275.40   2
  -8   4  -1 17286.2 902.044   6
   8  -4   1 18779.6 1088.21   9
  -8   4  -1 18023.7 1102.84   2
   8  -4   2 24207.2 1256.57   9
  -8   4  -2 24506.5 1242.18   2
  -8   4  -2 24964.8 1151.17  10
   8  -4   3 36581.0 1575.47   9
  -8   4  -3 37540.0 1480.36   2
  -8   4  -3 35254.1 1442.39  10
  -8   4  -4 786.773 221.412   3
  -8   4  -4 683.865 233.937  10
  -8   4  -4 1264.58 275.759   2
   8  -4   4 700.116 247.178   9
  -8   4  -5 499.375 201.125   3
  -8   4  -5 1786.74 363.379  10
  -8   4  -6 21645.0 1158.90   3
   8  -3   0 49936.2 1681.31   9
  -8   3   0 49654.9 1858.03   2
  -8   3  -1 63755.3 2036.46   2
   8  -3   1 65055.8 1955.28   9
  -8   3  -2 23264.8 1190.18   2
   8  -3   2 22282.1 1157.29   9
  -8   3  -2 23346.0 1024.83   1
  -8   3  -2 23600.0 1063.90  10
  -8   3  -3 143.571 122.369   1
  -8   3  -3-11.3034 101.375  10
  -8   3  -3 109.003 136.657   2
   8  -3   3 135.342 153.078   9
  -8   3  -4 31675.1 1287.98   1
   8  -3   4 29469.7 1377.91   9
  -8   3  -4 29316.5 1185.93   3
  -8   3  -4 29885.6 1324.64  10
  -8   3  -4 30621.6 1272.97   2
  -8   3  -5 9055.72 728.416   1
   8  -3   5 9375.36 803.141   9
  -8   3  -5 9028.86 682.422   3
  -8   3  -5 9508.79 788.314  10
  -8   3  -6 1670.18 323.645   3
  -8   3  -6 1081.67 297.255  10
   8  -3   6 1641.89 360.621   9
  -8   3  -7-0.44622 126.894   3
  -8   3  -7 625.042 214.283  11
   8  -2   0 747.569 210.866   9
  -8   2   0 973.361 221.615   1
   8  -2   1 1166.97 260.364   9
  -8   2  -1 1296.51 261.705   1
   8  -2   2 31644.1 1336.90   9
  -8   2  -2 31587.2 1242.96   1
  -8   2  -2 31791.3 1170.24  10
  -8   2  -3 175001. 2973.57   1
  -8   2  -3 175970. 2917.01  10
   8  -2   4 18073.7 1047.34   9
  -8   2  -4 18388.3 989.398   1
  -8   2  -4 20320.1 897.364   3
  -8   2  -4 19048.9 1006.42  10
   8  -2   5 14326.1 953.411   9
  -8   2  -5 15179.1 925.501   1
  -8   2  -5 14104.1 779.085   3
  -8   2  -5 14217.7 911.079  10
  -8   2  -6 452.364 150.029   3
  -8   2  -6 483.606 195.978  10
   8  -2   6 424.529 192.920   9
  -8   2  -6 387.932 185.199   1
   8  -2   7 12124.6 905.847   9
  -8   2  -7 12602.2 812.821   3
  -8   2  -8 72048.6 1990.13   3
  -8   1   1 4465.35 504.519   1
  -8   1   0 1344.53 283.518   1
   8  -1   0 2030.92 349.328   9
   8  -1   1 109869. 2444.74   9
  -8   1  -1 109597. 2402.93   1
   8  -1   2 49575.3 1657.98   9
  -8   1  -2 51801.1 1632.90   1
  -8   1  -2 52057.4 1425.51  10
  -8   1  -3 7454.85 581.984  10
   8  -1   3 7474.42 657.903   9
  -8   1  -3 7004.02 606.258   1
  -8   1  -4 21109.8 1021.11  10
   8  -1   4 21903.7 1133.93   9
  -8   1  -4 22029.2 1088.65   1
  -8   1  -5 34527.3 1375.57  10
   8  -1   5 35500.6 1458.68   9
  -8   1  -5 34735.7 1409.83   1
  -8   1  -6 2044.19 363.615  10
  -8   1  -6 3025.27 431.623   1
   8  -1   6 2591.69 408.645   9
  -8   1  -7 3332.81 479.635  10
  -8   1  -7 3511.41 490.792   1
   8  -1   7 3712.14 497.492   9
   8  -1   8 421.763 194.516   9
  -8   1  -8 637.312 235.607  11
  -8   0   1 24866.0 1233.71   1
  -8   0   0 13946.6 917.060   1
   8   0   0 13326.7 843.149   9
  -8   0  -1 170.263 164.641   1
   8   0   1 413.811 192.337   9
  -8   0  -2 72716.7 1626.95  10
   8   0   2 71009.7 1963.93   9
  -8   0  -2 67748.3 1917.03   1
  -8   0  -3 92003.1 1981.53  10
   8   0   3 92527.2 2277.71   9
  -8   0  -3 88748.8 2194.56   1
  -8   0  -4 30124.3 1194.17  10
   8   0   4 29198.6 1297.38   9
  -8   0  -4 28928.4 1267.64   1
  -8   0  -5 24000.5 1118.36  10
   8   0   5 24391.3 1192.53   9
  -8   0  -5 23915.3 1184.99   1
  -8   0  -6 12215.6 841.050  10
   8   0   6 11117.3 821.570   9
  -8   0  -6 13644.6 916.565   1
  -8   0  -7 5039.07 578.098  10
  -8   0  -7 5942.70 636.158   1
   8   0   7 5824.18 603.889   9
  -8   0  -8 99126.1 2631.84  10
  -8   0  -8 98740.3 2668.07   1
   8   0   8 96258.5 2480.27   9
   8   0   9 45397.5 1668.62   9
  -8  -1   1 1768.99 314.388   7
   8   1   0 320.952 178.756   9
  -8  -1   0 255.371 145.036   1
   8   1   0 381.609 190.339   8
  -8  -1   0 437.727 175.792   7
  -8  -1  -1 127227. 2794.92   1
   8   1   1 125499. 2659.55   9
   8   1   1 124204. 2724.64   8
  -8  -1  -2 76117.3 2104.69   1
   8   1   2 75316.1 2048.46   9
   8   1   2 76623.7 1993.56   8
  -8  -1  -3 20664.3 927.033  10
   8   1   3 19266.4 1039.48   9
  -8  -1  -3 19345.6 1056.91   1
  -8  -1  -4-71.7902 82.0929  10
   8   1   4 69.9122 131.634   9
  -8  -1  -4 3.93679 109.604   1
  -8  -1  -5 455.197 171.601  10
   8   1   5 348.794 172.563   9
  -8  -1  -5 526.562 204.116   1
  -8  -1  -6 22008.2 1110.97  10
   8   1   6 22321.3 1147.05   9
  -8  -1  -6 21683.3 1169.10   1
  -8  -1  -7 36576.2 1512.02  10
   8   1   7 34435.9 1445.64   9
  -8  -1  -7 33961.4 1490.67   1
  -8  -1  -8 584.853 227.670  10
   8   1   8 621.590 208.100   9
  -8  -1  -8 818.957 255.869   1
   8   1   9 89263.4 2325.54   9
  -8  -2   0 47880.9 1830.37   1
   8   2   0 44723.5 1569.90   9
  -8  -2  -1 14763.3 1002.01   1
   8   2   1 15726.6 959.725   9
   8   2   1 15187.6 985.696   8
  -8  -2  -2 20189.0 1143.52   1
   8   2   2 21310.9 1119.16   9
   8   2   2 21038.2 1087.06   8
  -8  -2  -3 128735. 2320.61  10
  -8  -2  -3 129905. 2820.08   1
   8   2   3 127328. 2719.80   9
   8   2   3 131930. 2551.35   8
  -8  -2  -4 3025.53 379.934  10
   8   2   4 3080.39 432.896   9
   8   2   4 3878.37 408.067   8
  -8  -2  -4 3213.88 454.145   1
  -8  -2  -5 43566.6 1499.78  10
   8   2   5 43635.9 1606.56   9
  -8  -2  -5 46345.5 1685.92   1
  -8  -2  -6 134281. 2740.96  10
   8   2   6 131709. 2804.50   9
  -8  -2  -6 135208. 2929.36   1
  -8  -2  -7 858.492 250.567  10
  -8  -2  -7 1076.59 296.239   1
   8   2   7 990.671 272.038   9
  -8  -2  -8 61390.0 2029.34  10
   8   2   8 58347.0 1919.28   9
  -8  -2  -8 60895.4 2060.10   1
   8   2   9 55214.2 1839.36   9
   8   3   1 21121.9 1132.24   9
   8   3   1 20607.8 1188.22   8
  -8  -3  -2 51153.3 1883.76   1
   8   3   2 51710.3 1802.37   9
   8   3   2 52091.0 1782.47   8
  -8  -3  -3 6149.87 513.043  10
  -8  -3  -3 5956.27 632.761   1
   8   3   3 5782.07 599.645   9
   8   3   3 5972.81 569.237   8
  -8  -3  -3 5928.29 501.580  12
  -8  -3  -4 3418.12 406.839  10
   8   3   4 4349.37 525.158   9
   8   3   4 3433.56 406.955   8
  -8  -3  -4 3443.25 407.353  12
  -8  -3  -4 3423.21 475.741   1
  -8  -3  -5 1781.21 316.530  10
   8   3   5 1567.04 321.966   9
  -8  -3  -5 1535.22 330.572   1
  -8  -3  -5 1660.06 302.637  12
  -8  -3  -6 29467.0 1295.73  10
   8   3   6 31393.8 1392.01   9
  -8  -3  -6 29311.4 1387.81   1
  -8  -3  -6 29315.9 1283.00  12
  -8  -3  -7 43398.4 1639.11  10
   8   3   7 44998.7 1675.04   9
  -8  -3  -7 43514.1 1717.94   1
  -8  -3  -7 45236.1 1660.83  12
   8   3   7 43654.6 1438.82   6
   8   3   8 1183.08 272.294   6
  -8  -3  -8 1283.37 328.566   1
  -8  -3  -8 1010.30 281.870  10
   8   3   8 1092.87 268.781   9
  -8  -3  -8 1048.38 287.966  12
   8   3   9 5715.15 602.239   9
   8   3   9 5629.35 597.327   6
   8   4   2 6772.85 669.384   8
  -8  -4  -3 415.791 199.000   1
   8   4   3 601.204 242.529   9
   8   4   3 405.920 182.648   8
  -8  -4  -4 56516.8 1953.75   1
  -8  -4  -4 52063.2 1610.35  10
   8   4   4 55477.0 1906.70   9
   8   4   4 53406.3 1677.90   8
  -8  -4  -4 54001.6 1631.82  12
  -8  -4  -5 71527.3 1991.94  10
   8   4   5 72903.3 2174.94   9
   8   4   5 75553.1 1836.89   8
  -8  -4  -5 74026.0 2006.56  12
  -8  -4  -5 75174.5 2250.98   1
  -8  -4  -6 88444.7 2276.14  10
   8   4   6 93219.7 2449.90   9
  -8  -4  -6 91802.5 2309.72  12
  -8  -4  -6 91923.0 2495.87   1
  -8  -4  -7 387.121 173.588  10
  -8  -4  -7 230.991 204.366   1
   8   4   7 563.831 212.588   9
  -8  -4  -7 82.3730 146.198  12
  -8  -4  -8 12415.1 937.478  10
   8   4   8 11931.8 891.780   9
  -8  -4  -8 13103.6 979.614   1
  -8  -4  -8 12735.9 935.261  12
   8   4   8 12255.6 806.560   6
   8   4   9 472.606 185.138   6
   8   4   9 125.255 145.309   9
   8   5   3 2805.91 424.168   8
  -8  -5  -4 24254.8 1111.30  10
   8   5   4 22433.9 1148.06   8
  -8  -5  -4 24154.3 1100.09  12
  -8  -5  -5 10027.3 756.989  10
   8   5   5 11546.1 901.115   9
   8   5   5 10979.5 751.680   8
  -8  -5  -5 10547.2 771.563  12
  -8  -5  -5 11464.3 911.969   1
  -8  -5  -6 46672.7 1702.56  10
   8   5   6 48550.6 1846.69   9
  -8  -5  -6 47562.1 1707.69  12
  -8  -5  -6 48802.3 1881.66   1
  -8  -5  -7 39415.7 1620.80  10
   8   5   7 40042.3 1666.43   9
  -8  -5  -7 40723.2 1717.43   1
  -8  -5  -7 40136.6 1622.60  12
   8   5   8 8990.83 793.882   9
   8   5   9 279.471 148.249   6
   8   6   4 5801.80 604.514   8
  -8  -6  -5 52772.9 1753.19  10
   8   6   5 53523.7 1732.65   8
  -8  -6  -5 52217.1 1736.80  12
  -8  -6  -6 39616.4 1587.91  10
  -8  -6  -6 40761.3 1605.10  12
  -9   4  -3 7764.32 716.221   2
  -9   4  -3 7613.73 663.150  10
  -9   4  -4 1113.16 252.819   2
   9  -3   1 3371.15 466.649   9
   9  -3   2 14252.5 991.516   9
  -9   3  -3 41.4085 136.931  10
  -9   3  -3 75.6564 126.432   2
  -9   3  -4 252.249 172.044  10
  -9   3  -4 345.341 158.603   2
  -9   3  -4 386.948 175.477   1
  -9   3  -5 3165.67 441.039   1
   9  -2   1 178.780 121.395   9
   9  -2   2 26160.8 1310.78   9
  -9   2  -2 27360.9 1211.15   1
   9  -2   3 94429.7 2534.72   9
  -9   2  -3 90949.8 2257.08   1
  -9   2  -3 92210.2 2160.58  10
   9  -2   4 13915.6 989.700   9
  -9   2  -4 14478.1 930.165   1
  -9   2  -4 14084.0 900.292  10
  -9   2  -5 17977.1 1062.84   1
  -9   2  -5 19915.3 1127.29  10
  -9   2  -6 56634.4 1929.29   1
   9  -1   1 4306.56 521.540   9
  -9   1  -1 4740.77 530.104   1
   9  -1   2 1798.50 359.860   9
  -9   1  -2 1589.43 322.048   1
   9  -1   3 35282.4 1531.91   9
  -9   1  -3 33312.9 1423.55   1
  -9   1  -3 34703.6 1269.49  10
  -9   1  -4 1581.00 309.128  10
  -9   1  -4 1069.14 275.693   1
   9  -1   4 1156.87 296.048   9
  -9   1  -5 2826.83 418.317  10
  -9   1  -5 2254.78 393.038   1
   9  -1   5 3049.15 474.568   9
  -9   1  -6 14417.1 980.539  10
  -9   1  -6 13562.9 963.314   1
  -9   0  -1 11889.8 868.313   1
   9   0   1 11764.6 848.935   9
   9   0   2 65142.6 2037.32   9
  -9   0  -2 60867.4 1972.15   1
   9   0   3 28851.1 1374.15   9
  -9   0  -3 27580.6 1331.26   1
  -9   0  -4 55979.8 1704.25  10
   9   0   4 55804.6 1925.86   9
  -9   0  -4 57460.1 1926.70   1
  -9   0  -5 2081.76 357.172  10
  -9   0  -5 1804.59 360.846   1
   9   0   5 2173.47 390.997   9
  -9   0  -6 18903.2 1110.49  10
   9   0   6 18122.8 1129.48   9
  -9   0  -6 19651.5 1167.74   1
   9   1   1 37269.6 1501.21   9
   9   1   2-16.3089 135.143   9
  -9  -1  -2 253.490 172.431   1
   9   1   3 2764.65 440.684   9
  -9  -1  -3 2604.37 433.845   1
  -9  -1  -4 35756.3 1336.32  10
   9   1   4 36237.4 1560.08   9
  -9  -1  -4 37243.4 1589.62   1
  -9  -1  -5 961.588 238.971  10
   9   1   5 1548.73 341.215   9
  -9  -1  -5 906.136 275.723   1
  -9  -1  -6 14214.0 946.565  10
   9   1   6 15881.5 1045.85   9
  -9  -1  -6 14717.7 1025.91   1
  -9  -1  -7 4920.90 592.278  10
   9   1   7 4165.68 550.986   9
  -9  -1  -7 4424.23 582.430   1
   9   2   2 41196.9 1636.73   9
   9   2   2 41658.1 1619.50   8
   9   2   3 55551.7 1941.11   9
   9   2   3 52693.5 1725.13   8
  -9  -2  -3 54314.1 1968.82   1
  -9  -2  -4 45585.0 1499.48  10
   9   2   4 45823.1 1774.21   9
  -9  -2  -4 46415.0 1812.71   1
  -9  -2  -5 29052.2 1281.38  10
   9   2   5 28561.8 1407.76   9
  -9  -2  -5 26419.1 1385.35   1
  -9  -2  -6 6695.37 646.730  10
   9   2   6 7124.41 714.973   9
  -9  -2  -6 7189.43 729.507   1
  -9  -2  -7 2635.81 440.457  10
   9   3   3 19081.9 1071.51   8
   9   3   4 33096.5 1318.37   8
  -9  -3  -5 903.209 235.098  10
  -9  -3  -5 934.795 243.079  12
  -9  -3  -5 664.701 269.807   1
  -9  -3  -6 43282.8 1631.05  10
  -9  -3  -6 45080.0 1649.50  12
  -9  -3  -7 1474.55 332.803  10
   9   4   4 55630.9 1763.18   8
  -9  -4  -5 54796.7 1727.26  10
  -9  -4  -5 54785.8 1712.82  12
  -9  -4  -6 1271.85 303.286  10
  -9  -4  -6 1378.82 310.561  12
 -10   1  -5 38354.4 1483.58  10
 -10   0  -5 402.799 165.327  10
;
_shelx_hkl_checksum              56781
loop_
_space_group_symop_operation_xyz
'x, y, z'
'-x, -y, -z'
loop_
_atom_site_label
_atom_site_type_symbol
_atom_site_fract_x
_atom_site_fract_y
_atom_site_fract_z
_atom_site_U_iso_or_equiv
_atom_site_adp_type
_atom_site_occupancy
_atom_site_site_symmetry_order
_atom_site_calc_flag
_atom_site_refinement_flags_posn
_atom_site_refinement_flags_adp
P1 P 0.01326(4) 0.21674(4) 0.61298(4) 0.00747(10) Uani 1 1 d . .
O1 O -0.08570(14) 0.01913(12) 0.74917(13) 0.01147(19) Uani 1 1 d . .
O2 O -0.05579(13) 0.31379(12) 0.45605(13) 0.00989(18) Uani 1 1 d . .
O3 O -0.00995(14) 0.33312(12) 0.74285(13) 0.01045(18) Uani 1 1 d . .
H3 H 0.0088 0.4473 0.6709 0.016 Uiso 1 1 calc R U
O4 O 0.46230(16) 0.30667(15) 0.78243(14) 0.0188(2) Uani 1 1 d . .
O5 O 0.22122(14) 0.07080(13) 0.88245(13) 0.01251(19) Uani 1 1 d . .
H5 H 0.1912 0.0602 1.0002 0.019 Uiso 1 1 calc R U
N1 N 0.62451(16) 0.25896(15) 0.41323(16) 0.0095(2) Uani 1 1 d . .
H1N H 0.7092 0.2624 0.4611 0.011 Uiso 1 1 calc R U
C2 C 0.42363(18) 0.23305(16) 0.53762(18) 0.0085(2) Uani 1 1 d . .
C3 C 0.28628(18) 0.23278(16) 0.46468(18) 0.0081(2) Uani 1 1 d . .
C4 C 0.36495(19) 0.25963(17) 0.26109(18) 0.0100(2) Uani 1 1 d . .
H4A H 0.2749 0.2636 0.2060 0.012 Uiso 1 1 calc R U
C5 C 0.57229(19) 0.28048(18) 0.13856(19) 0.0118(2) Uani 1 1 d . .
H5A H 0.6246 0.2950 0.0016 0.014 Uiso 1 1 calc R U
C6 C 0.70082(19) 0.27966(18) 0.21948(19) 0.0115(2) Uani 1 1 d . .
H6A H 0.8434 0.2937 0.1382 0.014 Uiso 1 1 calc R U
C7 C 0.36877(19) 0.20752(17) 0.75229(18) 0.0097(2) Uani 1 1 d . .
loop_
_atom_site_aniso_label
_atom_site_aniso_U_11
_atom_site_aniso_U_22
_atom_site_aniso_U_33
_atom_site_aniso_U_23
_atom_site_aniso_U_13
_atom_site_aniso_U_12
P1 0.00579(15) 0.00963(16) 0.00662(15) -0.00283(12) -0.00286(12) 0.00027(11)
O1 0.0117(4) 0.0118(4) 0.0087(4) -0.0025(3) -0.0040(3) -0.0025(3)
O2 0.0081(4) 0.0126(4) 0.0099(4) -0.0040(3) -0.0053(3) 0.0013(3)
O3 0.0117(4) 0.0112(4) 0.0087(4) -0.0044(3) -0.0047(3) 0.0021(3)
O4 0.0193(5) 0.0238(5) 0.0129(4) -0.0070(4) -0.0070(4) -0.0064(4)
O5 0.0142(4) 0.0134(4) 0.0075(4) -0.0018(3) -0.0047(3) -0.0023(3)
N1 0.0077(5) 0.0115(5) 0.0106(5) -0.0040(4) -0.0057(4) 0.0012(4)
C2 0.0091(5) 0.0076(5) 0.0085(5) -0.0028(4) -0.0040(4) 0.0010(4)
C3 0.0076(5) 0.0075(5) 0.0086(5) -0.0028(4) -0.0037(4) 0.0008(4)
C4 0.0102(6) 0.0108(5) 0.0102(5) -0.0042(4) -0.0057(5) 0.0014(4)
C5 0.0109(6) 0.0146(6) 0.0095(5) -0.0055(4) -0.0038(5) 0.0016(4)
C6 0.0081(5) 0.0137(6) 0.0109(5) -0.0051(5) -0.0028(5) 0.0017(4)
C7 0.0095(5) 0.0115(5) 0.0095(5) -0.0041(4) -0.0057(4) 0.0035(4)
loop_
_atom_type_symbol
_atom_type_description
_atom_type_scat_dispersion_real
_atom_type_scat_dispersion_imag
_atom_type_scat_source
C C 0.0033 0.0016 'International Tables Vol C Tables 4.2.6.8 and 6.1.1.4'
H H 0.0000 0.0000 'International Tables Vol C Tables 4.2.6.8 and 6.1.1.4'
N N 0.0061 0.0033 'International Tables Vol C Tables 4.2.6.8 and 6.1.1.4'
O O 0.0106 0.0060 'International Tables Vol C Tables 4.2.6.8 and 6.1.1.4'
P P 0.1023 0.0942 'International Tables Vol C Tables 4.2.6.8 and 6.1.1.4'
loop_
_geom_angle_atom_site_label_1
_geom_angle_atom_site_label_2
_geom_angle_atom_site_label_3
_geom_angle
O1 P1 O2 115.73(6)
O1 P1 O3 109.92(6)
O2 P1 O3 110.40(5)
O1 P1 C3 111.17(7)
O2 P1 C3 104.13(6)
O3 P1 C3 104.84(6)
P1 O3 H3 109.5
C7 O5 H5 109.5
C6 N1 C2 122.78(11)
C6 N1 H1N 118.6
C2 N1 H1N 118.6
N1 C2 C3 119.95(11)
N1 C2 C7 114.50(11)
C3 C2 C7 125.55(11)
C2 C3 C4 117.61(11)
C2 C3 P1 123.79(9)
C4 C3 P1 118.45(9)
C5 C4 C3 121.02(12)
C5 C4 H4A 119.5
C3 C4 H4A 119.5
C6 C5 C4 118.66(12)
C6 C5 H5A 120.7
C4 C5 H5A 120.7
N1 C6 C5 119.93(12)
N1 C6 H6A 120.0
C5 C6 H6A 120.0
O4 C7 O5 128.83(12)
O4 C7 C2 120.38(12)
O5 C7 C2 110.77(11)
loop_
_geom_bond_atom_site_label_1
_geom_bond_atom_site_label_2
_geom_bond_distance
P1 O1 1.4933(12)
P1 O2 1.5122(10)
P1 O3 1.5701(10)
P1 C3 1.8219(14)
O3 H3 0.8400
O4 C7 1.2102(16)
O5 C7 1.2909(17)
O5 H5 0.8400
N1 C6 1.3416(16)
N1 C2 1.3475(17)
N1 H1N 0.8800
C2 C3 1.3900(17)
C2 C7 1.5170(17)
C3 C4 1.3997(17)
C4 C5 1.3869(18)
C4 H4A 0.9500
C5 C6 1.3772(18)
C5 H5A 0.9500
C6 H6A 0.9500
loop_
_geom_hbond_atom_site_label_D
_geom_hbond_atom_site_label_H
_geom_hbond_atom_site_label_A
_geom_hbond_distance_DH
_geom_hbond_distance_HA
_geom_hbond_distance_DA
_geom_hbond_angle_DHA
_geom_hbond_site_symmetry_A
O3 H3 O2 0.84 1.72 2.5579(17) 172.8 2_566
O5 H5 O1 0.84 1.66 2.4723(16) 162.2 2_557
N1 H1N O2 0.88 1.79 2.6258(15) 157.9 1_655
C4 H4A O1 0.95 2.48 3.1041(18) 123.4 2_556
C5 H5A O3 0.95 2.52 3.200(2) 128.3 1_654
C5 H5A O4 0.95 2.52 3.2494(18) 133.5 1_554
loop_
_geom_torsion_atom_site_label_1
_geom_torsion_atom_site_label_2
_geom_torsion_atom_site_label_3
_geom_torsion_atom_site_label_4
_geom_torsion
C6 N1 C2 C3 -2.03(18)
C6 N1 C2 C7 178.44(11)
N1 C2 C3 C4 0.13(17)
C7 C2 C3 C4 179.61(11)
N1 C2 C3 P1 -175.19(9)
C7 C2 C3 P1 4.29(18)
O1 P1 C3 C2 -81.82(12)
O2 P1 C3 C2 152.90(10)
O3 P1 C3 C2 36.90(12)
O1 P1 C3 C4 102.89(10)
O2 P1 C3 C4 -22.39(11)
O3 P1 C3 C4 -138.39(10)
C2 C3 C4 C5 1.77(18)
P1 C3 C4 C5 177.35(10)
C3 C4 C5 C6 -1.85(19)
C2 N1 C6 C5 1.96(19)
C4 C5 C6 N1 0.00(19)
N1 C2 C7 O4 43.62(17)
C3 C2 C7 O4 -135.88(14)
N1 C2 C7 O5 -135.05(11)
C3 C2 C7 O5 45.44(16)
