#------------------------------------------------------------------------------
#$Date: 2019-11-23 22:34:47 +0200 (Sat, 23 Nov 2019) $
#$Revision: 235372 $
#$URL: file:///home/coder/svn-repositories/cod/cif/4/03/68/4036891.cif $
#------------------------------------------------------------------------------
#
# This file is available in the Crystallography Open Database (COD),
# http://www.crystallography.net/
#
# All data on this site have been placed in the public domain by the
# contributors.
#
data_4036891
loop_
_publ_author_name
'Shibata, Takanori'
'Uno, Ninna'
'Sasaki, Tomoya'
'Kanyiva, Kyalo Stephen'
_publ_section_title
;
 Pt-Catalyzed Enantioselective Cycloisomerization for the Synthesis of
 Planar-Chiral Ferrocene Derivatives.
;
_journal_issue                   15
_journal_name_full               'The Journal of organic chemistry'
_journal_page_first              6266
_journal_page_last               6272
_journal_paper_doi               10.1021/acs.joc.6b00825
_journal_volume                  81
_journal_year                    2016
_chemical_absolute_configuration 'CHOOSE rm ad rmad syn or unk'
_chemical_formula_moiety         'C22 H16 Fe'
_chemical_formula_sum            'C22 H16 Fe'
_chemical_formula_weight         336.22
_space_group_crystal_system      monoclinic
_space_group_IT_number           4
_space_group_name_Hall           'P 2yb'
_space_group_name_H-M_alt        'P 1 21 1'
_atom_sites_solution_hydrogens   geom
_atom_sites_solution_primary     direct
_atom_sites_solution_secondary   difmap
_cell_angle_alpha                90.0000
_cell_angle_beta                 107.557(2)
_cell_angle_gamma                90.0000
_cell_formula_units_Z            2
_cell_length_a                   10.9766(7)
_cell_length_b                   6.5881(4)
_cell_length_c                   10.9953(8)
_cell_measurement_reflns_used    6880
_cell_measurement_temperature    123
_cell_measurement_theta_max      27.45
_cell_measurement_theta_min      3.09
_cell_volume                     758.09(9)
_computing_cell_refinement       'RAPID AUTO'
_computing_data_collection       'RAPID AUTO (Rigaku, ????)'
_computing_data_reduction        'RAPID AUTO'
_computing_molecular_graphics    'CrystalStructure 4.2'
_computing_publication_material  'CrystalStructure 4.2 (Rigaku, 2015)'
_computing_structure_refinement  'SHELXL Version 2014/6 (Sheldrick, 2008)'
_computing_structure_solution    'SIR92 (Altomare, et al., 1994)'
_diffrn_ambient_temperature      123
_diffrn_detector_area_resol_mean 10.000
_diffrn_measured_fraction_theta_full 0.997
_diffrn_measured_fraction_theta_max 0.998
_diffrn_measurement_device_type  'Rigaku R-AXIS RAPID'
_diffrn_measurement_method       \w
_diffrn_radiation_type           'Mo K\a'
_diffrn_radiation_wavelength     0.71075
_diffrn_reflns_av_R_equivalents  0.0259
_diffrn_reflns_Laue_measured_fraction_full 0.997
_diffrn_reflns_Laue_measured_fraction_max 0.998
_diffrn_reflns_limit_h_max       14
_diffrn_reflns_limit_h_min       -12
_diffrn_reflns_limit_k_max       8
_diffrn_reflns_limit_k_min       -8
_diffrn_reflns_limit_l_max       14
_diffrn_reflns_limit_l_min       -14
_diffrn_reflns_number            7365
_diffrn_reflns_point_group_measured_fraction_full 0.992
_diffrn_reflns_point_group_measured_fraction_max 0.982
_diffrn_reflns_theta_full        25.242
_diffrn_reflns_theta_max         27.452
_diffrn_reflns_theta_min         3.138
_diffrn_standards_number         0
_exptl_absorpt_coefficient_mu    0.989
_exptl_absorpt_correction_T_max  0.821
_exptl_absorpt_correction_T_min  0.436
_exptl_absorpt_correction_type   numerical
_exptl_absorpt_process_details   'NUMABS (Rigaku, 1999)'
_exptl_crystal_colour            red
_exptl_crystal_density_diffrn    1.473
_exptl_crystal_density_method    'not measured'
_exptl_crystal_description       platelet
_exptl_crystal_F_000             348.00
_exptl_crystal_size_max          0.800
_exptl_crystal_size_mid          0.600
_exptl_crystal_size_min          0.200
_refine_diff_density_max         0.33
_refine_diff_density_min         -0.35
_refine_ls_abs_structure_details
;
 Flack x determined using 1325 quotients [(I+)-(I-)]/[(I+)+(I-)]
 (Parsons, Flack and Wagner, Acta Cryst. B69 (2013) 249-259).
;
_refine_ls_abs_structure_Flack   0.004(11)
_refine_ls_extinction_method     none
_refine_ls_goodness_of_fit_ref   1.154
_refine_ls_hydrogen_treatment    constr
_refine_ls_number_parameters     208
_refine_ls_number_reflns         3409
_refine_ls_number_restraints     1
_refine_ls_R_factor_all          0.0328
_refine_ls_R_factor_gt           0.0294
_refine_ls_shift/su_max          0.000
_refine_ls_structure_factor_coef Fsqd
_refine_ls_weighting_details
'w = 1/[\s^2^(Fo^2^)+(0.0546P)^2^+0.0405P] where P=(Fo^2^+2Fc^2^)/3'
_refine_ls_weighting_scheme      calc
_refine_ls_wR_factor_gt          0.0827
_refine_ls_wR_factor_ref         0.0941
_reflns_Friedel_coverage         0.810
_reflns_Friedel_fraction_full    0.985
_reflns_Friedel_fraction_max     0.963
_reflns_number_gt                3182
_reflns_number_total             3409
_reflns_threshold_expression     F^2^>2.0\s(F^2^)
_cod_data_source_file            jo6b00825_si_002.cif
_cod_data_source_block           20160301_uno_Nap
_cod_original_cell_volume        758.08(9)
_cod_database_code               4036891
_shelxl_version_number           2014/6
_shelx_res_file
;
TITL 20160301_uno_Nap
CELL  0.71075 10.97661 6.58810 10.99526 90.00000 107.55670 90.00000
ZERR  2 0.00072 0.00038 0.00083 0.00000 0.00220 0.00000
LATT -1
SYMM    -X, .50+Y,    -Z
SFAC C H FE
UNIT 44 32 2
L.S. 10
FMAP 2
PLAN 28
WPDB -2
HTAB
BOND $H
CONF
LIST 4
TEMP -150.0
ACTA
SIZE 0.800 0.600 0.200
WGHT    0.054600    0.040500
FVAR       1.31013
FE1   3    0.494910    0.804710    0.747696    11.00000    0.01542    0.02186 =
         0.01753    0.00095    0.00327   -0.00050
C2    1    0.809776    0.807561    1.060338    11.00000    0.01523    0.01884 =
         0.02000    0.00334    0.00667    0.00024
AFIX  43
H2    2    0.779392    0.677172    1.074104    11.00000   -1.20000
AFIX   0
C3    1    0.772251    0.888996    0.938932    11.00000    0.01330    0.01762 =
         0.01910    0.00060    0.00618    0.00330
C4    1    0.691453    0.782381    0.828469    11.00000    0.01542    0.02115 =
         0.01804    0.00065    0.00594    0.00460
C5    1    0.892373    0.913809    1.164602    11.00000    0.01383    0.02443 =
         0.01781    0.00056    0.00581    0.00270
C6    1    0.937851    1.109675    1.142842    11.00000    0.01459    0.02366 =
         0.02397   -0.00368    0.00866   -0.00027
C7    1    0.584386    0.729812    0.614468    11.00000    0.02732    0.03126 =
         0.01804   -0.00016    0.00641    0.00684
AFIX  13
H7    2    0.548986    0.749443    0.520154    11.00000   -1.20000
AFIX   0
C8    1    1.022460    1.215404    1.247992    11.00000    0.01675    0.03102 =
         0.02823   -0.00517    0.00802   -0.00514
AFIX  43
H8    2    1.052832    1.346200    1.235058    11.00000   -1.20000
AFIX   0
C9    1    0.632444    0.586828    0.815797    11.00000    0.02664    0.02008 =
         0.02050   -0.00155    0.00443    0.00368
AFIX  13
H9    2    0.636735    0.489158    0.886589    11.00000   -1.20000
AFIX   0
C10   1    0.784830    1.169178    0.787916    11.00000    0.01787    0.02329 =
         0.02804    0.00909    0.01038    0.00399
AFIX  43
H10   2    0.816772    1.298993    0.775380    11.00000   -1.20000
AFIX   0
C11   1    0.819309    1.086281    0.916938    11.00000    0.01294    0.02268 =
         0.02328    0.00490    0.00742    0.00242
C12   1    0.899664    1.191190    1.018749    11.00000    0.01827    0.01787 =
         0.02843    0.00126    0.00971   -0.00007
AFIX  43
H12   2    0.929833    1.321527    1.004558    11.00000   -1.20000
AFIX   0
C13   1    1.060278    1.131155    1.366779    11.00000    0.01591    0.04261 =
         0.02275   -0.01079    0.00452   -0.00334
AFIX  43
H13   2    1.116745    1.203710    1.435616    11.00000   -1.20000
AFIX   0
C14   1    0.567824    0.555173    0.683878    11.00000    0.03660    0.02458 =
         0.02003   -0.00250    0.00207    0.00177
AFIX  13
H14   2    0.518510    0.430820    0.646293    11.00000   -1.20000
AFIX   0
C15   1    0.932825    0.830079    1.290158    11.00000    0.01849    0.03124 =
         0.01988    0.00314    0.00534    0.00043
AFIX  43
H15   2    0.902198    0.700854    1.305838    11.00000   -1.20000
AFIX   0
C16   1    0.300807    0.769848    0.703610    11.00000    0.01693    0.05026 =
         0.04054    0.00059    0.00260   -0.00640
AFIX  13
H16   2    0.249275    0.658310    0.650681    11.00000   -1.20000
AFIX   0
C17   1    1.016009    0.935789    1.388582    11.00000    0.01871    0.04403 =
         0.01949    0.00266    0.00364    0.00124
AFIX  43
H17   2    1.043991    0.877899    1.471524    11.00000   -1.20000
AFIX   0
C18   1    0.709702    1.069449    0.685986    11.00000    0.01758    0.03100 =
         0.02123    0.01195    0.00783    0.00806
AFIX  43
H18   2    0.688869    1.128712    0.603482    11.00000   -1.20000
AFIX   0
C19   1    0.661168    0.871801    0.703272    11.00000    0.01446    0.02762 =
         0.01433    0.00374    0.00387    0.00679
C20   1    0.357877    0.765239    0.837153    11.00000    0.02396    0.05109 =
         0.03845    0.01650    0.01488    0.00312
AFIX  13
H20   2    0.353082    0.651923    0.896048    11.00000   -1.20000
AFIX   0
C21   1    0.330256    0.956044    0.657637    11.00000    0.02552    0.06185 =
         0.04790    0.03010    0.01511    0.01593
AFIX  13
H21   2    0.302733    1.000472    0.566423    11.00000   -1.20000
AFIX   0
C22   1    0.422537    0.952897    0.871870    11.00000    0.02004    0.07714 =
         0.04623   -0.03016    0.01585   -0.00513
AFIX  13
H22   2    0.471549    0.995854    0.960338    11.00000   -1.20000
AFIX   0
C23   1    0.404411    1.068724    0.760674    11.00000    0.03557    0.02903 =
         0.10209    0.00353    0.04482    0.00577
AFIX  13
H23   2    0.438586    1.208319    0.756216    11.00000   -1.20000
AFIX   0
HKLF 4

REM  20160301_uno_Nap
REM R1 =  0.0294 for    3182 Fo > 4sig(Fo)  and  0.0328 for all    3409 data
REM    208 parameters refined using      1 restraints

END

WGHT      0.0523      0.0683

REM No hydrogen bonds found for HTAB generation

REM Highest difference peak  0.326,  deepest hole -0.346,  1-sigma level  0.099
Q1    1   0.6713  0.7196  0.8395  11.00000  0.05    0.33
Q2    1   0.5688  0.6154  0.6215  11.00000  0.05    0.32
Q3    1   0.6010  0.7839  0.8158  11.00000  0.05    0.32
Q4    1   1.1287  1.3775  1.4746  11.00000  0.05    0.31
Q5    1   0.5973  0.5567  0.7520  11.00000  0.05    0.30
Q6    1   0.4671  0.7961  0.6625  11.00000  0.05    0.29
Q7    1   0.6214  0.5601  0.8366  11.00000  0.05    0.29
Q8    1   0.6676  0.8030  0.7649  11.00000  0.05    0.29
Q9    1   0.9872  1.1611  0.8988  11.00000  0.05    0.28
Q10   1   1.1260  1.2266  1.4772  11.00000  0.05    0.26
Q11   1   0.3585  0.8603  0.8570  11.00000  0.05    0.26
Q12   1   1.0859  0.9559  1.2701  11.00000  0.05    0.25
Q13   1   0.5653  0.7667  0.6165  11.00000  0.05    0.25
Q14   1   0.2819  0.8643  0.6942  11.00000  0.05    0.25
Q15   1   1.1218  0.7545  1.3927  11.00000  0.05    0.25
Q16   1   1.0206  1.3366  1.0587  11.00000  0.05    0.25
Q17   1   0.5593  0.4814  0.6656  11.00000  0.05    0.25
Q18   1   0.7235  0.5090  1.0765  11.00000  0.05    0.25
Q19   1   1.0119  1.4389  0.9692  11.00000  0.05    0.25
Q20   1   1.0117  1.0903  1.0056  11.00000  0.05    0.24
Q21   1   1.1394  1.4668  1.4486  11.00000  0.05    0.24
Q22   1   1.0785  1.0951  1.3165  11.00000  0.05    0.24
Q23   1   1.1393  0.7507  1.4796  11.00000  0.05    0.24
Q24   1   0.9778  1.2563  0.8319  11.00000  0.05    0.23
Q25   1   0.9244  1.2499  0.7162  11.00000  0.05    0.23
Q26   1   1.0807  1.4648  1.3223  11.00000  0.05    0.23
Q27   1   0.6289  0.8207  0.6504  11.00000  0.05    0.23
Q28   1   0.1996  0.5474  0.5892  11.00000  0.05    0.23
;
_shelx_res_checksum              34515
_shelx_hkl_file
;
   0   0   219065.71 1308.96
   0   0  -220986.57 1463.37
   0   0   3  820.61   32.94
   0   0  -3  923.44   29.17
   0   0   4  574.93   18.18
   0   0  -4  647.74   20.44
   0   0   5   63.67    5.07
   0   0  -5   65.60    5.66
   0   0   6  439.02   16.97
   0   0  -6  457.83   17.51
   0   0   7   36.55    5.09
   0   0  -7   45.86    8.97
   0   0   8  319.05   24.83
   0   0  -8  328.29   16.53
   0   0   9  578.07   27.35
   0   0  -9  607.87   28.17
   0   0  10  387.78   32.69
   0   0 -10  372.46   21.78
   0   0  11    6.46    4.94
   0   0 -11    5.51    5.00
   0   0  12  249.35   19.98
   0   0 -12  260.23   33.88
   0   0  13  177.68   18.81
   0   0 -13  181.80   19.29
   0   1   0    1.85    1.42
   0  -1   0    3.91    1.03
   0   1  -112545.62  697.35
   0   1  -113072.47  720.70
   0   1   110832.79  587.97
   0  -1   112420.50  683.07
   0  -1   112091.45  684.54
   0  -1  -111540.96  620.97
   0   1   2  165.70    6.06
   0   1  -2  192.34    8.89
   0  -1   2  210.69    8.86
   0  -1  -2  170.69    5.39
   0   1   3 2447.65   83.02
   0   1  -3 2832.37   99.65
   0  -1   3 2399.30   85.25
   0  -1  -3 2280.53   82.73
   0   1   4  940.18   34.40
   0   1  -4  921.11   37.27
   0  -1   4  824.53   26.80
   0  -1  -4  847.39   31.69
   0   1   5 1779.00   60.06
   0   1  -5 1854.68   65.15
   0  -1   5 1449.45   53.35
   0  -1  -5 1659.86   58.48
   0   1   6  102.79   10.10
   0   1  -6  119.74   12.31
   0  -1   6   97.76    6.95
   0  -1  -6  113.02    7.16
   0   1   7  892.07   32.25
   0   1  -7  900.32   34.37
   0  -1   7  841.75   32.55
   0  -1  -7  914.17   33.77
   0   1  -8  407.23   29.65
   0   1   8  392.93   25.91
   0  -1  -8  416.04   27.59
   0  -1   8  391.27   19.21
   0   1   9 1244.53   52.74
   0   1  -9 1287.19   56.61
   0  -1   9 1288.06   55.99
   0  -1  -9 1362.13   56.24
   0   1  10   71.87    9.10
   0   1 -10   70.31   10.26
   0  -1  10   76.06   10.10
   0  -1 -10   79.78    9.26
   0   1  11  441.45   24.59
   0   1 -11  429.69   26.56
   0  -1  11  423.65   26.11
   0  -1 -11  435.41   24.74
   0   1  12   31.64    8.08
   0   1 -12   29.46    9.10
   0  -1  12   21.20   15.26
   0  -1 -12   36.92    8.31
   0   1  13  372.97   26.97
   0   1 -13  376.42   29.42
   0  -1  13  406.12   29.28
   0  -1 -13  374.20   42.82
   0   2   0 4253.22  175.75
   0   2   0 4590.22  169.94
   0  -2   0 4535.54  185.97
   0   2   1   97.72    4.71
   0   2   1   99.28    1.76
   0   2  -1  115.54    3.18
   0   2   1  101.29    1.92
   0   2  -1   98.73    4.68
   0  -2   1   97.29    2.60
   0  -2   1   94.91    4.90
   0   2  -2 2433.03   82.15
   0   2   2 2085.70   66.65
   0  -2   2 2332.01   81.14
   0  -2   2 2478.09   81.12
   0  -2  -2 2484.65   74.73
   0   2  -3   46.93    4.11
   0   2   3   40.26    3.67
   0  -2   3   45.78    3.61
   0  -2  -3   45.23    3.25
   0  -2   3   43.01    3.90
   0   2   4 4521.12  194.25
   0   2  -4 4428.45  205.57
   0  -2   4 4390.76  189.14
   0  -2  -4 4105.27  167.62
   0   2   5  404.63   12.72
   0   2  -5  417.64   15.84
   0  -2   5  355.44   14.22
   0  -2  -5  346.32   15.66
   0   2  -6 1713.46   74.19
   0   2   6 1683.44   66.38
   0  -2  -6 1473.31   52.56
   0  -2   6 1539.06   57.30
   0   2  -7  152.69   10.17
   0   2   7  149.15    8.04
   0  -2  -7  144.74   14.30
   0  -2   7  129.48    9.56
   0   2  -8  678.17   30.84
   0   2   8  679.07   36.53
   0  -2  -8  762.57   40.80
   0  -2   8  689.61   42.74
   0   2  -9  441.36   23.81
   0   2   9  431.11   20.30
   0  -2  -9  444.98   21.49
   0  -2   9  418.18   23.06
   0   2 -10  581.57   30.64
   0   2  10  560.91   37.05
   0  -2 -10  578.81   27.88
   0  -2  10  544.61   29.33
   0   2  11   54.93    8.15
   0   2 -11   49.04   10.04
   0  -2  11   49.81   17.03
   0  -2 -11   59.54   14.11
   0   2  12  141.46   23.22
   0   2 -12  164.44   17.35
   0  -2  12  158.21   17.25
   0  -2 -12  168.94   14.91
   0   2  13    6.54    4.40
   0   2 -13   -0.21    9.60
   0  -2  13   -1.91    5.44
   0  -2 -13    1.21    4.54
   0   3   0    1.93    1.79
   0   3   0    1.62    0.80
   0  -3   0    0.54    0.57
   0  -3   0    2.02    1.81
   0   3   1 2843.08   86.59
   0   3   1 2863.69  123.58
   0   3  -1 2806.73  109.99
   0   3   1 2779.67   84.73
   0   3  -1 3255.81  118.03
   0  -3   1 3052.52  102.78
   0  -3   1 3008.21  127.21
   0  -3  -1 2983.13  114.84
   0   3   2   66.32    9.02
   0   3  -2   66.43    8.66
   0   3   2   58.26    1.98
   0   3  -2   77.32    4.15
   0  -3   2   68.85    2.84
   0  -3   2   67.03    9.08
   0   3   3 2986.88  107.53
   0   3   3 2980.46  119.77
   0   3  -3 3264.02  125.57
   0  -3   3 2928.96  117.29
   0  -3   3 3006.33  112.81
   0  -3  -3 2992.79  101.81
   0   3   4  229.30    6.58
   0   3  -4  247.90   10.19
   0  -3   4  236.64   17.39
   0  -3  -4  227.83    6.02
   0  -3   4  249.08   14.21
   0   3  -5 1412.59   51.21
   0   3   5 1353.09   48.67
   0  -3   5 1359.26   62.07
   0  -3   5 1360.89   50.02
   0  -3  -5 1321.76   40.88
   0   3  -6   14.01    6.35
   0   3   6   11.56    2.34
   0  -3   6    9.66    3.62
   0  -3   6   12.45    4.13
   0  -3  -6   11.18    2.23
   0   3  -7  961.84   38.23
   0   3   7  941.63   39.33
   0  -3  -7  846.64   30.30
   0  -3   7  879.19   35.99
   0   3  -8   99.54   15.35
   0   3   8   83.57    6.55
   0  -3  -8   81.19    7.08
   0  -3   8   91.94   14.57
   0   3   9  187.93   17.49
   0   3  -9  195.42   15.32
   0  -3   9  228.46   24.43
   0  -3  -9  223.01   13.34
   0   3  10   63.14    7.33
   0   3 -10   69.24   10.09
   0  -3  10   59.98    9.76
   0  -3 -10   65.11    8.19
   0   3  11  245.76   15.42
   0   3 -11  243.81   19.76
   0  -3  11  246.88   19.79
   0  -3 -11  254.83   25.84
   0   3  12    0.18    3.45
   0   3 -12    3.60    4.89
   0  -3  12    3.93    8.03
   0  -3 -12    2.04    3.71
   0   4   0 2095.31   60.58
   0   4   0 2053.36   91.76
   0  -4   0 1991.72   89.41
   0   4   1   99.43    7.52
   0   4  -1  106.80    7.51
   0   4  -1   94.34    2.88
   0  -4   1  104.66    3.97
   0  -4   1  110.13    7.76
   0   4  -2 2542.25   89.51
   0   4  -2 2513.41  100.01
   0   4   2 2574.89  103.74
   0  -4   2 2530.53   91.35
   0  -4   2 2508.28  100.91
   0   4   3    2.33    0.86
   0   4   3    2.53    2.64
   0   4  -3    3.23    1.69
   0   4   3    1.34    0.69
   0  -4   3    1.66    1.24
   0  -4   3    3.66    2.63
   0   4   4 1449.97   42.56
   0   4   4 1441.52   70.11
   0   4  -4 1647.67   67.73
   0  -4   4 1435.50   49.56
   0  -4   4 1443.92   57.51
   0   4   5  485.17   13.75
   0   4  -5  563.90   21.28
   0  -4   5  500.30   23.38
   0  -4   5  517.10   19.55
   0  -4  -5  491.05   13.22
   0   4   6  572.24   17.48
   0   4  -6  609.56   24.75
   0  -4   6  563.18   27.38
   0  -4   6  583.17   34.03
   0  -4  -6  543.87   16.33
   0   4   7   70.54    7.53
   0   4  -7   78.18   13.42
   0  -4   7   70.67   13.14
   0  -4   7   81.60    9.54
   0  -4  -7   75.51    7.27
   0   4   8   55.52    5.27
   0   4  -8   60.73    8.85
   0  -4   8   81.80   14.14
   0  -4   8   88.08   10.67
   0  -4  -8   97.13    5.72
   0   4  -9   51.59    8.04
   0   4   9   42.59    4.92
   0  -4   9   48.45   15.99
   0  -4   9   27.89   12.95
   0  -4  -9   37.82    5.27
   0   4  10  199.45   17.89
   0   4 -10  216.68   27.47
   0  -4  10  206.62   16.57
   0  -4 -10  211.35   13.34
   0  -4  10  221.24   33.22
   0   4 -11   -3.87    4.17
   0   4  11    2.46    2.60
   0  -4  11    3.79    4.05
   0  -4  11   -2.36    5.30
   0  -4 -11    1.55    3.11
   0   4  12  305.42   27.56
   0   4 -12  306.86   25.71
   0  -4  12  316.39   36.07
   0  -4 -12  329.22   20.49
   0   5   0    0.66    2.64
   0  -5   0    1.00    2.70
   0   5  -1 1050.12   29.04
   0   5  -1 1068.01   55.81
   0   5   1 1063.38   43.62
   0  -5   1 1081.41   28.18
   0  -5   1 1082.27   44.41
   0   5  -2   31.97    5.87
   0   5   2   27.87   10.43
   0   5  -2   28.84    3.37
   0  -5   2   26.93    3.21
   0  -5   2   32.30   10.34
   0   5   3 1135.46   48.23
   0   5  -3 1008.36   43.18
   0   5  -3 1033.71   38.78
   0  -5   3 1113.64   47.00
   0  -5   3 1090.13   33.31
   0   5   4  667.16   13.96
   0   5   4  618.40   13.04
   0   5   4  671.39   31.59
   0   5  -4  696.83   30.87
   0  -5   4  641.12   21.20
   0  -5   4  628.58   31.08
   0   5  -5   74.43    9.53
   0   5   5   57.11    8.27
   0  -5   5   17.31    7.25
   0  -5   5   18.12   13.68
   0   5   6   24.90   11.73
   0   5   6   24.01    2.29
   0   5  -6   23.52    5.18
   0  -5   6   20.61    7.03
   0  -5   6   22.75    4.43
   0   5   7  246.56   17.98
   0   5  -7  250.95   14.37
   0   5   7  214.50    7.86
   0  -5   7  198.52   17.79
   0  -5   7  211.38   13.52
   0  -5  -7  188.20   10.29
   0   5  -8   31.80    6.61
   0   5   8   29.46    3.30
   0  -5   8   31.64   15.02
   0  -5   8   31.28   11.10
   0  -5  -8   25.80    5.40
   0   5  -9  396.92   33.41
   0   5   9  348.53   19.26
   0  -5   9  360.99   26.64
   0  -5   9  322.45   31.39
   0  -5  -9  328.53   13.69
   0   5 -10    9.43    5.50
   0   5  10   11.45    5.14
   0  -5  10   12.67    5.24
   0  -5 -10    4.22    3.28
   0  -5  10    7.87    7.33
   0   5  11  232.06   12.52
   0   5 -11  270.92   32.45
   0  -5  11  209.33   18.88
   0  -5  11  238.82   25.66
   0  -5 -11  182.43   13.64
   0   6   0  390.84   23.40
   0  -6   0  466.13   24.41
   0   6  -1    4.41    3.70
   0   6   1    4.46    6.70
   0   6  -1    2.13    0.59
   0  -6   1    3.60    3.85
   0   6  -2  322.65    8.28
   0   6  -2  340.66   20.42
   0   6   2  324.52   32.34
   0  -6   2  384.97   33.30
   0  -6   2  349.20   11.05
   0   6   3  153.34   22.53
   0   6  -3  126.46    5.01
   0   6  -3  135.95   13.02
   0  -6   3  128.75    7.57
   0  -6   3  141.81   22.97
   0   6  -4  463.00   20.03
   0   6   4  515.72   40.75
   0  -6   4  403.97   25.87
   0  -6   4  393.33   13.73
   0   6  -5    7.58    4.48
   0   6   5    6.90    5.45
   0  -6   5    4.44    2.26
   0  -6   5    8.98    5.41
   0   6   6  299.02   22.80
   0   6  -6  325.88   15.91
   0  -6   6  272.09   19.16
   0  -6   6  263.14   22.42
   0   6   7    2.46    8.61
   0   6  -7    0.54    3.36
   0  -6   7    3.48    2.78
   0  -6   7   -0.29    8.64
   0   6  -8  432.15   23.86
   0   6   8  419.03   31.49
   0  -6   8  396.51   30.86
   0  -6   8  401.33   22.63
   0   6  -9   91.17   11.59
   0  -6   9   88.16   16.68
   0  -6   9   95.43   11.91
   0   7  -2   12.65   13.40
   0  -7   2   33.60   14.53
   0   7   3  283.55   34.90
   0  -7   3  286.10   22.25
   0  -7   3  258.30    7.74
   0   7  -4    5.38    3.24
   0   7   4   13.71    6.33
   0  -7   4    7.54    3.24
   0  -7   4    7.08    6.60
   0   7   5  155.53   17.33
   0   7  -5  136.17    7.35
   0  -7   5  128.26   10.76
   0  -7   5  136.33   17.19
   0   7   6   66.99   22.53
   0   7  -6   61.29    6.17
   0  -7   6   16.94   22.24
   0  -7   6   64.29    9.15
   0   7  -7  220.75   14.23
   0  -7   7  199.97   12.37
   0  -7   7  215.42   23.37
   0   8   0  476.75   33.98
   0   8  -1    8.50   11.77
   0  -8   1  106.69   13.10
   0   8  -2  230.18   23.23
   0  -8   2  237.07   38.30
   0   8   3  163.74   22.76
   0  -8   3    8.07   12.74
   0  -8   4  262.60   26.13
   1   0 -13   63.45   11.81
  -1   0  13   52.83   19.81
   1   0 -12  479.10   43.69
  -1   0  12  457.12   27.69
   1   0 -11   24.99    7.30
  -1   0  11   31.85    7.18
   1   0 -10  157.82   20.74
  -1   0  10  150.07   20.41
   1   0  -9  403.73   20.36
  -1   0   9  390.38   19.74
   1   0  -8  877.39   34.40
  -1   0   8  828.88   32.74
   1   0  -7   11.24    3.39
  -1   0   7    7.88    3.24
   1   0  -6 1677.29   61.26
  -1   0   6 1574.96   67.11
   1   0  -5  425.55   15.69
  -1   0   5  427.22   15.85
   1   0  -4 2359.59   84.40
  -1   0   4 2544.62   91.04
   1   0  -3   38.90    3.43
  -1   0   3   40.84    5.93
   1   0  -2 7175.34  339.69
  -1   0   2 7129.06  329.03
   1   0   1    8.48    0.94
  -1   0  -1    6.74    1.11
   1   0   2 8925.88  458.65
  -1   0  -2 9311.79  477.23
   1   0   3   31.43    4.77
  -1   0  -3   33.55    2.75
   1   0   4 1057.75   34.00
  -1   0  -4 1011.09   32.07
   1   0   5  133.05   12.72
  -1   0  -5  122.94    7.29
   1   0   6  182.52   10.22
  -1   0  -6  188.04   10.68
   1   0   7   47.15    6.11
  -1   0  -7   46.12    6.57
   1   0   8   76.28   14.66
  -1   0  -8   79.73    9.47
   1   0   9  196.90   14.81
  -1   0  -9  205.98   24.90
   1   0  10  414.06   37.70
  -1   0 -10  431.07   25.35
   1   0  11   35.34    8.58
  -1   0 -11   37.34    8.83
   1   0  12  222.50   31.60
  -1   0 -12  199.62   32.49
   1   0  13   13.42    8.26
  -1   0 -13   17.05    8.32
   1   1 -13  274.88   23.94
  -1   1  13  302.72   36.17
   1  -1 -13  289.38   37.08
  -1  -1  13  272.79   25.07
   1   1 -12   -0.01    4.06
  -1   1  12    1.05    3.59
   1  -1 -12    1.35    3.60
  -1  -1  12    1.87    4.02
   1   1 -11  200.74   16.20
  -1   1  11  190.08   14.32
   1  -1 -11  172.34   22.95
  -1  -1  11  168.88   15.60
  -1   1  10  320.03   27.08
   1   1 -10  326.20   19.77
  -1  -1  10  314.55   19.44
   1  -1 -10  328.92   18.61
   1   1  -9  286.62   25.93
  -1   1   9  274.73   14.48
   1  -1  -9  201.41   22.20
  -1  -1   9  180.29   24.06
   1   1  -8    5.88    3.60
  -1   1   8    3.94    2.95
   1  -1  -8    3.58    3.01
  -1  -1   8    5.60    3.39
   1   1  -7 1190.80   45.26
  -1   1   7 1147.42   50.16
   1  -1  -7 1217.39   52.17
  -1  -1   7 1067.53   40.96
  -1   1   6  280.64   16.40
   1   1  -6  316.21   21.24
  -1  -1   6  278.17   12.62
   1  -1  -6  303.60   11.84
   1   1  -5  844.11   30.59
  -1   1   5  776.90   33.99
   1  -1  -5  957.84   30.93
  -1  -1   5 1029.31   34.72
  -1   1   4    8.49    3.28
   1   1  -4    4.66    2.05
  -1  -1   4    5.12    3.68
   1  -1  -4    6.22    3.00
   1   1  -3 1805.21   58.68
  -1   1   3 1854.63   57.95
   1  -1  -3 2008.41   62.12
  -1  -1   3 1846.32   59.77
  -1   1   2   67.28    2.84
   1   1  -2   73.15    4.23
  -1  -1   2   66.69    4.14
   1  -1  -2   67.80    2.99
  -1   1   117460.55 1115.42
   1   1  -116220.99 1024.09
   1   1  -117733.61 1119.41
  -1   1   117398.32 1081.59
   1  -1  -116377.96 1017.44
  -1  -1   117162.88 1086.81
  -1  -1   116084.47 1019.44
   1   1   0  458.47   12.22
  -1   1   0  461.72   11.87
   1   1   0  458.82   10.80
  -1   1   0  460.13   10.74
   1  -1   0  453.82   15.82
  -1  -1   0  482.13   14.41
   1  -1   0  410.30    8.01
  -1   1  -1 8831.92  436.81
   1   1   1 8891.04  447.30
   1  -1   1 8544.18  423.99
   1  -1   1 8612.93  433.90
  -1  -1  -1 8821.20  434.57
   1   1   2  272.44   10.27
  -1   1  -2  265.99    8.07
   1  -1   2  258.34    8.26
  -1  -1  -2  277.49   10.51
  -1   1  -3 1708.52   56.03
   1   1   3 1879.80   63.13
  -1  -1  -3 1833.55   56.95
   1  -1   3 1728.85   57.52
   1   1   4  156.98    6.59
  -1   1  -4  143.07    7.75
   1  -1   4  162.20    7.72
  -1  -1  -4  163.25    6.54
   1   1   5  893.51   30.38
  -1   1  -5  996.25   34.38
   1  -1   5  915.71   32.49
  -1  -1  -5  819.00   27.63
   1   1   6   29.69    4.36
  -1   1  -6   31.25    5.44
   1  -1   6   33.19    4.74
  -1  -1  -6   31.16    4.39
  -1   1  -7  767.07   41.07
   1   1   7  723.70   37.21
  -1  -1  -7  651.19   26.95
   1  -1   7  597.04   25.51
   1   1   8  831.60   35.19
  -1   1  -8  908.15   39.54
   1  -1   8  842.78   37.23
  -1  -1  -8  885.28   38.71
   1   1   9 1310.74   55.42
  -1   1  -9 1280.89   57.08
   1  -1   9 1161.17   52.70
  -1  -1  -9 1264.23   55.75
   1   1  10  109.31   11.21
  -1   1 -10   98.23   21.22
   1  -1  10  112.79   12.38
  -1  -1 -10  108.66   19.57
   1   1  11  237.06   18.23
  -1   1 -11  248.04   19.99
   1  -1  11  242.84   19.83
  -1  -1 -11  252.76   18.75
   1   1  12    0.35    9.00
  -1   1 -12    8.77    6.14
   1  -1  12    6.11    6.02
  -1  -1 -12    4.24    5.56
   1   1  13  172.10   18.53
  -1   1 -13  153.46   34.54
   1  -1  13  193.17   20.74
  -1  -1 -13  199.58   31.75
   1   2 -13    2.77    8.29
  -1   2  13    4.08    3.89
   1  -2 -13   -0.60    3.89
  -1  -2  13   -0.51    4.81
   1   2 -12  190.65   18.43
  -1   2  12  186.52   14.60
   1  -2 -12  177.91   15.04
  -1  -2  12  174.85   18.04
   1   2 -11   58.75   16.82
  -1   2  11   51.78    7.82
   1  -2 -11   57.10    7.93
  -1  -2  11   43.26   16.42
   1   2 -10  705.86   34.88
  -1   2  10  711.02   41.53
   1  -2 -10  694.87   30.40
  -1  -2  10  633.64   32.73
   1   2  -9  548.56   39.55
  -1   2   9  500.79   21.85
   1  -2  -9  548.47   32.53
  -1  -2   9  500.52   25.48
   1   2  -8 1278.86   53.10
  -1   2   8 1253.40   47.43
   1  -2  -8 1348.65   49.87
  -1  -2   8 1142.28   49.31
   1   2  -7  109.98    8.76
  -1   2   7   88.40    6.20
   1  -2  -7  103.85    6.55
  -1  -2   7   90.06    8.13
  -1   2   6 1419.73   50.28
   1   2  -6 1611.84   74.07
  -1  -2   6 1654.31   62.41
   1  -2  -6 1713.74   58.15
   1   2  -5  847.30   29.86
  -1   2   5  804.21   25.11
   1  -2  -5  824.18   25.40
  -1  -2   5  834.57   29.28
   1   2  -4 1994.59   72.20
  -1   2   4 2239.79   75.31
   1  -2  -4 2213.06   80.31
  -1  -2   4 2135.03   85.38
   1   2  -3  163.37    8.90
  -1   2   3  161.65    3.99
  -1  -2   3  146.42    6.47
  -1  -2   3  149.68    8.53
   1  -2  -3  149.36    4.20
   1   2  -2 1111.08   30.22
  -1   2   2 1131.17   27.34
  -1   2   2 1083.93   33.45
  -1  -2   2 1045.22   29.01
  -1  -2   2 1087.69   38.25
   1   2  -1 1506.02   41.53
   1   2  -1 1553.30   47.78
  -1   2   1 1531.21   55.37
   1  -2  -1 1474.20   46.90
  -1  -2   1 1526.18   53.09
  -1  -2   1 1520.83   45.96
  -1   2   0 1602.11   40.62
   1   2   0 1453.47   43.63
   1   2   0 1519.12   42.01
  -1   2   0 1488.68   46.00
   1  -2   0 1214.27   33.17
  -1  -2   0 1385.11   37.21
   1  -2   0 1382.47   43.50
  -1  -2   0 1372.80   42.07
  -1   2  -1  516.51   13.57
   1   2   1  532.09   14.88
   1   2   1  535.78   12.88
  -1   2  -1  525.03   15.29
   1  -2   1  453.24   11.49
  -1   2  -2 1075.47   30.64
   1   2   2 1150.07   29.98
   1  -2   2 1091.12   32.55
  -1  -2  -2 1163.24   30.53
   1  -2   2 1160.14   35.80
  -1   2  -3  317.52   10.71
   1   2   3  332.09    8.97
   1  -2   3  336.96   12.10
  -1  -2  -3  323.77   11.75
   1  -2   3  322.68   16.21
   1   2   4  889.04   24.89
  -1   2  -4  903.62   28.38
   1  -2   4  676.32   23.71
  -1  -2  -4  668.27   20.30
   1   2   5    4.16    2.13
  -1   2  -5    6.77    2.98
   1  -2   5    6.31    2.55
  -1  -2  -5    5.90    3.22
  -1   2  -6 1107.46   40.33
   1   2   6  925.30   32.05
  -1  -2  -6  826.69   29.07
   1  -2   6  927.43   34.57
  -1   2  -7   36.66   10.10
   1   2   7   37.68    7.95
  -1  -2  -7   23.13    4.44
   1  -2   7   26.63    5.40
   1   2   8 1634.90   64.45
  -1   2  -8 1661.11   70.43
   1  -2   8 1533.10   81.65
  -1  -2  -8 1472.11   62.68
  -1   2  -9  141.54   13.97
   1   2   9  158.41   11.76
  -1  -2  -9  165.23   12.95
   1  -2   9  163.76   13.28
   1   2  10  500.68   36.00
  -1   2 -10  513.96   28.52
   1  -2  10  471.34   27.23
  -1  -2 -10  498.51   26.67
   1   2  11   33.10    7.57
  -1   2 -11   36.24    9.32
   1  -2  11   35.82    9.10
  -1  -2 -11   33.26   13.63
   1   2  12  267.45   33.03
  -1   2 -12  295.74   24.69
   1  -2  12  286.67   24.73
  -1  -2 -12  315.21   22.10
   1  -3 -13  125.17   12.94
  -1   3  12    3.51    3.50
   1   3 -12    0.73    5.01
  -1  -3  12    1.61    4.83
   1  -3 -12    1.96    3.54
   1   3 -11  422.89   26.70
  -1   3  11  405.20   30.05
   1  -3 -11  433.03   31.63
  -1  -3  11  387.79   26.36
   1   3 -10   27.16    7.30
  -1   3  10   21.35    5.08
   1  -3 -10   30.28    5.41
  -1  -3  10   34.26    7.29
   1   3  -9  782.57   51.03
  -1   3   9  749.45   29.64
   1  -3  -9  860.42   33.17
  -1  -3   9  746.36   36.17
   1   3  -8   78.51    9.17
  -1   3   8   80.33    9.94
   1  -3  -8   93.80   11.23
  -1  -3   8   67.01   15.27
   1   3  -7  959.48   52.78
  -1   3   7  870.70   38.22
   1  -3  -7 1027.99   43.11
  -1  -3   7 1011.09   41.85
   1   3  -6   70.90    7.02
  -1   3   6   75.88    7.08
   1  -3  -6   58.88    6.65
  -1  -3   6   79.46    7.02
  -1  -3   6   71.05    7.15
  -1   3   5 1529.05   51.08
   1   3  -5 1283.34   45.70
  -1  -3   5 1254.46   43.71
   1  -3  -5 1065.86   36.84
  -1  -3   5 1215.26   55.25
   1   3  -4  670.85   21.62
  -1   3   4  682.13   19.40
   1  -3  -4  581.19   14.30
  -1  -3   4  618.19   19.66
  -1  -3   4  609.80   22.24
  -1   3   3 2034.71   59.55
   1   3  -3 2031.52   67.89
  -1   3   3 1839.30   68.51
   1  -3  -3 1903.20   55.77
  -1  -3   3 1844.50   62.10
  -1  -3   3 1845.93   67.43
   1   3  -2  143.77    4.75
   1   3  -2  136.57    7.15
  -1   3   2  135.13    7.90
  -1  -3   2  134.89    4.68
  -1  -3   2  143.74    7.48
   1   3  -1 5805.66  265.94
   1   3  -1 5910.39  249.76
  -1   3   1 5772.77  267.68
  -1  -3   1 5615.34  242.87
  -1  -3   1 5248.22  243.97
   1  -3  -1 5485.10  254.41
  -1   3   0 1239.95   42.58
   1   3   0 1202.17   48.49
   1   3   0 1214.91   33.67
  -1   3   0 1258.38   31.20
   1  -3   0 1215.23   51.02
  -1  -3   0 1240.88   49.53
   1  -3   0 1243.28   30.81
  -1   3  -1 2001.78   64.19
   1   3   1 2069.14   64.14
   1   3   1 2124.55   65.45
   1   3   1 1992.56   72.55
  -1   3  -1 1997.58   72.77
   1  -3   1 2165.47   69.54
   1  -3   1 1939.15   71.48
   1   3   2  241.18    5.42
   1   3   2  239.73   10.37
  -1   3  -2  232.27   10.43
  -1   3  -2  229.21    9.46
   1  -3   2  233.67   16.37
   1  -3   2  267.80    8.07
   1   3   3 2414.80   82.42
  -1   3  -3 2156.27   77.00
   1  -3   3 2403.51   90.79
  -1  -3  -3 2300.18   75.14
   1  -3   3 2282.93   90.87
  -1   3  -4  211.51    9.14
   1   3   4  208.85    6.68
   1  -3   4  221.46   17.00
   1  -3   4  200.03   13.24
  -1  -3  -4  212.27    6.52
   1   3   5 1398.70   47.82
  -1   3  -5 1591.22   58.49
   1  -3   5 1397.33   60.91
  -1  -3  -5 1444.33   52.89
   1  -3   5 1477.11   55.89
   1   3   6  133.09    7.05
  -1   3  -6  152.21   10.22
   1  -3   6  116.99    9.92
   1  -3   6  114.91    8.37
  -1  -3  -6  109.84    6.14
   1   3   7  402.17   16.28
  -1   3  -7  449.32   31.59
   1  -3   7  396.24   18.98
  -1  -3  -7  364.99   21.30
  -1   3  -8  283.71   16.94
   1   3   8  279.07   19.81
  -1  -3  -8  215.65   18.72
   1  -3   8  236.32   15.27
   1   3   9  594.66   25.19
  -1   3  -9  603.91   30.68
   1  -3   9  550.96   28.49
  -1  -3  -9  494.91   35.41
   1   3  10   42.81    6.52
  -1   3 -10   38.59   14.92
   1  -3  10   34.42    8.41
  -1  -3 -10   32.23   12.52
  -1   3 -11  191.78   18.80
   1   3  11  183.29   14.17
  -1  -3 -11  204.70   24.84
   1  -3  11  179.62   29.46
  -1   3 -12   47.64   11.26
   1   3  12   45.73    8.26
  -1  -3 -12   35.48    8.85
   1  -3  12   32.90   10.80
   1   4 -12  330.32   34.64
  -1   4  12  206.47   21.36
  -1  -4  12  192.21   27.30
  -1  -4  12  195.01   19.62
   1  -4 -12  194.21   14.24
   1   4 -11    9.04    6.18
  -1   4  11   10.77    3.83
   1  -4 -11    9.16    4.21
  -1  -4  11    5.39    6.05
  -1  -4  11   13.10    7.74
   1   4 -10  404.90   36.55
  -1   4  10  339.04   16.45
   1  -4 -10  390.58   18.72
  -1  -4  10  375.05   26.63
  -1  -4  10  444.95   36.63
  -1   4   9  171.95   14.45
   1   4  -9  183.92   14.33
  -1  -4   9  186.42   27.05
   1  -4  -9  189.63   16.02
   1   4  -8  463.30   33.77
  -1   4   8  439.57   22.37
   1  -4  -8  407.60   21.84
  -1  -4   8  487.38   25.55
  -1  -4   8  485.09   35.76
   1   4  -7  102.45    8.71
  -1   4   7   98.21    8.87
   1  -4  -7   93.29    4.84
  -1  -4   7   99.50    9.28
  -1  -4   7   94.43   10.32
   1   4  -6  256.59   13.45
   1  -4  -6  211.34    9.64
  -1  -4   6  227.84   11.92
  -1  -4   6  224.53   14.84
  -1   4   5  642.09   28.79
   1   4  -5  645.40   25.39
  -1   4   5  707.84   21.08
  -1  -4   5  650.13   28.17
   1  -4  -5  637.77   18.74
  -1  -4   5  663.38   30.03
  -1   4   4 1474.51   59.01
   1   4  -4 1525.72   53.65
  -1   4   4 1562.21   43.20
  -1  -4   4 1416.36   48.39
   1  -4  -4 1423.52   38.32
  -1  -4   4 1464.14   57.04
   1   4  -3   -0.92    3.76
   1   4  -3   20.87    4.20
  -1   4   3   15.92    4.21
  -1  -4   3   21.58    3.53
  -1  -4   3   17.84    4.09
   1   4  -2 2569.23   92.36
   1   4  -2 2272.51   89.41
  -1   4   2 2328.77  107.65
  -1  -4   2 2270.61   83.03
  -1  -4   2 2244.60  101.89
   1   4  -1  244.38   11.67
  -1   4   1  238.95   12.34
   1   4  -1  259.40    6.29
  -1  -4   1  242.84   11.92
   1  -4  -1  258.97   12.29
  -1  -4   1  236.54    5.91
   1   4   0 3676.94  159.01
  -1   4   0 3877.30  133.60
   1   4   0 3890.90  140.78
  -1   4   0 3738.68  162.45
   1  -4   0 3595.05  157.31
   1  -4   0 3581.32  124.02
  -1  -4   0 3914.82  167.95
   1   4   1  169.88    3.42
   1   4   1  173.40    4.49
  -1   4  -1  175.03   15.67
   1   4   1  163.01   15.03
  -1   4  -1  172.75    5.47
   1  -4   1  173.27    5.31
   1  -4   1  188.09   16.54
  -1   4  -2 2099.02   80.97
   1   4   2 2121.73   66.54
   1   4   2 2138.68   66.30
   1   4   2 2064.49   81.18
  -1   4  -2 2018.87   70.20
   1  -4   2 1999.20   79.67
   1  -4   2 2057.18   71.75
   1   4   3   33.32    2.70
  -1   4  -3   33.48    2.90
   1   4   3   38.68    8.98
   1  -4   3   35.80    5.02
   1  -4   3   41.26    5.72
   1   4   4 2072.77   83.50
  -1   4  -4 1986.29   82.48
   1   4   4 2060.16   68.60
   1  -4   4 2021.27   75.94
   1  -4   4 1920.30   96.65
   1   4   5   81.08    4.36
  -1   4  -5   85.44   11.36
   1  -4   5   80.24    9.14
   1  -4   5   77.26    6.65
  -1  -4  -5   78.61    6.30
   1   4   6  597.56   19.29
  -1   4  -6  668.77   37.54
   1  -4   6  547.83   27.00
  -1  -4  -6  522.30   16.82
   1  -4   6  478.27   21.11
   1   4   7  163.60   12.54
  -1   4  -7  184.23   12.97
   1  -4   7  137.25   10.57
   1  -4   7  157.18   21.86
  -1  -4  -7  149.63   11.45
   1   4   8  367.66   15.38
  -1   4  -8  397.48   21.98
   1  -4   8  374.31   19.42
   1  -4   8  384.85   23.75
  -1  -4  -8  358.55   14.87
   1   4   9   34.39    4.91
  -1   4  -9   35.56    7.65
   1  -4   9   32.79   11.73
   1  -4   9   35.92    8.77
  -1  -4  -9   26.04    5.01
   1   4  10  233.58   20.09
  -1   4 -10  243.19   19.01
   1  -4  10  243.05   17.68
   1  -4  10  228.72   35.59
  -1  -4 -10  200.89   13.95
  -1   4 -11    2.12    4.81
   1   4  11    0.40    3.07
   1  -4  11    4.57    4.46
  -1  -4 -11    1.10    3.69
   1  -4  11    8.68   10.15
   1   5 -11  156.10   15.96
  -1   5  11  136.31    9.47
   1  -5 -11  131.80   10.76
  -1  -5  11  147.75   20.80
  -1  -5  11  302.66   28.55
   1   5 -10    9.04    5.79
  -1   5  10    9.90    3.12
   1  -5 -10   10.54    3.27
  -1  -5  10   13.66    7.53
   1   5  -9  286.49   27.55
  -1   5   9  255.76   11.37
   1  -5  -9  236.59   10.51
  -1  -5   9  281.49   22.15
  -1  -5   9  442.89   32.83
   1   5  -8   39.85    7.14
  -1   5   8   49.52    4.23
   1  -5  -8   40.98    5.45
  -1  -5   8   53.82    7.91
  -1  -5   8   42.72   17.00
  -1   5   7  421.52   25.96
   1   5  -7  402.05   28.99
  -1   5   7  457.48   17.24
   1  -5  -7  379.99   14.48
  -1  -5   7  402.01   25.06
  -1  -5   7  420.78   19.79
   1   5  -6   33.11    5.01
  -1   5   6   29.97    2.70
  -1   5   6   37.08    7.74
   1  -5  -6   24.78    1.64
  -1  -5   6   29.09    4.41
  -1  -5   6   30.30    7.40
   1   5  -5 2391.73  109.66
  -1   5   5 2388.91   72.81
  -1   5   5 2338.17  129.86
  -1  -5   5 2257.11   90.22
   1   5  -4  154.65    8.66
  -1   5   4  149.61   21.56
  -1  -5   4  143.19    6.86
  -1  -5   4  145.69   20.40
   1   5  -3 1425.61   58.69
   1   5  -3 1528.86   52.84
  -1   5   3 1413.25   77.55
  -1  -5   3 1360.23   50.72
  -1  -5   3 1374.37   74.08
   1   5  -2   45.21    3.31
   1   5  -2   37.09    6.34
  -1   5   2   42.23    7.13
  -1  -5   2   39.53    2.41
  -1  -5   2   38.65    6.76
  -1   5   1  995.40   43.35
   1   5  -1 1317.92   40.90
   1   5  -1 1014.19   54.89
   1  -5  -1 1052.17   43.18
  -1  -5   1 1023.93   30.98
  -1  -5   1 1028.29   42.90
   1   5   0   60.19    2.80
   1   5   0   49.55    1.47
   1   5   0   50.28    6.90
  -1   5   0   45.24    7.49
   1  -5   0   61.59    7.46
  -1  -5   0   53.03    6.79
   1   5   1  819.39   46.07
   1   5   1  906.96   20.49
  -1   5  -1  807.27   34.39
   1   5   1  795.21   17.92
  -1   5  -1  806.89   21.31
   1  -5   1  851.68   22.49
   1  -5   1  821.27   47.26
   1   5   2    7.19    0.64
   1   5   2   11.93    4.13
   1   5   2    7.50    0.71
  -1   5  -2    7.49    4.16
  -1   5  -2    9.56    2.20
   1  -5   2   13.00    4.42
   1  -5   2    9.88    2.11
   1   5   3 1635.40   47.56
   1   5   3 1581.61   67.17
   1   5   3 1629.18   46.59
  -1   5  -3 1541.28   50.44
   1  -5   3 1400.62   47.04
   1  -5   3 1420.17   63.35
   1   5   4   61.76    2.32
   1   5   4   60.80    3.75
   1   5   4   70.97    8.73
  -1   5  -4   66.03    7.49
   1  -5   4   62.42    9.25
   1  -5   4   59.38    4.52
   1   5   5 1327.36   58.76
  -1   5  -5 1220.94   45.94
   1   5   5 1360.66   40.86
   1  -5   5 1172.08   73.24
   1  -5   5 1206.68   46.34
   1   5   6   54.95   15.40
   1   5   6   51.42    5.46
  -1   5  -6   58.62    6.76
   1  -5   6   58.32   11.01
   1  -5   6   51.91    9.77
   1   5   7  153.39   14.30
  -1   5  -7  170.31   19.46
   1   5   7  150.01    6.42
   1  -5   7  129.23   14.32
   1  -5   7  108.58   16.20
  -1  -5  -7  115.83    5.90
  -1   5  -8    1.11    6.74
   1   5   8    2.80    3.19
   1  -5   8    2.74    5.65
  -1  -5  -8    1.27    3.25
   1  -5   8    4.64    4.92
  -1   5  -9  164.55   15.03
   1   5   9  156.48    8.66
   1  -5   9  139.14   12.94
   1  -5   9  156.02   17.52
  -1  -5  -9  144.52    8.77
   1   5  10    5.63    5.77
  -1   5 -10   13.85    6.29
   1  -5  10    9.49    5.63
   1  -5  10   13.57    7.95
  -1  -5 -10    9.22    3.75
   1   6  -9   47.94    7.39
  -1   6   9   45.41   11.60
  -1  -6   9   40.89   11.01
  -1  -6   9    0.22    7.84
   1   6  -8  358.65   20.10
  -1   6   8  360.16   28.82
  -1  -6   8  340.00   19.40
  -1  -6   8  350.38   27.44
   1   6  -7   36.10   10.45
  -1   6   7   40.09   17.56
  -1  -6   7   37.53    5.61
  -1  -6   7   42.09   16.93
   1   6  -6  541.02   22.96
  -1   6   6  486.66   31.35
  -1  -6   6  467.53   30.15
  -1  -6   6  470.75   19.77
   1   6  -5   21.40    4.26
  -1   6   5   20.47    7.62
  -1  -6   5   16.40    7.08
  -1  -6   5   14.86    5.55
   1   6  -4 1783.35   74.87
  -1   6   4 1570.21   76.48
  -1  -6   4 1611.83   75.81
  -1  -6   4 1534.29   56.14
   1   6  -3    8.56    3.67
   1   6  -3    9.04    5.18
  -1   6   3    7.28    5.69
  -1  -6   3   11.09    5.47
  -1  -6   3    9.11    3.05
   1   6  -2  450.60   23.93
   1   6  -2  424.98   15.15
  -1   6   2  457.29   26.15
  -1  -6   2  491.80   25.66
  -1  -6   2  464.52   15.07
   1   6  -1  155.39    3.73
   1   6  -1  169.83   13.38
  -1   6   1  172.57   14.27
  -1  -6   1  177.97   13.84
  -1   6   0  275.69   18.86
   1   6   0  273.19   27.87
  -1  -6   0  292.70   17.97
   1  -6   0  316.12   29.41
   1   6   1   -1.22    6.59
  -1   6  -1    4.02    3.92
   1  -6   1    2.17    6.92
  -1   6  -2  273.63    7.04
   1   6   2  291.67   28.91
  -1   6  -2  302.29   29.79
   1  -6   2  289.10    7.43
   1  -6   2  315.49   30.95
   1   6   3  183.84   15.43
  -1   6  -3  193.82    9.16
   1  -6   3  190.97    9.24
   1  -6   3  198.77   27.10
  -1   6  -4  164.82   11.43
   1   6   4  181.71   26.73
   1  -6   4  234.54   11.86
   1  -6   4  231.13   28.40
   1   6   5   26.80    7.86
   1   6   5   23.39    1.65
   1   6   5   27.23    2.06
  -1   6  -5   27.37    6.17
   1  -6   5   22.55    5.97
   1  -6   5   20.10    8.23
   1   6   6  291.17   21.50
  -1   6  -6  271.13   13.56
   1  -6   6  271.07   21.85
   1  -6   6  252.71   12.79
  -1   6  -7    2.39    3.84
   1   6   7    7.20    9.86
   1  -6   7    6.68    3.61
   1  -6   7    4.65   10.25
   1   6   8  306.41   26.38
  -1   6  -8  334.76   21.58
   1  -6   8  312.08   26.92
   1  -6   8  262.57   18.41
  -1   6  -9   30.02   14.83
   1  -6   9   34.36   12.13
   1  -6   9   33.66    7.55
   1   7  -8   -2.12    2.96
  -1   7   8    5.45    8.88
  -1  -7   8    0.71    4.36
  -1  -7   8    1.32    8.43
   1   7  -7  252.69   24.56
  -1   7   7  232.13   25.16
  -1  -7   7  233.14   13.10
  -1  -7   7  239.21   23.93
   1   7  -6   70.92   11.52
  -1   7   6   59.21   22.88
  -1  -7   6   56.49    9.43
  -1  -7   6   61.34   21.78
   1   7  -5  181.32   14.68
  -1   7   5  182.78   20.71
  -1  -7   5  210.05   13.55
  -1  -7   5  223.94   20.08
   1   7  -4   40.69    5.81
  -1   7   4   44.36   10.58
  -1  -7   4   40.07    3.40
  -1  -7   4   45.16   10.42
   1   7  -3  314.28    9.53
  -1   7   3  357.32   25.80
  -1  -7   3  335.22   12.90
  -1  -7   3  381.53   24.92
   1   7  -2  137.81   23.21
  -1   7   2   95.14   14.69
  -1  -7   2  108.61   13.93
   1   7  -1  589.23   33.46
  -1  -7   1  597.68   33.89
   1   7   0   22.53    7.84
   1  -7   0   25.17    8.29
   1   7   1  367.52   24.39
  -1   7  -1  356.55   25.05
   1  -7   1  344.14   25.47
  -1   7  -2   14.24    5.50
   1  -7   2    4.89    0.90
   1   7   3  330.30   37.30
   1  -7   3  329.24   38.42
   1  -7   3  302.54    8.81
  -1   7  -4   25.07    4.48
   1   7   4   25.63    8.56
   1  -7   4   23.46    2.70
   1  -7   4   18.72    9.45
   1   7   5  523.30   33.64
  -1   7  -5  471.91   17.41
   1  -7   5  465.75   17.53
   1  -7   5  513.72   34.42
  -1   7  -6    3.80    4.83
   1  -7   6    6.18    2.75
   1  -7   6    8.24   11.93
  -1   7  -7  297.18   23.56
   1  -7   7  276.98   15.01
   1  -7   7  304.87   28.24
  -1   8   4  301.29   28.46
  -1  -8   4  288.72   27.16
  -1   8   3   13.59    8.79
  -1  -8   3   12.39    8.30
   1   8  -2  307.04   25.49
  -1  -8   2  279.15   25.19
   1   8  -1    3.29    5.52
   1   8   0  167.70   19.04
   1   8   1   10.59    6.59
  -1   8  -1   -0.22    6.69
   1  -8   1    7.08    6.78
   1   8   2  314.68   26.75
  -1   8  -2  309.26   26.95
   1  -8   2  286.10   28.27
   1   8   3  131.91   25.93
   1  -8   3   23.27   27.14
   1  -8   4   89.96   16.82
   2   0 -14  610.11   58.93
  -2   0  14  535.46   37.27
   2   0 -13   28.02    8.67
  -2   0  13   25.96    8.86
   2   0 -12  433.72   37.48
  -2   0  12  316.10   22.83
   2   0 -11   17.58    6.32
  -2   0  11   20.95    6.25
   2   0 -10  524.18   25.93
  -2   0  10  481.47   37.35
   2   0  -9   53.17   12.87
  -2   0   9   55.07   12.19
   2   0  -8 1805.00   72.33
  -2   0   8 1653.51   79.92
   2   0  -7  109.28    8.12
  -2   0   7  114.15   13.51
   2   0  -6 1264.88   45.26
  -2   0   6 1416.62   51.04
   2   0  -5  893.92   29.15
  -2   0   5  939.25   30.70
   2   0  -4 1437.46   44.73
  -2   0   4 1455.62   45.53
   2   0  -3    6.35    1.68
   2   0  -2 4421.94  188.42
  -2   0   2 4372.56  176.44
   2   0  -1 2076.81   65.68
  -2   0   1 2061.43   65.15
   2   0   0 3959.22  137.31
   2   0   1  657.72   26.13
  -2   0  -1  638.67   19.53
   2   0   2 3561.68  143.66
  -2   0  -2 3769.79  143.35
   2   0   3    2.77    2.86
  -2   0  -3    4.25    1.73
   2   0   4 1674.00   57.05
  -2   0  -4 1642.14   56.12
   2   0   5    1.82    2.09
  -2   0  -5    2.13    2.12
   2   0   6 1585.51   60.59
  -2   0  -6 1519.22   68.86
   2   0   7 1262.04   51.51
  -2   0  -7 1362.56   69.26
   2   0   8 6131.52  362.26
  -2   0  -8 6484.86  348.47
   2   0   9  172.57   14.69
  -2   0  -9  188.39   16.07
   2   0  10  669.03   36.23
  -2   0 -10  711.89   38.14
   2   0  11   98.15   13.75
  -2   0 -11  113.91   14.22
   2   0  12  114.23   15.65
  -2   0 -12  115.42   26.88
   2   1 -13  280.58   25.42
  -2   1  13  276.65   23.40
   2  -1 -13  495.42   40.87
  -2  -1  13  655.11   48.04
   2   1 -12   12.20    6.16
  -2   1  12   12.34    5.41
   2  -1 -12    8.18    5.32
  -2  -1  12    4.76    6.10
   2   1 -11  466.12   39.50
  -2   1  11  430.47   23.27
   2  -1 -11  446.01   35.36
  -2  -1  11  429.98   25.36
   2   1 -10  253.02   17.63
  -2   1  10  255.83   23.99
   2  -1 -10  254.74   15.25
  -2  -1  10  238.16   16.96
   2   1  -9 1687.26   72.00
  -2   1   9 1530.50   76.78
   2  -1  -9 1626.66   65.87
  -2  -1   9 1526.19   66.07
   2   1  -8   33.57   10.13
  -2   1   8   26.24    8.55
   2  -1  -8   45.00    9.04
  -2  -1   8   31.45    6.26
   2   1  -7 2724.11  112.35
  -2   1   7 2674.40  120.83
   2  -1  -7 2464.54  101.41
  -2  -1   7 2796.08  116.72
   2   1  -6  396.66   15.94
  -2   1   6  464.72   23.37
   2  -1  -6  424.36   15.81
  -2  -1   6  435.04   17.88
   2   1  -5 6087.40  307.65
  -2   1   5 6555.60  311.35
   2  -1  -5 6464.70  317.17
  -2  -1   5 6574.05  330.40
   2   1  -4  136.36    6.00
  -2   1   4  136.73    5.03
   2  -1  -4  138.74    5.08
  -2  -1   4  130.45    5.92
   2   1  -3 2154.34   71.81
  -2   1   3 2172.46   69.57
   2  -1  -3 2185.29   69.42
  -2  -1   3 2237.04   74.49
   2   1  -2 2267.62   76.46
  -2   1   2 2402.27   81.94
   2  -1  -2 2404.01   76.30
  -2  -1   2 2300.36   78.24
   2   1  -110012.20  539.57
   2   1  -110154.84  542.24
  -2   1   110198.63  548.79
   2  -1  -110701.90  564.11
  -2  -1   111064.76  579.69
  -2  -1   110795.95  581.00
   2   1   0 5651.51  244.36
   2   1   0 5647.73  241.97
  -2   1   0 5617.23  241.53
   2  -1   0 5615.04  239.03
   2  -1   0 5475.77  235.98
   2   1   1 3177.67  114.98
  -2   1  -1 3139.35  113.05
   2  -1   1 3211.30  115.50
   2  -1   1 3289.85  117.96
   2   1   2   91.48    3.92
  -2   1  -2   96.12    4.13
   2  -1   2   98.28    4.04
  -2  -1  -2  101.58    4.04
   2   1   3 3637.77  145.52
  -2   1  -3 3622.34  139.42
   2  -1   3 3277.70  127.80
  -2  -1  -3 3331.87  128.04
   2   1   4  601.20   19.22
  -2   1  -4  559.33   19.42
   2  -1   4  594.14   20.27
  -2  -1  -4  638.25   19.74
  -2   1  -5 1164.15   40.93
   2   1   5 1259.15   49.21
  -2  -1  -5 1113.21   38.14
   2  -1   5 1121.97   40.98
  -2   1  -6   16.65    4.34
   2   1   6   18.15    6.66
  -2  -1  -6   14.70    6.16
   2  -1   6   17.96    7.14
   2   1   7 1611.71   80.63
  -2   1  -7 1774.19   72.41
   2  -1   7 1684.15   69.06
  -2  -1  -7 1414.28   58.71
   2   1   8   73.26    9.55
  -2   1  -8   91.29   11.51
   2  -1   8   82.94   10.06
  -2  -1  -8   80.89    9.68
   2   1   9  833.07   39.58
  -2   1  -9  907.02   61.34
   2  -1   9  826.38   55.86
  -2  -1  -9  889.78   59.41
   2   1  10   44.94   14.81
  -2   1 -10   43.25    9.88
   2  -1  10   42.28    9.31
  -2  -1 -10   44.95   15.78
  -2   1 -11  452.43   30.07
   2   1  11  437.83   27.65
  -2  -1 -11  467.97   28.94
   2  -1  11  429.83   45.66
   2   1  12  192.32   18.18
  -2   1 -12  178.98   19.94
   2  -1  12  167.24   19.34
  -2  -1 -12  164.06   18.44
   2   2 -13   12.06    6.85
  -2   2  13   12.33    9.02
   2  -2 -13    0.16    5.22
  -2  -2  13   13.15    6.75
   2   2 -12  322.87   24.12
  -2   2  12  305.31   19.82
   2  -2 -12  325.96   19.64
  -2   2  11    7.73    4.54
   2  -2 -11   10.53    4.51
  -2  -2  11   11.07    5.84
   2   2 -10  275.85   20.82
  -2   2  10  264.62   16.39
   2  -2 -10  386.17   17.70
  -2  -2  10  357.40   21.09
   2   2  -9   97.50   11.34
  -2   2   9   93.70    8.12
   2  -2  -9  104.71    8.04
  -2  -2   9   89.56   10.61
   2   2  -8 1093.22   62.08
  -2   2   8 1113.61   42.99
   2  -2  -8 1207.51   54.10
  -2  -2   8 1191.22   50.49
   2   2  -7  120.19    9.81
  -2   2   7  137.61    7.96
   2  -2  -7  111.23    6.82
  -2  -2   7  124.69    9.82
   2   2  -6 2776.56  113.19
  -2   2   6 3141.23  121.97
   2  -2  -6 2733.38  107.50
  -2  -2   6 2989.84  134.38
   2   2  -5  334.13   12.42
  -2   2   5  322.42    9.88
   2  -2  -5  309.90   10.06
  -2  -2   5  319.38   12.28
   2   2  -4 1655.97   55.73
  -2   2   4 1629.64   50.26
   2  -2  -4 1702.61   52.17
  -2  -2   4 1657.43   56.13
   2   2  -3   81.50    6.56
  -2   2   3   82.19    3.85
   2  -2  -3   83.05    3.80
  -2  -2   3   84.75    6.66
  -2  -2   3   77.46    4.40
  -2   2   2 2209.67   65.89
   2   2  -2 2114.17   68.66
  -2   2   2 2206.30   75.61
  -2  -2   2 2052.92   68.00
   2  -2  -2 2178.81   65.91
  -2  -2   2 2066.19   69.24
  -2   2   1  449.21   18.27
   2   2  -1  474.73   12.47
   2   2  -1  474.04   11.63
   2  -2  -1  486.89   18.64
   2  -2  -1  472.97   10.79
  -2  -2   1  462.89   11.82
  -2  -2   1  473.82   16.66
   2  -2  -1  478.34    9.55
   2   2   0 1334.88   37.29
   2   2   0 1342.61   39.64
  -2   2   0 1377.12   42.50
  -2   2   0 1360.15   36.08
  -2  -2   0 1339.20   44.00
   2  -2   0 1352.65   37.88
   2  -2   0 1358.91   42.05
   2   2   1  188.92    5.97
   2   2   1  190.03    7.15
  -2   2  -1  183.69    5.03
  -2   2  -1  190.41    6.88
   2  -2   1  185.90    5.05
   2  -2   1  191.63   10.71
  -2   2  -2 2701.22   94.74
   2   2   2 2792.03   96.54
   2  -2   2 2681.15   98.92
  -2  -2  -2 2626.70   91.54
   2  -2   2 2592.84   92.04
   2   2   3 1368.05   42.23
  -2   2  -3 1328.15   49.74
   2  -2   3 1397.50   54.50
  -2  -2  -3 1375.88   42.42
   2  -2   3 1298.77   42.99
   2   2   4 3577.99  140.89
  -2   2  -4 3333.40  136.58
   2  -2   4 3464.08  144.01
  -2  -2  -4 3570.35  140.86
  -2   2  -5   78.30    6.36
   2   2   5   81.94    5.29
  -2  -2  -5   85.40    5.21
   2  -2   5   84.98    6.69
   2   2   6 1063.04   47.00
  -2   2  -6 1099.78   42.58
   2  -2   6 1135.27   56.49
  -2  -2  -6 1000.00   36.03
  -2   2  -7   28.87    6.64
   2   2   7   24.28    5.30
  -2  -2  -7   21.52    7.94
   2  -2   7   25.36    5.77
   2   2   8  908.81   39.03
  -2   2  -8 1020.90   46.26
   2  -2   8  958.12   57.03
  -2  -2  -8  780.74   35.35
   2   2   9   41.24    6.97
  -2   2  -9   38.38    8.67
   2  -2   9   29.93    7.82
  -2  -2  -9   29.63    7.42
   2   2  10  487.22   39.89
  -2   2 -10  479.48   46.26
   2  -2  10  499.72   45.04
  -2  -2 -10  532.97   43.52
   2   2  11   60.62   10.20
  -2   2 -11   62.55   12.59
   2  -2  11   77.10   12.01
  -2  -2 -11   62.80   18.78
   2   2  12  315.97   23.76
  -2   2 -12  307.55   27.77
   2  -2  12  337.97   43.19
  -2  -2 -12  328.74   24.71
   2   3 -13  244.49   23.24
  -2   3  13  232.43   16.96
   2  -3 -13  229.16   16.64
  -2  -3  13  230.20   23.11
  -2   3  12    3.35    3.82
   2   3 -12    5.14    5.51
  -2  -3  12    7.12    5.43
   2  -3 -12    3.21    3.80
  -2   3  11  387.32   28.62
   2  -3 -11  375.17   19.07
  -2  -3  11  368.71   24.92
   2   3 -10   89.32   10.84
  -2   3  10   64.59   11.92
   2  -3 -10   72.30    7.33
  -2  -3  10   73.14   10.55
  -2   3   9  698.91   28.93
   2   3  -9  771.55   37.44
  -2  -3   9  761.67   37.00
   2  -3  -9  815.31   39.18
   2   3  -8  126.87   11.83
  -2   3   8  126.69   13.14
   2  -3  -8  124.14    7.52
  -2  -3   8  130.10   12.14
   2   3  -7 1259.95   52.87
  -2   3   7 1436.86   59.52
   2  -3  -7 1350.09   54.44
  -2  -3   7 1379.14   55.55
   2   3  -6  601.90   23.59
  -2   3   6  629.70   19.02
   2  -3  -6  595.12   18.37
  -2  -3   6  587.02   23.86
  -2  -3   6  607.60   31.30
  -2   3   5 2602.04   93.39
   2   3  -5 2627.01  103.86
  -2  -3   5 2745.77  108.64
   2  -3  -5 2828.16  106.50
  -2  -3   5 2749.76  107.38
   2   3  -4  315.54   10.98
  -2   3   4  304.16    7.07
  -2  -3   4  302.62   12.33
  -2  -3   4  295.32   10.66
   2  -3  -4  311.33    7.73
   2   3  -3  942.86   33.25
  -2   3   3  941.51   32.89
  -2   3   3  954.17   23.49
   2  -3  -3  919.78   24.03
  -2  -3   3  891.28   37.49
  -2  -3   3  865.17   31.88
   2   3  -2  411.74   14.66
   2   3  -2  406.16   14.03
  -2   3   2  399.56   22.58
   2  -3  -2  460.50    8.30
  -2  -3   2  418.37   20.16
  -2  -3   2  408.29   11.76
   2  -3  -1  133.16    2.37
   2  -3  -1  135.36   11.96
   2  -3  -1  131.80    2.51
  -2  -3   1  140.52    6.55
  -2  -3   1  131.64    4.38
   2   3   0  157.55    6.32
   2   3   0  150.99    6.65
  -2   3   0  148.33    7.88
  -2   3   0  155.57    3.37
   2  -3   0  145.16    5.01
   2  -3   0  157.96    8.07
  -2  -3   0  164.38   11.04
   2   3   1 1462.38   42.69
   2   3   1 1511.86   47.80
   2   3   1 1470.15   49.78
  -2   3  -1 1483.45   42.50
  -2   3  -1 1487.38   51.41
   2  -3   1 1358.23   45.98
   2  -3   1 1511.79   52.48
   2   3   2  560.72   14.41
  -2   3  -2  557.12   18.85
  -2   3  -2  554.46   19.45
   2   3   2  547.58   18.44
   2  -3   2  498.67   15.27
   2  -3   2  574.08   20.22
  -2   3  -3 1002.65   37.40
   2   3   3 1052.44   34.79
   2  -3   3 1065.83   34.90
   2  -3   3 1053.21   37.79
   2   3   4  298.81    9.54
  -2   3  -4  268.31   11.00
   2  -3   4  291.19   11.70
  -2  -3  -4  287.96    9.45
   2  -3   4  305.92   13.94
  -2   3  -5 1282.09   48.14
   2   3   5 1423.90   54.78
   2  -3   5 1356.86   50.11
   2  -3   5 1397.13   53.31
  -2  -3  -5 1343.14   45.25
   2   3   6  104.91   11.27
  -2   3  -6  110.69    9.08
   2  -3   6   99.61   14.15
  -2  -3  -6   92.11    6.22
   2  -3   6  104.26    9.34
  -2   3  -7  848.30   37.94
   2   3   7  693.52   37.32
   2  -3   7  783.34   33.28
   2  -3   7  805.55   35.65
  -2  -3  -7  717.73   27.63
   2   3   8   44.78    9.97
  -2   3  -8   42.89    8.01
   2  -3   8    2.75    7.54
   2  -3   8   35.00   11.20
  -2  -3  -8   34.85    8.66
   2   3   9  364.90   19.11
  -2   3  -9  406.40   24.98
   2  -3   9  409.65   22.87
  -2  -3  -9  319.62   28.05
   2   3  10    6.36    4.74
  -2   3 -10    2.67   10.86
   2  -3  10   13.11    5.73
  -2  -3 -10   10.69    8.59
   2   3  11  403.65   35.80
  -2   3 -11  428.08   30.58
   2  -3  11  394.22   28.43
  -2  -3 -11  424.84   40.72
  -2   4  12  147.56   18.05
   2  -4 -12  143.22   11.31
  -2  -4  12  138.93   21.83
   2   4 -11   11.41    6.33
  -2   4  11    8.60    6.51
   2  -4 -11   12.30    3.95
  -2  -4  11    7.94    7.62
   2   4 -10  342.62   22.31
  -2   4  10  318.89   15.18
   2  -4 -10  331.12   22.73
  -2  -4  10  338.84   24.49
  -2   4   9  144.05   13.59
   2   4  -9  119.95   12.73
  -2  -4   9  131.05   23.08
   2  -4  -9  141.86    8.51
   2   4  -8  634.11   32.33
  -2   4   8  775.36   34.92
   2  -4  -8  693.11   24.84
  -2  -4   8  739.10   34.23
  -2  -4   8  690.99   33.87
   2   4  -7   73.16   13.23
  -2   4   7   77.04    4.31
  -2  -4   7   72.01   14.65
  -2  -4   7   71.84    7.70
   2  -4  -7   63.33    4.18
   2   4  -6 1362.19   54.28
  -2   4   6 1316.87   40.56
   2  -4  -6 1282.56   39.42
  -2  -4   6 1453.76   58.14
   2   4  -5   96.27    6.90
  -2   4   5   99.12    2.92
  -2   4   5  101.59    9.41
  -2  -4   5  105.45    8.71
   2  -4  -5   92.89    4.06
  -2  -4   5   94.74    6.33
   2   4  -4 1276.41   42.82
  -2   4   4 1200.81   48.51
  -2   4   4 1279.81   32.12
  -2  -4   4 1250.30   47.50
   2  -4  -4 1180.27   30.27
  -2  -4   4 1230.49   41.21
   2   4  -3   63.11    3.91
  -2   4   3   61.79   11.39
  -2  -4   3   72.02   10.18
  -2  -4   3   63.72    3.87
   2   4  -2 1263.04   44.28
   2   4  -2 1273.84   37.41
  -2   4   2 1225.85   46.19
  -2  -4   2 1176.68   43.00
  -2  -4   2 1140.43   35.20
  -2   4   1  415.13   25.65
   2   4  -1  423.07   10.71
   2   4  -1  418.66   16.19
   2  -4  -1  417.68   17.50
  -2  -4   1  417.45   16.32
  -2  -4   1  418.06   11.10
   2   4   0  548.42   20.41
   2   4   0  540.52   15.87
  -2   4   0  527.27   21.45
   2  -4   0  570.41   11.61
  -2  -4   0  565.62   20.34
   2  -4   0  584.87   22.38
   2   4   1   95.28    3.06
   2   4   1   91.81    6.88
   2   4   1   97.54    4.69
  -2   4  -1   86.63    7.52
  -2   4  -1   94.33    2.89
   2  -4   1  108.89    3.20
   2  -4   1   91.49    7.78
   2   4   2 1812.07   69.49
   2   4   2 1812.20   56.96
   2   4   2 1861.20   61.49
  -2   4  -2 1832.96   59.13
  -2   4  -2 1844.95   71.71
   2  -4   2 1991.59   71.98
   2  -4   2 1809.54   71.31
   2   4   3  251.49    7.10
   2   4   3  263.47   12.88
  -2   4  -3  249.68    8.78
   2  -4   3  236.21   13.59
   2  -4   3  275.13   14.42
   2   4   4 1764.62   58.45
   2   4   4 1763.59   70.44
   2  -4   4 1844.84   74.40
   2  -4   4 1590.37   69.24
  -2   4  -5   98.93    7.38
   2   4   5  106.96    5.51
   2  -4   5  103.43   12.01
   2  -4   5  100.97   10.60
   2   4   6  586.51   21.65
  -2   4  -6  580.17   25.11
   2  -4   6  592.98   28.90
  -2  -4  -6  577.98   25.96
   2  -4   6  565.37   23.68
   2   4   7  271.29   12.60
  -2   4  -7  289.40   17.43
   2  -4   7  250.43   28.97
   2  -4   7  249.77   14.49
  -2  -4  -7  230.38   11.23
   2   4   8  275.91   13.23
  -2   4  -8  308.11   19.66
   2  -4   8  213.56   24.00
   2  -4   8  235.72   18.52
  -2  -4  -8  205.82   11.58
   2   4   9   16.62    4.49
  -2   4  -9   20.00   11.94
   2  -4   9   12.66    5.86
  -2  -4  -9   15.72    4.41
   2  -4   9   16.30    7.29
   2   4  10  234.35   21.81
  -2   4 -10  242.32   20.55
   2  -4  10  228.11   22.26
  -2  -4 -10  196.71   14.51
   2  -4  10  229.94   18.39
  -2   4 -11    2.92    6.36
   2   4  11   10.65    4.18
   2  -4  11    5.88    7.58
   2  -4  11    4.62    9.79
  -2  -4 -11   -0.32    4.83
   2   5 -11  223.50   18.40
  -2   5  11  194.94   18.07
   2  -5 -11  181.25   12.10
  -2  -5  11  314.17   32.46
  -2  -5  11  197.10   22.82
   2   5 -10   98.81   11.67
  -2   5  10  109.10    7.72
   2  -5 -10   74.54    6.82
  -2  -5  10   95.23   14.53
   2   5  -9  343.12   21.45
  -2   5   9  385.16   14.75
  -2  -5   9  301.06   24.79
   2   5  -8    5.32    4.02
  -2   5   8    5.35    2.95
  -2   5   8   -1.50    5.68
   2  -5  -8    5.67    1.59
  -2  -5   8    5.52    5.22
  -2  -5   8    6.01    3.90
   2   5  -7  480.86   23.87
  -2   5   7  493.18   29.41
  -2   5   7  510.66   16.86
  -2  -5   7  499.54   22.26
   2  -5  -7  474.87   13.05
  -2  -5   7  539.72   28.17
  -2   5   6  292.24   20.32
   2   5  -6  285.67   23.47
  -2   5   6  275.76    6.13
   2  -5  -6  265.41    7.40
  -2  -5   6  283.83   13.53
  -2  -5   6  300.97   18.60
   2   5  -5  749.07   29.28
  -2   5   5  696.39   35.24
  -2  -5   5  737.90   34.83
  -2  -5   5  756.86   34.58
   2   5  -4  149.49    7.80
  -2   5   4  144.87   12.88
  -2  -5   4  146.00   11.59
  -2  -5   4  139.19    7.00
   2   5  -3 1002.96   41.08
   2   5  -3 1083.69   34.34
  -2   5   3 1001.03   43.78
  -2  -5   3  948.18   40.87
  -2  -5   3  949.32   36.56
   2   5  -2    8.96    3.90
   2   5  -2    9.41    1.77
  -2   5   2    5.59    4.58
  -2  -5   2    7.84    4.08
  -2  -5   2    7.73    2.80
   2   5  -1 1366.34   39.81
   2   5  -1 1335.15   52.84
  -2   5   1 1351.74   70.80
   2  -5  -1 1268.56   53.49
  -2  -5   1 1261.04   51.83
   2   5   0    3.29    3.09
   2   5   0    3.10    0.88
  -2   5   0    2.82    3.49
   2   5   0    3.08    0.91
  -2  -5   0    3.61    3.00
   2  -5   0    2.11    3.48
  -2   5  -1  497.06   23.66
   2   5   1  494.21   13.91
   2   5   1  490.09   31.34
   2   5   1  490.38   13.95
  -2   5  -1  486.44   13.46
   2  -5   1  487.81   12.99
   2  -5   1  504.13   35.46
   2   5   2   34.39    6.27
   2   5   2   37.28    1.79
   2   5   2   37.60    1.90
  -2   5  -2   30.91   11.41
  -2   5  -2   39.29    2.36
   2  -5   2   41.00    7.09
   2  -5   2   40.44    3.91
   2   5   3   39.04    3.29
   2   5   3   32.16    6.72
   2   5   3   34.91    2.10
  -2   5  -3   35.78    3.12
   2  -5   3   39.81    7.46
   2  -5   3   36.00    3.20
   2   5   4  385.45   14.61
   2   5   4  412.85   21.75
   2   5   4  392.85   11.37
  -2   5  -4  406.99   14.44
   2  -5   4  447.27   22.19
   2  -5   4  419.31   23.58
   2   5   5  395.15   22.03
  -2   5  -5  374.92   15.61
   2   5   5  394.02   17.15
   2  -5   5  363.92   16.28
   2  -5   5  406.98   35.87
   2   5   6   21.44    5.13
   2   5   6   21.08   10.86
  -2   5  -6   16.79    4.50
   2  -5   6   17.75    4.36
   2  -5   6   21.63    7.11
   2   5   7  310.41   21.10
  -2   5  -7  311.63   17.76
   2   5   7  312.35   12.32
   2  -5   7  266.50   21.74
   2  -5   7  241.71   22.98
   2   5   8   35.08    4.56
  -2   5  -8   38.53    8.38
   2  -5   8   30.49    9.83
   2  -5   8   37.41   11.06
   2   5   9  244.63   18.46
  -2   5  -9  272.04   20.92
   2  -5   9  254.28   36.82
   2  -5   9  220.34   16.33
  -2  -5  -9  213.80   12.12
   2   5  10    1.20    2.53
  -2   5 -10    7.46    4.56
   2  -5  10   -1.63    5.42
  -2  -5 -10    1.41    4.53
   2  -5  10   -1.67    3.79
   2   6 -10  158.05   21.63
  -2   6  10   72.60   32.04
  -2  -6  10   64.72   29.34
   2   6  -9   11.06    4.62
  -2   6   9    3.99    7.67
  -2  -6   9    0.39    4.84
  -2  -6   9   14.14    6.97
   2   6  -8  270.47   26.09
  -2   6   8  278.99   25.83
  -2  -6   8  300.72   17.19
  -2  -6   8  300.05   24.01
   2   6  -7   69.23    7.82
  -2   6   7   69.56   13.15
  -2  -6   7   72.28   12.17
  -2  -6   7   74.78   12.07
   2   6  -6  365.87   25.70
  -2   6   6  378.36   42.51
  -2  -6   6  383.15   16.65
  -2  -6   6  400.60   39.56
   2   6  -5  406.94   17.98
  -2   6   5  400.70   27.08
  -2  -6   5  383.50   15.50
  -2  -6   5  396.72   24.64
   2   6  -4  388.26   22.91
  -2   6   4  364.47   25.29
  -2  -6   4  397.33   19.09
  -2  -6   4  410.67   23.78
   2   6  -3   12.20    2.66
   2   6  -3   10.42    5.19
  -2   6   3   12.60    6.08
  -2  -6   3    9.41    5.46
  -2  -6   3   10.16    3.46
   2   6  -2  873.17   31.29
   2   6  -2  762.12   35.49
  -2   6   2  775.98   39.36
  -2  -6   2  765.37   22.75
  -2  -6   2  765.26   36.29
   2   6  -1   54.02    4.40
   2   6  -1   52.56    8.25
  -2   6   1   54.46    9.45
  -2  -6   1   49.20   14.21
   2   6   0  421.18   11.61
   2   6   0  465.86   13.03
   2   6   0  439.78   34.29
  -2   6   0  431.83   25.18
   2  -6   0  406.70   38.16
   2   6   1   43.95   13.04
   2   6   1   43.59    2.09
  -2   6  -1   46.81   14.14
   2   6   1   42.01    1.29
   2  -6   1   41.77    1.56
   2  -6   1   50.45    8.46
   2   6   2  124.79   11.69
   2   6   2  116.41    3.26
  -2   6  -2  123.43    3.81
   2   6   2  112.81    2.42
  -2   6  -2  124.17   12.59
   2  -6   2   80.08   12.90
   2   6   3   66.29    9.86
   2   6   3   76.67    3.00
  -2   6  -3   75.13    5.88
   2   6   3   61.23    2.94
   2  -6   3   70.44    5.86
   2  -6   3   75.34   11.04
   2   6   4  529.36   42.08
   2   6   4  489.87   14.39
  -2   6  -4  499.32   21.96
   2   6   4  516.08   15.42
   2  -6   4  431.66   43.68
   2  -6   4  415.76   20.43
   2   6   5    2.80    1.96
   2   6   5    2.68    4.58
  -2   6  -5    3.13    2.21
   2   6   5    2.67    1.81
   2  -6   5    1.97    4.91
   2  -6   5    3.48    2.32
   2   6   6  270.19   19.97
  -2   6  -6  232.74   18.94
   2  -6   6  237.04   21.54
   2  -6   6  231.45   13.56
   2   6   7   -1.59    9.57
  -2   6  -7    2.93    6.01
   2  -6   7    3.39    3.66
   2  -6   7   10.68    6.10
  -2   6  -8  151.05   23.05
   2  -6   8  190.47   20.18
   2  -6   8  147.60   12.75
   2   7  -8   -0.45    5.69
  -2   7   8    0.29    6.51
  -2  -7   8    5.55    5.27
  -2  -7   8    2.63    5.83
   2   7  -7   92.62    9.17
  -2   7   7   87.16   17.20
  -2  -7   7  105.51    8.56
  -2  -7   7  110.97   15.79
   2   7  -6   41.18    6.27
  -2   7   6   48.70   12.54
  -2  -7   6   48.09    5.20
  -2  -7   6   48.86   11.32
   2   7  -5  687.72   35.06
  -2   7   5  631.68   59.75
  -2  -7   5  551.70   21.18
  -2  -7   5  592.66   53.96
   2   7  -4   54.49    8.44
  -2   7   4   55.53   11.84
  -2  -7   4   46.27    6.30
  -2  -7   4   48.75   10.78
   2   7  -3  330.44   15.99
  -2   7   3  358.60   26.03
  -2  -7   3  315.99   13.83
  -2  -7   3  334.60   23.48
   2   7  -2  143.49   18.45
  -2   7   2   44.37   11.76
  -2  -7   2   50.33   10.66
   2   7  -1  311.15   20.49
  -2   7   1  302.19   23.52
  -2  -7   1  251.34   20.23
   2   7   0  168.10   16.42
  -2   7   0  170.69   17.79
   2  -7   0  179.88   17.71
   2   7   1  317.56   22.08
  -2   7  -1  318.56   23.40
   2  -7   1  283.04   23.75
  -2   7  -2    5.11    4.87
   2  -7   2   -0.55    5.09
   2   7   3  305.94   32.96
   2  -7   3  244.56    7.58
   2  -7   3  268.11   36.51
   2   7   4   -3.63    3.20
   2  -7   4   -4.92    3.69
   2  -7   4    2.12    1.70
  -2   7  -5  280.75   16.97
   2  -7   5  320.78   26.86
  -2   7  -6   -0.94    1.78
   2  -7   6   10.22    7.38
   2  -7   6    0.75    1.78
  -2   8   4  130.50   19.94
  -2  -8   4  133.63   29.33
  -2   8   3    1.33    7.40
  -2  -8   3   10.63    6.63
   2   8  -2  220.72   20.92
  -2   8   2  214.61   23.38
  -2  -8   2  208.82   21.03
   2   8  -1    3.45    5.44
   2   8   0  186.60   19.36
   2   8   1   12.00    7.90
   2  -8   1   17.28    8.63
   2   8   2  165.22   19.07
  -2   8  -2  154.73   20.21
   2  -8   2  142.61   20.68
   2   8   3   45.89   20.68
   2  -8   3   36.70   22.83
   3   0 -14   30.20   17.03
  -3   0  14  621.55   35.54
   3   0 -13   27.39    8.52
  -3   0  13   27.08    8.58
  -3   0  12  311.04   21.14
   3   0 -11   31.56    7.53
  -3   0  11   30.46    7.24
   3   0 -10  440.27   24.14
  -3   0  10  400.58   22.40
   3   0  -9   95.27    9.58
  -3   0   9   92.42    9.94
   3   0  -8 1640.86   65.92
  -3   0   8 1725.97   71.20
   3   0  -7   76.76    6.73
  -3   0   7   82.45    6.94
   3   0  -6 6436.01  317.09
  -3   0   6 6807.55  334.53
   3   0  -5    2.95    2.98
  -3   0   5    0.28    3.12
   3   0  -4 3287.33  133.44
  -3   0   4 3380.98  129.46
   3   0  -3  406.78   11.57
  -3   0   3  418.25   12.12
   3   0  -2 7656.47  374.09
  -3   0   2 7985.23  389.15
  -3   0   1  575.86   10.85
  -3   0   1  863.06   22.77
   3   0   0   10.69    0.87
   3   0   1   39.92    2.97
  -3   0  -1   43.26    3.03
   3   0   2 3616.84  140.52
  -3   0  -2 3555.38  138.45
   3   0   3   78.06    5.28
  -3   0  -3   82.78    5.27
   3   0   4 3160.07  124.19
  -3   0  -4 3063.69  121.33
   3   0   5  110.19    7.30
  -3   0  -5  110.32    7.38
   3   0   6 1531.94   59.02
  -3   0  -6 1486.94   57.46
   3   0   7  352.14   19.82
  -3   0  -7  311.91   18.69
   3   0   8  178.81   23.96
  -3   0  -8  190.58   15.69
   3   0   9    3.31    4.11
  -3   0  -9   -0.92    4.42
   3   0  10  817.05   44.31
  -3   0 -10  861.42   47.22
   3   0  11   42.04   10.28
  -3   0 -11   34.66   10.96
   3   0  12  312.51   26.05
  -3   0 -12  325.10   44.27
   3  -1 -14   36.63    9.77
   3   1 -13  332.02   25.98
  -3   1  13  322.28   22.98
  -3  -1  13  344.62   26.58
  -3   1  12   26.05    7.15
   3   1 -12   25.95    8.44
  -3  -1  12   24.92    8.06
   3  -1 -12   27.65    7.14
  -3   1  11   97.82   10.55
   3  -1 -11  102.63   11.04
  -3  -1  11  102.13   12.11
   3   1 -10  406.67   24.03
  -3   1  10  363.08   19.99
   3  -1 -10  371.70   30.32
  -3  -1  10  357.42   21.99
   3   1  -9  831.42   38.21
  -3   1   9  810.83   35.55
   3  -1  -9  799.26   35.03
  -3  -1   9  846.05   38.80
   3   1  -8    9.85    4.34
  -3   1   8    7.53    4.18
   3  -1  -8   15.55    3.89
  -3  -1   8   10.99    4.76
   3   1  -7 2439.86   97.94
  -3   1   7 2471.61   97.74
   3  -1  -7 2386.39   93.81
  -3  -1   7 2564.84  116.90
   3   1  -6  469.53   17.55
  -3   1   6  481.59   16.63
   3  -1  -6  469.86   21.95
  -3  -1   6  478.08   18.21
   3   1  -5 2764.34  115.24
  -3   1   5 2797.28  104.22
   3  -1  -5 2704.37  100.12
  -3  -1   5 2729.48  104.77
   3   1  -4  158.53    6.92
  -3   1   4  162.18    5.95
   3  -1  -4  157.59    5.73
  -3  -1   4  156.93    7.07
  -3   1   3  568.45   14.83
   3   1  -3  538.98   20.26
  -3  -1   3  530.35   16.06
   3  -1  -3  523.64   13.76
  -3   1   2 8351.85  413.90
   3   1  -2 8390.88  429.55
  -3  -1   2 8152.43  409.11
   3  -1  -2 8295.23  417.53
   3   1  -1 3177.11  108.29
   3   1  -1 3590.37  133.20
  -3   1   1 3662.73  131.98
   3  -1  -1 3363.88  121.03
  -3  -1   1 3466.78  120.97
   3  -1  -1 3293.10  120.79
  -3  -1   1 3255.06  130.33
   3   1   0 3146.09  115.46
   3   1   0 3214.93  107.94
  -3   1   0 3126.51  114.30
   3  -1   0 3158.11  111.18
   3  -1   0 3067.28  116.71
   3   1   1 1699.71   59.54
  -3   1  -1 1677.52   53.01
   3  -1   1 1741.39   59.60
   3  -1   1 1704.24   51.64
   3   1   2  198.93    7.40
  -3   1  -2  200.09    7.44
   3  -1   2  203.72    7.36
  -3  -1  -2  205.82   11.24
   3   1   3 2167.92   86.31
  -3   1  -3 2088.64   75.90
   3  -1   3 2306.17   81.82
  -3  -1  -3 2298.09   81.21
   3   1   4  237.52    9.78
  -3   1  -4  241.69   10.45
   3  -1   4  259.82   15.78
  -3  -1  -4  248.04   10.01
  -3   1  -5 1738.21   64.58
   3   1   5 1749.99   63.79
  -3  -1  -5 1719.34   62.76
   3  -1   5 1731.17   75.96
   3   1   6   33.39    8.83
  -3   1  -6   33.81    9.86
   3  -1   6   42.29   10.34
  -3  -1  -6   39.89    5.28
   3   1   7 1994.34   97.48
  -3   1  -7 1950.95  100.49
   3  -1   7 1894.65   83.41
  -3  -1  -7 1778.04   75.10
   3   1   8   17.30    6.39
  -3   1  -8   16.85   11.94
   3  -1   8   24.66    6.62
  -3  -1  -8   17.60   10.18
   3   1   9  764.15   38.65
  -3   1  -9  875.30   63.86
   3  -1   9  744.73   39.45
  -3  -1  -9  717.17   55.21
   3   1  10   70.82   10.86
  -3   1 -10   64.62   12.57
   3  -1  10   56.03   18.90
  -3  -1 -10   56.47   11.92
   3   1  11  234.44   32.53
  -3   1 -11  218.71   22.14
   3  -1  11  192.97   20.62
  -3  -1 -11  214.40   20.73
   3   1  12  107.95   15.67
  -3   1 -12  109.20   17.58
   3  -1  12   91.17   28.75
  -3  -1 -12  118.38   16.55
   3   2 -13   26.15    7.71
  -3   2  13   24.80   10.38
   3  -2 -13    0.67    5.89
   3   2 -12  434.67   29.52
  -3   2  12  423.18   23.62
   3  -2 -12  426.47   23.38
   3   2 -11   18.24   13.25
  -3   2  11   15.07    5.53
   3  -2 -11   22.92    5.35
  -3  -2  11   19.69    7.13
   3   2 -10 1443.22   67.19
  -3   2  10 1349.75   56.93
   3  -2 -10 1309.50   54.33
  -3  -2  10 1217.31   59.29
   3   2  -9   23.83    7.16
  -3   2   9   29.69    5.65
   3  -2  -9   23.33    8.28
  -3  -2   9   27.00   12.54
   3   2  -8 1132.17   46.86
  -3   2   8 1264.33   57.48
   3  -2  -8 1014.00   40.10
  -3  -2   8 1167.51   64.49
   3   2  -7    3.97    3.38
  -3   2   7    6.47    2.57
   3  -2  -7    7.95    2.57
  -3  -2   7    6.80    3.47
   3   2  -6 1231.10   44.58
   3  -2  -6 1225.38   40.10
  -3  -2   6 1263.34   55.52
   3   2  -5   42.02    4.42
  -3   2   5   47.37    5.08
   3  -2  -5   46.90    3.08
  -3  -2   5   44.76    4.48
   3   2  -4 1710.61   58.05
  -3   2   4 1761.02   59.70
   3  -2  -4 1631.76   50.38
  -3  -2   4 1641.45   56.51
   3   2  -3   23.37    2.69
  -3   2   3   21.17    2.76
   3  -2  -3   18.28    1.56
  -3  -2   3   17.91    2.81
  -3  -2   3   19.32    2.32
   3   2  -2 1406.98   43.09
  -3   2   2 1474.63   46.37
   3  -2  -2 1338.06   37.20
  -3  -2   2 1310.98   39.69
  -3  -2   2 1349.03   48.07
   3   2  -1  726.31   18.88
   3   2  -1  704.56   19.56
  -3   2   1  686.21   20.55
   3  -2  -1  708.29   20.93
   3  -2  -1  686.27   19.68
  -3  -2   1  703.71   18.77
   3  -2  -1  702.44   20.08
  -3  -2   1  684.74   24.06
   3   2   0 1677.55   52.37
   3   2   0 1698.63   59.02
  -3   2   0 1739.52   56.81
   3  -2   0 1765.75   57.79
   3  -2   0 1734.66   52.64
   3   2   1   45.68    4.47
  -3   2  -1   43.80    3.47
   3   2   1   42.65    3.02
  -3   2  -1   44.11    4.69
   3  -2   1   43.12    2.83
   3  -2   1   45.73    6.02
  -3   2  -2  926.12   33.75
   3   2   2  955.11   28.49
   3  -2   2  894.11   28.53
   3  -2   2  889.93   32.76
  -3   2  -3  885.18   35.28
   3   2   3  894.32   28.06
   3  -2   3  906.74   29.71
  -3  -2  -3  894.32   34.32
   3  -2   3  882.23   28.38
   3   2   4 1177.21   38.90
  -3   2  -4 1215.78   41.40
   3  -2   4 1215.84   42.04
  -3  -2  -4 1144.57   38.41
   3  -2   4 1151.08   40.32
  -3   2  -5   96.61   11.84
   3   2   5   99.28    6.49
  -3  -2  -5  105.75   10.64
   3  -2   5  103.50    7.86
   3   2   6 1007.73   37.61
  -3   2  -6  956.19   38.90
   3  -2   6 1031.16   56.51
  -3  -2  -6 1034.31   37.97
   3   2   7  155.02   10.80
  -3   2  -7  150.35   12.77
   3  -2   7  160.04   13.05
  -3  -2  -7  142.24   10.26
  -3   2  -8  528.06   29.40
   3   2   8  467.38   25.02
  -3  -2  -8  440.79   33.03
   3  -2   8  516.81   27.55
   3   2   9   28.05    6.86
  -3   2  -9   29.09   14.61
   3  -2   9   19.25    7.27
  -3  -2  -9   18.14   11.11
   3   2  10  332.03   22.83
  -3   2 -10  379.92   43.61
   3  -2  10  362.29   25.17
  -3  -2 -10  364.11   37.44
   3   2  11   33.29   14.69
  -3   2 -11   29.25   10.29
   3  -2  11   21.56   16.19
  -3  -2 -11   25.89   15.93
  -3   2 -12  115.06   17.53
  -3  -2 -12   83.38   15.28
   3   3 -13  181.57   20.34
  -3   3  13  187.46   14.67
   3  -3 -13  165.45   13.99
  -3  -3  13  176.25   20.39
   3   3 -12    1.93    5.35
  -3   3  12    5.62    3.68
   3  -3 -12    2.70    3.45
  -3  -3  12    1.77    5.38
  -3   3  11  494.61   24.21
   3  -3 -11  523.68   23.58
  -3  -3  11  478.28   31.11
   3   3 -10   78.00   12.20
  -3   3  10   83.70    8.45
   3  -3 -10   91.86   11.90
  -3  -3  10   74.90   12.49
   3   3  -9  721.90   35.80
  -3   3   9  840.74   33.55
   3  -3  -9  658.12   25.91
  -3  -3   9  755.52   37.86
   3   3  -8   99.27   10.22
  -3   3   8  107.50    7.12
   3  -3  -8   90.45    6.26
  -3  -3   8   94.74   10.24
   3   3  -7  309.77   24.87
  -3   3   7  290.43   11.14
   3  -3  -7  311.82   16.09
  -3  -3   7  337.27   24.40
   3   3  -6  372.84   22.56
  -3   3   6  362.49   11.07
   3  -3  -6  349.10   16.03
  -3  -3   6  360.60   15.43
  -3  -3   6  338.94   14.97
   3   3  -5  307.55   11.91
  -3   3   5  297.77   10.89
   3  -3  -5  302.05   11.49
  -3  -3   5  284.04   11.93
  -3  -3   5  283.39   12.00
   3   3  -4   56.45    4.21
  -3   3   4   55.87    2.22
  -3   3   4   55.19    5.53
   3  -3  -4   57.22    3.45
  -3  -3   4   52.47    4.40
  -3  -3   4   58.95    7.57
   3   3  -3 1509.22   48.39
  -3   3   3 1293.24   36.22
  -3   3   3 1588.95   64.83
  -3  -3   3 1497.14   49.21
   3  -3  -3 1478.97   39.95
  -3  -3   3 1507.94   50.57
   3   3  -2  576.88   16.83
   3   3  -2  592.13   18.22
  -3   3   2  575.48   20.71
   3  -3  -2  598.80   14.50
   3  -3  -2  614.75   14.83
  -3  -3   2  602.16   17.88
  -3  -3   2  596.67   18.83
   3   3  -1 2151.49   77.15
   3   3  -1 2188.55   75.70
  -3   3   1 2183.25   89.32
   3  -3  -1 2035.34   75.23
   3  -3  -1 2126.81   66.65
   3  -3  -1 2022.46   64.56
  -3  -3   1 2020.33   71.51
  -3  -3   1 2010.54   69.05
   3   3   0  169.09    6.81
   3   3   0  175.06    5.77
  -3   3   0  176.27    8.47
   3  -3   0  191.13    8.64
   3  -3   0  180.06    4.54
   3   3   1 1329.71   40.31
   3   3   1 1296.61   42.51
  -3   3  -1 1335.70   43.52
  -3   3  -1 1306.97   44.50
   3   3   1 1308.48   39.99
   3  -3   1 1285.84   44.91
   3  -3   1 1267.02   41.75
   3   3   2  187.34    7.84
   3   3   2  184.44    6.33
  -3   3  -2  183.10    9.71
   3  -3   2  190.44   14.37
   3  -3   2  182.10    9.90
   3   3   3 2126.15   74.20
  -3   3  -3 2152.74   84.52
   3  -3   3 1996.08   82.53
   3  -3   3 2060.04   79.58
   3   3   4   60.45    4.39
  -3   3  -4   61.01    5.32
   3  -3   4   69.21    6.06
  -3  -3  -4   70.78    4.60
   3  -3   4   68.32    6.55
   3   3   5 1479.13   51.76
  -3   3  -5 1428.64   64.92
   3  -3   5 1393.89   54.74
   3  -3   5 1386.00   55.77
  -3  -3  -5 1386.32   49.92
   3   3   6  180.59   14.57
  -3   3  -6  169.86   11.10
   3  -3   6  143.27   19.44
  -3  -3  -6  152.00   14.33
   3  -3   6  165.61   20.18
   3   3   7 1592.95   77.34
  -3   3  -7 1495.56   65.59
   3  -3   7 1547.36   66.18
   3  -3   7 1545.51   67.60
  -3  -3  -7 1431.13   57.72
   3   3   8  158.08   20.08
  -3   3  -8  167.48   15.53
   3  -3   8  157.24   22.60
   3  -3   8  156.29   14.50
  -3  -3  -8  151.10   11.05
  -3   3  -9  463.88   43.81
   3   3   9  387.14   22.64
   3  -3   9  407.23   24.72
   3  -3   9  391.86   26.02
  -3  -3  -9  341.05   30.59
  -3   3 -10   25.05   14.88
   3   3  10   19.88    6.33
   3  -3  10   17.47   13.06
   3  -3  10   19.42    8.91
  -3  -3 -10   12.67   10.98
  -3   3 -11  174.50   19.43
   3   3  11  149.58   15.15
   3  -3  11  139.23   17.55
   3  -3  11  113.58   22.38
  -3  -3 -11  132.98   27.02
  -3   4  12  184.49   12.95
   3  -4 -12  189.44   12.50
  -3  -4  12  191.75   22.91
  -3   4  11    1.64    2.77
   3   4 -11    2.01    4.28
  -3  -4  11    0.65    4.76
   3  -4 -11    1.01    4.16
   3   4 -10  665.94   37.72
  -3   4  10  792.29   32.17
   3  -4 -10  649.74   25.72
  -3  -4  10  653.82   36.81
   3   4  -9    6.40    8.57
  -3   4   9   10.75    2.97
   3  -4  -9    6.26    2.63
  -3  -4   9    9.17    8.84
  -3  -4   9    7.51    5.22
   3   4  -8  893.80   40.29
  -3   4   8  886.21   36.58
   3  -4  -8  847.14   35.07
  -3  -4   8  817.10   38.45
  -3  -4   8  843.62   37.78
   3   4  -7  496.10   23.55
  -3   4   7  514.74   20.31
   3  -4  -7  512.22   16.13
  -3  -4   7  500.93   32.09
  -3  -4   7  504.07   35.89
  -3   4   6 2254.81   98.52
   3   4  -6 2321.21   94.69
  -3   4   6 2322.52   80.17
   3  -4  -6 2282.19   85.52
  -3  -4   6 2134.66   91.32
  -3  -4   6 2169.90   89.80
  -3   4   5   84.72   15.18
   3   4  -5   96.72    6.51
  -3   4   5   89.97    4.06
   3  -4  -5   82.31    4.51
  -3  -4   5   91.04    6.44
  -3  -4   5   87.73    7.83
   3   4  -4  689.38   22.79
  -3   4   4  690.42   28.16
  -3  -4   4  654.52   22.46
   3   4  -3   44.98    5.73
  -3   4   3   47.32    6.04
  -3  -4   3   42.80    3.59
  -3  -4   3   37.56    4.91
   3   4  -2 1232.86   42.75
   3   4  -2 1203.99   37.19
  -3   4   2 1186.72   56.17
  -3  -4   2 1195.98   37.98
  -3  -4   2 1228.95   43.64
   3   4  -1  316.46    9.07
   3   4  -1  330.59   12.65
  -3   4   1  332.86   14.61
   3  -4  -1  322.38   21.23
   3  -4  -1  287.18    7.30
  -3  -4   1  305.55   18.39
   3  -4  -1  310.66    6.76
   3   4   0  937.59   30.83
   3   4   0  912.30   31.92
  -3   4   0  931.34   34.63
   3  -4   0  901.59   34.41
   3   4   1   66.78    3.13
   3   4   1   69.16    3.24
   3   4   1   62.70    5.31
  -3   4  -1   60.88   10.34
  -3   4  -1   66.23    2.80
   3  -4   1   58.43    3.09
   3  -4   1   57.73    6.50
  -3   4  -2   91.51    4.22
   3   4   2   93.14    6.26
   3   4   2   96.34    6.88
   3   4   2   99.77    6.56
  -3   4  -2   97.75    7.85
   3  -4   2   94.11    4.97
   3  -4   2   87.92    8.04
   3   4   3  396.09   16.84
   3   4   3  400.58   16.11
  -3   4  -3  382.10   13.15
   3  -4   3  383.61   19.57
   3  -4   3  376.68   18.80
   3   4   4  643.18   26.55
  -3   4  -4  639.12   22.97
   3   4   4  640.35   25.80
   3  -4   4  652.42   24.05
   3  -4   4  680.62   29.82
  -3   4  -5   78.39    6.58
   3   4   5   68.66    5.06
   3  -4   5   67.81    9.10
   3  -4   5   68.41    6.49
   3   4   6  985.72   36.29
  -3   4  -6  989.04   52.21
   3  -4   6 1022.66   41.03
   3  -4   6 1011.94   45.88
  -3  -4  -6  961.81   35.08
  -3   4  -7   14.96    9.21
   3   4   7   12.99    4.18
   3  -4   7   18.64    5.06
   3  -4   7   14.12    6.34
  -3  -4  -7   17.35    6.28
   3   4   8  589.84   26.54
  -3   4  -8  659.06   49.01
   3  -4   8  610.08   51.13
   3  -4   8  654.33   43.38
  -3  -4  -8  587.71   25.53
   3   4   9   31.80    6.36
  -3   4  -9   36.89    9.82
   3  -4   9   37.24    7.74
  -3  -4  -9   24.62    6.02
   3  -4   9   35.38    9.28
   3   4  10  215.84   23.65
  -3   4 -10  244.56   21.58
   3  -4  10  187.14   20.84
   3  -4  10  192.00   28.67
  -3  -4 -10  165.15   14.46
   3   5 -11   82.52   11.88
   3  -5 -11   58.60   10.94
  -3  -5  11   71.45   13.44
  -3  -5  11   68.87   14.11
   3   5 -10  135.56   14.32
  -3   5  10  150.10   13.04
   3  -5 -10  127.66   12.66
  -3  -5  10  138.74   16.66
   3   5  -9  506.57   28.70
  -3   5   9  550.08   18.12
   3  -5  -9  407.99   21.56
  -3  -5   9  539.30   45.92
   3   5  -8   32.32   11.57
  -3   5   8   36.74    2.77
  -3   5   8   36.87    9.32
   3  -5  -8   28.72    4.44
  -3  -5   8   35.70    6.62
  -3  -5   8   35.71    8.37
  -3   5   7  845.91   26.31
   3   5  -7  905.62   38.71
  -3   5   7  856.38   62.29
   3  -5  -7  770.64   21.76
  -3  -5   7  882.00   56.17
  -3  -5   7  859.57   46.27
  -3   5   6  115.40   12.17
   3   5  -6  104.26    8.25
  -3   5   6   98.12    2.30
   3  -5  -6   92.29    3.08
  -3  -5   6  101.61   10.55
  -3  -5   6  101.11    7.73
   3   5  -5  503.74   19.90
  -3   5   5  504.79   26.65
  -3  -5   5  471.27   18.78
  -3  -5   5  482.34   24.14
   3   5  -4   89.07    5.76
  -3   5   4   81.42   10.27
  -3  -5   4   79.88    8.62
  -3  -5   4   82.10    9.07
   3   5  -3  835.42   26.48
   3   5  -3  833.83   33.13
  -3   5   3  837.78   37.06
  -3  -5   3  744.82   25.07
  -3  -5   3  746.51   32.27
   3   5  -2   77.34    6.34
   3   5  -2   69.80    7.20
  -3   5   2   78.75   15.00
  -3  -5   2   73.71    7.51
  -3  -5   2   69.15    4.07
   3   5  -1  597.25   24.66
   3   5  -1  587.55   16.78
  -3   5   1  580.43   27.21
   3  -5  -1  626.03   27.66
  -3  -5   1  574.33   24.73
   3   5   0   61.86    3.12
   3   5   0   68.72    6.74
   3   5   0   65.32    3.05
  -3   5   0   68.12    8.03
   3  -5   0   55.44    2.14
   3  -5   0   57.73    8.03
   3  -5   0   57.36    1.58
   3   5   1  546.13   15.22
   3   5   1  556.00   33.07
   3   5   1  550.00   15.26
  -3   5  -1  529.20   36.26
   3  -5   1  548.75   16.85
   3  -5   1  554.51   26.62
   3   5   2  341.64   13.63
   3   5   2  348.00   17.55
  -3   5  -2  346.48   10.49
   3   5   2  346.10   13.31
  -3   5  -2  333.00   19.43
   3  -5   2  363.24   11.48
   3  -5   2  347.12   20.34
   3   5   3 2620.88  116.04
   3   5   3 2626.25  102.60
  -3   5  -3 2623.72   99.36
   3   5   3 2584.55   95.38
   3  -5   3 2596.32  118.95
   3  -5   3 2530.04  100.97
   3   5   4   29.43    5.10
   3   5   4   30.99    4.79
   3   5   4   30.48    6.41
  -3   5  -4   32.51    3.89
   3  -5   4   31.90    4.20
   3  -5   4   33.74    7.67
   3   5   5  651.96   21.70
   3   5   5  684.38   32.64
  -3   5  -5  660.49   33.44
   3  -5   5  704.51   51.16
   3  -5   5  638.27   25.40
   3   5   6   44.99    4.54
   3   5   6   40.57   13.62
  -3   5  -6   43.85    6.03
   3  -5   6   41.45    5.99
   3  -5   6   39.03    9.41
   3   5   7  386.64   23.85
   3   5   7  363.73   15.88
  -3   5  -7  349.77   19.92
   3  -5   7  374.07   27.74
   3  -5   7  397.74   40.41
   3   5   8   37.51    5.59
  -3   5  -8   33.67    8.48
   3  -5   8   38.82   10.55
   3  -5   8   46.49    7.15
  -3   5  -9  267.78   22.51
   3   5   9  260.19   21.73
   3  -5   9  242.28   23.74
   3  -5   9  218.90   17.52
   3   6 -10  158.70   23.29
  -3   6  10  115.01   20.93
  -3  -6  10  120.23   30.07
   3   6  -9   16.45    5.49
  -3   6   9   19.63    8.50
  -3  -6   9    0.88    5.52
  -3  -6   9   14.08    7.49
   3   6  -8  270.04   18.17
  -3   6   8  290.87   41.45
  -3  -6   8  293.46   35.88
  -3  -6   8  287.65   17.03
   3   6  -7   11.02    4.97
  -3   6   7   12.34    7.67
  -3  -6   7   15.42    4.39
  -3  -6   7   11.31    6.78
   3   6  -6 1039.33   43.60
  -3   6   6 1042.51   56.07
  -3  -6   6 1068.57   52.81
  -3  -6   6 1072.91   52.68
   3   6  -5  315.05   21.35
  -3   6   5  317.65   37.62
  -3  -6   5  286.13   31.38
  -3  -6   5  287.48   18.85
   3   6  -4  549.36   26.31
  -3   6   4  527.44   30.95
  -3  -6   4  512.22   18.54
  -3  -6   4  532.17   40.79
   3   6  -3   52.99    4.16
   3   6  -3   60.82    8.17
  -3   6   3   52.54    9.73
  -3  -6   3   44.82   13.90
  -3  -6   3   48.29    6.36
   3   6  -2 1021.91   31.59
   3   6  -2  973.93   43.04
  -3   6   2 1010.93   65.95
  -3  -6   2  905.46   42.69
   3   6  -1   16.41    3.20
   3   6  -1   17.83    5.37
  -3   6   1   23.34   11.33
  -3  -6   1   14.84    5.36
   3   6   0  618.24   16.68
   3   6   0  620.85   40.94
   3   6   0  599.90   19.88
  -3   6   0  607.31   31.63
   3  -6   0  561.03   31.11
   3   6   1   28.69   10.37
   3   6   1   22.77    2.88
   3   6   1   26.79    2.92
  -3   6  -1   27.12    6.89
   3  -6   1   21.21    1.80
   3  -6   1   22.48    7.27
   3   6   2  478.58   15.40
   3   6   2  481.96   36.87
   3   6   2  471.90   12.82
  -3   6  -2  493.16   27.54
  -3   6  -2  455.33   12.90
   3  -6   2  489.27   28.69
   3  -6   2  480.45   16.03
   3   6   3   93.40   17.14
   3   6   3   76.55    3.54
  -3   6  -3   79.51    4.38
   3   6   3   76.29    5.08
   3  -6   3   78.34   20.36
   3  -6   3   81.02    7.05
   3   6   4  920.37   28.49
   3   6   4  942.15   29.10
   3   6   4 1018.28   63.96
  -3   6  -4  963.18   33.27
   3  -6   4 1009.64   35.93
   3  -6   4 1033.07   70.97
   3   6   5   25.70    2.69
   3   6   5   26.93    7.64
   3   6   5   20.31    4.93
  -3   6  -5   28.54    6.70
   3  -6   5   28.02    4.70
   3  -6   5   26.88    8.73
   3   6   6  209.02   12.56
   3   6   6  229.81   18.61
   3   6   6  231.99   13.96
  -3   6  -6  217.81   12.15
   3  -6   6  190.77   12.31
   3  -6   6  226.31   20.87
  -3   6  -7   23.60    5.53
   3  -6   7   29.75    9.58
   3  -6   7   20.71    5.37
  -3   6  -8  113.76   11.46
   3  -6   8  102.15   10.52
   3  -6   8  104.25   28.77
   3   7  -8    7.07    6.74
  -3   7   8    1.45    7.73
  -3  -7   8    5.34    6.63
  -3  -7   8    6.24    6.40
   3   7  -7  314.70   17.85
  -3   7   7  342.80   47.66
  -3  -7   7  348.16   41.90
  -3  -7   7  333.09   16.99
   3   7  -6   22.27    8.89
  -3   7   6   22.88   10.62
  -3  -7   6   28.15    9.09
  -3  -7   6   28.53    4.57
   3   7  -5  284.08   14.65
  -3   7   5  263.98   25.46
  -3  -7   5  308.27   13.19
  -3  -7   5  339.90   23.93
   3   7  -4    1.18    4.05
  -3   7   4   -0.22    9.50
  -3  -7   4    4.57    4.51
  -3  -7   4    2.23    1.80
   3   7  -3  418.32   15.72
  -3   7   3  401.37   29.21
  -3  -7   3  375.21   39.04
  -3   7   2   36.23   13.22
  -3  -7   2  196.70   20.39
  -3   7   1  511.72   32.62
   3   7   0   81.55   10.99
  -3   7   0   75.75   12.83
   3  -7   0   73.32   12.75
   3   7   1  431.90   25.55
  -3   7  -1  412.16   27.85
   3  -7   1  395.43   28.52
   3   7   2  274.47   23.68
  -3   7  -2   61.83   14.42
   3  -7   2   76.91   14.73
   3   7   3  294.46   31.69
   3  -7   3  261.37   36.91
   3  -7   3  234.31    7.79
   3  -7   4    2.35    5.54
   3  -7   4    2.25    1.67
  -3   7  -5  245.90   16.18
   3  -7   5  252.18   24.36
   3  -7   5  240.59   11.11
  -3   7  -6   36.61    4.86
   3  -7   6   37.06   19.27
   3  -7   6   21.37    4.86
  -3   8   4  145.19   34.44
  -3  -8   4  138.15   17.84
  -3   8   3   23.11   13.77
  -3  -8   3  128.97   21.10
   3   8  -2  281.77   23.51
  -3   8   2  276.69   27.38
   3   8  -1   57.71   11.53
  -3   8   1   58.59   13.79
   3   8   0  350.62   25.75
  -3   8   0  315.19   28.64
   3   8   1    8.28    6.98
  -3   8  -1   12.42    7.97
   3  -8   1   10.66    8.15
   3   8   2  217.91   34.57
   3  -8   2  227.37   25.36
   4   0 -14  256.68   22.88
  -4   0  14  243.67   23.11
   4   0 -13    6.26    4.89
  -4   0  13   -1.20    4.89
  -4   0  12  248.35   19.72
  -4   0  11  101.57   12.38
   4   0 -10  824.94   38.93
  -4   0  10  819.70   41.05
   4   0  -9   63.83    8.12
  -4   0   9   73.65    9.07
   4   0  -8 1042.57   40.40
  -4   0   8 1101.32   55.32
   4   0  -7  687.56   25.09
  -4   0   7  710.32   26.35
   4   0  -6 3206.46  129.24
  -4   0   6 3266.62  132.88
   4   0  -5    1.88    3.36
  -4   0   5    3.56    2.10
  -4   0   4 1877.40   65.35
   4   0  -3  158.83    6.37
  -4   0   3  159.90   10.12
   4   0  -2 1607.46   51.66
  -4   0   2 1651.84   53.22
  -4   0   1    0.09    0.09
   4   0   0  988.43   23.24
   4   0   0  961.60   29.31
   4   0   1  130.52    9.81
   4   0   2 1676.40   65.28
  -4   0  -2 1587.12   54.75
   4   0   3  615.48   21.23
  -4   0  -3  608.12   20.99
   4   0   4 2895.84  114.35
  -4   0  -4 2811.42  111.96
   4   0   5  186.54   10.66
  -4   0  -5  193.14   10.70
   4   0   6 2807.66  119.03
  -4   0  -6 2710.57  115.50
   4   0   7    3.99    3.72
  -4   0  -7    1.71    3.65
   4   0   8  681.93   34.88
  -4   0  -8  640.16   33.29
   4   0   9   47.20    9.94
  -4   0  -9   53.13   10.61
   4   0  10  302.31   41.77
  -4   0 -10  324.70   27.71
   4   0  11    1.36    4.04
  -4   0 -11   -1.02    4.55
   4  -1 -14   33.08    9.20
   4   1 -13  331.07   25.85
  -4   1  13  308.76   23.00
  -4  -1  13  321.42   25.21
   4   1 -12   17.99    7.65
  -4   1  12   12.64    6.27
   4  -1 -12   14.39    6.13
  -4  -1  12   17.47    7.20
  -4   1  11 1388.08   65.22
   4  -1 -11 1447.64   66.52
  -4  -1  11 1423.74   69.00
   4   1 -10   68.37   17.99
  -4   1  10   74.52    9.91
   4  -1 -10   65.13    8.60
  -4  -1  10   68.93   11.31
   4   1  -9  615.04   29.59
  -4   1   9  683.30   43.12
   4  -1  -9  680.84   29.41
  -4  -1   9  737.82   34.08
   4   1  -8   29.00    5.50
  -4   1   8   32.20    4.96
   4  -1  -8   31.02    4.90
  -4  -1   8   23.30    5.96
   4   1  -7 2045.82   91.37
  -4   1   7 2091.32   78.52
   4  -1  -7 1985.37   74.90
  -4  -1   7 1948.00   77.44
   4   1  -6  141.52    8.25
  -4   1   6  150.74    7.41
   4  -1  -6  154.44    7.26
  -4  -1   6  155.36    8.68
  -4   1   5 3382.01  133.59
   4   1  -5 3369.18  145.83
  -4  -1   5 3405.98  137.82
   4  -1  -5 3198.90  126.13
  -4   1   4  112.34    5.39
   4   1  -4  113.61    6.24
  -4  -1   4  113.77    6.56
   4  -1  -4  108.07    5.14
   4   1  -3 1420.97   54.02
  -4   1   3 1402.94   44.27
   4  -1  -3 1475.93   45.62
  -4  -1   3 1467.97   48.47
   4   1  -2 4362.47  181.06
  -4   1   2 4401.13  177.03
  -4   1   2 4553.28  185.63
  -4  -1   2 4222.97  175.85
   4  -1  -2 4124.91  169.51
  -4  -1   2 4600.83  175.81
   4   1  -1 2104.88   72.16
  -4   1   1 2121.37   67.23
   4  -1  -1 2114.54   76.97
   4  -1  -1 2110.24   66.03
   4   1   0  306.33   10.40
   4   1   0  297.94    5.56
  -4   1   0  300.68    7.29
   4  -1   0  284.28    7.26
   4  -1   0  291.50    9.37
   4   1   1 1667.91   63.62
  -4   1  -1 1713.61   56.27
   4  -1   1 1611.07   53.53
   4  -1   1 1592.32   48.86
   4   1   2  808.44   26.64
  -4   1  -2  842.19   34.18
   4  -1   2  834.82   26.91
   4  -1   2  832.83   24.17
  -4   1  -3 4236.47  193.38
   4   1   3 4314.91  183.13
  -4  -1  -3 4038.05  174.25
   4  -1   3 4264.80  181.74
   4   1   4  293.33   12.58
  -4   1  -4  305.75   12.87
   4  -1   4  292.51   12.53
  -4  -1  -4  296.67   12.67
   4   1   5 1719.24   76.96
  -4   1  -5 1732.62   66.52
   4  -1   5 1787.17   68.52
  -4  -1  -5 1771.41   79.37
   4   1   6  262.42   14.63
  -4   1  -6  267.66   15.49
   4  -1   6  292.17   15.79
  -4  -1  -6  296.56   15.22
  -4   1  -7 1211.51   54.52
   4   1   7 1303.85   55.28
  -4  -1  -7 1420.81   58.10
   4  -1   7 1476.06   80.51
   4   1   8    6.02    4.61
  -4   1  -8    4.82    5.01
   4  -1   8    8.28    8.94
  -4  -1  -8    3.44    4.35
  -4   1  -9  579.81   35.50
   4   1   9  585.53   50.49
  -4  -1  -9  534.60   31.29
   4  -1   9  608.80   35.03
   4   1  10    9.27    7.19
  -4   1 -10   12.54    8.20
   4  -1  10    8.19    7.37
  -4  -1 -10   16.90    7.46
  -4   1 -11  548.03   39.30
   4   1  11  512.80   34.74
  -4  -1 -11  477.33   36.24
   4  -1  11  471.90   53.64
   4   2 -13    2.34    4.81
   4  -2 -13    0.36    3.46
   4   2 -12  284.04   24.35
  -4   2  12  274.28   29.43
  -4   2  11  247.14   27.00
   4   2 -11  219.89   20.18
  -4  -2  11  430.87   36.46
   4  -2 -11  226.84   15.37
   4   2 -10  746.37   58.46
  -4   2  10  791.83   50.61
   4  -2 -10  700.73   31.92
  -4  -2  10  834.05   61.65
   4   2  -9   77.40    9.55
  -4   2   9   86.24    8.11
   4  -2  -9   73.02    7.43
  -4  -2   9   76.75   10.50
   4   2  -8  561.45   25.41
  -4   2   8  575.06   22.22
   4  -2  -8  527.60   21.23
  -4  -2   8  554.52   25.96
   4   2  -7   93.41    7.67
  -4   2   7   86.65    6.07
   4  -2  -7   89.74    5.83
  -4  -2   7   90.63   13.02
   4   2  -6 1951.69   84.48
  -4   2   6 1947.43   69.27
   4  -2  -6 1876.15   73.27
  -4  -2   6 1917.02   73.41
   4   2  -5  183.66    8.79
  -4   2   5  180.97    6.81
   4  -2  -5  173.39    6.30
  -4  -2   5  184.24    9.16
   4   2  -4 2721.00  104.95
  -4   2   4 2852.09  110.93
  -4  -2   4 2856.62  104.85
  -4  -2   4 2863.14  120.91
   4  -2  -4 2805.09  107.53
   4   2  -3  366.97   12.83
  -4   2   3  375.34   17.40
  -4   2   3  366.47   10.40
  -4  -2   3  375.90   13.21
   4  -2  -3  377.60   13.43
  -4  -2   3  372.34   10.49
   4   2  -2 2070.68   75.38
  -4   2   2 2107.03   75.78
   4  -2  -2 2403.56   79.61
  -4  -2   2 2401.89   83.42
  -4  -2   2 2371.12   84.20
   4   2  -1  147.76    9.98
   4   2  -1  142.88    5.94
  -4   2   1  146.41    5.93
   4  -2  -1  138.20    5.04
   4  -2  -1  134.75    7.49
  -4  -2   1  138.34    4.25
   4  -2  -1  133.63    5.94
   4   2   0 2577.19   94.40
   4   2   0 2616.59   93.97
  -4   2   0 2548.57   92.21
   4  -2   0 2544.51   92.54
   4  -2   0 2582.79   97.59
   4   2   1   15.80    2.68
   4   2   1   19.13    3.07
  -4   2  -1   20.62    2.46
   4  -2   1   14.51    2.60
   4  -2   1   15.84    4.03
  -4   2  -2 4494.82  194.36
   4   2   2 4525.48  206.37
   4  -2   2 4621.81  197.96
   4  -2   2 4543.57  197.72
   4   2   3  126.25    6.54
  -4   2  -3  118.89    6.71
   4  -2   3  111.55    6.25
   4  -2   3  120.47   10.48
   4   2   4 1550.29   55.53
  -4   2  -4 1509.06   64.91
   4  -2   4 1544.74   55.93
   4  -2   4 1512.52   55.37
  -4  -2  -4 1526.16   64.20
   4   2   5   95.67    7.50
  -4   2  -5   97.89    8.20
   4  -2   5  109.92    8.45
  -4  -2  -5  112.94    7.75
   4   2   6 1094.25   53.58
  -4   2  -6 1008.62   42.47
   4  -2   6 1106.70   60.94
  -4  -2  -6 1055.99   41.37
   4   2   7    9.92    8.15
  -4   2  -7   13.19    9.40
   4  -2   7   19.03    6.07
  -4  -2  -7   12.81    4.70
   4   2   8  570.77   42.50
  -4   2  -8  571.11   47.23
   4  -2   8  627.13   33.27
  -4  -2  -8  561.40   40.04
   4   2   9   16.78   11.19
  -4   2  -9   14.47   13.42
   4  -2   9   15.67    7.08
  -4  -2  -9    8.31   10.08
  -4   2 -10  464.04   49.87
   4   2  10  408.38   27.14
  -4  -2 -10  334.16   40.15
   4  -2  10  348.53   27.38
   4   2  11  301.58   25.33
  -4   2 -11  345.58   30.22
   4  -2  11  324.93   28.01
  -4  -2 -11  323.90   43.92
   4   3 -13  196.37   21.48
  -4   3  13  176.46   15.53
   4  -3 -13  211.59   14.70
  -4  -3  13  191.49   21.49
   4   3 -12   15.78    6.60
  -4   3  12    5.30    4.41
   4  -3 -12    5.67    6.63
  -4  -3  12    0.10    6.42
  -4   3  11  338.20   18.70
   4  -3 -11  237.90   14.62
  -4  -3  11  262.88   23.59
   4   3 -10  109.48   13.96
  -4   3  10  123.91   10.10
   4  -3 -10  102.11    8.34
  -4  -3  10  119.25   14.33
   4   3  -9  579.17   28.89
  -4   3   9  620.97   32.49
   4  -3  -9  497.28   29.14
  -4  -3   9  510.45   28.17
   4   3  -8    8.00    4.79
  -4   3   8   12.12    2.98
   4  -3  -8   11.64    5.50
  -4  -3   8   12.44    8.53
   4   3  -7 1707.07   68.96
  -4   3   7 1756.29   62.97
   4  -3  -7 1701.43   69.82
  -4  -3   7 1686.67   69.28
  -4  -3   7 1678.22   66.78
   4   3  -6  215.94   11.27
  -4   3   6  217.50    7.82
   4  -3  -6  223.22    7.80
  -4  -3   6  225.34   16.29
  -4  -3   6  227.52   11.77
   4   3  -5 1211.53   50.70
  -4   3   5 1228.88   37.15
   4  -3  -5 1168.49   39.19
  -4  -3   5 1179.16   49.51
  -4  -3   5 1181.34   42.67
   4   3  -4   24.80    3.29
  -4   3   4   21.63    1.81
  -4   3   4   22.57    4.02
   4  -3  -4   23.51    1.68
  -4  -3   4   24.18    3.50
  -4  -3   4   21.99    3.17
   4   3  -3 1370.93   53.28
  -4   3   3 1367.16   49.10
   4  -3  -3 1353.78   38.79
  -4  -3   3 1448.36   56.19
  -4  -3   3 1442.61   47.50
   4   3  -2  120.76    8.84
   4   3  -2  119.70    7.70
  -4   3   2  119.45    6.71
   4  -3  -2  108.02    3.36
  -4  -3   2  110.61    5.72
  -4  -3   2  113.37    8.23
   4  -3  -2  112.80    5.02
   4   3  -1 2793.20  104.95
   4   3  -1 2772.06  104.47
  -4   3   1 2865.46  112.03
   4  -3  -1 2845.70  100.18
   4  -3  -1 2753.54  109.15
  -4  -3   1 2887.54  107.46
   4  -3  -1 2850.16  104.84
   4   3   0    7.16    3.02
   4   3   0    6.30    1.89
  -4   3   0    7.47    4.31
   4  -3   0    8.49    2.59
   4  -3   0    7.29    1.40
   4   3   1 1390.66   45.34
   4   3   1 1375.71   44.94
   4   3   1 1380.88   45.41
  -4   3  -1 1381.26   55.74
  -4   3  -1 1371.95   43.43
   4  -3   1 1354.52   47.93
   4  -3   1 1353.89   42.40
   4   3   2  761.04   30.10
   4   3   2  774.38   25.04
  -4   3  -2  771.59   24.46
   4  -3   2  793.41   24.57
   4  -3   2  801.60   28.39
  -4   3  -3 1250.44   43.39
   4   3   3 1309.96   51.86
   4  -3   3 1376.43   59.85
   4  -3   3 1278.03   44.20
   4   3   4   79.21    5.81
  -4   3  -4   77.56   10.26
   4  -3   4   78.45    6.54
   4  -3   4   83.90    7.28
   4   3   5  826.21   38.27
  -4   3  -5  805.54   31.46
   4  -3   5  777.29   32.67
   4  -3   5  797.38   44.90
  -4  -3  -5  763.58   28.88
  -4   3  -6   32.63    6.27
   4   3   6   36.52    5.29
   4  -3   6   35.33   11.19
  -4  -3  -6   39.38    9.05
   4  -3   6   37.48    6.57
   4   3   7  192.69   12.90
  -4   3  -7  186.88   23.92
   4  -3   7  234.06   24.60
  -4  -3  -7  222.60   13.01
   4  -3   7  259.31   16.94
   4   3   8   52.77    7.50
  -4   3  -8   50.06   15.30
   4  -3   8   41.06    8.76
   4  -3   8   37.34    8.52
  -4  -3  -8   34.26    6.98
   4   3   9  232.56   27.39
  -4   3  -9  284.98   37.34
   4  -3   9  262.28   20.89
  -4  -3  -9  232.61   26.44
   4  -3   9  279.20   31.98
   4   3  10   36.81   15.35
  -4   3 -10   29.26   11.61
   4  -3  10   39.63   10.01
   4  -3  10   36.37   10.92
  -4  -3 -10   30.38   14.28
  -4   4  12  250.51   16.60
   4  -4 -12  218.71   13.41
  -4  -4  12  231.07   24.13
   4   4 -11   39.94   10.91
  -4   4  11   49.81    7.32
   4  -4 -11   41.34    9.11
  -4  -4  11   44.76   10.42
   4   4 -10  369.01   24.38
  -4   4  10  397.74   24.82
   4  -4 -10  346.05   15.02
  -4  -4  10  354.78   36.21
   4   4  -9   20.61   11.92
  -4   4   9   27.25    3.70
   4  -4  -9   21.26    3.43
  -4  -4   9   23.65    6.59
  -4  -4   9   23.04    6.90
   4   4  -8  435.43   33.45
  -4   4   8  441.21   20.52
   4  -4  -8  427.92   19.67
  -4  -4   8  440.22   22.32
  -4  -4   8  451.76   22.85
   4   4  -7  319.81   16.25
  -4   4   7  317.20   10.23
   4  -4  -7  292.52    9.98
  -4  -4   7  314.69   16.82
  -4  -4   7  313.99   16.61
   4   4  -6   14.35    8.03
  -4   4   6   10.49    6.06
  -4  -4   6   35.65    8.50
  -4  -4   6   39.38    5.27
  -4   4   5    2.56    1.60
   4   4  -5    3.47    4.11
  -4   4   5    4.08    3.40
   4  -4  -5    4.02    1.82
  -4  -4   5    1.36    4.33
  -4  -4   5    4.69    2.77
   4   4  -4  432.18   15.93
  -4   4   4  437.75   20.06
  -4  -4   4  442.89   17.73
  -4  -4   4  440.50   16.51
   4  -4  -4  453.52   11.97
   4   4  -3   17.10    2.76
  -4   4   3   19.31    4.35
   4  -4  -3   16.04    1.47
  -4  -4   3   18.01    4.89
   4  -4  -3   17.84    1.49
  -4  -4   3   16.96    5.75
  -4   4   2  509.59   19.64
   4   4  -2  503.39   16.39
   4   4  -2  494.64   14.88
   4  -4  -2  388.21   10.23
  -4  -4   2  391.47   18.61
  -4  -4   2  392.79   21.77
   4  -4  -2  398.56    8.67
   4   4  -1   85.80    5.40
   4   4  -1   86.30    4.45
  -4   4   1   78.10    7.00
   4  -4  -1   75.45    2.50
   4  -4  -1   79.62    3.55
  -4  -4   1   82.29    9.11
   4  -4  -1   91.50   11.68
   4   4   0  608.11   18.67
   4   4   0  608.79   21.14
  -4   4   0  616.80   33.08
   4  -4   0  613.26   24.30
   4  -4   0  598.70   18.40
   4   4   1    9.62    3.52
   4   4   1   10.10    2.13
  -4   4  -1    8.95    3.56
   4   4   1   12.22    4.78
   4  -4   1   10.76    6.33
   4  -4   1   10.98    3.01
   4   4   2 1612.03   56.35
   4   4   2 1603.69   61.43
  -4   4  -2 1647.36   56.63
   4   4   2 1625.05   57.01
   4  -4   2 1821.79   72.08
   4  -4   2 1697.95   65.63
   4   4   3   93.01    5.33
  -4   4  -3   99.87    9.38
   4   4   3   96.73   11.57
   4  -4   3   83.06    6.38
   4  -4   3   87.08    8.92
   4   4   4 1093.48   45.54
   4   4   4 1055.37   41.09
  -4   4  -4 1060.09   38.88
   4  -4   4 1028.18   39.40
   4  -4   4 1110.93   46.50
   4   4   5  102.34    6.92
  -4   4  -5  104.15    8.13
   4  -4   5  107.59    9.27
   4  -4   5  105.95   10.68
  -4   4  -6  819.47   35.11
   4   4   6  821.19   31.52
   4  -4   6  828.54   39.71
   4  -4   6  828.48   36.39
   4   4   7   11.69    4.23
  -4   4  -7   13.98    5.38
   4  -4   7   15.31    5.32
   4  -4   7   16.75    6.24
  -4   4  -8  297.12   21.65
   4   4   8  321.61   18.83
   4  -4   8  347.42   21.37
   4  -4   8  339.26   23.37
  -4  -4  -8  312.70   17.17
   4   4   9    8.89    5.33
  -4   4  -9    8.95    7.43
   4  -4   9   16.60    6.36
   4  -4   9    8.27   12.39
  -4  -4  -9   15.13    5.00
   4   4  10  204.52   16.30
  -4   4 -10  221.61   23.48
   4  -4  10  191.16   34.78
   4  -4  10  186.68   19.20
  -4  -4 -10  162.50   24.71
   4   5 -11  228.08   33.05
   4  -5 -11  170.70   15.40
  -4  -5  11  219.07   20.90
  -4  -5  11  195.73   20.72
   4   5 -10   82.40   12.20
  -4   5  10   73.72    5.69
   4  -5 -10   73.15    5.63
  -4  -5  10   70.48   12.13
  -4  -5  10    0.58   19.72
  -4   5   9  473.01   32.42
   4   5  -9  457.99   27.12
  -4   5   9  443.07   15.29
  -4  -5   9  502.51   26.94
   4  -5  -9  456.60   16.22
  -4  -5   9  486.84   43.21
  -4   5   8   35.97    9.24
   4   5  -8   34.86    7.15
  -4   5   8   37.26    4.30
   4  -5  -8   28.30    4.82
  -4  -5   8   37.42    6.71
  -4  -5   8   25.29    7.81
   4   5  -7  488.58   33.08
  -4   5   7  477.48   28.57
  -4   5   7  430.45   14.01
  -4  -5   7  463.68   24.64
  -4  -5   7  465.72   22.00
   4   5  -6   13.29    6.14
  -4   5   6    8.41    5.41
   4  -5  -6    9.16    0.80
  -4  -5   6    9.77    6.13
   4   5  -5  426.54   24.61
  -4   5   5  441.19   36.75
  -4  -5   5  444.93   31.30
  -4  -5   5  444.20   25.30
   4   5  -4   35.27    6.63
  -4   5   4   31.18   11.76
  -4  -5   4   30.62    9.47
  -4  -5   4   29.05    4.07
   4   5  -3  767.61   25.43
  -4   5   3  746.98   34.03
  -4  -5   3  691.07   30.94
  -4  -5   3  721.63   30.14
   4   5  -2  313.98   14.38
   4   5  -2  307.74   10.53
  -4   5   2  327.62   18.05
  -4  -5   2  250.11   10.17
  -4  -5   2  312.65   22.38
   4   5  -1  855.30   25.89
   4   5  -1  889.39   42.42
  -4   5   1  877.25   36.54
   4  -5  -1  712.28   17.45
   4  -5  -1  774.70   19.12
  -4  -5   1  735.87   29.83
   4  -5  -1  744.28   33.72
   4   5   0  244.57   12.76
   4   5   0  252.68   12.37
   4   5   0  247.48    8.67
  -4   5   0  247.46   15.17
   4  -5   0  245.97    6.93
   4  -5   0  240.08   15.64
   4  -5   0  230.32    6.15
   4   5   1  450.31   28.61
   4   5   1  464.80   19.00
  -4   5  -1  455.05   22.71
   4   5   1  455.61   19.28
   4  -5   1  549.01   36.86
   4  -5   1  463.30   14.18
   4   5   2  306.01   14.77
   4   5   2  306.49   15.36
   4   5   2  310.90   14.35
  -4   5  -2  299.28   13.86
  -4   5  -2  231.67   16.57
   4  -5   2  280.96   18.19
   4  -5   2  261.91   10.19
   4   5   3  710.61   28.89
   4   5   3  701.29   23.21
  -4   5  -3  686.89   23.76
   4   5   3  714.36   31.21
   4  -5   3  781.47   33.03
   4  -5   3  839.09   37.42
   4   5   4    6.63    4.16
   4   5   4    8.15    2.33
   4   5   4   11.11    4.17
  -4   5  -4    8.66    4.76
   4  -5   4    7.78    5.13
   4  -5   4    5.97    9.05
   4   5   5  800.49   36.14
   4   5   5  826.08   37.76
  -4   5  -5  788.13   31.62
   4  -5   5  844.47   33.46
   4  -5   5  865.57   42.89
   4   5   6   56.64    5.49
   4   5   6   57.63   14.70
  -4   5  -6   47.04   11.62
   4  -5   6   58.41   10.67
   4  -5   6   60.92    7.15
   4   5   7  601.00   26.25
   4   5   7  645.39   33.59
  -4   5  -7  580.12   29.22
   4  -5   7  652.45   37.38
   4  -5   7  636.53   41.12
   4   5   8   25.49    5.59
  -4   5  -8   27.39    7.47
   4  -5   8   34.52    6.86
   4  -5   8   24.77    9.56
   4   5   9  136.08   11.83
  -4   5  -9  140.15   16.66
   4  -5   9  148.60   18.93
   4  -5   9  149.38   22.99
   4   6 -10  303.54   33.77
  -4   6  10  263.71   27.72
  -4  -6  10  240.91   23.46
  -4  -6  10  161.82   32.65
   4   6  -9   -0.16    3.17
  -4   6   9    0.30    4.55
  -4  -6   9   -0.48    2.92
  -4  -6   9    1.96    3.72
   4   6  -8  298.27   19.35
  -4   6   8  297.77   26.40
  -4  -6   8  305.70   18.56
  -4  -6   8  326.12   23.21
   4   6  -7   77.20   13.54
  -4   6   7   72.93   21.09
  -4  -6   7   58.17    7.47
  -4  -6   7   62.13   10.47
   4   6  -6   49.12    6.05
  -4   6   6   57.83   10.39
  -4  -6   6   35.66    5.69
  -4  -6   6   29.79    8.51
   4   6  -5   33.06    4.62
  -4   6   5   33.75    8.63
  -4  -6   5   26.15    7.14
  -4  -6   5   27.80    4.44
   4   6  -4  482.70   18.07
  -4   6   4  460.02   28.00
  -4  -6   4  432.50   16.91
  -4  -6   4  469.97   24.84
   4   6  -3  134.88    6.75
  -4   6   3  126.81   14.05
  -4  -6   3  132.94   11.53
  -4  -6   3  128.04    6.84
   4   6  -2  458.52   22.11
   4   6  -2  458.72   14.88
  -4   6   2  457.51   26.62
  -4  -6   2  423.13   22.48
   4   6  -1   15.10    5.04
   4   6  -1   16.45    3.88
  -4   6   1   19.80    6.50
   4   6   0  599.75   22.80
   4   6   0  607.31   27.99
   4   6   0  598.56   18.14
  -4   6   0  595.59   31.76
   4  -6   0  589.99   32.14
   4   6   1   35.35   10.92
   4   6   1   31.14    2.67
   4   6   1   34.01    4.51
  -4   6  -1   33.86    7.83
   4  -6   1   31.25    1.81
   4  -6   1   31.68    8.12
   4   6   2  738.24   27.47
   4   6   2  749.09   22.32
   4   6   2  750.34   46.45
  -4   6  -2  660.26   35.63
   4  -6   2  716.30   38.25
   4  -6   2  674.18   20.85
   4   6   3  385.12   32.63
   4   6   3  364.33   11.84
   4   6   3  368.32   12.24
  -4   6  -3  377.72   17.78
   4  -6   3  415.95   40.13
   4  -6   3  398.75   14.65
   4   6   4  272.03   13.77
   4   6   4  283.78   28.32
   4   6   4  259.68   10.06
  -4   6  -4  265.63   16.53
   4  -6   4  274.88   12.70
   4  -6   4  311.21   22.46
   4   6   5   38.11    3.85
   4   6   5   41.81    3.88
   4   6   5   41.48    8.33
  -4   6  -5   38.62    5.07
   4  -6   5   36.35    5.29
   4  -6   5   44.54   10.16
   4   6   6  416.63   22.28
  -4   6  -6  397.32   19.50
   4   6   6  414.63   16.92
   4  -6   6  430.76   19.94
   4  -6   6  480.16   47.51
   4   6   7   14.81    3.74
  -4   6  -7   20.66    5.23
   4   6   7   14.78    3.91
   4  -6   7   16.88    8.91
   4  -6   7   19.82    5.12
  -4  -7   8   15.74    8.29
   4   7  -7  249.71   15.81
  -4   7   7  235.03   24.80
  -4  -7   7  214.85   20.60
  -4  -7   7  202.10   13.43
   4   7  -6   78.94    7.95
  -4   7   6   74.33   14.73
  -4  -7   6    0.24   20.44
  -4  -7   6   79.11    6.93
   4   7  -5   72.06    9.55
  -4   7   5   67.58   11.57
  -4  -7   5   42.57    8.04
  -4  -7   5    0.26    9.63
   4   7  -4   15.71    3.31
  -4   7   4   15.33    7.81
  -4  -7   4   15.51    3.03
  -4  -7   4    0.25    6.33
   4   7  -3  204.17    8.95
  -4   7   3  204.84   19.70
  -4  -7   3  186.88   16.57
   4   7  -2   25.31    2.96
  -4  -7   2   23.83    7.01
   4   7  -1  356.09   14.56
   4   7  -1  334.61   10.89
   4   7   0   86.13   14.62
   4  -7   0   19.15    9.95
   4   7   1  230.47   27.34
  -4   7  -1  206.22   32.44
   4  -7   1  210.25   20.20
   4   7   2  136.77   21.56
  -4   7  -2   78.79   15.63
   4  -7   2  122.18   16.35
   4  -7   3  504.61   53.06
   4  -7   4    2.12    2.89
   4  -7   4   -1.45    5.10
   4  -7   5  106.27    7.77
   4  -7   5  166.34   17.99
  -4  -8   4  107.37   15.33
  -4  -8   3   62.52   11.56
   4   8  -2  120.88   14.76
   4   8  -1   18.06    7.35
  -4   8   1   17.39    9.39
   4   8   0  181.59   18.19
  -4   8   0  191.51   21.34
  -4   8  -1   38.51   12.12
   4  -8   1   41.71   12.21
   5   0 -14  156.43   18.62
  -5   0  14  151.47   18.56
   5   0 -13   18.07    8.28
  -5   0  13   16.84    7.89
  -5   0  12  692.32   40.25
  -5   0  11  169.30   17.31
   5   0 -10  410.09   22.28
  -5   0  10  446.38   24.94
   5   0  -9   41.17   11.38
  -5   0   9   44.65    7.41
   5   0  -8  955.46   48.14
  -5   0   8  953.23   38.48
   5   0  -7  961.72   35.15
  -5   0   7  997.83   37.01
   5   0  -6  375.88   14.48
  -5   0   6  389.30   22.31
   5   0  -5   19.10    3.26
  -5   0   5   18.97    3.43
   5   0  -4 1760.61   61.70
  -5   0   4 1839.53   64.73
   5   0  -3    2.37    1.83
  -5   0   3    1.48    1.82
   5   0  -2  681.19   22.25
  -5   0   2  723.00   16.16
   5   0  -1  174.35    7.88
   5   0   0 1352.13   45.37
   5   0   0 1329.49   33.33
   5   0   1  129.48    7.00
   5   0   2 5020.50  226.82
   5   0   3  656.14   23.84
  -5   0  -3  651.13   23.78
   5   0   4 1701.65   64.35
  -5   0  -4 1584.56   73.41
   5   0   5  239.96   20.95
  -5   0  -5  232.05   13.55
   5   0   6  261.75   24.87
  -5   0  -6  248.19   24.97
   5   0   7  701.13   46.95
  -5   0  -7  649.74   31.47
   5   0   8  109.64   12.99
  -5   0  -8  103.85   12.51
   5   0   9    4.08    5.84
  -5   0  -9    5.78    5.57
   5   0  10  260.37   24.27
  -5   0 -10  259.77   25.26
   5   0  11   12.01    8.63
  -5   0 -11   11.26    9.29
  -5   1  14    3.69    5.79
  -5  -1  14    6.62    6.52
   5   1 -13  206.98   22.24
  -5   1  13  214.46   18.90
  -5  -1  13  205.88   21.04
  -5   1  12   38.15    8.52
   5   1 -12   29.67    9.27
  -5  -1  12   25.79    9.66
   5  -1 -12   28.08    8.20
   5   1 -11  190.49   18.09
  -5   1  11  214.35   18.01
   5  -1 -11  192.44   15.91
  -5  -1  11  224.59   20.53
   5   1 -10   22.99   11.52
  -5   1  10   23.33   11.05
   5  -1 -10   21.28    5.80
  -5  -1  10   26.05   12.50
   5   1  -9  324.64   29.63
  -5   1   9  356.14   18.50
   5  -1  -9  359.82   17.85
  -5  -1   9  374.45   21.11
   5   1  -8   36.13   10.05
  -5   1   8   36.19    5.45
   5  -1  -8   37.24    5.10
  -5  -1   8   33.34    6.39
   5   1  -7  801.85   30.71
  -5   1   7  839.92   30.64
   5  -1  -7  825.55   37.21
  -5  -1   7  880.60   33.65
   5   1  -6   63.58    5.82
  -5   1   6   66.59    5.30
   5  -1  -6   68.07    4.90
  -5  -1   6   63.71   10.52
  -5   1   5 2086.84   84.30
   5   1  -5 2032.54   75.63
  -5  -1   5 2122.25   79.49
   5  -1  -5 2065.55   73.95
  -5   1   4  112.49    6.04
   5   1  -4  117.00    6.82
  -5  -1   4  122.22    7.27
   5  -1  -4  123.46    5.89
   5   1  -3 1620.55   55.63
  -5   1   3 1629.90   54.00
   5  -1  -3 1454.48   56.73
  -5  -1   3 1471.98   52.19
   5   1  -2 1636.92   56.80
  -5   1   2 1636.38   54.02
  -5  -1   2 1680.18   58.70
  -5  -1   2 1702.93   46.49
   5  -1  -2 1638.93   54.92
   5   1  -1 2633.05   99.48
  -5   1   1 2712.06   96.04
   5  -1  -1 2634.99   97.83
   5   1   0   87.21    1.59
   5   1   0   92.20    5.94
   5  -1   0   81.25    4.63
   5  -1   0   76.33    8.45
   5   1   1 2706.11  105.21
   5  -1   1 2887.04  102.19
   5  -1   1 2806.44  117.19
  -5   1  -2  836.91   28.29
   5   1   2  829.10   36.24
   5  -1   2  817.74   27.99
   5  -1   2  773.23   22.72
  -5   1  -3 1645.94   61.20
   5   1   3 1711.84   62.84
  -5  -1  -3 1719.68   62.80
   5  -1   3 1694.32   62.05
   5   1   4  145.50    9.30
  -5   1  -4  151.15    9.53
   5  -1   4  150.81    9.17
  -5  -1  -4  150.61    9.34
  -5   1  -5 1166.43   59.78
   5   1   5 1156.31   45.85
  -5  -1  -5 1250.26   48.83
   5  -1   5 1250.02   49.16
   5   1   6   48.86    7.07
  -5   1  -6   52.26    7.46
   5  -1   6   36.39    7.34
  -5  -1  -6   40.82    7.01
   5   1   7  164.18   12.99
  -5   1  -7  158.40   13.71
   5  -1   7  149.84   13.95
  -5  -1  -7  162.31   13.19
   5   1   8   41.27    7.93
  -5   1  -8   33.66    8.42
   5  -1   8   32.47    8.85
  -5  -1  -8   25.43    7.73
   5   1   9  326.63   23.81
  -5   1  -9  310.34   24.71
   5  -1   9  332.32   38.06
  -5  -1  -9  291.02   22.94
   5   1  10   12.19    8.59
  -5   1 -10   18.25   10.25
   5  -1  10   25.50   10.01
  -5  -1 -10   27.22    9.10
   5   1  11  204.31   39.54
  -5   1 -11  212.30   27.37
   5  -1  11  233.64   25.19
  -5  -1 -11  247.46   26.81
   5   2 -13   13.21    6.58
   5  -2 -13   -0.05    4.50
   5   2 -12  466.63   33.48
  -5   2  12  596.30   47.36
   5   2 -11  426.23   28.38
  -5   2  11  483.52   27.12
   5  -2 -11  392.71   23.21
  -5  -2  11  470.36   48.52
   5   2 -10  130.63   21.12
  -5   2  10  102.92   10.25
   5  -2 -10   90.07    9.61
  -5  -2  10  112.45   13.32
   5   2  -9   41.65   12.60
  -5   2   9   42.47    9.93
   5  -2  -9   38.34    5.65
  -5  -2   9   49.70    8.11
   5   2  -8  571.22   37.30
  -5   2   8  582.96   23.09
   5  -2  -8  586.22   22.28
  -5  -2   8  585.91   27.40
   5   2  -7  308.21   15.33
  -5   2   7  310.98   12.79
   5  -2  -7  299.25   12.04
  -5  -2   7  313.63   16.05
   5   2  -6 1523.26   56.55
  -5   2   6 1535.54   53.09
   5  -2  -6 1400.00   48.18
  -5  -2   6 1493.18   57.02
   5   2  -5   30.99    7.05
  -5   2   5   36.01    5.25
   5  -2  -5   25.89    2.85
  -5  -2   5   27.32    4.46
   5   2  -4 4146.94  180.80
  -5   2   4 4416.98  193.82
  -5  -2   4 4219.31  172.32
  -5  -2   4 4269.90  186.89
   5  -2  -4 4169.51  182.22
   5   2  -3 1587.79   55.76
  -5   2   3 1523.98   51.85
   5  -2  -3 1562.64   50.66
  -5  -2   3 1563.22   51.80
  -5  -2   3 1545.48   55.30
   5   2  -210133.44  565.23
  -5   2   210019.12  570.09
  -5  -2   2 9869.46  552.93
  -5  -2   210065.67  541.39
   5  -2  -2 9744.32  537.41
   5   2  -1  117.41    4.63
   5   2  -1  127.16    6.67
  -5   2   1  128.61    5.22
   5  -2  -1  119.67    8.28
   5  -2  -1  117.93    5.36
   5  -2  -1  120.55    5.46
   5   2   0 2886.47  111.24
  -5   2   0 2771.62  103.14
   5   2   0 2789.76   97.62
   5  -2   0 2843.65  113.81
   5  -2   0 2788.28  105.03
   5   2   1  157.94    7.73
   5   2   1  161.84    4.85
   5  -2   1  144.27    6.82
   5  -2   1  138.42    6.25
  -5   2  -2  748.77   31.48
   5   2   2  763.38   25.37
   5  -2   2  659.79   29.44
   5  -2   2  640.23   21.42
  -5   2  -3  126.91   12.24
   5   2   3  134.12    7.67
   5  -2   3  125.62    6.73
   5  -2   3  119.37    7.37
   5   2   4  516.03   28.10
  -5   2  -4  501.13   20.32
   5  -2   4  474.23   18.20
   5  -2   4  472.23   19.92
   5   2   5   55.43    6.65
  -5   2  -5   59.38    7.08
   5  -2   5   58.04    6.24
   5  -2   5   58.65    7.12
  -5  -2  -5   59.86    6.83
   5   2   6  213.77   13.48
  -5   2  -6  204.57   14.35
   5  -2   6  229.83   14.83
  -5  -2  -6  229.06   13.78
   5   2   7   97.05    9.99
  -5   2  -7   95.97   11.08
   5  -2   7  105.71   11.88
  -5  -2  -7   94.92   10.05
  -5   2  -8  272.19   33.04
   5   2   8  290.98   19.22
  -5  -2  -8  288.13   29.82
   5  -2   8  332.52   37.25
   5   2   9    5.19    5.67
  -5   2  -9    7.80   11.10
   5  -2   9    8.73    6.50
  -5  -2  -9    4.65    9.09
   5   2  10  177.37   18.47
  -5   2 -10  186.90   23.31
   5  -2  10  181.12   20.72
  -5  -2 -10  151.35   29.90
   5   3 -13  259.64   26.38
  -5   3  13  258.91   19.41
   5  -3 -13  251.12   16.84
  -5  -3  13  240.03   25.89
   5   3 -12   12.73    7.29
  -5   3  12   12.85    5.80
   5  -3 -12   11.42    7.49
  -5  -3  12   -0.21    8.27
   5   3 -11  924.98   72.66
  -5   3  11  881.58   53.62
   5  -3 -11  710.98   32.70
  -5  -3  11  862.30   49.47
   5   3 -10   29.99    8.38
  -5   3  10   46.16    5.89
   5  -3 -10   42.97    5.71
  -5  -3  10   -0.59    9.20
   5   3  -9  419.36   22.05
  -5   3   9  413.22   17.02
   5  -3  -9  317.10   15.51
  -5  -3   9  344.13   34.03
   5   3  -8  153.81   12.16
  -5   3   8  159.79    8.53
   5  -3  -8  154.42    8.21
  -5  -3   8  148.92   12.71
   5   3  -7 1294.58   49.48
  -5   3   7 1290.27   43.65
   5  -3  -7 1059.06   43.84
  -5  -3   7 1060.38   42.05
  -5  -3   7 1070.41   59.26
   5   3  -6   -0.44    3.43
  -5   3   6    0.00    2.09
  -5  -3   6   -2.25    2.17
  -5  -3   6    2.22    1.63
   5  -3  -6    0.34    1.13
   5   3  -5 1003.59   36.16
  -5   3   5 1022.95   31.28
  -5   3   5  959.52   36.49
  -5  -3   5  994.91   33.61
   5  -3  -5  978.60   29.44
  -5  -3   5 1001.18   37.15
   5   3  -4   17.45    3.30
  -5   3   4   16.91    5.91
   5  -3  -4   14.32    3.03
  -5  -3   4   17.61    5.79
  -5  -3   4   12.44    2.58
   5   3  -3 3043.60  123.41
  -5   3   3 3181.50  130.44
   5  -3  -3 3070.16  114.53
  -5  -3   3 3093.67  119.80
  -5  -3   3 3147.93  127.43
   5   3  -2   54.82    3.14
   5   3  -2   49.10    4.59
  -5   3   2   59.15    4.72
   5  -3  -2   55.20    2.93
  -5  -3   2   57.92    4.79
  -5  -3   2   51.78    3.30
   5  -3  -2   53.85    4.79
   5   3  -1 1839.09   74.30
   5   3  -1 1894.99   67.82
  -5   3   1 1847.51   67.20
   5  -3  -1 1891.60   62.18
   5  -3  -1 1845.14   67.45
   5  -3  -1 1770.48   65.08
   5   3   0   90.89    8.99
  -5   3   0   96.54    9.40
   5   3   0   99.55    4.31
   5  -3   0   86.25    4.39
   5  -3   0   95.77    6.12
   5   3   1  989.76   33.56
   5   3   1  976.34   30.76
  -5   3  -1  979.95   33.28
   5   3   1  965.55   33.01
   5  -3   1 1029.84   32.39
   5  -3   1 1002.72   43.10
   5   3   2  407.91   15.01
   5   3   2  414.97   13.70
  -5   3  -2  400.34   20.33
   5  -3   2  385.91   13.85
   5  -3   2  389.77   15.87
   5   3   3  402.23   15.26
  -5   3  -3  379.39   21.40
   5  -3   3  342.43   15.64
   5  -3   3  347.50   14.37
   5   3   4   62.13    9.57
  -5   3  -4   54.79    6.17
   5  -3   4   56.78    6.20
   5  -3   4   57.78    6.58
  -5   3  -5  551.94   24.27
   5   3   5  590.59   23.32
   5  -3   5  524.60   24.22
   5  -3   5  520.70   24.18
  -5   3  -6  196.97   13.94
   5   3   6  212.72   12.81
   5  -3   6  215.54   15.19
   5  -3   6  209.82   21.53
   5   3   7  623.74   27.66
  -5   3  -7  605.66   30.06
   5  -3   7  518.47   43.47
  -5  -3  -7  530.56   26.02
   5  -3   7  553.68   28.31
  -5   3  -8   88.19   20.64
   5   3   8   86.80   10.66
   5  -3   8  100.87   13.43
  -5  -3  -8   74.44   16.91
   5  -3   8   97.89   11.48
   5   3   9  231.23   18.92
  -5   3  -9  242.28   35.16
   5  -3   9  231.61   20.89
   5  -3   9  215.84   31.03
  -5  -3  -9  202.17   27.55
  -5   3 -10  136.12   19.45
   5   3  10  128.04   14.78
   5  -3  10  124.82   28.63
   5  -3  10  117.92   27.47
  -5  -3 -10   84.62   14.07
  -5   4  12  166.71   14.32
   5  -4 -12  149.48   10.99
  -5  -4  12  161.07   18.91
  -5  -4  12  202.31   22.38
   5   4 -11   14.73    7.77
  -5   4  11   13.20    7.85
   5  -4 -11   16.10    3.86
  -5  -4  11   15.45   11.78
  -5  -4  11    0.59   14.07
   5   4 -10  349.70   23.99
  -5   4  10  362.59   16.10
   5  -4 -10  326.03   20.76
  -5  -4  10  321.20   21.73
  -5  -4  10  360.77   24.64
  -5   4   9   35.79    6.37
   5   4  -9   30.12    7.17
  -5  -4   9   -0.26    7.20
   5  -4  -9   31.05    6.17
  -5  -4   9   29.61    6.46
   5   4  -8  766.36   46.71
  -5   4   8  763.64   31.01
   5  -4  -8  620.06   22.55
  -5  -4   8  678.19   45.05
  -5  -4   8  682.27   42.74
  -5   4   7   69.96    9.36
   5   4  -7   84.42   13.28
  -5   4   7   69.34    4.17
   5  -4  -7   77.27    7.31
  -5  -4   7   77.27    8.38
  -5  -4   7   71.08    7.56
   5   4  -6  442.89   27.84
  -5   4   6  467.82   22.74
  -5   4   6  448.75   13.14
  -5  -4   6  410.77   19.53
   5  -4  -6  420.11   12.58
  -5  -4   6  403.47   18.43
   5   4  -5    7.41    3.19
  -5   4   5    6.40    4.12
  -5  -4   5    9.07    5.31
  -5  -4   5    9.30    3.37
   5  -4  -5    8.48    2.28
   5   4  -4  463.10   18.05
  -5   4   4  478.27   22.24
  -5  -4   4  507.80   18.99
  -5  -4   4  508.33   19.54
   5  -4  -4  502.81   12.63
   5   4  -3   85.77    9.27
  -5   4   3   94.55   12.55
   5  -4  -3   79.01    2.81
  -5  -4   3   78.65    9.30
   5  -4  -3   75.86    4.15
  -5  -4   3   80.52    6.00
   5   4  -2 1676.73   66.41
   5   4  -2 1595.30   57.23
  -5   4   2 1585.77   62.76
   5  -4  -2 1640.61   53.26
  -5  -4   2 1601.53   66.18
   5  -4  -2 1546.59   47.75
   5   4  -1   28.80    5.78
   5   4  -1   29.41    3.56
  -5   4   1   26.84    8.24
   5  -4  -1   26.29    3.39
   5  -4  -1   27.01    8.13
   5  -4  -1   29.35    3.60
   5   4   0  810.18   34.31
   5   4   0  827.03   27.75
   5   4   0  815.31   27.61
  -5   4   0  858.62   32.46
   5  -4   0  809.90   23.81
   5  -4   0  805.13   32.10
   5   4   1  884.86   37.80
   5   4   1  875.37   30.22
   5   4   1  877.98   30.55
  -5   4  -1  911.02   35.14
   5  -4   1  848.41   27.12
   5  -4   1  864.50   46.70
   5   4   2 1409.09   58.78
   5   4   2 1403.03   50.55
   5   4   2 1424.29   52.28
  -5   4  -2 1393.59   48.82
   5  -4   2 1322.53   53.87
   5  -4   2 1283.12   45.65
   5   4   3   54.80    8.18
   5   4   3   54.44    5.06
  -5   4  -3   52.54    5.10
   5   4   3   52.48    5.36
   5  -4   3   43.46    6.99
   5  -4   3   43.92    5.13
   5   4   4  695.74   25.80
   5   4   4  697.45   36.47
  -5   4  -4  656.96   26.35
   5  -4   4  670.92   27.56
   5  -4   4  681.17   43.08
   5   4   5   54.08    6.55
  -5   4  -5   31.72   11.06
   5   4   5   59.01    5.83
   5  -4   5   70.66   13.04
   5  -4   5   54.88   13.99
   5   4   6  862.72   46.30
  -5   4  -6  834.69   37.83
   5  -4   6  906.65   43.50
   5  -4   6  927.36   41.66
   5   4   7   99.17   14.70
  -5   4  -7   87.24   10.50
   5  -4   7   91.89   20.03
   5  -4   7   87.42   11.08
  -5   4  -8  283.28   21.52
   5   4   8  311.40   28.91
   5  -4   8  303.61   21.21
   5  -4   8  293.09   22.48
  -5   4  -9   27.35    9.61
   5   4   9   24.48   13.48
   5  -4   9   35.70    9.58
   5  -4   9   28.63    9.00
   5   5 -11  504.11   53.22
   5  -5 -11  473.08   26.42
  -5  -5  11  585.27   36.58
  -5  -5  11  538.50   34.78
   5   5 -10    0.02    3.46
  -5  -5  10    0.03    5.39
  -5  -5  10    0.32    5.34
  -5   5   9  384.73   13.63
   5   5  -9  400.45   24.52
  -5   5   9  433.04   28.98
  -5  -5   9  431.98   25.22
   5  -5  -9  380.96   13.50
  -5  -5   9  423.40   24.81
  -5   5   8   -0.36    1.56
   5   5  -8   -1.14    2.57
  -5   5   8   -1.55    3.34
   5  -5  -8    1.58    1.62
  -5  -5   8   -0.37    2.55
  -5  -5   8    2.35    4.55
  -5   5   7  386.72   11.01
   5   5  -7  476.30   22.11
  -5   5   7  478.64   41.52
   5  -5  -7  440.61   12.22
  -5  -5   7  470.13   21.93
  -5  -5   7  476.36   23.50
   5   5  -6    8.13    3.65
  -5   5   6    7.17    5.29
  -5  -5   6   10.70    3.68
  -5  -5   6   11.62    4.14
   5  -5  -6    7.28    1.86
   5   5  -5  420.56   18.04
  -5   5   5  436.08   24.43
   5  -5  -5  420.74   10.83
   5  -5  -5  429.18   10.17
  -5  -5   5  427.53   18.49
  -5  -5   5  431.41   20.30
   5   5  -4   15.72    3.44
  -5   5   4   18.71    5.51
   5  -5  -4   14.89    1.15
  -5  -5   4   18.55    3.53
  -5  -5   4   17.31    4.25
   5  -5  -4   14.30    0.98
   5   5  -3  203.83    9.23
  -5   5   3  215.34   14.21
   5  -5  -3  197.18    4.52
   5  -5  -3  193.25    4.49
  -5  -5   3  208.19   14.83
  -5  -5   3  198.18   11.19
   5   5  -2  185.93    9.68
   5   5  -2  183.20   12.29
  -5   5   2  181.50   20.69
   5  -5  -2  170.60    3.90
  -5  -5   2  175.41   10.17
   5  -5  -2  161.10    3.80
   5   5  -1  793.07   29.57
   5   5  -1  787.11   26.33
  -5   5   1  811.16   34.92
   5  -5  -1  772.93   22.87
   5  -5  -1  787.84   34.73
   5  -5  -1  693.16   18.78
   5   5   0   69.57    6.28
   5   5   0   66.84    4.90
   5   5   0   66.09    7.86
  -5   5   0   67.50    8.45
   5  -5   0   63.75    3.23
   5  -5   0   60.91    5.47
   5  -5   0   66.79    8.56
   5   5   1 1414.46   56.88
   5   5   1 1385.52   53.87
   5   5   1 1380.08   55.70
  -5   5  -1 1389.97   58.65
   5  -5   1 1274.79   43.95
   5  -5   1 1323.49   74.44
   5   5   2   49.78    4.46
   5   5   2   61.14    9.78
   5   5   2   51.13    7.10
   5  -5   2   40.63    6.95
   5  -5   2   30.88   13.66
   5   5   3  406.24   15.57
   5   5   3  423.32   15.69
  -5   5  -3  412.02   21.89
   5   5   3  424.25   28.13
   5  -5   3  415.08   16.96
   5  -5   3  400.40   34.93
   5   5   4   45.65    7.44
   5   5   4   39.36   10.33
   5   5   4   37.06    7.24
  -5   5  -4   33.86    8.36
   5  -5   4   34.80    8.09
   5  -5   4   40.67    8.97
   5   5   5  576.80   38.37
  -5   5  -5  553.84   24.70
   5   5   5  559.97   22.13
   5  -5   5  601.47   32.65
   5  -5   5  597.55   25.73
   5   5   6    4.45    4.77
  -5   5  -6    8.39    7.09
   5   5   6    9.80    3.37
   5  -5   6   10.06    7.05
   5  -5   6    7.74   10.07
   5   5   7  319.45   17.19
  -5   5  -7  318.81   29.74
   5  -5   7  349.38   20.38
   5  -5   7  341.46   25.31
   5   5   8   22.58    6.29
  -5   5  -8   22.16    7.45
   5  -5   8   34.86    9.39
   5  -5   8   24.20   11.94
   5   6  -9    0.03    3.46
  -5   6   9    2.76    4.68
  -5  -6   9   -0.16    6.27
  -5  -6   9   -0.14    3.11
   5   6  -8  543.48   28.45
  -5   6   8  554.33   37.16
  -5  -6   8  497.06   26.18
  -5  -6   8  506.37   30.81
   5   6  -7    9.98    4.40
  -5   6   7    9.43    6.91
  -5  -6   7   11.56    4.16
  -5  -6   7   -0.13    5.37
   5   6  -6  672.33   38.22
  -5   6   6  680.12   55.92
  -5  -6   6  595.85   44.82
  -5  -6   6  590.80   26.44
   5   6  -5   20.25    6.94
  -5   6   5   21.03    7.60
  -5  -6   5   13.05    9.86
  -5  -6   5   19.62    4.19
   5   6  -4  435.90   23.62
  -5   6   4  438.64   26.40
  -5  -6   4  400.71   16.83
  -5  -6   4  395.54   31.38
   5   6  -3   22.75    6.21
  -5   6   3   28.72    7.69
  -5  -6   3   27.76    5.89
   5   6  -2  548.29   33.61
   5   6  -2  512.79   17.94
  -5   6   2  541.64   29.31
  -5  -6   2  503.91   23.81
   5   6  -1   14.36    4.26
   5   6  -1   10.77    2.51
  -5   6   1   11.19   10.31
   5   6   0  618.23   27.37
   5   6   0  591.99   24.59
   5   6   0  595.86   25.42
  -5   6   0  600.10   44.60
   5  -6   0  586.02   16.99
   5  -6   0  554.21   16.17
   5   6   1   73.61    4.87
   5   6   1   76.18    8.24
   5   6   1   71.98    7.42
  -5   6  -1   68.79   10.56
   5  -6   1   75.00    6.22
   5   6   2  884.29   36.01
   5   6   2  859.34   35.88
   5   6   2  867.28   38.63
   5  -6   2  841.02   35.71
   5  -6   2  931.72   63.77
   5   6   3   53.02    7.77
   5   6   3   57.84    4.56
   5   6   3   54.66    4.34
   5  -6   3   40.27    7.84
   5  -6   3   45.77   10.66
   5   6   4  206.63    9.71
   5   6   4  212.35   15.19
   5   6   4  208.39   13.77
  -5   6  -4  213.94   15.84
   5  -6   4  212.39   16.57
   5  -6   4  240.45   19.40
   5   6   5   16.09    3.44
   5   6   5   15.33    3.34
  -5   6  -5   18.21    4.16
   5  -6   5   16.24    4.20
   5  -6   5   17.61    7.71
   5   6   6  235.48   11.98
   5   6   6  223.00   11.88
  -5   6  -6  221.36   21.39
   5  -6   6  239.33   22.00
   5  -6   6  218.69   13.74
   5   7  -7   25.91   11.36
  -5   7   7   22.06   10.77
  -5  -7   7   -0.05    8.53
  -5  -7   7   38.30    5.66
   5   7  -6  335.05   17.48
  -5   7   6  332.32   28.83
  -5  -7   6  340.58   23.85
  -5  -7   6  316.02   16.60
   5   7  -5  197.00   11.25
  -5   7   5  192.81   33.79
  -5  -7   5  171.75   15.97
  -5  -7   5  174.45   16.06
   5   7  -4   16.96    5.65
  -5   7   4   12.52    7.71
  -5  -7   4   -0.29   10.18
   5   7  -3  209.75   14.14
  -5   7   3  206.03   20.22
  -5  -7   3  190.93   24.57
   5   7  -2   20.19    5.29
   5   7  -2   29.47    6.40
  -5   7   2   25.78    8.79
   5   7  -1  365.92   17.00
   5   7  -1  362.97   21.27
   5   7  -1  349.48   12.73
  -5   7   1  380.97   26.97
   5   7   0   18.83    6.05
  -5   7   0   20.12    7.99
   5  -7   0   20.62    8.28
   5   7   1  595.73   31.85
  -5   7  -1  624.28   38.17
   5  -7   1  629.39   39.28
   5   7   2   90.94   12.02
   5  -7   2  230.30   27.90
   5  -7   3  155.90   18.67
   5  -7   4    8.59    7.45
   6   0 -14  209.28   22.86
  -6   0  14  210.26   22.40
   6   0 -13    1.44    5.94
  -6   0  13    5.63    6.03
   6   0 -12 1495.06   93.64
  -6   0  12 1150.57   68.46
   6   0 -11  115.76   21.57
  -6   0  11  131.71   14.98
   6   0 -10  703.23   47.50
  -6   0  10  738.19   51.56
   6   0  -9    2.29    5.12
  -6   0   9   -3.27    3.29
   6   0  -8   97.14    8.40
  -6   0   8   98.25   15.08
   6   0  -7  433.98   18.14
  -6   0   7  430.36   18.94
   6   0  -6  409.70   23.42
  -6   0   6  421.94   17.02
   6   0  -5   97.74    6.49
  -6   0   5   98.77   11.18
   6   0  -4 1120.19   38.54
  -6   0   4 1107.43   38.75
   6   0  -3   29.68    4.15
  -6   0   3   40.46    4.38
   6   0  -2 1925.89   69.51
   6   0  -1  185.91    8.95
   6   0   0 1045.77   36.78
   6   0   0 1084.40   26.13
   6   0   1  520.01   11.88
   6   0   1  512.82   26.93
   6   0   2 1593.18   59.10
   6   0   3   54.23    9.60
  -6   0  -3   41.73    5.89
   6   0   4 1310.78   51.87
  -6   0  -4 1270.90   64.25
   6   0   5  254.93   15.49
  -6   0  -5  270.70   16.08
   6   0   6 1832.27   80.29
  -6   0  -6 1798.19   98.52
   6   0   7   57.29    9.05
  -6   0  -7   49.44    9.16
   6   0   8  257.28   20.48
  -6   0  -8  261.95   19.94
   6   0   9   82.01   13.45
  -6   0  -9   65.73   13.08
   6   0  10   99.70   28.98
  -6   0 -10  118.37   18.08
   6   1 -14    3.17    5.82
  -6   1  14   -1.04    4.95
  -6  -1  14    3.48    5.60
   6   1 -13  325.46   28.27
  -6   1  13  372.90   27.31
   6  -1 -13  330.63   26.13
  -6  -1  13  349.99   30.11
   6   1 -12  101.99   14.84
  -6   1  12  120.23   25.15
   6  -1 -12   95.98   13.05
  -6  -1  12  104.48   17.15
   6   1 -11  519.53   46.94
  -6   1  11  500.57   44.42
   6  -1 -11  481.12   26.46
  -6  -1  11  501.51   32.59
   6   1 -10    1.69    6.96
  -6   1  10    3.14    3.84
   6  -1 -10    3.61    3.48
  -6  -1  10    0.60    7.65
   6   1  -9  376.34   31.69
  -6   1   9  392.33   19.83
   6  -1  -9  413.14   19.30
  -6  -1   9  422.11   23.02
   6   1  -8   27.42    6.06
  -6   1   8   39.58    5.65
   6  -1  -8   35.16    5.18
  -6  -1   8   35.70   11.38
   6   1  -7  344.88   16.92
  -6   1   7  351.87   16.06
   6  -1  -7  422.04   16.27
  -6  -1   7  445.93   19.42
   6   1  -6   14.72    6.36
  -6   1   6   15.99    3.47
   6  -1  -6   15.25    3.17
  -6  -1   6   13.32    4.07
   6   1  -5 2283.93   87.93
  -6   1   5 2360.74   88.80
   6  -1  -5 2183.67   82.48
  -6  -1   5 2261.62   88.72
   6   1  -4  828.59   29.86
  -6   1   4  854.20   29.01
   6  -1  -4  830.26   27.87
  -6  -1   4  840.96   30.61
   6   1  -312277.44  770.54
  -6   1   312821.78  777.37
  -6  -1   312762.70  778.08
  -6  -1   312558.49  708.39
   6  -1  -312382.13  754.06
   6   1  -2  330.81   20.20
  -6   1   2  331.43    8.14
   6  -1  -2  351.70   18.31
   6   1  -1 2887.84  114.64
  -6   1   1 2958.21  106.86
   6  -1  -1 2967.24  126.93
   6  -1  -1 2876.25  112.82
   6   1   0  295.28   12.58
   6   1   0  277.84   12.17
   6  -1   0  305.20    9.75
   6  -1   0  292.61   17.18
   6   1   1 2951.77  117.61
   6  -1   1 2796.43  100.86
   6  -1   1 2840.89  124.21
   6   1   2   35.71    8.47
   6  -1   2   45.62    4.93
   6  -1   2   36.78    4.51
   6   1   3 1127.30   42.44
  -6   1  -3 1076.57   41.16
   6  -1   3 1097.42   35.48
   6  -1   3 1127.06   42.13
   6   1   4  339.48   25.14
  -6   1  -4  342.31   16.82
   6  -1   4  320.02   24.58
  -6  -1  -4  304.66   16.20
   6   1   5  245.30   15.87
  -6   1  -5  259.60   26.27
   6  -1   5  346.95   17.66
  -6  -1  -5  332.43   17.23
   6   1   6  865.10   38.66
  -6   1  -6  860.17   39.49
   6  -1   6  858.02   38.95
  -6  -1  -6  853.24   38.69
  -6   1  -7  223.52   17.76
   6   1   7  236.40   17.04
  -6  -1  -7  252.42   17.55
   6  -1   7  244.02   29.06
   6   1   8   55.50   10.30
  -6   1  -8   67.11   10.92
   6  -1   8   61.79   18.79
  -6  -1  -8   58.16   10.51
   6   1   9  179.25   28.82
  -6   1  -9  141.97   17.95
   6  -1   9  144.82   18.34
  -6  -1  -9  116.36   27.51
   6   1  10   36.30   21.01
  -6   1 -10   38.07   12.94
   6  -1  10   37.46   12.29
  -6  -1 -10   31.52   20.25
   6   2 -13    8.97    9.51
  -6   2  13   24.19    8.21
   6  -2 -13   21.89   11.99
  -6  -2  13   20.61    9.97
   6   2 -12  233.56   24.15
  -6   2  12  283.67   22.32
   6  -2 -12  309.18   32.82
  -6  -2  12  343.11   46.80
   6   2 -11  175.27   23.75
  -6   2  11   76.91   10.82
   6  -2 -11   64.26   17.53
  -6  -2  11  147.51   25.63
   6   2 -10  221.67   28.36
  -6   2  10  232.26   23.18
   6  -2 -10  215.45   21.36
  -6  -2  10  250.13   19.31
   6   2  -9    7.50    8.16
  -6   2   9    7.67    3.79
   6  -2  -9    6.83    5.91
  -6  -2   9   11.43    5.18
   6   2  -8  901.34   49.93
  -6   2   8  898.51   42.90
   6  -2  -8  767.96   29.73
  -6  -2   8  818.21   37.24
   6   2  -7    0.32    2.27
  -6   2   7   -0.41    2.94
   6  -2  -7    0.22    1.57
  -6  -2   7   -5.42    4.15
  -6   2   6 1278.97   45.05
   6   2  -6 1253.95   47.92
  -6  -2   6 1262.48   49.17
   6  -2  -6 1230.83   42.65
   6   2  -5   54.34    9.35
  -6   2   5   47.36    4.23
   6  -2  -5   42.51    6.49
  -6  -2   5   46.33    5.86
  -6  -2   5   47.08    3.16
   6   2  -4 2761.52  112.33
  -6   2   4 2809.32  109.84
  -6   2   4 2837.13  111.09
  -6  -2   4 2784.55  113.63
   6  -2  -4 2758.78  106.74
  -6  -2   4 2826.94  106.59
   6   2  -3 2137.09   82.16
  -6   2   3 2107.43   76.31
  -6  -2   3 2160.34   72.99
  -6  -2   3 2161.97   83.14
   6  -2  -3 2097.71   75.73
   6   2  -2 4989.61  243.55
  -6   2   2 4748.68  213.34
   6  -2  -2 4844.72  230.11
  -6  -2   2 5224.97  215.65
   6   2  -1  445.39    9.45
   6   2  -1  419.47   16.64
  -6   2   1  415.06   12.59
   6  -2  -1  448.22   15.30
   6  -2  -1  445.05   13.17
   6  -2  -1  458.64   15.35
   6   2   0 2530.39   98.58
   6   2   0 2476.17   96.58
   6   2   0 2496.81   82.87
   6  -2   0 2442.08   89.52
   6  -2   0 2487.18   94.23
   6   2   1  270.80    8.91
   6   2   1  208.69   11.35
   6   2   1  277.84   17.62
   6  -2   1  243.60    8.80
   6  -2   1  252.69   10.51
   6   2   2 1033.30   37.70
   6  -2   2 1003.18   33.46
   6  -2   2  993.97   35.82
   6   2   3  184.86   10.79
  -6   2  -3  188.98   16.71
   6  -2   3  166.04   12.83
   6  -2   3  179.51   16.58
  -6   2  -4  325.95   16.85
   6   2   4  332.86   16.44
   6  -2   4  360.56   25.15
   6  -2   4  330.88   20.05
   6   2   5  229.22   22.45
  -6   2  -5  234.85   14.66
   6  -2   5  263.40   23.53
   6  -2   5  244.07   12.49
   6   2   6   78.09   17.12
  -6   2  -6   74.52   11.12
   6  -2   6  129.08    9.36
   6  -2   6  131.59   18.72
  -6  -2  -6  124.53   10.88
   6   2   7  123.33   11.91
  -6   2  -7  110.38   13.11
   6  -2   7  125.89   10.86
  -6  -2  -7  122.36   12.27
   6  -2   7  121.95   13.14
  -6   2  -8  284.67   35.79
   6   2   8  300.54   33.14
   6  -2   8  295.55   19.28
  -6  -2  -8  287.42   32.23
   6  -2   8  309.89   24.05
   6   2   9   38.13   16.61
  -6   2  -9   45.41   18.22
   6  -2   9   39.72   10.84
  -6  -2  -9   39.95    9.21
   6  -2   9   21.57    8.83
   6   2  10  858.69   77.70
  -6   2 -10  841.93   85.97
   6  -2  10  995.69   87.85
  -6  -2 -10  790.55   49.77
   6   3 -13  126.52   18.10
  -6   3  13  226.95   24.45
   6  -3 -13   69.84   10.72
  -6  -3  13   92.29   19.87
   6   3 -12  143.35   26.60
  -6   3  12   91.03   19.12
   6  -3 -12   72.17   16.13
  -6  -3  12   76.39   16.97
   6   3 -11   66.73   13.52
  -6   3  11   81.85    9.87
   6  -3 -11  128.66   16.29
  -6  -3  11  125.77   15.10
   6   3 -10   25.64    6.91
  -6   3  10   20.37    4.74
   6  -3 -10   25.72    8.16
  -6  -3  10   -0.02    7.38
   6   3  -9  628.17   31.32
  -6   3   9  626.20   25.23
   6  -3  -9  590.15   31.90
  -6  -3   9  629.57   47.81
   6   3  -8  384.87   20.59
  -6   3   8  380.34   15.78
   6  -3  -8  379.90   21.32
  -6  -3   8  385.28   21.95
  -6  -3   8  385.77   17.36
   6   3  -7  838.95   36.14
  -6   3   7  880.44   31.15
   6  -3  -7  887.17   30.30
  -6  -3   7  932.01   39.48
  -6  -3   7  912.98   42.19
  -6   3   6   22.87    3.13
   6   3  -6   20.88    8.37
  -6   3   6   17.54    4.66
  -6  -3   6   23.19    3.54
   6  -3  -6   22.82    2.92
  -6  -3   6   18.25    8.95
  -6   3   5  885.08   28.92
   6   3  -5  864.48   33.29
  -6   3   5  871.83   33.24
  -6  -3   5  878.33   34.35
   6  -3  -5  860.60   32.70
  -6  -3   5  881.64   28.98
   6   3  -4  100.55    7.09
  -6   3   4   95.52   10.87
  -6  -3   4   90.44    7.44
  -6  -3   4   95.05    4.79
   6  -3  -4   88.32    4.54
   6   3  -3  869.01   31.14
  -6   3   3  843.36   29.56
  -6  -3   3  800.33   39.19
  -6  -3   3  835.09   29.74
   6  -3  -3  797.73   29.92
   6   3  -2  115.07   12.04
  -6   3   2  115.52    6.70
   6  -3  -2  114.63    5.35
  -6  -3   2  114.12    6.64
   6  -3  -2  120.59    5.29
   6   3  -1 1722.80   59.04
   6   3  -1 1639.45   61.00
  -6   3   1 1639.24   59.04
   6  -3  -1 1623.28   55.67
   6  -3  -1 1703.38   69.74
   6  -3  -1 1628.32   63.17
   6   3   0  142.98    8.05
   6   3   0  138.08    8.05
   6   3   0  141.60    7.56
  -6   3   0  138.20   11.04
   6  -3   0  129.53    7.41
   6  -3   0  132.17    6.42
   6   3   1 1702.09   65.02
   6   3   1 1686.32   57.27
   6   3   1 1761.69   77.35
   6  -3   1 1689.62   63.84
   6  -3   1 1721.89   62.11
   6   3   2  212.44   11.51
   6   3   2  230.53   11.45
   6   3   2  231.48   12.22
   6  -3   2  210.56   15.65
   6  -3   2  218.41   16.72
   6   3   3  497.39   16.93
  -6   3  -3  497.68   28.26
   6   3   3  514.05   20.67
   6  -3   3  432.50   19.03
   6  -3   3  453.17   19.00
  -6   3  -4   87.76    8.02
   6   3   4   86.73    7.77
   6  -3   4   81.22    7.79
   6  -3   4   84.41    7.70
   6   3   5  146.22   16.30
  -6   3  -5  112.76   17.58
   6  -3   5  135.80   16.65
   6  -3   5  132.26   17.76
   6   3   6  315.88   17.67
  -6   3  -6  312.65   19.22
   6  -3   6  310.56   19.76
   6  -3   6  306.05   18.07
   6   3   7  455.65   23.89
  -6   3  -7  427.17   25.94
   6  -3   7  416.11   27.47
   6  -3   7  432.27   35.86
   6   3   8   69.28   11.15
  -6   3  -8   82.36   21.20
   6  -3   8   98.38   13.28
   6  -3   8   92.98   11.20
   6   3   9  229.67   20.36
  -6   3  -9  200.33   36.80
   6  -3   9  248.90   20.08
   6  -3   9  257.28   39.82
  -6  -3  -9  217.65   18.79
   6   4 -12  525.98   37.70
  -6   4  12  535.71   38.51
   6  -4 -12  463.27   22.59
  -6  -4  12  511.29   49.89
  -6  -4  12  545.23   40.06
   6   4 -11   29.15    8.97
  -6   4  11   30.89    5.24
   6  -4 -11   28.81    4.73
  -6  -4  11    0.45    7.60
  -6  -4  11    0.36   15.94
   6   4 -10  447.43   27.02
  -6   4  10  420.40   25.61
   6  -4 -10  374.67   17.62
  -6  -4  10  419.80   23.62
  -6  -4  10  440.91   28.52
   6   4  -9   19.09    6.44
  -6   4   9   21.14    5.89
   6  -4  -9   22.43    3.55
  -6  -4   9   -0.07    6.75
  -6  -4   9   16.80    9.06
  -6   4   8  152.58   13.98
   6   4  -8  138.12   21.44
  -6   4   8  151.11   11.63
   6  -4  -8  165.41    7.94
  -6  -4   8  169.34   11.43
  -6  -4   8  164.89   13.73
  -6   4   7  155.82   21.19
   6   4  -7  156.54   18.80
  -6   4   7  159.34    6.92
   6  -4  -7  152.80   10.03
  -6  -4   7  155.85   12.22
  -6  -4   7  161.08   10.52
  -6   4   6  726.28   45.18
   6   4  -6  693.05   29.64
  -6  -4   6  729.78   28.38
   6  -4  -6  733.36   22.11
  -6  -4   6  747.99   31.75
   6   4  -5   55.28    6.26
  -6   4   5   43.43   12.23
   6  -4  -5   54.04    3.14
  -6  -4   5   60.92    5.44
  -6  -4   5   61.80    6.74
   6   4  -4  408.07   17.86
  -6   4   4  427.28   19.92
   6  -4  -4  452.97   15.98
  -6  -4   4  453.89   16.61
  -6  -4   4  454.12   26.94
   6   4  -3  188.69   16.24
  -6   4   3  193.78   11.43
   6  -4  -3  199.27    6.42
  -6  -4   3  196.87   10.81
  -6  -4   3  195.73    8.66
   6  -4  -3  196.68    6.42
   6   4  -2  506.15   20.33
   6   4  -2  528.94   17.79
  -6   4   2  506.65   22.08
   6  -4  -2  591.74   17.02
  -6  -4   2  580.09   19.08
   6  -4  -2  593.28   16.79
   6   4  -1    7.58    4.86
   6   4  -1    7.27    2.09
  -6   4   1    7.88    3.31
   6  -4  -1    6.48    2.98
   6  -4  -1    9.36    3.35
   6  -4  -1    6.37    3.18
   6   4   0 1056.90   39.14
   6   4   0 1069.41   39.59
   6   4   0 1072.82   36.82
  -6   4   0 1086.49   41.74
   6  -4   0 1122.01   43.98
   6  -4   0 1128.07   36.35
   6   4   1  734.20   25.24
   6   4   1  754.19   28.07
   6   4   1  744.16   35.99
   6  -4   1  738.08   30.62
   6  -4   1  707.40   30.65
   6   4   2  165.52    9.39
   6   4   2  160.21   14.33
   6   4   2  156.23   12.56
   6  -4   2  160.80   11.07
   6  -4   2  168.63   12.96
   6   4   3    7.59    3.14
   6   4   3    5.25    2.69
   6   4   3    6.28    3.05
  -6   4  -3    5.03    2.98
   6  -4   3   11.64    6.52
   6  -4   3    8.12    2.95
   6   4   4  489.98   29.02
   6   4   4  496.95   20.10
  -6   4  -4  480.78   21.27
   6  -4   4  452.50   23.45
   6  -4   4  453.43   20.73
   6   4   5   12.62    4.25
   6   4   5   14.04    4.03
  -6   4  -5   12.18    8.08
   6  -4   5   16.73    5.10
   6  -4   5   14.24    5.40
  -6   4  -6  321.12   18.91
   6   4   6  335.58   17.45
   6  -4   6  253.04   28.77
   6  -4   6  262.08   30.10
  -6   4  -7   83.64   11.14
   6   4   7   84.19    9.53
   6  -4   7   92.62   11.73
   6  -4   7   87.77   12.19
  -6   4  -8  236.70   19.79
   6   4   8  237.96   17.24
   6  -4   8  244.84   20.56
   6  -4   8  210.90   20.28
   6   5 -11  128.17   29.44
  -6   5  11   87.33   17.95
  -6  -5  11  126.48   23.45
  -6  -5  11  115.75   16.24
   6   5 -10    0.15    6.20
  -6   5  10   17.22    7.28
   6  -5 -10   18.04    4.32
  -6  -5  10   -0.10    5.80
  -6  -5  10   -0.53   10.78
  -6   5   9  357.98   25.75
   6   5  -9  343.83   21.72
  -6   5   9  319.89   16.11
   6  -5  -9  289.06   15.49
  -6  -5   9  331.28   21.88
  -6  -5   9  324.19   20.63
  -6   5   8   70.37   10.75
   6   5  -8   56.83    8.52
  -6   5   8   58.43    3.68
   6  -5  -8   53.00    5.87
  -6  -5   8   58.94    8.31
  -6  -5   8   -0.18   14.40
   6   5  -7  273.39   15.76
  -6   5   7  290.98   19.31
   6  -5  -7  218.61   11.17
  -6  -5   7  256.69   15.83
  -6  -5   7  244.16   23.56
   6   5  -6   67.30    7.42
  -6   5   6   75.74   10.17
  -6  -5   6   66.20   12.52
  -6  -5   6   75.42    7.86
   6  -5  -6   66.79    4.77
   6   5  -5  419.35   18.59
  -6   5   5  419.48   23.19
   6  -5  -5  392.04   12.15
  -6  -5   5  418.04   19.04
  -6  -5   5  407.73   18.80
   6  -5  -5  413.90   12.71
   6   5  -4  115.40    8.00
  -6   5   4  107.74   10.90
   6  -5  -4  108.58    4.69
   6  -5  -4  111.90    3.30
  -6  -5   4  119.05    8.31
  -6  -5   4  124.04    8.41
   6   5  -3  588.10   22.78
  -6   5   3  610.10   28.64
   6  -5  -3  584.01   17.38
  -6  -5   3  613.31   31.68
   6  -5  -3  571.62   17.05
   6   5  -2  144.66    8.35
   6   5  -2  146.96   13.30
  -6   5   2  147.29   11.90
   6  -5  -2  150.40    4.80
  -6  -5   2  149.87    8.67
   6  -5  -2  145.55    4.49
   6   5  -1  758.65   27.56
   6   5  -1  731.43   27.38
  -6   5   1  754.40   44.75
   6  -5  -1  728.89   21.39
   6  -5  -1  756.28   33.63
   6  -5  -1  742.55   21.28
   6   5   0   42.90    4.95
   6   5   0   46.81    7.91
   6   5   0   45.05    4.82
  -6   5   0   45.36    6.84
   6  -5   0   46.14    7.27
   6  -5   0   40.42    3.15
   6  -5   0   40.38    3.30
   6   5   1  233.88   10.69
   6   5   1  236.90   15.63
   6   5   1  230.42   11.36
  -6   5  -1  238.50   14.62
   6  -5   1  206.84    8.65
   6  -5   1  206.28   15.02
   6   5   2  202.48   11.07
   6   5   2  205.86   10.44
   6   5   2  214.21   10.37
   6  -5   2  207.21   14.95
   6  -5   2  207.02   15.47
   6   5   3  388.06   16.53
   6   5   3  384.63   17.69
   6   5   3  397.41   16.42
   6  -5   3  389.69   22.73
   6  -5   3  394.99   17.61
   6   5   4   15.58    3.83
   6   5   4   14.46    3.93
   6   5   4   13.07    4.48
  -6   5  -4   17.07    4.08
   6  -5   4   16.92    4.37
   6  -5   4   14.76    5.93
   6   5   5  407.57   19.10
   6   5   5  392.92   25.96
   6   5   5  393.42   20.43
  -6   5  -5  386.07   19.87
   6  -5   5  427.22   21.81
   6  -5   5  393.94   38.05
   6   5   6   18.06    7.64
  -6   5  -6   18.38    5.36
   6  -5   6    7.53    7.11
   6  -5   6   16.92    5.53
  -6   5  -7  199.25   25.67
   6   5   7  215.89   21.95
   6  -5   7  196.77   31.46
   6  -5   7  196.10   25.22
   6   6  -9    0.31    6.91
  -6   6   9   39.31    9.47
  -6  -6   9   40.18    6.85
  -6  -6   9    0.17    7.33
   6   6  -8    0.07    5.66
  -6   6   8   34.04    8.21
  -6  -6   8    0.07   10.19
  -6  -6   8   18.93    5.52
   6   6  -7   92.76    9.62
  -6   6   7   79.00   14.12
  -6  -6   7   87.89   10.47
  -6  -6   7   92.40    9.50
   6   6  -6  310.04   24.93
  -6   6   6  320.91   23.84
  -6  -6   6  306.81   18.79
  -6  -6   6  302.64   16.79
   6   6  -5    7.33    6.28
  -6   6   5    9.64    6.12
  -6  -6   5   11.38    4.60
  -6  -6   5    9.95    3.81
   6   6  -4  298.20   21.27
  -6   6   4  310.45   22.22
  -6  -6   4  322.60   15.30
  -6  -6   4  330.76   17.55
   6   6  -3   56.52    5.56
  -6   6   3   57.44    9.95
  -6  -6   3   65.01   11.84
   6   6  -2  671.58   28.62
   6   6  -2  663.41   24.93
  -6   6   2  689.21   35.54
   6   6  -1   10.26    6.31
   6   6  -1   11.62    2.91
   6   6  -1   14.51    2.81
  -6   6   1   10.52    5.41
   6  -6  -1    9.50    1.38
   6  -6  -1    7.63    1.82
   6   6   0  542.05   19.71
   6   6   0  553.97   32.62
   6   6   0  529.10   25.57
  -6   6   0  544.39   28.56
   6  -6   0  502.86   14.57
   6  -6   0  455.33   15.15
   6   6   1   10.94    4.50
   6   6   1    8.27    3.68
   6   6   1    6.88    4.39
  -6   6  -1   11.58    5.12
   6  -6   1    6.81    2.19
   6  -6   1   12.80    9.14
   6  -6   1    4.89    1.89
   6   6   2   40.98    4.37
   6   6   2   42.33    4.25
   6   6   2   46.01    6.04
   6  -6   2   17.43    3.84
   6  -6   2   21.20    8.36
   6   6   3  116.58   10.95
   6   6   3  103.45    9.75
   6   6   3  103.23    7.26
   6  -6   3  100.96   11.17
   6  -6   3  100.72   13.51
   6   6   4  160.25    9.41
   6   6   4  160.66    9.01
   6  -6   4  155.45   10.05
   6  -6   4  156.83   16.70
   6   6   5   20.58    4.15
   6   6   5   20.12    6.81
  -6   6  -5   18.65    4.73
   6  -6   5   15.53    4.82
   6  -6   5   16.22   13.70
   6   7  -7  393.60   30.99
  -6   7   7  396.09   48.64
  -6  -7   7  324.91   37.26
  -6  -7   7  301.65   18.63
   6   7  -6   34.10    6.31
  -6   7   6   38.92   11.52
  -6  -7   6    0.01   14.73
  -6  -7   6   43.58    6.27
   6   7  -5  268.78   14.07
  -6   7   5  258.26   24.44
  -6  -7   5  263.43   18.61
  -6  -7   5  247.28   13.95
   6   7  -4    0.73    1.95
  -6   7   4    0.82    4.25
  -6  -7   4   -0.08    3.08
   6   7  -3  147.01    8.42
   6   7  -2    6.42    4.16
   6   7  -2    7.05    2.56
   6   7  -2    5.65    2.60
   6   7  -1  169.96   12.36
   6   7  -1  158.81   12.49
   6   7  -1  151.83    7.86
   6   7   0   46.06    4.39
   6   7   0   53.40    7.57
   6   7   0   46.05    4.39
   6  -7   0   44.15   10.80
   6   7   1  236.46   14.71
  -6   7  -1  100.22   18.36
   6  -7   1  225.53   32.66
   6   7   2   78.72    9.27
   6  -7   2   47.73   13.68
   6  -7   3   34.90   10.60
   7   0 -13  202.52   38.08
  -7   0  13  242.02   25.99
   7   0 -12  115.34   24.35
  -7   0  12  107.09   16.52
   7   0 -11   12.02    5.95
  -7   0  11   17.03   11.89
   7   0 -10  671.63   32.93
  -7   0  10  721.80   36.69
   7   0  -9   78.02   14.10
  -7   0   9   67.54    9.30
   7   0  -8  174.41   11.80
  -7   0   8  171.73   12.52
   7   0  -7   35.71    5.42
  -7   0   7   31.53    5.99
  -7   0   6  580.91   23.73
   7   0  -5   82.14    6.79
  -7   0   5   83.96    7.08
   7   0  -4 2191.98   85.05
  -7   0   4 2206.01   98.14
   7   0  -3   61.32    9.55
  -7   0   3   59.73    1.83
   7   0  -2 1559.43   57.12
   7   0  -1  128.60    8.22
   7   0   0 1971.70   78.22
   7   0   0 2105.22   82.84
   7   0   0 2327.91   65.74
   7   0   1  645.06   15.29
   7   0   1  650.54   34.12
   7   0   2  608.28   16.06
   7   0   2  625.99   25.33
   7   0   3   23.25    9.38
   7   0   4  544.42   25.55
   7   0   5   29.23    6.82
  -7   0  -5   27.67    7.01
   7   0   6  417.44   24.44
  -7   0  -6  412.19   37.08
   7   0   7    3.64    4.47
  -7   0  -7    1.50    4.52
   7   0   8  241.28   21.14
  -7   0  -8  241.33   21.16
   7   0   9   66.81   24.56
  -7   0  -9   70.17   13.84
   7   1 -13  226.88   24.35
  -7   1  13  256.35   24.80
   7  -1 -13  213.53   20.68
  -7  -1  13  253.90   27.48
   7   1 -12   31.98   16.38
  -7   1  12   30.74   15.77
   7  -1 -12   25.55    7.94
  -7  -1  12   28.25   10.45
   7   1 -11  560.33   49.79
  -7   1  11  610.85   33.86
   7  -1 -11  575.78   30.52
  -7  -1  11  612.93   54.85
   7   1 -10   20.21   11.13
  -7   1  10   21.02    6.26
   7  -1 -10   18.91    5.58
  -7  -1  10   20.84    7.29
   7   1  -9  800.93   50.63
  -7   1   9  814.04   36.17
   7  -1  -9  826.60   34.59
  -7  -1   9  838.39   39.99
   7   1  -8   73.85    8.47
  -7   1   8   68.21   12.70
   7  -1  -8   64.12   11.70
  -7  -1   8   68.97    8.93
   7   1  -7  429.73   19.64
  -7   1   7  420.95   18.92
   7  -1  -7  397.67   17.24
  -7  -1   7  410.70   20.69
   7   1  -6   70.34    7.18
  -7   1   6   73.10    6.50
   7  -1  -6   66.35   10.17
  -7  -1   6   73.41   12.65
   7   1  -5  623.05   24.59
  -7   1   5  617.30   31.36
   7  -1  -5  598.18   22.29
  -7  -1   5  600.78   24.59
   7   1  -4   98.26   12.50
  -7   1   4  107.91    7.04
  -7   1   4  106.54    5.96
  -7  -1   4   92.60    2.52
   7  -1  -4  109.60    6.88
  -7  -1   4  118.05    8.04
   7   1  -3  780.64   28.44
  -7   1   3  741.58   19.57
   7  -1  -3  681.38   24.94
   7   1  -2  342.94   14.96
  -7   1   2  340.09    9.70
   7  -1  -2  372.13   20.38
   7   1  -1 1446.01   53.64
   7  -1  -1 1436.42   52.40
   7  -1  -1 1463.25   52.75
   7   1   0   33.84    5.02
   7   1   0   33.56    8.25
   7  -1   0   30.25    2.82
   7  -1   0   32.45    4.53
   7   1   1  397.95   18.14
   7  -1   1  465.86   26.46
   7  -1   1  452.57   12.11
   7   1   2   85.95   12.42
   7  -1   2   73.05    7.29
   7  -1   2   75.28    3.83
   7   1   3  526.03   24.19
   7  -1   3  543.89   17.39
   7  -1   3  564.92   24.66
  -7   1  -4   30.35    6.13
   7   1   4   32.00    6.03
   7  -1   4   23.77    6.02
   7  -1   4   23.30    3.47
   7   1   5  761.72   47.93
  -7   1  -5  743.01   47.78
   7  -1   5  615.64   30.84
   7   1   6  103.45   20.17
  -7   1  -6  101.40   12.51
   7  -1   6  127.90   12.93
  -7  -1  -6  112.26   12.19
   7   1   7  368.40   36.16
  -7   1  -7  355.48   24.06
   7  -1   7  340.99   23.39
  -7  -1  -7  330.20   23.20
  -7   1  -8   50.78   11.27
   7   1   8   51.81   17.87
  -7  -1  -8   47.96   18.08
   7  -1   8   47.99   11.42
   7   1   9  273.76   25.48
  -7   1  -9  280.42   26.94
   7  -1   9  318.69   28.83
  -7  -1  -9  312.92   40.67
  -7   2  13   21.43    8.04
   7   2 -13    8.99    9.26
  -7  -2  13   14.96   10.15
   7  -2 -13    2.03   10.85
   7   2 -12  234.84   36.26
  -7   2  12  217.31   18.50
   7  -2 -12  159.94   27.77
  -7  -2  12  171.21   38.59
   7   2 -11  102.28   23.38
  -7   2  11  113.97   11.57
   7  -2 -11   94.35   17.36
  -7  -2  11  120.92   26.11
   7   2 -10  411.18   25.24
  -7   2  10  444.76   22.55
   7  -2 -10  430.15   30.68
  -7  -2  10  453.31   28.62
   7   2  -9    4.99    3.67
  -7   2   9    1.58    2.91
   7  -2  -9   -0.21    4.71
  -7  -2   9    0.30    7.15
   7   2  -8  250.72   27.33
  -7   2   8  278.09   15.16
   7  -2  -8  345.70   15.10
  -7  -2   8  373.08   20.36
   7   2  -7   35.62    6.73
  -7   2   7   46.67    5.32
   7  -2  -7   43.85    4.92
  -7  -2   7   41.84    7.28
   7   2  -6  580.47   25.22
  -7   2   6  588.14   22.20
  -7  -2   6  619.56   18.95
  -7  -2   6  603.90   38.26
   7  -2  -6  573.17   21.54
   7   2  -5    5.57    3.15
  -7   2   5    5.40    2.55
  -7   2   5    4.01    3.51
  -7  -2   5    3.46    2.29
   7  -2  -5    5.86    2.35
  -7  -2   5    3.42    3.40
   7   2  -4 3882.60  171.98
  -7   2   4 3738.27  168.57
  -7  -2   4 3830.81  171.49
  -7  -2   4 3775.93  151.82
   7  -2  -4 3708.91  172.27
   7   2  -3  531.05   21.96
  -7   2   3  497.64   15.79
  -7  -2   3  541.43   12.35
  -7  -2   3  568.86   22.87
   7  -2  -3  538.94   25.80
   7   2  -2 1538.77   57.84
  -7   2   2 1478.57   53.82
   7  -2  -2 1521.11   53.84
   7  -2  -2 1481.67   61.70
   7   2  -1  131.82   14.10
  -7   2   1  120.60    7.41
   7  -2  -1  136.96   11.97
   7  -2  -1  134.58    5.20
   7  -2  -1  127.83   11.99
   7   2   0 1475.16   56.74
   7   2   0 1493.11   42.16
   7   2   0 1470.41   56.56
   7  -2   0 1436.64   47.55
   7  -2   0 1509.20   54.95
   7   2   1   89.95    7.92
   7   2   1   88.75    2.85
   7   2   1   93.32    7.79
   7  -2   1   80.93    7.49
   7  -2   1   77.27   11.43
   7   2   2  799.52   32.31
   7  -2   2  794.31   30.95
   7  -2   2  809.99   33.40
   7   2   3  214.75   12.89
   7  -2   3  185.16    9.05
   7  -2   3  203.48   12.34
   7   2   4  322.38   17.73
  -7   2  -4  315.21   17.80
   7  -2   4  322.38   17.38
   7  -2   4  311.20   13.58
   7   2   5  921.65   40.87
  -7   2  -5  885.30   55.96
   7  -2   5  896.79   40.64
   7  -2   5  833.57   43.33
   7   2   6  619.40   30.05
  -7   2  -6  605.09   31.51
   7  -2   6  561.44   30.09
   7  -2   6  522.68   24.45
   7   2   7  188.36   25.91
  -7   2  -7  172.99   17.10
   7  -2   7  184.65   20.45
   7  -2   7  178.86   17.30
   7   2   8  154.73   15.85
  -7   2  -8  157.22   28.40
   7  -2   8  134.11   18.13
   7  -2   8  143.07   13.14
  -7  -2  -8  145.08   15.41
   7   2   9   56.58   11.72
  -7   2  -9   29.65   23.07
   7  -2   9   34.94   24.80
  -7  -2  -9   40.95   11.54
   7  -2   9   56.24    9.98
   7   3 -12  275.10   25.39
  -7   3  12  324.02   20.50
   7  -3 -12  246.65   26.99
  -7  -3  12  311.91   28.94
   7   3 -11  314.37   24.13
  -7   3  11  317.45   18.65
   7  -3 -11  308.07   28.33
  -7  -3  11  309.13   26.24
   7   3 -10   54.63    9.29
  -7   3  10   45.26   10.84
   7  -3 -10   23.97   10.07
  -7  -3  10   55.99   10.07
   7   3  -9  185.58   15.46
  -7   3   9  185.19   11.23
   7  -3  -9  189.28   16.81
  -7  -3   9  200.12   12.04
  -7  -3   9  196.92   17.05
   7   3  -8  308.53   18.98
  -7   3   8  306.85   14.07
   7  -3  -8  303.13   13.35
  -7  -3   8  328.66   20.07
  -7  -3   8  319.20   21.15
  -7   3   7  957.71   35.14
   7   3  -7  942.80   40.97
  -7   3   7  955.57   39.54
   7  -3  -7  941.94   40.75
  -7  -3   7 1002.50   43.77
  -7  -3   7  957.45   42.41
   7   3  -6   78.33   13.88
  -7   3   6   95.36    9.58
  -7   3   6   91.56    7.46
  -7  -3   6   76.98    8.96
   7  -3  -6   75.17    5.29
  -7  -3   6   74.98    8.63
   7   3  -5  853.29   34.82
  -7   3   5  878.92   33.17
  -7  -3   5  889.48   34.10
  -7  -3   5  908.17   36.88
   7  -3  -5  859.53   28.89
   7   3  -4  381.86   17.60
  -7   3   4  369.17   21.40
  -7  -3   4  378.45   18.27
  -7  -3   4  381.98   15.41
   7  -3  -4  372.15   13.31
   7   3  -3 1378.32   66.25
  -7   3   3 1407.49   59.73
   7  -3  -3 1382.16   48.16
  -7  -3   3 1456.29   49.51
   7  -3  -3 1412.05   48.84
  -7   3   2  165.19   12.34
   7   3  -2  163.41   10.22
   7  -3  -2  167.79   11.78
   7  -3  -2  165.79    7.68
   7   3  -1  614.44   18.55
   7   3  -1  582.63   23.78
  -7   3   1  595.18   26.67
   7  -3  -1  565.45   19.81
   7  -3  -1  583.96   20.54
   7  -3  -1  555.98   20.03
   7   3   0  387.56   17.67
   7   3   0  396.41   13.69
   7   3   0  387.73   17.54
   7  -3   0  367.59   20.77
   7  -3   0  361.40   14.49
   7   3   1  943.93   36.55
   7   3   1  918.48   30.99
   7   3   1  938.25   35.80
   7  -3   1  750.44   37.13
   7  -3   1  755.46   29.34
   7   3   2    3.03    3.42
   7   3   2    7.63    2.89
   7   3   2    5.97    3.26
   7  -3   2    3.75    2.68
   7  -3   2    4.46    2.91
   7   3   3  557.72   24.01
   7   3   3  547.95   23.54
   7  -3   3  491.63   21.09
   7  -3   3  487.32   21.57
   7   3   4   46.55    6.77
  -7   3  -4   41.15    6.74
   7  -3   4   39.91    6.66
   7  -3   4   39.94    5.93
   7   3   5  609.96   28.43
  -7   3  -5  596.48   41.24
   7  -3   5  551.43   27.60
   7  -3   5  550.65   25.77
  -7   3  -6   83.89   11.50
   7   3   6   94.34   17.74
   7  -3   6  108.72   11.82
   7  -3   6  112.45   16.31
   7   3   7  293.89   30.31
  -7   3  -7  279.75   21.01
   7  -3   7  256.57   18.07
   7  -3   7  267.92   22.14
  -7   3  -8   42.46   17.66
   7   3   8   40.50   15.24
   7  -3   8   37.97    8.51
   7  -3   8   27.04   19.73
   7   4 -12  155.93   19.94
  -7   4  12  147.98   12.78
   7  -4 -12  148.31   11.60
  -7  -4  12  172.14   16.58
  -7  -4  12  181.71   21.86
   7   4 -11   49.87   10.05
  -7   4  11   46.49    9.49
   7  -4 -11   41.40    5.76
  -7  -4  11   -0.50   17.82
  -7  -4  11   -0.23    7.75
   7   4 -10  330.09   38.00
  -7   4  10  329.43   15.94
  -7  -4  10  366.20   25.40
  -7  -4  10  352.23   29.60
   7  -4 -10  324.31   16.04
  -7   4   9   17.07    3.47
   7   4  -9   12.31   10.76
  -7   4   9   15.72    6.35
   7  -4  -9   15.78    3.35
  -7  -4   9   -0.18    6.61
  -7  -4   9   15.87    4.83
  -7   4   8 1453.69   82.76
   7   4  -8 1357.21   78.69
  -7   4   8 1365.66   51.69
   7  -4  -8 1330.35   57.19
  -7  -4   8 1357.74   56.26
  -7  -4   8 1370.41   63.96
  -7   4   7   44.99    4.16
   7   4  -7   38.86   12.55
  -7   4   7   48.62    7.55
   7  -4  -7   41.55    3.81
  -7  -4   7   39.31    9.22
  -7  -4   7   32.31   13.20
   7   4  -6  679.52   41.49
  -7   4   6  685.08   30.84
  -7  -4   6  707.40   43.58
  -7  -4   6  685.29   26.08
   7  -4  -6  676.04   27.23
   7   4  -5   48.82    6.52
  -7   4   5   48.86   11.25
  -7  -4   5   47.47    4.59
  -7  -4   5   36.69   11.41
   7  -4  -5   48.31    5.66
   7   4  -4  396.12   18.87
  -7   4   4  393.58   19.15
   7  -4  -4  455.14   14.09
  -7  -4   4  470.15   16.20
  -7  -4   4  471.64   30.36
   7  -4  -4  458.39   18.54
   7   4  -3   68.05    6.76
  -7   4   3   72.01    6.78
   7  -4  -3   64.43    4.08
  -7  -4   3   65.55    4.47
   7  -4  -3   63.61    4.12
  -7   4   2  363.99   23.57
   7   4  -2  354.15   16.44
   7  -4  -2  365.76   12.20
   7  -4  -2  364.57   16.87
   7   4  -1   77.37    4.23
   7   4  -1   73.43    7.14
  -7   4   1   85.44    6.88
   7  -4  -1   82.90    4.86
   7  -4  -1   79.18    7.12
   7  -4  -1   77.28    8.24
   7   4   0  865.02   27.48
   7   4   0  875.78   33.11
   7   4   0  892.22   43.87
  -7   4   0  885.44   33.54
   7  -4   0  758.90   33.57
   7  -4   0  751.91   31.62
   7  -4   0  746.94   26.99
   7   4   1   52.32   10.57
   7   4   1   57.30    6.46
   7   4   1   58.36    4.28
   7  -4   1   56.92    5.08
   7  -4   1   59.33    6.77
   7   4   2  529.33   22.50
   7   4   2  525.69   18.46
   7   4   2  553.14   30.98
   7  -4   2  452.00   21.84
   7  -4   2  469.07   19.21
   7   4   3   10.53    4.74
   7   4   3   10.58    3.85
   7   4   3   11.40    3.91
   7  -4   3    1.87    3.47
   7  -4   3   11.73    4.08
   7   4   4  247.23   14.38
   7   4   4  250.95   17.67
  -7   4  -4  248.44   14.34
   7  -4   4  237.42   15.32
   7  -4   4  232.82   21.91
   7   4   5   36.00   10.79
   7   4   5   38.62    8.89
  -7   4  -5   31.77    6.79
   7  -4   5   36.30    6.99
   7  -4   5   36.51   11.96
   7   4   6  558.81   27.38
  -7   4  -6  555.73   29.73
   7  -4   6  508.10   29.24
   7  -4   6  523.00   30.69
   7   4   7   49.08    8.25
  -7   4  -7   39.98    9.39
   7  -4   7   36.73   15.49
   7  -4   7   45.38    9.99
   7   5 -10    0.08    6.07
  -7   5  10   16.19    6.98
  -7  -5  10   -0.36   10.50
  -7  -5  10    0.64    5.16
   7  -5 -10   10.55    2.65
   7   5  -9  117.26   12.18
  -7   5   9  126.45   14.05
   7  -5  -9   86.36    6.14
  -7  -5   9   99.99   10.73
  -7  -5   9  102.46   12.64
   7   5  -8   97.94   10.80
  -7   5   8  116.29   12.74
   7  -5  -8   86.67    5.31
  -7  -5   8  113.98   18.52
   7   5  -7  596.53   28.42
  -7   5   7  636.44   47.70
   7  -5  -7  557.11   21.79
  -7  -5   7  585.49   36.79
  -7  -5   7  587.13   29.29
   7   5  -6   48.36    7.15
  -7   5   6   45.91   14.64
   7  -5  -6   48.88    2.97
  -7  -5   6   56.68   10.23
  -7  -5   6   49.46    7.47
   7  -5  -6   49.24    2.97
   7   5  -5  251.86   14.14
  -7   5   5  253.49   26.52
   7  -5  -5  251.49    7.67
  -7  -5   5  266.08   13.02
  -7  -5   5  267.85   15.07
   7  -5  -5  239.40    7.31
   7   5  -4  409.91   19.19
  -7   5   4  415.90   33.22
   7  -5  -4  404.57   14.49
  -7  -5   4  416.33   17.36
  -7  -5   4  433.35   20.00
   7  -5  -4  393.50   14.63
   7   5  -3  814.22   33.50
  -7   5   3  836.13   38.46
   7  -5  -3  922.95   30.83
  -7  -5   3  901.94   32.89
   7  -5  -3  864.05   29.97
   7   5  -2   55.05    6.42
  -7   5   2   61.85    7.99
   7   5  -2   51.87    4.98
   7  -5  -2   62.65    3.58
   7  -5  -2   65.02    3.45
   7   5  -1  599.60   21.73
   7   5  -1  631.91   33.93
  -7   5   1  607.62   27.64
   7  -5  -1  600.43   24.28
   7  -5  -1  621.67   19.19
   7   5   0  132.76    7.69
   7   5   0  132.05    9.05
   7   5   0  131.44    9.07
  -7   5   0  132.31   11.04
   7  -5   0  143.66    6.59
   7  -5   0  149.75   11.93
   7  -5   0  138.08   10.46
   7   5   1  681.05   27.30
   7   5   1  650.33   24.89
   7   5   1  676.55   26.75
   7  -5   1  629.16   22.73
   7  -5   1  646.44   31.51
   7   5   2   50.63    9.00
   7   5   2   53.81    6.19
   7   5   2   59.33    6.08
   7  -5   2   50.03    5.35
   7  -5   2   50.58    8.34
   7   5   3  317.88   22.72
   7   5   3  309.35   14.70
   7   5   3  316.03   15.61
   7  -5   3  305.43   19.30
   7  -5   3  280.63   21.83
   7   5   4   80.90    7.59
   7   5   4   75.13    7.74
   7   5   4   82.25    7.89
   7  -5   4   51.09   16.98
   7  -5   4   72.21    8.58
   7   5   5   38.10    6.35
   7   5   5   46.41    6.02
  -7   5  -5   28.36    6.51
   7  -5   5   26.13    6.99
   7  -5   5   37.64    8.38
   7   5   6   48.48    7.73
   7   5   6   53.78    7.54
  -7   5  -6   54.51    8.35
   7  -5   6   41.12   10.30
   7  -5   6   41.26   15.77
   7   6  -9   -0.41    6.26
  -7   6   9   22.73   13.91
  -7  -6   9   25.06    6.25
  -7  -6   9    0.25   10.22
   7   6  -8  296.56   20.06
  -7   6   8  295.39   25.86
  -7  -6   8  310.96   20.42
  -7  -6   8  312.54   20.10
   7   6  -7    8.95    8.35
  -7   6   7   14.82    6.84
  -7  -6   7    9.90    5.05
  -7  -6   7   10.11    5.00
   7   6  -6  320.63   26.64
  -7   6   6  339.00   36.47
  -7  -6   6  315.17   18.24
  -7  -6   6  307.32   18.23
   7   6  -5   41.52   11.24
  -7   6   5   43.64   17.24
  -7  -6   5   56.03    7.01
  -7  -6   5   47.71    7.01
   7   6  -4  451.49   28.62
  -7   6   4  490.20   42.09
  -7  -6   4  427.57   21.12
   7   6  -3   89.33   12.36
   7   6  -2  420.90   18.04
   7   6  -2  450.08   18.11
   7  -6  -2  402.37   10.47
   7  -6  -2  355.30   13.10
   7   6  -1   17.64    4.09
   7   6  -1   25.48    3.99
   7   6  -1   13.19    6.74
   7  -6  -1   16.48    3.26
   7  -6  -1   16.13    2.38
   7   6   0  624.13   24.53
   7   6   0  639.52   24.93
   7   6   0  610.49   25.31
  -7   6   0  645.01   32.30
   7  -6   0  537.14   19.23
   7  -6   0  570.45   32.08
   7  -6   0  541.86   17.94
   7   6   1  216.73   19.46
   7   6   1  229.35   11.85
   7   6   1  223.32   17.29
   7  -6   1  206.37    9.19
   7  -6   1  196.75   14.11
   7  -6   1  215.17   17.99
   7   6   2  532.10   22.54
   7   6   2  578.68   22.96
   7   6   2  541.34   33.91
   7  -6   2  508.66   21.22
   7  -6   2  494.37   31.15
   7   6   3  174.52   16.11
   7   6   3  167.54   10.65
   7  -6   3  179.36   16.97
   7  -6   3  165.31   16.53
   7   6   4  119.40    8.87
   7   6   4  117.47    8.49
   7  -6   4   88.83    8.93
   7  -6   4   80.94   23.65
   7   7  -6    4.17    3.78
  -7   7   6   -0.32    6.85
  -7  -7   6   10.86    3.90
  -7  -7   6   -0.01    4.56
   7   7  -5  143.55   10.57
  -7   7   5  142.96   30.02
  -7  -7   5  140.17   13.05
   7   7  -4   20.66    4.15
  -7   7   4   23.63    7.89
  -7  -7   4    0.13    5.41
   7   7  -3  163.93   10.02
  -7   7   3  179.20   18.13
   7   7  -2    3.39    2.63
   7   7  -2    3.98    2.77
  -7   7   2    9.68    5.42
   7   7  -1  163.33    9.62
   7   7  -1  167.34    9.45
  -7   7   1  187.22   17.27
   7   7   0   31.17    8.99
   7   7   0   22.88    3.94
   7   7   0   17.24    3.89
  -7   7   0   25.31    8.11
   7   7   1   40.96    4.72
   7   7   1   24.29   11.60
   7  -7   1   63.50   10.71
   8   0 -13  112.19   15.73
  -8   0  13  127.66   19.17
   8   0 -12  536.40   32.96
  -8   0  12  573.27   36.82
   8   0 -11   12.59    5.96
  -8   0  11   11.16    6.72
   8   0 -10  704.09   34.99
  -8   0  10  738.08   37.66
   8   0  -9  100.64   10.30
  -8   0   9   97.92   18.81
   8   0  -8 1414.75   74.11
  -8   0   8 1412.59   61.42
   8   0  -7    7.07    3.49
  -8   0   7    1.67    3.70
   8   0  -6  660.28   27.60
  -8   0   6  696.70   29.35
   8   0  -5  203.98   11.94
  -8   0   5  197.18   12.30
   8   0  -4 1777.71   70.72
  -8   0   4 1852.96   56.43
   8   0  -3  117.82    8.83
   8   0  -2 1156.43   44.46
   8   0  -1  225.68   12.70
   8   0  -1  222.67   12.37
   8   0   0    7.83    3.84
   8   0   0    8.12    6.49
   8   0   1  182.87   11.81
   8   0   1  174.90    5.14
   8   0   2  182.41    7.35
   8   0   2  174.44   12.73
   8   0   3  120.37   18.12
   8   0   3  111.78    4.69
   8   0   4 1037.09   63.36
   8   0   5  233.53   17.35
   8   0   6  638.99   34.98
   8   0   7   44.05   17.61
  -8   0  -7   42.59   10.15
   8   0   8  226.37   35.87
  -8   0  -8  223.60   22.02
   8   1 -13  135.92   33.23
  -8   1  13  178.56   34.72
   8  -1 -13  170.94   18.16
  -8  -1  13  191.71   23.90
   8   1 -12  111.87   15.32
  -8   1  12  137.14   25.01
   8  -1 -12  111.81   13.67
  -8  -1  12  120.26   17.42
   8   1 -11  491.46   30.96
  -8   1  11  548.22   31.11
   8  -1 -11  513.49   28.35
  -8  -1  11  564.96   51.77
   8   1 -10   38.84    8.32
  -8   1  10   45.22   13.42
   8  -1 -10   36.48    7.40
  -8  -1  10   44.31    9.33
   8   1  -9  139.57   12.41
  -8   1   9  139.41   12.03
   8  -1  -9  119.90   10.69
  -8  -1   9  132.08   22.49
   8   1  -8  407.51   32.81
  -8   1   8  425.54   21.24
   8  -1  -8  409.40   19.56
  -8  -1   8  426.45   23.70
   8   1  -7  374.37   19.61
  -8   1   7  383.97   27.63
   8  -1  -7  365.18   17.47
  -8  -1   7  390.68   20.94
   8   1  -6  117.97    9.91
  -8   1   6  112.59    9.17
   8  -1  -6  111.79    8.57
  -8  -1   6  136.19   10.53
   8   1  -5 1127.53   57.41
  -8   1   5 1191.58   45.25
  -8   1   5 1062.79   33.62
  -8  -1   5 1121.68   45.77
   8  -1  -5 1093.17   41.86
   8   1  -4   80.99    8.11
  -8   1   4   76.78    3.24
  -8  -1   4   86.51    2.19
  -8  -1   4   90.52    8.50
   8  -1  -4   91.96   11.81
   8   1  -3  997.20   38.77
  -8   1   3  996.00   26.73
   8  -1  -3  932.72   35.82
   8   1  -2  365.65   17.62
   8  -1  -2  400.90   24.36
   8   1  -1  672.83   27.96
   8  -1  -1  654.07   26.42
   8  -1  -1  680.16   26.69
   8   1   0  250.54   23.34
   8   1   0  269.14   15.26
   8  -1   0  295.84   14.97
   8  -1   0  300.92   14.59
   8  -1   0  285.55    7.19
   8   1   1  637.06   28.10
   8   1   1  641.66   14.01
   8   1   1  635.92   13.77
   8  -1   1  704.65   22.06
   8  -1   1  709.78   39.14
   8   1   2   29.85    5.90
   8  -1   2   24.98    5.62
   8  -1   2   23.34    2.40
   8   1   3  908.30   39.79
   8  -1   3  917.24   39.66
   8  -1   3  856.24   33.31
   8   1   4  283.05   18.28
   8  -1   4  284.99   18.10
   8  -1   4  265.42   10.79
   8   1   5 2241.70  104.14
   8  -1   5 2092.33   96.80
   8  -1   5 2283.86  104.67
  -8   1  -6   16.00    7.23
   8   1   6   20.53    7.13
   8  -1   6   16.33    7.29
   8  -1   6   19.07    4.25
   8   1   7  376.94   26.10
  -8   1  -7  361.39   26.49
   8  -1   7  353.57   18.60
   8  -1   7  378.85   26.54
   8   1   8  132.12   16.49
  -8   1  -8  137.44   17.22
   8  -1   8   91.41   11.28
   8  -1   8  165.05   17.58
   8   2 -13  115.15   17.53
  -8   2  13  123.54   16.20
   8  -2 -13  105.33   14.52
  -8  -2  13  138.30   20.97
   8   2 -12  503.47   34.04
  -8   2  12  523.65   30.84
   8  -2 -12  473.33   27.49
  -8  -2  12  551.26   59.10
   8   2 -11  105.59   14.02
  -8   2  11  100.95   19.78
   8  -2 -11  105.09   10.68
  -8  -2  11  109.74   15.68
   8   2 -10  666.37   36.32
  -8   2  10  681.96   32.97
   8  -2 -10  641.17   41.75
  -8  -2  10  686.93   38.96
   8   2  -9  576.03   30.85
  -8   2   9  614.45   28.33
   8  -2  -9  604.32   36.55
  -8  -2   9  624.30   50.36
   8   2  -8 1025.62   47.14
  -8   2   8 1051.97   55.81
   8  -2  -8 1039.51   41.84
  -8  -2   8 1143.18   51.73
   8   2  -7  151.32   19.28
  -8   2   7  154.55   15.71
  -8  -2   7  134.44    6.44
  -8  -2   7  169.50   12.73
   8  -2  -7  138.54    8.95
   8   2  -6  275.90   16.15
  -8   2   6  266.63   11.40
  -8   2   6  277.30   20.84
  -8  -2   6  290.37   17.14
   8  -2  -6  277.05   13.03
  -8  -2   6  299.91    9.17
   8   2  -5    5.62    3.99
  -8   2   5    6.95    2.21
  -8  -2   5   10.14    4.27
  -8  -2   5    7.05    2.21
   8  -2  -5    8.56    5.06
   8   2  -4  490.82   24.68
   8  -2  -4  643.85   24.15
  -8  -2   4  663.02   17.51
  -8  -2   4  688.21   28.94
   8   2  -3  138.90   10.29
  -8   2   3  132.37    8.11
   8  -2  -3  133.62    8.25
   8   2  -2  282.06   15.06
  -8   2   2  272.01   11.62
   8  -2  -2  261.35   19.04
   8  -2  -2  264.12   12.47
   8   2  -1   78.42   14.07
   8  -2  -1   85.90    7.34
   8  -2  -1   96.22    7.18
   8   2   0  806.15   34.40
   8   2   0  863.78   35.45
   8  -2   0  817.72   31.85
   8  -2   0  820.86   30.43
   8   2   1   83.66    8.88
   8   2   1   74.21    3.12
   8   2   1   81.06    8.46
   8  -2   1   83.37    7.24
   8  -2   1   83.56   12.69
   8   2   2  850.70   51.12
   8   2   2  879.52   25.14
   8  -2   2  918.00   37.20
   8  -2   2  922.53   37.64
   8   2   3  108.18    9.91
   8  -2   3   89.25    9.52
   8  -2   3   86.66    6.13
   8   2   4  744.53   35.10
   8  -2   4  722.71   34.34
   8  -2   4  700.71   27.07
   8   2   5  201.51   16.21
  -8   2  -5  179.69   16.30
   8  -2   5  207.58   16.40
   8  -2   5  199.43   11.29
  -8   2  -6  513.33   30.78
   8   2   6  560.03   29.89
   8  -2   6  534.19   30.63
   8  -2   6  493.13   23.15
   8   2   7   83.38   12.75
  -8   2  -7   76.87   13.62
   8  -2   7   85.46    9.01
   8  -2   7   93.09   13.33
   8   2   8  342.48   25.82
  -8   2  -8  318.13   42.69
   8  -2   8  309.27   43.46
   8  -2   8  296.59   19.76
   8   3 -12   99.64   15.93
  -8   3  12  103.71   11.57
   8  -3 -12   81.40   18.73
  -8  -3  12   97.11   17.41
   8   3 -11  318.18   24.97
  -8   3  11  326.61   28.47
   8  -3 -11  295.06   26.33
  -8  -3  11  308.99   26.93
  -8  -3  11  307.58   19.02
   8   3 -10   20.61    7.06
  -8   3  10   16.64    4.76
   8  -3 -10   13.44    7.68
  -8  -3  10   17.42    4.67
  -8  -3  10   -0.28    7.48
   8   3  -9 1432.06   68.99
  -8   3   9 1459.13   74.74
   8  -3  -9 1497.91   60.78
  -8  -3   9 1576.43   74.74
  -8  -3   9 1562.60   75.76
   8   3  -8   66.75    9.43
  -8   3   8   67.55    7.59
  -8   3   8   56.13   10.66
  -8  -3   8   60.78   17.04
   8  -3  -8   56.79    5.89
  -8  -3   8   55.85    5.55
   8   3  -7  873.20   40.37
  -8   3   7  901.06   37.32
  -8   3   7  938.54   45.49
  -8  -3   7  948.47   43.76
   8  -3  -7  881.81   41.24
  -8  -3   7  920.10   38.92
   8   3  -6   28.25    6.30
  -8   3   6   31.23    4.69
  -8  -3   6   20.93    6.64
  -8  -3   6   27.65    3.13
   8  -3  -6   27.63    3.94
   8   3  -5  377.06   18.78
  -8   3   5  390.09   15.51
  -8  -3   5  330.46   10.78
  -8  -3   5  361.42   19.50
   8  -3  -5  334.32   13.68
  -8   3   4  122.44    7.32
   8   3  -4  115.86   17.03
  -8  -3   4  121.25   10.74
   8  -3  -4  122.30    7.26
  -8  -3   4  124.48    6.59
   8   3  -3   99.69    9.50
  -8   3   3   97.34    6.35
   8  -3  -3  137.40   10.97
   8  -3  -3  133.40   11.19
   8   3  -2   -0.82    2.11
  -8   3   2   -0.21    1.29
   8  -3  -2    0.69    1.49
   8  -3  -2    0.44    1.52
   8   3  -1 1032.76   54.48
  -8   3   1 1029.57   35.32
   8  -3  -1  970.45   36.79
   8  -3  -1 1009.28   37.01
   8   3   0  564.02   36.72
   8   3   0  556.93   25.57
   8   3   0  542.95   14.03
   8  -3   0  593.63   23.34
   8  -3   0  583.46   30.85
   8  -3   0  583.61   20.89
   8   3   1 1108.03   46.56
   8   3   1 1110.04   46.63
   8   3   1 1079.44   32.56
   8  -3   1 1147.26   43.98
   8  -3   1 1132.66   41.74
   8   3   2   67.22    8.13
   8   3   2   54.45    5.47
   8   3   2   48.52   13.00
   8  -3   2   61.71    5.69
   8  -3   2   61.18    6.92
   8   3   3  480.36   23.65
   8   3   3  458.49   20.25
   8  -3   3  461.79   27.19
   8  -3   3  441.05   21.82
   8   3   4   26.85    6.21
   8   3   4   23.20    3.32
   8  -3   4   16.52    5.82
   8  -3   4   20.76    8.05
   8   3   5  265.91   17.69
   8  -3   5  252.48   17.54
   8  -3   5  232.73   14.56
  -8   3  -6   24.11    7.69
   8   3   6   26.56    7.18
   8  -3   6   27.81    7.77
   8  -3   6   22.64    5.93
  -8   3  -7  255.30   22.17
   8   3   7  273.58   20.93
   8  -3   7  269.02   35.96
   8  -3   7  269.14   18.28
   8   4 -11    1.39    8.89
  -8   4  11    3.48    5.23
   8  -4 -11    3.59    3.14
  -8  -4  11   -0.29    9.77
  -8  -4  11    0.15    6.56
  -8   4  10  202.07   12.06
   8   4 -10  187.35   18.90
  -8   4  10  202.38   17.99
   8  -4 -10  217.84   11.85
  -8  -4  10  228.73   14.59
  -8  -4  10  225.88   20.61
   8   4  -9    5.34    4.76
  -8   4   9    6.10    2.71
  -8   4   9    0.51    7.63
   8  -4  -9    0.86    4.30
  -8  -4   9    5.35    5.19
  -8  -4   9    0.41    5.64
   8   4  -8  505.15   28.33
  -8   4   8  528.42   28.16
  -8   4   8  526.72   21.38
  -8  -4   8  552.80   31.76
   8  -4  -8  532.83   20.16
  -8  -4   8  567.79   31.16
   8   4  -7    5.34    3.64
  -8   4   7    2.48    3.26
   8  -4  -7    1.50    1.83
  -8  -4   7   -2.23    6.54
   8   4  -6  590.03   27.58
  -8   4   6  592.05   27.12
  -8  -4   6  561.07   20.96
  -8  -4   6  585.42   41.30
   8  -4  -6  554.34   19.34
   8   4  -5   68.07   13.34
  -8   4   5   70.70    7.14
  -8  -4   5   52.52   14.27
  -8  -4   5   61.29    7.69
   8  -4  -5   61.13    4.53
   8   4  -4  558.62   25.42
  -8   4   4  546.19   23.61
   8  -4  -4  548.20   24.66
  -8  -4   4  550.16   23.16
   8  -4  -4  547.36   18.97
   8   4  -3   91.09    8.73
  -8   4   3   92.86    7.56
   8  -4  -3   96.20    8.83
   8  -4  -3   86.20    8.90
   8   4  -2  351.29   18.12
  -8   4   2  344.41   22.55
   8  -4  -2  354.42   19.09
   8  -4  -2  355.98   13.33
   8   4  -1   67.84    3.60
   8   4  -1   65.25    7.75
  -8   4   1   64.33    6.29
   8  -4  -1   80.16    9.15
   8  -4  -1   82.30    5.44
   8   4   0   67.15   13.69
   8   4   0   76.12    8.30
   8   4   0   70.14    4.00
   8  -4   0  100.35    6.68
   8  -4   0   98.29   10.28
   8  -4   0   89.55    7.53
   8   4   1  145.47   18.50
   8   4   1  147.62    6.50
   8   4   1  152.38   18.47
   8  -4   1  164.76   14.70
   8  -4   1  170.94   10.45
   8   4   2  528.03   18.42
   8   4   2  549.95   36.37
   8   4   2  560.84   25.63
   8  -4   2  545.51   24.60
   8  -4   2  555.22   31.76
   8   4   3    6.71    4.33
   8   4   3    7.97    4.25
   8   4   3    7.11    4.38
   8  -4   3    7.85    3.94
   8  -4   3   13.23    6.58
   8   4   4  191.89   14.34
   8   4   4  200.67   13.98
   8   4   4  189.36    9.74
   8  -4   4  178.69   13.24
   8  -4   4  174.65   13.30
   8   4   5   23.88   11.69
   8   4   5   25.97    4.82
   8  -4   5   27.38    6.76
   8  -4   5   38.70    7.13
   8   4   6  184.29   23.90
  -8   4  -6  164.70   15.76
   8  -4   6  180.13   24.58
   8  -4   6  191.51   17.36
   8   5 -10    0.21    3.76
  -8   5  10   -0.19    3.95
  -8  -5  10   -0.18    2.94
  -8  -5  10    5.25    6.68
   8   5  -9  134.24   24.91
  -8   5   9  144.93   16.23
   8  -5  -9  155.00   13.10
  -8  -5   9  164.77   16.31
  -8  -5   9  159.22   19.65
   8   5  -8   12.48    8.75
  -8   5   8    0.49    9.53
  -8  -5   8    7.31    4.03
  -8  -5   8    9.21    9.33
   8  -5  -8    8.98    3.93
   8   5  -7  268.81   26.87
  -8   5   7  279.49   18.90
  -8  -5   7  277.48   14.23
  -8  -5   7  272.46   18.50
   8  -5  -7  252.54    9.49
   8   5  -6   24.85   10.67
  -8   5   6    0.11    6.88
   8  -5  -6   29.66    2.76
   8  -5  -6   31.90    4.61
  -8  -5   6   36.05    6.74
  -8  -5   6   24.57    7.82
   8   5  -5  601.35   38.38
  -8   5   5  596.12   29.44
   8  -5  -5  580.89   18.29
  -8  -5   5  587.81   22.99
  -8  -5   5  615.11   28.94
   8  -5  -5  543.92   17.36
   8   5  -4   41.96   11.08
  -8   5   4   38.98   12.03
   8  -5  -4   40.20    3.12
  -8  -5   4   51.25    7.58
   8  -5  -4   39.09    5.09
   8   5  -3  156.69   17.79
  -8   5   3  151.50   18.93
   8  -5  -3  159.00    6.54
   8  -5  -3  157.40    6.63
   8   5  -2   41.99    6.40
  -8   5   2   38.57    6.74
   8  -5  -2   48.44    6.13
   8  -5  -2   44.96    5.86
   8   5  -1  453.41   21.17
   8   5  -1  452.60   21.45
   8   5  -1  475.08   21.48
  -8   5   1  467.93   22.09
   8  -5  -1  417.46   21.17
   8  -5  -1  440.28   20.85
   8   5   0    9.02    3.86
   8   5   0   10.00    6.56
   8   5   0    8.87    2.46
  -8   5   0    0.89    4.10
   8  -5   0    8.11    4.31
   8  -5   0    3.81    7.59
   8  -5   0   10.18    2.79
   8   5   1  452.98   23.12
   8   5   1  462.20   21.97
   8   5   1  471.96   21.90
   8  -5   1  424.26   24.14
   8  -5   1  428.86   34.57
   8   5   2   25.02    5.29
   8   5   2   25.11    3.87
   8   5   2   21.65    5.35
   8  -5   2   18.75    4.37
   8  -5   2   17.46   10.36
   8   5   3  275.79   13.41
   8   5   3  293.66   16.36
   8   5   3  293.80   24.41
   8  -5   3  265.40   14.96
   8  -5   3  275.24   18.70
   8   5   4   27.98    6.16
   8   5   4   30.00    6.04
   8  -5   4   26.33    7.27
   8  -5   4   22.14    6.36
   8   5   5  211.42   23.79
   8   5   5  218.02   14.78
   8  -5   5  199.05   17.34
   8  -5   5  199.49   17.02
   8   6  -8  193.08   25.05
  -8   6   8  198.54   18.91
  -8  -6   8  157.03   13.96
  -8  -6   8  175.26   15.83
   8   6  -7    7.15    6.44
  -8   6   7   -0.70    8.31
  -8  -6   7   -0.98    5.80
  -8  -6   7    3.32    3.99
   8   6  -6  229.68   15.29
  -8   6   6  244.75   19.31
  -8  -6   6  236.46   16.25
  -8  -6   6  217.36   14.10
   8   6  -5    6.51    3.82
  -8   6   5   -0.97    5.11
  -8  -6   5    7.63    3.46
   8   6  -4  344.08   18.06
  -8   6   4  382.01   23.39
  -8  -6   4  345.20   16.91
   8   6  -3    3.05    3.06
  -8   6   3    3.01    4.19
   8   6  -2  194.72   12.10
  -8   6   2  219.54   16.02
   8   6  -1   17.47    7.01
   8   6  -1   18.79    4.21
   8   6  -1   13.43    3.40
  -8   6   1   13.70    5.61
   8  -6  -1    9.49    3.96
   8  -6  -1   10.54    3.88
   8   6   0   74.31    9.41
   8   6   0   67.21   11.38
   8   6   0   76.17    6.91
  -8   6   0   48.02    9.03
   8  -6   0   49.91    4.69
   8  -6   0   65.18    9.55
   8  -6   0   50.20    7.27
   8   6   1  105.58   13.15
   8   6   1  109.94   15.02
   8   6   1  112.65    9.03
   8  -6   1  112.88   11.11
   8  -6   1  111.17    7.69
   8  -6   1  118.83   13.25
   8   6   2  238.36   21.27
   8   6   2  243.64   14.14
   8   6   2  228.79   13.26
   8  -6   2  244.67   20.05
   8  -6   2  240.92   30.59
   8   6   3   34.66    6.34
   8   6   3   42.99    6.14
   8  -6   3   35.79    5.89
   8  -6   3   30.11    9.12
   8   7  -3  207.50   12.64
  -8   7   3  208.88   19.60
   8   7  -2    9.30    6.39
   8   7  -2    9.96    6.17
  -8   7   2    7.04    6.17
   8   7  -1   66.65    7.46
   8   7  -1   65.25   11.10
   8   7  -1   68.32    6.98
  -8   7   1   65.05   11.58
   9   0 -13   52.84   12.20
  -9   0  13   54.94   13.66
   9   0 -12  188.74   18.34
  -9   0  12  203.30   33.24
   9   0 -11    1.08    3.60
  -9   0  11    0.25    4.03
   9   0 -10  506.24   27.65
  -9   0  10  512.40   30.30
   9   0  -9   14.02    5.41
  -9   0   9   11.33    5.99
   9   0  -8  444.48   23.54
  -9   0   8  501.74   38.32
   9   0  -7    4.09    5.29
  -9   0   7    0.45    3.27
   9   0  -6  786.52   34.25
  -9   0   6  810.52   35.68
   9   0  -5  279.24   15.81
  -9   0   5  263.30    6.52
  -9   0   5  286.14   16.55
   9   0  -4  302.42   25.34
   9   0  -3   17.65    5.07
   9   0  -2 1048.40   43.22
   9   0  -1   25.46    9.59
   9   0  -1   18.67    9.46
   9   0   0  318.52   18.30
   9   0   0  327.42   17.97
   9   0   1   12.00    0.95
   9   0   1   12.40    5.03
   9   0   2  515.20   26.30
   9   0   2  506.08   12.93
   9   0   3   15.85    9.60
   9   0   3   10.47    2.94
   9   0   4  583.94   44.90
   9   0   4  511.57   21.77
   9   0   5   16.97    3.09
   9   0   5   18.64   12.39
   9   0   6  500.44   48.67
   9   0   7   28.62   17.43
   9   1 -13  243.48   23.74
  -9   1  13  278.44   38.30
   9  -1 -13  191.24   33.87
  -9  -1  13  211.87   26.44
   9   1 -12   34.17    9.90
  -9   1  12   37.85    9.70
   9  -1 -12   26.93   14.55
  -9  -1  12   28.94   11.00
   9   1 -11  402.10   27.43
  -9   1  11  433.03   27.12
   9  -1 -11  395.60   37.28
  -9  -1  11  407.64   29.86
   9   1 -10   34.97    8.45
  -9   1  10   37.94   13.90
   9  -1 -10   29.61    7.45
  -9  -1  10   41.85    9.44
   9   1  -9 1383.03   64.11
  -9   1   9 1404.80   63.24
   9  -1  -9 1360.28   60.42
  -9  -1   9 1433.70   68.51
   9   1  -8   43.70    8.57
  -9   1   8   56.12    8.07
   9  -1  -8   58.58    7.40
  -9  -1   8   53.99    9.54
   9   1  -7  674.53   31.66
  -9   1   7  699.93   31.72
   9  -1  -7  678.75   40.78
  -9  -1   7  713.30   34.21
   9   1  -6   39.44   12.28
  -9   1   6   42.75    6.62
  -9   1   6   38.93    3.09
  -9  -1   6   48.02    7.55
   9  -1  -6   37.83    6.24
   9   1  -5  113.55   10.21
  -9   1   5  115.48    6.27
   9  -1  -5   80.10    8.74
  -9  -1   5   81.68   10.28
   9   1  -4  132.50   10.94
  -9   1   4  122.37    3.75
   9  -1  -4  128.88    9.63
   9   1  -3  594.21   38.39
  -9   1   3  581.89   14.94
   9  -1  -3  574.75   24.92
   9   1  -2   27.82    6.07
   9  -1  -2   29.26    9.30
   9  -1  -2   25.91    5.51
   9   1  -1  596.43   28.08
   9   1  -1  587.95   28.09
   9  -1  -1  661.15   27.85
   9  -1  -1  641.76   28.02
   9   1   0  183.37   13.21
   9   1   0  174.63   21.32
   9  -1   0  163.88   12.39
   9  -1   0  160.54   19.33
   9   1   1  473.11   24.37
   9   1   1  466.34   23.60
   9  -1   1  439.49   11.97
   9  -1   1  456.94   22.88
   9   1   2   18.91    1.10
   9   1   2   18.46    6.13
   9  -1   2   19.45    5.84
   9  -1   2   18.54    3.51
   9   1   3  667.11   33.38
   9  -1   3  675.59   32.90
   9  -1   3  633.60   26.04
   9   1   4  203.87   16.72
   9  -1   4  195.89   16.57
   9  -1   4  167.58   12.36
   9   1   5  333.83   23.14
   9  -1   5  287.07   18.76
   9  -1   5  316.87   22.20
   9   1   6   16.69    6.22
   9  -1   6    5.88    3.23
   9  -1   6    5.05    6.32
   9   1   7  388.05   28.52
   9  -1   7  348.73   18.59
   9  -1   7  395.03   28.74
   9   2 -12  273.49   24.67
  -9   2  12  275.21   21.37
   9  -2 -12  253.38   19.25
  -9  -2  12  270.03   43.23
   9   2 -11   46.77   10.98
  -9   2  11   49.74    9.06
   9  -2 -11   48.32    8.15
  -9  -2  11   47.70   12.14
   9   2 -10  369.84   26.70
  -9   2  10  382.95   23.33
   9  -2 -10  420.92   22.07
  -9  -2  10  473.53   30.36
   9   2  -9  349.14   23.44
  -9   2   9  355.97   19.94
   9  -2  -9  336.31   27.11
  -9  -2   9  356.42   25.19
   9   2  -8  630.51   32.09
  -9   2   8  677.38   29.61
  -9  -2   8  636.82   34.74
  -9  -2   8  633.73   21.52
   9  -2  -8  582.11   26.17
   9   2  -7   20.08    6.75
  -9   2   7   22.76    9.39
  -9   2   7   25.22    3.81
  -9  -2   7   26.82    2.62
   9  -2  -7   29.43    5.06
  -9  -2   7   26.04    7.19
   9   2  -6  364.76   19.68
  -9   2   6  351.75   13.13
  -9  -2   6  352.61   20.81
  -9  -2   6  329.07    9.59
   9  -2  -6  335.76   23.25
   9   2  -5  342.83   28.98
  -9   2   5  334.23   15.89
  -9  -2   5  318.08    9.26
  -9  -2   5  339.30   19.86
   9  -2  -5  328.80   15.57
   9   2  -4  452.88   22.27
  -9   2   4  430.38   13.44
   9  -2  -4  301.25   25.05
   9   2  -3  228.07   14.37
  -9   2   3  209.26    9.72
   9  -2  -3  201.20   11.74
   9   2  -2  242.47   15.22
  -9   2   2  228.20    6.99
   9  -2  -2  251.91   20.19
   9  -2  -2  255.30   13.29
   9   2  -1   14.78    6.04
   9   2  -1   21.16    6.12
   9  -2  -1   27.99    5.23
   9  -2  -1   34.84    5.18
   9   2   0  319.87   31.14
   9   2   0  332.98   20.42
   9  -2   0  409.98   19.89
   9  -2   0  403.59   28.48
   9  -2   0  429.99   16.21
   9   2   1  153.59   13.85
   9   2   1  179.66   22.13
   9  -2   1  178.73   10.42
   9  -2   1  181.40   12.51
   9   2   2  921.92   43.27
   9   2   2  944.75   42.51
   9   2   2  892.25   26.41
   9  -2   2  885.04   36.36
   9  -2   2  936.41   40.87
   9   2   3  168.12   14.00
   9   2   3  147.94    5.43
   9  -2   3  136.11    7.65
   9  -2   3  145.47   13.03
   9   2   4 2089.84   94.64
   9  -2   4 1900.77   88.27
   9  -2   4 1750.73   71.92
   9   2   5    9.58    5.64
   9  -2   5    6.10    3.24
   9  -2   5    8.51    5.64
   9   2   6  442.52   28.81
   9  -2   6  414.46   29.48
   9  -2   6  448.66   28.99
   9   2   7   51.85   11.14
   9  -2   7   48.65    7.30
   9  -2   7    4.94   20.63
   9   3 -12   26.39    9.71
  -9   3  12   30.46    6.80
   9  -3 -12   29.12    6.35
  -9  -3  12   27.85   18.19
  -9  -3  12   -0.17    6.61
   9   3 -11  300.63   39.42
  -9   3  11  306.88   28.89
   9  -3 -11  284.23   17.26
  -9  -3  11  293.07   26.91
  -9  -3  11  298.73   17.27
   9   3 -10  103.67   23.68
  -9   3  10  118.10   10.41
   9  -3 -10  104.38   15.42
  -9  -3  10  123.29   15.81
  -9  -3  10  106.68    8.89
   9   3  -9  492.44   44.63
  -9   3   9  505.40   25.27
  -9   3   9  519.67   24.44
  -9  -3   9  465.84   27.21
   9  -3  -9  459.74   30.74
  -9  -3   9  493.70   31.67
   9   3  -8    9.25    9.69
  -9   3   8    7.96    4.10
  -9   3   8    7.20    3.97
  -9  -3   8   10.60    4.70
   9  -3  -8   13.06    3.58
  -9  -3   8   10.00   10.54
   9   3  -7  470.33   38.63
  -9   3   7  452.48   20.35
  -9  -3   7  467.24   26.67
  -9  -3   7  456.89   20.78
   9  -3  -7  421.89   25.96
   9   3  -6   91.06   10.16
  -9   3   6   91.64    6.92
  -9  -3   6   88.19   10.68
  -9  -3   6   78.58    6.72
   9  -3  -6   75.39    6.63
   9   3  -5  729.08   34.43
  -9   3   5  719.83   34.74
  -9  -3   5  727.19   21.26
  -9  -3   5  785.56   36.73
   9  -3  -5  732.67   36.43
   9   3  -4  943.24   41.58
  -9   3   4  924.94   33.19
   9  -3  -4  883.72   34.28
   9   3  -3  185.00   13.43
  -9   3   3  174.21    8.13
   9  -3  -3  166.86    9.84
   9  -3  -3  170.41    9.75
   9   3  -2  114.28   10.45
  -9   3   2  110.90    5.80
   9  -3  -2   91.44    7.80
   9  -3  -2  107.97    7.71
   9   3  -1   12.47   10.15
   9   3  -1   10.08    5.84
   9  -3  -1   29.88    7.87
   9  -3  -1   38.54    7.63
   9   3   0  349.29   31.28
   9   3   0  345.89   20.41
   9  -3   0  364.95   18.15
   9  -3   0  367.61   17.55
   9  -3   0  366.86   19.69
   9   3   1  632.81   44.34
   9   3   1  594.43   15.87
   9   3   1  659.33   44.83
   9  -3   1  717.92   29.54
   9  -3   1  706.93   25.11
   9   3   2   63.22    9.55
   9   3   2   62.17    3.15
   9   3   2   76.43    9.26
   9  -3   2   76.56    9.59
   9  -3   2   78.23    8.25
   9   3   3  609.05   25.03
   9   3   3  644.19   33.28
   9   3   3  663.05   34.41
   9  -3   3  673.10   26.58
   9  -3   3  703.23   31.92
   9   3   4  115.84   12.66
   9   3   4  103.57    6.21
   9  -3   4  132.26   12.05
   9  -3   4  120.58   14.09
   9   3   5  435.63   26.50
   9   3   5  385.22   16.21
   9  -3   5  430.85   29.93
   9  -3   5  452.66   25.90
   9   3   6   25.01    7.65
   9  -3   6   19.66   13.87
   9  -3   6   17.87    5.68
  -9   4  11   12.32    4.49
   9   4 -11   16.37    7.47
  -9   4  11   -0.13    6.57
   9  -4 -11    8.42    4.30
  -9  -4  11   15.66    8.12
  -9  -4  11   15.60    4.93
  -9   4  10  109.44   13.66
   9   4 -10  113.48   15.11
  -9   4  10  106.40   15.16
   9  -4 -10  121.03    9.03
  -9  -4  10  135.22   16.70
  -9  -4  10  129.63   10.34
   9   4  -9   31.42    8.17
  -9   4   9   -0.94    6.99
  -9   4   9   36.59    4.88
  -9  -4   9   26.24    8.73
   9  -4  -9   25.70    7.32
  -9  -4   9   27.14    8.15
   9   4  -8  290.08   20.09
  -9   4   8  285.38   17.76
   9  -4  -8  258.86   12.47
  -9  -4   8  291.54   21.22
  -9  -4   8  270.10   19.16
   9   4  -7   37.69    7.69
  -9   4   7   44.61    6.36
  -9  -4   7   33.85    6.87
  -9  -4   7   28.76    8.34
   9  -4  -7   25.83    4.14
   9   4  -6  529.24   27.78
  -9   4   6  520.28   24.16
  -9  -4   6  511.90   41.94
  -9  -4   6  501.69   18.02
   9  -4  -6  510.98   19.51
   9   4  -5   44.50    7.34
  -9   4   5   39.83    9.28
   9  -4  -5   34.56    7.03
  -9  -4   5   31.24    5.31
  -9  -4   5   32.86    7.71
   9  -4  -5   35.68    4.26
   9   4  -4  496.91   25.01
  -9   4   4  491.60   21.39
   9  -4  -4  468.40   18.31
   9  -4  -4  499.66   25.26
   9   4  -3    4.40    3.90
  -9   4   3    5.28    2.74
   9  -4  -3    3.48    2.40
   9  -4  -3    2.16    3.95
   9   4  -2  595.96   28.01
  -9   4   2  569.48   22.85
   9  -4  -2  546.13   29.47
   9  -4  -2  567.38   21.80
   9   4  -1  251.43   16.36
  -9   4   1  258.37   12.46
   9  -4  -1  256.56   12.66
   9  -4  -1  251.08   12.44
   9   4   0 1603.97   56.33
   9   4   0 1684.39   89.27
   9   4   0 1699.14   90.44
   9  -4   0 1469.58   74.46
   9  -4   0 1589.23   64.12
   9  -4   0 1517.32   62.80
   9   4   1   14.45    5.17
   9   4   1   11.84    1.93
   9   4   1   12.44    5.03
   9  -4   1   -1.50    4.29
   9  -4   1   17.17    4.06
   9  -4   1   18.91    6.63
   9   4   2  432.34   23.46
   9   4   2  443.94   23.57
   9   4   2  392.96   13.91
   9  -4   2  445.21   20.35
   9  -4   2  434.69   20.79
   9   4   3   14.13    6.07
   9   4   3   15.45    4.71
   9   4   3   17.07    5.86
   9  -4   3   20.27    8.03
   9  -4   3   15.98    5.25
   9   4   4  337.63   34.64
   9   4   4  334.95   22.08
   9  -4   4  373.12   29.01
   9  -4   4  378.31   21.58
   9   4   5   14.69    5.51
   9   4   5   14.84    9.08
   9  -4   5   -1.08    4.55
   9  -4   5    8.29    5.28
   9   5  -9  368.92   25.91
  -9   5   9  394.62   39.09
  -9  -5   9  398.66   27.28
  -9  -5   9  367.13   19.96
   9  -5  -9  342.06   21.39
   9   5  -8   81.41   10.07
  -9   5   8   70.57   10.17
   9  -5  -8   52.14    4.86
  -9  -5   8   59.97    6.97
  -9  -5   8   62.93   17.79
   9   5  -7  216.59   15.99
  -9   5   7  208.03   15.83
   9  -5  -7  186.90   12.54
  -9  -5   7  204.54   17.13
  -9  -5   7  200.16   11.26
   9  -5  -7  189.04    8.68
   9   5  -6   56.22    8.58
  -9   5   6   56.93    8.44
   9  -5  -6   50.93    4.34
  -9  -5   6   56.54    8.82
  -9  -5   6   56.89    9.45
   9  -5  -6   53.30    4.19
   9   5  -5  356.46   19.98
  -9   5   5  380.82   20.04
   9  -5  -5  323.06   16.56
  -9  -5   5  317.04   13.53
   9  -5  -5  303.90   11.85
   9   5  -4   69.79    8.72
  -9   5   4   72.61    8.36
   9  -5  -4   66.77    4.62
   9  -5  -4   65.47    4.67
   9   5  -3  294.49   17.19
  -9   5   3  312.77   25.01
   9  -5  -3  261.95   11.01
   9  -5  -3  274.06   10.99
   9   5  -2   24.37    6.08
  -9   5   2   27.29    5.42
   9  -5  -2   26.88    6.21
   9  -5  -2   26.51    3.58
   9   5  -1  195.00   13.27
   9   5  -1  189.74   13.34
  -9   5   1  190.21   12.07
   9  -5  -1  155.22    9.03
   9  -5  -1  167.78    8.76
   9   5   0   84.38    5.08
   9   5   0   97.22    9.68
   9   5   0   94.25    9.73
   9  -5   0   93.64    7.26
   9  -5   0  102.42    6.94
   9  -5   0   93.97    9.48
   9   5   1  422.25   22.13
   9   5   1  423.32   22.09
   9   5   1  383.00   19.21
   9  -5   1  378.15   18.19
   9  -5   1  388.65   17.71
   9  -5   1  392.82   21.89
   9   5   2   33.07    6.90
   9   5   2   34.66   11.61
   9  -5   2   34.95    5.55
   9  -5   2   30.13    6.90
   9   5   3   95.05   10.94
   9   5   3  105.20   17.52
   9  -5   3  107.65   15.76
   9  -5   3  101.12   11.13
   9   5   4  145.27   21.33
   9   5   4  137.63   13.32
   9  -5   4  138.79   12.84
   9  -5   4  145.22   22.20
   9   6  -7    7.08    4.36
  -9   6   7    0.18    5.09
  -9  -6   7    2.59    4.67
  -9  -6   7    5.91    5.67
   9   6  -6  120.22   12.12
  -9   6   6  118.76   13.74
  -9  -6   6  119.04    9.38
   9   6  -5    9.79    4.34
  -9   6   5    6.10    5.19
  -9  -6   5    5.44    3.27
   9   6  -4   92.23    9.71
  -9   6   4   89.24   11.23
   9   6  -3   60.00    7.70
  -9   6   3   52.72    8.98
   9   6  -2  113.11   10.43
   9   6  -2  119.17   10.55
  -9   6   2  124.13   11.76
   9   6  -1   75.03   12.76
   9   6  -1   56.34    7.41
  -9   6   1   48.43    8.54
   9  -6  -1   50.33    4.57
   9  -6  -1   50.66    4.50
   9   6   0  468.44   33.77
   9   6   0  481.07   33.15
   9  -6   0  447.04   24.05
   9  -6   0  417.38   23.03
   9   6   1    0.19    8.45
   9   6   1   19.38    4.74
   9  -6   1   13.90    3.57
   9  -6   1    9.35    3.29
   9  -6   1    6.97    6.08
  10   0 -12   32.56   17.16
 -10   0  12   51.78   19.26
  10   0 -11    1.35    8.08
 -10   0  11    3.73    5.29
  10   0 -10  328.69   35.51
 -10   0  10  352.53   24.65
  10   0  -9   -5.85    5.71
 -10   0   9    3.40    3.67
  10   0  -8  922.70   43.95
 -10   0   8  953.17   46.55
  10   0  -7   70.22    9.33
 -10   0   7   64.75   17.48
  10   0  -6  602.97   28.70
 -10   0   6  548.88   17.90
 -10   0   6  620.35   30.59
  10   0  -5  591.48   41.44
  10   0  -4 1135.49   49.43
  10   0  -3   88.83    9.88
  10   0  -2  704.35   33.09
  10   0  -2  713.19   33.07
  10   0  -1  503.92   26.40
  10   0  -1  526.30   26.99
  10   0   0 1285.85   58.42
  10   0   0 1313.81   58.55
  10   0   1   97.04   11.92
  10   0   1  108.85   19.36
  10   0   2  273.20    7.66
  10   0   2  319.88   31.31
  10   0   3  136.84   24.35
  10   0   3  138.03    7.24
  10   0   4  356.30   12.17
  10   0   4  423.26   26.07
  10   0   5   94.01   14.10
  10   0   6  324.33   42.76
  10   1 -12    5.48   12.33
 -10   1  12    6.68    6.94
  10  -1 -12   12.36    6.13
 -10  -1  12   10.94    8.01
  10   1 -11  165.05   26.72
 -10   1  11  157.50   15.46
  10  -1 -11  112.33   13.52
 -10  -1  11  123.25   17.56
  10   1 -10  123.42   23.93
 -10   1  10  123.33   13.70
  10  -1 -10  109.59   12.05
 -10  -1  10  127.13   15.44
  10   1  -9  609.95   50.35
 -10   1   9  662.51   34.02
  10  -1  -9  621.67   44.55
 -10  -1   9  612.26   36.85
  10   1  -8    1.44    3.55
 -10   1   8    0.06    3.31
  10  -1  -8    1.18    3.06
 -10  -1   8    1.03    6.68
  10   1  -7  610.41   31.10
 -10   1   7  652.57   31.13
 -10   1   7  564.29   19.48
 -10  -1   7  657.10   33.80
  10  -1  -7  613.83   28.69
  10   1  -6   20.51    6.18
 -10   1   6   15.42    3.38
 -10  -1   6   17.45    1.76
 -10  -1   6   16.60    6.63
  10  -1  -6   19.84    5.32
  10   1  -5  760.71   36.17
 -10   1   5  756.27   23.76
  10  -1  -5  858.80   48.85
  10   1  -4  115.29   18.27
 -10   1   4   96.10    3.46
  10  -1  -4   93.07    9.54
  10   1  -3  617.58   43.61
  10  -1  -3  612.11   28.51
  10   1  -2    9.54    5.00
  10  -1  -2    9.04    4.47
  10  -1  -2    4.51    7.67
  10   1  -1  315.95   18.95
  10   1  -1  314.00   19.14
  10  -1  -1  256.76   26.62
  10  -1  -1  256.80   16.90
  10   1   0  210.95   16.47
  10   1   0  216.26   16.40
  10  -1   0  211.37   25.54
  10  -1   0  237.43   15.69
  10   1   1  605.55   30.59
  10   1   1  610.42   30.11
  10  -1   1  557.36   28.52
  10  -1   1  551.62   28.08
  10  -1   1  499.69   12.98
  10   1   2  155.03   14.94
  10   1   2  167.44   15.82
  10  -1   2  151.34    5.54
  10  -1   2  173.97   14.35
  10   1   3  762.72   39.20
  10  -1   3  635.61   20.98
  10  -1   3  741.94   37.15
  10   1   4  151.44   14.83
  10  -1   4  131.94   14.60
  10  -1   4  113.30    6.44
  10   1   5  383.56   26.51
  10  -1   5  313.27   13.99
  10  -1   5  356.81   25.49
  10   1   6   96.75   14.21
  10  -1   6   77.58    7.09
  10  -1   6  106.59   14.47
  10   2 -12  152.69   31.00
 -10   2  12  144.82   16.08
  10  -2 -12  144.12   14.36
 -10  -2  12  142.48   20.85
  10   2 -11   13.69   12.50
 -10   2  11   17.65    5.97
  10  -2 -11    0.10    5.47
 -10  -2  11   19.64    8.12
  10   2 -10 1005.80   52.34
 -10   2  10 1044.05   65.32
  10  -2 -10  906.44   43.31
 -10  -2  10 1013.47   55.54
  10   2  -9  240.26   20.59
 -10   2   9  273.46   17.81
 -10  -2   9  258.30   11.02
 -10  -2   9  265.70   22.20
  10  -2  -9  245.12   16.05
  10   2  -8  427.18   37.36
 -10   2   8  431.82   22.32
 -10   2   8  424.24   23.44
 -10  -2   8  397.86   26.31
  10  -2  -8  356.20   19.28
 -10  -2   8  369.84   12.80
 -10   2   7   11.88    3.10
 -10  -2   7   22.27    6.83
 -10  -2   7   18.06    3.16
  10  -2  -7   24.07    8.11
  10   2  -6  207.28   26.73
 -10   2   6  207.33   12.95
 -10  -2   6  216.61    7.07
 -10  -2   6  253.51   18.08
  10  -2  -6  229.00   13.52
  10   2  -5  294.37   18.86
 -10   2   5  282.06   13.40
  10  -2  -5  271.88   15.20
  10   2  -4  528.32   27.59
 -10   2   4  510.42   15.48
  10  -2  -4  520.91   23.46
  10   2  -3   55.73    8.52
 -10   2   3   52.70    2.79
  10  -2  -3   44.98    7.00
  10  -2  -3   49.29    6.91
  10   2  -2  320.75   19.02
  10  -2  -2  271.31   15.97
  10  -2  -2  297.60   24.92
  10   2  -1  558.82   29.47
  10   2  -1  561.71   43.63
  10  -2  -1  574.33   38.70
  10  -2  -1  600.47   38.07
  10   2   0  687.80   34.64
  10   2   0  659.82   33.78
  10  -2   0  712.33   32.14
  10  -2   0  689.29   46.07
  10   2   1  293.75   20.21
  10   2   1  290.08   19.92
  10  -2   1  303.80   18.39
  10  -2   1  284.03   13.49
  10   2   2  445.61   27.15
  10   2   2  432.91   26.32
  10  -2   2  434.36   15.41
  10  -2   2  465.06   25.07
  10   2   3  125.40   15.50
  10   2   3  119.69   14.82
  10  -2   3  142.37    7.41
  10  -2   3  155.96   14.31
  10   2   4  343.33   25.73
  10  -2   4  381.30   16.05
  10  -2   4  404.28   25.68
  10   2   5   37.35    8.78
  10  -2   5   28.84    8.49
  10  -2   5   18.56    4.52
  10   2   6  197.67   19.55
  10  -2   6  189.92   32.71
  10  -2   6  170.03   18.49
  10   3 -11  170.51   20.08
 -10   3  11  168.27   14.79
  10  -3 -11  184.70   13.58
 -10  -3  11  194.87   22.09
 -10  -3  11  180.82   12.01
  10   3 -10    8.43    5.90
 -10   3  10    0.16    4.14
 -10   3  10    7.77    4.25
 -10  -3  10    5.82    6.53
  10  -3 -10    7.83    3.78
 -10  -3  10    5.72    5.17
  10   3  -9  149.49   16.06
 -10   3   9  151.38   11.36
 -10   3   9  146.18   12.02
 -10  -3   9  149.09   17.43
  10  -3  -9  152.41   16.94
 -10  -3   9  146.35   12.79
  10   3  -8   73.68   11.40
 -10   3   8   79.49    7.55
 -10  -3   8   99.72   20.83
 -10  -3   8   74.37    8.19
  10  -3  -8   81.15   12.57
  10   3  -7  273.20   19.42
 -10   3   7  267.21   13.33
 -10  -3   7  278.50   20.61
 -10  -3   7  245.42   12.71
  10  -3  -7  256.17   13.81
  10   3  -6    4.03    4.27
 -10   3   6    2.38    3.94
 -10  -3   6    2.79    1.16
 -10  -3   6    3.59    4.61
  10  -3  -6    6.15    4.70
  10   3  -5  148.83   12.75
 -10   3   5  134.32    7.18
  10  -3  -5   76.84    8.53
  10   3  -4   78.47    9.60
 -10   3   4   61.99    4.77
  10  -3  -4   62.55    6.71
  10  -3  -4   54.44    6.76
  10   3  -3  492.16   26.37
 -10   3   3  463.97   21.28
  10  -3  -3  480.54   21.51
  10  -3  -3  486.54   30.31
  10   3  -2   41.15    8.22
  10  -3  -2   40.51    6.23
  10  -3  -2   49.42   10.33
  10   3  -1 1593.72   74.13
  10   3  -1 1647.14   94.50
  10  -3  -1 1621.03   69.56
  10  -3  -1 1739.44   71.90
  10   3   0  105.00   12.40
  10   3   0  115.40   12.21
  10  -3   0   95.32   16.93
  10  -3   0  106.58    9.89
  10   3   1  643.97   34.22
  10   3   1  659.08   34.11
  10  -3   1  662.61   31.59
  10  -3   1  678.81   31.35
  10  -3   1  636.59   23.80
  10   3   2  149.70   15.09
  10   3   2  141.51   14.84
  10  -3   2  157.13   13.57
  10  -3   2  161.26   13.26
  10   3   3  457.47   27.99
  10   3   3  452.22   43.24
  10  -3   3  435.11   18.87
  10  -3   3  460.14   25.51
  10   3   4    6.45    6.72
  10   3   4    8.08    6.46
  10  -3   4   11.10    3.76
  10  -3   4   14.41    6.05
  10   3   5  262.23   22.54
  10  -3   5  276.11   23.43
  10  -3   5  300.29   35.15
  10   4 -10  247.12   35.43
 -10   4  10  240.37   28.56
 -10  -4  10  233.83   21.20
 -10  -4  10  264.07   24.20
  10  -4 -10  241.77   14.09
  10   4  -9   54.87   18.46
 -10   4   9   58.17    8.49
  10  -4  -9   54.44    6.23
 -10  -4   9   53.54   11.86
  10   4  -8  254.42   30.78
 -10   4   8  239.20   15.51
 -10  -4   8  240.29   20.91
 -10  -4   8  215.62   16.02
  10  -4  -8  228.96   18.25
  10   4  -7   12.74    6.55
 -10   4   7   18.00    4.76
 -10  -4   7   13.54    2.92
 -10  -4   7   17.55   12.72
  10  -4  -7   18.37    3.71
  10   4  -6  956.26   45.40
 -10   4   6  955.26   39.46
 -10  -4   6  833.06   28.57
 -10  -4   6  941.00   46.94
  10   4  -5   96.03   11.24
  10  -4  -5   84.39    6.98
  10  -4  -5   87.57   11.61
  10   4  -4  537.91   41.94
 -10   4   4  540.78   22.49
  10  -4  -4  501.44   29.18
  10  -4  -4  514.12   21.31
 -10   4   3   25.24    6.30
  10  -4  -3   16.63    4.01
  10  -4  -3   13.24    3.89
  10   4  -2  393.55   35.16
 -10   4   2  371.84   16.29
  10  -4  -2  386.76   25.85
  10  -4  -2  410.00   17.92
  10   4  -1   17.64    9.96
  10   4  -1    7.68    5.57
  10  -4  -1   11.79    3.90
  10  -4  -1   11.28    3.98
  10   4   0  293.87   20.60
  10   4   0  318.56   21.05
  10  -4   0  355.73   18.05
  10  -4   0  358.15   17.48
  10   4   1   46.65    9.02
  10   4   1   44.51    8.69
  10  -4   1   52.64    7.41
  10  -4   1   49.52    7.06
  10  -4   1   51.47    6.14
  10   4   2  268.85   19.41
  10   4   2  275.35   19.36
  10  -4   2  269.15   16.49
  10  -4   2  261.69   14.52
  10   4   3   66.05   18.73
  10   4   3   70.77   11.04
  10  -4   3   81.66    9.84
  10  -4   3   71.06    8.14
  10   4   4  130.27   15.54
  10   4   4  135.24   24.93
  10  -4   4  147.80   11.66
  10  -4   4  152.75   13.98
  10   5  -8   21.82    6.60
 -10   5   8    0.69    5.72
 -10  -5   8   15.58   11.90
 -10  -5   8   10.77    3.69
  10  -5  -8   13.07    3.10
  10   5  -7  183.77   26.38
 -10   5   7  185.17   14.69
  10  -5  -7  171.91   13.52
 -10  -5   7  173.53   14.76
 -10  -5   7  210.32   17.79
  10  -5  -7  174.10   13.91
  10   5  -6    5.41    7.22
 -10   5   6    0.08    3.56
  10  -5  -6    0.82    3.49
 -10  -5   6    2.97    2.07
  10  -5  -6    3.24    2.00
  10   5  -5  164.04   23.41
 -10   5   5  171.28   12.47
  10  -5  -5  155.60    8.28
  10  -5  -5  155.71    8.25
  10   5  -4   97.07   13.75
 -10   5   4   25.96    6.29
  10  -5  -4   35.30    4.14
  10  -5  -4   25.89    6.95
  10   5  -3  289.80   29.36
 -10   5   3  307.95   24.43
  10  -5  -3  279.80   12.94
  10  -5  -3  293.36   12.83
  10   5  -2   14.42    5.97
  10   5  -2   11.53    5.98
 -10   5   2   11.29    4.55
  10  -5  -2   20.99    3.59
  10  -5  -2   18.92    6.34
  10   5  -1  231.71   16.79
  10   5  -1  240.24   17.03
  10  -5  -1  222.34   12.32
  10  -5  -1  231.85   11.88
  10   5   0    6.51    5.39
  10   5   0    9.34    5.43
  10  -5   0   13.19    3.92
  10  -5   0   11.94    3.72
  10   5   1  233.93   25.85
  10   5   1  216.27   16.44
  10  -5   1  197.03   20.54
  10  -5   1  205.37   12.51
  10  -5   1  205.69   21.93
  10   5   2   29.39    8.08
  10   5   2   28.34   13.48
  10  -5   2   41.57    6.83
  10  -5   2   36.49   10.80
  10  -5   2   37.37    7.14
  10   6  -4  134.59   12.77
 -10   6   4  136.85   13.14
  10   6  -3   68.95    9.53
 -10   6   3   68.98    9.39
  10   6  -2   62.76    9.38
  10   6  -2   70.46    9.60
 -10   6   2   70.02    9.46
  11   0 -11   29.59    8.77
 -11   0  11   29.00    9.81
  11   0 -10  562.24   33.44
 -11   0  10  600.51   53.65
  11   0  -9   13.48    6.20
 -11   0   9   12.26    7.10
  11   0  -8  736.02   37.93
 -11   0   8  758.69   41.31
  11   0  -7   16.33    5.56
 -11   0   7    9.57    1.45
 -11   0   7   12.28    6.36
  11   0  -6  404.76   36.58
  11   0  -5  247.73   29.60
  11   0  -4  840.71   40.44
  11   0  -3    7.98    5.19
  11   0  -2 1194.75   55.39
  11   0  -2 1180.28   73.90
  11   0  -1   42.80    9.56
  11   0  -1   90.04   17.02
  11   0   0  504.20   29.26
  11   0   0  502.31   28.89
  11   0   1   54.85   17.77
  11   0   1   53.38   10.02
  11   0   2  312.63   24.62
  11   0   2  352.09   24.21
  11   0   3   36.39    9.86
  11   0   4   37.93   10.57
  11   0   5   67.84   13.72
  11   1 -11  335.01   26.34
 -11   1  11  342.72   25.99
  11  -1 -11  325.83   23.25
 -11  -1  11  339.94   29.08
  11   1 -10  369.64   26.75
 -11   1  10  383.66   26.26
  11  -1 -10  356.06   23.77
 -11  -1  10  375.11   28.80
  11   1  -9  314.57   22.44
 -11   1   9  324.66   34.28
  11  -1  -9  261.72   19.21
 -11  -1   9  289.93   24.05
  11   1  -8   10.93    5.64
 -11   1   8   10.93    3.79
 -11   1   8   18.52    5.39
 -11  -1   8    5.33    1.58
  11  -1  -8    6.79    4.87
 -11  -1   8    9.18   10.82
  11   1  -7  496.22   28.23
 -11   1   7  456.62   18.69
 -11  -1   7  459.36   11.12
 -11  -1   7  548.87   31.02
  11  -1  -7  502.76   25.64
  11   1  -6  331.54   21.44
 -11   1   6  302.75   11.23
  11  -1  -6  302.01   29.90
  11   1  -5  547.97   29.77
 -11   1   5  517.63   13.18
  11  -1  -5  548.84   27.57
  11   1  -4  116.50   20.89
  11  -1  -4   96.47   10.75
  11   1  -3  776.84   54.84
  11  -1  -3  738.27   35.73
  11  -1  -3  759.30   36.56
  11   1  -2   91.30   11.66
  11  -1  -2   84.60   10.64
  11  -1  -2   83.17   10.58
  11   1  -1 1326.38   85.14
  11   1  -1 1365.89   65.96
  11  -1  -1 1340.78   62.07
  11  -1  -1 1387.48   63.57
  11   1   0  111.88   24.25
  11   1   0  128.55   14.47
  11  -1   0  141.38   13.67
  11  -1   0  129.43   13.56
  11   1   1  334.73   24.13
  11   1   1  356.27   36.69
  11  -1   1  318.87   22.79
  11  -1   1  324.72   22.35
  11   1   2  104.68   14.88
  11   1   2  104.21   24.13
  11  -1   2  125.79   13.95
  11   1   3   72.84   13.51
  11   1   3  130.30   22.50
  11  -1   3   68.60   12.56
  11   1   4  220.51   35.89
  11  -1   4  235.54   21.75
  11   1   5  119.13   29.00
  11  -1   5  124.00   17.04
  11   2 -11   56.22   12.47
 -11   2  11   65.49   10.53
 -11  -2  11   59.77   13.90
 -11  -2  11   50.69    6.21
  11  -2 -11   50.68    9.16
  11   2 -10   23.63    7.65
 -11   2  10   14.90    4.20
 -11   2  10   17.86   10.64
 -11  -2  10   16.38    8.18
  11  -2 -10   -0.41    9.31
 -11  -2  10    6.58    5.19
  11   2  -9   -3.37    4.07
 -11   2   9   -1.07    3.44
 -11   2   9    1.04    2.10
 -11  -2   9    1.14    2.39
  11  -2  -9    0.55    5.13
 -11  -2   9    7.51    4.52
  11   2  -8  149.98   15.49
 -11   2   8  135.34    8.10
 -11  -2   8  177.91   17.12
 -11  -2   8  138.67    5.70
  11  -2  -8  167.64   12.26
  11   2  -7   25.18    7.74
 -11   2   7   13.76    5.40
 -11  -2   7   22.32    2.34
 -11  -2   7   33.35    8.58
  11  -2  -7   37.54    5.93
  11   2  -6  486.52   28.66
 -11   2   6  470.60   20.03
  11  -2  -6  455.32   23.55
  11   2  -5   11.32    5.72
 -11   2   5    7.40    1.71
  11  -2  -5   16.08    7.73
  11   2  -4  483.34   28.08
 -11   2   4  422.08   15.50
  11  -2  -4  490.99   24.01
  11  -2  -4  504.46   24.24
  11   2  -3   57.55    9.13
  11  -2  -3   37.53    7.50
  11  -2  -3   43.92    7.57
  11   2  -2  535.19   32.14
  11   2  -2  551.89   32.39
  11  -2  -2  630.04   30.26
  11  -2  -2  651.55   30.63
  11   2  -1  216.63   17.83
  11   2  -1  207.44   18.11
  11  -2  -1  196.27   15.46
  11  -2  -1  197.92   15.18
  11   2   0  458.27   28.01
  11   2   0  459.40   28.52
  11  -2   0  448.16   25.59
  11  -2   0  444.35   25.26
  11   2   1   84.00   22.22
  11   2   1  100.11   12.72
  11  -2   1   93.44   11.87
  11  -2   1   84.91   11.49
  11   2   2  360.02   25.81
  11   2   2  367.77   25.82
  11  -2   2  349.59   23.67
  11   2   3  150.63   18.08
  11   2   3  167.34   17.20
  11  -2   3  144.47   16.06
  11   2   4  191.02   19.02
  11   2   4  181.05   20.00
  11  -2   4  140.09   17.73
  11   3 -10   11.47   13.43
 -11   3  10   17.58    5.76
 -11   3  10   20.17    4.99
 -11  -3  10   14.22    3.54
  11  -3 -10    1.40    5.06
 -11  -3  10   21.96    8.52
  11   3  -9  106.30   25.04
 -11   3   9  102.91    9.35
  11  -3  -9  119.00   10.20
 -11  -3   9  135.42   16.60
  11   3  -8   22.88   13.69
 -11   3   8   20.17    4.50
  11  -3  -8   21.42    5.16
 -11  -3   8   26.11   15.28
  11   3  -7  477.50   45.85
 -11   3   7  453.13   27.11
  11  -3  -7  489.38   33.09
 -11  -3   7  552.84   33.07
  11   3  -6   75.11   12.10
 -11   3   6   79.56    6.13
  11  -3  -6   90.35    8.50
  11   3  -5 1438.45   68.89
 -11   3   5 1419.00   60.76
  11  -3  -5 1369.12   59.82
  11  -3  -5 1461.21   62.66
  11   3  -4   71.63   12.08
 -11   3   4   66.46    7.84
  11  -3  -4   89.55   14.25
  11  -3  -4   85.22    8.57
  11   3  -3  479.84   28.19
  11  -3  -3  475.73   23.09
  11  -3  -3  441.95   22.85
  11   3  -2  371.28   23.89
  11   3  -2  374.24   24.25
  11  -3  -2  324.10   19.30
  11  -3  -2  358.30   19.47
  11   3  -1  383.58   24.34
  11   3  -1  382.73   24.51
  11  -3  -1  320.98   19.71
  11  -3  -1  337.25   19.40
  11   3   0   75.24   11.10
  11   3   0   64.95   11.01
  11  -3   0   60.80    9.44
  11  -3   0   71.11    9.11
  11   3   1  247.77   20.38
  11   3   1  268.92   20.29
  11  -3   1  255.84   18.46
  11  -3   1  279.72   18.15
  11  -3   1  240.62   10.62
  11   3   2   73.14   20.52
  11   3   2   78.35   11.89
  11  -3   2   71.96   10.28
  11  -3   2   61.40    9.15
  11   3   3  452.59   32.15
  11   3   3  491.44   32.02
  11  -3   3  527.08   29.89
  11   4  -9   20.39    8.44
 -11   4   9   17.54    5.80
  11  -4  -9   19.34    4.66
 -11  -4   9   24.34    9.18
  11   4  -8  172.60   17.73
 -11   4   8  162.19   12.45
  11  -4  -8  163.56   10.79
 -11  -4   8  192.61   19.55
  11   4  -7   19.29    7.23
 -11   4   7   13.50    4.50
  11  -4  -7   17.79    7.10
 -11  -4   7   12.06    7.87
  11   4  -6   80.80   12.58
 -11   4   6   78.70   12.56
  11  -4  -6   85.91    7.62
  11  -4  -6   86.32    7.86
  11   4  -5  235.30   32.33
 -11   4   5  230.33   12.60
  11  -4  -5  243.96   20.07
  11  -4  -5  238.65   13.54
  11   4  -4  573.36   47.71
 -11   4   4  500.58   21.03
  11  -4  -4  477.27   22.66
  11  -4  -4  513.60   22.77
 -11   4   3   36.03    4.75
  11  -4  -3   44.50    6.07
  11  -4  -3   34.39   10.08
  11   4  -2  403.00   25.69
  11   4  -2  403.83   38.96
  11  -4  -2  372.63   28.61
  11  -4  -2  386.19   27.84
  11   4  -1   32.03    8.55
  11   4  -1   41.95    8.51
  11  -4  -1   26.66   10.43
  11  -4  -1   22.71   10.12
  11   4   0  100.81   12.94
  11   4   0   95.57   12.91
  11  -4   0   97.75   16.52
  11  -4   0  103.88   16.02
  11   4   1   65.46   11.37
  11   4   1   77.52   18.91
  11  -4   1   35.38   15.46
  11  -4   1   79.46    9.01
  11  -4   1   67.97    6.66
  11   4   2  132.24   26.60
  11   4   2  166.36   26.49
  11  -4   2  164.91   14.48
  11  -4   2  160.92   13.54
  11  -4   2  144.56   10.51
 -11   5   6   27.36    5.72
  11   5  -6   24.05    7.77
  11  -5  -6   15.75    3.58
  11  -5  -6   22.22    4.04
  11   5  -5  334.23   22.30
 -11   5   5  315.15   17.67
  11  -5  -5  282.67   13.50
  11  -5  -5  298.67   13.98
  11   5  -4   29.79   13.38
 -11   5   4   23.79    8.84
  11  -5  -4   22.78    4.21
  11  -5  -4   18.61    7.25
  11   5  -3  219.93   26.94
 -11   5   3  165.21   17.72
  11  -5  -3  164.53   10.68
  11  -5  -3  172.84   10.38
  11   5  -2  341.93   29.48
  11   5  -2  250.29   28.74
  11  -5  -2  156.67   17.83
  11  -5  -2  166.65   11.04
  11   5  -1  292.18   22.19
  11   5  -1  306.98   22.25
  11  -5  -1  307.16   16.61
  11  -5  -1  323.82   16.33
  11  -5   0   23.17    5.50
  12   0 -10   93.55   22.58
 -12   0  10   91.83   15.15
  12   0  -9   -3.10    8.38
 -12   0   9    6.03    5.51
  12   0  -8  486.46   45.18
  12   0  -7  262.63   34.12
  12   0  -6 1347.98   87.57
  12   0  -5   42.94    9.26
  12   0  -4  374.16   24.55
  12   0  -3  109.51   13.41
  12   0  -3  106.32   13.21
  12   0  -2  659.50   36.88
  12   0  -2  688.61   38.26
  12   0  -1  124.65   22.47
  12   0  -1   76.02   12.44
  12   0   0  321.64   25.02
  12   0   0  367.47   25.08
  12   0   1  172.39   18.81
  12   0   1  185.55   18.54
  12   0   2    9.51    7.01
  12   0   2    6.21    6.72
  12   0   3  389.11   31.90
  12   0   3  423.18   31.27
  12   1 -10   98.06   23.84
 -12   1  10   70.84    6.21
 -12   1  10  105.39   13.93
 -12  -1  10  114.66   15.66
  12  -1 -10   98.65   12.40
  12   1  -9  148.87   26.52
 -12   1   9  164.91   16.19
 -12   1   9  125.02    7.33
 -12  -1   9  155.59   18.12
  12  -1  -9  138.04   14.09
  12   1  -8   35.73   16.11
  12  -1  -8   32.85   13.96
 -12  -1   8   32.72   10.38
  12   1  -7  251.14   34.01
  12  -1  -7  261.17   30.12
  12   1  -6  224.91   30.95
  12  -1  -6  168.66   26.62
  12   1  -5  438.32   42.94
  12  -1  -5  421.80   25.22
  12   1  -4  350.58   28.79
  12  -1  -4  101.34   13.41
  12   1  -3  312.65   34.61
  12   1  -3  236.97   20.55
  12  -1  -3  232.74   18.58
  12  -1  -3  269.63   30.54
  12   1  -2   86.85   13.69
  12   1  -2   99.84   13.74
  12  -1  -2   97.04   12.40
  12  -1  -2   97.99   12.60
  12   1  -1  447.01   29.85
  12   1  -1  466.83   30.37
  12  -1  -1  466.79   28.06
  12  -1  -1  448.40   28.13
  12   1   0   14.77    7.43
  12   1   0   15.56    7.41
  12  -1   0   17.05   12.29
  12  -1   0   12.58    6.88
  12   1   1  303.85   24.48
  12   1   1  297.76   23.82
  12  -1   1  287.85   22.86
  12  -1   1  270.93   36.02
  12   1   2  166.31   19.93
  12   1   2  177.74   19.63
  12  -1   2  189.50   19.58
  12  -1   2  185.80   30.78
  12   1   3  214.58   22.68
  12   1   3  203.49   21.97
  12  -1   3  214.74   34.95
  12   2 -10   26.98   11.44
 -12   2  10   34.77    9.63
  12  -2 -10   52.81    8.62
 -12  -2  10   46.36   12.66
  12   2  -9   31.32    8.20
 -12   2   9   20.75    6.01
  12  -2  -9    0.31    6.15
 -12  -2   9   29.01    9.29
  12   2  -8  142.17   16.39
 -12   2   8  119.66    7.24
  12  -2  -8  136.09   12.90
 -12  -2   8  169.06   18.11
  12   2  -7   75.92   12.39
 -12   2   7   65.29    7.12
  12  -2  -7   75.90    9.51
  12   2  -6  416.24   26.67
 -12   2   6  332.02   11.56
  12  -2  -6  431.80   33.73
  12   2  -5   81.66   14.17
  12  -2  -5  162.89   20.25
  12   2  -4  413.52   28.13
  12  -2  -4  409.64   23.71
  12  -2  -4  461.05   37.21
  12   2  -3  136.96   17.10
  12  -2  -3  140.84   14.52
  12  -2  -3  307.11   25.68
  12   2  -2 1437.47   72.68
  12   2  -2 1576.27  101.11
  12  -2  -2 1343.56   65.21
  12  -2  -2 1395.05   85.89
  12   2  -1   11.30    7.98
  12  -2  -1   18.62    6.66
  12  -2  -1   22.60   11.42
  12   2   0  312.29   38.59
  12   2   0  354.41   38.95
  12  -2   0  293.23   34.40
  12  -2   0  302.81   34.41
  12   2   1   22.65    8.55
  12   2   1   26.34   14.54
  12  -2   1   23.07   13.27
  12  -2   1   16.17    7.63
  12   2   2   18.65    9.84
  12   2   2   11.88   16.64
  12  -2   2   39.63    9.42
  12  -2   2   30.09    8.89
  12   3  -9  103.80   16.18
  12  -3  -9  116.03   17.32
 -12  -3   9  103.65   17.85
  12   3  -8   49.19   11.26
 -12   3   8   51.43    8.47
  12  -3  -8    0.31   12.55
 -12  -3   8   62.09   12.33
  12   3  -7  115.07   26.97
 -12   3   7  125.97    7.83
  12  -3  -7  110.98   11.03
  12   3  -6  930.86   74.25
 -12   3   6  789.62   38.37
  12  -3  -6  933.98   41.93
  12   3  -5  870.83   63.23
  12  -3  -5  533.49   29.03
  12  -3  -5  640.29   44.89
  12  -3  -4  171.31   24.21
  12  -3  -4  239.75   25.13
  12   3  -3  648.71   39.07
  12  -3  -3  640.03   45.63
  12  -3  -3  666.28   46.05
  12   3  -2   18.47    7.88
  12  -3  -2   11.71   10.57
  12  -3  -2   22.14   10.25
  12   3  -1  144.84   27.40
  12   3  -1  147.88   16.78
  12  -3  -1  147.92   21.78
  12  -3  -1  138.69   21.78
  12   3   0   37.46   10.03
  12   3   0   31.08   16.96
  12  -3   0   18.73   13.80
  12  -3   0   42.68    8.16
  12   3   1   86.27   23.02
  12   3   1   83.51   22.76
  12  -3   1   82.98   11.90
  12  -3   1   82.98   11.63
  12   4  -7   62.58   13.01
  12  -4  -7   70.56    8.22
  12  -4  -7   73.52    7.92
  12   4  -6  526.54   32.91
 -12   4   6  388.90   18.31
  12  -4  -6  488.51   22.69
  12  -4  -6  492.12   23.70
  12   4  -5  148.88   17.23
 -12   4   5  127.58    8.49
  12  -4  -5  173.49   18.42
  12  -4  -5  161.38   11.51
  12   4  -4  513.21   31.44
 -12   4   4  413.06   17.62
  12  -4  -4  472.04   23.73
  12  -4  -4  474.92   23.21
  12   4  -3  124.86   15.70
  12  -4  -3  116.09   10.78
  12  -4  -3  124.53   10.58
  12   4  -2  168.04   18.48
  12   4  -2  244.81   31.62
  12  -4  -2  178.65   13.65
  12  -4  -2  173.50   13.42
  12   4  -1  121.00   15.38
  12   4  -1  130.09   15.74
  12  -4  -1  121.82   11.82
  12  -4  -1  123.85   18.74
  13   0  -9   47.57   11.10
  13   0  -8   81.89   12.86
  13   0  -7   37.07    9.83
  13   0  -6   29.65    8.91
  13   0  -5   12.85    7.11
  13   0  -4  168.35   28.67
  13   0  -4  175.19   18.17
  13   0  -3  218.15   27.24
  13   0  -3   86.20   15.19
  13   0  -2  230.63   35.54
  13   0  -2  242.45   21.41
  13   0  -1  109.25   15.65
  13   0  -1  117.28   26.94
  13   0   0  347.92   27.28
  13   0   0  313.71   42.33
  13   0   1   20.11   15.67
  13   0   1   16.93   15.61
  13   1  -9  196.00   20.86
  13  -1  -9  209.30   30.37
  13   1  -8   52.38   19.76
  13  -1  -8   42.99   17.13
  13   1  -7  349.05   43.02
  13  -1  -7  340.67   24.23
  13   1  -6  125.58   17.98
  13  -1  -6   10.76    8.54
  13   1  -5  170.25   31.27
  13  -1  -5  190.20   17.20
  13   1  -4   71.99   10.71
  13  -1  -4   28.74    9.22
  13  -1  -4   20.88    9.24
  13   1  -3  844.17   68.84
  13   1  -3  742.08   44.17
  13  -1  -3  761.69   42.40
  13  -1  -3  802.07   44.46
  13   1  -2  150.02   18.72
  13   1  -2  151.50   19.11
  13  -1  -2  281.58   30.28
  13  -1  -2  137.38   17.02
  13   1  -1  299.71   24.61
  13   1  -1  312.31   25.44
  13  -1  -1  262.38   36.99
  13  -1  -1  271.18   23.10
  13   1   0   31.20   17.78
  13   1   0   33.12   10.20
  13  -1   0   27.59    9.53
  13  -1   0   24.77    9.35
  13   1   1  133.06   19.26
  13   1   1  145.16   19.14
  13  -1   1  144.55   18.34
  13  -1   1  163.08   18.23
  13   2  -8  194.17   21.30
  13  -2  -8  198.23   26.94
  13   2  -7  103.73   16.11
  13  -2  -7  126.26   21.12
  13   2  -6  197.19   21.22
  13  -2  -6  223.33   28.47
  13   2  -5  132.92   18.08
  13  -2  -5  237.79   25.58
  13  -2  -5  132.65   15.05
  13   2  -4  178.91   19.91
  13  -2  -4  174.73   16.46
  13  -2  -4  224.98   27.54
  13   2  -3   32.08    9.72
  13   2  -3   29.97    9.80
  13  -2  -3   26.84    7.96
  13  -2  -3    7.60   14.00
  13   2  -2   18.77   16.19
  13   2  -2   25.28    9.53
  13  -2  -2   20.96   13.17
  13  -2  -2   22.49    7.59
  13   2  -1    9.45   14.37
  13   2  -1   19.93    8.20
  13  -2  -1   12.38   12.12
  13  -2  -1   12.21    6.93
  13   2   0  169.43   19.51
  13   2   0  154.56   19.85
  13  -2   0  171.04   17.50
  13  -2   0  166.25   17.41
  13   3  -6   14.64    8.78
  13  -3  -6   17.12    6.12
  13  -3  -6   16.39    6.27
  13   3  -5  247.52   39.38
  13  -3  -5  244.61   17.61
  13  -3  -5  249.66   18.31
  13   3  -4  318.37   34.68
  13  -3  -4  132.12   14.29
  13  -3  -4  155.10   14.34
  13   3  -3  127.34   17.11
  13   3  -3  144.88   17.15
  13  -3  -3  102.61   12.69
  13  -3  -3  113.16   12.54
  13   3  -2   76.56   14.09
  13   3  -2   69.25   14.46
  13  -3  -2   90.09   11.33
  13  -3  -2   80.03   11.06
  14   0  -6   43.69   11.25
  14   0  -5   14.90   13.95
  14   0  -5   13.46    8.41
  14   0  -4   41.75   19.99
  14   0  -4   48.14   20.11
  14   0  -3   21.55    9.35
  14   0  -3   21.31    9.54
  14   0  -2  144.09   19.49
  14   0  -2  168.38   19.49
  14   1  -6    4.66   15.02
  14  -1  -6   15.08    7.38
  14   1  -5   93.92   23.70
  14  -1  -5   56.90   21.30
  14  -1  -5   65.33   12.70
  14   1  -4   70.29   13.53
  14   1  -4   68.77   13.62
  14  -1  -4   45.99   21.17
  14  -1  -4   53.45   12.35
  14   1  -3  101.93   15.27
  14   1  -3   95.07   15.55
  14  -1  -3   16.87   24.66
  14  -1  -3   68.23   13.75
;
_shelx_hkl_checksum              1869
loop_
_space_group_symop_id
_space_group_symop_operation_xyz
1 +X,+Y,+Z
2 -X,1/2+Y,-Z
loop_
_atom_site_label
_atom_site_type_symbol
_atom_site_fract_x
_atom_site_fract_y
_atom_site_fract_z
_atom_site_U_iso_or_equiv
_atom_site_adp_type
_atom_site_occupancy
_atom_site_site_symmetry_order
_atom_site_calc_flag
_atom_site_refinement_flags_posn
_atom_site_refinement_flags_adp
Fe1 Fe 0.49491(3) 0.80471(14) 0.74770(3) 0.01865(15) Uani 1 1 d . .
C2 C 0.8098(2) 0.8076(5) 1.0603(3) 0.0177(5) Uani 1 1 d . .
H2 H 0.7794 0.6772 1.0741 0.021 Uiso 1 1 calc R U
C3 C 0.7723(3) 0.8890(4) 0.9389(3) 0.0164(6) Uani 1 1 d . .
C4 C 0.6915(3) 0.7824(6) 0.8285(3) 0.0180(6) Uani 1 1 d . .
C5 C 0.8924(3) 0.9138(4) 1.1646(3) 0.0185(6) Uani 1 1 d . .
C6 C 0.9379(3) 1.1097(5) 1.1428(3) 0.0201(6) Uani 1 1 d . .
C7 C 0.5844(3) 0.7298(5) 0.6145(3) 0.0256(7) Uani 1 1 d . .
H7 H 0.5490 0.7494 0.5202 0.031 Uiso 1 1 calc R U
C8 C 1.0225(3) 1.2154(6) 1.2480(3) 0.0251(7) Uani 1 1 d . .
H8 H 1.0528 1.3462 1.2351 0.030 Uiso 1 1 calc R U
C9 C 0.6324(3) 0.5868(5) 0.8158(3) 0.0230(6) Uani 1 1 d . .
H9 H 0.6367 0.4892 0.8866 0.028 Uiso 1 1 calc R U
C10 C 0.7848(3) 1.1692(5) 0.7879(3) 0.0223(6) Uani 1 1 d . .
H10 H 0.8168 1.2990 0.7754 0.027 Uiso 1 1 calc R U
C11 C 0.8193(3) 1.0863(5) 0.9169(3) 0.0192(6) Uani 1 1 d . .
C12 C 0.8997(3) 1.1912(5) 1.0187(3) 0.0209(6) Uani 1 1 d . .
H12 H 0.9298 1.3215 1.0046 0.025 Uiso 1 1 calc R U
C13 C 1.0603(3) 1.1312(6) 1.3668(4) 0.0274(8) Uani 1 1 d . .
H13 H 1.1167 1.2037 1.4356 0.033 Uiso 1 1 calc R U
C14 C 0.5678(3) 0.5552(5) 0.6839(3) 0.0285(7) Uani 1 1 d . .
H14 H 0.5185 0.4308 0.6463 0.034 Uiso 1 1 calc R U
C15 C 0.9328(3) 0.8301(5) 1.2902(3) 0.0233(7) Uani 1 1 d . .
H15 H 0.9022 0.7009 1.3058 0.028 Uiso 1 1 calc R U
C16 C 0.3008(3) 0.7698(7) 0.7036(4) 0.0373(11) Uani 1 1 d . .
H16 H 0.2493 0.6583 0.6507 0.045 Uiso 1 1 calc R U
C17 C 1.0160(3) 0.9358(5) 1.3886(3) 0.0279(7) Uani 1 1 d . .
H17 H 1.0440 0.8779 1.4715 0.033 Uiso 1 1 calc R U
C18 C 0.7097(3) 1.0694(5) 0.6860(3) 0.0228(7) Uani 1 1 d . .
H18 H 0.6889 1.1287 0.6035 0.027 Uiso 1 1 calc R U
C19 C 0.6612(3) 0.8718(5) 0.7033(3) 0.0189(6) Uani 1 1 d . .
C20 C 0.3579(3) 0.7652(6) 0.8372(4) 0.0366(10) Uani 1 1 d . .
H20 H 0.3531 0.6519 0.8960 0.044 Uiso 1 1 calc R U
C21 C 0.3303(4) 0.9560(7) 0.6576(4) 0.0442(11) Uani 1 1 d . .
H21 H 0.3027 1.0005 0.5664 0.053 Uiso 1 1 calc R U
C22 C 0.4225(4) 0.9529(8) 0.8719(4) 0.0465(11) Uani 1 1 d . .
H22 H 0.4715 0.9959 0.9603 0.056 Uiso 1 1 calc R U
C23 C 0.4044(4) 1.0687(6) 0.7607(5) 0.0502(12) Uani 1 1 d . .
H23 H 0.4386 1.2083 0.7562 0.060 Uiso 1 1 calc R U
loop_
_atom_site_aniso_label
_atom_site_aniso_U_11
_atom_site_aniso_U_22
_atom_site_aniso_U_33
_atom_site_aniso_U_23
_atom_site_aniso_U_13
_atom_site_aniso_U_12
Fe1 0.0154(2) 0.0219(2) 0.0175(2) 0.00095(16) 0.00327(15) -0.00050(17)
C2 0.0152(12) 0.0188(12) 0.0200(13) 0.0033(13) 0.0067(10) 0.0002(14)
C3 0.0133(13) 0.0176(13) 0.0191(15) 0.0006(11) 0.0062(12) 0.0033(10)
C4 0.0154(12) 0.0211(17) 0.0180(14) 0.0007(14) 0.0059(10) 0.0046(13)
C5 0.0138(13) 0.0244(16) 0.0178(15) 0.0006(12) 0.0058(11) 0.0027(11)
C6 0.0146(15) 0.0237(16) 0.0240(17) -0.0037(13) 0.0087(12) -0.0003(11)
C7 0.0273(18) 0.0313(17) 0.0180(16) -0.0002(12) 0.0064(14) 0.0068(12)
C8 0.0168(15) 0.0310(18) 0.028(2) -0.0052(12) 0.0080(13) -0.0051(13)
C9 0.0266(17) 0.0201(15) 0.0205(16) -0.0015(12) 0.0044(13) 0.0037(12)
C10 0.0179(15) 0.0233(16) 0.0280(17) 0.0091(13) 0.0104(13) 0.0040(11)
C11 0.0129(14) 0.0227(15) 0.0233(16) 0.0049(12) 0.0074(12) 0.0024(10)
C12 0.0183(15) 0.0179(15) 0.0284(17) 0.0013(12) 0.0097(13) -0.0001(11)
C13 0.0159(16) 0.043(2) 0.0227(17) -0.0108(15) 0.0045(13) -0.0033(14)
C14 0.037(2) 0.0246(16) 0.0200(17) -0.0025(13) 0.0021(14) 0.0018(13)
C15 0.0185(14) 0.0312(19) 0.0199(15) 0.0031(13) 0.0053(11) 0.0004(12)
C16 0.0169(15) 0.050(3) 0.041(2) 0.0006(19) 0.0026(14) -0.0064(15)
C17 0.0187(15) 0.044(2) 0.0195(16) 0.0027(14) 0.0036(13) 0.0012(13)
C18 0.0176(15) 0.0310(17) 0.0212(16) 0.0120(13) 0.0078(12) 0.0081(12)
C19 0.0145(14) 0.0276(16) 0.0143(15) 0.0037(11) 0.0039(12) 0.0068(10)
C20 0.0240(17) 0.051(3) 0.038(2) 0.0165(18) 0.0149(15) 0.0031(15)
C21 0.026(2) 0.062(3) 0.048(3) 0.030(2) 0.0151(18) 0.0159(17)
C22 0.0200(19) 0.077(3) 0.046(3) -0.030(2) 0.0158(17) -0.0051(18)
C23 0.036(2) 0.029(2) 0.102(4) 0.004(2) 0.045(2) 0.0058(16)
loop_
_atom_type_symbol
_atom_type_description
_atom_type_scat_dispersion_real
_atom_type_scat_dispersion_imag
_atom_type_scat_source
C C 0.0033 0.0016
;
International Tables for Crystallography
(Vol. C, Tables 4.2.6.8 and 6.1.1.4)
;
H H 0.0000 0.0000
;
International Tables for Crystallography
(Vol. C, Table 6.1.1.4)
;
Fe Fe 0.3463 0.8444
;
International Tables for Crystallography
(Vol. C, Tables 4.2.6.8 and 6.1.1.4)
;
loop_
_geom_angle_atom_site_label_1
_geom_angle_atom_site_label_2
_geom_angle_atom_site_label_3
_geom_angle
C22 Fe1 C23 40.5(2)
C22 Fe1 C21 67.75(19)
C23 Fe1 C21 40.0(2)
C22 Fe1 C14 153.28(19)
C23 Fe1 C14 164.71(19)
C21 Fe1 C14 127.45(18)
C22 Fe1 C20 40.79(17)
C23 Fe1 C20 68.21(16)
C21 Fe1 C20 67.88(15)
C14 Fe1 C20 118.92(17)
C22 Fe1 C16 67.82(18)
C23 Fe1 C16 67.47(19)
C21 Fe1 C16 40.07(18)
C14 Fe1 C16 108.39(18)
C20 Fe1 C16 40.32(16)
C22 Fe1 C9 119.06(17)
C23 Fe1 C9 153.51(18)
C21 Fe1 C9 164.74(18)
C14 Fe1 C9 40.70(13)
C20 Fe1 C9 107.57(15)
C16 Fe1 C9 127.23(17)
C22 Fe1 C7 164.87(19)
C23 Fe1 C7 127.26(18)
C21 Fe1 C7 108.38(16)
C14 Fe1 C7 40.62(14)
C20 Fe1 C7 152.95(17)
C16 Fe1 C7 119.38(16)
C9 Fe1 C7 68.61(13)
C22 Fe1 C19 127.44(16)
C23 Fe1 C19 108.54(15)
C21 Fe1 C19 119.68(15)
C14 Fe1 C19 68.10(13)
C20 Fe1 C19 165.12(14)
C16 Fe1 C19 153.32(15)
C9 Fe1 C19 68.45(13)
C7 Fe1 C19 40.50(13)
C22 Fe1 C4 108.31(15)
C23 Fe1 C4 119.89(17)
C21 Fe1 C4 153.72(17)
C14 Fe1 C4 68.02(15)
C20 Fe1 C4 127.22(14)
C16 Fe1 C4 164.79(16)
C9 Fe1 C4 40.51(15)
C7 Fe1 C4 68.25(13)
C19 Fe1 C4 40.64(12)
C3 C2 C5 121.5(3)
C3 C2 H2 119.2
C5 C2 H2 119.2
C2 C3 C11 119.6(3)
C2 C3 C4 123.4(3)
C11 C3 C4 117.0(3)
C9 C4 C19 107.9(3)
C9 C4 C3 131.5(3)
C19 C4 C3 120.6(3)
C9 C4 Fe1 68.92(18)
C19 C4 Fe1 69.62(17)
C3 C4 Fe1 128.2(2)
C2 C5 C15 121.9(3)
C2 C5 C6 118.8(3)
C15 C5 C6 119.2(3)
C12 C6 C8 122.0(3)
C12 C6 C5 119.3(3)
C8 C6 C5 118.7(3)
C14 C7 C19 107.9(3)
C14 C7 Fe1 69.3(2)
C19 C7 Fe1 70.48(19)
C14 C7 H7 126.0
C19 C7 H7 126.0
Fe1 C7 H7 126.0
C13 C8 C6 120.9(4)
C13 C8 H8 119.6
C6 C8 H8 119.6
C14 C9 C4 107.6(3)
C14 C9 Fe1 69.25(18)
C4 C9 Fe1 70.57(18)
C14 C9 H9 126.2
C4 C9 H9 126.2
Fe1 C9 H9 126.2
C18 C10 C11 122.8(3)
C18 C10 H10 118.6
C11 C10 H10 118.6
C12 C11 C3 119.1(3)
C12 C11 C10 121.0(3)
C3 C11 C10 119.9(3)
C11 C12 C6 121.6(3)
C11 C12 H12 119.2
C6 C12 H12 119.2
C8 C13 C17 120.6(3)
C8 C13 H13 119.7
C17 C13 H13 119.7
C7 C14 C9 108.8(3)
C7 C14 Fe1 70.13(19)
C9 C14 Fe1 70.05(18)
C7 C14 H14 125.6
C9 C14 H14 125.6
Fe1 C14 H14 125.6
C17 C15 C5 120.3(3)
C17 C15 H15 119.9
C5 C15 H15 119.9
C21 C16 C20 108.4(4)
C21 C16 Fe1 69.6(2)
C20 C16 Fe1 69.7(2)
C21 C16 H16 125.8
C20 C16 H16 125.8
Fe1 C16 H16 125.8
C15 C17 C13 120.3(3)
C15 C17 H17 119.8
C13 C17 H17 119.8
C10 C18 C19 119.3(3)
C10 C18 H18 120.3
C19 C18 H18 120.3
C7 C19 C18 131.8(3)
C7 C19 C4 107.7(3)
C18 C19 C4 120.5(3)
C7 C19 Fe1 69.02(19)
C18 C19 Fe1 127.6(2)
C4 C19 Fe1 69.74(17)
C16 C20 C22 106.9(4)
C16 C20 Fe1 70.0(2)
C22 C20 Fe1 68.8(2)
C16 C20 H20 126.6
C22 C20 H20 126.6
Fe1 C20 H20 126.6
C23 C21 C16 108.4(4)
C23 C21 Fe1 69.6(2)
C16 C21 Fe1 70.4(2)
C23 C21 H21 125.8
C16 C21 H21 125.8
Fe1 C21 H21 125.8
C23 C22 C20 108.1(4)
C23 C22 Fe1 69.9(2)
C20 C22 Fe1 70.4(2)
C23 C22 H22 125.9
C20 C22 H22 125.9
Fe1 C22 H22 125.9
C21 C23 C22 108.3(4)
C21 C23 Fe1 70.4(2)
C22 C23 Fe1 69.6(2)
C21 C23 H23 125.9
C22 C23 H23 125.9
Fe1 C23 H23 125.9
loop_
_geom_bond_atom_site_label_1
_geom_bond_atom_site_label_2
_geom_bond_distance
Fe1 C22 2.026(4)
Fe1 C23 2.029(4)
Fe1 C21 2.040(4)
Fe1 C14 2.043(4)
Fe1 C20 2.047(4)
Fe1 C16 2.050(4)
Fe1 C9 2.054(3)
Fe1 C7 2.055(3)
Fe1 C19 2.074(3)
Fe1 C4 2.076(3)
C2 C3 1.381(4)
C2 C5 1.414(4)
C2 H2 0.9500
C3 C11 1.446(4)
C3 C4 1.451(4)
C4 C9 1.430(5)
C4 C19 1.441(4)
C5 C15 1.427(4)
C5 C6 1.430(5)
C6 C12 1.407(5)
C6 C8 1.427(5)
C7 C14 1.422(5)
C7 C19 1.429(5)
C7 H7 1.0000
C8 C13 1.364(5)
C8 H8 0.9500
C9 C14 1.425(4)
C9 H9 1.0000
C10 C18 1.345(5)
C10 C11 1.459(4)
C10 H10 0.9500
C11 C12 1.383(4)
C12 H12 0.9500
C13 C17 1.421(5)
C13 H13 0.9500
C14 H14 1.0000
C15 C17 1.376(4)
C15 H15 0.9500
C16 C21 1.401(6)
C16 C20 1.412(6)
C16 H16 1.0000
C17 H17 0.9500
C18 C19 1.441(5)
C18 H18 0.9500
C20 C22 1.419(6)
C20 H20 1.0000
C21 C23 1.393(7)
C21 H21 1.0000
C22 C23 1.404(7)
C22 H22 1.0000
C23 H23 1.0000
loop_
_geom_torsion_atom_site_label_1
_geom_torsion_atom_site_label_2
_geom_torsion_atom_site_label_3
_geom_torsion_atom_site_label_4
_geom_torsion
C5 C2 C3 C11 0.7(4)
C5 C2 C3 C4 177.7(3)
C2 C3 C4 C9 1.3(5)
C11 C3 C4 C9 178.3(3)
C2 C3 C4 C19 -176.8(3)
C11 C3 C4 C19 0.2(4)
C2 C3 C4 Fe1 96.1(4)
C11 C3 C4 Fe1 -86.9(3)
C3 C2 C5 C15 -179.3(3)
C3 C2 C5 C6 -0.2(4)
C2 C5 C6 C12 -0.1(4)
C15 C5 C6 C12 179.0(3)
C2 C5 C6 C8 -179.2(3)
C15 C5 C6 C8 -0.1(4)
C12 C6 C8 C13 -178.5(3)
C5 C6 C8 C13 0.5(5)
C19 C4 C9 C14 0.7(4)
C3 C4 C9 C14 -177.5(3)
Fe1 C4 C9 C14 59.6(2)
C19 C4 C9 Fe1 -58.9(2)
C3 C4 C9 Fe1 122.9(4)
C2 C3 C11 C12 -1.0(4)
C4 C3 C11 C12 -178.2(3)
C2 C3 C11 C10 177.2(3)
C4 C3 C11 C10 0.0(4)
C18 C10 C11 C12 178.2(3)
C18 C10 C11 C3 0.1(4)
C3 C11 C12 C6 0.7(5)
C10 C11 C12 C6 -177.4(3)
C8 C6 C12 C11 178.9(3)
C5 C6 C12 C11 -0.2(5)
C6 C8 C13 C17 -0.1(5)
C19 C7 C14 C9 0.6(4)
Fe1 C7 C14 C9 -59.6(2)
C19 C7 C14 Fe1 60.1(2)
C4 C9 C14 C7 -0.8(4)
Fe1 C9 C14 C7 59.6(2)
C4 C9 C14 Fe1 -60.4(2)
C2 C5 C15 C17 178.3(3)
C6 C5 C15 C17 -0.9(5)
C5 C15 C17 C13 1.4(5)
C8 C13 C17 C15 -0.9(5)
C11 C10 C18 C19 -0.4(5)
C14 C7 C19 C18 178.4(3)
Fe1 C7 C19 C18 -122.3(3)
C14 C7 C19 C4 -0.1(4)
Fe1 C7 C19 C4 59.2(2)
C14 C7 C19 Fe1 -59.4(2)
C10 C18 C19 C7 -177.7(3)
C10 C18 C19 C4 0.7(4)
C10 C18 C19 Fe1 87.6(4)
C9 C4 C19 C7 -0.4(4)
C3 C4 C19 C7 178.1(3)
Fe1 C4 C19 C7 -58.8(2)
C9 C4 C19 C18 -179.1(3)
C3 C4 C19 C18 -0.6(4)
Fe1 C4 C19 C18 122.5(3)
C9 C4 C19 Fe1 58.4(2)
C3 C4 C19 Fe1 -123.1(3)
C21 C16 C20 C22 0.2(5)
Fe1 C16 C20 C22 59.2(3)
C21 C16 C20 Fe1 -59.0(3)
C20 C16 C21 C23 -0.3(5)
Fe1 C16 C21 C23 -59.4(3)
C20 C16 C21 Fe1 59.1(3)
C16 C20 C22 C23 0.1(4)
Fe1 C20 C22 C23 60.0(3)
C16 C20 C22 Fe1 -59.9(3)
C16 C21 C23 C22 0.4(4)
Fe1 C21 C23 C22 -59.5(3)
C16 C21 C23 Fe1 59.9(3)
C20 C22 C23 C21 -0.3(4)
Fe1 C22 C23 C21 60.0(3)
C20 C22 C23 Fe1 -60.3(3)
