#------------------------------------------------------------------------------
#$Date: 2019-11-23 21:18:52 +0200 (Sat, 23 Nov 2019) $
#$Revision: 235051 $
#$URL: file:///home/coder/svn-repositories/cod/cif/4/03/66/4036661.cif $
#------------------------------------------------------------------------------
#
# This file is available in the Crystallography Open Database (COD),
# http://www.crystallography.net/
#
# All data on this site have been placed in the public domain by the
# contributors.
#
data_4036661
loop_
_publ_author_name
'Dziuganowska, Zofia A.'
'\'Slepokura, Katarzyna'
'Volle, Jean-No\"el'
'Virieux, David'
'Pirat, Jean-Luc'
'Kafarski, Pawe\/l'
_publ_section_title
;
 Structural Analogues of Selfotel.
;
_journal_issue                   12
_journal_name_full               'The Journal of organic chemistry'
_journal_page_first              4947
_journal_page_last               4954
_journal_paper_doi               10.1021/acs.joc.6b00220
_journal_volume                  81
_journal_year                    2016
_chemical_formula_moiety         'C6 H6 N O5 P'
_chemical_formula_sum            'C6 H6 N O5 P'
_chemical_formula_weight         203.09
_space_group_crystal_system      monoclinic
_space_group_IT_number           14
_space_group_name_Hall           '-P 2ybc'
_space_group_name_H-M_alt        'P 1 21/c 1'
_atom_sites_solution_hydrogens   difmap
_atom_sites_solution_primary     direct
_atom_sites_solution_secondary   difmap
_audit_creation_method           SHELXL-2013
_cell_angle_alpha                90
_cell_angle_beta                 98.32(3)
_cell_angle_gamma                90
_cell_formula_units_Z            4
_cell_length_a                   5.565(2)
_cell_length_b                   12.901(4)
_cell_length_c                   10.161(3)
_cell_measurement_reflns_used    7224
_cell_measurement_temperature    100(2)
_cell_measurement_theta_max      38.41
_cell_measurement_theta_min      2.56
_cell_volume                     721.8(4)
_computing_cell_refinement
;
CrysAlis RED, Oxford Diffraction Ltd.,
Version 1.171.33.66 (release 28-04-2010 CrysAlis171 .NET)
(compiled Apr 28 2010,14:27:37)
;
_computing_data_collection
;
CrysAlis CCD, Oxford Diffraction Ltd.,
Version 1.171.33.66 (release 28-04-2010 CrysAlis171 .NET)
(compiled Apr 28 2010,14:27:37)
;
_computing_data_reduction
;
CrysAlis RED, Oxford Diffraction Ltd.,
Version 1.171.33.66 (release 28-04-2010 CrysAlis171 .NET)
(compiled Apr 28 2010,14:27:37)
;
_computing_structure_refinement  'SHELXL-2013 (Sheldrick, 2008)'
_computing_structure_solution    'SHELXs-97 (Sheldrick, 2008)'
_diffrn_ambient_temperature      100(2)
_diffrn_measured_fraction_theta_full 1.000
_diffrn_measured_fraction_theta_max 0.905
_diffrn_measurement_device_type
;
Xcalibur PX kappa-geometry diffractometer with an Onyx 
CCD camera 
;
_diffrn_measurement_method       'omega and phi scans'
_diffrn_radiation_type           MoK\a
_diffrn_radiation_wavelength     0.71073
_diffrn_reflns_av_R_equivalents  0.0242
_diffrn_reflns_av_unetI/netI     0.0267
_diffrn_reflns_Laue_measured_fraction_full 1.000
_diffrn_reflns_Laue_measured_fraction_max 0.905
_diffrn_reflns_limit_h_max       9
_diffrn_reflns_limit_h_min       -9
_diffrn_reflns_limit_k_max       22
_diffrn_reflns_limit_k_min       -21
_diffrn_reflns_limit_l_max       17
_diffrn_reflns_limit_l_min       -11
_diffrn_reflns_number            11464
_diffrn_reflns_point_group_measured_fraction_full 1.000
_diffrn_reflns_point_group_measured_fraction_max 0.905
_diffrn_reflns_theta_full        25.242
_diffrn_reflns_theta_max         38.525
_diffrn_reflns_theta_min         2.568
_diffrn_source                   'Enhance (Mo) X-ray Source'
_exptl_absorpt_coefficient_mu    0.368
_exptl_absorpt_correction_T_max  1.000
_exptl_absorpt_correction_T_min  0.917
_exptl_absorpt_correction_type   multi-scan
_exptl_absorpt_process_details
;
CrysAlis RED, Oxford Diffraction Ltd.,
Version 1.171.33.66 (release 28-04-2010 CrysAlis171 .NET)
(compiled Apr 28 2010,14:27:37)
Empirical absorption correction using spherical harmonics,
 implemented in SCALE3 ABSPACK scaling algorithm.
;
_exptl_crystal_colour            colourless
_exptl_crystal_density_diffrn    1.869
_exptl_crystal_description       plate
_exptl_crystal_F_000             416
_exptl_crystal_size_max          0.23
_exptl_crystal_size_mid          0.22
_exptl_crystal_size_min          0.06
_refine_diff_density_max         0.705
_refine_diff_density_min         -0.376
_refine_diff_density_rms         0.086
_refine_ls_extinction_method     none
_refine_ls_goodness_of_fit_ref   1.072
_refine_ls_hydrogen_treatment    constr
_refine_ls_matrix_type           full
_refine_ls_number_parameters     121
_refine_ls_number_reflns         3682
_refine_ls_number_restraints     0
_refine_ls_restrained_S_all      1.072
_refine_ls_R_factor_all          0.0425
_refine_ls_R_factor_gt           0.0320
_refine_ls_shift/su_max          0.001
_refine_ls_shift/su_mean         0.000
_refine_ls_structure_factor_coef Fsqd
_refine_ls_weighting_details
'w=1/[\s^2^(Fo^2^)+(0.0581P)^2^+0.0631P] where P=(Fo^2^+2Fc^2^)/3'
_refine_ls_weighting_scheme      calc
_refine_ls_wR_factor_gt          0.0915
_refine_ls_wR_factor_ref         0.0964
_reflns_Friedel_coverage         0.000
_reflns_number_gt                3025
_reflns_number_total             3682
_reflns_threshold_expression     'I > 2\s(I)'
_cod_data_source_file            jo6b00220_si_003.cif
_cod_data_source_block           10_zd099
_cod_original_sg_symbol_H-M      'P 21/c'
_cod_database_code               4036661
_shelx_space_group_comment
;
The symmetry employed for this shelxl refinement is uniquely defined
by the following loop, which should always be used as a source of
symmetry information in preference to the above space-group names.
They are only intended as comments.
;
_shelx_estimated_absorpt_t_min   0.920
_shelx_estimated_absorpt_t_max   0.978
_shelxl_version_number           2013-4
_shelx_res_file
;
TITL 2d099 in P2(1)/c
CELL 0.71073   5.565   12.901   10.161   90.00   98.32   90.00
ZERR    4.00   0.002    0.004    0.003    0.00    0.03    0.00
LATT  1
SYMM -X, 0.5+Y, 0.5-Z
SFAC C H N O P
UNIT 24 24 4 20 4

L.S. 10
temp -173
size 0.23 0.22 0.06
BOND $h
conf
acta
htab

EQIV $1 -x, -y+1, -z+1
EQIV $2 x+1, -y+1/2, z-1/2
EQIV $3 -x+1, y-1/2, -z+3/2
EQIV $4 x-1, -y+1/2, z+1/2
EQIV $5 -x, y-1/2, -z+3/2

HTAB O1 O3_$1
HTAB O3 O1_$1
HTAB O5 O2_$2
HTAB N1 O2_$3
HTAB C5 O4_$4
HTAB C6 O3_$5

FMAP 2
PLAN 19
WGHT    0.058100    0.063100
FVAR       4.35076
P1    5    0.155752    0.421464    0.670900    11.00000    0.00934    0.00750 =
         0.00857    0.00000    0.00253    0.00039
O1    4    0.286005    0.498586    0.593874    11.00000    0.01415    0.01049 =
         0.01284    0.00233    0.00453   -0.00127
AFIX 147
H1    2    0.198270    0.512818    0.521751    10.50000   -1.50000
AFIX   0
O2    4    0.207368    0.435134    0.821227    11.00000    0.01345    0.01069 =
         0.00848   -0.00144    0.00374   -0.00148
O3    4   -0.120143    0.419123    0.625071    11.00000    0.00926    0.01441 =
         0.01510    0.00070    0.00155    0.00040
AFIX 147
H3    2   -0.152124    0.449770    0.551686    10.50000   -1.50000
AFIX   0
O4    4    0.787422    0.248961    0.371816    11.00000    0.01885    0.01293 =
         0.01843    0.00456    0.01047    0.00299
O5    4    0.859799    0.088868    0.459408    11.00000    0.01577    0.01194 =
         0.01539    0.00216    0.00865    0.00477
AFIX 147
H5    2    0.961671    0.085125    0.406131    11.00000   -1.50000
AFIX   0
N1    3    0.521677    0.110967    0.617687    11.00000    0.01070    0.00873 =
         0.01078    0.00030    0.00326    0.00083
AFIX  43
H1N   2    0.605988    0.053558    0.614371    11.00000   -1.20000
AFIX   0
C2    1    0.564925    0.191498    0.539369    11.00000    0.00980    0.00894 =
         0.00959   -0.00041    0.00259    0.00002
C3    1    0.444438    0.284368    0.548463    11.00000    0.01038    0.00883 =
         0.00958    0.00007    0.00320    0.00025
AFIX  43
H3A   2    0.474062    0.341219    0.493597    11.00000   -1.20000
AFIX   0
C4    1    0.278594    0.294158    0.638944    11.00000    0.00934    0.00869 =
         0.00951   -0.00065    0.00192    0.00003
C5    1    0.227769    0.206864    0.712071    11.00000    0.01134    0.01009 =
         0.01102    0.00066    0.00418    0.00037
AFIX  43
H5A   2    0.107292    0.210162    0.769315    11.00000   -1.20000
AFIX   0
C6    1    0.354494    0.115590    0.700348    11.00000    0.01260    0.00950 =
         0.01148    0.00119    0.00434    0.00047
AFIX  43
H6A   2    0.323004    0.056393    0.750776    11.00000   -1.20000
AFIX   0
C7    1    0.750676    0.179436    0.446745    11.00000    0.01086    0.00999 =
         0.01077   -0.00058    0.00337    0.00062
HKLF 4

REM  2d099 in P2(1)/c
REM R1 =  0.0320 for    3025 Fo > 4sig(Fo)  and  0.0425 for all    3682 data
REM    121 parameters refined using      0 restraints

END

WGHT      0.0583      0.0602

REM Instructions for potential hydrogen bonds
HTAB O1 O3_$1
HTAB O3 O1_$1
HTAB O5 O2_$2
HTAB N1 O2_$3
HTAB C5 O4_$4
HTAB C6 O1_$3
HTAB C6 O3_$5

REM Highest difference peak  0.705,  deepest hole -0.376,  1-sigma level  0.086
Q1    1   0.5057  0.2361  0.5390  11.00000  0.05    0.71
Q2    1   0.2859  0.1613  0.7098  11.00000  0.05    0.70
Q3    1   0.1807  0.4276  0.7549  11.00000  0.05    0.65
Q4    1   0.3670  0.2893  0.5941  11.00000  0.05    0.61
Q5    1   0.2190  0.3487  0.6506  11.00000  0.05    0.54
Q6    1   0.2537  0.2533  0.6840  11.00000  0.05    0.52
Q7    1   0.2265  0.4562  0.6259  11.00000  0.05    0.51
Q8    1  -0.0014  0.4107  0.6544  11.00000  0.05    0.50
Q9    1   0.5546  0.1477  0.5785  11.00000  0.05    0.50
Q10   1   0.8094  0.2174  0.4238  11.00000  0.05    0.44
Q11   1   0.6707  0.1822  0.4944  11.00000  0.05    0.40
Q12   1   0.4360  0.1137  0.6620  11.00000  0.05    0.40
Q13   1   0.8119  0.1402  0.4590  11.00000  0.05    0.38
Q14   1   0.7471  0.2014  0.3912  11.00000  0.05    0.31
Q15   1   0.8262  0.0716  0.5044  11.00000  0.05    0.27
Q16   1   0.2679  0.4706  0.8605  11.00000  0.05    0.27
Q17   1   0.5000  0.0000  0.5000  10.50000  0.05    0.27
Q18   1   0.7625  0.2863  0.4078  11.00000  0.05    0.27
Q19   1   0.3317  0.4351  0.8408  11.00000  0.05    0.25
;
_shelx_res_checksum              43041
_shelx_hkl_file
;
   0   0   2 355.240 22.8940   2
   0   0   2 352.041 20.5892   1
   0   0   3 21.2541 22.1253   2
   0   0   3 7.79467 19.5739   1
   0   0   4 92581.4 1357.20   2
   0   0   4 91351.6 1285.92   1
   0   0  -4 91404.7 902.507   0
   0   0   5 5.85980 25.0989   2
   0   0  -5-2.19445 9.61745   0
   0   0   5 9.80903 22.5196   1
   0   0   6 18330.7 179.580   1
   0   0  -6 17226.8 108.747   0
   0   0   6 17657.1 185.610   2
   0   0   7-7.81787 33.0226   2
   0   0   7 22.1779 29.0943   1
   0   0   8 7292.62 145.051   2
   0   0   8 7495.70 139.112   1
   0   0   9-0.32714 36.4902   1
   0   0   9 6.83422 40.9073   2
   0   0  10 2961.92 104.645   1
   0   0  10 3055.37 112.904   2
   0   0  11-13.6983 47.1308   1
   0   0  11-28.3900 42.3494   2
   0   0  12 4671.56 153.933   2
   0   0  12 4441.96 143.316   1
   0   0  13-20.1323 57.3306   1
   0  -1   1 71.1211 14.1427   0
   0   1   1 77.9488 14.1797   2
   0   1  -1 72.5358 15.0517   0
   0   1   1 76.6563 13.2844   1
   0  -1   1 80.8192 14.2042   0
   0   1  -1 74.1685 15.0012   0
   0   1  -2 44762.3 744.398   0
   0   1   2 44543.0 714.357   2
   0  -1   2 46478.5 754.941   0
   0  -1   2 46292.6 743.833   0
   0   1   2 46463.2 719.863   1
   0  -1   2 46278.5 620.566   1
   0   1  -2 46396.8 759.802   0
   0   1  -3 24857.0 151.892   0
   0  -1   3 24298.6 147.414   0
   0   1   3 23267.9 156.678   2
   0  -1   3 24156.2 138.269   1
   0  -1   3 24431.0 146.330   0
   0  -1   3 24430.9 150.966   2
   0   1   3 24223.6 154.060   1
   0   1   4 13155.8 134.377   2
   0   1  -4 13508.0 122.666   0
   0  -1   4 13610.4 131.149   2
   0  -1   4 13688.9 122.204   1
   0  -1   4 13826.0 116.955   0
   0   1   4 13518.9 131.755   1
   0  -1   5 16307.8 150.478   1
   0   1   5 16285.4 165.585   2
   0   1   5 16641.6 162.100   1
   0  -1   5 16433.6 130.213   0
   0  -1   5 16398.2 162.269   2
   0   1  -5 16793.1 143.007   0
   0  -1   6 1256.50 52.0979   1
   0  -1   6 1159.53 55.3388   2
   0  -1   6 1219.31 37.1292   0
   0   1   6 1203.22 54.9106   1
   0   1   6 1133.35 56.2459   2
   0   1  -6 1229.46 44.6967   0
   0   1   7 7871.94 134.934   1
   0   1  -7 7777.94 105.330   0
   0   1   7 7863.01 140.412   2
   0  -1   7 8058.35 129.375   1
   0  -1   7 7955.52 137.919   2
   0  -1   8 212.153 38.1252   1
   0   1   8 258.375 41.2334   1
   0   1   8 252.449 42.9361   2
   0  -1   8 243.627 43.4836   2
   0  -1   9 670.872 54.2042   1
   0  -1   9 781.813 61.6461   2
   0   1   9 709.665 58.6617   1
   0   1   9 712.804 62.4034   2
   0  -1  10 119.413 47.3197   2
   0   1  10 125.453 47.2379   1
   0   1  10 116.847 49.7045   2
   0  -1  10 138.032 45.3375   1
   0   1  11 5029.14 151.193   2
   0  -1  11 4848.75 137.998   1
   0   1  11 4659.00 140.595   1
   0   1  12 65.7625 53.0864   1
   0  -1  12 57.0055 51.6035   1
   0   1  12 47.4098 57.2935   2
   0   1  13 3846.31 150.214   2
   0   1  13 4343.12 153.481   1
   0  -2   0 1139.22 39.8601   0
   0   2   0 1129.38 38.4076   0
   0   2   0 1054.45 38.2600   0
   0  -2   0 1023.61 36.2629   0
   0   2   0 1092.47 31.2476   2
   0   2   1 41366.5 676.437   2
   0  -2   1 43379.4 880.627   0
   0  -2   1 42803.7 882.648   0
   0  -2  -1 44312.4 772.754   0
   0   2  -1 43057.4 224.355   0
   0   2   1 44363.8 766.648   0
   0   2   1 44004.0 761.428   0
   0  -2  -1 47139.6 792.800   0
   0   2   1 43635.4 677.651   1
   0   2  -1 45019.3 904.204   0
   0   2  -2 10108.0 116.284   0
   0  -2   2 9754.70 112.798   0
   0  -2  -2 10078.2 85.2456   0
   0   2   2 10010.7 96.7325   1
   0  -2   2 9310.39 77.8374   1
   0   2   2 10088.0 81.9579   0
   0  -2  -2 10203.1 85.8625   0
   0   2   2 9494.33 94.9994   2
   0  -2   2 9900.85 114.528   0
   0  -2   3 30686.0 209.633   0
   0  -2   3 32278.1 649.600   1
   0  -2  -3 31135.4 514.063   0
   0   2   3 31282.4 189.463   1
   0   2  -3 31413.7 212.379   0
   0   2   3 30634.4 190.398   2
   0  -2   3 30823.3 206.435   0
   0   2   4 11194.2 130.611   2
   0  -2   4 11760.8 113.565   1
   0  -2   4 11831.8 134.301   0
   0  -2   4 12094.1 137.409   0
   0   2   4 11526.7 131.048   1
   0   2  -4 11189.8 136.530   0
   0   2   5 9812.43 132.745   1
   0  -2   5 9695.92 115.368   1
   0   2   5 9715.46 134.724   2
   0  -2   5 10077.9 127.199   0
   0   2  -5 9964.90 134.290   0
   0  -2   5 9786.20 127.931   0
   0   2   6 2595.85 78.7164   1
   0  -2   6 2523.61 68.9512   1
   0   2   6 2541.67 79.2314   2
   0   2  -6 2642.12 74.4373   0
   0  -2   6 2579.76 69.0727   0
   0  -2   6 2667.54 68.9207   0
   0  -2   7 32605.9 228.903   0
   0  -2   7 31377.0 249.186   1
   0   2   7 32359.8 277.136   1
   0   2   7 31546.5 281.819   2
   0   2  -7 33203.5 259.196   0
   0  -2   8 3068.53 88.6273   1
   0   2   8 3119.93 102.662   2
   0   2   8 3017.05 98.4669   1
   0  -2   9 1080.47 61.7042   1
   0   2   9 1015.32 71.7681   2
   0   2   9 1129.22 70.3593   1
   0   2  10 4831.73 137.345   1
   0   2  10 4893.59 141.447   2
   0  -2  10 4661.66 124.425   1
   0   2  11 12148.8 223.062   1
   0  -2  11 11697.3 202.524   1
   0   2  11 11548.8 222.175   2
   0   2  12 16072.9 271.925   1
   0   2  12 16390.1 279.643   2
   0  -2  12 15511.5 244.714   1
   0   2  13 3271.45 145.481   2
   0   2  13 3298.24 141.443   1
   0   2  14 4988.99 179.685   2
   0   3   0 39.7397 28.6040   0
   0  -3   0 16.0504 27.2344   0
   0   3   0 21.8328 24.8348   2
   0  -3  -1 49433.1 260.323   0
   0   3   1 48774.1 842.083   1
   0   3  -1 47779.0 281.575   0
   0   3   1 48894.5 1015.80   0
   0   3   1 48545.4 864.408   2
   0   3   1 49821.9 258.015   0
   0  -3   1 49726.1 1136.51   0
   0   3   2 64674.9 1085.61   2
   0   3   2 66275.2 1078.55   1
   0   3   2 68830.4 1118.87   0
   0  -3   2 65378.4 341.603   0
   0   3  -2 67077.3 345.941   0
   0  -3  -2 67949.0 1143.61   0
   0   3   2 70062.7 1127.36   0
   0   3  -3 79.0590 30.1208   0
   0  -3   3 73.1148 29.3494   0
   0   3   3 13.4559 11.5056   0
   0   3   3 88.4853 28.4246   2
   0   3   3 114.773 19.6248   0
   0  -3  -3 80.5644 19.4278   0
   0  -3   3 86.0439 20.0822   1
   0   3   3 105.966 27.8881   1
   0   3   4 34587.6 238.387   1
   0  -3   4 34635.2 199.709   1
   0   3   4 33048.3 235.140   2
   0   3   4 34317.6 150.219   0
   0  -3  -4 34150.3 170.549   0
   0   3  -4 33433.8 271.995   0
   0  -3   4 33793.1 265.614   0
   0   3   4 32879.0 590.316   0
   0   3  -5 1133.95 58.4000   0
   0  -3   5 1184.23 56.7901   0
   0  -3   5 1298.82 48.2446   1
   0  -3   5 1157.86 57.2206   0
   0   3   5 1138.25 56.1308   2
   0   3   5 1148.01 54.6679   1
   0  -3   6 54409.5 356.594   0
   0  -3   6 57619.4 363.922   0
   0   3   6 56436.0 362.620   2
   0  -3   6 57598.4 306.888   1
   0   3   6 56652.4 356.451   1
   0   3  -6 57428.3 377.047   0
   0   3   7 9239.78 158.557   1
   0  -3   7 8645.19 143.401   0
   0  -3   7 9142.01 147.160   0
   0  -3   7 9104.83 135.979   1
   0   3  -7 9283.36 159.644   0
   0   3   7 8903.67 157.583   2
   0  -3   8 57.6486 26.6709   0
   0  -3   8 91.0458 31.5482   1
   0   3   8 75.5284 39.3701   1
   0   3   8 39.7576 39.1618   2
   0   3   9 705.817 63.1008   2
   0  -3   9 566.266 49.9853   1
   0   3   9 565.181 60.1974   1
   0   3  10 1027.30 77.7029   1
   0   3  10 1146.30 82.2078   2
   0  -3  10 1069.07 66.5372   1
   0  -3  11 5.41236 41.8557   1
   0   3  11 42.0342 49.2112   1
   0   3  11 1.80837 50.3763   2
   0   3  12 1546.76 102.335   2
   0   3  12 1304.30 96.8141   1
   0   3  13 977.671 90.9563   2
   0   3  13 919.850 89.7469   1
   0   3  14 36.8328 67.8873   2
   0   3  14 71.2486 66.4362   1
   0  -4   0 391.046 43.9960   0
   0   4   0 381.406 40.8141   0
   0   4   0 422.452 33.1980   2
   0  -4  -1 94457.6 1666.24   0
   0   4  -1 92133.0 1760.25   0
   0   4   1 94954.1 1395.15   2
   0  -4   1 95796.3 1804.45   0
   0   4   1 94646.4 1663.99   0
   0   4   2 3014.57 74.5726   0
   0   4   2 2888.28 68.1979   1
   0  -4  -2 3042.34 76.9669   0
   0   4   2 2839.52 68.7791   2
   0   4  -2 2993.34 87.7661   0
   0   4   2 3011.88 74.9622   0
   0  -4   2 2886.39 87.1219   0
   0   4   3 1501.75 56.9498   2
   0  -4   3 1518.96 67.8867   0
   0   4   3 1506.52 55.5626   1
   0   4  -3 1488.69 68.3904   0
   0   4   3 1452.71 51.2131   0
   0  -4  -3 1611.93 55.0207   0
   0  -4   3 1614.98 46.9506   1
   0   4   3 1559.98 52.7318   0
   0   4   4 2291.75 56.0774   0
   0   4   4 2276.32 72.0681   2
   0   4  -4 2540.73 87.6479   0
   0  -4   4 2385.01 84.9299   0
   0  -4  -4 2331.43 60.4067   0
   0  -4   4 2550.01 60.2009   1
   0   4   4 2313.06 72.2132   1
   0  -4  -5 10271.0 109.957   0
   0   4   5 10406.8 93.1721   0
   0   4   5 10481.6 154.161   2
   0  -4   5 10534.3 126.150   1
   0  -4   5 10584.5 172.552   0
   0   4   5 10326.1 151.618   1
   0   4   5 10316.0 94.8241   0
   0   4  -5 10332.5 174.010   0
   0  -4   6 10757.9 137.604   1
   0   4   6 10733.9 165.583   1
   0   4   6 10839.7 168.327   2
   0  -4   6 10742.2 177.778   0
   0   4  -6 10956.8 185.915   0
   0  -4   7 29056.5 239.587   1
   0   4  -7 29699.5 309.861   0
   0   4   7 28806.9 288.492   2
   0  -4   7 29006.9 292.376   0
   0   4   7 29133.5 286.075   1
   0   4   8 2593.46 100.332   1
   0  -4   8 2503.91 82.2223   1
   0   4   8 2489.66 98.5204   2
   0  -4   8 2374.91 89.1276   0
   0   4   9 1271.01 81.5077   1
   0   4   9 1346.03 83.1200   2
   0  -4   9 981.124 62.1464   0
   0  -4   9 1182.41 66.2784   1
   0   4  10-26.0444 47.6898   2
   0  -4  10 22.2412 36.4648   1
   0   4  10 5.70434 46.9232   1
   0   4  11 97.1027 59.5379   2
   0  -4  11 116.819 42.4189   1
   0   4  11 97.4685 53.9563   1
   0   4  12 48.9152 57.7606   1
   0   4  12 47.3092 56.0162   2
   0   4  13 10014.6 243.425   2
   0   4  13 9710.49 236.616   1
   0   4  14 1520.23 115.441   1
   0   4  14 1688.29 122.652   2
   0   5   0 10.2556 30.1271   2
   0   5   0 7.34093 34.1458   0
   0  -5   0 12.0445 30.7317   0
   0  -5  -1 14678.4 189.188   0
   0   5   1 15252.1 157.222   2
   0  -5   1 14935.5 202.259   0
   0   5  -1 14733.6 200.925   0
   0   5   1 15248.3 191.031   0
   0   5   2 314.015 38.0836   0
   0  -5   2 333.507 44.9523   0
   0   5  -2 341.985 45.4602   0
   0   5   2 351.578 35.7765   2
   0  -5  -2 299.642 38.1745   0
   0   5   3 3035.18 81.5240   0
   0   5   3 3112.79 80.1205   1
   0   5   3 3055.30 82.7062   0
   0   5   3 3028.00 82.7784   2
   0   5  -3 3070.45 101.619   0
   0  -5  -3 3276.26 87.1056   0
   0  -5   3 2828.27 98.4298   0
   0   5   4 230.974 29.0122   0
   0   5   4 242.220 35.8327   2
   0  -5  -4 280.307 33.1966   0
   0   5   4 277.821 38.8284   1
   0  -5   4 239.195 28.3987   1
   0   5  -4 217.366 42.4166   0
   0  -5   4 213.922 43.7766   0
   0   5   4 284.119 32.5139   0
   0   5   5 13471.8 183.965   2
   0   5   5 13718.6 181.458   1
   0   5  -5 13946.0 220.382   0
   0  -5  -5 13692.5 153.641   0
   0  -5   5 13689.0 149.751   1
   0   5   5 13874.6 141.968   0
   0  -5   5 13460.7 212.935   0
   0   5   6 388.003 21.8796   0
   0   5   6 425.136 51.4813   1
   0   5  -6 356.698 50.5214   0
   0  -5  -6 391.710 30.5095   0
   0   5   6 454.179 51.3937   2
   0   5   6 380.485 22.2021   0
   0  -5   6 415.297 36.8553   1
   0  -5   6 342.707 51.6698   0
   0  -5   7 1094.40 56.3608   1
   0  -5   7 1179.37 74.4746   0
   0   5   7 1259.36 73.4799   2
   0   5   7 1119.29 69.4701   1
   0   5  -7 1013.60 73.7136   0
   0   5   8 1558.68 85.3504   2
   0  -5   8 1643.27 69.4575   1
   0  -5   8 1743.92 87.6416   0
   0   5   8 1536.37 85.3051   1
   0  -5   9 5450.50 124.921   1
   0  -5   9 5359.59 144.847   0
   0   5   9 5516.72 151.741   1
   0   5   9 5728.37 154.768   2
   0  -5  10 2504.13 94.4819   1
   0   5  10 2464.20 112.681   1
   0  -5  10 2619.25 102.711   0
   0   5  10 2455.67 116.972   2
   0   5  11 222.747 62.1900   1
   0   5  11 173.030 56.3147   2
   0   5  12 599.938 77.9421   2
   0   5  12 526.549 81.3022   1
   0   5  13 790.250 88.4412   1
   0   5  13 800.309 91.0562   2
   0   5  14 578.532 93.3780   1
   0   5  14 751.733 92.8917   2
   0   5  15 917.525 106.035   2
   0   6   0 155665. 2095.98   2
   0   6   0 149023. 2681.03   0
   0  -6   0 150421. 2713.40   0
   0   6  -1 25047.3 285.460   0
   0  -6   1 24663.9 284.003   0
   0   6   1 24227.5 215.925   2
   0   6  -1 25356.5 213.091   2
   0   6   1 24254.5 264.924   0
   0  -6  -1 24644.3 271.915   0
   0  -6  -2 23994.9 259.606   0
   0   6   2 24036.4 254.893   0
   0   6  -2 23688.9 284.703   0
   0   6   2 23737.7 220.830   2
   0  -6   2 24051.2 287.046   0
   0   6   3 8971.12 142.958   2
   0   6   3 9032.86 141.651   1
   0  -6   3 9450.64 185.853   0
   0   6  -3 9455.27 186.972   0
   0  -6  -3 9286.99 159.659   0
   0   6   3 8866.20 153.466   0
   0   6   4 25855.1 246.297   0
   0   6   4 25598.3 249.763   2
   0   6   4 25135.9 245.001   1
   0  -6  -4 24867.6 250.039   0
   0  -6   4 25846.4 206.788   1
   0   6  -4 25188.2 310.178   0
   0   6   4 24922.9 243.943   0
   0  -6   4 25933.1 311.989   0
   0  -6   5 11313.8 212.377   0
   0   6   5 11267.2 174.535   1
   0   6   5 11463.1 152.866   0
   0  -6   5 11644.7 145.828   1
   0  -6  -5 11151.9 162.108   0
   0   6  -5 11312.6 216.624   0
   0   6   5 11341.4 178.214   2
   0   6   5 11376.6 154.214   0
   0  -6   6 40130.5 403.695   0
   0  -6   6 41719.3 288.011   1
   0   6  -6 41492.8 420.786   0
   0  -6  -6 39890.9 285.277   0
   0   6   6 40725.9 344.123   1
   0   6   6 40954.1 350.170   2
   0   6   6 41260.9 253.958   0
   0  -6   7 889.949 53.3727   1
   0   6   7 953.247 70.4684   2
   0   6   7 992.138 69.7613   1
   0   6  -7 945.107 78.1409   0
   0  -6   7 828.609 72.2003   0
   0   6   8 488.125 63.6817   2
   0   6   8 412.686 58.4321   1
   0  -6   8 486.107 45.2278   1
   0  -6   8 366.115 56.2729   0
   0  -6   9 39.5929 42.7968   0
   0  -6   9 68.0904 35.5401   1
   0   6   9 16.9461 50.6622   2
   0   6   9-17.7226 48.0049   1
   0   6  10 954.975 83.4453   2
   0  -6  10 1170.36 82.3893   0
   0   6  10 1244.84 90.6717   1
   0  -6  10 1065.44 68.9854   1
   0   6  11 294.060 72.3555   2
   0   6  11 256.210 65.7909   1
   0   6  12 205.052 68.2091   1
   0   6  12 209.403 69.7853   2
   0   6  13 42.4735 65.8461   2
   0   6  13 97.4954 64.0333   1
   0   6  14 4130.20 180.917   1
   0   6  14 4061.46 181.410   2
   0   6  15 1587.82 131.577   1
   0   6  15 1993.61 137.326   2
   0   7   0 16.1725 31.0637   2
   0  -7   0-2.15740 42.4113   0
   0   7   0 12.0787 36.9937   0
   0   7   1 67.0681 35.1374   2
   0  -7   1 87.3844 41.3942   0
   0  -7  -1 40.7969 37.1562   0
   0   7  -1 90.8734 38.1042   0
   0   7  -1 67.7796 34.4107   2
   0   7   1 72.5794 37.9343   0
   0   7  -2 2149.47 99.4512   0
   0  -7   2 2155.35 102.289   0
   0   7   2 2160.42 79.5357   2
   0  -7  -2 2251.74 95.5442   0
   0   7   2 2131.97 89.5123   0
   0   7   3 21983.1 235.470   2
   0  -7  -3 22914.3 273.117   0
   0  -7   3 23082.0 308.480   0
   0   7   3 21974.8 261.286   0
   0   7  -3 22351.3 307.181   0
   0  -7  -4 8017.52 161.143   0
   0   7  -4 7784.16 188.164   0
   0   7   4 7867.18 153.623   0
   0  -7   4 7619.85 185.219   0
   0   7   4 7948.92 148.617   1
   0   7   4 7672.10 151.177   2
   0  -7   4 8294.10 126.269   1
   0   7   5 61.7838 31.6555   0
   0  -7   5 76.6585 27.6005   1
   0  -7   5 74.6268 42.5380   0
   0  -7  -5 65.7245 33.2631   0
   0   7  -5 85.1101 46.4347   0
   0   7   5 84.9708 39.9573   1
   0   7   5 47.9567 38.2473   2
   0   7   6 38.9343 42.5553   1
   0   7   6 10.9071 45.4576   2
   0   7  -6 49.7914 49.1714   0
   0  -7   6 73.1506 50.2148   0
   0   7   6 52.0484 27.8868   0
   0  -7  -6 22.5039 29.5043   0
   0  -7   6 48.6284 28.2218   1
   0   7   7 12486.1 216.834   2
   0  -7   7 12500.3 174.505   1
   0   7   7 12377.3 214.073   1
   0   7   7 12485.9 140.657   0
   0   7  -7 11842.8 250.372   0
   0  -7   7 12653.2 250.473   0
   0   7   8 536.306 67.0160   2
   0  -7   8 467.032 65.9206   0
   0  -7   8 501.673 51.0807   1
   0   7   8 494.112 63.5585   1
   0  -7   9 5425.54 173.343   0
   0   7   9 5441.61 165.371   2
   0  -7   9 5610.39 131.188   1
   0   7   9 5526.34 163.113   1
   0   7  10 3537.70 142.526   1
   0   7  10 3594.93 144.849   2
   0  -7  10 3139.63 133.217   0
   0   7  11 37.4621 56.4754   1
   0   7  11 79.4607 66.6675   2
   0  -7  11 19.8628 56.6837   0
   0   7  12 668.769 85.0147   2
   0   7  12 642.835 85.1252   1
   0   7  13 70.5127 72.7898   2
   0   7  13 63.2790 74.5006   1
   0   7  14 207.032 85.3151   1
   0   7  14 175.721 79.3137   2
   0   7  15-18.0000 97.6799   2
   0   8   0 24093.9 320.344   0
   0  -8   0 23107.3 314.758   0
   0   8  -1 11253.3 225.477   0
   0   8   1 11740.9 175.000   2
   0   8   1 11430.0 218.850   0
   0   8  -1 11740.1 170.856   2
   0  -8  -1 11424.0 220.849   0
   0  -8   1 11080.5 224.081   0
   0   8   2 1325.80 80.5977   0
   0   8  -2 1302.17 66.6361   2
   0  -8   2 1352.91 89.9726   0
   0   8   2 1396.79 69.5013   2
   0  -8  -2 1333.46 82.7545   0
   0   8  -2 1382.67 91.7177   0
   0  -8  -3 9086.39 189.765   0
   0   8  -3 9002.79 211.217   0
   0  -8   3 9069.06 211.720   0
   0   8   3 9121.78 185.699   0
   0   8   3 8943.55 162.372   2
   0   8  -4 3306.35 140.347   0
   0   8   4 3477.32 116.213   0
   0  -8   4 3357.80 136.723   0
   0   8   4 3588.99 112.032   2
   0  -8  -4 3456.13 120.151   0
   0  -8  -5 4326.05 128.388   0
   0   8   5 4310.96 125.958   2
   0  -8   5 4467.01 157.502   0
   0  -8   5 4223.79 101.113   1
   0   8   5 4550.94 125.737   0
   0   8  -5 3978.29 153.728   0
   0  -8   6 19146.9 212.931   1
   0   8  -6 18476.6 323.265   0
   0  -8   6 18995.6 320.429   0
   0   8   6 19255.7 263.330   1
   0   8   6 18416.5 260.390   2
   0   8   6 19126.4 235.104   0
   0   8  -7 11233.1 263.576   0
   0   8   7 11003.4 160.130   0
   0  -8   7 11287.3 254.101   0
   0   8   7 11037.6 210.006   1
   0  -8   7 11232.2 171.990   1
   0   8   7 11332.2 217.097   2
   0   8   8 13069.4 241.242   1
   0  -8   8 13334.0 279.237   0
   0   8   8 12900.5 239.691   2
   0  -8   8 13209.5 192.944   1
   0  -8   9 2895.44 101.217   1
   0   8   9 2787.25 126.829   2
   0  -8   9 2789.49 138.157   0
   0   8   9 3121.51 132.269   1
   0   8  10 9556.86 229.085   1
   0  -8  10 9947.66 245.083   0
   0   8  10 9885.61 232.370   2
   0   8  11 3623.65 156.437   1
   0   8  11 3507.06 157.494   2
   0  -8  11 3374.02 149.660   0
   0   8  12 669.262 94.2273   2
   0   8  12 619.364 93.6197   1
   0   8  13 1327.92 115.789   2
   0   8  13 1121.62 108.405   1
   0   8  14 2079.83 145.088   2
   0   8  15 998.258 108.597   2
   0   9   0 14.9040 37.9774   2
   0  -9   0-0.57221 45.6142   0
   0   9   0 22.4575 44.7623   0
   0   9  -1 2127.78 86.2026   2
   0  -9  -1 2358.04 115.164   0
   0   9  -1 2177.33 116.143   0
   0   9   1 2299.86 114.583   0
   0  -9   1 2138.30 113.776   0
   0   9   1 2286.01 91.5072   2
   0   9  -2 35780.9 431.437   0
   0  -9   2 36242.4 434.565   0
   0   9   2 36077.9 329.329   2
   0   9  -2 33130.8 307.099   2
   0  -9  -2 35067.9 406.065   0
   0   9   2 36713.4 404.181   0
   0   9   3 2831.02 118.789   0
   0  -9   3 2787.28 131.986   0
   0   9  -3 2789.03 132.862   0
   0   9   3 2906.79 106.973   2
   0  -9  -3 2932.74 123.954   0
   0   9   4 16951.6 264.115   0
   0  -9   4 16331.6 305.292   0
   0   9  -4 15937.4 305.576   0
   0  -9  -4 16570.2 272.061   0
   0   9   4 15950.5 237.176   2
   0  -9   5 2772.33 88.5451   1
   0  -9  -5 2799.21 115.872   0
   0  -9   5 2865.09 140.019   0
   0   9  -5 2773.53 138.663   0
   0   9   5 2755.70 112.622   2
   0   9   5 3008.19 114.266   0
   0  -9   6 6604.70 134.076   1
   0   9   6 6529.47 154.317   0
   0   9   6 6311.00 167.125   2
   0   9  -6 6445.61 209.865   0
   0  -9   6 7205.77 213.467   0
   0  -9   7 558.672 83.0192   0
   0   9   7 654.701 74.4347   2
   0  -9   7 588.088 50.2647   1
   0   9   7 585.472 53.0431   0
   0   9  -7 560.305 83.9658   0
   0  -9   8 4050.82 116.150   1
   0   9   8 4170.82 149.640   2
   0   9   8 4065.89 146.936   1
   0  -9   8 4030.05 172.403   0
   0   9   9 2789.04 132.181   1
   0  -9   9 2898.98 152.309   0
   0   9   9 2662.00 130.551   2
   0  -9  10 163.134 65.0311   0
   0   9  10 84.6225 70.1227   2
   0   9  10 94.9069 66.8366   1
   0   9  11-14.1865 70.3920   2
   0  -9  11 44.1338 74.7156   0
   0   9  12 11.4811 66.9267   2
   0   9  13 81.1086 75.8270   2
   0   9  14 181.891 91.5602   2
   0   9  15 268.952 106.716   2
   0  10   0 39586.7 354.288   2
   0  10   0 40570.9 472.181   0
   0 -10   0 39363.9 467.555   0
   0  10  -1 45307.0 508.070   0
   0  10  -1 48362.7 389.159   2
   0 -10   1 46448.4 514.703   0
   0  10   1 46271.1 391.261   2
   0  10   1 48798.9 505.758   0
   0 -10  -1 45811.2 497.541   0
   0  10   2 2903.58 111.682   2
   0  10   2 3201.52 136.805   0
   0  10  -2 2693.78 136.812   0
   0  10  -2 2719.82 103.649   2
   0 -10  -2 2752.32 130.537   0
   0 -10   2 3126.79 143.152   0
   0  10  -3 61.2969 46.3699   2
   0 -10  -3 127.194 50.8582   0
   0  10   3 114.653 50.2886   0
   0  10   3 70.8047 50.5372   2
   0  10  -3 39.4935 53.9662   0
   0 -10   3 107.066 61.4035   0
   0  10  -4-1.49057 57.2248   0
   0 -10   4 49.7009 57.3557   0
   0  10   4 41.9029 50.1391   2
   0 -10  -4 40.3408 45.3986   0
   0  10   4 66.8345 49.9316   0
   0  10  -5 11077.5 276.633   0
   0  10   5 11704.2 232.188   0
   0 -10   5 11019.6 176.035   1
   0  10   5 11579.6 222.692   2
   0 -10   5 11581.2 279.124   0
   0 -10  -5 11531.3 238.698   0
   0  10   6 738.540 68.2829   0
   0 -10   6 701.258 90.8495   0
   0  10   6 716.045 77.9638   2
   0 -10   6 783.313 57.6743   1
   0  10  -6 606.631 84.3016   0
   0  10   7 10123.9 225.474   2
   0  10   7 10246.7 195.606   0
   0 -10   7 10496.2 275.163   0
   0  10  -7 10257.5 284.771   0
   0 -10   7 10338.6 180.026   1
   0 -10   8 621.844 59.0305   1
   0 -10   8 650.787 96.5118   0
   0  10   8 572.288 50.0760   0
   0  10   8 644.762 84.2915   2
   0 -10   9 1788.37 132.630   0
   0  10   9 1635.98 112.501   2
   0 -10  10 8.77956 79.0835   0
   0  10  10 97.2381 70.4877   2
   0 -10  11 4.60833 81.4166   0
   0  10  11 183.211 74.1470   2
   0 -10  12 2322.45 148.932   0
   0  10  12 2493.44 148.589   2
   0  10  13 1952.68 143.266   2
   0  10  14 140.486 96.3971   2
   0  10  15 2366.55 158.817   2
   0  11   0 38.3211 49.6063   2
   0 -11   0 32.6620 57.2514   0
   0  11   0 58.7955 59.2747   0
   0 -11  -1 176.371 66.5254   0
   0  11   1 123.924 63.6586   0
   0  11   1 169.435 54.5059   2
   0  11  -1 231.997 55.0465   2
   0 -11   1 193.450 64.9261   0
   0  11  -1 192.597 67.0931   0
   0 -11   2 7150.45 224.475   0
   0 -11  -2 7246.80 215.266   0
   0  11  -2 7543.14 170.601   2
   0  11   2 7382.38 173.746   2
   0  11   2 7594.01 217.366   0
   0  11  -2 6778.81 223.723   0
   0 -11   3 31698.9 464.475   0
   0  11  -3 30764.0 336.723   2
   0  11  -3 30492.5 459.118   0
   0 -11  -3 32062.1 437.082   0
   0  11   3 31848.3 425.645   0
   0  11   3 30941.6 352.888   2
   0  11  -4 932.726 105.018   0
   0  11  -4 1054.94 80.5626   2
   0  11   4 1050.24 83.2479   2
   0 -11   4 1061.31 104.351   0
   0 -11  -4 1115.69 93.5188   0
   0  11   4 1184.00 95.6346   0
   0  11   5-7.65014 49.3555   0
   0  11  -5 6.07839 61.6392   0
   0  11   5 5.01811 55.8694   2
   0 -11   5 6.76675 61.1450   0
   0 -11   5 3.39650 36.6365   1
   0 -11   6 746.667 62.4081   1
   0  11  -6 721.774 100.993   0
   0 -11   6 721.962 98.8574   0
   0  11   6 644.562 78.7518   2
   0  11   6 714.615 74.7454   0
   0 -11   7 1605.38 132.747   0
   0  11   7 1791.69 98.5392   0
   0 -11   7 1691.99 81.4375   1
   0  11  -7 1383.75 130.821   0
   0  11   7 1732.63 113.308   2
   0 -11   8 1075.86 119.575   0
   0  11   8 1074.65 100.697   2
   0  11   9 629.679 87.0344   2
   0 -11   9 445.289 89.3419   0
   0 -11  10 6937.48 253.836   0
   0  11  10 7114.05 224.402   2
   0 -11  11 9299.20 284.567   0
   0  11  11 10429.9 274.301   2
   0 -11  12 100.545 109.620   0
   0  11  12 16.5857 84.7202   2
   0  11  13 1854.84 138.615   2
   0  11  14 5125.59 227.762   2
   0  11  15 118.452 128.131   2
   0  12   0 21229.6 296.343   2
   0  12   0 21262.5 386.170   0
   0 -12   0 21819.9 393.138   0
   0  12   1 11143.9 218.250   2
   0 -12  -1 10125.5 272.203   0
   0  12  -1 10466.0 211.105   2
   0 -12   1 10656.5 284.081   0
   0  12  -1 10363.1 282.068   0
   0  12   1 10901.8 278.386   0
   0  12  -2 196.079 74.1339   0
   0  12   2 143.196 63.8356   0
   0  12  -2 80.1386 51.3787   2
   0 -12  -2 117.787 64.8280   0
   0 -12   2 213.923 67.6434   0
   0  12   2 168.895 58.3766   2
   0 -12   3 7.59412 68.7433   0
   0  12  -3-20.3553 72.5946   0
   0  12  -3 11.6496 51.8922   2
   0  12   3-8.43891 65.8909   0
   0  12   3 23.2218 54.0703   2
   0 -12  -3 7.06011 57.1118   0
   0 -12   4 9360.44 275.865   0
   0  12  -4 9631.24 205.100   2
   0  12  -4 9956.24 288.385   0
   0 -12  -4 10043.4 264.106   0
   0  12   4 9264.25 246.007   0
   0  12   4 9923.26 219.168   2
   0  12  -5 3781.08 136.687   2
   0  12  -5 3630.09 188.752   0
   0 -12   5 3533.53 117.069   1
   0  12   5 3897.96 151.354   2
   0  12   5 3462.59 152.794   0
   0 -12   5 3838.39 188.096   0
   0 -12   6 3254.59 113.366   1
   0  12   6 3407.73 146.556   0
   0 -12   6 3366.66 180.699   0
   0  12  -6 3322.71 183.955   0
   0  12   6 3213.67 141.084   2
   0  12   7 2815.26 143.716   2
   0  12   7 2838.75 128.828   0
   0 -12   7 2864.48 109.442   1
   0  12  -7 3040.11 189.119   0
   0 -12   7 3140.45 180.366   0
   0 -12   8 439.961 89.7637   0
   0  12   8 538.776 90.2655   2
   0 -12   9 69.8567 86.5764   0
   0  12   9 208.367 74.9715   2
   0 -12  10 459.121 101.742   0
   0  12  10 350.628 90.4164   2
   0 -12  11 260.869 111.983   0
   0  12  11 262.595 83.5104   2
   0  12  12 5229.77 220.990   2
   0 -12  12 4353.21 220.754   0
   0  12  13 641.853 101.754   2
   0  12  14 4031.31 211.062   2
   0  13   0-14.7456 64.4078   0
   0  13   0 5.95635 55.2979   2
   0 -13   0 53.1498 70.7962   0
   0  13   1 18529.2 378.346   0
   0 -13  -1 17516.4 371.566   0
   0 -13   1 17537.2 382.277   0
   0  13   1 17517.2 287.086   2
   0  13  -1 17157.7 374.246   0
   0  13  -1 16818.5 278.718   2
   0 -13  -2 2251.30 145.610   0
   0  13  -2 2295.57 117.600   2
   0  13   2 2057.79 112.497   2
   0  13   2 2018.12 140.893   0
   0 -13   2 2294.51 152.321   0
   0  13  -2 1999.56 144.656   0
   0 -13  -3 13324.7 322.589   0
   0  13   3 13785.4 317.323   0
   0  13  -3 13203.2 247.429   2
   0  13   3 13752.4 265.190   2
   0 -13   3 14053.2 350.955   0
   0  13  -3 13164.7 341.914   0
   0  13  -4 4080.42 148.653   2
   0  13   4 4085.32 177.954   0
   0  13  -4 4382.00 208.718   0
   0 -13   4 4318.82 206.615   0
   0  13   4 3966.32 155.892   2
   0  13  -5 164.354 62.7395   2
   0  13  -5 237.174 83.4615   0
   0  13   5 154.644 70.2823   0
   0  13   5 281.603 70.1359   2
   0 -13   5 182.972 80.7015   0
   0  13   6 1458.29 112.162   0
   0 -13   6 1321.58 127.580   0
   0  13  -6 1236.41 99.7019   2
   0  13   6 1395.88 111.942   2
   0 -13   6 1357.03 82.0713   1
   0  13  -6 966.890 118.583   0
   0  13   7 110.816 67.1885   0
   0  13  -7 5.49599 93.3924   0
   0  13   7 74.4110 72.3443   2
   0 -13   7 62.8815 84.1751   0
   0  13   8 464.192 89.7070   2
   0 -13   8 523.694 98.7673   0
   0  13   9 541.255 93.9532   2
   0 -13   9 350.898 99.8939   0
   0  13  10 3603.46 181.707   2
   0 -13  10 3242.93 204.238   0
   0 -13  11 654.633 125.649   0
   0  13  11 947.638 112.382   2
   0  13  12 2596.81 170.855   2
   0  13  13 958.699 127.872   2
   0  13  14 1062.02 137.131   2
   0  14   0 11722.8 248.772   2
   0 -14   0 12201.2 337.427   0
   0  14   0 11735.7 326.571   0
   0  14   1 7315.59 259.130   0
   0 -14   1 7911.62 276.223   0
   0 -14  -1 7917.38 269.819   0
   0  14   1 7140.94 198.977   2
   0  14  -1 7451.01 201.623   2
   0  14  -1 7132.80 261.965   0
   0  14  -2 3632.61 144.544   2
   0  14   2 3301.55 181.823   0
   0 -14   2 3169.66 190.369   0
   0 -14  -2 3762.61 194.266   0
   0  14  -2 3526.18 195.368   0
   0  14   2 3323.52 144.413   2
   0 -14   3 658.019 111.250   0
   0  14  -3 785.360 90.1197   2
   0 -14  -3 664.223 97.5454   0
   0  14   3 741.670 90.2231   2
   0  14  -3 776.636 115.550   0
   0  14   3 708.338 106.299   0
   0  14  -4 1159.79 136.495   0
   0  14  -4 1224.13 97.8701   2
   0 -14   4 1193.60 132.650   0
   0  14   4 1216.08 106.928   2
   0  14   4 1240.48 120.181   0
   0  14  -5 161.455 97.1353   0
   0  14   5 186.079 69.8535   0
   0  14  -5 206.875 69.1317   2
   0 -14   5 176.211 87.9613   0
   0  14   5 138.463 76.4870   2
   0 -14   6 4055.36 221.828   0
   0  14  -6 3762.50 221.809   0
   0  14   6 4215.16 182.755   0
   0 -14   6 3944.91 136.271   1
   0  14   6 4109.76 173.616   2
   0  14  -6 4273.73 161.647   2
   0 -14   7 3523.32 210.115   0
   0  14  -7 3967.68 162.259   2
   0  14   7 3844.13 174.069   2
   0  14   7 3477.49 164.388   0
   0  14  -7 3679.65 224.272   0
   0  14   8 3323.93 172.876   2
   0 -14   8 3060.76 202.868   0
   0  14  -8 3516.69 158.962   2
   0 -14   9 115.653 112.772   0
   0  14   9 21.6038 80.0751   2
   0  14  10 88.2591 78.6465   2
   0 -14  10 20.4582 128.962   0
   0  14  11 283.396 93.8596   2
   0  14  12 5127.86 231.789   2
   0  14  13 292.437 108.496   2
   0 -15   0-2.00833 82.1088   0
   0  15   0 43.1719 85.1691   0
   0  15   0-0.62800 72.0217   2
   0 -15  -1 3578.34 199.535   0
   0  15   1 3483.15 195.747   0
   0 -15   1 3164.14 191.904   0
   0  15   1 3658.09 158.518   2
   0  15  -1 3285.50 195.419   0
   0  15  -1 3353.47 149.633   2
   0  15   2 11665.5 265.121   2
   0  15   2 11751.0 335.605   0
   0  15  -2 11247.9 254.826   2
   0  15  -2 11979.6 359.691   0
   0 -15  -2 11009.8 334.744   0
   0 -15   2 11339.3 344.859   0
   0  15  -3 1078.99 100.335   2
   0  15   3 1251.67 129.011   0
   0  15   3 1145.07 108.170   2
   0  15  -3 885.249 135.703   0
   0 -15   3 1106.06 135.396   0
   0 -15   4 3741.41 215.910   0
   0  15   4 3517.03 165.393   2
   0  15  -4 3385.75 152.925   2
   0  15  -4 3820.66 219.964   0
   0  15   4 3727.72 193.213   0
   0  15  -5 2653.96 191.574   0
   0 -15   5 2698.26 189.027   0
   0  15   5 2549.62 148.394   2
   0  15   5 2625.42 166.865   0
   0 -15   5 2514.57 118.986   1
   0  15  -5 2546.65 141.511   2
   0  15   6 403.084 86.8692   2
   0 -15   6 432.247 103.620   0
   0  15  -6 445.549 84.9813   2
   0  15   6 510.650 94.4445   0
   0  15  -6 339.377 110.326   0
   0  15  -7 915.942 154.884   0
   0 -15   7 1115.89 150.094   0
   0  15  -7 1032.99 108.265   2
   0  15   7 1098.71 108.258   0
   0  15   7 1133.29 118.810   2
   0  15   8 2261.06 152.515   2
   0 -15   8 2115.22 189.571   0
   0  15  -8 2241.73 140.978   2
   0  15  -9 103.868 77.3719   2
   0  15   9-60.4132 95.2657   2
   0 -15   9-18.1983 129.782   0
   0  15  10 1882.63 146.130   2
   0  15  11-29.0921 90.4339   2
   0  15  12 637.045 108.044   2
   0  15  13 103.358 131.376   2
   0 -16   0 2690.95 190.293   0
   0  16   0 2888.91 148.130   2
   0  16   0 2783.22 195.624   0
   0  16   1 13881.3 295.948   2
   0  16   1 14280.7 395.118   0
   0  16  -1 14789.2 412.731   0
   0  16  -1 14082.1 297.298   2
   0 -16  -1 13888.6 392.063   0
   0 -16   1 14285.5 403.494   0
   0  16   2 92.5575 101.224   0
   0 -16  -2 130.260 106.349   0
   0  16  -2 184.619 82.7868   2
   0 -16   2 114.510 91.8393   0
   0  16   2 105.246 83.3229   2
   0  16  -2 148.887 104.299   0
   0  16   3 1602.55 146.914   0
   0  16  -3 1410.14 117.254   2
   0 -16   3 1274.32 151.666   0
   0  16  -3 1380.98 155.927   0
   0  16   3 1478.70 126.239   2
   0  16  -4 1127.34 140.775   0
   0  16   4 1230.44 138.206   0
   0  16   4 1381.33 123.335   2
   0 -16   4 1423.28 156.100   0
   0  16  -4 1287.45 114.052   2
   0  16  -5 11707.7 276.625   2
   0 -16   5 12027.1 391.251   0
   0  16   5 11543.7 294.043   2
   0  16   5 11795.7 332.670   0
   0 -16   5 10923.5 236.588   1
   0  16  -5 11341.3 394.187   0
   0 -16   6 39.9933 110.907   0
   0  16   6-37.2458 97.2506   0
   0  16  -6 1.57836 80.9812   2
   0  16   6-67.0814 85.0563   2
   0  16  -6-235.138 133.660   0
   0 -16   7 1115.87 143.965   0
   0  16  -7 792.448 148.282   0
   0  16   7 1202.79 126.281   0
   0  16   7 1299.30 128.672   2
   0  16  -7 1156.35 117.620   2
   0  16  -8 110.256 78.9170   2
   0 -16   8-18.6147 136.985   0
   0  16   8 114.584 91.1204   2
   0  16   9 72.0232 100.013   2
   0  16  10 897.313 128.933   2
   0  16  11 118.207 106.256   2
   0  16  12 12.7393 120.361   2
   0 -17   0 62.9461 119.844   0
   0  17   0 20.8045 70.0529   2
   0  17   0-156.657 115.810   0
   0  17  -1 2237.93 196.996   0
   0  17   1 2164.05 148.929   2
   0  17  -1 2256.46 143.073   2
   0 -17   1 2413.65 197.893   0
   0  17   1 2309.20 189.352   0
   0 -17  -1 2027.44 184.690   0
   0 -17   2 200.134 118.074   0
   0  17  -2 192.948 80.7951   2
   0  17   2 264.364 100.738   0
   0  17  -2 115.907 114.959   0
   0  17   2 341.190 88.5420   2
   0  17   3 7534.77 249.899   2
   0  17   3 7734.54 297.112   0
   0 -17   3 8413.79 331.726   0
   0  17  -3 7931.16 239.606   2
   0  17  -3 8216.71 329.127   0
   0 -17   4 1472.08 161.230   0
   0  17  -4 1557.79 129.828   2
   0  17   4 1362.46 127.241   2
   0  17  -4 1583.07 185.679   0
   0  17   4 1361.02 149.621   0
   0 -17   5 315.119 125.494   0
   0  17   5 532.307 107.468   0
   0  17   5 567.171 100.545   2
   0  17  -5 439.458 141.800   0
   0  17  -5 434.756 89.7792   2
   0 -17   6 330.645 142.596   0
   0  17  -6 240.323 86.3030   2
   0  17   6 382.736 108.799   0
   0  17  -6 319.017 156.568   0
   0  17   6 276.420 98.1909   2
   0  17   7 2058.48 156.948   2
   0  17   7 1600.63 154.677   0
   0 -17   7 2082.71 202.455   0
   0  17  -7 2014.86 148.080   2
   0  17   8 1671.88 152.750   2
   0  17  -8 1286.64 131.066   2
   0  17   9 2398.92 179.665   2
   0  17  10 1126.86 138.315   2
   0  17  11 39.1498 120.783   2
   0  18   0 2674.43 156.308   2
   0  18   0 2785.62 212.988   0
   0 -18   0 2670.43 206.882   0
   0 -18  -1 2050.14 183.700   0
   0  18  -1 2385.40 213.729   0
   0 -18   1 2299.67 193.499   0
   0  18   1 2168.84 186.325   0
   0  18  -1 2292.81 147.870   2
   0  18   1 2119.54 149.887   2
   0 -18   2 10.9046 146.943   0
   0  18  -2 233.634 120.466   0
   0  18   2 9.87186 124.368   0
   0  18   2 69.5216 86.7329   2
   0  18  -2 14.6786 78.6823   2
   0  18  -3 500.719 110.411   2
   0  18   3 692.822 115.271   2
   0  18   3 495.333 126.747   0
   0 -18   3 508.461 125.630   0
   0  18  -3 479.287 126.637   0
   0 -18   4 123.651 146.730   0
   0  18  -4 234.980 86.0585   2
   0  18   4 200.458 124.551   0
   0  18  -4 460.812 155.843   0
   0  18   4 254.413 93.7057   2
   0  18   5 727.400 112.846   2
   0  18  -5 707.768 152.256   0
   0  18  -5 844.910 112.127   2
   0 -18   5 817.222 150.123   0
   0  18   5 753.490 132.807   0
   0  18   6 4325.05 222.395   0
   0  18  -6 3639.38 278.301   0
   0  18  -6 4032.37 200.128   2
   0  18   6 4438.00 216.643   2
   0  18  -7 665.126 108.229   2
   0  18   7 630.056 118.413   2
   0  18   8-27.2835 98.3007   2
   0  18   9 1634.73 154.794   2
   0  18  10 2802.87 196.677   2
   0 -19   0 32.2695 178.156   0
   0  19   0-81.9174 89.6065   2
   0  19   0-180.417 140.089   0
   0  19  -1 187.650 88.4462   2
   0  19   1 104.624 94.4858   2
   0  19   1 80.1226 136.034   0
   0  19  -1 277.082 157.404   0
   0 -19   2-18.6728 169.505   0
   0  19   2 211.578 99.1690   2
   0  19  -2 136.394 82.6320   2
   0  19   2 315.435 148.423   0
   0  19  -2 81.3252 146.379   0
   0  19  -3 10171.2 421.858   0
   0  19   3 10638.0 384.536   0
   0  19  -3 10650.1 292.644   2
   0  19   3 10971.3 306.333   2
   0 -19   3 9881.75 407.875   0
   0  19  -4 246.404 95.8348   2
   0  19   4 114.104 108.891   2
   0  19  -5 2451.52 162.055   2
   0  19   5 2353.38 162.642   2
   0  19   6 300.168 108.591   2
   0  19  -6 44.8986 94.7723   2
   0  19   7 785.297 120.754   2
   0  19  -7 435.235 107.364   2
   0  19   8 76.7482 109.298   2
   0  19   9 83.8161 125.597   2
   0  20   0 751.484 115.718   2
   0  20   1 1500.59 151.937   2
   0  20  -1 1497.81 140.005   2
   0  20  -2 580.901 121.315   2
   0  20   2 675.823 130.355   2
   0  20   3-64.8798 109.663   2
   0  20  -3 129.241 93.7601   2
   0  20   4 39.0675 107.184   2
   0  20  -4-42.4798 96.3391   2
   0  20  -5 148.895 105.626   2
   0  20   5 175.636 100.982   2
   0  20   6 2643.85 192.957   2
   0  20  -6 2285.61 177.254   2
   0  20   7 27.9178 109.919   2
   0  21   0-18.1018 105.483   2
   0  21  -1 970.402 139.275   2
   0  21   1 1120.61 142.699   2
   0  21   2 196.407 100.458   2
   0  21  -2 264.872 101.118   2
   0  21  -3 284.856 107.097   2
   0  21   3 353.486 112.714   2
   0  21  -4 2785.32 186.506   2
   0  21   4 2568.27 190.221   2
   0  21   5 153.339 123.540   2
   0  21  -5 199.104 118.320   2
   0  21   6 794.093 141.918   2
   0  22   0 1567.59 170.509   2
   0  22   1 2019.60 176.534   2
   0  22  -1 2093.40 172.311   2
   0  22   2 3774.73 218.161   2
   0  22  -2 3463.85 219.414   2
   0  22   3 1615.37 177.923   2
   0  22  -3 1242.36 158.545   2
   0  22  -4 609.107 138.658   2
  -1   0  12 2681.90 128.860   2
  -1   0  11 6.58855 39.0570   1
  -1   0  11 52.2017 52.5231   2
  -1   0  10 1742.14 77.0224   1
  -1   0  10 1679.31 94.7514   2
  -1   0   9 5.27987 30.6925   1
  -1   0   9-4.39110 43.5552   2
  -1   0   8 135.013 32.2257   1
  -1   0   8 145.132 45.2267   2
  -1   0   7-5.02262 37.0909   2
  -1   0   7 0.84329 12.9101   0
  -1   0   7-7.26143 24.2895   1
   1   0  -7 2.28757 18.6633   0
  -1   0   6 36073.1 205.115   0
  -1   0   6 35497.7 215.536   1
  -1   0   6 34427.8 282.281   2
   1   0  -6 35770.6 226.509   0
  -1   0   5-3.15369 18.4515   1
  -1   0   5 3.59019 18.0753   0
  -1   0   5 24.6505 31.3449   2
  -1   0   4 1915.65 53.3301   0
  -1   0   4 1973.17 42.0284   1
  -1   0   4 1901.04 62.0111   2
  -1   0   3 2.87064 21.2542   0
  -1   0   3 10.3736 26.3950   2
  -1   0   3 8.93301 12.5707   1
  -1   0   2 85398.1 1287.68   0
  -1   0   2 81423.8 1098.03   2
  -1   0   1 8.95704 22.7950   0
  -1   0   1 33.4663 19.1978   2
  -1   0   0 43.3276 23.2050   0
   1   0   0 54.9725 16.4757   1
   1   0   1 15.3380 21.5658   0
  -1   0  -1 18.7372 24.2672   0
   1   0   1 20.5680 20.7150   1
   1   0   2 286482. 2182.82   1
   1   0   2 287301. 2387.88   0
  -1   0  -2 281736. 2373.68   0
   1   0   3 3.03589 15.4415   2
  -1   0  -3 19.9564 21.3627   0
   1   0   3 12.2487 27.1373   1
   1   0   3 28.7839 19.3062   0
  -1   0  -4 6508.14 95.9956   0
   1   0   4 6572.53 81.1915   2
   1   0   4 6419.97 105.057   1
  -1   0  -5 5.16432 19.9524   0
   1   0   5 5.14361 29.2287   1
   1   0   5 53.4197 21.8626   2
  -1   0  -6 1297.17 46.9489   0
   1   0   6 1302.51 61.3478   1
   1   0   6 1232.72 35.2882   0
   1   0   6 1283.06 50.9325   2
   1   0   7 38.3872 33.9676   1
  -1   0  -7-7.85698 18.9959   0
   1   0   7-2.19041 26.8900   2
   1   0   8 3280.72 92.7337   2
   1   0   8 3373.53 107.258   1
   1   0   9 11.0558 39.1296   1
   1   0   9-12.8389 35.5457   2
   1   0  10 75.1055 43.0454   2
   1   0  10 79.4014 46.0958   1
   1   0  11-11.7585 48.8946   1
   1   0  11 6.56336 42.8078   2
   1   0  12 8248.31 205.378   1
   1   0  13-3.96049 60.8260   1
   1   0  14 181.864 72.9371   1
  -1   1  13 10919.3 252.627   2
  -1   1  12 2822.92 133.015   2
  -1   1  11 3007.86 106.545   1
  -1   1  11 3152.43 129.423   2
  -1   1  10 9137.87 195.474   2
  -1  -1  10 9488.21 197.171   2
  -1  -1  10 9126.13 152.973   1
  -1   1  10 9422.75 166.852   1
  -1  -1   9 3782.84 50.9366   0
  -1  -1   9 5055.95 106.996   1
  -1   1   9 4744.50 136.408   2
  -1  -1   9 5058.87 139.953   2
  -1   1   9 5002.07 116.559   1
  -1  -1   8 3005.92 65.7063   0
  -1   1   8 2872.77 102.092   2
  -1  -1   8 2792.29 75.7290   1
  -1   1   8 2999.35 85.5609   1
  -1  -1   8 3110.03 104.485   2
  -1  -1   7 15080.3 150.814   1
  -1  -1   7 14836.4 151.928   0
  -1   1   7 14863.8 203.279   2
   1   1  -7 14971.8 170.829   0
  -1   1   7 15116.4 166.696   1
   1  -1  -7 14806.8 128.866   0
  -1  -1   7 14710.7 201.026   2
  -1  -1   6 30623.7 264.643   2
   1   1  -6 31687.5 239.913   0
  -1  -1   6 30656.9 191.772   1
  -1   1   6 31181.9 271.327   2
  -1  -1   6 31420.9 223.380   0
  -1   1   6 30920.4 217.606   1
  -1   1   6 31654.3 161.427   0
  -1  -1   5 37978.7 246.653   0
  -1   1   5 39617.1 201.925   0
  -1   1   5 37613.0 275.160   2
  -1   1   5 38241.3 216.334   1
   1   1  -5 40452.1 265.091   0
  -1  -1   5 39911.4 184.782   1
  -1  -1   5 38284.1 274.001   2
  -1  -1   4 37481.4 243.361   2
  -1  -1   4 37843.0 587.417   1
   1   1  -4 38806.7 252.663   0
  -1   1   4 38363.8 827.462   0
  -1  -1   4 38457.9 243.454   0
  -1   1   4 36967.7 188.627   1
  -1   1   4 36433.7 242.757   2
  -1   1   3 33985.3 801.014   0
  -1  -1   3 33063.6 223.008   0
  -1  -1   3 32275.4 206.084   2
  -1   1   3 33294.6 207.814   2
  -1   1   2 26264.9 160.951   2
  -1  -1   2 26285.2 194.613   0
  -1   1   2 27068.4 184.107   0
  -1  -1   1 72275.0 1243.54   0
  -1   1   1 71130.6 857.968   2
  -1   1   1 72279.1 1218.31   0
  -1   1   0 3264.66 70.2029   0
   1  -1   0 3165.61 50.0356   1
   1   1   0 3119.51 43.7536   1
   1  -1   0 3174.12 69.9858   0
   1   1   0 3042.27 65.1374   0
  -1  -1   0 3109.79 67.1862   0
   1   1   1 9287.19 107.487   0
   1  -1   1 9401.89 92.0946   1
   1   1   1 9288.20 89.3362   1
   1   1   1 9270.89 67.0049   2
  -1  -1  -1 9162.60 107.343   0
  -1   1  -1 9628.96 118.383   0
   1  -1   1 9330.38 115.105   0
   1   1   2 177683. 1756.35   1
   1   1   2 182691. 1843.22   0
  -1  -1  -2 172509. 1793.54   0
   1   1   2 176667. 1277.85   2
   1  -1   2 177369. 1743.59   1
   1  -1   2 179881. 2016.20   0
  -1   1  -2 170815. 2001.98   0
   1   1   3 52447.9 958.297   0
   1  -1   3 50621.0 683.851   2
   1  -1   3 51794.5 275.836   0
   1   1   3 51266.1 268.192   1
  -1  -1  -3 52290.1 979.864   0
  -1   1  -3 52199.8 283.176   0
   1  -1   3 50966.0 261.295   1
   1   1   3 51416.0 816.090   2
   1   1   4 7478.96 114.715   1
  -1  -1  -4 7662.26 94.2558   0
   1  -1   4 7416.21 107.321   0
  -1   1  -4 7194.63 111.326   0
   1  -1   4 7483.05 82.8147   2
   1  -1   4 7568.82 112.992   1
   1   1   4 7643.08 94.1425   2
   1  -1   5 23384.8 169.197   2
   1  -1   5 22874.0 187.272   0
   1  -1   5 23078.8 210.986   1
   1   1   5 23020.6 179.642   2
   1   1   5 22392.0 131.568   0
  -1   1  -5 23217.4 202.876   0
  -1  -1  -5 22983.6 158.173   0
   1   1   5 22689.3 214.782   1
   1  -1   6 773.767 41.1799   2
   1   1   6 766.336 53.7369   1
   1   1   6 823.740 45.0872   2
   1  -1   6 791.806 53.0325   1
  -1   1  -6 752.982 43.6066   0
  -1  -1  -6 715.414 30.3313   0
  -1   1  -7 31.5500 24.7395   0
   1   1   7 8.25370 32.8295   1
   1  -1   7 20.3681 28.2045   2
   1  -1   7 4.79593 33.8212   1
   1  -1   7-0.52054 17.2206   0
   1   1   7 30.7966 29.2399   2
   1  -1   8 7989.33 136.571   2
   1   1   8 7981.74 141.628   2
   1  -1   8 6430.54 74.2199   0
   1   1   8 7868.71 159.164   1
   1  -1   8 7709.63 154.672   1
   1   1   9 4662.77 119.799   2
   1   1   9 4477.49 132.974   1
   1  -1   9 4559.39 128.823   1
   1  -1  10 261.945 51.5948   1
   1   1  10 293.511 48.7205   2
   1   1  10 258.763 55.6277   1
   1  -1  11 6849.91 176.517   1
   1   1  11 6440.64 176.403   1
   1   1  11 6777.85 161.649   2
   1  -1  12 2307.42 118.948   1
   1   1  12 2501.04 126.939   1
   1  -1  13 15600.8 286.697   1
   1   1  13 15291.3 293.140   1
   1  -1  14 2882.45 147.434   1
   1   1  14 2795.35 148.764   1
  -1   2  14 1248.64 110.450   2
  -1   2  13 218.879 71.7961   2
  -1   2  12 1847.66 98.6152   1
  -1   2  12 2112.71 117.631   2
  -1   2  11 2006.71 108.279   2
  -1   2  11 1966.53 92.4958   1
  -1  -2  10 21608.4 223.044   1
  -1   2  10 22742.7 262.676   1
  -1   2  10 22163.7 303.050   2
  -1   2   9 21310.2 239.726   1
  -1   2   9 21242.7 279.473   2
  -1  -2   9 21197.8 204.828   1
  -1  -2   9 20986.9 191.286   0
  -1  -2   8 4979.28 103.223   0
  -1  -2   8 4860.27 94.1750   1
  -1   2   8 5160.92 134.262   2
  -1   2   8 5174.63 114.122   1
  -1   2   7 231.809 43.5470   2
  -1  -2   7 234.259 33.7980   0
  -1   2   7 244.485 34.5665   1
  -1  -2   7 225.629 27.7483   1
   1   2  -7 185.668 35.3187   0
  -1   2   6 14280.4 156.820   1
  -1   2   6 13664.0 96.8459   0
   1   2  -6 13928.7 178.743   0
  -1   2   6 13618.0 183.908   2
  -1   2   6 13744.3 96.3951   0
  -1  -2   6 14350.1 173.631   0
  -1  -2   6 14461.7 123.396   1
  -1   2   5 4033.07 95.5480   2
  -1  -2   5 4013.29 93.0579   0
   1   2  -5 4214.44 97.6973   0
  -1   2   5 4103.17 66.4240   0
  -1   2   5 4156.68 80.3583   1
  -1  -2   5 4114.63 58.1302   1
   1   2  -4 15716.3 179.065   0
  -1  -2   4 15161.4 173.852   0
  -1   2   4 15167.4 136.876   0
  -1   2   4 15519.0 134.260   0
  -1  -2   4 15159.3 87.6282   1
  -1   2   4 15265.2 165.805   2
  -1   2   4 15574.9 137.578   1
  -1   2   3 789.914 38.0329   0
  -1   2   3 768.673 39.2361   0
  -1   2   3 757.015 42.0687   2
   1   2  -3 696.357 45.2389   0
  -1  -2   3 670.395 45.0131   0
   1   2  -2 1774.32 62.8071   0
  -1   2   2 1809.83 55.9828   0
  -1  -2   2 1560.34 58.4055   0
  -1   2   2 1766.12 56.9352   0
  -1   2   2 1803.47 50.8931   2
  -1   2   1 17441.6 163.911   0
  -1   2   1 17529.5 118.679   2
  -1  -2   1 16635.6 166.484   0
  -1   2   1 17296.6 161.321   0
  -1   2   0 48871.4 648.578   2
  -1  -2   0 46965.3 1074.97   0
   1   2   0 47189.7 688.495   1
  -1   2   0 48409.2 1101.30   0
   1   2   1 199899. 1692.98   1
   1   2   1 200823. 2118.13   0
  -1   2  -1 200799. 2328.40   0
  -1  -2  -1 201717. 2156.36   0
   1  -2   1 201561. 1773.09   1
   1   2   1 195641. 1524.91   2
  -1   2  -2 53189.7 309.192   0
   1   2   2 52614.2 997.275   1
  -1  -2  -2 53490.1 269.439   0
   1   2   2 49734.9 826.252   2
   1  -2   2 52514.1 987.464   1
   1   2   2 53247.9 262.626   0
  -1   2  -3 51590.3 314.043   0
   1   2   3 49749.9 1082.76   1
   1   2   3 50155.7 909.950   2
   1   2   3 51485.8 246.042   0
   1  -2   3 49644.5 305.663   0
   1  -2   3 49625.4 1049.46   1
  -1  -2  -3 50794.1 253.019   0
  -1  -2  -4 4170.86 71.9104   0
   1  -2   4 4182.52 87.5127   1
   1   2   4 4117.84 76.6011   2
   1   2   4 4348.04 67.0100   0
  -1   2  -4 4391.33 97.9354   0
   1   2   4 4114.12 90.1057   1
   1  -2   4 4184.83 93.8805   0
   1   2   5 6455.42 104.064   2
   1   2   5 6566.75 120.565   1
   1   2   5 6245.54 66.8591   0
   1  -2   5 6319.95 114.788   0
   1  -2   5 6273.62 112.897   1
  -1  -2  -5 6444.30 84.2445   0
   1   2   5 6354.07 66.6977   0
  -1   2  -5 6609.30 122.079   0
   1  -2   6 474.033 39.1581   0
  -1   2  -6 506.459 43.7393   0
   1   2   6 493.345 40.0963   2
  -1  -2  -6 400.248 21.2999   0
   1   2   6 428.281 47.2118   1
   1  -2   6 465.060 44.2972   1
   1  -2   7 8327.10 149.936   1
  -1   2  -7 8079.69 140.757   0
   1   2   7 8362.47 139.499   2
   1   2   7 8334.05 157.280   1
   1   2   8 2424.71 85.0268   2
   1  -2   8 2383.38 91.7763   1
   1   2   8 2248.44 93.8633   1
   1   2   9 10543.5 179.687   2
   1   2   9 10094.5 196.031   1
   1  -2   9 9904.06 184.845   1
   1   2  10 522.748 66.8445   1
   1  -2  10 478.098 60.9270   1
   1   2  10 395.428 51.6577   2
   1   2  11 55.1462 48.8661   2
   1   2  11 128.426 58.0335   1
   1  -2  11 120.735 50.6294   1
   1   2  12 3356.73 145.405   1
   1  -2  12 3573.93 138.799   1
   1   2  12 3633.79 133.127   2
   1  -2  13 1034.79 95.9842   1
   1   2  13 1060.44 101.876   1
   1   2  14 10650.6 263.507   1
   1   2  15 7552.85 236.988   1
  -1   3  15 18.5903 77.9620   2
  -1   3  14 7255.44 226.777   2
  -1   3  13 1240.73 106.629   2
  -1   3  12 15303.0 285.329   2
  -1   3  12 15107.4 248.587   1
  -1   3  11 37.9263 56.5825   2
  -1   3  11 3.69117 42.9844   1
  -1  -3  10 2691.35 81.0094   0
  -1   3  10 2699.21 117.909   2
  -1   3  10 2473.62 99.7800   1
  -1   3   9 11279.2 210.018   2
  -1  -3   9 10868.5 146.366   1
  -1  -3   9 11101.4 167.914   0
  -1   3   9 11390.1 183.797   1
  -1   3   8 32227.9 286.551   1
   1   3  -8 30550.7 305.065   0
  -1   3   8 31334.9 322.783   2
  -1  -3   8 30962.4 291.402   0
  -1  -3   8 30897.2 220.866   1
  -1  -3   7 641.036 34.9113   1
   1   3  -7 580.790 51.6252   0
  -1   3   7 520.155 57.5116   2
  -1  -3   7 538.834 47.9458   0
  -1   3   7 642.685 48.4672   1
  -1  -3   6 34710.6 188.093   1
  -1   3   6 35162.3 172.492   0
  -1  -3   6 33525.6 294.614   0
  -1   3   6 34157.1 170.336   0
  -1   3   6 33396.0 294.181   2
  -1   3   6 34202.5 260.580   1
   1   3  -6 33787.0 306.139   0
  -1   3   5 5875.90 87.1769   0
  -1  -3   5 5540.23 66.4130   1
   1   3  -5 5600.73 123.932   0
  -1  -3   5 5272.91 118.390   0
  -1   3   5 5602.12 99.7586   1
  -1   3   5 5500.75 113.999   2
  -1  -3   4 2583.21 38.8637   1
   1   3  -4 2733.58 87.4708   0
  -1   3   4 2751.20 65.2747   0
  -1   3   4 2535.68 73.5883   2
  -1  -3   4 2623.12 83.9231   0
  -1   3   4 2919.49 70.0010   0
  -1  -3   3 4585.58 106.179   0
  -1   3   3 4709.59 88.5993   0
  -1   3   3 4727.06 91.6119   0
   1   3  -3 4695.39 107.679   0
  -1   3   3 4438.65 86.8617   2
  -1   3   2 89940.4 1560.71   0
  -1   3   2 85349.1 1310.87   2
   1   3  -2 87509.0 431.491   0
  -1  -3   2 87143.7 1715.99   0
  -1   3   2 88357.4 1538.10   0
   1  -3  -1 13988.2 162.055   0
  -1   3   1 14132.9 120.186   2
  -1   3   1 14323.4 163.378   0
  -1  -3   1 14079.3 170.363   0
   1   3  -1 14138.0 90.4456   1
   1   3  -1 13958.9 169.680   0
  -1   3   0 25139.7 224.045   0
  -1   3   0 25918.7 143.524   2
   1   3   0 24510.3 142.116   1
  -1  -3   0 24964.0 218.482   0
   1  -3   0 24888.3 220.809   0
   1   3   0 24436.6 215.827   0
  -1   3  -1 43488.7 685.133   2
   1   3   1 42663.0 273.101   0
   1   3   1 43083.5 214.427   2
  -1   3  -1 41923.8 297.079   0
   1   3   1 43449.4 858.433   1
   1  -3   1 41858.7 293.279   0
  -1  -3  -1 42881.6 277.203   0
   1   3   2 14198.2 139.941   1
   1   3   2 13580.9 149.871   0
   1  -3   2 14041.1 176.271   0
   1   3   2 14624.7 131.327   2
  -1  -3  -2 14651.3 157.793   0
   1   3   2 14224.2 152.380   0
  -1   3  -2 14605.1 183.023   0
   1  -3   2 13887.4 137.708   1
   1   3   3 20.0105 21.5084   0
  -1   3  -3 37.0346 29.8656   0
   1   3   3 19.5432 24.4279   2
  -1  -3  -3 12.0385 21.4802   0
   1  -3   3 62.4696 28.3812   1
   1   3   3 1.63280 20.6387   0
   1  -3   3 27.4491 27.9775   0
   1   3   3 17.4250 24.7644   1
  -1   3  -4 13917.9 189.933   0
   1   3   4 14173.4 168.311   1
   1  -3   4 14172.0 159.463   1
   1  -3   4 14267.5 186.447   0
   1   3   4 14532.8 133.825   0
  -1  -3  -4 14583.0 144.891   0
   1   3   4 13991.9 147.464   2
   1   3   5 1407.17 57.5022   2
   1   3   5 1492.81 38.6816   0
   1  -3   5 1409.26 60.5679   1
   1   3   5 1413.99 38.5793   0
  -1  -3  -5 1423.17 46.0939   0
   1   3   5 1471.16 65.9896   1
  -1   3  -5 1439.76 69.1968   0
   1  -3   6 17688.1 203.043   1
   1   3   6 17681.7 193.333   2
   1   3   6 17669.0 216.947   1
  -1   3  -6 18089.5 226.649   0
  -1  -3  -6 16845.5 131.310   0
   1   3   7 23.2401 38.6382   1
  -1   3  -7-17.3735 32.8941   0
   1   3   7 18.1464 34.5456   2
   1  -3   7 15.2362 34.8625   1
   1  -3   8 746.008 58.4612   1
   1   3   8 715.478 65.0642   1
   1   3   8 723.995 56.7870   2
   1   3   9 3219.00 108.244   2
   1  -3   9 3377.59 113.438   1
   1   3   9 3190.81 119.086   1
   1   3  10 762.317 75.3579   1
   1   3  10 831.470 68.1392   2
   1  -3  10 762.834 70.6294   1
   1  -3  11 199.404 55.1896   1
   1   3  11 199.803 53.2418   2
   1   3  11 241.010 58.9929   1
   1  -3  12 6400.52 178.405   1
   1   3  12 6620.26 178.617   2
   1   3  12 6717.25 197.024   1
   1   3  13 115.246 75.2066   1
   1  -3  13 24.2730 63.5071   1
   1   3  14 1853.49 131.675   1
   1   3  15 77.1664 80.5758   1
  -1   4  16 1516.02 125.884   2
  -1   4  15 434.843 88.9577   2
  -1   4  14 182.465 82.9261   2
  -1   4  13 161.852 70.1098   2
  -1   4  13 162.206 61.0796   1
  -1   4  12 1312.87 105.986   2
  -1   4  12 1325.02 91.9967   1
  -1   4  11 6207.62 182.839   2
  -1   4  11 5889.59 158.921   1
  -1  -4  10 12603.1 198.727   0
  -1   4  10 12813.3 241.095   2
  -1   4  10 13327.2 219.876   1
  -1  -4   9 604.954 56.7885   0
  -1   4   9 581.761 70.2766   2
  -1  -4   9 592.542 40.8130   1
  -1   4   9 627.338 58.5281   1
  -1   4   8 418.453 49.7158   1
   1   4  -8 349.524 49.5875   0
  -1   4   8 396.861 60.2175   2
  -1  -4   8 351.004 33.9729   1
  -1  -4   8 414.629 51.3436   0
  -1  -4   7 4637.33 126.454   0
   1   4  -7 4756.39 132.591   0
  -1  -4   7 4463.52 79.7762   1
  -1   4   7 4524.51 125.416   2
  -1   4   7 4617.33 112.481   1
  -1   4   6 29215.4 254.790   1
  -1   4   6 30121.2 194.269   0
  -1   4   6 30552.4 192.400   0
  -1   4   6 28885.5 281.857   2
  -1  -4   6 29716.7 177.477   1
   1   4  -6 30010.1 312.811   0
  -1  -4   6 29988.9 305.297   0
  -1  -4   5 27402.2 285.506   0
  -1   4   5 26920.2 229.751   1
  -1   4   5 26434.2 206.847   0
  -1   4   5 27184.7 253.141   2
  -1  -4   5 27762.8 153.968   1
  -1   4   5 28101.2 214.762   0
   1   4  -5 27563.7 291.906   0
  -1  -4   4 1576.90 73.7978   0
   1   4  -4 1569.74 74.8592   0
  -1   4   4 1790.92 68.5524   2
  -1   4   4 1704.60 60.7907   0
  -1   4   4 1701.70 60.3763   0
  -1  -4   4 1656.65 36.2547   1
  -1  -4   3 4916.78 119.564   0
  -1   4   3 4988.87 97.5823   2
  -1   4   3 4862.43 102.208   0
   1   4  -3 4935.47 120.751   0
   1  -4  -3 5037.82 103.861   0
  -1   4   3 4701.08 100.388   0
  -1  -4   2 7139.48 140.817   0
   1  -4  -2 7261.94 127.631   0
  -1   4   2 6991.94 104.935   2
   1   4  -2 7231.87 139.870   0
  -1   4   2 7116.50 125.472   0
  -1   4   1 105719. 1439.69   2
  -1   4   1 107574. 1958.75   0
  -1  -4   1 108143. 2061.57   0
   1   4  -1 105966. 505.810   0
   1  -4  -1 112462. 2008.30   0
  -1  -4   0 1794.73 72.3340   0
   1   4   0 1729.47 47.2144   1
   1  -4   0 1736.35 71.5613   0
  -1   4   0 1765.31 74.0051   0
   1   4   0 1702.30 68.7786   0
  -1   4   0 1830.26 49.7029   2
   1   4   1 20513.9 211.560   0
  -1   4  -1 20588.5 143.113   2
   1   4   1 20045.9 163.012   1
   1   4   1 20460.1 168.795   2
   1  -4   1 19994.4 225.944   0
  -1   4  -1 20664.1 230.819   0
  -1  -4  -1 20572.8 214.922   0
   1   4   2 54680.6 283.837   2
   1  -4   2 57677.3 388.832   0
  -1   4  -2 57007.1 390.234   0
   1   4   2 56361.1 1174.73   1
   1  -4   2 56035.4 1150.28   1
  -1  -4  -2 56598.2 342.842   0
   1   4   2 55768.4 334.414   0
  -1   4  -3 3664.65 107.421   0
   1   4   3 3707.22 85.2323   0
   1  -4   3 3457.28 102.181   0
   1  -4   3 3580.52 81.0376   1
   1   4   3 3752.86 86.9882   1
   1   4   3 3808.56 82.3779   2
   1   4   3 3633.59 86.3130   0
  -1  -4  -3 3699.10 89.2437   0
   1   4   4 8470.15 118.206   0
   1   4   4 8860.61 128.302   2
   1   4   4 8686.54 119.944   0
   1  -4   4 8549.94 160.250   0
  -1  -4  -4 9113.15 131.237   0
   1  -4   4 8468.54 128.561   1
  -1   4  -4 8577.61 166.122   0
   1   4   4 8326.40 137.123   1
  -1  -4  -5 47.3606 20.9260   0
  -1   4  -5 64.3426 35.4953   0
   1   4   5 24.8460 16.1676   0
   1  -4   5 51.2920 34.6233   0
   1   4   5 18.1625 29.7125   2
   1  -4   5 35.8828 29.3790   1
   1   4   5 17.9567 31.5265   1
   1  -4   6 15812.7 195.929   1
  -1   4  -6 15288.2 229.649   0
  -1  -4  -6 15509.3 144.790   0
   1  -4   6 15742.6 223.003   0
   1   4   6 15489.9 209.798   1
   1   4   6 15730.5 194.064   2
   1   4   6 13389.3 95.8696   0
   1   4   6 14183.7 94.7921   0
  -1   4  -7 772.585 62.9975   0
   1  -4   7 834.532 58.4349   1
   1   4   7 739.787 57.7644   2
   1   4   7 741.427 61.7511   1
   1   4   8 12545.0 196.249   2
   1  -4   8 11737.4 190.427   1
   1   4   8 12174.5 211.218   1
   1   4   9 411.315 61.2153   1
   1   4   9 439.885 53.9445   2
   1  -4   9 389.783 54.6758   1
   1  -4  10 106.863 48.4116   1
   1   4  10 79.4470 43.9718   2
   1   4  10 154.362 56.5853   1
   1   4  11 1784.62 99.6127   2
   1   4  11 1967.06 113.740   1
   1  -4  11 1815.74 101.382   1
   1  -4  12 61.7399 54.6320   1
   1   4  12 85.4302 54.4508   2
   1   4  12 82.0142 67.2319   1
   1   4  13 1672.08 121.838   1
   1   4  14 595.907 99.1324   1
   1   4  15 6218.40 233.899   1
  -1   5  16 188.643 100.316   2
  -1   5  15 43.2831 83.8006   2
  -1   5  14 2549.93 148.186   2
  -1   5  13 975.980 93.4933   1
  -1   5  13 1205.79 109.087   2
  -1   5  12 3630.67 157.852   2
  -1   5  12 3342.66 135.066   1
  -1   5  11 1396.45 102.767   2
  -1  -5  11 1245.90 74.8971   0
  -1   5  11 1368.71 90.9678   1
  -1   5  10 59.9535 60.2592   2
  -1   5  10 83.4592 48.0556   1
  -1  -5  10 72.3331 41.1885   0
  -1   5   9 1615.09 93.5466   2
  -1   5   9 1493.35 84.1469   1
  -1  -5   9 1580.21 88.9943   0
  -1  -5   8 16249.8 254.182   0
  -1  -5   8 16549.5 162.123   1
  -1   5   8 16694.3 231.618   1
  -1   5   8 16343.0 248.165   2
   1   5  -8 16043.5 262.934   0
  -1   5   7 19365.4 255.574   2
  -1  -5   7 18989.7 161.071   1
  -1   5   7 19277.2 143.098   0
   1   5  -7 19436.1 281.874   0
  -1  -5   7 20957.3 282.420   0
  -1   5   7 18216.1 141.290   0
  -1   5   7 19827.4 235.010   1
  -1   5   6 11926.5 146.139   0
  -1   5   6 12249.1 192.118   2
  -1  -5   6 11858.5 210.823   0
   1   5  -6 12133.0 218.897   0
  -1  -5   6 12281.8 120.010   1
  -1   5   5 13637.5 169.948   0
  -1  -5   5 13304.9 116.612   1
  -1  -5   5 13412.7 218.962   0
  -1   5   5 14835.2 198.184   2
   1   5  -5 13140.0 221.564   0
  -1   5   5 13503.2 165.795   0
   1   5  -4 13423.0 217.304   0
   1  -5  -4 13770.1 181.412   0
  -1   5   4 13033.8 175.398   0
  -1   5   4 13613.7 177.408   2
  -1   5   4 14251.5 180.174   0
  -1  -5   4 11334.9 103.529   1
  -1  -5   4 13579.6 215.349   0
   1   5  -3 169635. 2942.27   0
   1  -5  -3 168892. 2587.40   0
  -1  -5   3 162419. 2872.26   0
  -1   5   3 169029. 2533.92   0
  -1   5   3 162702. 2251.57   2
  -1  -5   2 18090.3 236.826   0
  -1   5   2 17925.9 179.395   2
   1   5  -2 17939.6 235.787   0
   1  -5  -2 18200.8 220.250   0
  -1   5   2 18162.7 217.268   0
  -1  -5   1 12870.0 197.454   0
  -1   5   1 13557.0 144.388   2
  -1   5   1 13407.5 192.585   0
   1  -5  -1 13415.5 194.086   0
   1   5  -1 12438.9 192.558   0
   1   5   0 5996.58 131.609   0
  -1   5   0 6088.83 94.0136   2
   1   5   0 6039.32 90.2145   1
  -1   5   0 5890.77 133.186   0
  -1  -5   0 6298.15 136.970   0
   1  -5   0 5961.01 134.276   0
   1   5   1 5416.67 99.7694   2
  -1   5  -1 5142.38 129.410   0
   1   5   1 5439.32 93.6386   1
   1   5   1 5517.89 123.301   0
   1  -5   1 5481.08 133.149   0
  -1   5  -1 5413.66 86.4677   2
  -1  -5  -1 5376.30 125.198   0
   1   5   2 587.504 44.1050   1
  -1   5  -2 602.666 58.1452   0
   1   5   2 591.357 43.1275   2
   1   5   2 572.862 45.7206   0
   1  -5   2 577.656 53.5225   0
  -1   5  -2 691.806 37.2692   2
  -1  -5  -2 618.567 49.4613   0
  -1  -5  -3 179.018 32.7354   0
  -1   5  -3 184.944 43.6480   0
   1   5   3 175.365 32.3630   2
   1  -5   3 208.215 33.2819   1
   1  -5   3 242.795 43.8652   0
   1   5   3 230.082 36.4483   1
   1   5   3 211.258 33.0693   0
  -1  -5  -4 275.577 34.3424   0
   1   5   4 330.154 35.7093   0
   1  -5   4 315.531 38.6616   1
  -1   5  -4 259.140 49.1129   0
   1   5   4 316.212 40.2132   2
   1   5   4 281.019 34.2244   0
   1  -5   4 316.917 46.9455   0
   1   5   4 294.176 40.5221   1
   1   5   5 522.995 46.7150   2
  -1   5  -5 588.277 59.5626   0
   1   5   5 271.647 28.0855   0
   1   5   5 556.463 37.9725   0
   1   5   5 540.949 51.9907   1
   1  -5   5 557.841 44.9665   1
  -1  -5  -5 504.402 41.0948   0
   1  -5   5 542.960 55.6843   0
   1   5   6 3067.03 103.091   1
   1  -5   6 3164.51 114.111   0
  -1  -5  -6 3010.22 77.0921   0
  -1   5  -6 3311.78 120.700   0
   1   5   6 3076.73 97.6381   2
   1  -5   6 3329.02 97.2317   1
   1   5   6 2856.27 63.4301   0
   1   5   6 3042.27 63.3834   0
   1  -5   7 4871.96 122.586   1
   1   5   7 4869.53 124.961   2
   1  -5   7 4800.98 140.433   0
   1   5   7 4709.52 134.062   1
  -1   5  -7 4827.07 148.618   0
   1   5   8 11038.1 208.162   1
   1  -5   8 10800.8 187.116   1
   1   5   8 10870.2 192.172   2
   1   5   9 4207.80 140.841   1
   1  -5   9 4036.27 125.089   1
   1   5   9 4074.65 130.555   2
   1   5  10 958.081 89.8391   1
   1   5  10 1094.51 82.5633   2
   1  -5  10 1049.55 79.5066   1
   1   5  11 6751.21 196.245   1
   1   5  11 6512.07 178.192   2
   1  -5  11 6432.24 169.683   1
   1  -5  12 6483.12 179.005   1
   1   5  12 6614.30 205.135   1
   1   5  12 6780.38 191.292   2
   1   5  13 2070.36 131.182   1
   1   5  14 1212.20 117.337   1
   1   5  15 497.769 96.0718   1
  -1   6  16 1297.27 129.810   2
  -1   6  15 52.0617 88.9146   2
  -1   6  14 816.137 97.1939   2
  -1   6  13 1082.77 105.508   2
  -1   6  12 548.721 91.2095   2
  -1  -6  11-2.62863 51.8687   0
  -1   6  11 21.5608 60.2878   2
  -1  -6  10 3031.42 126.295   0
  -1   6  10 2899.50 120.730   1
  -1   6  10 3020.93 132.309   2
  -1   6   9 1472.58 87.6684   1
  -1   6   9 1214.10 93.2050   2
  -1  -6   9 1342.84 91.3077   0
   1   6  -8 5587.08 171.554   0
  -1   6   8 5768.63 158.422   2
  -1  -6   8 5752.85 166.936   0
  -1  -6   7-19.1536 46.2508   0
  -1  -6   7 12.3403 22.1329   1
  -1   6   7 28.2470 45.5839   2
   1   6  -7-34.1498 43.3629   0
  -1   6   7-1.75044 21.3305   0
  -1  -6   6 13443.1 134.012   1
  -1   6   6 13297.8 209.150   2
   1   6  -6 13864.7 249.342   0
  -1   6   6 13534.1 174.881   0
  -1   6   6 12189.4 171.451   0
  -1  -6   6 13467.7 241.071   0
   1   6  -5 459.504 55.9550   0
  -1  -6   5 423.891 30.0921   1
  -1   6   5 377.647 41.7760   0
  -1   6   5 525.854 54.0894   2
  -1   6   5 371.963 42.7241   0
  -1  -6   5 522.006 59.8049   0
   1   6  -4 20249.2 285.384   0
  -1   6   4 20857.9 229.872   2
   1  -6  -4 20532.1 242.473   0
  -1  -6   4 19562.7 277.924   0
  -1   6   4 20056.2 234.118   0
  -1  -6   3 1779.62 88.6820   0
  -1   6   3 1984.11 75.7421   2
   1  -6  -3 2030.14 83.7639   0
  -1   6   3 2039.23 82.9914   0
   1   6  -3 2030.25 95.6479   0
   1   6  -2 1284.63 75.4028   0
   1  -6  -2 1366.75 73.5091   0
  -1   6   2 1381.50 61.6159   2
  -1  -6   2 1366.94 80.3840   0
  -1   6   2 1481.59 74.8070   0
   1  -6  -1 13138.8 209.057   0
   1   6  -1 13608.1 217.566   0
  -1   6   1 13879.7 213.227   0
  -1   6   1 13359.1 158.682   2
  -1  -6   1 14268.3 223.685   0
  -1   6   0 54289.8 301.562   2
  -1  -6   0 53299.1 419.628   0
  -1   6   0 53810.7 426.144   0
   1   6   0 54136.4 330.989   2
   1  -6   0 56548.7 434.767   0
   1   6   0 55008.7 421.334   0
   1   6   1 13.6424 35.4377   0
  -1   6  -1 11.3404 38.8174   0
  -1   6  -1 22.2815 26.7692   2
  -1  -6  -1 46.9345 35.5802   0
   1   6   1 16.2186 28.3249   1
   1  -6   1 43.6333 41.2269   0
   1   6   1 25.0941 30.3200   2
   1  -6   2 1.37910 33.8988   0
   1   6   2 9.62650 30.6845   0
   1   6   2 0.89101 27.3174   1
  -1   6  -2 11.3725 24.7932   2
  -1  -6  -2 1.36596 33.7625   0
  -1   6  -2 23.1286 40.0762   0
   1   6   2 30.4578 29.7938   2
   1   6   3 1023.10 56.7289   1
   1   6   3 938.461 58.9363   0
  -1   6  -3 1054.33 75.1539   0
   1  -6   3 1095.77 75.2661   0
  -1  -6  -3 1022.63 63.1278   0
   1   6   3 1156.67 60.8209   2
   1  -6   3 1073.97 54.9214   1
  -1  -6  -4 1815.30 76.6603   0
  -1   6  -4 2026.74 100.100   0
   1   6   4 1819.74 77.0877   1
   1   6   4 1809.39 73.4805   2
   1   6   4 1902.99 75.7306   0
   1  -6   4 2049.26 73.3864   1
   1  -6   4 1898.46 94.3970   0
  -1   6  -5 1709.05 96.2001   0
  -1  -6  -5 1517.92 70.2398   0
   1   6   5 1621.98 65.6628   0
   1   6   5 1541.29 76.7344   1
   1   6   5 1345.31 64.5094   0
   1   6   5 1561.80 75.1116   2
   1  -6   5 1630.21 69.8927   1
   1  -6   5 1754.99 95.1215   0
  -1   6  -6 1359.45 90.6162   0
   1   6   6 1441.03 56.2181   0
   1  -6   6 1436.78 89.7280   0
   1   6   6 1487.06 76.9467   2
   1  -6   6 1342.78 68.9995   1
   1   6   6 1538.47 80.2486   1
  -1   6  -7 2611.16 123.123   0
   1   6   7 2395.91 48.5695   0
   1   6   7 2692.40 102.996   2
   1  -6   7 2657.83 96.1541   1
   1  -6   7 2533.39 113.970   0
   1   6   7 2611.30 106.395   1
   1  -6   8 17573.2 241.170   1
   1   6   8 18193.4 254.610   2
   1   6   8 17766.1 270.248   1
   1   6   9 970.777 78.8293   2
   1  -6   9 1000.27 74.7861   1
   1   6   9 1056.41 85.2909   1
   1   6  10 81.3547 61.3641   1
   1  -6  10 94.3439 46.5989   1
   1   6  10 121.947 52.9952   2
   1  -6  11 3018.75 126.600   1
   1   6  11 3209.92 136.146   2
   1   6  11 2863.66 142.521   1
   1   6  12 287.434 68.6338   2
   1   6  12 241.195 78.9583   1
   1   6  13 1005.84 95.9398   2
   1   6  13 899.527 107.454   1
   1   6  14 3074.78 162.406   1
   1   6  15 398.914 99.1690   1
   1   6  16 175.553 109.081   1
  -1   7  16-105.661 112.256   2
  -1   7  15 4602.82 204.267   2
  -1   7  14 1531.68 133.407   2
  -1   7  13 5596.61 203.555   2
  -1   7  12 1579.57 116.030   2
  -1  -7  11 1141.18 88.9887   0
  -1   7  11 1171.38 103.398   2
  -1   7  10 807.283 84.6517   2
  -1  -7  10 839.633 80.8120   0
  -1  -7   9 315.799 63.0874   0
  -1   7   9 256.185 64.8767   2
  -1   7   8 16134.2 264.295   2
   1   7  -8 15094.4 294.930   0
  -1   7   8 14715.7 141.929   0
  -1  -7   8 15928.9 290.634   0
  -1  -7   7 46874.1 275.454   1
  -1   7   7 47181.9 329.764   0
  -1   7   7 45007.8 413.041   2
   1   7  -7 46644.7 494.268   0
  -1  -7   7 46013.7 482.027   0
  -1  -7   6 24.4944 20.6697   1
  -1   7   6 15.1049 44.3951   2
  -1  -7   6 47.9759 48.3433   0
   1   7  -6 16.5219 49.4016   0
  -1   7   6 17.9128 31.7818   0
   1   7  -5 22570.6 329.358   0
  -1   7   5 21593.1 260.437   2
   1  -7  -5 22009.0 267.338   0
  -1  -7   5 21764.1 319.506   0
  -1   7   5 22057.8 259.612   0
  -1  -7   5 22094.4 179.176   1
  -1   7   4 7942.60 163.647   0
   1  -7  -4 8224.28 170.092   0
  -1  -7   4 8851.29 201.867   0
  -1   7   4 8258.84 154.799   2
   1   7  -4 8708.62 203.851   0
   1  -7  -3 28335.0 316.733   0
  -1   7   3 28491.3 313.551   0
  -1   7   3 29013.0 270.546   2
  -1  -7   3 29374.3 355.974   0
   1   7  -3 28997.4 356.020   0
  -1   7   2 1329.18 78.1332   0
   1   7  -2 1398.45 86.2576   0
  -1   7   2 1495.55 67.8103   2
   1  -7  -2 1515.85 83.6320   0
  -1  -7   2 1561.08 90.6577   0
  -1   7   1 9618.12 193.292   0
   1   7  -1 9290.38 196.171   0
   1  -7  -1 9519.04 192.866   0
  -1   7   1 9079.50 140.767   2
  -1  -7   1 9106.43 193.325   0
   1   7   0 3154.88 116.449   0
  -1   7   0 3196.86 119.528   0
   1  -7   0 3049.24 116.332   0
  -1   7   0 3124.32 83.6380   2
  -1  -7   0 2947.16 111.796   0
   1   7   0 3060.42 90.8402   2
   1   7   1 4228.58 128.952   0
  -1   7  -1 4405.84 95.0314   2
  -1   7  -1 4220.70 138.704   0
   1  -7   1 4233.18 136.940   0
  -1  -7  -1 4273.67 130.800   0
   1   7   1 4113.41 103.768   2
   1   7   2 1156.44 59.7837   1
   1   7   2 1107.19 71.7452   0
  -1   7  -2 1160.91 54.0001   2
  -1  -7  -2 1103.29 70.5296   0
   1  -7   2 1077.29 77.6785   0
   1   7   2 1142.65 62.1234   2
  -1   7  -2 1157.79 82.1799   0
  -1  -7  -3 259.945 44.5912   0
   1   7   3 268.257 44.0341   0
  -1   7  -3 263.039 50.5601   0
   1  -7   3 279.847 53.5985   0
   1   7   3 297.377 43.2091   1
  -1   7  -3 265.451 36.5005   2
   1   7   3 296.541 45.8231   2
   1   7   4 3101.13 100.657   2
  -1  -7  -4 3172.15 109.007   0
   1   7   4 3330.11 104.611   1
   1  -7   4 3050.02 91.2446   1
   1   7   4 3272.60 105.697   0
   1  -7   4 3258.68 129.345   0
  -1   7  -4 3137.05 130.167   0
   1  -7   5 18113.7 218.235   1
  -1   7  -5 18673.6 307.775   0
   1   7   5 19197.4 233.091   0
   1   7   5 18533.5 242.806   1
  -1  -7  -5 18195.3 241.222   0
   1  -7   5 19456.6 305.844   0
   1   7   5 19272.7 240.549   2
  -1   7  -6 802.257 81.6728   0
   1   7   6 743.678 67.0480   1
   1  -7   6 863.376 59.6067   1
   1  -7   6 764.352 75.4739   0
   1   7   6 946.305 68.2445   2
   1   7   6 858.241 52.1893   0
  -1   7  -7 10240.9 241.404   0
   1   7   7 10357.2 196.220   2
   1  -7   7 10775.2 186.386   1
   1  -7   7 10512.7 234.263   0
   1   7   7 10491.1 205.757   1
   1   7   7 10223.0 131.544   0
   1  -7   8 2277.98 120.615   0
   1   7   8 2318.59 106.060   2
   1  -7   8 2340.28 99.4924   1
   1   7   8 2415.68 113.888   1
   1   7   9 3.95226 57.6653   1
   1  -7   9 51.2162 45.8479   1
   1   7   9 177.256 54.8880   2
   1  -7  10 1357.31 88.1730   1
   1   7  10 1145.19 89.3707   2
   1   7  10 1205.49 104.317   1
   1  -7  11 12891.2 241.305   1
   1   7  11 13081.2 280.759   1
   1   7  11 13348.1 263.030   2
   1   7  12 240.967 65.8639   2
   1   7  12 311.661 81.2988   1
   1   7  13 1341.47 113.382   2
   1   7  13 1418.39 120.995   1
   1   7  14 235.321 85.4743   1
   1   7  15 243.207 93.9687   1
   1   7  16-10.7477 111.528   1
  -1   8  16 62.6706 118.808   2
  -1   8  15 485.493 110.095   2
  -1   8  14-58.2853 86.0941   2
  -1   8  13 521.867 100.256   2
  -1   8  12 544.318 95.0388   2
  -1  -8  11 18.6801 65.1848   0
  -1   8  11 155.697 67.9553   2
  -1   8  10 15.4495 66.9260   2
  -1  -8  10 34.3749 56.4525   0
  -1   8   9 9830.68 226.781   2
  -1  -8   9 9313.89 243.766   0
  -1   8   8 2517.44 78.2445   0
   1   8  -8 2508.30 137.378   0
  -1   8   8 2582.37 121.175   2
  -1  -8   8 2657.51 136.909   0
  -1   8   7 1018.77 64.3419   0
   1   8  -7 1067.08 96.6008   0
  -1  -8   7 907.986 49.3434   1
  -1   8   7 1264.36 86.6092   2
  -1  -8   7 1073.60 94.4002   0
  -1  -8   6 10341.0 241.145   0
  -1  -8   6 9782.99 130.722   1
  -1   8   6 10058.7 199.896   2
  -1   8   6 9711.48 181.090   0
   1   8  -6 9149.72 233.430   0
   1   8  -5 8661.14 224.430   0
  -1  -8   5 8883.47 123.767   1
   1  -8  -5 8884.14 187.973   0
  -1  -8   5 9123.86 223.370   0
  -1   8   5 9127.59 180.486   2
  -1   8   5 9101.24 183.641   0
  -1   8   4 8907.81 186.890   0
   1   8  -4 8851.23 219.225   0
  -1  -8   4 8707.85 215.707   0
   1  -8  -4 8819.50 191.166   0
  -1   8   4 8728.79 167.878   2
   1   8  -3 3692.03 144.052   0
  -1   8   3 3917.87 129.236   0
  -1  -8   3 3620.48 141.060   0
   1  -8  -3 3741.07 129.317   0
  -1   8   3 3792.15 109.649   2
  -1  -8   2 22044.8 323.828   0
   1   8  -2 21176.7 320.010   0
  -1   8   2 21461.4 237.588   2
   1  -8  -2 21623.1 303.817   0
  -1   8   2 22181.1 304.476   0
  -1   8   1 764.180 72.9577   0
  -1  -8   1 875.203 76.8943   0
   1   8  -1 842.368 76.2678   0
   1  -8  -1 723.074 70.4525   0
  -1   8   1 747.672 55.2228   2
   1   8  -1 842.009 59.1080   2
  -1  -8   0 13877.7 249.973   0
  -1   8   0 14323.5 185.453   2
   1  -8   0 14491.4 257.719   0
   1   8   0 14948.7 201.794   2
  -1   8   0 14404.8 257.913   0
   1   8   0 14460.3 255.040   0
  -1   8  -1 25774.8 242.671   2
  -1  -8  -1 24203.8 323.984   0
  -1   8  -1 25363.5 346.489   0
   1  -8   1 24519.4 338.191   0
   1   8   1 26120.1 266.244   2
   1   8   1 25480.7 329.068   0
   1   8   2 32.3058 40.7101   2
  -1  -8  -2 30.7311 39.8950   0
   1   8   2 11.2877 40.8900   0
   1  -8   2 7.12130 47.4695   0
  -1   8  -2 4.13923 48.5753   0
  -1   8  -2 24.4131 30.9126   2
  -1   8  -3 287.487 62.3373   0
   1  -8   3 329.515 59.8109   0
   1   8   3 310.400 51.2755   0
   1   8   3 269.291 45.8188   2
   1   8   3 334.066 46.4060   1
  -1  -8  -3 342.317 52.9835   0
  -1   8  -3 257.348 40.2427   2
  -1   8  -4 2939.43 136.009   0
   1   8   4 2774.32 107.919   0
   1  -8   4 2734.29 129.111   0
   1  -8   4 2862.68 93.0120   1
   1   8   4 2981.21 105.005   2
  -1  -8  -4 3044.11 116.112   0
   1   8   4 2895.36 101.659   1
  -1  -8  -5 1255.19 80.4824   0
   1   8   5 1294.97 74.6980   0
   1  -8   5 1256.15 96.8183   0
   1   8   5 1264.74 77.5655   2
   1   8   5 1268.38 78.0317   1
   1  -8   5 1287.76 70.2787   1
  -1   8  -5 1227.47 98.4590   0
  -1   8  -6 336.086 66.7236   0
   1   8   6 306.897 42.2993   0
   1  -8   6 333.078 60.9679   0
   1   8   6 323.234 56.1764   2
   1  -8   6 288.855 46.6780   1
   1   8   6 354.354 57.0775   1
  -1   8  -7 5278.24 192.856   0
   1  -8   7 5234.56 137.508   1
   1  -8   7 5162.78 180.208   0
   1   8   7 5601.84 157.886   1
   1   8   7 5481.64 153.089   2
   1   8   7 5461.45 115.561   0
   1  -8   8 5880.15 150.845   1
   1   8   8 5876.94 164.857   2
   1  -8   8 5567.91 189.605   0
   1   8   8 6022.10 172.689   1
   1  -8   9 6195.17 161.737   1
   1   8   9 6239.65 177.047   2
   1  -8   9 6296.40 201.873   0
   1   8   9 6327.95 186.592   1
   1  -8  10 3912.91 138.435   1
   1   8  10 4009.87 155.089   2
   1   8  10 3973.33 160.690   1
   1   8  11 343.512 77.5400   2
   1   8  11 467.107 84.7999   1
   1   8  12 4131.17 170.796   2
   1   8  12 4360.30 181.020   1
   1   8  13 1080.21 104.347   2
   1   8  13 1082.38 115.977   1
   1   8  14 576.355 104.240   1
   1   8  15 2700.97 175.222   1
  -1   9  16 120.196 132.053   2
  -1   9  15 662.242 116.184   2
  -1   9  14 656.256 106.064   2
  -1   9  13 1031.05 113.127   2
  -1   9  12 2710.79 154.262   2
  -1  -9  12 2211.83 135.696   0
  -1  -9  11 49.0066 76.8623   0
  -1   9  11 130.919 75.9912   2
  -1   9  10 1863.23 125.193   2
  -1  -9  10 2251.88 141.602   0
  -1  -9   9 7592.13 234.288   0
  -1   9   9 7221.92 202.766   2
  -1   9   8 95.6645 37.4939   0
   1   9  -8 18.4891 68.6385   0
  -1   9   8 130.434 58.5487   2
  -1  -9   8 149.009 66.9098   0
  -1  -9   7 5218.54 192.602   0
  -1   9   7 5719.75 146.311   0
  -1   9   7 5522.36 164.912   2
   1   9  -7 5027.20 193.934   0
  -1   9   6 35155.3 366.953   0
   1   9  -6 35580.6 474.302   0
  -1   9   6 35023.6 378.713   2
  -1  -9   6 35235.5 467.634   0
  -1  -9   6 35861.0 265.102   1
   1  -9  -5 1696.24 96.6750   0
  -1   9   5 2099.88 101.519   0
  -1   9   5 1869.92 97.4620   2
   1   9  -5 1857.26 119.338   0
  -1  -9   5 1922.55 66.8291   1
  -1  -9   5 1927.05 121.195   0
  -1   9   4 574.296 63.7230   0
   1  -9  -4 557.478 66.0988   0
  -1  -9   4 688.266 77.2161   0
  -1   9   4 580.999 62.9633   2
   1   9  -4 537.857 80.4334   0
   1   9  -3 5279.06 180.635   0
  -1   9   3 5466.26 137.894   2
  -1  -9   3 5066.07 173.094   0
  -1   9   3 5307.71 161.218   0
   1  -9  -3 5225.02 164.066   0
   1  -9  -2 47128.7 475.795   0
  -1   9   2 46162.8 368.659   2
  -1  -9   2 47110.2 502.018   0
  -1   9   2 46254.1 467.038   0
   1   9  -2 46774.0 501.814   0
   1  -9  -1 6208.52 181.325   0
  -1   9   1 6550.28 185.229   0
   1   9  -1 6569.33 147.228   2
  -1  -9   1 6415.58 187.658   0
   1   9  -1 6247.90 187.635   0
  -1   9   1 6683.50 140.599   2
  -1   9   0 12956.4 187.948   2
   1  -9   0 12304.5 253.640   0
  -1  -9   0 12986.1 259.814   0
  -1   9   0 12555.4 256.898   0
   1   9   0 12760.9 255.201   0
   1   9   0 12565.0 199.384   2
   1  -9   1 737.187 78.7633   0
  -1   9  -1 698.948 76.7911   0
   1   9   1 752.860 64.0664   2
  -1  -9  -1 675.253 74.8568   0
  -1   9  -1 704.183 55.8869   2
   1   9   1 608.214 69.8259   0
  -1   9  -2 7659.74 143.094   2
   1   9   2 7390.67 189.663   0
  -1   9  -2 7432.30 209.734   0
   1  -9   2 7531.69 207.418   0
   1   9   2 7757.13 162.181   2
  -1  -9  -2 7186.80 192.916   0
   1   9   3 24387.6 285.945   2
   1  -9   3 25133.6 377.356   0
  -1   9  -3 24829.3 380.468   0
   1   9   3 25299.8 337.863   0
  -1   9  -3 25978.9 259.581   2
  -1  -9  -3 24626.3 342.093   0
  -1   9  -4 38914.1 323.315   2
  -1  -9  -4 36443.4 407.390   0
   1   9   4 37387.5 355.797   1
  -1   9  -4 37279.9 475.849   0
   1   9   4 39573.4 407.205   0
   1  -9   4 37176.7 465.667   0
   1   9   4 38752.8 367.061   2
   1  -9   4 37571.1 329.538   1
   1   9   5 2701.24 110.761   0
   1  -9   5 2682.35 98.6913   1
   1   9   5 2523.49 106.771   2
   1   9   5 2639.67 107.852   1
  -1   9  -5 2714.12 144.443   0
   1  -9   5 2446.19 133.594   0
  -1  -9  -5 2488.21 113.131   0
   1   9   6 2366.20 110.322   2
   1   9   6 2300.42 97.8847   0
   1  -9   6 2300.38 95.0899   1
  -1   9  -6 2438.03 140.648   0
   1  -9   6 2316.44 131.157   0
   1   9   6 2297.34 106.815   1
   1  -9   7 8491.16 241.001   0
   1   9   7 8264.14 159.907   0
   1   9   7 8349.27 195.901   2
   1  -9   7 8105.90 171.957   1
   1   9   7 8168.98 197.433   1
  -1   9  -7 8585.23 255.668   0
   1   9   8 618.749 78.6229   2
   1   9   8 620.641 80.9527   1
   1  -9   8 636.682 90.8912   0
   1  -9   8 752.344 70.2708   1
   1  -9   9 228.681 70.8767   0
   1  -9   9 333.594 58.2124   1
   1   9   9 250.701 70.5724   1
   1   9   9 312.689 65.4507   2
   1  -9  10 1017.35 84.9216   1
   1   9  10 1174.15 97.1985   2
   1   9  10 997.131 99.6953   1
   1   9  11 750.505 92.5953   2
   1   9  11 834.576 99.0699   1
   1   9  12 4754.01 186.564   2
   1   9  12 4620.04 195.690   1
   1   9  13 61.5078 78.5686   1
   1   9  13-13.4850 77.1515   2
   1   9  14 96.2669 86.8138   1
   1   9  15 255.344 105.128   1
  -1  10  15-7.36719 107.401   2
  -1  10  14 752.373 109.644   2
  -1  10  13 786.608 108.761   2
  -1 -10  12 1331.85 121.294   0
  -1  10  12 1906.50 135.615   2
  -1  10  11 3092.44 160.289   2
  -1 -10  11 2715.50 160.723   0
  -1 -10  10 1403.58 123.879   0
  -1  10  10 1679.33 125.019   2
  -1 -10   9 9244.42 271.226   0
  -1  10   9 9571.45 239.718   2
  -1  10   8 258.181 47.8604   0
  -1  10   8 420.342 73.7157   2
  -1 -10   8 213.381 75.8679   0
   1  10  -8 256.495 76.9378   0
  -1 -10   7 14777.4 328.244   0
  -1  10   7 14167.0 244.261   0
  -1  10   7 14065.1 267.265   2
   1  10  -7 14628.3 334.203   0
  -1  10   6 7476.22 187.265   0
   1  10  -6 7766.21 245.693   0
  -1  10   6 7475.87 187.418   2
  -1 -10   6 8094.79 243.238   0
  -1 -10   6 7761.18 134.961   1
  -1  10   5 9233.60 215.992   0
  -1  10   5 9301.62 198.484   2
   1 -10  -5 9102.86 221.805   0
  -1 -10   5 9514.14 259.176   0
   1  10  -5 9619.91 261.698   0
  -1  10   4 18.8056 44.1438   0
   1  10  -4-25.4407 53.0869   0
  -1 -10   4 77.8776 56.2927   0
   1 -10  -4 22.8798 47.9497   0
  -1  10   4 12.9928 49.4269   2
   1 -10  -3 3843.04 152.506   0
  -1  10   3 4035.40 127.279   2
  -1  10   3 3912.62 151.185   0
   1  10  -3 3904.50 166.285   0
  -1 -10   3 4068.41 168.163   0
  -1  10   2 4270.27 126.190   2
  -1 -10   2 4250.59 171.223   0
  -1  10   2 4422.72 161.588   0
   1 -10  -2 4329.49 162.309   0
   1  10  -2 4143.90 168.084   0
   1  10  -2 4330.65 130.230   2
   1 -10  -1 582.416 74.0471   0
  -1  10   1 649.035 79.6059   0
  -1 -10   1 693.657 85.3292   0
  -1  10   1 630.382 61.6645   2
   1  10  -1 662.990 83.2364   0
   1  10  -1 619.857 64.3351   2
  -1 -10   0 2652.57 136.435   0
  -1  10   0 2862.20 137.778   0
   1  10   0 2617.75 134.631   0
   1  10   0 2549.12 103.229   2
  -1  10   0 2641.16 99.7881   2
   1 -10   0 2825.47 136.859   0
   1  10   1 17616.3 249.961   2
   1 -10   1 17101.8 320.078   0
  -1  10  -1 17710.7 328.916   0
   1  10   1 17668.8 311.490   0
  -1  10  -1 17347.1 233.216   2
  -1 -10  -1 18335.6 321.663   0
  -1 -10  -2 10135.3 242.216   0
   1  10   2 10298.6 196.726   2
  -1  10  -2 10174.4 255.980   0
   1 -10   2 10148.3 253.668   0
  -1  10  -2 10212.4 175.638   2
   1  10   2 10625.9 240.000   0
   1  10   3 409.900 63.1409   2
  -1  10  -3 402.911 72.3560   0
  -1  10  -3 317.204 49.5769   2
   1 -10   3 385.630 71.3085   0
   1  10   3 337.669 64.4750   0
  -1 -10  -3 393.153 65.5545   0
   1  10   4 2289.53 115.497   0
  -1  10  -4 2296.85 139.366   0
   1 -10   4 2333.38 137.433   0
  -1  10  -4 2326.15 94.2912   2
   1  10   4 2249.35 108.012   2
  -1 -10  -4 2111.27 116.258   0
   1  10   5 5102.94 151.065   1
   1 -10   5 4907.60 134.165   1
   1  10   5 4993.85 153.786   2
  -1  10  -5 5294.70 201.554   0
   1  10   5 4792.06 154.357   0
   1 -10   5 5215.38 196.538   0
  -1  10  -5 5093.05 134.097   2
   1  10   6 2548.83 110.621   0
   1 -10   6 2775.10 106.939   1
  -1  10  -6 2575.61 153.754   0
   1  10   6 2693.63 122.817   2
   1  10   6 2673.63 122.252   1
   1 -10   6 2903.50 153.306   0
   1  10   7 2458.52 120.525   2
   1 -10   7 2442.05 145.783   0
  -1  10  -7 2491.24 156.482   0
   1  10   7 2315.77 121.147   1
   1 -10   7 2541.50 105.868   1
   1  10   7 2214.68 98.5968   0
   1  10   8 44.2054 63.6870   2
   1  10   8-9.27960 61.7908   1
   1 -10   8 18.1479 44.1272   1
   1 -10   8 17.8502 66.6442   0
   1 -10   9 2489.51 114.670   1
   1  10   9 2521.03 133.737   2
   1 -10   9 2213.49 147.649   0
   1  10   9 2469.02 133.132   1
   1 -10  10 868.247 83.4768   1
   1  10  10 909.427 98.0716   2
   1  10  10 930.052 103.742   1
   1  10  11 291.283 85.9904   1
   1  10  11 207.939 76.6425   2
   1  10  12 268.054 91.9591   1
   1  10  12 388.223 87.3443   2
   1  10  13 250.917 87.9572   1
   1  10  13 275.445 86.4953   2
  -1  11  15 579.169 125.528   2
  -1  11  14 3298.63 194.539   2
  -1  11  13 2274.07 166.545   2
  -1 -11  12 7023.44 262.049   0
  -1  11  12 7909.69 258.070   2
  -1  11  11 655.020 100.647   2
  -1 -11  11 419.182 94.9730   0
  -1 -11  10 252.628 87.8913   0
  -1  11  10 290.056 79.0285   2
  -1 -11   9 6843.32 250.895   0
  -1  11   9 6518.82 208.600   2
  -1 -11   8 12322.1 323.576   0
  -1  11   8 12297.2 228.413   0
   1  11  -8 11660.3 322.447   0
  -1  11   8 12070.3 265.986   2
   1  11  -7 414.329 88.2056   0
  -1  11   7 301.947 75.1236   2
  -1 -11   7 289.983 86.4293   0
  -1  11   7 320.018 57.6625   0
  -1  11   6 5255.20 167.579   2
  -1 -11   6 4934.79 116.334   1
   1  11  -6 5075.82 213.983   0
  -1 -11   6 5119.64 209.040   0
  -1  11   6 5130.69 170.444   0
  -1 -11   5 2534.90 153.573   0
  -1  11   5 2330.68 118.465   2
  -1  11   5 2437.25 125.871   0
   1  11  -5 2501.78 151.032   0
  -1  11   4 824.221 86.2542   0
   1 -11  -4 725.181 82.5807   0
  -1 -11   4 732.786 91.8234   0
   1  11  -4 681.992 95.9778   0
  -1  11   4 798.870 77.6898   2
  -1  11   3 5705.03 156.759   2
  -1  11   3 6063.16 195.665   0
   1  11  -3 6330.10 218.271   0
   1 -11  -3 5973.08 200.782   0
  -1 -11   3 6164.35 214.704   0
  -1 -11   2 17014.9 340.831   0
   1  11  -2 16196.2 253.710   2
   1 -11  -2 15733.1 319.384   0
   1  11  -2 16349.1 336.178   0
  -1  11   2 17169.1 324.032   0
  -1  11   2 16357.2 248.781   2
  -1  11   1 8050.71 230.318   0
  -1  11   1 7666.07 169.312   2
  -1 -11   1 7698.60 233.197   0
   1 -11  -1 8290.08 235.425   0
   1  11  -1 7914.18 180.394   2
   1  11  -1 7696.27 233.043   0
  -1 -11   0 792.887 88.6239   0
  -1  11   0 628.213 88.8884   0
   1  11   0 824.170 90.1946   0
  -1  11   0 716.393 66.8337   2
   1  11   0 662.556 69.1841   2
   1 -11   0 722.167 92.9781   0
   1  11   1 48.8507 56.5862   0
  -1  11  -1-25.2043 46.1800   2
   1  11   1-17.3790 54.8284   2
   1 -11   1 1.39498 65.6752   0
  -1 -11  -1 55.3071 55.5015   0
  -1  11  -1 1.09971 58.8961   0
   1  11   2 5248.72 185.581   0
  -1  11  -2 5251.22 203.849   0
   1 -11   2 5353.53 199.776   0
   1  11   2 5529.45 156.170   2
  -1  11  -2 5748.53 146.116   2
  -1 -11  -2 5752.83 196.585   0
  -1 -11  -3 393.912 71.1605   0
   1  11   3 484.234 67.1006   2
  -1  11  -3 406.074 57.7563   2
  -1  11  -3 388.262 85.8812   0
   1 -11   3 369.574 81.3672   0
   1  11   3 421.332 67.2744   0
  -1  11  -4 8.89541 67.5904   0
   1 -11   4-0.16906 64.8802   0
   1  11   4 18.5503 51.9585   0
   1  11   4 62.7138 51.9001   2
  -1  11  -4-4.02900 40.6457   2
  -1 -11  -4 17.6793 56.2083   0
   1 -11   5 6353.87 227.700   0
   1  11   5 5739.75 180.879   0
  -1  11  -5 6058.90 227.229   0
   1  11   5 6125.13 175.704   2
  -1  11  -5 6542.37 158.005   2
   1 -11   5 6289.69 155.450   1
   1 -11   6 6276.13 159.147   1
  -1  11  -6 6269.41 237.186   0
   1  11   6 6421.50 181.513   0
   1  11   6 6620.57 186.783   2
   1 -11   6 6493.72 232.255   0
  -1  11  -6 6520.14 161.543   2
  -1  11  -7 489.181 100.754   0
   1 -11   7 366.666 85.0663   0
   1  11   7 550.151 78.6996   2
   1 -11   7 529.154 63.2436   1
   1  11   7 507.517 64.4648   0
   1  11   8 1513.75 111.521   2
   1 -11   8 1688.87 98.8950   1
   1 -11   8 1874.01 141.977   0
   1  11   8 1553.97 115.031   1
   1 -11   9 157.394 55.9579   1
   1  11   9 86.5489 68.8547   1
   1  11   9 135.936 72.1707   2
   1 -11   9 173.207 80.3396   0
   1  11  10 31.5100 69.6351   2
   1  11  10 54.0373 80.8939   1
   1  11  11 130.682 70.1747   2
   1  11  12 11614.6 293.989   2
   1  11  13 4651.04 212.132   2
  -1  12  15 293.810 128.352   2
  -1  12  14 204.840 109.351   2
  -1  12  13 65.0449 92.7570   2
  -1  12  12 42.4944 88.8725   2
  -1 -12  12 171.568 129.892   0
  -1  12  11 3018.10 170.584   2
  -1 -12  11 3000.61 188.081   0
  -1 -12  10 10893.0 325.989   0
  -1  12  10 11060.7 285.487   2
  -1 -12   9 1865.55 152.101   0
  -1  12   9 1665.31 123.485   2
  -1  12   8 854.943 96.7934   2
  -1 -12   8 913.690 122.098   0
  -1  12   8 935.485 83.2541   0
  -1  12   7 75.2207 59.1471   0
  -1 -12   7 52.4031 74.7094   0
  -1  12   7 45.3573 69.3609   2
   1  12  -7 76.5074 86.3488   0
  -1  12   6 3072.22 142.268   2
  -1 -12   6 3254.53 181.667   0
   1  12  -6 3133.42 182.769   0
  -1  12   6 2964.87 141.590   0
   1  12  -5 3935.11 192.467   0
  -1 -12   5 4019.47 196.233   0
  -1  12   5 3783.40 146.077   2
  -1  12   5 3890.31 164.338   0
   1 -12  -4 469.543 77.8549   0
  -1 -12   4 544.825 90.5979   0
   1  12  -4 559.233 92.2262   0
  -1  12   4 468.011 74.4062   2
  -1  12   4 520.936 82.6011   0
  -1  12   3 171.431 59.9133   2
   1  12  -3 202.992 63.0411   2
   1 -12  -3 206.517 65.3360   0
   1  12  -3 125.481 75.7092   0
  -1 -12   3 192.146 80.1459   0
  -1  12   3 235.975 69.4274   0
   1  12  -2 6267.78 171.482   2
  -1  12   2 6491.19 219.720   0
  -1  12   2 6413.35 171.290   2
   1 -12  -2 6284.73 217.713   0
   1  12  -2 6201.00 225.022   0
  -1  12   1 1067.56 106.181   0
   1 -12  -1 1075.68 102.965   0
  -1  12   1 1087.89 83.1628   2
  -1 -12   1 1175.47 109.078   0
   1  12  -1 1070.71 86.9511   2
   1  12  -1 1158.91 109.002   0
   1 -12   0 25751.9 433.910   0
   1  12   0 24076.5 418.406   0
  -1  12   0 25058.5 310.886   2
  -1 -12   0 24557.6 422.042   0
   1  12   0 23650.6 319.417   2
  -1  12   0 23549.9 416.837   0
  -1 -12  -1 1880.26 131.949   0
   1 -12   1 2024.81 136.788   0
  -1  12  -1 1805.93 137.224   0
   1  12   1 1841.30 105.206   2
   1  12   1 1951.42 132.840   0
  -1  12  -1 1927.65 98.4046   2
  -1  12  -2 6149.45 160.841   2
  -1  12  -2 6371.77 231.189   0
   1  12   2 6061.22 208.888   0
   1 -12   2 6452.52 230.581   0
  -1 -12  -2 6329.40 218.633   0
   1  12   2 6532.71 177.884   2
  -1  12  -3 4711.41 142.588   2
   1 -12   3 4793.17 202.585   0
   1  12   3 4721.62 184.133   0
  -1  12  -3 4790.00 210.684   0
   1  12   3 5038.79 162.213   2
  -1 -12  -3 5070.77 197.219   0
   1  12   4 4033.97 150.441   2
   1  12   4 4015.03 166.596   0
   1 -12   4 3826.99 188.706   0
  -1  12  -4 3766.01 189.203   0
  -1  12  -4 3663.04 131.091   2
   1 -12   5 1112.74 79.2526   1
   1  12   5 995.497 89.8714   0
   1 -12   5 1076.15 115.119   0
  -1  12  -5 1157.33 81.5107   2
  -1  12  -5 959.717 116.388   0
   1  12   5 1107.68 93.9342   2
   1 -12   6 2139.03 104.273   1
  -1  12  -6 2064.88 106.415   2
   1  12   6 2337.76 124.477   0
  -1  12  -6 1811.04 152.920   0
   1  12   6 2146.48 125.713   2
   1 -12   6 1963.17 144.290   0
   1  12   7-0.57376 56.2873   0
   1 -12   7 151.381 80.9610   0
  -1  12  -7 30.4390 86.3415   0
   1 -12   7 14.9540 43.9652   1
   1  12   7 61.0132 62.9263   2
  -1  12  -7 71.7878 57.7641   2
   1 -12   8 5618.05 236.799   0
  -1  12  -8 5278.03 164.350   2
   1  12   8 5585.27 192.936   2
   1 -12   8 5669.72 167.248   1
   1 -12   9 162.727 58.6340   1
   1 -12   9 40.9319 91.8607   0
   1  12   9 82.3878 73.7333   2
   1 -12  10 753.040 121.690   0
   1  12  10 1083.65 107.872   2
   1  12  11 295.304 85.9917   2
   1  12  12 2485.58 152.797   2
   1  12  13 1283.76 133.971   2
  -1  13  14-16.6154 121.131   2
  -1  13  13 10746.7 319.434   2
  -1  13  12 4468.85 219.084   2
  -1  13  11-23.6735 90.2429   2
  -1 -13  11 66.8888 124.411   0
  -1  13  10 2446.14 158.288   2
  -1 -13  10 2311.01 173.506   0
  -1 -13   9 13279.8 376.448   0
  -1  13   9 13797.1 314.198   2
  -1  13   8 152.936 66.4014   0
  -1 -13   8 22.8153 98.6992   0
  -1  13   8 84.3565 76.4912   2
   1  13  -7 11267.6 351.816   0
  -1 -13   7 12554.4 354.940   0
  -1  13   7 12213.1 277.288   0
  -1  13   7 12085.9 276.739   2
  -1  13   6 529.100 82.1787   0
   1  13  -6 438.603 97.7645   0
  -1 -13   6 381.449 98.7986   0
  -1  13   6 504.345 81.9251   2
  -1  13   5 476.714 86.6926   0
  -1  13   5 482.610 81.3395   2
   1  13  -5 480.794 98.9459   0
  -1 -13   5 463.953 98.7168   0
  -1  13   4 973.662 105.349   0
   1 -13  -4 873.724 101.130   0
  -1  13   4 892.438 93.7669   2
   1  13  -4 990.778 121.415   0
   1  13  -4 859.015 89.7480   2
  -1 -13   4 735.196 106.165   0
  -1  13   3 8185.19 206.567   2
  -1  13   3 7920.80 251.804   0
  -1 -13   3 7790.61 269.082   0
   1 -13  -3 7241.43 248.353   0
   1  13  -3 7456.65 198.162   2
   1  13  -3 7465.22 263.238   0
   1  13  -2 57.9845 74.3953   0
  -1  13   2 77.8047 55.3876   2
   1 -13  -2 76.4137 63.5559   0
   1  13  -2 155.743 65.2419   2
  -1  13   2 112.172 75.4205   0
  -1 -13   2 48.6531 73.5671   0
   1 -13  -1 5423.41 218.483   0
  -1 -13   1 5722.36 231.648   0
  -1  13   1 5588.55 167.145   2
   1  13  -1 5347.76 168.356   2
  -1  13   1 5539.63 221.282   0
   1  13  -1 5723.47 228.930   0
  -1  13   0 19892.2 403.845   0
   1  13   0 19871.0 397.827   0
   1  13   0 20043.1 309.588   2
  -1 -13   0 20715.3 414.353   0
  -1  13   0 19528.0 293.529   2
   1 -13   0 19998.2 404.724   0
  -1 -13  -1 17904.0 379.149   0
   1  13   1 17110.1 290.651   2
  -1  13  -1 17480.1 385.125   0
  -1  13  -1 17649.1 276.973   2
   1  13   1 17779.4 371.192   0
   1 -13   1 17853.6 386.535   0
  -1  13  -2 3.37877 75.4099   0
   1 -13   2-17.5373 67.7691   0
  -1 -13  -2 47.6955 67.6676   0
   1  13   2 10.8458 61.4147   2
  -1  13  -2 47.3926 55.4213   2
   1  13   2-30.9201 73.6159   0
  -1  13  -3 1564.34 134.848   0
  -1 -13  -3 1553.41 128.015   0
  -1  13  -3 1417.05 94.7585   2
   1  13   3 1666.70 123.880   0
   1  13   3 1723.04 110.900   2
   1 -13   3 1544.37 133.439   0
   1  13   4 73.7561 63.9912   2
  -1  13  -4 159.182 84.0953   0
   1  13   4 80.8113 61.1605   0
  -1  13  -4 43.1128 54.0133   2
   1 -13   4 148.962 79.4874   0
   1 -13   5 3396.87 189.582   0
  -1  13  -5 3561.01 200.840   0
   1 -13   5 3379.58 129.626   1
   1  13   5 3113.63 148.542   2
  -1  13  -5 3424.26 133.397   2
   1  13   5 3300.42 160.884   0
   1 -13   6 6.08391 51.7694   1
   1  13   6-26.5277 60.0246   0
  -1  13  -6 2.46156 55.4570   2
  -1  13  -6-76.8948 85.3789   0
   1  13   6-15.6011 67.9334   2
   1 -13   6 10.6521 80.0218   0
   1 -13   7 1061.06 86.4851   1
   1  13   7 1114.98 110.750   2
  -1  13  -7 1019.38 131.514   0
   1 -13   7 1220.88 128.107   0
   1  13   7 984.143 94.5407   0
  -1  13  -7 1031.56 93.0797   2
   1  13   8 76.8677 80.6817   2
   1 -13   8 178.646 52.3639   1
   1 -13   8 162.867 95.4034   0
   1  13   9 2904.97 155.268   2
   1 -13   9 2771.35 190.829   0
   1 -13  10 8.46647 112.484   0
   1  13  10 52.6454 71.1978   2
   1  13  11 3653.76 187.666   2
   1  13  12 2193.96 157.818   2
   1  13  13 449.140 111.026   2
  -1  14  13 202.149 117.938   2
  -1  14  12 14.7935 101.852   2
  -1  14  11 3261.92 187.218   2
  -1  14  10 217.352 95.6594   2
  -1 -14  10 161.774 126.481   0
  -1  14   9 2348.06 154.692   2
  -1 -14   9 2358.60 182.664   0
  -1  14   8 32.6365 80.8323   0
  -1 -14   8 59.1353 102.584   0
  -1  14   8-10.8206 78.2986   2
   1  14  -7 1369.15 158.864   0
  -1 -14   7 1680.79 161.483   0
  -1  14   7 1529.08 126.211   2
  -1  14   7 1620.28 127.979   0
  -1  14   6 2478.58 152.894   0
  -1  14   6 2399.29 143.793   2
  -1 -14   6 2680.45 189.296   0
   1  14  -6 2253.89 175.137   0
  -1 -14   5 10722.8 336.955   0
  -1  14   5 10554.4 254.698   2
   1  14  -5 10641.0 252.880   2
   1  14  -5 9837.65 335.741   0
  -1  14   5 10392.2 286.526   0
  -1  14   4 3894.74 190.393   0
   1  14  -4 4147.04 219.901   0
  -1  14   4 3820.02 162.801   2
  -1 -14   4 4167.16 213.937   0
   1  14  -4 3839.83 160.012   2
   1  14  -3 2279.95 161.842   0
  -1  14   3 2461.53 160.666   0
  -1 -14   3 2693.19 175.267   0
  -1  14   3 2307.14 131.991   2
   1  14  -3 2407.22 130.956   2
   1 -14  -3 2486.00 163.272   0
   1  14  -2 67.9149 64.0265   2
  -1  14   2 167.434 65.4639   2
  -1 -14   2 143.556 87.8773   0
   1  14  -2 235.591 86.0402   0
   1 -14  -2 240.783 79.3013   0
  -1  14   2 63.6048 69.0798   0
  -1  14   1 122.478 85.7331   0
   1  14  -1 69.1168 62.7572   2
  -1  14   1 54.2234 64.2446   2
   1  14  -1 37.7567 75.4193   0
   1 -14  -1 72.1932 73.6241   0
  -1 -14   1 61.4063 78.6652   0
   1  14   0 5243.55 177.568   2
  -1  14   0 5030.15 166.558   2
  -1  14   0 5001.09 225.637   0
   1 -14   0 4907.13 222.722   0
   1  14   0 4864.22 218.377   0
  -1 -14   0 5228.07 231.141   0
  -1  14  -1 2589.74 124.436   2
   1 -14   1 2523.77 167.457   0
   1  14   1 2581.03 171.181   0
   1  14   1 2606.60 139.215   2
  -1 -14  -1 2509.67 173.248   0
  -1  14  -1 2608.62 179.168   0
   1  14   2 6614.42 197.142   2
   1  14   2 6316.28 237.606   0
  -1  14  -2 6723.23 264.118   0
  -1 -14  -2 7019.71 261.816   0
  -1  14  -2 6318.26 184.739   2
   1 -14   2 6297.12 251.192   0
  -1  14  -3 1674.63 104.814   2
  -1 -14  -3 1683.73 138.062   0
   1  14   3 1591.27 118.284   2
   1  14   3 1600.72 136.394   0
  -1  14  -3 1522.71 150.426   0
   1 -14   3 1713.47 146.745   0
   1  14   4 74.6387 69.7523   0
  -1  14  -4 65.3455 84.5570   0
  -1  14  -4 69.9409 57.4846   2
   1 -14   4 219.986 94.2682   0
   1  14   4 169.013 67.0419   2
  -1  14  -5 1627.70 157.335   0
   1  14   5 1442.47 125.116   0
   1  14   5 1791.47 121.194   2
  -1  14  -5 1739.90 108.325   2
   1 -14   5 1672.07 102.543   1
   1 -14   5 1677.85 150.411   0
  -1  14  -6 1612.72 108.505   2
   1 -14   6 1589.45 102.292   1
   1  14   6 1571.32 123.708   0
  -1  14  -6 1244.00 148.200   0
   1  14   6 1632.17 124.798   2
   1 -14   6 1721.58 158.218   0
   1  14   7 443.208 94.2044   2
   1 -14   7 329.964 64.7969   1
   1  14   7 256.396 81.0692   0
   1 -14   7 525.353 108.181   0
  -1  14  -7 340.789 69.1715   2
  -1  14  -7 349.100 120.703   0
   1 -14   8 9.67353 55.7075   1
   1 -14   8 39.6794 106.492   0
   1  14   8 109.583 75.2832   2
   1  14   9 1341.06 127.730   2
   1 -14   9 1046.11 128.206   0
   1 -14  10 1961.90 167.098   0
   1  14  10 1848.66 147.342   2
   1  14  11 248.056 88.8920   2
   1  14  12-70.2186 110.553   2
   1  14  13-20.4609 126.393   2
  -1  15  13 999.740 123.155   2
  -1  15  12 39.2803 101.450   2
  -1  15  11 1426.95 145.805   2
  -1  15  10 1500.45 143.819   2
  -1 -15   9 937.109 143.562   0
  -1  15   9 852.919 124.777   2
  -1 -15   8 697.889 123.622   0
  -1  15   8 795.561 116.748   2
   1  15  -7 2648.12 156.790   2
  -1  15   7 2400.14 157.177   2
   1  15  -7 2574.42 209.823   0
  -1 -15   7 2747.68 205.531   0
  -1  15   7 2440.94 153.978   0
   1  15  -6 5315.33 266.224   0
   1  15  -6 5047.95 196.831   2
  -1 -15   6 4978.41 252.432   0
  -1  15   6 5146.88 217.657   0
  -1  15   6 5440.44 204.468   2
  -1  15   5-27.4465 80.9462   0
   1  15  -5 123.568 103.073   0
  -1  15   5 69.4335 68.3628   2
  -1 -15   5 11.6221 99.6024   0
   1  15  -5 85.2663 73.7761   2
  -1 -15   4 587.473 124.446   0
  -1  15   4 674.159 93.7704   2
   1  15  -4 644.044 114.376   0
   1  15  -4 626.006 95.0617   2
  -1  15   4 667.633 105.443   0
   1  15  -3 3424.73 159.972   2
  -1  15   3 3898.95 207.105   0
   1 -15  -3 3517.93 202.739   0
  -1 -15   3 3470.57 211.610   0
  -1  15   3 3870.53 162.403   2
   1  15  -3 3751.18 217.787   0
   1  15  -2 9280.28 239.134   2
  -1  15   2 8184.09 286.582   0
   1  15  -2 7767.95 292.470   0
   1 -15  -2 8372.27 292.832   0
  -1 -15   2 8354.92 306.041   0
  -1  15   2 7791.75 220.851   2
  -1  15   1 6647.30 264.274   0
  -1  15   1 6266.53 194.886   2
   1  15  -1 6612.97 268.516   0
   1  15  -1 6660.25 205.777   2
  -1 -15   1 6483.63 268.973   0
   1 -15  -1 6341.85 261.502   0
  -1  15   0 9358.93 229.969   2
  -1  15   0 10025.5 324.146   0
   1  15   0 10120.2 318.910   0
   1 -15   0 9593.81 316.191   0
   1  15   0 9493.92 242.691   2
  -1 -15   0 9461.21 322.177   0
   1  15   1 2970.31 182.838   0
  -1  15  -1 3053.56 140.959   2
   1 -15   1 3086.75 190.905   0
   1  15   1 2853.16 145.101   2
  -1 -15  -1 3143.66 191.152   0
  -1  15  -1 3002.97 195.775   0
  -1  15  -2 2802.54 193.971   0
  -1  15  -2 2698.05 134.860   2
  -1 -15  -2 2675.93 178.331   0
   1  15   2 2725.98 149.496   2
   1  15   2 2812.08 177.342   0
   1 -15   2 2563.68 185.649   0
   1  15   3 1362.26 116.990   2
   1 -15   3 1057.38 137.129   0
  -1  15  -3 1321.40 104.939   2
   1  15   3 1608.87 136.912   0
  -1  15  -3 1256.93 144.605   0
   1  15   4 11184.3 318.688   0
  -1  15  -4 10772.0 246.499   2
   1  15   4 10762.9 266.561   2
   1 -15   4 11306.3 357.690   0
  -1  15  -4 11397.2 360.554   0
   1  15   5 3058.41 177.994   0
   1 -15   5 3198.37 137.037   1
   1 -15   5 3142.04 205.837   0
  -1  15  -5 3336.46 213.420   0
   1  15   5 3442.32 164.575   2
  -1  15  -5 3180.27 143.927   2
   1 -15   6 20.7591 58.6324   1
   1 -15   6 210.237 110.146   0
   1  15   6 36.3650 87.0541   0
   1  15   6 67.7235 73.8556   2
  -1  15  -6 85.5977 118.629   0
  -1  15  -6 89.4769 64.5174   2
   1 -15   7 1382.55 101.962   1
   1 -15   7 1695.07 165.641   0
   1  15   7 1360.77 123.333   0
   1  15   7 1426.21 133.187   2
   1 -15   8 345.633 124.132   0
   1  15   8 304.721 87.9695   2
   1  15   9 717.438 117.272   2
   1 -15   9 683.139 139.071   0
   1  15  10 1494.66 135.401   2
   1  15  11 526.073 106.319   2
   1  15  12 2012.41 162.517   2
  -1  16  12 101.773 118.296   2
   1  16 -11 3637.35 209.437   2
  -1  16  11 3749.06 209.362   2
  -1  16  10 11.9339 94.6152   2
   1  16 -10 48.8454 96.6319   2
   1  16  -9 3416.77 190.713   2
  -1  16   9 3745.32 200.169   2
   1  16  -8 1932.05 145.059   2
  -1 -16   8 1791.54 191.129   0
  -1  16   8 1958.48 158.078   2
  -1  16   7 191.944 99.2362   0
   1  16  -7 370.516 150.814   0
  -1  16   7 230.194 92.1435   2
   1  16  -7 260.351 85.4954   2
  -1 -16   7 293.175 124.835   0
  -1 -16   6 2294.64 190.796   0
  -1  16   6 2094.51 146.896   2
   1  16  -6 2173.07 195.589   0
   1  16  -6 2234.01 151.917   2
  -1  16   6 2044.71 148.576   0
  -1 -16   5 3272.20 218.490   0
   1  16  -5 3207.97 160.999   2
  -1  16   5 3121.83 190.849   0
  -1  16   5 3388.36 174.055   2
   1  16  -5 2872.55 208.072   0
   1  16  -4 228.328 103.396   0
  -1 -16   4 224.557 114.585   0
  -1  16   4 115.245 94.2534   0
  -1  16   4 130.537 87.4180   2
   1  16  -4 151.425 82.7198   2
  -1  16   3 3137.24 200.444   0
   1  16  -3 3164.31 214.287   0
  -1  16   3 3110.26 156.515   2
  -1 -16   3 2812.56 207.366   0
   1  16  -3 3126.55 157.350   2
  -1  16   2 171.080 75.9609   2
   1  16  -2 21.4778 76.5038   2
  -1  16   2-61.7724 110.329   0
   1 -16  -2 22.8311 101.467   0
   1  16  -2 154.994 108.523   0
  -1 -16   2-22.2343 91.6593   0
  -1  16   1 94.0779 72.4800   2
   1  16  -1 127.929 96.2038   0
  -1 -16   1 117.860 106.995   0
   1  16  -1 78.8826 75.4285   2
   1 -16  -1 96.2885 97.7011   0
  -1  16   1 218.717 97.8292   0
   1  16   0 522.543 92.1137   2
   1  16   0 616.979 126.257   0
   1 -16   0 495.152 122.378   0
  -1  16   0 580.630 94.5548   2
  -1 -16   0 567.401 118.003   0
  -1  16   0 455.159 110.969   0
  -1  16  -1 2830.60 202.985   0
  -1 -16  -1 2934.91 195.244   0
   1  16   1 2551.09 144.547   2
   1  16   1 2625.38 187.685   0
   1 -16   1 2722.89 193.490   0
  -1  16  -1 2520.61 142.267   2
   1 -16   2 615.294 123.048   0
   1  16   2 598.630 112.964   0
   1  16   2 666.166 98.6269   2
  -1  16  -2 627.312 90.4884   2
  -1 -16  -2 713.473 110.885   0
  -1  16  -2 576.192 125.035   0
  -1  16  -3 3041.37 215.593   0
   1  16   3 3135.70 162.154   2
  -1  16  -3 3175.71 152.976   2
   1 -16   3 3514.50 215.039   0
   1  16   3 3404.22 196.735   0
  -1  16  -4 1105.68 141.097   0
   1 -16   4 1119.73 140.326   0
  -1  16  -4 875.949 105.674   2
   1  16   4 792.382 104.267   2
   1  16   4 969.044 130.486   0
  -1  16  -5 141.703 69.5820   2
   1  16   5 277.496 96.4681   0
   1  16   5 147.797 82.5644   2
   1 -16   5 111.715 102.618   0
   1 -16   5 216.471 64.8969   1
  -1  16  -5 113.120 116.383   0
  -1  16  -6 1648.39 169.995   0
   1  16   6 1887.54 144.716   2
   1 -16   6 1819.89 120.268   1
   1 -16   6 2102.32 189.920   0
   1  16   6 1912.24 138.233   0
  -1  16  -6 1784.28 129.431   2
   1  16   7 4368.55 202.346   0
   1  16   7 5111.97 217.596   2
   1 -16   7 5628.18 285.498   0
   1  16   8 1445.85 141.533   2
   1 -16   8 1018.54 151.958   0
   1  16   9 2435.59 172.796   2
   1  16  10 149.493 96.9837   2
   1  16  11-35.3146 119.109   2
   1  16  12 156.100 129.931   2
  -1  17  11 122.993 112.521   2
  -1  17  10 392.016 102.309   2
   1  17 -10 435.920 109.059   2
  -1  17   9 25.6110 101.286   2
   1  17  -9 72.4653 101.478   2
   1  17  -8 3259.24 185.524   2
  -1  17   8 3464.95 198.047   2
  -1  17   7 2345.79 165.935   0
   1  17  -7 2255.56 223.951   0
  -1 -17   7 2887.13 218.734   0
  -1  17   7 2815.83 171.226   2
   1  17  -7 2394.50 163.666   2
  -1 -17   6 4187.23 259.875   0
  -1  17   6 4442.52 209.486   2
   1  17  -6 4131.38 191.655   2
  -1  17   6 4237.20 222.219   0
   1  17  -6 4306.27 268.327   0
   1  17  -5 675.075 135.746   0
  -1 -17   5 691.792 143.461   0
  -1  17   5 746.231 129.727   0
  -1  17   5 689.530 103.230   2
   1  17  -5 687.581 111.987   2
  -1  17   4 404.877 97.2089   2
  -1  17   4 329.184 109.461   0
  -1 -17   4 376.079 130.035   0
   1  17  -4 478.479 137.396   0
   1  17  -4 337.307 94.7310   2
  -1 -17   3 854.472 137.704   0
   1  17  -3 963.556 144.470   0
   1  17  -3 1048.22 115.572   2
  -1  17   3 814.827 104.033   2
  -1  17   3 780.051 128.510   0
  -1  17   2 8509.60 320.088   0
  -1  17   2 7952.12 245.892   2
   1  17  -2 8335.33 332.764   0
  -1 -17   2 7848.88 327.827   0
   1 -17  -2 7116.99 304.546   0
   1  17  -2 8243.66 249.607   2
   1  17  -1 71.5272 101.483   0
  -1 -17   1 138.168 106.713   0
   1  17  -1 133.414 82.4377   2
  -1  17   1 107.604 77.9985   2
  -1  17   1 49.1627 107.889   0
   1 -17  -1 58.5720 122.274   0
  -1  17   0 248.181 81.8400   2
   1 -17   0 273.160 114.879   0
   1  17   0 280.621 108.160   0
   1  17   0 217.377 82.8169   2
  -1  17   0 154.049 106.891   0
  -1 -17   0 114.669 113.903   0
   1  17   1 550.813 105.930   2
   1  17   1 572.370 118.516   0
  -1 -17  -1 509.925 123.701   0
  -1  17  -1 657.880 130.379   0
  -1  17  -1 428.839 84.1829   2
   1 -17   1 358.647 121.091   0
   1  17   2-30.6638 88.2492   2
  -1  17  -2-120.042 76.8787   2
   1 -17   2-0.28199 120.473   0
   1  17   2 78.3250 106.995   0
  -1  17  -2 95.4876 111.460   0
   1  17   3 373.047 92.2211   2
   1 -17   3 449.319 119.002   0
   1  17   3 162.868 105.167   0
  -1  17  -3 343.696 82.7197   2
  -1  17  -3 228.196 116.843   0
   1  17   4 1049.28 141.494   0
   1 -17   4 1103.62 147.269   0
  -1  17  -4 1109.11 110.509   2
   1  17   4 1244.77 122.826   2
  -1  17  -4 861.449 170.116   0
   1  17   5 1081.48 121.989   0
   1 -17   5 962.818 96.8361   1
  -1  17  -5 917.093 109.758   2
   1 -17   5 855.091 134.311   0
  -1  17  -5 725.292 137.653   0
   1  17   5 860.628 113.066   2
  -1  17  -6 1469.08 181.348   0
   1  17   6 1517.20 147.495   0
   1 -17   6 1485.23 118.162   1
   1 -17   6 1589.68 179.681   0
   1  17   6 1314.57 138.163   2
  -1  17  -6 1386.53 129.084   2
   1  17   7 416.330 98.0730   2
   1  17   8 923.118 132.488   2
   1  17   9 1040.50 132.609   2
   1  17  10 7.19026 107.451   2
   1  17  11 3021.70 201.821   2
  -1  18  10 454.191 123.065   2
   1  18 -10 274.065 124.147   2
  -1  18   9-27.6321 107.065   2
   1  18  -9 142.974 108.720   2
  -1  18   8 3074.74 187.489   2
   1  18  -8 2303.86 176.549   2
   1  18  -7 2741.37 185.766   2
  -1  18   7 2865.51 188.102   2
  -1  18   6 104.216 88.7509   2
   1  18  -6 316.372 171.141   0
  -1  18   6 120.156 139.026   0
   1  18  -6 63.0453 90.5963   2
   1  18  -5 742.106 151.847   0
  -1  18   5 559.093 132.955   0
  -1 -18   5 571.177 152.068   0
   1  18  -5 782.198 114.454   2
  -1  18   5 642.124 116.635   2
   1  18  -4 10953.3 294.402   2
  -1 -18   4 9657.40 389.335   0
   1  18  -4 10616.5 416.207   0
  -1  18   4 9423.10 347.882   0
  -1  18   4 10920.4 301.907   2
  -1 -18   3-25.3641 133.673   0
  -1  18   3-7.67718 83.8175   2
  -1  18   3-114.124 123.341   0
   1  18  -3-48.3786 132.298   0
   1  18  -3 85.1777 88.7107   2
  -1 -18   2 388.689 147.824   0
   1  18  -2 506.397 125.881   0
  -1  18   2 612.616 105.656   2
  -1  18   2 443.318 121.513   0
   1  18  -2 417.715 101.847   2
   1  18  -1 676.722 144.811   0
  -1 -18   1 923.782 151.728   0
   1  18  -1 856.656 111.659   2
  -1  18   1 1130.53 158.297   0
  -1  18   1 829.698 111.910   2
   1 -18  -1 619.924 139.891   0
   1  18   0 8074.75 255.284   2
   1  18   0 7332.06 317.572   0
  -1  18   0 7574.49 333.535   0
   1 -18   0 7167.11 316.059   0
  -1  18   0 7489.47 240.902   2
  -1 -18   0 6993.86 324.575   0
   1  18   1 1638.12 171.540   0
  -1  18  -1 1713.02 130.369   2
   1  18   1 1458.42 136.055   2
  -1  18  -1 1425.02 179.372   0
   1 -18   1 1395.99 164.046   0
  -1  18  -2 2025.30 205.652   0
   1 -18   2 2276.09 194.182   0
   1  18   2 2508.22 200.236   0
   1  18   2 2261.14 155.764   2
  -1  18  -2 2372.08 149.636   2
   1  18   3 42.4590 126.943   0
  -1  18  -3 42.4721 76.7701   2
  -1  18  -3-15.9351 151.539   0
   1 -18   3-303.080 149.658   0
   1  18   3-156.497 89.1528   2
  -1  18  -4 107.100 76.8714   2
   1  18   4-154.414 130.400   0
   1 -18   4 186.089 69.1073   1
  -1  18  -4 151.861 147.606   0
   1 -18   4 68.6504 151.925   0
   1  18   4 162.775 93.8689   2
   1  18   5-3.16128 130.423   0
   1 -18   5 76.9832 73.5662   1
  -1  18  -5-18.4341 83.1281   2
   1  18   5 35.4675 84.3699   2
   1  18   6 154.788 148.921   0
   1  18   6 240.241 92.2153   2
   1  18   7-44.8623 87.5149   2
   1  18   8 2732.96 187.322   2
   1  18   9-6.78476 114.097   2
   1  18  10 623.284 129.878   2
  -1  19   9 4375.46 233.769   2
   1  19  -9 3440.81 212.561   2
   1  19  -8 1213.14 141.380   2
  -1  19   8 1483.79 154.859   2
  -1  19   7 3303.99 199.039   2
   1  19  -7 3006.72 196.239   2
  -1  19   6-45.2401 96.3428   2
   1  19  -6 140.295 95.2027   2
  -1  19   5 154.562 96.5565   2
   1  19  -5 25.9603 99.0876   2
   1  19  -4 562.586 118.910   2
  -1  19   4 811.208 127.485   2
  -1 -19   3 7171.30 345.397   0
  -1  19   3 7548.38 263.210   2
   1  19  -3 8292.40 269.648   2
  -1 -19   2 43.1442 176.679   0
  -1  19   2 115.584 80.8567   2
   1  19  -2 108.335 97.2376   2
   1  19  -2 140.082 169.335   0
  -1  19   2 76.4034 150.947   0
   1  19  -1 3449.95 190.394   2
  -1  19   1 3968.84 255.862   0
   1  19  -1 4001.00 262.930   0
  -1 -19   1 3181.59 251.167   0
  -1  19   1 3760.83 192.384   2
  -1  19   0 2234.25 212.625   0
   1  19   0 2900.40 229.866   0
  -1 -19   0 2269.09 226.504   0
   1 -19   0 2275.55 206.734   0
  -1  19   0 2348.43 158.282   2
   1  19   0 2299.06 161.161   2
   1  19   1 92.5234 150.591   0
   1 -19   1 282.889 174.905   0
  -1  19  -1 130.093 85.0887   2
   1  19   1 111.998 99.3430   2
  -1  19  -1 182.385 161.385   0
   1  19   2 245.096 106.455   2
   1  19   2 121.781 140.852   0
   1 -19   2 103.156 178.465   0
  -1  19  -2 91.2756 94.7914   2
  -1  19  -2 196.224 146.788   0
  -1  19  -3 1770.33 139.592   2
   1  19   3 1914.00 153.664   2
   1  19   4 210.242 95.9669   2
  -1  19  -4 133.954 85.0039   2
   1 -19   4 244.797 80.1518   1
   1  19   5 2511.32 182.817   2
  -1  19  -5 1821.91 146.577   2
   1  19   6 790.409 118.510   2
   1  19   7 2139.51 168.113   2
   1  19   8-289.264 112.805   2
   1  20  -8 749.991 141.719   2
  -1  20   7 4443.93 234.004   2
   1  20  -7 4419.87 227.493   2
  -1  20   6 4621.24 239.335   2
   1  20  -6 4712.00 233.727   2
  -1  20   5 906.846 140.113   2
   1  20  -5 810.738 137.263   2
  -1  20   4 1876.67 162.755   2
   1  20  -4 1664.05 166.537   2
  -1  20   3 2303.48 182.320   2
   1  20  -3 2430.27 180.084   2
  -1  20   2 289.838 106.102   2
   1  20  -2 477.706 106.507   2
  -1  20   1 461.481 105.795   2
   1  20  -1 483.927 122.208   2
  -1  20   0 1267.72 137.645   2
   1  20   0 1349.10 139.797   2
  -1  20  -1 1002.68 115.721   2
   1  20   1 1166.55 132.179   2
  -1  20  -2 96.2737 95.9152   2
   1  20   2 14.9830 99.1316   2
  -1  20  -3-63.6862 99.2545   2
   1  20   3-52.7890 105.294   2
   1 -20   4 84.0239 91.4784   1
  -1  20  -4 21.7787 102.026   2
   1  20   4-35.3957 96.0899   2
   1  20   5 7497.30 292.618   2
   1  20   6 446.330 119.516   2
   1  20   7 258.583 112.853   2
   1  21  -6 1761.39 185.084   2
  -1  21   6 2391.87 188.172   2
  -1  21   5 723.025 132.882   2
   1  21  -5 740.447 135.111   2
   1  21  -4 18.4787 104.801   2
  -1  21   4 22.0096 105.870   2
  -1  21   3 1330.02 145.787   2
   1  21  -3 1236.91 150.229   2
  -1  21   2 3601.73 208.785   2
   1  21  -2 3403.18 204.620   2
   1  21  -1 75.7413 107.318   2
  -1  21   1 224.877 104.422   2
   1  21   0 638.301 132.410   2
  -1  21   0 398.762 112.912   2
  -1  21  -1 265.898 99.3915   2
   1  21   1 219.200 103.260   2
  -1  21  -2 1031.42 130.028   2
   1  21   2 1117.70 142.910   2
   1  21   3 1672.36 155.788   2
  -1  21  -3 1379.68 152.504   2
   1  21   4 1945.68 190.384   2
   1  21   5 933.921 145.992   2
  -1  22   3 25.6619 131.539   2
   1  22  -3 202.560 131.605   2
   1  22  -2 177.928 126.353   2
  -1  22   2 90.2118 115.116   2
  -1  22   1 29.6438 124.989   2
   1  22  -1-49.2015 109.917   2
  -1  22   0 326.883 115.513   2
   1  22   0 255.186 124.839   2
  -1  22  -1 937.874 147.373   2
   1  22   1 1139.49 147.678   2
  -1  22  -2 72.8873 121.192   2
   1  22   2 59.0868 113.369   2
  -2   0  12 678.203 87.3780   2
  -2   0  11-17.1738 59.6540   2
  -2   0  10 3948.65 144.064   2
  -2   0   9 24.3167 22.9282   0
  -2   0   9 18.7009 49.5529   2
  -2   0   8 40361.7 372.505   2
  -2   0   8 42464.0 309.117   0
  -2   0   7 12.0423 37.4868   2
  -2   0   7-8.15827 27.4130   0
  -2   0   6 21.2726 34.1079   2
  -2   0   6 46.6622 28.4627   0
  -2   0   5 31.5217 29.1442   0
  -2   0   5 0.21230 33.2655   2
  -2   0   4 14421.9 192.078   0
  -2   0   4 14510.6 170.727   2
  -2   0   3 6.66805 29.9721   0
  -2   0   3 10.0723 25.9758   2
   2   0  -2 41292.5 688.020   1
  -2   0   2 40128.2 313.283   0
  -2   0   2 40108.1 902.682   2
   2   0  -1 28.4925 18.0035   1
  -2   0   1 2.60212 30.7762   0
  -2   0   0 147832. 2412.50   0
   2   0   0 142998. 1591.88   1
   2   0   1 11.9597 25.7363   1
  -2   0  -1 2.57135 33.3665   0
   2   0   2 17862.1 171.539   1
  -2   0  -2 17883.5 213.848   0
   2   0   3 15.5922 31.8328   1
  -2   0  -3 34.3179 28.7192   0
   2   0   4 13028.0 171.556   1
  -2   0  -4 12775.3 183.785   0
   2   0   4 12792.9 90.5028   2
   2   0   5 4.48969 34.8625   1
   2   0   5 6.21700 16.6169   2
  -2   0  -5 20.1413 30.9782   0
   2   0   5 19.3899 28.7443   0
  -2   0  -6 16443.7 209.350   0
   2   0   6 16558.6 221.973   1
   2   0   6 15369.9 191.728   0
   2   0   6 16604.3 141.714   2
   2   0   7 17.3319 22.7791   2
   2   0   7-12.0237 40.4940   1
   2   0   8 3322.55 120.015   1
   2   0   8 3594.03 86.1310   2
   2   0   9 41.6740 46.2831   1
   2   0  10 1715.09 101.899   1
   2   0  11 5.08919 61.3918   1
   2   0  12 2088.56 124.555   1
   2   0  13 27.5399 75.4994   1
   2   0  14 3633.95 178.222   1
   2   0  15 79.2705 86.9504   1
  -2   1  13 4489.64 175.675   2
  -2   1  12 4588.98 171.818   2
  -2   1  11 9777.47 224.977   2
  -2  -1  10 447.787 37.8687   0
  -2   1  10 445.466 68.6531   2
  -2  -1   9 15755.5 251.566   2
  -2   1   9 15808.9 253.020   2
  -2  -1   9 15440.4 194.456   0
  -2   1   9 15081.5 150.667   0
  -2   1   8 9569.41 186.738   2
  -2  -1   8 9842.85 189.172   2
  -2  -1   8 9970.92 164.637   0
  -2  -1   8 9699.58 109.326   1
  -2   1   8 10107.5 142.425   0
  -2   1   7 10629.0 155.792   0
  -2   1   7 10757.5 184.292   2
   2   1  -7 10962.7 184.507   0
  -2  -1   7 10950.4 186.167   2
  -2  -1   7 10554.0 170.474   0
  -2  -1   6 3523.28 102.549   0
  -2   1   6 3461.13 102.298   2
  -2   1   6 3575.90 95.3304   0
  -2  -1   6 3619.97 104.676   2
  -2  -1   5 11.9942 32.7428   2
  -2  -1   5-2.80886 31.0081   0
  -2   1   5 12.7141 27.2326   0
  -2   1   5 7.27736 30.3712   2
  -2  -1   4 20654.7 204.983   2
  -2  -1   4 20329.3 233.281   0
  -2   1   4 21767.9 231.326   0
  -2   1   4 20909.3 201.823   2
  -2   1   3 36634.2 301.088   0
  -2  -1   3 36875.5 309.125   0
  -2   1   3 37116.2 245.015   2
  -2   1   2 46713.6 242.297   3
   2   1  -2 43623.8 617.845   1
  -2  -1   2 44808.0 337.440   0
  -2   1   2 46288.3 339.839   0
  -2   1   2 45619.5 952.931   2
  -2   1   1 34.9951 21.5290   2
  -2   1   1 33.8075 35.7516   0
   2  -1  -1 38.6075 22.0565   1
  -2  -1   1 9.64663 35.3323   0
   2   1  -1 26.7973 16.5565   1
  -2   1   0 5832.11 127.713   0
   2   1   0 5331.07 77.9023   1
   2  -1   0 5375.56 84.4144   1
  -2  -1   0 5305.94 118.988   0
  -2   1   0 5471.84 61.2358   2
   2   1   1 23652.3 178.673   1
   2  -1   1 23926.8 186.482   1
  -2  -1  -1 23649.0 242.519   0
  -2   1  -1 24003.4 252.828   0
   2   1   2 1742.15 60.2158   1
   2  -1   2 1669.90 60.3044   1
  -2  -1  -2 1705.30 72.3139   0
   2   1   2 1818.96 35.9609   2
  -2   1  -2 1722.65 75.6299   0
   2  -1   3 60975.9 343.764   1
  -2  -1  -3 59824.2 382.892   0
   2   1   3 60157.5 340.156   1
  -2   1  -3 59786.9 403.451   0
   2   1   3 61139.8 816.014   2
  -2   1  -4 31852.6 301.001   0
   2   1   4 32404.0 269.855   1
   2  -1   4 32627.3 270.616   1
  -2  -1  -4 32617.1 281.675   0
   2   1   4 32922.0 169.810   2
   2   1   4 30809.1 271.885   0
   2   1   5 52085.6 366.487   1
   2  -1   5 52507.8 364.502   1
   2   1   5 52248.2 342.249   0
  -2  -1  -5 52921.0 356.846   0
   2   1   5 52134.8 242.396   2
  -2   1  -5 53190.3 391.334   0
   2   1   6 3221.03 86.5698   0
   2   1   6 3508.83 107.889   1
  -2   1  -6 3485.41 107.241   0
   2  -1   6 3510.85 106.732   1
  -2  -1  -6 3497.87 96.0912   0
   2   1   6 3578.00 74.5217   2
   2   1   7 24544.7 286.417   1
   2   1   7 24338.0 204.631   2
   2  -1   7 24289.8 283.076   1
   2   1   8 49.2947 42.2154   1
   2  -1   8 8.46025 42.5672   1
   2   1   8 4.34074 12.1467   0
   2   1   8 53.6073 30.0599   2
   2   1   9 2322.00 108.439   1
   2  -1   9 2287.55 108.321   1
   2   1  10 533.323 71.9075   1
   2  -1  10 394.303 69.3289   1
   2   1  11 1631.43 108.778   1
   2  -1  11 1670.62 106.029   1
   2   1  12 4334.79 168.152   1
   2  -1  12 4106.53 163.998   1
   2   1  13 5584.72 203.767   1
   2  -1  13 5438.72 195.350   1
   2  -1  14 4890.26 196.186   1
   2   1  14 5319.57 200.889   1
   2   1  15 890.039 108.264   1
   2  -1  15 712.887 106.363   1
  -2   2  14 9897.01 266.570   2
  -2   2  13 1428.24 112.715   2
  -2   2  12 6808.87 202.790   2
  -2   2  11 1355.57 101.899   2
  -2   2  10 4836.38 157.444   2
  -2  -2  10 5220.05 120.446   0
  -2   2   9 4752.35 74.7377   0
  -2   2   9 5421.21 155.602   2
  -2  -2   9 5433.57 132.262   0
  -2   2   8 30639.0 233.928   0
  -2   2   8 29900.1 328.036   2
   2   2  -8 29627.0 317.660   0
  -2  -2   8 30982.5 307.324   0
   2   2  -7 916.798 64.6693   0
  -2   2   7 931.871 51.6511   0
  -2   2   7 963.809 67.4976   2
  -2  -2   7 861.839 61.4087   0
   2   2  -6 4306.50 122.636   0
  -2   2   6 4227.02 113.574   2
  -2  -2   6 4450.35 119.993   0
  -2   2   6 4249.63 103.433   0
  -2   2   5 7347.69 135.988   0
  -2   2   5 7405.46 133.357   2
  -2  -2   5 7470.17 152.262   0
  -2  -2   4 7201.91 147.054   0
  -2   2   4 7026.20 136.582   0
  -2   2   4 6883.36 120.246   2
  -2   2   3 8556.53 151.418   0
  -2   2   3 8526.96 121.179   2
  -2  -2   3 8792.04 160.529   0
  -2  -2   2 13096.0 190.554   0
   2   2  -2 13053.6 77.9356   1
  -2   2   2 13959.3 194.252   0
  -2   2   2 13606.8 135.738   2
  -2  -2   1 27186.4 270.281   0
  -2   2   1 28481.0 169.289   2
   2   2  -1 27926.9 148.336   1
  -2   2   1 27523.1 271.774   0
  -2  -2   0 1375.72 69.2685   0
   2  -2   0 1547.77 52.6080   1
  -2   2   0 1463.09 70.1624   0
  -2   2   0 1516.86 35.7891   2
   2   2   0 1377.44 43.6718   1
   2   2   1 18132.8 158.260   1
  -2  -2  -1 17265.7 211.845   0
  -2   2  -1 17478.6 224.184   0
   2  -2   1 18177.4 169.458   1
   2   2   2 772.054 46.1429   1
  -2  -2  -2 889.975 55.5158   0
  -2   2  -2 789.555 60.3612   0
   2   2   2 743.799 32.5039   2
   2  -2   2 883.817 48.7334   1
   2   2   3 22113.5 209.658   1
   2  -2   3 21474.8 209.278   1
  -2  -2  -3 22519.4 236.910   0
   2   2   3 22062.6 149.049   2
  -2   2  -3 21748.1 255.970   0
   2   2   4 305.733 40.2410   1
  -2  -2  -4 256.751 37.1446   0
   2   2   4 210.684 34.9050   0
   2  -2   4 252.954 40.9863   1
  -2   2  -4 258.023 42.5702   0
   2   2   4 292.750 27.1451   2
   2   2   5 37263.7 312.960   1
   2  -2   5 36566.7 308.220   1
  -2  -2  -5 36299.4 294.149   0
  -2   2  -5 36629.8 342.489   0
   2   2   5 35842.9 282.748   0
   2   2   5 37915.7 228.250   2
   2   2   6 3091.34 105.447   1
   2   2   6 3077.56 75.8081   2
  -2  -2  -6 3001.19 88.1024   0
  -2   2  -6 3041.76 107.235   0
   2  -2   6 3124.22 101.971   1
   2   2   7 6204.70 149.678   1
   2  -2   7 5936.12 147.010   1
   2   2   7 6130.78 110.907   2
   2   2   7 6064.47 94.9630   0
   2   2   8 162.753 53.8547   1
   2  -2   8 149.526 50.7239   1
   2   2   8 228.301 37.5776   2
   2   2   9 12164.6 231.209   1
   2  -2   9 12065.8 227.951   1
   2   2   9 12316.1 179.826   2
   2  -2  10 1303.15 94.1927   1
   2   2  10 1373.19 99.5620   1
   2  -2  11 5470.19 174.261   1
   2   2  11 5940.11 186.910   1
   2   2  12 2233.41 133.102   1
   2  -2  12 2155.82 126.448   1
   2  -2  13 46.3895 72.6517   1
   2   2  13 97.7637 76.6362   1
   2   2  14 2030.08 143.302   1
   2  -2  14 1779.85 134.727   1
   2   2  15 44.6434 85.7449   1
   2   2  16 1064.33 140.103   1
  -2   3  15 75.2520 83.9763   2
  -2   3  14 1950.85 136.410   2
  -2   3  13 183.740 78.7621   2
  -2   3  12 12389.9 269.535   2
  -2   3  11 486.869 79.5500   2
  -2   3  10 2473.09 118.488   2
  -2  -3  10 2353.85 95.8864   0
  -2  -3   9 1646.65 84.5838   0
  -2   3   9 1641.50 95.6115   2
  -2   3   9 1356.87 36.7165   0
  -2   3   8 388.213 33.4061   0
  -2  -3   8 285.346 46.4728   0
  -2   3   8 357.810 59.0664   2
   2   3  -8 380.168 52.8348   0
  -2   3   7 22920.0 223.694   0
  -2   3   7 23379.9 276.809   2
   2   3  -7 22936.9 295.724   0
  -2  -3   7 24064.1 292.342   0
   2   3  -6 22033.6 282.014   0
  -2   3   6 21867.8 230.139   0
  -2   3   6 22293.1 252.262   2
  -2   3   6 19411.1 218.152   0
  -2  -3   6 22020.9 275.376   0
  -2  -3   5 1260.46 72.8779   0
   2   3  -5 1084.76 70.7879   0
  -2   3   5 1124.95 61.1270   0
  -2   3   5 1160.55 62.1968   2
  -2  -3   4 2606.88 97.3074   0
   2   3  -4 2493.76 97.7006   0
  -2   3   4 2718.39 81.1256   2
  -2   3   4 2718.15 90.9112   0
  -2  -3   3 1093.02 68.9815   0
  -2   3   3 1272.75 68.1661   0
  -2   3   3 1270.40 55.3873   2
   2   3  -2 17661.3 96.7489   1
  -2  -3   2 17393.8 230.528   0
  -2   3   2 18153.7 162.796   2
  -2   3   2 18409.8 229.199   0
   2   3  -1 2369.61 48.1265   1
  -2  -3   1 2396.78 92.1033   0
  -2   3   1 2485.26 57.2769   2
  -2  -3   1 2470.35 65.2784   3
  -2   3   1 2331.49 89.4270   0
   2   3   0 961.366 39.5582   1
  -2  -3   0 1012.32 63.5600   0
  -2   3   0 980.227 34.1715   2
  -2   3   0 943.740 63.8311   0
  -2  -3  -1 9577.29 165.148   0
   2  -3   1 9454.45 129.876   1
   2   3   1 9413.71 118.753   1
  -2   3  -1 9340.37 172.847   0
  -2   3  -1 9382.23 75.5903   2
  -2  -3  -2 12997.9 188.962   0
   2  -3   2 13244.3 160.067   1
   2   3   2 12369.8 126.093   2
  -2   3  -2 13170.6 207.849   0
   2   3   2 13131.6 154.566   1
   2   3   3 3384.14 88.3961   1
  -2  -3  -3 3411.02 99.5873   0
   2  -3   3 3446.46 90.6965   1
   2   3   3 3520.42 71.5739   2
  -2   3  -3 3401.58 112.518   0
  -2   3  -4 22640.4 281.033   0
   2  -3   4 23096.1 236.573   1
  -2  -3  -4 23864.2 247.435   0
   2   3   4 23386.7 185.045   2
   2   3   4 21159.6 235.220   0
   2   3   4 23114.6 235.423   1
   2  -3   5 106.731 40.8424   1
   2   3   5 194.448 33.8837   0
  -2   3  -5 93.3556 39.9613   0
   2   3   5 163.473 43.2868   1
  -2  -3  -5 182.069 34.2268   0
   2   3   5 157.585 29.5039   2
  -2  -3  -6 10783.7 162.072   0
   2   3   6 10879.5 186.725   1
   2  -3   6 10786.5 183.090   1
   2   3   6 11485.8 148.899   2
   2   3   6 11578.1 149.986   0
  -2   3  -6 10956.5 205.439   0
   2  -3   7 1451.24 82.0042   1
   2   3   7 1553.74 66.0966   2
   2   3   7 1461.19 48.7723   0
  -2   3  -7 1434.69 85.7995   0
   2   3   7 1590.07 84.5092   1
   2   3   8 11631.3 171.697   2
   2   3   8 11158.6 213.614   1
   2  -3   8 11244.5 208.435   1
   2  -3   9 1259.65 88.7060   1
   2   3   9 1396.87 72.7081   2
   2   3   9 1343.60 92.2339   1
   2   3  10 5.51520 55.6195   1
   2  -3  10-23.2974 55.8092   1
   2   3  11 18.9039 65.9622   1
   2  -3  11 1.50339 58.3506   1
   2   3  12 12613.1 281.436   1
   2  -3  12 12967.2 273.048   1
   2   3  13-7.61178 69.9185   1
   2  -3  13-58.3111 71.5650   1
   2   3  14 1854.84 137.091   1
   2  -3  14 2051.71 133.875   1
   2   3  15 383.105 106.346   1
   2   3  16 158.765 116.937   1
  -2   4  16 2118.81 152.942   2
  -2   4  15 6104.86 233.376   2
  -2   4  14 2869.98 162.146   2
  -2   4  13 2000.10 135.953   2
  -2   4  12 463.120 84.1521   2
  -2   4  11 47.9404 66.3048   2
  -2  -4  11 25.7966 45.8235   0
  -2  -4  10-27.5741 42.8958   0
  -2   4  10 59.3816 56.0851   2
  -2  -4   9 38249.4 391.750   0
  -2   4   9 37961.6 401.884   2
  -2   4   8 26310.9 220.257   0
   2   4  -8 25730.6 338.451   0
  -2  -4   8 25813.9 323.303   0
  -2   4   8 26355.1 316.130   2
  -2   4   7 1664.05 68.1095   0
  -2  -4   7 1717.30 92.4009   0
  -2   4   7 1664.69 86.5463   2
   2   4  -7 1740.19 93.6621   0
  -2  -4   6 315.438 49.3587   0
   2   4  -6 332.859 54.2025   0
  -2   4   6 356.681 43.1780   0
  -2   4   6 392.804 51.3311   2
  -2   4   5 3817.53 105.214   2
  -2   4   5 3697.92 107.076   0
   2   4  -5 3639.90 125.573   0
  -2  -4   5 3631.33 122.922   0
   2   4  -4 10269.1 196.764   0
  -2   4   4 10068.9 154.013   2
  -2  -4   4 10045.6 193.547   0
  -2   4   4 10368.6 176.995   0
  -2   4   3 4136.66 116.623   0
   2   4  -3 3933.93 122.423   0
  -2   4   3 3800.67 89.5740   2
  -2  -4   3 3915.81 123.553   0
   2   4  -2 1413.43 78.4338   0
  -2   4   2 1382.37 53.9777   2
  -2  -4   2 1389.79 76.5376   0
  -2   4   2 1286.59 72.6491   0
   2   4  -2 1308.88 33.4607   1
   2   4  -1 58420.5 959.252   1
  -2   4   1 58825.2 433.339   0
  -2  -4   1 58494.7 435.900   0
  -2   4   1 59395.0 1112.63   2
   2   4  -1 57861.5 434.274   0
   2   4   0 32203.2 203.477   1
  -2  -4   0 31585.0 317.253   0
   2   4   0 31248.6 312.723   0
  -2   4   0 31778.7 183.838   2
  -2   4   0 32275.8 327.714   0
   2   4   1 100.362 37.2191   0
   2   4   1 112.060 27.3067   1
  -2  -4  -1 180.202 42.0726   0
  -2   4  -1 103.498 39.4938   0
  -2   4  -1 130.014 19.5650   2
   2  -4   1 114.389 28.7175   1
   2   4   1 156.648 30.4588   2
   2  -4   2 1127.14 57.1814   1
   2   4   2 1138.21 54.1077   1
  -2   4  -2 1162.83 32.3994   2
   2   4   2 1139.93 48.5439   2
  -2  -4  -2 1153.56 65.7592   0
   2   4   2 1046.98 64.0673   0
  -2   4  -2 1171.24 73.0039   0
   2   4   3 7043.76 127.871   1
  -2  -4  -3 7058.99 145.803   0
  -2   4  -3 7653.39 73.1699   2
   2  -4   3 7525.71 133.164   1
   2   4   3 7203.63 111.445   2
   2   4   3 7244.79 144.348   0
  -2   4  -3 7403.19 170.212   0
  -2  -4  -4 39244.4 331.193   0
  -2   4  -4 39468.7 388.600   0
   2  -4   4 38624.4 312.033   1
   2   4   4 38597.7 317.057   0
   2   4   4 39537.3 265.971   2
   2   4   4 39176.2 315.052   1
   2   4   5 28644.3 262.108   0
  -2  -4  -5 27502.5 272.598   0
   2  -4   5 26973.1 276.227   1
   2   4   5 25484.9 251.567   0
   2   4   5 28191.5 285.353   1
  -2   4  -5 27948.7 334.517   0
   2   4   5 28892.4 236.569   2
   2  -4   6 6128.31 143.335   1
   2   4   6 6478.12 123.476   2
   2   4   6 6223.02 116.491   0
   2   4   6 6394.14 150.038   1
  -2   4  -6 6231.32 168.192   0
   2   4   7 3532.46 123.458   1
   2   4   7 3463.72 73.5832   0
  -2   4  -7 3288.17 130.919   0
   2  -4   7 3447.46 116.909   1
   2   4   7 3453.26 98.8510   2
   2   4   8 1434.04 72.6242   2
   2  -4   8 1453.60 88.7737   1
   2   4   8 1419.53 90.5562   1
   2   4   9 2653.94 122.045   1
   2   4   9 2682.75 97.8893   2
   2  -4   9 2816.81 119.484   1
   2   4  10 6703.13 192.012   1
   2   4  10 6446.66 153.252   2
   2  -4  10 6450.22 182.589   1
   2   4  11 74.5617 64.1510   1
   2  -4  11 49.9314 59.8601   1
   2   4  12 617.057 94.1583   1
   2  -4  12 496.494 87.5892   1
   2   4  13 2302.62 145.860   1
   2  -4  13 2293.73 137.636   1
   2   4  14 289.451 92.5856   1
   2  -4  14 182.387 76.6801   1
   2   4  15 1375.37 139.654   1
   2   4  16 1131.08 134.648   1
  -2   5  17 4526.74 217.271   2
  -2   5  16 262.886 104.202   2
  -2   5  15 125.141 82.2725   2
  -2   5  14 49.9122 78.5792   2
  -2   5  13 3988.23 180.236   2
  -2   5  12 4556.18 178.133   2
  -2   5  11 470.180 77.2978   2
  -2  -5  11 462.282 65.1701   0
  -2  -5  10 73.6130 48.5674   0
  -2   5  10 34.6620 56.9505   2
  -2   5   9 3295.88 132.874   2
  -2  -5   9 3382.10 132.749   0
  -2  -5   8 9179.97 208.404   0
  -2   5   8 8555.46 135.101   0
   2   5  -8 8748.86 212.163   0
  -2   5   8 8971.95 194.298   2
  -2   5   7 18296.9 222.249   0
  -2   5   7 18474.4 261.299   2
   2   5  -7 19348.5 304.338   0
  -2  -5   7 19750.5 297.431   0
  -2   5   6 15576.6 216.885   0
   2   5  -6 14989.0 263.968   0
  -2  -5   6 15500.2 261.299   0
  -2   5   6 15332.4 222.576   2
  -2   5   5 9703.08 168.627   2
   2   5  -5 9452.09 205.376   0
  -2   5   5 9802.20 179.172   0
  -2  -5   5 9859.23 206.949   0
  -2  -5   4 2462.89 107.600   0
  -2   5   4 2437.33 83.9736   2
  -2   5   4 2582.91 98.8116   0
   2   5  -4 2443.85 108.160   0
  -2  -5   3 3002.90 116.041   0
   2   5  -3 3024.06 115.329   0
  -2   5   3 2997.63 84.7354   2
  -2   5   3 3135.40 108.318   0
  -2  -5   2 29433.4 333.584   0
   2   5  -2 29892.8 336.039   0
  -2   5   2 30767.7 234.566   2
  -2   5   2 30413.3 325.068   0
  -2  -5   1 22968.8 291.968   0
  -2   5   1 23159.9 190.806   2
  -2   5   1 22686.0 283.035   0
   2   5  -1 22237.0 285.958   0
   2   5  -1 23521.9 166.119   1
  -2  -5   0 88.3785 39.2051   0
   2   5   0 108.635 26.8903   1
  -2   5   0 123.830 44.7392   0
   2   5   0 87.2102 42.0560   0
  -2   5   0 88.8388 25.3813   2
   2   5   1 19674.8 187.519   1
  -2  -5  -1 19719.5 261.700   0
   2   5   1 19766.2 195.238   2
   2   5   1 19585.8 259.272   0
  -2   5  -1 20036.8 152.069   2
  -2   5  -1 19565.5 273.713   0
   2   5   2 6399.17 119.256   1
  -2  -5  -2 6523.91 152.110   0
  -2   5  -2 7040.25 87.1217   2
   2   5   2 6937.83 153.261   0
   2  -5   2 6884.23 127.237   1
   2   5   2 6436.25 113.247   2
  -2   5  -2 6881.56 169.253   0
  -2  -5  -3 5248.71 134.424   0
   2  -5   3 5157.94 117.008   1
   2   5   3 4865.67 126.444   0
  -2   5  -3 5219.78 73.9439   2
  -2   5  -3 4995.75 148.804   0
   2   5   3 4999.63 103.262   2
   2   5   3 5013.79 113.968   1
  -2  -5  -4 363.948 44.6660   0
   2   5   4 273.572 43.2017   0
   2   5   4 293.911 44.2623   1
   2   5   4 281.722 38.0192   2
   2  -5   4 268.168 44.5139   1
  -2   5  -4 226.120 51.8726   0
  -2   5  -4 272.759 26.0439   2
   2  -5   5 60.4148 39.0038   1
  -2   5  -5 11.3512 45.6958   0
  -2  -5  -5 27.9825 32.6272   0
   2   5   5 74.9505 40.2082   1
   2   5   5 63.4574 34.4363   2
   2   5   5 93.6427 33.3663   0
   2  -5   6 4813.93 130.586   1
   2   5   6 4933.57 110.464   0
   2   5   6 5122.90 118.192   2
   2   5   6 4831.74 136.150   1
  -2   5  -6 4941.32 159.457   0
   2   5   7 6956.65 168.848   1
  -2   5  -7 6921.84 190.140   0
   2  -5   7 6901.08 162.510   1
   2   5   7 7062.67 144.019   2
   2   5   7 6871.39 111.050   0
   2  -5   8 6483.35 167.035   1
   2   5   8 6309.31 172.911   1
   2   5   8 6481.57 146.041   2
   2   5   9 5023.65 164.587   1
   2   5   9 5413.92 143.400   2
   2  -5   9 4820.73 154.769   1
   2   5  10 661.484 83.9143   1
   2  -5  10 635.790 78.9894   1
   2   5  10 826.815 72.3106   2
   2   5  11 3494.38 158.795   1
   2  -5  11 3153.92 142.008   1
   2  -5  12 6119.18 194.019   1
   2   5  12 6267.11 212.948   1
   2  -5  13 804.061 96.6758   1
   2   5  13 791.072 106.981   1
   2   5  14 1018.86 119.897   1
   2   5  15 105.962 98.3780   1
   2   5  16 10.4668 114.219   1
  -2   6  17 1264.99 136.184   2
  -2   6  16 3639.57 193.811   2
  -2   6  15 109.881 86.7697   2
  -2   6  14 6140.08 228.892   2
  -2   6  13 2651.44 151.654   2
  -2   6  12 19.3503 69.1909   2
  -2   6  11-12.1549 68.8722   2
  -2  -6  11 21.1858 58.3104   0
  -2   6  10 2682.88 130.353   2
  -2  -6  10 2687.81 128.477   0
  -2   6   9 537.340 75.6383   2
  -2  -6   9 434.635 72.5052   0
  -2   6   8 8479.05 194.392   2
   2   6  -8 8087.61 218.712   0
  -2   6   8 8442.41 145.887   0
  -2  -6   8 8910.00 218.312   0
  -2   6   7 8895.94 189.163   2
   2   6  -7 8745.97 219.704   0
  -2   6   7 8689.00 165.355   0
  -2  -6   7 9076.38 216.924   0
  -2   6   6 9660.30 185.338   2
   2   6  -6 10165.2 229.062   0
  -2  -6   6 9843.09 223.146   0
  -2   6   6 9733.84 183.570   0
  -2   6   5 7286.83 164.568   0
   2   6  -5 7195.48 191.527   0
  -2   6   5 7284.64 152.281   2
  -2  -6   5 7867.73 198.679   0
  -2   6   4 1098.98 64.4932   2
  -2   6   4 1034.33 71.9369   0
   2   6  -4 1160.60 84.2251   0
  -2  -6   4 1031.16 80.5857   0
  -2   6   3 86.2738 35.9043   2
  -2  -6   3 95.2261 42.9907   0
  -2   6   3 123.231 44.5169   0
   2   6  -3 112.646 43.7180   0
   2   6  -2 37001.1 395.190   0
  -2  -6   2 36780.8 396.456   0
  -2   6   2 37518.8 277.422   2
  -2   6   2 39033.4 384.326   0
  -2   6   1 5136.16 101.143   2
  -2  -6   1 5191.97 152.881   0
  -2   6   1 5281.25 148.962   0
   2   6  -1 5343.63 89.2772   1
   2   6  -1 5358.27 152.508   0
  -2  -6   0 2050.18 98.8215   0
  -2   6   0 2029.11 62.2521   2
   2   6   0 2103.89 98.4536   0
  -2   6   0 1940.40 99.4009   0
   2   6   0 2022.66 63.0417   1
   2   6   1 11138.7 150.480   1
  -2   6  -1 9930.16 210.155   0
   2   6   1 10771.7 157.712   2
  -2  -6  -1 10734.5 207.079   0
   2   6   1 11174.1 209.086   0
  -2   6  -1 10536.6 125.785   2
   2   6   2 63.3027 39.3847   0
  -2  -6  -2 89.8432 42.9732   0
   2   6   2 52.2513 34.4867   1
   2  -6   2 35.5761 33.0637   1
  -2   6  -2 50.8334 43.8761   0
  -2   6  -2 55.5765 24.1281   2
   2   6   2 69.6151 33.9755   2
  -2  -6  -3 178.367 45.2727   0
   2   6   3 146.142 38.0422   1
   2   6   3 150.231 36.7683   2
  -2   6  -3 143.029 50.1919   0
   2   6   3 93.6670 38.1198   0
   2  -6   3 170.496 41.6467   1
   2   6   4 1509.53 75.8612   1
   2  -6   4 1513.72 76.2347   1
  -2   6  -4 1509.46 97.4395   0
   2   6   4 1522.72 80.9020   0
   2   6   4 1399.57 67.2059   2
  -2   6  -4 1623.47 52.3130   2
  -2  -6  -4 1514.20 81.2490   0
  -2  -6  -5 10.9204 36.9854   0
   2   6   5-0.56922 31.6183   0
   2   6   5 25.6784 39.6215   1
   2   6   5 28.6034 36.1416   2
   2  -6   5 23.3996 36.8411   1
  -2   6  -5 4.38967 47.5799   0
   2   6   6 21849.6 241.427   0
   2  -6   6 21367.3 271.542   1
   2   6   6 21326.3 280.501   1
   2   6   6 21534.0 248.427   2
  -2   6  -6 22048.9 342.365   0
   2   6   7 274.865 35.2763   0
   2   6   7 288.526 58.9981   1
  -2   6  -7 263.208 60.1677   0
   2  -6   7 229.109 54.2906   1
   2   6   7 264.073 48.4020   2
   2  -6   8 1635.65 97.8790   1
   2   6   8 1830.14 107.975   1
   2   6   8 1738.23 88.4035   2
   2   6   9 27.1304 61.9189   1
   2  -6   9-2.66296 50.3720   1
   2   6   9 2.94427 46.7021   2
   2   6  10 7706.66 214.652   1
   2  -6  10 7646.88 200.280   1
   2   6  10 7845.90 184.311   2
   2  -6  11 3906.29 157.038   1
   2   6  11 3834.69 169.477   1
   2  -6  12 1231.81 106.009   1
   2   6  12 1121.15 115.552   1
   2   6  13 257.330 87.0197   1
   2  -6  13 151.043 76.2929   1
   2   6  14 548.622 108.377   1
   2   6  15 76.4874 92.5139   1
   2   6  16 557.261 134.665   1
  -2   7  16 580.461 106.027   2
  -2   7  15 31.4428 96.7927   2
  -2   7  14 187.891 93.8806   2
  -2   7  13 9012.39 261.953   2
  -2  -7  12 4277.84 162.369   0
  -2   7  12 5037.13 195.233   2
  -2   7  11 4417.56 173.936   2
  -2  -7  11 3804.48 161.639   0
  -2   7  10 4552.96 167.951   2
  -2  -7  10 4204.12 167.875   0
  -2   7   9 2558.09 123.837   2
  -2  -7   9 2627.91 135.692   0
  -2  -7   8 1484.75 107.099   0
   2   7  -8 1236.51 104.091   0
  -2   7   8 1554.28 75.2145   0
  -2   7   8 1403.41 93.2454   2
   2   7  -7 344.775 67.3993   0
  -2   7   7 259.334 47.1025   0
  -2  -7   7 390.230 68.9626   0
  -2   7   7 272.941 58.5898   2
   2   7  -6 16495.2 308.311   0
  -2  -7   6 16208.6 298.271   0
  -2   7   6 16557.7 251.256   0
  -2   7   6 16377.0 247.551   2
  -2  -7   5 16548.2 120.433   1
   2   7  -5 18518.4 317.846   0
  -2   7   5 18764.5 247.955   2
  -2   7   5 18951.2 275.707   0
  -2  -7   5 18574.1 313.856   0
  -2   7   4 115.500 40.3664   2
  -2  -7   4 101.344 53.4566   0
  -2   7   4 145.687 44.4832   0
   2   7  -4 63.9120 52.6375   0
  -2   7   3 5822.17 126.760   2
   2   7  -3 6161.85 178.966   0
  -2   7   3 5925.10 161.562   0
  -2  -7   3 6307.84 182.016   0
  -2   7   2 11070.1 162.308   2
   2   7  -2 10782.6 231.085   0
  -2  -7   2 10988.5 233.205   0
  -2   7   2 10768.2 217.583   0
  -2   7   1 11978.1 233.766   0
  -2   7   1 12169.7 162.368   2
   2   7  -1 12152.3 237.949   0
   2  -7  -1 12044.0 236.062   0
  -2  -7   1 12786.0 246.167   0
  -2   7   0 10936.0 147.595   2
   2   7   0 11276.5 148.469   1
   2   7   0 11021.5 224.007   0
  -2   7   0 10777.0 226.193   0
   2  -7   0 11208.3 231.452   0
  -2  -7   0 11541.3 230.374   0
  -2  -7  -1 57.9552 45.1476   0
  -2   7  -1 12.6552 24.8456   2
   2   7   1 32.6456 28.8790   1
  -2   7  -1 38.9732 47.3967   0
   2   7   1 40.5493 41.8154   0
   2  -7   1 47.4132 44.1543   0
   2   7   1 21.9466 35.5807   2
   2   7   2 255.883 42.2606   2
  -2  -7  -2 247.038 50.6955   0
   2   7   2 207.088 40.0000   1
  -2   7  -2 309.450 34.0519   2
   2  -7   2 198.690 52.1550   0
  -2   7  -2 153.537 54.3043   0
   2   7   2 209.859 51.0050   0
   2   7   3 5324.82 127.645   1
  -2   7  -3 5007.98 168.265   0
   2   7   3 5154.83 121.904   2
   2  -7   3 5079.60 125.497   1
   2  -7   3 5171.34 168.580   0
  -2  -7  -3 5292.03 154.650   0
   2   7   3 5024.29 145.996   0
  -2   7  -3 5311.72 97.3580   2
   2   7   4 1319.60 75.3676   1
  -2   7  -4 1254.38 97.3209   0
   2  -7   4 1337.26 74.3926   1
   2   7   4 1373.95 81.9573   0
   2   7   4 1436.77 74.4847   2
  -2  -7  -4 1380.28 84.2895   0
  -2   7  -4 1220.42 52.7983   2
   2   7   5 9904.40 190.929   1
  -2   7  -5 9500.22 239.282   0
   2   7   5 9787.68 187.998   0
   2  -7   5 9951.32 184.328   1
   2   7   5 9744.51 174.392   2
  -2   7  -5 9985.01 134.390   2
  -2  -7  -5 9540.52 196.610   0
   2   7   6 8080.51 183.850   1
   2  -7   6 8216.14 176.266   1
   2   7   6 8017.88 164.815   2
   2   7   6 8214.85 163.065   0
  -2   7  -6 8062.94 223.512   0
   2  -7   7 17577.7 264.633   1
   2   7   7 17634.1 248.467   2
   2   7   7 17145.4 208.804   0
  -2   7  -7 17590.2 332.430   0
   2   7   7 17390.9 278.489   1
   2   7   8 899.992 88.8253   1
   2  -7   8 942.018 80.2598   1
   2   7   8 1095.67 78.8319   2
   2  -7   9 9702.45 218.136   1
   2   7   9 10168.1 207.710   2
   2   7   9 10013.6 238.500   1
   2   7  10 2457.77 139.850   1
   2  -7  10 2680.90 130.501   1
   2   7  10 2675.28 119.359   2
   2   7  11 6302.05 210.419   1
   2  -7  11 6144.19 194.756   1
   2  -7  12 3303.78 153.211   1
   2   7  12 3318.46 172.701   1
   2   7  13 13388.9 324.810   1
   2   7  14 73.7726 87.3760   1
   2   7  15-57.2403 104.173   1
  -2   8  16 2341.07 171.916   2
  -2   8  15 2587.84 176.484   2
  -2   8  14 1418.37 131.077   2
  -2   8  13 1695.51 137.324   2
  -2   8  12 147.251 74.5085   2
  -2  -8  12 1.62648 77.3122   0
  -2   8  11 1828.12 127.928   2
  -2  -8  11 1683.65 122.787   0
  -2   8  10 1427.53 109.174   2
  -2  -8  10 1475.52 121.506   0
  -2   8   9 2501.49 131.657   2
  -2  -8   9 2682.76 145.794   0
   2   8  -8 6120.38 216.996   0
  -2   8   8 5935.73 148.589   0
  -2   8   8 6502.23 184.034   2
  -2  -8   8 6163.68 207.322   0
  -2   8   7 65.7589 43.0394   0
  -2  -8   7 102.201 55.8660   0
  -2   8   7 107.936 52.7299   2
   2   8  -7 56.4559 56.5624   0
  -2  -8   6 674.375 82.8703   0
   2   8  -6 654.638 84.0454   0
  -2   8   6 510.431 62.8407   2
  -2   8   6 595.712 64.3139   0
  -2  -8   5 2.58359 46.0434   0
   2   8  -5-16.5880 55.9106   0
  -2   8   5 53.0814 40.1599   0
  -2   8   5 9.10546 47.4119   2
  -2   8   4 2568.34 98.8243   2
  -2   8   4 2487.52 113.089   0
  -2  -8   4 2580.46 130.004   0
   2   8  -4 2522.83 129.971   0
  -2   8   3 128.705 44.4263   2
  -2  -8   3 50.5175 46.2629   0
   2   8  -3 101.770 49.3293   0
  -2   8   3 90.4522 46.6530   0
  -2   8   2 11171.1 236.249   0
  -2  -8   2 10420.5 239.897   0
   2  -8  -2 10663.9 232.304   0
   2   8  -2 10771.6 241.399   0
  -2   8   2 10591.0 170.783   2
  -2   8   1 4412.83 153.417   0
   2  -8  -1 4366.70 155.052   0
  -2  -8   1 4150.62 153.836   0
   2   8  -1 4095.27 153.960   0
  -2   8   1 4150.05 105.294   2
  -2   8   0 3167.82 135.793   0
   2   8   0 3099.61 132.546   0
   2  -8   0 2812.26 130.991   0
  -2   8   0 3082.07 89.8242   2
  -2  -8   0 3119.44 134.043   0
   2   8   0 3028.80 103.263   2
  -2   8  -1 45.7931 47.1050   0
  -2  -8  -1 35.1471 42.7239   0
   2  -8   1 6.57718 48.0076   0
   2   8   1 29.9814 32.5373   1
   2   8   1 54.3460 47.8277   0
  -2   8  -1 9.62020 28.7124   2
   2   8   1-6.42755 40.4452   2
   2  -8   2 710.627 76.2875   0
   2   8   2 837.980 73.6230   0
  -2   8  -2 776.772 50.0629   2
   2   8   2 706.181 59.9497   2
  -2  -8  -2 720.504 73.9540   0
  -2   8  -2 734.686 79.8813   0
   2   8   2 760.825 56.3380   1
  -2   8  -3 2422.21 77.6676   2
   2   8   3 2513.03 114.329   0
  -2   8  -3 2661.21 134.099   0
   2  -8   3 2362.20 125.225   0
   2   8   3 2572.77 96.3156   2
  -2  -8  -3 2566.63 119.956   0
   2  -8   3 2676.51 98.3131   1
   2   8   3 2549.98 96.0098   1
  -2   8  -4 855.723 87.5899   0
   2   8   4 749.963 69.4008   0
   2  -8   4 944.997 68.5470   1
   2  -8   4 789.795 84.9086   0
   2   8   4 944.644 69.4507   2
  -2   8  -4 867.190 51.9611   2
  -2  -8  -4 898.593 77.0015   0
   2   8   4 935.177 69.1983   1
   2   8   5 29725.4 345.007   0
  -2   8  -5 30305.2 437.204   0
   2  -8   5 30493.2 324.800   1
   2   8   5 30015.1 316.773   2
  -2   8  -5 29913.4 247.568   2
   2   8   5 29981.2 338.309   1
   2   8   6 22089.0 305.566   1
  -2   8  -6 22867.7 389.127   0
   2  -8   6 22304.5 291.013   1
   2   8   6 22074.4 281.254   2
   2   8   6 22890.9 287.698   0
  -2   8  -6 23170.0 225.233   2
   2   8   7 18.9501 47.7611   2
   2   8   7 55.7264 51.8718   1
   2  -8   7 48.1799 45.3472   1
  -2   8  -7-26.5907 66.7329   0
   2   8   7 29.0076 36.6003   0
   2   8   8 305.963 72.1514   1
   2   8   8 343.626 65.0835   2
   2  -8   8 278.269 58.2789   1
   2   8   9 9048.16 232.169   1
   2  -8   9 9115.72 215.122   1
   2   8   9 9205.21 207.122   2
   2   8  10 5074.19 166.221   2
   2  -8  10 5109.90 174.709   1
   2   8  10 5441.82 194.865   1
   2   8  11 3442.67 146.904   2
   2   8  11 3775.60 174.512   1
   2  -8  11 3476.51 150.334   1
   2  -8  12 735.178 97.1009   1
   2   8  12 805.181 116.437   1
   2   8  13 340.020 97.6160   1
   2   8  14 352.459 99.3648   1
   2   8  15 923.503 128.385   1
  -2   9  16 178.207 125.820   2
  -2   9  15 483.107 102.851   2
  -2   9  14 611.475 111.040   2
  -2   9  13 244.768 86.4834   2
  -2   9  12 4630.60 194.894   2
  -2  -9  12 3977.26 179.887   0
  -2   9  11-52.6569 76.7339   2
  -2  -9  11-87.8876 78.4295   0
  -2  -9  10 326.198 82.7626   0
  -2   9  10 371.772 78.2905   2
  -2  -9   9 691.680 95.4624   0
  -2   9   9 597.191 86.7983   2
  -2   9   8 7869.57 207.023   2
  -2  -9   8 7843.36 245.088   0
  -2   9   8 7806.64 180.767   0
   2   9  -8 7482.27 247.909   0
  -2  -9   7 2480.26 142.925   0
   2   9  -7 2462.32 148.717   0
  -2   9   7 2464.66 119.864   2
  -2   9   7 2190.28 109.592   0
   2   9  -6 914.341 94.3626   0
  -2  -9   6 928.745 93.2980   0
  -2   9   6 921.061 80.0716   2
  -2   9   6 947.797 81.1429   0
  -2  -9   5 6046.32 205.404   0
  -2   9   5 5882.19 158.738   2
  -2   9   5 5856.67 176.116   0
   2   9  -5 5627.36 201.556   0
   2   9  -4 11247.7 274.193   0
  -2   9   4 11200.5 241.606   0
  -2   9   4 11934.3 207.231   2
  -2  -9   4 12074.2 278.489   0
  -2  -9   3 6.39626 54.1560   0
   2   9  -3-4.72250 52.7740   0
   2  -9  -3 15.0075 46.1797   0
  -2   9   3-30.3684 43.1842   2
  -2   9   3-0.61312 48.4137   0
  -2  -9   2 2385.63 129.412   0
   2   9  -2 2598.26 135.096   0
   2  -9  -2 1965.29 118.435   0
  -2   9   2 2091.44 116.354   0
  -2   9   2 2131.72 89.3019   2
  -2   9   1 16531.6 306.586   0
   2   9  -1 17076.0 313.198   0
   2  -9  -1 16021.7 301.733   0
  -2   9   1 16818.8 217.826   2
  -2  -9   1 16308.4 308.562   0
   2  -9   0 5570.21 184.884   0
  -2   9   0 5908.55 188.718   0
   2   9   0 5665.38 182.557   0
  -2   9   0 6075.31 129.820   2
   2   9   0 5428.82 144.338   2
  -2  -9   0 5590.53 186.145   0
   2   9   1 235.763 59.7507   0
  -2  -9  -1 327.111 65.9890   0
   2  -9   1 264.114 63.0384   0
  -2   9  -1 265.622 41.2989   2
  -2   9  -1 219.457 59.7456   0
   2   9   1 316.645 54.8218   2
   2   9   1 293.520 44.5001   1
  -2   9  -2 21104.7 363.462   0
   2   9   2 21371.1 333.232   0
   2  -9   2 22159.6 367.277   0
  -2   9  -2 21984.0 228.405   2
   2   9   2 21501.3 270.438   2
  -2  -9  -2 21397.8 342.067   0
   2   9   2 21686.3 256.919   1
  -2   9  -3 6794.07 216.199   0
   2   9   3 6956.57 192.199   0
   2  -9   3 6684.66 154.264   1
  -2  -9  -3 6729.43 195.414   0
   2  -9   3 6632.26 210.907   0
   2   9   3 6845.08 159.345   2
  -2   9  -3 6670.76 131.052   2
   2   9   3 6841.28 155.951   1
  -2  -9  -4 5038.96 168.885   0
   2  -9   4 5099.56 141.106   1
   2   9   4 4835.48 158.629   0
   2  -9   4 5133.46 190.332   0
  -2   9  -4 5010.47 113.716   2
  -2   9  -4 5309.01 197.973   0
   2   9   4 4765.35 137.348   2
   2   9   4 4847.51 139.770   1
  -2   9  -5 3083.04 158.682   0
   2  -9   5 3262.48 119.814   1
   2   9   5 3268.84 124.841   1
   2  -9   5 3264.65 158.148   0
   2   9   5 3477.29 122.122   2
  -2   9  -5 3331.63 96.1754   2
   2   9   5 3304.25 131.820   0
  -2   9  -6 23975.4 419.637   0
   2  -9   6 24110.9 310.761   1
   2   9   6 24796.6 312.943   2
   2   9   6 24579.5 332.743   1
   2   9   6 24860.7 320.008   0
   2   9   7 10.5517 54.3845   1
   2   9   7-22.3337 41.0647   0
   2  -9   7 29.8832 48.3684   1
  -2   9  -7-20.1696 71.3105   0
   2   9   7 31.5075 49.8801   2
   2  -9   8 4264.08 150.717   1
   2   9   8 4282.44 149.724   2
   2   9   8 4142.07 159.626   1
   2   9   9 117.919 74.6053   1
   2  -9   9 45.0626 58.0573   1
   2   9   9 54.6105 56.4689   2
   2   9  10 31.0885 70.8888   1
   2  -9  10 2.79674 57.5636   1
   2   9  10 24.3812 58.3153   2
   2  -9  11 1702.66 117.898   1
   2   9  11 1634.00 115.350   2
   2   9  11 1783.36 132.906   1
   2   9  12 5452.46 213.573   1
   2   9  13 1039.85 120.262   1
   2   9  14 1860.29 162.090   1
   2   9  15 108.753 114.527   1
  -2  10  15 8643.25 305.987   2
  -2  10  14 605.852 112.003   2
  -2  10  13 850.779 116.522   2
  -2  10  12 231.915 89.2394   2
  -2 -10  12 83.7464 102.705   0
  -2 -10  11 8.32831 86.3182   0
  -2  10  11-29.9264 69.6996   2
  -2  10  10 1684.03 122.771   2
  -2 -10  10 1485.93 128.897   0
  -2  10   9 14906.6 300.343   2
  -2 -10   9 14494.8 349.533   0
  -2  10   8 5004.97 176.917   2
  -2  10   8 4860.74 156.398   0
  -2 -10   8 5150.36 212.771   0
   2  10  -8 4544.57 211.784   0
  -2  10   7 16267.3 286.274   2
  -2  10   7 16498.4 291.102   0
  -2 -10   7 16766.2 361.640   0
   2  10  -7 16702.6 373.268   0
   2  10  -6 8362.07 265.713   0
  -2  10   6 8454.55 218.597   0
  -2  10   6 8490.96 201.174   2
  -2 -10   6 8323.08 256.591   0
   2  10  -5 5823.36 222.042   0
  -2  10   5 6086.37 165.819   2
  -2  10   5 6028.26 189.721   0
  -2 -10   5 6406.92 221.056   0
  -2 -10   4 313.243 69.3991   0
   2  10  -4 291.679 70.7158   0
  -2  10   4 231.308 62.1269   0
  -2  10   4 344.787 59.6032   2
  -2  10   3 1247.51 101.477   0
  -2  10   3 1307.83 83.0537   2
   2  10  -3 1041.52 101.168   0
  -2 -10   3 1248.77 105.587   0
   2 -10  -3 1211.38 100.523   0
   2  10  -2-38.6040 60.6520   0
  -2 -10   2-8.41589 49.8303   0
   2 -10  -2 64.1367 54.5607   0
  -2  10   2 4.91904 60.9159   0
  -2  10   2 57.4070 43.2028   2
  -2 -10   1 12695.9 287.539   0
   2  10  -1 12694.2 287.480   0
   2 -10  -1 13219.8 290.284   0
  -2  10   1 13103.8 290.211   0
  -2  10   1 12545.7 200.897   2
   2  10  -1 12845.4 225.121   2
  -2 -10   0 1.31367 60.7591   0
   2  10   0-15.3003 45.2985   2
   2  10   0 11.0548 57.8956   0
  -2  10   0-21.7418 57.1593   0
  -2  10   0 42.4353 41.8744   2
   2 -10   0-18.6196 59.7636   0
  -2 -10  -1 541.814 76.4091   0
  -2  10  -1 470.873 52.6467   2
   2  10   1 457.100 60.3048   2
   2  10   1 424.392 72.0742   0
   2 -10   1 519.843 80.7360   0
  -2  10  -1 371.858 74.3739   0
   2 -10   2 921.610 96.6589   0
   2  10   2 811.832 88.2166   0
  -2  10  -2 767.652 97.4300   0
  -2 -10  -2 808.480 86.9277   0
  -2  10  -2 882.499 61.6465   2
   2  10   2 831.902 74.2044   2
   2  10   2 885.628 67.9582   1
   2  10   3 968.754 88.3277   0
  -2  10  -3 1047.61 105.052   0
   2 -10   3 930.823 102.493   0
  -2 -10  -3 995.668 92.7012   0
  -2  10  -3 1004.34 65.6607   2
   2  10   3 953.952 76.4989   2
   2  10   3 1824.01 94.4715   1
  -2 -10  -4 44.9954 54.7079   0
   2 -10   4 96.7099 46.5755   1
   2  10   4 125.733 49.4353   1
  -2  10  -4 52.0797 41.1719   2
   2  10   4 106.083 55.0720   0
   2 -10   4 49.4266 64.0676   0
  -2  10  -4 90.8554 63.4099   0
   2  10   4 74.6084 52.2369   2
   2  10   5 160.229 49.6041   0
   2  10   5 92.6443 57.3676   1
  -2  10  -5 100.104 62.5579   0
  -2  10  -5 195.188 43.3149   2
   2 -10   5 162.896 53.3139   1
   2 -10   5 181.930 81.1640   0
   2  10   5 157.091 56.6851   2
  -2  10  -6 1288.05 124.113   0
   2  10   6 1260.64 93.1115   0
   2 -10   6 1423.48 91.7424   1
   2  10   6 1393.20 102.078   1
   2  10   6 1239.90 93.5413   2
   2 -10   6 1350.34 118.657   0
   2  10   7 8224.99 214.521   1
   2 -10   7 8021.98 196.425   1
   2  10   7 8253.86 186.457   0
  -2  10  -7 8217.42 270.771   0
   2  10   7 8642.96 205.716   2
   2 -10   8 749.400 83.4913   1
   2  10   8 868.636 85.7007   2
   2  10   8 918.423 98.1793   1
   2 -10   9 4279.63 159.800   1
   2  10   9 4086.66 159.886   2
   2  10   9 4107.50 172.508   1
   2  10  10-49.8584 65.7283   2
   2  10  10 21.1183 76.3990   1
   2 -10  10 11.9822 57.1445   1
   2  10  11 2781.32 161.974   1
   2 -10  11 2603.91 143.195   1
   2  10  11 2384.79 138.324   2
   2  10  12 877.668 121.324   1
   2  10  13-6.28420 89.0006   1
   2  10  14 2077.59 172.043   1
  -2  11  15 1061.21 136.508   2
  -2  11  14 270.783 107.681   2
  -2  11  13 1199.28 126.708   2
  -2 -11  12 5840.77 256.526   0
  -2  11  12 7003.17 245.123   2
  -2  11  11 7659.40 249.591   2
  -2 -11  11 6926.21 265.600   0
  -2  11  10 272.075 81.7046   2
  -2 -11  10 366.983 88.3857   0
  -2  11   9 897.015 99.9158   2
  -2 -11   9 986.229 124.032   0
  -2  11   8 5253.01 187.926   2
  -2  11   8 5443.85 173.630   0
  -2 -11   8 5235.74 224.205   0
   2  11  -8 4740.56 226.095   0
   2  11  -7 1906.17 148.771   0
  -2 -11   7 2029.33 147.239   0
  -2  11   7 1945.23 118.735   2
  -2  11   7 1769.60 115.849   0
   2  11  -6 8102.90 273.483   0
  -2  11   6 8066.56 226.276   0
  -2 -11   6 7970.93 262.592   0
  -2  11   6 8399.16 213.392   2
  -2  11   5 3652.02 162.916   0
  -2 -11   5 3972.60 190.603   0
  -2  11   5 3931.56 145.054   2
   2  11  -5 3753.60 188.322   0
   2  11  -4 2158.85 146.610   0
  -2  11   4 2091.68 107.958   2
  -2 -11   4 2211.92 140.692   0
  -2  11   4 1957.20 126.820   0
  -2  11   3 177.608 57.5721   2
  -2 -11   3 276.505 80.3171   0
   2 -11  -3 283.832 70.2997   0
  -2  11   3 310.321 67.1413   0
   2  11  -3 238.572 73.1964   0
  -2  11   2 9925.54 261.455   0
   2  11  -2 9898.45 277.100   0
  -2 -11   2 10227.8 278.788   0
   2  11  -2 9312.76 204.860   2
   2 -11  -2 9645.57 262.320   0
  -2  11   2 9642.33 193.810   2
  -2 -11   1 632.675 95.9403   0
   2  11  -1 553.373 89.8662   0
  -2  11   1 661.010 66.1415   2
   2  11  -1 658.562 72.5245   2
  -2  11   1 592.330 82.4535   0
   2 -11  -1 631.366 92.0680   0
   2  11   0 4966.14 193.721   0
  -2  11   0 5378.56 206.349   0
  -2 -11   0 5316.61 200.943   0
   2 -11   0 5186.77 201.959   0
  -2  11   0 5121.31 139.048   2
   2  11   0 4915.86 153.739   2
   2  11   1 3621.43 166.238   0
  -2  11  -1 3391.10 171.063   0
   2 -11   1 3074.70 161.648   0
  -2  11  -1 3189.82 110.355   2
   2  11   1 3515.46 130.522   2
  -2 -11  -1 3262.62 159.481   0
  -2 -11  -2 1401.30 111.794   0
  -2  11  -2 1415.26 77.8132   2
  -2  11  -2 1195.77 117.046   0
   2 -11   2 1287.62 118.937   0
   2  11   2 1256.37 90.6384   2
   2  11   2 1551.48 113.967   0
  -2  11  -3 9493.96 284.019   0
   2 -11   3 9851.21 280.969   0
   2  11   3 8860.01 200.817   2
  -2  11  -3 9655.63 177.645   2
  -2 -11  -3 9524.60 256.249   0
   2  11   3 9164.83 246.051   0
  -2  11  -4 2899.44 169.238   0
   2 -11   4 2705.90 115.248   1
   2  11   4 2931.59 145.056   0
   2 -11   4 3026.57 167.475   0
   2  11   4 2965.38 127.299   2
  -2  11  -4 2958.20 104.920   2
   2  11   4 2956.60 124.075   1
  -2  11  -5 3331.27 185.312   0
   2 -11   5 3262.07 129.414   1
   2 -11   5 3381.96 181.203   0
   2  11   5 3192.08 133.847   2
  -2  11  -5 3177.31 110.127   2
   2  11   5 3450.88 150.106   0
   2  11   5 3424.45 140.811   1
  -2  11  -6 5500.56 234.306   0
   2 -11   6 6132.38 238.279   0
   2 -11   6 6255.67 174.265   1
   2  11   6 6159.83 187.646   0
   2  11   6 5964.38 181.051   2
   2  11   6 6352.73 188.741   1
   2 -11   7 1570.63 97.9359   1
   2  11   7 1529.65 99.7111   0
   2  11   7 1734.46 113.505   2
  -2  11  -7 1478.78 143.373   0
   2  11   7 1700.18 117.199   1
   2 -11   8 10552.5 239.268   1
   2  11   8 10588.4 262.193   1
   2  11   8 10706.8 246.897   2
   2 -11   9 795.297 92.0934   1
   2  11   9 704.933 94.2065   2
   2  11   9 758.468 99.2162   1
   2  11  10 51.3000 78.8831   1
   2  11  10 174.228 68.8765   2
   2 -11  10 191.159 64.6730   1
   2  11  11 717.935 109.796   1
   2  11  11 547.253 85.6361   2
   2  11  12 1235.47 141.163   1
   2  11  13 564.374 114.299   1
   2  11  14 933.519 132.359   1
  -2  12  14 3992.86 218.642   2
  -2  12  13 2550.08 179.573   2
  -2  12  12 50.8696 80.1950   2
  -2 -12  12 58.8623 130.698   0
  -2  12  11 193.493 96.3531   2
  -2 -12  11 182.733 114.639   0
  -2 -12  10 1296.02 142.249   0
  -2  12  10 1185.35 120.860   2
  -2 -12   9 2837.87 186.745   0
  -2  12   9 2697.43 150.363   2
  -2 -12   8 12442.4 353.065   0
  -2  12   8 11592.7 265.457   0
   2  12  -8 10890.7 341.166   0
  -2  12   8 12488.9 285.324   2
  -2  12   7 2099.75 130.043   2
  -2  12   7 2111.89 131.830   0
  -2 -12   7 2118.65 160.798   0
   2  12  -7 2060.43 162.480   0
  -2  12   6 4614.58 187.565   0
  -2  12   6 4592.49 167.641   2
  -2 -12   6 4460.86 214.321   0
   2  12  -6 4841.75 223.618   0
  -2  12   5 3747.53 148.475   2
  -2 -12   5 3569.29 189.046   0
   2  12  -5 3747.06 201.776   0
  -2  12   5 3751.74 171.089   0
  -2  12   4 232.323 71.4103   0
  -2 -12   4 217.945 76.1698   0
   2 -12  -4 247.345 70.8662   0
  -2  12   4 268.020 65.2409   2
   2  12  -4 358.132 87.0471   0
  -2  12   3 5463.55 211.219   0
  -2  12   3 5636.34 163.670   2
   2 -12  -3 5248.75 208.533   0
  -2 -12   3 5695.71 227.700   0
   2  12  -3 5484.05 225.582   0
  -2  12   2 727.237 96.7620   0
  -2  12   2 741.632 75.8348   2
   2  12  -2 741.852 84.8614   2
  -2 -12   2 755.513 104.593   0
   2 -12  -2 714.851 99.1247   0
   2  12  -2 706.974 101.241   0
  -2 -12   1 210.575 72.7457   0
   2  12  -1 201.183 78.3604   0
   2 -12  -1 132.216 70.7462   0
  -2  12   1 164.788 63.7051   0
  -2  12   1 221.229 57.3421   2
   2  12  -1 248.115 62.3287   2
  -2  12   0 9972.14 288.643   0
   2 -12   0 9267.50 279.703   0
  -2  12   0 9288.05 191.932   2
   2  12   0 9038.97 211.537   2
  -2 -12   0 9210.02 275.726   0
   2  12   0 9552.87 275.977   0
  -2 -12  -1 54.3913 62.6522   0
  -2  12  -1 68.6125 49.5651   2
   2  12   1 80.8050 71.1130   0
  -2  12  -1 24.3144 70.1463   0
   2 -12   1 33.2057 70.6034   0
   2  12   1 87.5759 58.1385   2
  -2 -12  -2 13445.2 321.342   0
  -2  12  -2 13056.6 339.258   0
   2 -12   2 13483.2 340.773   0
  -2  12  -2 13814.4 224.251   2
   2  12   2 14122.9 262.618   2
   2  12   2 14877.8 330.815   0
  -2  12  -3 3118.31 180.912   0
   2 -12   3 3247.23 178.368   0
   2  12   3 3063.59 135.260   2
  -2  12  -3 3118.10 116.183   2
  -2 -12  -3 3037.87 164.293   0
   2  12   3 3346.23 162.085   0
  -2  12  -4 12254.5 340.004   0
   2 -12   4 11831.9 234.769   1
   2 -12   4 12724.6 337.262   0
   2  12   4 11981.9 246.283   2
  -2  12  -4 12345.8 212.371   2
   2  12   4 11825.0 284.715   0
  -2  12  -5 1582.17 147.126   0
  -2  12  -5 1871.52 95.6522   2
   2 -12   5 1912.96 107.967   1
   2 -12   5 1793.87 149.901   0
   2  12   5 1844.22 123.094   0
   2  12   5 1824.46 114.587   2
  -2  12  -6 3526.57 205.340   0
   2  12   6 3371.90 151.378   0
   2 -12   6 3701.60 197.783   0
   2  12   6 3386.14 149.209   2
   2  12   6 3500.85 151.276   1
   2 -12   6 3464.52 140.637   1
   2 -12   7-29.4389 54.3508   1
   2  12   7 33.6111 68.5368   1
   2  12   7 10.7829 64.8666   0
   2  12   7 4.39743 62.2879   2
   2 -12   8 2324.99 126.074   1
   2  12   8 2517.73 140.402   2
   2  12   8 2173.50 138.885   1
   2  12   9 550.765 102.143   1
   2  12   9 597.605 93.2590   2
   2 -12   9 563.798 78.5334   1
   2 -12  10 4420.37 174.750   1
   2  12  10 4905.36 207.796   1
   2  12  10 4730.28 190.029   2
   2  12  11 208.654 99.0749   1
   2  12  11 124.642 85.4180   2
   2  12  12 320.385 111.626   1
  -2  13  14 1234.48 149.269   2
  -2  13  13 1010.99 139.126   2
  -2  13  12 2107.19 154.756   2
  -2 -13  11 9491.52 338.104   0
  -2  13  11 11186.7 319.375   2
  -2  13  10 4728.42 208.591   2
  -2 -13  10 4445.07 233.946   0
  -2  13   9 44.2844 78.9309   2
  -2 -13   9 63.2628 104.319   0
  -2  13   8 85.4799 78.3543   2
  -2  13   8-158.702 77.8165   0
  -2 -13   8 121.049 100.482   0
   2  13  -7 12485.5 377.334   0
  -2 -13   7 14389.1 393.100   0
  -2  13   7 12845.6 305.331   0
  -2  13   7 13185.8 291.200   2
  -2 -13   6 743.627 116.235   0
  -2  13   6 929.845 101.321   0
   2  13  -6 822.878 120.898   0
  -2  13   6 822.019 94.2396   2
  -2 -13   5 6324.25 255.956   0
  -2  13   5 5710.02 188.856   2
   2  13  -5 5861.22 253.991   0
  -2  13   5 5823.08 222.251   0
  -2 -13   4-8.17867 84.5394   0
   2  13  -4-18.8618 80.5735   0
  -2  13   4 5.74164 71.2225   0
   2 -13  -4 1.11357 77.0932   0
  -2  13   4 79.4316 63.9443   2
  -2 -13   3-17.2237 83.4114   0
   2  13  -3-36.0886 78.4531   0
  -2  13   3 37.0564 57.8653   2
  -2  13   3-13.8528 70.6359   0
   2 -13  -3-2.26952 73.1266   0
   2  13  -3 60.3133 70.6743   2
  -2  13   2 1940.04 149.191   0
   2  13  -2 1978.08 119.582   2
  -2  13   2 2160.48 114.982   2
   2 -13  -2 2143.80 154.707   0
  -2 -13   2 2207.62 161.862   0
   2  13  -2 2025.49 150.639   0
  -2  13   1 2190.50 152.844   0
   2  13  -1 2477.15 162.139   0
   2 -13  -1 2484.11 161.369   0
  -2  13   1 2334.78 116.193   2
   2  13  -1 2503.93 131.013   2
  -2 -13   1 2458.80 162.043   0
  -2 -13   0 761.095 102.875   0
  -2  13   0 786.182 108.886   0
   2  13   0 682.643 84.2692   2
   2  13   0 771.897 107.189   0
   2 -13   0 803.219 107.765   0
  -2  13   0 751.188 78.0262   2
  -2 -13  -1 1584.70 137.387   0
  -2  13  -1 1642.03 138.723   0
   2  13   1 1639.68 111.209   2
   2 -13   1 1586.46 144.043   0
  -2  13  -1 1534.23 94.3372   2
   2  13   1 1533.37 135.506   0
  -2  13  -2 1587.45 147.408   0
   2  13   2 1732.31 136.949   0
   2 -13   2 1864.00 152.475   0
  -2  13  -2 1601.06 97.6118   2
   2  13   2 1712.65 117.342   2
  -2 -13  -2 1704.23 134.846   0
   2 -13   3 2009.94 154.311   0
  -2  13  -3 1822.30 157.150   0
   2  13   3 1844.78 116.770   2
  -2  13  -3 1982.51 101.512   2
   2  13   3 1785.60 137.437   0
  -2 -13  -3 1855.52 136.541   0
   2 -13   4-54.3549 56.9899   1
   2  13   4 16.4288 66.0166   2
   2 -13   4 49.5114 73.3277   0
  -2  13  -4 38.0694 77.6245   0
   2  13   4 98.1612 66.4197   0
  -2  13  -4 38.4053 53.5854   2
  -2  13  -5 2106.57 163.719   0
   2 -13   5 1986.81 166.133   0
   2 -13   5 1989.97 114.536   1
   2  13   5 2038.79 125.941   2
   2  13   5 1936.61 132.084   0
   2  13   6 560.242 87.4767   2
   2 -13   6 609.000 82.2212   1
   2 -13   6 653.495 111.167   0
   2  13   6 593.885 88.3210   0
  -2  13  -6 449.680 105.138   0
   2  13   7 1577.62 113.486   0
   2  13   7 1525.96 119.102   2
   2 -13   7 1722.70 111.706   1
   2  13   8 154.710 78.2237   2
   2 -13   8 199.051 68.9486   1
   2  13   9 115.211 75.2649   2
   2 -13   9 125.979 66.2277   1
   2  13  10 1548.10 133.004   2
   2  13  11-14.4908 93.5630   2
  -2  14  13 97.4020 106.948   2
  -2  14  12 487.680 111.139   2
  -2  14  11-28.3125 91.2667   2
  -2  14  10 11599.3 317.753   2
  -2 -14  10 11378.8 378.277   0
  -2  14   9 8885.02 271.194   2
  -2 -14   9 8370.93 323.926   0
  -2  14   8 182.863 87.2665   0
  -2 -14   8 194.625 107.042   0
  -2  14   8 308.582 83.7055   2
  -2  14   7 174.921 79.7075   0
  -2  14   7 384.252 89.9902   2
   2  14  -7 249.793 110.398   0
  -2 -14   7 258.502 108.348   0
  -2  14   6 129.405 78.5234   0
  -2  14   6 166.425 72.4998   2
   2  14  -6 90.3823 101.559   0
  -2 -14   6 102.398 98.6182   0
  -2 -14   5 2163.51 171.769   0
   2  14  -5 1750.59 162.024   0
  -2  14   5 2056.06 131.342   2
  -2  14   5 2050.82 149.436   0
  -2  14   4 2027.42 124.515   2
   2  14  -4 2486.15 140.499   2
   2  14  -4 1994.81 166.466   0
  -2 -14   4 1909.37 167.581   0
  -2  14   4 2246.02 156.003   0
  -2  14   3 1512.74 137.739   0
  -2  14   3 1565.52 108.182   2
   2 -14  -3 1629.78 142.874   0
   2  14  -3 1382.60 115.773   2
  -2 -14   3 1574.34 147.036   0
   2  14  -3 1713.09 151.218   0
  -2  14   2 2403.48 163.641   0
  -2  14   2 2297.88 125.556   2
  -2 -14   2 2180.30 166.157   0
   2  14  -2 2332.33 172.646   0
   2  14  -2 2288.36 130.045   2
   2 -14  -2 2314.06 166.993   0
  -2  14   1 3249.63 189.404   0
   2 -14  -1 2983.81 183.360   0
  -2  14   1 3138.13 135.155   2
   2  14  -1 3053.44 144.092   2
  -2 -14   1 3393.67 196.747   0
   2  14  -1 2972.20 183.154   0
  -2  14   0 5080.33 230.212   0
   2  14   0 4629.99 221.846   0
   2 -14   0 4653.76 222.102   0
  -2  14   0 4313.68 156.292   2
   2  14   0 4362.50 169.584   2
  -2 -14   0 4755.88 223.172   0
   2  14   1 2088.74 129.589   2
  -2  14  -1 2152.23 164.285   0
   2 -14   1 2100.35 160.162   0
  -2  14  -1 2306.68 117.361   2
   2  14   1 2007.80 153.196   0
  -2 -14  -1 2138.82 158.572   0
  -2 -14  -2 2620.78 170.517   0
  -2  14  -2 3024.50 188.354   0
   2 -14   2 2890.44 180.414   0
  -2  14  -2 2813.51 124.858   2
   2  14   2 3097.16 148.613   2
   2  14   2 2724.37 172.464   0
  -2  14  -3 225.411 62.0494   2
  -2  14  -3 221.294 92.3879   0
   2 -14   3 222.798 95.8847   0
   2  14   3 236.481 85.9438   0
   2  14   3 185.226 78.2614   2
  -2  14  -4 15989.6 422.559   0
   2 -14   4 16149.1 295.341   1
   2  14   4 15947.2 365.149   0
   2 -14   4 16663.7 424.899   0
   2  14   4 15620.1 310.862   2
  -2  14  -4 15448.8 263.713   2
   2 -14   5 1477.41 106.071   1
   2 -14   5 1557.46 155.574   0
   2  14   5 1454.53 122.274   0
   2  14   5 1728.96 125.096   2
  -2  14  -5 1628.73 154.772   0
   2 -14   6 4266.44 165.179   1
   2  14   6 4269.28 189.510   0
   2 -14   6 4276.27 229.902   0
   2  14   6 4233.10 179.785   2
  -2  14  -6 3887.41 232.797   0
   2  14   7-138.017 87.4322   0
   2 -14   7 42.5955 60.4933   1
   2  14   7-0.59302 74.7876   2
   2 -14   8 394.263 73.8679   1
   2  14   8 503.147 95.3131   2
   2 -14   9 1119.30 107.260   1
   2  14   9 1227.81 117.419   2
   2  14  10 272.406 88.2017   2
   2  14  11 588.601 102.658   2
  -2  15  12 3582.25 205.961   2
  -2  15  11-21.0991 99.0015   2
  -2  15  10 1942.75 153.244   2
  -2  15   9 166.284 91.8569   2
  -2 -15   9 19.4784 133.034   0
  -2  15   8 776.633 106.523   0
  -2  15   8 791.882 112.856   2
  -2 -15   8 903.727 142.181   0
  -2  15   7 741.556 114.595   0
   2  15  -7 676.006 131.864   0
  -2  15   7 782.207 109.499   2
  -2 -15   7 708.288 131.410   0
  -2  15   6 2084.29 141.681   2
  -2 -15   6 2109.38 180.283   0
   2  15  -6 2088.28 180.944   0
   2  15  -6 2069.21 142.404   2
  -2  15   6 1964.59 150.990   0
  -2  15   5 142.885 87.0421   0
  -2 -15   5-56.1779 105.703   0
  -2  15   5 76.5953 73.3803   2
   2  15  -5 92.6196 75.4974   2
   2  15  -5 68.2655 110.530   0
  -2  15   4 1840.01 126.015   2
   2  15  -4 1725.82 175.666   0
   2  15  -4 1656.87 128.314   2
  -2 -15   4 1636.11 158.804   0
  -2  15   4 1613.81 149.146   0
   2 -15  -3 755.176 115.064   0
  -2  15   3 792.090 96.4551   2
  -2  15   3 558.418 117.034   0
   2  15  -3 942.934 107.340   2
   2  15  -3 690.742 117.298   0
  -2 -15   3 993.190 130.473   0
  -2 -15   2 107.908 88.8308   0
   2 -15  -2 128.234 92.9118   0
  -2  15   2 138.373 92.0308   0
  -2  15   2 209.496 69.9899   2
   2  15  -2 102.435 80.1209   2
   2  15  -2 152.345 90.9734   0
  -2 -15   1 37.9166 95.5004   0
  -2  15   1 55.8600 84.5068   0
   2 -15  -1 120.819 90.7460   0
  -2  15   1 74.8282 71.3909   2
   2  15  -1 137.379 75.2947   2
   2  15  -1 98.4292 85.1644   0
  -2  15   0 442.641 81.3090   2
  -2  15   0 474.622 106.515   0
   2 -15   0 369.278 98.8134   0
  -2 -15   0 449.256 98.5258   0
   2  15   0 535.645 89.4592   2
   2  15   0 385.601 111.138   0
  -2  15  -1 2917.57 190.750   0
   2 -15   1 2617.72 185.226   0
  -2  15  -1 2408.70 126.985   2
   2  15   1 2656.82 184.749   0
   2  15   1 2272.23 143.058   2
  -2 -15  -1 2171.76 166.118   0
  -2  15  -2 31618.2 593.496   0
  -2 -15  -2 28556.7 536.839   0
   2 -15   2 30729.4 583.465   0
   2  15   2 30774.3 542.298   0
  -2  15  -2 29990.6 385.928   2
   2  15   2 29762.9 428.137   2
   2 -15   3 16.5268 95.5455   0
   2  15   3-1.06235 85.5365   0
  -2  15  -3-27.1784 107.747   0
   2  15   3-12.0840 72.4480   2
  -2  15  -3 53.2147 60.6606   2
   2  15   4-35.8387 86.7393   0
   2 -15   4-5.75902 63.4407   1
   2 -15   4-165.068 101.155   0
  -2  15  -4 3.75586 99.3172   0
   2  15   4 62.6242 78.5143   2
  -2  15  -4 103.153 58.4863   2
  -2  15  -5 2873.48 210.527   0
   2  15   5 3145.83 185.395   0
   2 -15   5 3425.26 155.753   1
   2  15   5 3377.27 170.033   2
   2 -15   5 3516.22 220.462   0
  -2  15  -6 6214.29 293.861   0
   2 -15   6 6576.56 205.663   1
   2  15   6 6800.06 245.070   0
   2 -15   6 6412.73 297.621   0
   2  15   6 6925.61 230.562   2
   2 -15   7 2795.00 145.739   1
   2  15   7 3015.91 164.443   2
   2 -15   8 2567.43 144.384   1
   2  15   8 2601.87 165.219   2
   2  15   9 448.077 103.432   2
   2  15  10 80.8556 100.913   2
   2  15  11 815.540 116.489   2
  -2  16  12 868.741 132.371   2
  -2  16  11 127.290 101.211   2
  -2  16  10 341.774 112.563   2
  -2  16   9 3514.21 193.078   2
  -2  16   8 929.936 125.988   2
  -2 -16   8 1084.57 148.061   0
   2  16  -7 2413.19 223.155   0
   2  16  -7 2911.03 171.813   2
  -2  16   7 2811.77 168.112   2
  -2 -16   7 3315.77 231.674   0
  -2  16   7 2682.76 176.636   0
  -2  16   6 161.984 105.452   0
   2  16  -6 321.481 129.025   0
  -2  16   6 157.519 80.0638   2
   2  16  -6 126.984 88.2839   2
  -2 -16   6 280.525 122.595   0
   2  16  -5 22.4844 115.654   0
  -2  16   5 148.162 83.7315   2
  -2  16   5 97.5261 101.419   0
   2  16  -5 67.4635 82.2097   2
  -2 -16   5 46.4369 120.793   0
   2  16  -4 2742.81 158.221   2
  -2  16   4 2845.68 153.924   2
   2  16  -4 2246.98 191.584   0
  -2 -16   4 3089.88 220.263   0
  -2  16   4 2711.24 194.049   0
  -2  16   3 1716.79 159.485   0
   2  16  -3 1798.11 137.875   2
  -2  16   3 1506.46 120.348   2
   2  16  -3 2073.57 184.861   0
  -2 -16   3 1773.95 179.794   0
  -2 -16   2 188.259 105.274   0
  -2  16   2 192.042 79.7526   2
  -2  16   2 79.9796 98.6130   0
   2  16  -2 212.212 109.771   0
   2  16  -2 205.946 87.4974   2
   2 -16  -2 167.872 104.724   0
   2 -16  -1 375.061 102.820   0
  -2  16   1 569.531 120.069   0
   2  16  -1 526.765 107.861   0
  -2  16   1 484.165 85.5539   2
   2  16  -1 598.959 96.4581   2
  -2 -16   1 511.834 127.040   0
  -2  16   0 2955.64 210.814   0
   2 -16   0 2784.32 202.276   0
   2  16   0 2886.51 202.256   0
  -2  16   0 3256.36 151.295   2
   2  16   0 3187.27 166.432   2
  -2 -16   0 3242.97 216.143   0
  -2  16  -1-92.0374 64.1734   2
  -2 -16  -1-198.297 105.268   0
   2 -16   1 32.4563 96.8402   0
  -2  16  -1-13.2034 106.432   0
   2  16   1 3.70216 100.511   0
   2  16   1 42.7543 80.0765   2
  -2  16  -2 27.9021 119.609   0
   2  16   2-37.6249 102.248   0
   2 -16   2-33.6087 106.755   0
  -2  16  -2-5.96177 68.2526   2
   2  16   2-34.5636 80.0809   2
  -2  16  -3 484.201 117.939   0
   2  16   3 532.844 110.493   0
   2  16   3 705.418 110.740   2
  -2  16  -3 564.026 79.7310   2
   2 -16   3 759.930 132.656   0
   2  16   4 41.9218 102.306   0
   2 -16   4 102.115 63.8380   1
   2 -16   4 16.1135 120.658   0
  -2  16  -4-50.9631 134.299   0
   2  16   4-28.6847 73.2533   2
  -2  16  -5 3926.12 264.129   0
   2 -16   5 4979.25 187.783   1
   2 -16   5 4861.15 267.345   0
   2  16   5 4414.66 216.463   0
   2  16   5 4314.85 194.281   2
   2 -16   6 680.052 93.0218   1
   2  16   6 463.107 106.441   0
   2 -16   6 815.806 124.162   0
  -2  16  -6 755.239 159.968   0
   2  16   6 654.266 114.250   2
   2 -16   7 323.078 76.2097   1
   2  16   7 132.328 90.8712   2
   2  16   8-27.0143 81.8968   2
   2 -16   8-5.73673 79.8967   1
   2  16   9 3112.59 186.990   2
   2  16  10 426.125 112.716   2
   2  16  11 3573.52 198.546   2
  -2  17  11 1077.37 136.938   2
   2  17 -11 773.321 129.752   2
  -2  17  10 2184.33 169.758   2
   2  17 -10 1837.25 161.265   2
  -2  17   9 1482.57 147.889   2
   2  17  -9 1423.69 159.251   2
   2  17  -8 4815.33 224.726   2
  -2  17   8 4864.80 228.016   2
   2  17  -7 1537.31 176.130   0
  -2  17   7 1702.21 148.860   2
   2  17  -7 1673.18 146.477   2
  -2  17   7 1566.39 158.802   0
  -2 -17   6 2369.56 231.443   0
   2  17  -6 2261.36 221.396   0
  -2  17   6 2646.31 164.627   2
   2  17  -6 2819.59 168.827   2
  -2  17   6 2357.59 183.207   0
  -2  17   5 3795.76 186.764   2
   2  17  -5 3497.37 247.381   0
  -2 -17   5 3308.91 238.798   0
   2  17  -5 3758.39 188.282   2
  -2  17   5 3382.96 222.930   0
  -2 -17   4 47.8313 124.060   0
  -2  17   4 190.340 116.153   0
   2  17  -4 12.0106 140.871   0
  -2  17   4 60.2078 77.0314   2
   2  17  -4 78.2827 88.5759   2
  -2  17   3 312.886 111.703   0
   2  17  -3 360.030 129.710   0
  -2  17   3 166.647 82.6009   2
   2  17  -3 215.217 90.2214   2
  -2 -17   3 125.026 121.651   0
  -2  17   2 138.413 85.8119   2
  -2  17   2 162.146 113.886   0
   2  17  -2 57.4383 121.626   0
   2 -17  -2 79.3594 136.885   0
   2  17  -2 253.944 84.9459   2
  -2 -17   2-79.9924 134.865   0
  -2  17   1 190.699 78.0392   2
   2  17  -1 145.268 125.704   0
  -2  17   1 192.411 120.100   0
   2 -17  -1 142.286 128.914   0
   2  17  -1 215.550 87.9203   2
  -2 -17   1 104.055 121.553   0
  -2  17   0 4183.50 251.399   0
   2  17   0 4073.54 193.335   2
   2  17   0 4093.74 241.777   0
   2 -17   0 3503.60 235.076   0
  -2  17   0 3716.53 168.235   2
  -2 -17   0 3613.20 238.426   0
   2 -17   1 188.172 115.781   0
  -2  17  -1 81.0776 66.7470   2
   2  17   1 184.273 110.765   0
  -2  17  -1 228.733 127.653   0
   2  17   1 175.251 83.9089   2
   2  17   2 277.212 114.570   0
   2  17   2 311.398 89.9179   2
  -2  17  -2 275.658 126.109   0
   2 -17   2 261.611 119.959   0
  -2  17  -2 313.213 83.0307   2
   2  17   3 700.630 108.706   2
   2  17   3 498.994 124.094   0
   2 -17   3 597.871 140.690   0
  -2  17  -3 715.756 96.6506   2
  -2  17  -3 370.397 136.666   0
   2  17   4 336.056 120.250   0
   2 -17   4 476.915 90.0117   1
  -2  17  -4 511.286 152.729   0
   2 -17   4 312.890 132.546   0
   2  17   4 295.169 89.9184   2
   2 -17   5 210.788 146.502   0
   2  17   5 63.9837 122.657   0
  -2  17  -5 35.1891 151.726   0
   2  17   5 48.5748 82.6241   2
   2 -17   5 40.4782 69.4109   1
  -2  17  -6 2761.61 228.630   0
   2 -17   6 3754.79 175.188   1
   2  17   6 2615.92 200.196   0
   2  17   6 3752.77 199.849   2
   2 -17   7 361.927 84.0646   1
   2  17   7 191.011 91.3077   2
   2  17   8 3581.23 196.985   2
   2  17   9 3586.04 204.744   2
   2  17  10-74.9360 130.903   2
  -2  18  10 411.428 130.434   2
   2  18 -10 207.125 126.354   2
  -2  18   9 926.883 132.403   2
   2  18  -9 975.517 151.430   2
  -2  18   8 297.508 100.822   2
   2  18  -8 210.804 105.717   2
   2  18  -7 2351.76 168.805   2
  -2  18   7 2215.62 172.368   2
  -2  18   6 1750.43 151.592   2
   2  18  -6 1661.51 152.905   2
   2  18  -5 2012.87 210.751   0
  -2  18   5 2258.11 167.457   2
   2  18  -5 2516.43 168.496   2
  -2  18   5 2395.95 185.679   0
  -2  18   4-48.1356 135.265   0
   2  18  -4 37.1884 160.724   0
  -2  18   4 3.83576 88.2460   2
   2  18  -4 19.8023 85.2285   2
  -2 -18   4 94.0534 161.453   0
   2  18  -3 1167.35 151.142   0
  -2  18   3 1285.65 129.037   2
   2  18  -3 1257.47 137.373   2
  -2 -18   3 1349.06 189.216   0
  -2  18   3 1293.87 171.090   0
  -2  18   2 6553.88 303.227   0
  -2  18   2 6011.46 227.524   2
   2  18  -2 6472.53 243.255   2
  -2 -18   2 5834.16 310.113   0
   2  18  -2 6410.11 319.661   0
  -2  18   1 1737.37 185.943   0
   2  18  -1 1878.32 192.098   0
   2 -18  -1 1726.86 206.083   0
  -2  18   1 1761.23 137.474   2
   2  18  -1 1846.80 152.800   2
  -2 -18   1 1807.59 196.077   0
  -2  18   0 917.755 160.491   0
   2  18   0 887.892 160.813   0
  -2  18   0 843.170 110.645   2
   2  18   0 871.849 126.121   2
   2 -18   0 978.260 160.051   0
  -2 -18   0 800.481 143.508   0
   2  18   1 871.219 140.908   0
  -2  18  -1 838.292 105.073   2
   2  18   1 972.229 120.284   2
  -2  18  -1 1010.28 163.734   0
   2 -18   1 903.548 147.828   0
   2 -18   2 2563.92 216.746   0
  -2  18  -2 2474.95 220.250   0
   2  18   2 2824.90 174.812   2
   2  18   2 2537.08 198.335   0
  -2  18  -2 2499.66 151.351   2
  -2  18  -3 1908.20 202.466   0
   2 -18   3 1613.90 132.827   1
   2  18   3 1710.08 171.835   0
   2 -18   3 1599.89 204.762   0
   2  18   3 1530.88 149.433   2
  -2  18  -4 3019.51 259.936   0
   2 -18   4 3236.53 166.872   1
   2  18   4 3090.03 218.514   0
   2  18   4 3362.89 187.999   2
   2 -18   5-19.3604 78.8122   1
   2  18   5 98.1911 91.3913   2
   2 -18   6 6375.43 233.272   1
   2  18   6 6649.15 266.158   2
   2  18   7 1600.84 156.613   2
   2  18   8 3811.59 203.703   2
   2  18   9-42.3691 126.278   2
  -2  19   9-87.2274 128.659   2
   2  19  -9 14.2227 122.185   2
  -2  19   8 353.835 119.531   2
   2  19  -8 180.806 111.047   2
  -2  19   7 2468.90 189.632   2
   2  19  -7 2441.90 193.822   2
   2  19  -6 148.403 96.7040   2
  -2  19   6-30.3018 104.833   2
   2  19  -5 11376.8 333.623   2
  -2  19   5 9904.82 307.855   2
  -2  19   4 60.1719 91.2241   2
   2  19  -4 168.724 99.7905   2
  -2  19   3-90.6700 96.7688   2
   2  19  -3-50.6231 96.7552   2
  -2  19   2 139.618 85.0779   2
   2  19  -2 83.9773 99.5047   2
  -2 -19   2 2.04709 194.864   0
  -2  19   1 3658.63 184.065   2
   2  19  -1 3571.53 200.548   2
  -2 -19   1 2686.73 252.081   0
   2 -19   0 100.573 181.968   0
   2  19   0 191.945 97.5203   2
  -2  19   0 166.419 84.9087   2
   2 -19   1 671.828 164.720   0
  -2  19  -1 626.822 111.543   2
   2  19   1 702.686 113.449   2
  -2  19  -2 315.865 95.6204   2
   2  19   2 546.211 116.030   2
   2 -19   3 110.702 84.7188   1
   2  19   3 21.2103 91.6322   2
   2 -19   4 1068.84 118.318   1
   2  19   4 1161.13 141.078   2
   2 -19   5 499.839 104.586   1
   2  19   5 449.014 114.194   2
   2 -19   6 207.819 99.5550   1
   2  19   6 469.603 119.549   2
   2  19   7 110.176 119.166   2
   2  19   8 481.745 124.580   2
  -2  20   7 1831.23 164.315   2
   2  20  -7 1584.45 163.942   2
  -2  20   6 857.290 133.811   2
   2  20  -6 795.858 134.951   2
  -2  20   5 3174.12 202.654   2
   2  20  -5 3299.76 211.967   2
  -2  20   4 3076.94 197.603   2
   2  20  -4 3067.22 203.838   2
  -2  20   3 339.256 104.744   2
   2  20  -3 130.098 100.545   2
  -2  20   2 286.736 96.8121   2
   2  20  -2 201.637 108.344   2
  -2  20   1 374.571 116.706   2
   2  20  -1 647.263 119.859   2
  -2  20   0 61.7119 95.7384   2
   2  20   0 81.3354 94.9031   2
  -2  20  -1 593.993 102.225   2
   2  20   1 594.603 111.549   2
   2  20   2 248.274 113.826   2
   2  20   3 193.907 107.884   2
   2 -20   3 2.03786 94.8832   1
   2 -20   4 252.745 99.6271   1
   2  20   4 280.963 105.390   2
   2 -20   5 1481.54 135.307   1
   2  20   5 1312.69 155.078   2
   2  20   6 415.109 125.085   2
  -2  21   5 102.708 118.004   2
   2  21  -5-99.5932 124.321   2
  -2  21   4 1758.62 167.804   2
   2  21  -4 1508.48 168.091   2
   2  21  -3 124.440 119.759   2
  -2  21   3 258.604 108.537   2
  -2  21   2 207.759 115.440   2
   2  21  -2 101.393 114.582   2
   2  21  -1 3221.15 207.623   2
  -2  21   1 2986.57 189.776   2
  -2  21   0 116.614 112.871   2
   2  21   0 164.959 102.486   2
   2  21   1 130.703 106.658   2
  -2  21  -1 291.018 113.048   2
   2  21   2 1560.97 149.343   2
   2 -21   3 323.867 109.417   1
   2  21   3 302.593 122.056   2
   2 -21   4 128.022 119.884   1
   2  21   4-11.3854 125.121   2
  -2  22   2 1004.35 140.329   2
  -2  22   1 256.459 131.262   2
  -3   0  11-16.8378 61.6473   2
  -3   0  10 1108.87 91.4968   2
  -3   0  10 1139.84 71.1720   0
  -3   0   9 11.5631 37.1358   0
  -3   0   9-19.4200 49.9547   2
  -3   0   8 11982.4 215.552   0
  -3   0   8 12126.4 221.077   2
  -3   0   7 3.26866 41.1086   0
  -3   0   7-5.42443 45.3759   2
  -3   0   6 1493.48 85.2392   0
  -3   0   6 1373.57 73.8648   2
  -3   0   5 31.6494 38.4101   0
  -3   0   5-6.25945 35.8427   2
   3   0  -4 98.2574 18.1910   1
  -3   0   4 109.554 42.7176   0
  -3   0   4 123.089 36.1463   2
   3   0  -3 0.88612 18.0594   1
  -3   0   3-4.52934 27.6111   2
  -3   0   3 27.0482 38.7524   0
   3   0  -2 34369.5 207.420   1
  -3   0   2 34807.8 363.275   0
   3   0  -1 26.3191 23.9929   1
  -3   0   1 14.9518 37.9457   0
   3   0   0 129374. 1874.09   1
  -3   0   0 132336. 707.677   0
   3   0   1 2.19172 28.1635   1
  -3   0  -1 8.85391 38.9304   0
   3   0   2 31135.6 266.188   1
  -3   0  -2 31056.0 347.439   0
   3   0   3-8.96318 35.4450   1
  -3   0  -3-3.32188 39.4560   0
   3   0   4 23626.8 262.108   1
  -3   0  -4 23649.1 306.759   0
   3   0   5-33.3191 42.3284   1
  -3   0  -5-17.7834 40.9396   0
   3   0   6 50851.0 430.106   1
  -3   0  -6 50537.9 450.509   0
   3   0   7-8.56968 47.5600   1
   3   0   8 0.93388 52.6563   1
   3   0   9 29.6262 54.8676   1
   3   0  10 20420.6 338.357   1
   3   0  11-49.4607 62.8483   1
   3   0  12 1359.38 122.916   1
   3   0  13-26.5180 77.4507   1
   3   0  14 2493.58 167.370   1
   3   0  15 18.7573 101.210   1
  -3   1  12 896.875 98.5973   2
  -3   1  11 4219.95 160.240   2
  -3  -1  10 3294.40 116.159   0
  -3   1  10 3404.94 138.916   2
  -3   1  10 3171.82 104.254   0
  -3   1   9 5976.64 149.681   0
  -3   1   9 6168.84 173.912   2
  -3  -1   9 6296.62 163.926   0
  -3  -1   8 111.546 40.4178   0
  -3   1   8 57.0234 41.0788   0
  -3   1   8 82.3945 47.2827   2
  -3   1   7 173.087 43.2360   0
  -3  -1   7 128.421 47.9639   0
  -3   1   7 157.647 49.3945   2
  -3   1   6 406.755 52.0532   2
  -3   1   6 409.096 54.2665   0
  -3  -1   6 410.187 57.6573   0
  -3  -1   5 3005.74 115.685   0
  -3   1   5 3217.41 97.7789   2
  -3   1   5 3100.32 114.334   0
  -3  -1   4 79.9062 40.3045   0
   3   1  -4 160.941 14.8845   1
  -3   1   4 50.5549 41.1897   0
  -3   1   4 78.1420 32.9470   2
   3   1  -3 4913.44 67.5905   1
  -3  -1   3 4971.58 143.347   0
  -3   1   3 5248.89 103.592   2
   3  -1  -3 5470.38 87.0541   1
  -3   1   3 5342.73 147.509   0
   3   1  -2 4423.07 72.9499   1
   3  -1  -2 4633.74 84.7051   1
  -3  -1   2 4440.36 136.552   0
  -3   1   2 4676.25 138.608   0
  -3   1   2 4661.80 90.2765   2
   3   1  -1 1810.86 55.0182   1
   3  -1  -1 1732.34 57.8195   1
  -3  -1   1 1654.03 87.7785   0
  -3   1   1 1790.85 53.3499   2
  -3   1   1 1794.32 93.3269   0
   3   1   0 1638.29 58.9022   1
   3  -1   0 1529.44 58.3427   1
  -3  -1   0 1524.00 88.6128   0
  -3   1   0 1596.26 88.5636   0
   3   1   1 11585.5 152.190   1
   3  -1   1 11486.3 156.782   1
  -3  -1  -1 12008.8 217.256   0
  -3   1  -1 10885.9 209.831   0
   3   1   2 181.059 36.0803   1
  -3  -1  -2 161.350 46.8070   0
   3  -1   2 110.098 36.0601   1
   3   1   2 128.714 16.5620   2
  -3   1  -2 174.992 46.6713   0
   3   1   3 25421.9 255.882   1
   3  -1   3 25418.2 258.310   1
  -3   1  -3 25374.1 321.099   0
  -3  -1  -3 25578.9 315.485   0
   3   1   3 24525.3 124.680   2
   3   1   4 219.413 16.8506   2
   3   1   4 242.139 43.8212   1
   3  -1   4 244.106 46.2450   1
  -3  -1  -4 270.642 48.5308   0
  -3   1  -4 315.648 51.3093   0
   3   1   5 12015.8 201.421   1
   3  -1   5 12204.3 203.906   1
  -3  -1  -5 11932.5 217.758   0
  -3   1  -5 12124.3 229.247   0
   3   1   6 661.639 66.6941   1
   3  -1   6 760.130 70.1229   1
  -3  -1  -6 688.878 64.7993   0
  -3   1  -6 755.125 70.9759   0
   3  -1   7 4053.79 137.529   1
   3   1   7 3707.67 132.898   1
   3   1   8 2486.55 120.122   1
   3  -1   8 2566.86 120.159   1
   3   1   9 1897.02 114.324   1
   3  -1   9 2039.57 111.953   1
   3   1  10 36.2010 63.7328   1
   3  -1  10 40.6744 60.3493   1
   3   1  11 107.288 76.2381   1
   3  -1  11 206.540 74.3938   1
   3   1  12 74.6338 71.1104   1
   3  -1  12 96.5505 73.5549   1
   3   1  13-5.41468 80.0997   1
   3  -1  13 23.1243 81.1468   1
   3   1  14 267.918 98.5152   1
   3  -1  14 198.365 88.3784   1
   3   1  15 46.7870 96.8504   1
   3  -1  15 19.9392 104.106   1
  -3   2  14 128.283 78.6701   2
  -3   2  13 1372.61 114.641   2
  -3   2  12 5161.02 187.732   2
  -3   2  11 602.487 85.3694   2
  -3  -2  11 548.351 60.9521   0
  -3   2  10 2530.11 88.9088   0
  -3   2  10 2946.54 133.304   2
  -3  -2  10 2711.90 114.946   0
  -3   2   9 4132.39 122.510   0
  -3   2   9 4187.33 145.676   2
  -3  -2   9 4311.15 143.534   0
  -3  -2   8 11365.1 227.958   0
  -3   2   8 11343.6 216.099   2
   3   2  -8 11442.3 236.784   0
  -3   2   8 11451.8 203.497   0
  -3  -2   7 23657.5 319.874   0
  -3   2   7 23969.9 297.377   0
  -3   2   7 22984.3 284.935   2
  -3  -2   6 6085.13 165.561   0
  -3   2   6 5611.97 137.051   2
  -3   2   6 6016.59 153.587   0
  -3  -2   5 463.912 61.5421   0
  -3   2   5 386.619 54.1955   0
  -3   2   5 483.796 50.2841   2
  -3  -2   4 4677.01 144.071   0
  -3   2   4 4828.72 142.021   0
  -3   2   4 5055.44 111.128   2
   3   2  -3 128.185 16.6253   1
  -3  -2   3 117.253 44.9171   0
  -3   2   3 137.363 31.6914   2
  -3   2   3 104.337 45.2532   0
   3   2  -2 18738.2 139.239   1
  -3  -2   2 18049.7 269.000   0
   3  -2  -2 18451.0 176.569   1
  -3   2   2 19131.6 176.302   2
  -3   2   2 18964.0 274.584   0
  -3  -2   2 17366.0 195.917   3
   3   2  -1 45556.3 247.995   1
  -3  -2   1 44799.0 420.505   0
   3  -2  -1 45455.3 285.752   1
  -3   2   1 45767.7 428.425   0
  -3   2   1 46140.7 243.410   2
   3   2   0 1926.77 61.2449   1
   3  -2   0 1935.76 67.5414   1
  -3  -2   0 1890.71 95.1316   0
  -3   2   0 1859.23 45.4198   2
  -3   2   0 1997.79 99.5352   0
   3   2   1 15939.7 177.749   1
   3  -2   1 15960.6 187.855   1
  -3  -2  -1 15938.7 251.717   0
  -3   2  -1 16096.8 259.576   0
  -3   2  -2 14.8785 44.2282   0
   3  -2   2 68.1693 33.9143   1
   3   2   2 23.9674 30.3564   1
  -3  -2  -2 14.3017 36.2617   0
   3   2   2 43.1944 20.3540   2
   3   2   3 838.696 57.8436   1
   3  -2   3 835.512 59.2564   1
  -3  -2  -3 914.740 70.7822   0
  -3   2  -3 927.031 75.6406   0
   3   2   3 828.896 34.9987   2
   3   2   4 10703.3 179.812   1
   3  -2   4 10656.2 181.746   1
  -3  -2  -4 10638.5 206.694   0
  -3   2  -4 10886.0 222.031   0
   3   2   4 10316.2 105.130   2
   3   2   5 12596.1 205.687   1
   3  -2   5 12540.5 208.148   1
  -3  -2  -5 12805.8 223.633   0
  -3   2  -5 12469.5 241.407   0
   3   2   5 12184.0 119.512   2
   3   2   6 21083.9 281.287   1
   3  -2   6 20739.1 278.361   1
  -3   2  -6 20958.9 314.349   0
   3   2   7 25687.7 325.455   1
   3  -2   7 25446.7 324.495   1
   3   2   8 170.666 57.8591   1
   3  -2   8 163.591 60.7373   1
   3   2   9 15.6180 54.6659   1
   3  -2   9 55.0178 53.1467   1
   3   2  10 54.1336 65.5089   1
   3  -2  10 53.4610 65.5842   1
   3   2  11 2903.44 152.733   1
   3  -2  11 2946.50 152.947   1
   3   2  12 533.062 91.8705   1
   3  -2  12 475.061 88.2845   1
   3   2  13 3800.57 184.153   1
   3  -2  13 3660.46 175.409   1
   3   2  14 1632.99 141.168   1
   3  -2  14 1564.88 142.587   1
   3   2  15 92.5599 102.897   1
   3  -2  15 139.910 104.588   1
  -3   3  15 558.486 98.9150   2
  -3   3  14 4163.17 191.676   2
  -3   3  13 41.1636 72.3099   2
  -3   3  12 1792.70 124.157   2
  -3   3  11 615.977 83.1050   2
  -3  -3  11 653.174 70.8315   0
  -3  -3  10 218.495 53.3553   0
  -3   3  10 68.5775 32.8874   0
  -3   3  10 129.455 66.8924   2
  -3   3   9 540.996 55.0006   0
  -3   3   9 610.069 73.8149   2
  -3  -3   9 616.854 70.6596   0
  -3  -3   8 35.6616 52.0144   0
  -3   3   8 62.0557 35.8247   0
  -3   3   8 69.5511 51.2309   2
   3   3  -8 92.4500 51.6669   0
  -3  -3   7 4842.95 156.459   0
  -3   3   7 4743.18 139.258   0
  -3   3   7 4904.56 140.507   2
   3   3  -7 5310.34 169.614   0
  -3  -3   6 25764.3 345.327   0
   3   3  -6 25904.6 356.324   0
  -3   3   6 25676.3 313.897   0
  -3   3   6 25796.3 285.917   2
  -3   3   5 8694.83 158.358   2
  -3   3   5 8401.12 186.438   0
  -3  -3   4 559.967 63.3297   0
  -3   3   4 629.940 50.5439   2
  -3   3   4 564.395 59.3899   0
   3   3  -3 8409.52 72.1577   1
  -3  -3   3 8518.37 195.970   0
  -3   3   3 8650.83 191.743   0
  -3   3   3 8499.58 134.315   2
   3   3  -2 8223.64 91.0088   1
  -3  -3   2 8467.75 191.985   0
  -3   3   2 8764.81 123.711   2
  -3   3   2 9020.00 196.326   0
   3   3  -1 4460.56 80.4387   1
  -3  -3   1 4371.19 140.731   0
   3  -3  -1 4285.33 96.5453   1
  -3   3   1 4419.33 82.4155   2
  -3   3   1 4456.33 143.536   0
   3   3   0 17719.8 172.119   1
  -3  -3   0 17768.0 272.152   0
   3  -3   0 17947.6 197.480   1
  -3   3   0 17399.4 134.687   2
  -3   3   0 17398.4 275.977   0
   3   3   1 5753.55 110.378   1
  -3  -3  -1 5597.62 156.027   0
   3  -3   1 5405.95 115.599   1
  -3   3  -1 5417.87 60.1266   2
  -3   3  -1 5560.76 160.528   0
   3   3   2 44131.1 319.978   1
   3  -3   2 43618.7 333.271   1
  -3  -3  -2 44521.8 423.436   0
   3   3   2 42627.0 243.009   2
  -3   3  -2 44224.6 440.455   0
   3   3   3 8614.01 154.496   1
   3  -3   3 8707.71 159.583   1
  -3  -3  -3 8605.20 190.483   0
  -3   3  -3 8776.98 202.295   0
   3   3   3 8893.91 111.632   2
   3   3   4 26510.3 282.327   1
   3  -3   4 27273.0 292.339   1
  -3  -3  -4 26486.0 325.483   0
   3   3   4 26707.3 195.972   2
  -3   3  -4 27107.4 356.439   0
   3   3   5 7517.55 164.236   1
   3  -3   5 7706.17 166.990   1
  -3  -3  -5 7633.99 176.937   0
   3   3   5 8058.09 113.334   2
  -3   3  -5 7927.63 200.831   0
   3   3   6 24562.4 305.423   1
   3  -3   6 25365.1 310.412   1
   3   3   6 25679.9 207.970   2
  -3   3  -6 24973.7 353.339   0
   3   3   7 18.4756 52.1909   1
   3  -3   7 13.2775 50.3706   1
   3   3   7 36.8990 35.6426   0
   3   3   8 4629.05 156.174   1
   3   3   8 4629.54 109.321   0
   3  -3   8 4582.04 154.892   1
   3   3   9 168.306 64.3493   1
   3  -3   9 182.785 66.4574   1
   3   3  10 1937.87 121.312   1
   3  -3  10 1899.75 121.085   1
   3   3  11 1434.37 116.954   1
   3  -3  11 1300.79 113.451   1
   3   3  12 392.302 91.7542   1
   3  -3  12 340.070 89.6911   1
   3   3  13-20.2057 75.4551   1
   3  -3  13-6.56583 76.6879   1
   3   3  14 12.7849 84.8320   1
   3  -3  14 90.3284 87.4837   1
   3   3  15 455.538 106.738   1
   3  -3  15 422.744 106.340   1
  -3   4  16 1217.28 136.603   2
  -3   4  15 1285.66 127.900   2
  -3   4  14 4372.22 199.658   2
  -3   4  13 5598.86 207.152   2
  -3   4  12 839.789 99.5114   2
  -3  -4  11 41.7274 56.6028   0
  -3   4  11-16.7499 62.3835   2
  -3  -4  10 165.119 54.5149   0
  -3   4  10 301.526 71.6540   2
  -3   4   9 4723.62 130.023   0
  -3   4   9 5293.30 163.118   2
  -3  -4   9 4816.78 166.021   0
  -3   4   8 630.588 60.5596   0
  -3   4   8 772.869 76.8120   2
   3   4  -8 622.990 76.9777   0
  -3  -4   8 705.294 76.8062   0
   3   4  -7 32758.6 416.861   0
  -3   4   7 32311.4 353.788   0
  -3   4   7 31400.4 339.645   2
  -3  -4   7 32487.1 403.968   0
  -3   4   6 377.707 52.6105   2
  -3  -4   6 353.330 62.6781   0
   3   4  -6 361.312 59.6036   0
  -3   4   6 300.577 54.9521   0
  -3  -4   5 6355.97 179.272   0
  -3   4   5 6760.96 171.248   0
  -3   4   5 6682.63 142.433   2
   3   4  -5 6313.62 183.129   0
  -3  -4   4 2042.72 107.865   0
  -3   4   4 2208.05 105.369   0
  -3   4   4 2187.54 80.4874   2
  -3  -4   3 2020.00 104.567   0
  -3   4   3 2158.27 105.643   0
  -3   4   3 2069.80 72.3715   2
   3   4  -3 1976.80 37.2390   1
   3   4  -2 2349.81 53.2343   1
  -3  -4   2 2522.03 113.454   0
  -3   4   2 2401.66 71.6220   2
  -3   4   2 2395.27 110.044   0
  -3  -4   1 53567.2 486.938   0
  -3   4   1 56026.5 289.332   2
  -3   4   1 54631.7 486.124   0
   3   4  -1 54700.7 275.948   1
   3   4   0 10731.0 138.371   1
  -3  -4   0 10330.7 214.864   0
   3  -4   0 10175.5 156.000   1
  -3   4   0 10383.5 112.944   2
  -3   4   0 10498.7 220.292   0
   3   4   1 39613.0 285.097   1
  -3  -4  -1 39309.1 410.333   0
   3  -4   1 39459.1 314.599   1
  -3   4  -1 39448.3 181.819   2
  -3   4  -1 38546.6 419.385   0
   3   4   2 12410.4 173.871   1
  -3  -4  -2 12826.1 236.008   0
   3  -4   2 12307.1 183.848   1
  -3   4  -2 12149.8 244.701   0
   3   4   2 13185.2 151.262   2
   3   4   3 2533.08 90.1950   1
  -3  -4  -3 2413.05 110.202   0
   3  -4   3 2500.86 94.7744   1
   3   4   3 2466.82 71.1872   2
  -3   4  -3 2582.88 121.805   0
   3   4   4 8856.00 168.803   1
  -3  -4  -4 9191.16 199.247   0
   3  -4   4 9186.93 176.055   1
   3   4   4 9255.20 130.836   2
  -3   4  -4 9109.78 219.570   0
   3   4   5 9698.45 186.681   1
  -3  -4  -5 9623.69 202.397   0
   3  -4   5 9729.41 190.608   1
   3   4   5 10180.0 140.580   2
  -3   4  -5 9987.91 233.339   0
  -3   4  -6 36.7442 50.2497   0
   3   4   6 163.800 52.3202   1
   3  -4   6 88.5073 49.1805   1
   3   4   6 88.2982 40.4147   0
   3   4   6 107.111 33.9492   2
   3   4   7 9006.23 202.664   1
   3   4   7 8740.92 167.577   0
   3  -4   7 8733.34 200.563   1
   3   4   8 65.2641 57.8474   1
   3  -4   8 23.5197 55.9705   1
   3   4   8 47.6031 30.5337   0
   3   4   9 2215.54 123.574   1
   3  -4   9 2120.73 121.998   1
   3   4  10 85.1180 63.8649   1
   3  -4  10 75.4586 63.6294   1
   3   4  11 3600.12 169.120   1
   3  -4  11 3321.65 155.754   1
   3   4  12 1630.85 134.488   1
   3  -4  12 1406.85 122.926   1
   3   4  13 606.707 102.544   1
   3  -4  13 764.539 106.648   1
   3   4  14 170.461 102.958   1
   3  -4  14 248.761 93.0177   1
   3   4  15 339.865 105.579   1
  -3   5  16 445.908 99.9642   2
  -3   5  15 2457.83 162.504   2
  -3   5  14 757.047 104.297   2
  -3   5  13 701.986 105.057   2
  -3   5  12 53.4571 73.0814   2
  -3   5  11 8008.36 223.788   2
  -3  -5  11 8175.04 218.034   0
  -3   5  10 4069.63 156.588   2
  -3  -5  10 3988.18 161.068   0
  -3  -5   9 47.1850 51.2788   0
  -3   5   9 38.8085 38.2571   0
  -3   5   9 3.67359 60.7305   2
  -3   5   8 3002.75 114.814   0
  -3   5   8 3050.78 123.963   2
  -3  -5   8 3180.64 142.062   0
   3   5  -8 2876.58 141.589   0
  -3   5   7 12514.5 222.193   2
  -3   5   7 12331.2 228.355   0
   3   5  -7 11941.7 265.513   0
  -3  -5   7 11886.9 259.669   0
  -3  -5   6 823.450 82.4438   0
  -3   5   6 725.466 65.4276   2
   3   5  -6 725.067 81.0798   0
  -3   5   6 643.641 68.4331   0
  -3  -5   5 25622.8 365.824   0
   3   5  -5 25995.0 375.177   0
  -3   5   5 25563.5 337.270   0
  -3   5   5 25329.5 276.168   2
  -3  -5   4 5836.01 177.084   0
   3   5  -4 6060.78 183.192   0
  -3   5   4 6070.92 170.979   0
  -3   5   4 6185.56 132.774   2
  -3  -5   3 26301.4 361.084   0
  -3   5   3 26392.2 247.467   2
  -3   5   3 25504.4 342.010   0
   3   5  -3 25643.2 357.348   0
   3   5  -2 733.519 35.0760   1
  -3  -5   2 634.717 70.5302   0
  -3   5   2 688.275 46.8618   2
  -3   5   2 603.343 67.3110   0
   3   5  -2 684.596 72.0072   0
  -3  -5   1 6055.71 175.400   0
  -3   5   1 6221.62 105.944   2
   3   5  -1 6255.12 99.4385   1
  -3   5   1 6180.53 178.215   0
   3   5   0 625.567 43.1925   1
  -3  -5   0 555.374 68.3385   0
   3  -5   0 569.210 52.2884   1
  -3   5   0 504.197 33.7661   2
  -3   5   0 602.249 69.8978   0
  -3   5  -1 44.2791 49.6751   0
   3   5   1 11.0125 30.4276   1
  -3  -5  -1-10.0755 45.5926   0
   3  -5   1 25.9792 34.7274   1
  -3   5  -1 1.34825 18.0428   2
   3   5   1 32.8420 31.2975   2
  -3   5  -2 3.83864 52.8220   0
   3   5   2 10.0997 34.0378   1
  -3  -5  -2 55.9289 42.3093   0
   3  -5   2 38.1911 38.1820   1
  -3   5  -2 32.1672 14.9641   2
   3   5   2 15.2259 29.7923   2
   3   5   3 26672.0 279.086   1
  -3  -5  -3 26343.0 343.989   0
   3  -5   3 27404.8 291.939   1
   3   5   3 27186.4 237.297   2
  -3   5  -3 26248.8 372.614   0
   3   5   3 26583.3 336.082   0
   3   5   4 1803.63 86.9449   1
  -3  -5  -4 1964.53 100.807   0
   3  -5   4 2080.23 94.2270   1
   3   5   4 2050.32 100.722   0
   3   5   4 1845.08 70.6187   2
  -3   5  -4 1950.68 114.991   0
   3   5   5 2852.51 110.862   1
   3  -5   5 2851.10 114.291   1
   3   5   5 2889.88 113.544   0
   3   5   5 3205.77 91.2366   2
  -3   5  -5 2998.21 140.696   0
   3   5   6 751.599 65.8122   0
   3   5   6 856.546 74.2355   1
   3  -5   6 693.685 72.4255   1
   3   5   6 824.141 57.6918   2
  -3   5  -6 664.572 83.4861   0
   3   5   7 4755.25 156.540   1
   3  -5   7 4604.40 151.293   1
   3   5   7 4873.85 118.396   2
   3   5   7 4761.29 128.813   0
   3  -5   8-6.45065 56.7904   1
   3   5   8 1.60219 57.3369   1
   3   5   9 2142.76 126.367   1
   3  -5   9 2163.00 124.840   1
   3   5  10 964.179 100.661   1
   3  -5  10 845.656 91.6375   1
   3   5  11 431.718 87.8073   1
   3  -5  11 543.031 89.8021   1
   3   5  12 8.55484 83.2099   1
   3  -5  12-13.8596 69.6141   1
   3   5  13 3887.24 197.212   1
   3  -5  13 4379.73 199.582   1
   3   5  14 314.213 94.6084   1
   3  -5  14 290.920 94.1348   1
   3   5  15 190.032 107.886   1
  -3   6  16 1883.57 164.655   2
  -3   6  15 3855.81 201.972   2
  -3   6  14 9210.04 283.963   2
  -3   6  13 90.1037 71.0580   2
  -3   6  12 522.567 86.4319   2
  -3  -6  12 341.448 76.7413   0
  -3  -6  11 274.301 70.7410   0
  -3   6  11 286.339 76.2179   2
  -3   6  10 1568.47 113.260   2
  -3  -6  10 1549.69 114.159   0
  -3  -6   9 118.232 57.2660   0
  -3   6   9 69.9390 61.5387   2
  -3   6   9 79.2952 43.3773   0
  -3   6   8 5018.35 149.635   0
  -3   6   8 5298.33 162.536   2
   3   6  -8 4846.93 188.794   0
  -3  -6   8 5154.65 187.164   0
  -3   6   7 4343.30 145.843   0
  -3   6   7 4292.66 139.520   2
   3   6  -7 4403.75 173.962   0
  -3  -6   7 4741.30 177.176   0
  -3   6   6 1151.51 78.2098   2
  -3   6   6 1191.14 87.5324   0
   3   6  -6 1026.94 92.7070   0
  -3  -6   6 936.567 90.9951   0
   3   6  -5 2312.26 127.324   0
  -3   6   5 2267.70 93.5991   2
  -3   6   5 2023.81 110.279   0
  -3  -6   5 2226.82 123.506   0
  -3  -6   4 31735.1 417.994   0
   3   6  -4 30344.1 415.885   0
  -3   6   4 31505.9 300.519   2
  -3   6   4 30268.6 384.081   0
  -3  -6   3 1416.47 102.150   0
   3   6  -3 1477.49 103.768   0
  -3   6   3 1382.79 68.4530   2
  -3   6   3 1262.28 89.9661   0
  -3  -6   2 5324.12 172.591   0
   3   6  -2 5279.42 172.068   0
  -3   6   2 5545.87 114.985   2
  -3   6   2 5290.32 167.951   0
   3   6  -2 5440.26 86.9705   1
   3   6  -1 1256.02 52.5909   1
  -3  -6   1 1263.68 95.3103   0
   3   6  -1 1234.79 91.1773   0
  -3   6   1 1406.44 60.5571   2
  -3   6   1 1447.65 97.2968   0
  -3  -6   0 91253.6 675.074   0
   3   6   0 91250.3 670.153   0
   3   6   0 91874.5 1703.15   1
  -3   6   0 91081.5 386.017   2
  -3   6   0 92512.7 696.642   0
   3   6   1 30.7797 43.8995   0
   3   6   1 26.7695 31.8977   1
  -3  -6  -1 19.4058 49.3311   0
  -3   6  -1 17.3456 51.5493   0
   3  -6   1 67.6899 39.0456   1
  -3   6  -1 54.0384 23.9817   2
   3   6   1 51.4996 34.5179   2
   3   6   2 276.448 52.0174   0
   3   6   2 197.177 39.7071   2
   3   6   2 209.298 41.3971   1
  -3  -6  -2 164.455 50.5564   0
  -3   6  -2 233.485 61.2992   0
   3  -6   2 264.068 48.9177   1
  -3   6  -2 205.902 24.9775   2
   3   6   3 789.049 62.0166   1
  -3  -6  -3 886.596 80.8585   0
   3  -6   3 851.227 66.4329   1
   3   6   3 871.200 78.5522   0
   3   6   3 839.304 57.7713   2
  -3   6  -3 846.940 86.8587   0
   3   6   4 7265.53 161.627   1
  -3  -6  -4 7359.50 190.243   0
   3   6   4 7223.35 183.517   0
   3  -6   4 6979.86 163.511   1
   3   6   4 7377.77 139.489   2
  -3   6  -4 7119.67 212.640   0
   3   6   5 10335.6 202.545   1
   3  -6   5 10860.8 209.271   1
   3   6   5 11175.4 173.732   2
  -3   6  -5 10756.6 263.776   0
   3   6   5 10587.9 214.023   0
   3   6   6 37722.8 399.095   1
   3  -6   6 38336.2 402.402   1
  -3   6  -6 38250.6 493.939   0
   3   6   6 40201.2 330.183   2
   3   6   6 39615.3 388.226   0
   3   6   7 3311.15 137.922   1
   3  -6   7 3645.07 139.539   1
   3   6   7 3257.17 112.277   0
   3   6   7 3313.98 106.406   2
   3   6   8-40.4008 60.0045   1
   3  -6   8 21.4501 59.4826   1
   3   6   9 375.210 72.1052   1
   3  -6   9 317.379 73.5277   1
   3   6  10 5656.93 200.046   1
   3  -6  10 5342.41 188.339   1
   3   6  11 514.627 98.9979   1
   3  -6  11 536.611 87.8637   1
   3  -6  12 2091.22 142.833   1
   3   6  12 1765.15 147.977   1
   3  -6  13 2086.94 152.280   1
   3   6  13 2360.32 169.249   1
   3   6  14 1654.95 152.211   1
   3  -6  14 1427.21 138.255   1
   3   6  15 276.840 112.437   1
  -3   7  16 1323.21 145.737   2
  -3   7  15 4032.15 211.392   2
  -3   7  14 692.281 109.138   2
  -3   7  13 180.154 87.5969   2
  -3   7  12 11.4414 70.2760   2
  -3  -7  12 119.801 83.4477   0
  -3   7  11 3383.49 162.567   2
  -3  -7  11 3108.99 162.691   0
  -3  -7  10 390.216 81.8252   0
  -3   7  10 523.834 82.9881   2
  -3   7   9 12.8774 60.6266   2
  -3  -7   9 52.6807 66.0829   0
  -3   7   9 57.9850 44.7572   0
  -3  -7   8 226.914 72.1523   0
  -3   7   8 149.493 52.6040   0
   3   7  -8 83.0465 67.3154   0
  -3   7   8 141.833 53.6708   2
  -3  -7   7 232.183 68.9065   0
   3   7  -7 172.899 64.0510   0
  -3   7   7 207.842 58.1461   2
  -3   7   7 298.365 55.8093   0
  -3  -7   6 604.179 87.4318   0
  -3   7   6 569.538 70.6328   0
  -3   7   6 685.198 68.9244   2
   3   7  -6 748.130 88.3818   0
  -3   7   5 10611.7 195.608   2
  -3   7   5 10613.8 236.755   0
   3   7  -5 10640.7 267.019   0
  -3  -7   5 10996.4 266.225   0
  -3   7   4 2704.67 100.333   2
  -3   7   4 2598.65 127.173   0
   3   7  -4 2778.41 140.998   0
  -3  -7   4 2698.04 139.507   0
  -3  -7   3 11237.3 259.146   0
  -3   7   3 10646.2 174.360   2
  -3   7   3 11948.3 256.066   0
   3   7  -3 11327.0 263.240   0
  -3  -7   2 334.406 70.3550   0
  -3   7   2 421.043 69.8312   0
   3   7  -2 293.252 64.9078   0
  -3   7   2 496.797 49.5583   2
  -3  -7   1 2109.39 119.506   0
   3   7  -1 2198.91 121.940   0
  -3   7   1 1987.74 115.619   0
  -3   7   1 1853.77 71.0439   2
   3   7  -1 2021.61 67.3461   1
  -3  -7   0 911.419 85.7791   0
   3   7   0 1045.80 92.7060   0
  -3   7   0 961.505 52.8807   2
  -3   7   0 909.951 92.2275   0
   3   7   0 1026.85 56.6073   1
   3   7   1 3703.11 103.353   1
  -3  -7  -1 3645.44 150.179   0
   3   7   1 3537.98 144.905   0
   3  -7   1 3465.32 111.935   1
  -3   7  -1 3581.99 81.5104   2
   3   7   1 3615.15 109.259   2
  -3   7  -1 3615.83 153.205   0
   3   7   2 5730.85 175.432   0
   3   7   2 5817.33 134.533   1
  -3  -7  -2 5539.29 177.255   0
   3  -7   2 5754.38 144.391   1
  -3   7  -2 5494.55 93.4542   2
   3   7   2 6512.67 140.006   2
  -3   7  -2 6233.78 200.828   0
   3   7   3 6973.19 156.516   1
  -3  -7  -3 6475.80 188.691   0
   3  -7   3 6831.03 160.829   1
   3   7   3 6719.06 142.427   2
  -3   7  -3 6744.48 212.457   0
   3   7   3 6747.52 187.185   0
   3   7   4 316.582 60.2372   0
  -3  -7  -4 365.357 67.4192   0
   3   7   4 373.054 56.2815   1
  -3   7  -4 375.547 76.1453   0
   3  -7   4 373.918 54.8268   1
   3   7   4 401.300 49.8220   2
   3   7   5 2533.47 112.120   1
   3  -7   5 2506.78 110.151   1
   3   7   5 2598.23 116.716   0
   3   7   5 2741.14 99.1461   2
  -3   7  -5 2413.61 141.473   0
   3   7   6 7325.28 187.406   1
   3  -7   6 7126.72 185.451   1
   3   7   6 6929.94 176.724   0
   3   7   6 7653.91 161.227   2
  -3   7  -6 7089.66 233.802   0
   3   7   7 2729.61 128.453   1
   3  -7   7 2671.75 127.891   1
   3   7   7 2733.43 109.529   0
   3   7   7 2961.46 109.149   2
   3   7   8 80.4438 64.6131   1
   3  -7   8 57.9367 61.6570   1
   3   7   8-5.60107 46.4738   2
   3   7   9 5575.50 193.162   1
   3  -7   9 5761.88 192.657   1
   3   7  10 1049.50 108.972   1
   3  -7  10 752.526 97.9030   1
   3   7  11 2382.91 152.985   1
   3  -7  11 2334.47 142.158   1
   3   7  12 144.649 84.7997   1
   3  -7  12 115.258 77.0243   1
   3   7  13 278.645 99.1074   1
   3  -7  13 310.603 85.5922   1
   3   7  14 233.452 103.297   1
  -3   8  16 44.0797 112.667   2
  -3   8  15 3786.14 207.591   2
  -3   8  14 7161.63 261.687   2
  -3   8  13 362.992 91.4312   2
  -3   8  12 194.594 88.3492   2
  -3  -8  12 176.041 89.8825   0
  -3   8  11 2506.85 149.567   2
  -3  -8  11 2480.15 151.154   0
  -3   8  10 3400.20 158.801   2
  -3  -8  10 3078.30 168.023   0
  -3   8   9 2319.99 112.367   0
  -3   8   9 2292.94 130.218   2
  -3  -8   9 2905.60 159.087   0
   3   8  -8 9687.79 281.380   0
  -3   8   8 9403.12 218.153   0
  -3   8   8 9941.07 228.707   2
  -3  -8   8 9408.33 268.746   0
   3   8  -7 3129.66 163.929   0
  -3   8   7 3155.99 138.452   0
  -3   8   7 3062.09 129.554   2
  -3  -8   7 3115.30 162.680   0
  -3  -8   6 20113.9 375.783   0
   3   8  -6 19955.0 380.792   0
  -3   8   6 19840.7 287.967   2
  -3   8   6 19749.3 330.375   0
  -3   8   5 914.955 75.3102   2
  -3   8   5 711.685 80.4418   0
   3   8  -5 652.710 92.3663   0
  -3  -8   5 856.535 99.1877   0
  -3   8   4 1785.82 87.3728   2
   3   8  -4 1687.57 121.885   0
  -3   8   4 1585.07 107.116   0
  -3  -8   4 1592.13 115.656   0
  -3   8   3 3518.94 110.385   2
   3   8  -3 3479.19 160.940   0
  -3   8   3 3603.41 154.096   0
  -3  -8   3 2936.29 147.563   0
  -3   8   2 9210.01 163.045   2
   3   8  -2 8873.69 239.783   0
  -3   8   2 9162.56 238.455   0
  -3  -8   2 8896.01 239.744   0
  -3   8   1 15952.7 314.085   0
  -3   8   1 16020.5 201.374   2
   3   8  -1 16116.7 314.596   0
   3   8  -1 16088.5 184.470   1
  -3  -8   1 16373.8 319.100   0
  -3   8   0 18967.5 206.671   2
   3   8   0 19629.6 256.211   2
   3   8   0 19457.7 340.597   0
  -3   8   0 19855.1 353.746   0
   3   8   0 19373.2 217.237   1
  -3  -8   0 19690.2 345.568   0
  -3  -8  -1 796.528 57.5007   3
  -3   8  -1 974.716 53.2289   2
   3   8   1 949.585 69.7788   2
   3   8   1 964.303 87.9503   0
  -3   8  -1 1057.95 100.010   0
   3   8   1 1001.94 63.6468   1
  -3  -8  -1 981.649 95.2089   0
   3   8   2 611.339 60.1001   1
   3  -8   2 627.899 64.1761   1
  -3   8  -2 641.776 44.3267   2
   3   8   2 596.321 58.9041   2
   3   8   2 653.117 79.2673   0
  -3   8  -2 611.745 86.1569   0
  -3  -8  -2 626.248 78.6399   0
  -3  -8  -3 293.843 64.9325   0
   3  -8   3 371.393 57.4726   1
   3   8   3 302.306 54.1008   1
  -3   8  -3 188.678 68.1038   0
   3   8   3 250.341 63.1008   0
   3   8   3 300.910 50.6624   2
   3   8   4 707.625 72.4374   1
   3  -8   4 693.412 71.3414   1
  -3  -8  -4 572.400 80.5611   0
   3   8   4 636.426 73.7958   0
   3   8   4 695.598 62.6690   2
  -3   8  -4 780.110 94.9576   0
   3   8   5 3701.77 136.275   1
   3  -8   5 3536.52 130.990   1
   3   8   5 3833.07 145.562   0
   3   8   5 3605.54 120.512   2
  -3   8  -5 3647.14 175.842   0
   3  -8   6 309.518 64.8946   1
   3   8   6 244.879 57.1376   0
   3   8   6 351.225 69.0092   1
  -3   8  -6 309.389 79.3535   0
   3   8   6 325.191 57.9036   2
   3   8   7 22452.9 344.660   1
   3   8   7 22087.9 300.216   0
   3  -8   7 22264.0 335.835   1
   3   8   7 22305.1 289.432   2
   3   8   8 13014.2 281.015   1
   3  -8   8 13328.0 271.870   1
   3   8   8 13574.4 236.468   2
   3   8   9 714.904 98.6010   1
   3  -8   9 705.467 91.0865   1
   3   8  10 999.947 113.259   1
   3  -8  10 986.159 104.299   1
   3   8  11 560.929 98.7712   1
   3  -8  11 484.586 89.0386   1
   3  -8  12 5572.81 211.952   1
   3   8  12 5536.52 231.054   1
   3  -8  13 2026.63 145.739   1
   3   8  13 2348.48 168.212   1
   3   8  14 52.4076 102.692   1
  -3   9  15 1192.52 135.732   2
  -3   9  14 17.9640 86.6005   2
  -3   9  13 51.5003 75.5138   2
  -3   9  12 7805.92 254.939   2
  -3  -9  12 6711.83 253.712   0
  -3  -9  11-150.811 88.3836   0
  -3   9  11 51.9614 75.4601   2
  -3   9  10 1823.10 130.939   2
  -3  -9  10 1553.23 132.904   0
  -3  -9   9 714.225 103.104   0
  -3   9   9 701.224 74.3645   0
  -3   9   9 879.944 96.5061   2
   3   9  -8 425.877 92.9309   0
  -3  -9   8 252.935 86.2149   0
  -3   9   8 407.566 67.0120   0
  -3   9   8 526.803 80.9132   2
   3   9  -7 2393.71 155.523   0
  -3   9   7 2574.07 124.491   2
  -3   9   7 2384.20 131.638   0
  -3  -9   7 2309.98 145.068   0
   3   9  -6 1239.69 117.376   0
  -3   9   6 1237.56 88.3117   2
  -3   9   6 1229.45 101.792   0
  -3  -9   6 1076.46 110.425   0
   3   9  -5 5490.04 216.473   0
  -3   9   5 5677.91 158.564   2
  -3   9   5 5609.03 193.718   0
  -3  -9   5 5664.39 212.395   0
   3   9  -4 4564.95 192.316   0
  -3   9   4 4490.80 135.288   2
  -3   9   4 4530.08 178.763   0
  -3  -9   4 4496.36 187.198   0
   3   9  -3 3961.23 177.919   0
  -3   9   3 3893.58 120.883   2
  -3   9   3 4115.16 172.052   0
  -3  -9   3 4106.57 179.988   0
   3   9  -2 13391.5 304.430   0
  -3   9   2 13104.1 202.573   2
  -3   9   2 13370.9 298.496   0
  -3  -9   2 13812.2 313.602   0
   3   9  -1 2605.94 146.305   0
  -3   9   1 2537.41 93.3334   2
  -3   9   1 2765.79 148.697   0
  -3  -9   1 2644.85 145.882   0
  -3   9   0 9928.49 162.003   2
   3   9   0 9703.39 255.932   0
   3   9   0 8856.39 187.261   2
  -3   9   0 9419.86 256.971   0
  -3  -9   0 9780.55 259.787   0
   3   9   0 9609.41 164.003   1
   3   9   1 2043.34 125.213   0
  -3   9  -1 2088.20 78.5081   2
   3   9   1 2008.97 97.1704   2
  -3   9  -1 2192.32 134.558   0
  -3  -9  -1 1840.45 123.478   0
   3   9   1 2109.17 88.1794   1
   3  -9   2 11280.3 213.310   1
   3   9   2 11683.8 268.993   0
  -3   9  -2 11422.3 160.687   2
   3   9   2 11477.4 206.598   2
  -3   9  -2 11315.8 292.693   0
  -3  -9  -2 12291.8 282.320   0
   3   9   2 11331.6 198.202   1
  -3  -9  -3 134.173 57.8717   0
   3   9   3 113.483 51.0227   1
   3   9   3 117.206 54.9663   0
  -3   9  -3 95.4031 67.4682   0
   3  -9   3 154.137 48.5262   1
   3   9   3 117.445 48.8826   2
   3  -9   4 14452.3 251.184   1
   3   9   4 15682.5 299.764   0
   3   9   4 14914.0 237.679   2
  -3   9  -4 15287.1 349.748   0
  -3  -9  -4 15126.0 306.928   0
   3   9   4 15269.3 254.270   1
   3   9   5 1737.86 104.222   1
   3  -9   5 1569.25 98.7335   1
   3   9   5 1768.98 108.877   0
   3   9   5 1699.21 93.1714   2
  -3   9  -5 1505.43 131.925   0
   3   9   6-3.84076 59.5497   1
  -3   9  -6-138.472 75.5672   0
   3   9   6 34.1836 50.8591   2
   3  -9   6-2.79547 49.6336   1
   3   9   6 13.0518 51.4643   0
   3   9   7 401.625 76.8608   1
   3   9   7 323.185 56.0326   0
   3  -9   7 575.186 78.5108   1
   3   9   7 369.363 67.6169   2
   3   9   8 5356.30 192.730   1
   3  -9   8 4845.95 175.140   1
   3   9   8 5119.97 162.265   2
   3   9   9 382.138 83.0652   1
   3  -9   9 346.203 79.4916   1
   3  -9  10 1253.54 111.726   1
   3   9  10 1199.50 119.260   1
   3   9  11 91.9164 81.1399   1
   3  -9  11 114.977 75.7861   1
   3  -9  12 1155.16 122.204   1
   3   9  12 1172.46 134.463   1
   3   9  13 108.717 89.3264   1
   3   9  14 286.354 108.615   1
  -3  10  15 3321.75 204.138   2
  -3  10  14 23.5143 102.278   2
  -3  10  13 5857.82 233.156   2
  -3 -10  12 235.184 114.918   0
  -3  10  12 152.559 87.1266   2
  -3  10  11 132.976 76.2092   2
  -3 -10  11 224.556 105.146   0
  -3 -10  10 455.849 95.9167   0
  -3  10  10 460.792 87.2882   2
  -3 -10   9 571.871 106.257   0
  -3  10   9 478.078 89.7210   2
  -3  10   9 412.704 68.7129   0
   3  10  -8 1453.09 136.322   0
  -3 -10   8 1433.64 129.937   0
  -3  10   8 1214.14 102.712   0
  -3  10   8 1351.35 111.424   2
   3  10  -7 7461.35 270.780   0
  -3  10   7 7573.32 206.929   2
  -3  10   7 7457.82 222.817   0
  -3 -10   7 8270.02 272.050   0
  -3 -10   6 114.734 75.4200   0
   3  10  -6 47.8781 74.0380   0
  -3  10   6 68.4112 61.1186   0
  -3  10   6 96.8746 53.6485   2
   3  10  -5 2559.27 160.100   0
  -3  10   5 2360.19 115.321   2
  -3  10   5 2584.79 144.350   0
  -3 -10   5 2622.25 161.357   0
   3  10  -4 1052.90 108.139   0
  -3  10   4 821.197 76.7430   2
  -3  10   4 966.663 102.538   0
  -3 -10   4 1097.60 113.204   0
  -3 -10   3 106.019 61.6485   0
   3  10  -3 88.1295 64.3742   0
  -3  10   3 194.632 68.0809   0
  -3  10   3 65.0440 47.2356   2
   3  10  -2 4628.31 194.640   0
  -3  10   2 4613.60 133.951   2
  -3  10   2 4536.98 187.402   0
  -3 -10   2 4597.41 195.004   0
   3  10  -1 13104.8 312.055   0
  -3  10   1 12925.5 203.712   2
   3  10  -1 11814.2 230.052   2
  -3  10   1 12720.5 306.175   0
  -3 -10   1 12781.5 312.966   0
  -3 -10   0 186.804 67.2345   0
  -3  10   0 170.392 81.0694   0
   3  10   0 184.485 66.3990   0
  -3  10   0 133.583 42.4634   2
   3  10   0 88.6837 53.5186   2
   3  10   1 19632.4 366.503   0
  -3  10  -1 19065.0 228.004   2
   3  10   1 19622.6 282.462   2
  -3 -10  -1 19615.1 374.569   0
  -3  10  -1 19871.3 391.895   0
   3  10   1 18895.9 250.704   1
  -3  10  -2 611.974 96.0861   0
  -3 -10  -2 538.289 84.0189   0
   3  10   2 518.889 79.8218   0
   3 -10   2 762.173 77.5286   1
  -3  10  -2 632.404 55.5866   2
   3  10   2 671.298 73.5870   2
   3  10   2 639.009 64.5854   1
   3 -10   3 3703.27 136.460   1
   3  10   3 3621.68 165.575   0
   3  10   3 3941.10 135.285   2
  -3 -10  -3 3792.86 171.963   0
  -3  10  -3 3689.81 184.752   0
   3  10   3 3902.87 133.572   1
   3  10   4 837.981 93.7913   0
   3 -10   4 881.216 78.7559   1
   3  10   4 866.191 75.4170   2
  -3  10  -4 933.260 112.704   0
   3  10   4 809.828 79.6482   1
   3  10   5 19869.8 344.811   0
   3 -10   5 19332.3 305.209   1
   3  10   5 19297.7 289.727   2
  -3  10  -5 19830.0 420.796   0
   3  10   5 19190.3 307.549   1
  -3  10  -6 15.8261 90.2079   0
   3  10   6 64.5403 60.4539   1
   3 -10   6 31.4520 53.5326   1
   3  10   6 62.8423 59.8900   0
   3  10   6 40.6993 56.4877   2
   3  10   7 1381.22 95.8788   0
   3 -10   7 1276.17 102.324   1
   3  10   7 1299.17 96.7420   2
   3  10   7 1395.68 110.053   1
   3  10   8 137.231 69.7860   1
   3 -10   8 139.150 65.7533   1
   3  10   8 198.608 68.5755   2
   3  10   9 617.560 104.150   1
   3 -10   9 607.697 91.6766   1
   3 -10  10 909.132 103.455   1
   3  10  10 1032.40 117.156   1
   3 -10  11 4368.75 191.452   1
   3  10  11 4878.91 212.359   1
   3  10  12 576.942 125.839   1
   3 -10  12 452.957 92.7261   1
   3  10  13 1370.36 149.158   1
  -3  11  14 3529.12 204.118   2
  -3  11  13 573.610 113.438   2
  -3  11  12 647.239 110.007   2
  -3 -11  12 415.472 130.954   0
  -3  11  11 3825.39 189.750   2
  -3 -11  11 3579.11 209.339   0
  -3  11  10 5657.00 211.744   2
  -3 -11  10 5216.78 247.425   0
  -3  11   9 1163.11 95.9915   0
  -3  11   9 1204.79 110.779   2
  -3 -11   9 1363.37 141.945   0
   3  11  -8 4335.38 221.249   0
  -3  11   8 4759.27 186.813   0
  -3  11   8 4961.13 183.357   2
  -3 -11   8 4809.46 229.943   0
  -3 -11   7-7.03006 82.4043   0
  -3  11   7 2.64968 63.7255   0
  -3  11   7-3.05785 63.1337   2
   3  11  -7-58.9486 94.2972   0
  -3 -11   6 367.376 89.4408   0
  -3  11   6 328.868 79.8495   0
  -3  11   6 270.673 70.0136   2
   3  11  -6 282.559 87.8817   0
   3  11  -5 1343.01 133.665   0
  -3  11   5 1516.40 102.624   2
  -3  11   5 1532.43 123.170   0
  -3 -11   5 1765.08 138.331   0
   3  11  -4 10356.0 307.562   0
  -3  11   4 10232.3 215.239   2
  -3  11   4 10373.5 282.790   0
  -3 -11   4 10596.6 307.972   0
   3  11  -3 5234.43 222.641   0
  -3  11   3 5704.78 160.332   2
  -3  11   3 5082.17 208.194   0
  -3 -11   3 5583.34 227.759   0
  -3 -11   2 405.211 89.0367   0
   3  11  -2 452.652 82.3690   0
  -3  11   2 409.971 83.2296   0
  -3  11   2 528.394 62.5709   2
  -3 -11   1-2.96435 76.7638   0
   3  11  -1 57.2432 74.4258   0
  -3  11   1 98.8337 65.7164   0
  -3  11   1-4.82774 44.9212   2
   3  11  -1 144.450 60.9948   2
   3  11   0 1978.68 139.399   0
  -3  11   0 1886.72 92.3936   2
   3  11   0 1705.24 106.460   2
  -3 -11   0 1826.83 133.699   0
  -3  11   0 1732.35 140.265   0
   3  11   1 330.071 82.2318   0
  -3 -11  -1 461.577 86.5210   0
  -3  11  -1 344.959 88.8236   0
  -3  11  -1 504.719 59.2613   2
   3  11   1 403.100 68.7570   2
  -3  11  -2 739.603 107.944   0
   3  11   2 820.771 99.7342   0
   3 -11   2 967.296 84.3147   1
  -3  11  -2 882.200 64.9608   2
   3  11   2 859.190 82.2735   2
  -3 -11  -2 845.052 98.9565   0
   3  11   2 887.915 76.8665   1
   3  11   3 13317.5 311.253   0
   3 -11   3 13857.5 259.202   1
   3  11   3 13573.6 252.356   2
  -3 -11  -3 13514.2 321.674   0
  -3  11  -3 13339.9 350.213   0
   3  11   3 13538.7 246.321   1
   3  11   4 2278.29 141.494   0
   3 -11   4 2548.53 126.056   1
   3  11   4 2467.81 118.224   2
  -3  11  -4 2428.41 171.216   0
   3  11   4 2494.26 120.504   1
   3  11   5 2004.93 127.545   0
   3 -11   5 1895.95 112.732   1
   3  11   5 1832.97 110.208   2
  -3  11  -5 1684.22 151.294   0
   3  11   5 1805.91 113.119   1
   3 -11   6 14.1084 58.9997   1
   3  11   6 58.6210 66.5323   0
   3  11   6 86.8235 61.8648   1
  -3  11  -6 123.713 97.3593   0
   3  11   6 85.7558 54.9878   2
   3 -11   7 6460.08 200.571   1
   3  11   7 6165.85 186.049   2
   3  11   7 6242.96 192.836   0
   3  11   7 6837.11 216.700   1
   3 -11   8 45.3759 60.9418   1
   3  11   8-79.4021 77.3297   1
   3  11   8-79.2723 65.4785   2
   3 -11   9 838.962 97.3979   1
   3  11   9 817.080 105.134   1
   3  11   9 692.907 83.1813   2
   3 -11  10 1368.44 123.175   1
   3  11  10 1359.19 136.171   1
   3  11  11 280.367 107.393   1
   3 -11  11 224.839 82.6419   1
   3  11  12 213.595 108.695   1
   3  11  13 312.992 105.061   1
  -3  12  14 2471.07 178.448   2
  -3  12  13 1138.23 135.699   2
  -3  12  12 453.391 111.998   2
  -3  12  11 108.211 94.9084   2
  -3 -12  11-4.43184 127.206   0
  -3  12  10 1185.63 120.445   2
  -3 -12  10 1284.67 141.433   0
  -3 -12   9 807.003 131.736   0
  -3  12   9 738.863 101.722   2
  -3  12   8 2962.20 155.213   2
  -3  12   8 2801.31 159.779   0
  -3 -12   8 3076.15 201.251   0
   3  12  -8 2877.44 201.182   0
  -3 -12   7-74.0435 97.1327   0
  -3  12   7 94.5150 73.3775   0
   3  12  -7-14.3916 104.068   0
  -3  12   7-8.29548 73.6916   2
   3  12  -6 6418.08 267.632   0
  -3  12   6 6536.48 200.909   2
  -3  12   6 6795.89 243.441   0
  -3 -12   6 6910.47 269.461   0
  -3 -12   5 697.973 109.821   0
  -3  12   5 741.324 108.129   0
  -3  12   5 588.120 79.5338   2
   3  12  -5 609.621 110.628   0
  -3 -12   4 142.740 85.8211   0
  -3  12   4 153.427 77.8238   0
  -3  12   4 158.061 60.1019   2
   3  12  -4 129.597 85.2749   0
   3  12  -3-27.2160 75.1246   0
  -3 -12   3-14.8924 71.4500   0
  -3  12   3-11.9878 70.8261   0
  -3  12   3 53.1440 56.7543   2
  -3 -12   2 759.374 104.888   0
   3  12  -2 885.288 115.710   0
  -3  12   2 697.729 106.096   0
  -3  12   2 880.552 79.9487   2
   3  12  -2 865.104 90.5718   2
   3  12  -1 3890.06 199.486   0
  -3  12   1 3881.59 133.633   2
   3  12  -1 3792.15 150.506   2
  -3 -12   1 4114.70 204.869   0
  -3  12   1 4003.00 197.777   0
   3  12   0 15922.7 370.831   0
  -3  12   0 15236.3 239.592   2
   3  12   0 15267.8 279.110   2
  -3 -12   0 15430.4 366.838   0
  -3  12   0 15341.5 371.838   0
   3  12   1 2483.58 160.933   0
  -3 -12  -1 2386.18 158.090   0
  -3  12  -1 2583.85 104.545   2
   3  12   1 2364.66 122.887   2
  -3  12  -1 2479.86 165.831   0
   3  12   2 5510.79 220.023   0
  -3  12  -2 5113.00 139.034   2
   3  12   2 5033.21 172.298   2
  -3 -12  -2 4970.50 215.204   0
  -3  12  -2 4943.14 231.313   0
   3  12   3 2129.56 145.574   0
   3 -12   3 2227.31 119.337   1
   3  12   3 2191.94 121.732   2
   3  12   3 2204.40 115.519   1
  -3  12  -3 1927.27 163.441   0
   3 -12   4 10639.9 243.225   1
   3  12   4 10734.0 238.239   2
   3  12   4 10940.4 240.588   1
  -3  12  -4 10488.5 330.811   0
   3  12   4 10457.2 284.438   0
   3 -12   5 2976.95 141.226   1
   3  12   5 2897.91 138.890   2
   3  12   5 3193.78 163.745   0
  -3  12  -5 2789.43 199.020   0
   3  12   5 3157.00 146.343   1
   3 -12   6 14813.9 293.510   1
   3  12   6 14594.6 287.060   2
   3  12   6 14908.2 319.776   0
  -3  12  -6 14272.2 398.267   0
   3  12   6 14825.3 300.900   1
   3 -12   7 1356.49 109.162   1
   3  12   7 1333.79 105.001   0
   3  12   7 1454.45 110.079   2
   3  12   7 1376.74 121.811   1
   3  12   8 36.3318 76.3158   1
   3 -12   8 17.4962 76.9125   1
   3  12   8 80.2999 71.4203   2
   3 -12   9 996.317 109.038   1
   3  12   9 1026.03 117.419   1
   3  12   9 1002.25 104.079   2
   3 -12  10 860.829 111.593   1
   3  12  10 974.172 125.356   1
   3  12  11 865.177 132.733   1
   3 -12  11 658.565 106.169   1
   3  12  12 193.579 105.532   1
  -3  13  13-54.2104 104.077   2
  -3  13  12-151.946 103.546   2
  -3  13  11 1319.67 134.795   2
  -3  13  10 428.850 103.098   2
  -3 -13  10 472.494 125.443   0
  -3  13   9 1201.01 120.344   2
  -3 -13   9 1185.01 141.533   0
  -3 -13   8 88.1264 102.759   0
  -3  13   8-9.32685 89.4793   0
  -3  13   8 5.81431 68.6808   2
  -3 -13   7 2069.22 177.988   0
  -3  13   7 2187.87 139.200   2
  -3  13   7 2236.48 150.396   0
   3  13  -7 1771.22 179.461   0
  -3 -13   6 47.2994 88.3049   0
  -3  13   6 86.7485 81.4923   0
  -3  13   6-7.96416 68.4687   2
   3  13  -6 18.9103 104.446   0
   3  13  -5 2096.18 173.846   0
  -3  13   5 2064.44 126.320   2
  -3  13   5 1885.82 147.981   0
  -3 -13   5 2179.90 170.739   0
   3  13  -4 5383.30 250.708   0
  -3  13   4 5342.77 232.534   0
  -3  13   4 5151.09 171.545   2
  -3 -13   4 4959.80 243.500   0
   3  13  -3 970.861 126.327   0
  -3  13   3 1015.68 93.4574   2
   3  13  -3 969.258 99.5026   2
  -3 -13   3 1100.84 136.589   0
  -3  13   3 1043.13 125.795   0
   3  13  -2 998.327 123.595   0
  -3  13   2 1053.61 90.9805   2
   3  13  -2 1086.57 106.914   2
  -3 -13   2 1092.61 131.103   0
  -3  13   2 908.313 123.120   0
   3  13  -1 4089.57 210.963   0
  -3  13   1 4072.02 143.032   2
   3  13  -1 4087.31 165.308   2
  -3 -13   1 4388.04 219.001   0
  -3  13   1 4236.14 216.850   0
   3  13   0 1947.44 158.084   0
  -3  13   0 2016.38 107.777   2
   3  13   0 2158.37 126.670   2
  -3 -13   0 2333.68 169.763   0
  -3  13   0 2088.01 163.870   0
  -3 -13  -1 350.811 90.8971   0
  -3  13  -1 499.579 111.093   0
   3  13   1 327.800 86.9252   0
  -3  13  -1 421.552 61.1573   2
   3  13   1 388.046 78.7798   2
   3  13   2 2786.69 173.342   0
  -3  13  -2 2559.85 111.124   2
   3  13   2 2694.42 136.007   2
  -3 -13  -2 2433.64 168.671   0
  -3  13  -2 2481.14 187.931   0
   3 -13   3 18312.3 318.980   1
   3  13   3 18747.7 323.644   2
   3  13   3 18102.7 393.795   0
  -3  13  -3 17492.4 435.260   0
   3  13   4 248.146 81.5976   0
  -3  13  -4 264.166 107.073   0
   3 -13   4 251.103 71.9744   1
   3  13   4 303.905 80.2593   2
   3  13   5 360.651 86.2515   0
   3 -13   5 354.161 68.9478   1
  -3  13  -5 416.234 109.565   0
   3  13   5 312.665 79.8506   2
   3  13   5 389.397 82.8973   1
   3 -13   6 2248.49 130.720   1
   3  13   6 2103.68 132.274   2
   3  13   6 2108.90 139.259   0
  -3  13  -6 1874.09 178.415   0
   3  13   6 2124.13 137.317   1
   3  13   7 4244.77 180.343   0
   3 -13   7 4369.61 175.717   1
   3  13   7 4986.61 187.389   2
   3  13   7 4487.72 192.357   1
   3  13   8-55.2104 88.7675   1
   3 -13   8-24.1486 70.5928   1
   3  13   8 65.1978 71.1762   2
   3 -13   9 1627.39 133.659   1
   3  13   9 1488.42 128.879   2
   3  13   9 1375.04 137.358   1
   3  13  10 478.317 104.684   1
   3 -13  10 418.345 86.8706   1
   3  13  11 371.027 108.466   1
   3  13  12 167.641 117.360   1
  -3  14  13 358.753 113.194   2
  -3  14  12 1628.81 151.061   2
  -3  14  11 129.378 97.5090   2
  -3  14  10-22.1737 91.5947   2
  -3  14   9 538.968 105.356   2
  -3 -14   9 321.381 132.533   0
  -3  14   8 23705.2 416.255   2
  -3  14   8 22892.8 434.142   0
  -3 -14   8 23778.4 543.479   0
  -3  14   7 2140.01 140.998   2
  -3  14   7 1818.31 149.033   0
  -3 -14   7 2037.41 172.198   0
   3  14  -7 1891.65 176.175   0
  -3  14   6 2484.74 143.397   2
  -3  14   6 2667.34 179.080   0
  -3 -14   6 2325.05 187.191   0
   3  14  -6 2476.69 194.104   0
  -3 -14   5 329.089 106.523   0
  -3  14   5 395.203 103.470   0
  -3  14   5 465.856 85.1827   2
   3  14  -5 454.405 116.172   0
  -3 -14   4-47.9852 102.239   0
  -3  14   4 44.8793 87.3103   0
   3  14  -4 21.6173 98.9152   0
  -3  14   4 51.9028 68.1482   2
   3  14  -4 17.2592 82.3517   2
  -3  14   3 1212.09 131.709   0
  -3 -14   3 1220.93 150.081   0
  -3  14   3 1096.04 97.6668   2
   3  14  -3 1183.47 113.779   2
   3  14  -3 1224.05 145.569   0
  -3  14   2 6347.79 188.520   2
   3  14  -2 6517.34 212.728   2
  -3 -14   2 7007.36 285.644   0
  -3  14   2 7103.92 280.711   0
   3  14  -2 6332.40 273.281   0
  -3  14   1 1484.33 99.6123   2
   3  14  -1 1681.51 123.797   2
  -3 -14   1 1713.56 151.886   0
  -3  14   1 1690.61 160.169   0
   3  14  -1 1530.76 151.186   0
  -3  14   0 3569.49 142.903   2
   3  14   0 3641.20 164.815   2
  -3 -14   0 4115.92 219.281   0
  -3  14   0 3947.63 223.243   0
   3  14   0 3853.03 209.004   0
  -3 -14  -1 3402.77 199.090   0
  -3  14  -1 3226.29 132.158   2
   3  14   1 3273.63 153.754   2
   3  14   1 3270.57 194.357   0
  -3  14  -1 3087.14 208.363   0
   3  14   2 1522.93 124.038   2
   3  14   2 1220.27 130.861   0
  -3  14  -2 1360.22 154.556   0
   3 -14   3 916.233 99.1684   1
   3  14   3 887.414 119.224   0
  -3  14  -3 891.003 136.871   0
   3  14   3 828.430 105.111   2
   3 -14   4 1906.12 125.103   1
   3  14   4 1982.62 133.291   2
   3  14   4 1570.21 142.248   0
  -3  14  -4 1982.36 181.856   0
   3 -14   5 563.155 91.0220   1
  -3  14  -5 382.794 125.379   0
   3  14   5 425.051 95.2857   2
   3  14   5 504.794 96.7366   0
   3 -14   6 11491.8 276.256   1
   3  14   6 10985.3 304.003   0
   3  14   6 11006.7 272.090   2
  -3  14  -6 10732.6 396.660   0
   3 -14   7 581.592 86.0495   1
   3  14   7 377.229 90.0311   2
   3 -14   8 568.622 91.5099   1
   3  14   8 678.572 100.294   2
   3 -14   9 1583.69 136.102   1
   3  14   9 1833.37 140.295   2
   3 -14  10 704.139 106.143   1
  -3  15  12 1616.88 160.974   2
  -3  15  11 313.836 102.436   2
  -3  15  10 2979.26 184.269   2
  -3  15   9 773.154 110.936   2
  -3  15   8 7.03059 123.294   0
  -3  15   8 48.2311 83.8110   2
  -3 -15   8 20.7098 142.539   0
  -3 -15   7 14.7371 132.642   0
   3  15  -7-107.518 133.120   0
  -3  15   7 61.4811 73.8748   2
  -3  15   7 153.420 108.978   0
  -3 -15   6 764.568 131.795   0
   3  15  -6 660.893 140.401   0
  -3  15   6 858.543 120.912   0
  -3  15   6 676.003 104.069   2
  -3 -15   5 913.078 139.704   0
  -3  15   5 923.821 108.131   2
   3  15  -5 1069.29 114.481   2
  -3  15   5 1065.45 136.642   0
   3  15  -5 1096.70 147.439   0
  -3  15   4 4830.68 187.692   2
   3  15  -4 5447.44 210.877   2
  -3 -15   4 5412.91 269.614   0
  -3  15   4 5527.99 259.304   0
   3  15  -4 5371.59 274.180   0
  -3 -15   3 510.779 118.474   0
   3  15  -3 368.820 126.144   0
  -3  15   3 253.035 98.2262   0
  -3  15   3 475.860 84.1357   2
   3  15  -3 551.258 100.466   2
  -3  15   2 6448.51 199.282   2
   3  15  -2 6783.11 222.478   2
  -3 -15   2 6607.28 291.783   0
   3  15  -2 6704.97 296.338   0
  -3  15   2 6741.36 284.483   0
  -3 -15   1 627.785 115.430   0
   3  15  -1 564.416 128.720   0
  -3  15   1 522.513 123.492   0
  -3  15   1 410.006 75.6355   2
   3  15  -1 614.301 99.2789   2
  -3 -15   0 995.958 137.668   0
   3  15   0 874.284 131.802   0
  -3  15   0 859.746 140.377   0
  -3  15   0 982.128 95.7075   2
   3  15   0 872.667 110.900   2
  -3 -15  -1 302.580 112.406   0
   3  15   1 317.252 96.0643   0
  -3  15  -1 223.809 105.683   0
  -3  15  -1 288.012 69.6887   2
   3  15   1 213.146 86.3661   2
   3  15   2 3085.83 160.378   2
   3  15   2 2613.22 192.314   0
  -3  15  -2 2662.83 209.417   0
   3  15   3 964.977 137.615   0
   3 -15   3 1029.69 104.305   1
  -3  15  -3 758.313 151.206   0
   3  15   3 1012.49 113.214   2
   3 -15   4 11643.5 285.804   1
   3  15   4 11607.4 290.398   2
   3  15   4 11830.4 345.237   0
  -3  15  -4 11362.3 392.438   0
   3 -15   5 1484.05 117.903   1
  -3  15  -5 1300.34 174.979   0
   3  15   5 1629.39 146.865   0
   3  15   5 1616.51 132.826   2
   3 -15   6 32.2850 68.7029   1
   3  15   6-9.99042 111.144   0
   3  15   6-20.4188 84.8905   2
   3 -15   7 1744.36 125.023   1
   3  15   7 1728.16 135.998   2
   3 -15   8 1732.24 133.087   1
   3  15   8 1717.39 143.677   2
   3 -15   9 202.810 90.2401   1
   3  15   9 103.317 98.8740   2
  -3  16  11 632.448 123.751   2
  -3  16  10 356.983 107.836   2
  -3  16   9 523.309 120.060   2
  -3  16   8 1340.45 141.633   2
  -3  16   7 124.992 128.185   0
  -3  16   7 97.0314 82.0794   2
  -3 -16   7 76.0930 139.290   0
  -3 -16   6 1561.46 179.959   0
  -3  16   6 1636.65 142.601   2
   3  16  -6 1680.35 187.051   0
  -3  16   6 1657.75 165.459   0
   3  16  -6 1703.41 144.085   2
  -3 -16   5-243.240 137.363   0
   3  16  -5-159.088 126.970   0
  -3  16   5-1.76050 113.263   0
  -3  16   5-50.9739 81.9672   2
   3  16  -5 16.6998 80.7740   2
  -3  16   4 3411.12 172.718   2
   3  16  -4 3654.73 189.319   2
  -3 -16   4 3519.78 239.725   0
   3  16  -4 4040.80 253.994   0
  -3  16   4 3441.39 214.119   0
  -3  16   3 1376.12 161.878   0
  -3  16   3 1385.00 121.720   2
   3  16  -3 1616.18 144.441   2
  -3 -16   3 1431.13 166.331   0
   3  16  -3 1657.11 179.258   0
  -3 -16   2 174.034 126.453   0
   3  16  -2 374.572 122.034   0
  -3  16   2 167.764 115.574   0
  -3  16   2 246.725 80.5434   2
   3  16  -2 227.915 97.6620   2
  -3  16   1 4913.86 184.691   2
   3  16  -1 5512.31 212.565   2
  -3 -16   1 5205.41 275.562   0
   3  16  -1 5554.52 281.786   0
  -3  16   1 4898.64 258.287   0
  -3 -16   0 316.551 128.164   0
   3  16   0 240.231 110.611   0
  -3  16   0 176.572 108.854   0
  -3  16   0 246.641 76.1883   2
   3  16   0 326.325 93.8030   2
  -3  16  -1 1707.61 118.320   2
   3  16   1 1997.64 145.558   2
   3  16   1 1580.52 167.336   0
  -3  16  -1 1682.54 182.694   0
   3  16   2 2671.12 153.712   2
   3 -16   2 2817.53 157.712   1
   3  16   2 2431.07 194.175   0
  -3  16  -2 2436.82 211.652   0
  -3  16  -3 282.267 128.777   0
   3 -16   3 284.541 82.6558   1
   3  16   3 352.867 115.154   0
   3  16   3 515.842 99.4078   2
   3 -16   4 8367.50 251.884   1
   3  16   4 8062.30 298.097   0
   3  16   4 8574.84 262.093   2
  -3  16  -4 8163.51 348.702   0
   3  16   5 9389.66 312.758   0
   3 -16   5 9654.50 270.845   1
   3  16   5 9768.10 279.704   2
  -3  16  -5 8631.22 389.720   0
   3  16   6-202.301 139.219   0
   3 -16   6 30.0793 76.1915   1
   3  16   6 29.3263 78.3117   2
   3 -16   7 5449.76 216.624   1
   3  16   7 5514.61 221.205   2
   3 -16   8 4.29348 93.4255   1
   3  16   8 99.2491 97.8974   2
   3 -16   9 1397.29 123.712   1
   3  16   9 1432.31 133.471   2
  -3  17  10 998.495 143.971   2
  -3  17   9 1639.30 162.881   2
   3  17  -9 1555.00 170.210   2
  -3  17   8 2984.95 191.776   2
   3  17  -8 2891.10 195.923   2
  -3  17   7 280.182 101.440   2
   3  17  -7 340.116 111.832   2
  -3  17   6 725.231 139.426   0
  -3  17   6 586.467 110.349   2
   3  17  -6 372.637 163.030   0
   3  17  -6 645.222 119.322   2
  -3  17   5 696.168 132.848   0
  -3  17   5 694.456 104.330   2
   3  17  -5 572.489 154.930   0
   3  17  -5 769.708 118.325   2
  -3 -17   5 906.882 158.588   0
   3  17  -4 4763.18 281.216   0
  -3  17   4 4554.34 197.878   2
   3  17  -4 5059.97 222.792   2
  -3 -17   4 5027.28 289.646   0
  -3  17   4 4837.19 267.773   0
  -3 -17   3-204.267 147.170   0
  -3  17   3-67.1342 126.185   0
  -3  17   3 3.56421 82.7928   2
   3  17  -3-44.0945 90.8584   2
   3  17  -3 50.9857 148.558   0
  -3 -17   2-42.5777 151.779   0
   3  17  -2 26.8062 140.555   0
  -3  17   2-16.0553 121.185   0
  -3  17   2 84.9536 81.6876   2
   3  17  -2 39.8930 86.0035   2
  -3 -17   1-138.820 153.232   0
  -3  17   1 72.5357 73.6805   2
  -3  17   1-308.635 136.331   0
   3  17  -1-96.5070 91.7792   2
   3  17  -1 131.200 130.957   0
  -3 -17   0 103.133 158.807   0
  -3  17   0-20.1994 140.302   0
  -3  17   0 180.780 72.5142   2
   3  17   0 108.450 86.6947   2
   3  17   0-21.3156 133.170   0
  -3  17  -1 1227.67 162.649   0
   3  17   1 1370.18 161.844   0
   3  17   1 1348.69 135.114   2
   3 -17   2 1818.57 136.653   1
   3  17   2 1842.74 168.953   0
   3  17   2 1885.61 148.908   2
  -3  17  -2 1611.82 201.043   0
   3 -17   3 5767.65 221.078   1
   3  17   3 5757.55 278.720   0
   3  17   3 5839.76 232.860   2
  -3  17  -3 5463.35 314.353   0
   3 -17   4 916.413 111.672   1
  -3  17  -4 763.596 175.523   0
   3  17   4 748.044 133.386   0
   3  17   4 795.302 111.765   2
   3  17   5 14.9740 146.630   0
   3 -17   5 92.6961 79.9874   1
  -3  17  -5 135.518 191.440   0
   3  17   5-25.0241 97.4916   2
   3 -17   6 191.012 81.0045   1
   3  17   6 130.341 95.9364   2
   3 -17   7 969.428 108.960   1
   3  17   7 905.962 133.299   2
   3 -17   8 170.166 107.203   1
   3  17   8 290.018 113.084   2
  -3  18   9 150.422 121.313   2
   3  18  -9 88.7226 126.249   2
  -3  18   8 199.599 110.868   2
   3  18  -8 233.742 106.939   2
  -3  18   7 4216.63 217.355   2
   3  18  -7 4380.03 232.402   2
  -3  18   6 2170.54 157.915   2
   3  18  -6 2299.39 175.412   2
  -3  18   5 3179.64 182.921   2
   3  18  -5 3519.06 199.301   2
  -3  18   4 416.575 96.7345   2
   3  18  -4 217.264 119.612   2
  -3  18   3 2059.18 150.700   2
   3  18  -3 2410.97 169.673   2
  -3 -18   3 2451.93 223.248   0
  -3  18   2 4.63034 82.1792   2
   3  18  -2 14.2998 98.1490   2
  -3 -18   2 143.289 184.395   0
  -3  18   1 1067.10 115.864   2
   3  18  -1 1267.77 137.070   2
   3  18  -1 1176.61 156.762   0
  -3  18   1 1412.25 172.682   0
  -3 -18   1 845.950 182.850   0
  -3  18   0 6493.62 217.474   2
   3  18   0 7381.86 261.541   2
  -3  18   0 6633.17 336.788   0
   3  18   1 5334.67 228.845   2
   3 -18   2 1178.56 126.331   1
   3  18   2 1326.03 135.238   2
   3 -18   3 101.805 82.8762   1
   3  18   3 109.244 96.0734   2
   3 -18   4 116.323 90.0031   1
   3  18   4 122.551 101.929   2
   3 -18   5 1853.58 144.335   1
   3  18   5 1762.58 153.437   2
   3 -18   6 472.186 101.277   1
   3  18   6 590.079 116.325   2
   3 -18   7 220.606 101.675   1
   3  18   7 228.558 117.047   2
   3  18   8 1840.09 168.977   2
  -3  19   8-309.831 115.371   2
   3  19  -8-67.2120 117.936   2
  -3  19   7 59.7762 113.049   2
   3  19  -7 76.7534 120.279   2
   3  19  -6 1140.90 149.457   2
  -3  19   6 951.615 141.490   2
  -3  19   5-70.5531 97.8811   2
   3  19  -5 113.157 109.929   2
  -3  19   4 3481.59 195.586   2
   3  19  -4 3954.10 214.416   2
  -3  19   3 11600.6 315.984   2
   3  19  -3 12426.7 352.955   2
  -3  19   2 1176.69 129.014   2
   3  19  -2 1367.60 143.518   2
   3  19  -1 895.772 130.063   2
  -3  19   1 622.460 109.549   2
   3  19   0 814.372 126.528   2
   3  19   1 2235.44 174.656   2
   3 -19   2 75.0410 96.8787   1
   3  19   2 169.316 97.1537   2
   3 -19   3 3857.26 202.023   1
   3  19   3 4111.95 216.518   2
   3 -19   4-153.434 97.2109   1
   3  19   4-114.734 102.670   2
   3 -19   5 3.05590 104.856   1
   3  19   5 202.757 110.098   2
   3 -19   6 435.996 107.269   1
   3  19   6 34.4262 114.271   2
   3  19   7 1450.28 162.555   2
  -3  20   6 1566.22 154.955   2
   3  20  -6 1449.45 166.276   2
   3  20  -5 240.540 127.841   2
  -3  20   5 334.360 121.417   2
  -3  20   4 32.3529 106.555   2
   3  20  -4 49.0748 109.350   2
  -3  20   3 1496.07 149.029   2
   3  20  -3 1411.17 163.612   2
  -3  20   2 2593.59 182.275   2
   3  20  -2 3094.36 204.889   2
   3  20  -1 160.501 126.877   2
   3  20   0 2319.12 178.306   2
   3  20   1 687.311 139.702   2
   3 -20   2 346.300 108.078   1
   3  20   2 335.637 112.422   2
   3 -20   3 119.101 106.881   1
   3  20   3-67.8190 121.196   2
   3 -20   4 1758.16 156.427   1
   3  20   4 2235.49 187.639   2
   3 -20   5 524.527 120.213   1
   3  20   5 585.147 123.049   2
  -3  21   4 1369.89 153.446   2
  -3  21   3 327.616 128.398   2
   3  21  -3 327.940 134.034   2
   3  21  -2 1452.00 172.877   2
   3  21  -1 975.698 138.001   2
   3  21   0 1085.05 161.893   2
   3 -21   1 1241.82 133.790   1
   3  21   1 847.698 151.020   2
   3 -21   2 2458.44 179.927   1
   3  21   2 2528.85 189.209   2
  -4   0  11-121.063 56.7026   0
  -4   0  10 1577.09 102.300   0
  -4   0   8 124.363 55.2655   0
  -4   0   7 3.76990 55.7391   0
  -4   0   6 13920.1 276.918   0
   4   0  -5 8.53333 19.6891   1
  -4   0   5-48.6555 47.4245   0
   4   0  -4 86.3757 22.8860   1
  -4   0   4 77.5676 56.0392   0
   4   0  -3 9.90153 24.0930   1
  -4   0   3 49.7883 53.2038   0
   4   0  -2 511.786 41.2265   1
  -4   0   2 410.203 69.8632   0
   4   0  -1 19.9359 28.0169   1
  -4   0   1-6.53312 49.5436   0
   4   0   0 20.5311 32.0024   1
  -4   0   0 69.7390 51.6298   0
   4   0   1 5.07135 35.0650   1
  -4   0  -1 57.6897 52.9393   0
   4   0   2 3061.10 103.211   1
  -4   0  -2 2827.02 132.591   0
   4   0   3 25.0269 39.2610   1
  -4   0  -3 21.9966 49.1891   0
   4   0   4 4152.94 130.255   1
  -4   0  -4 3984.12 159.809   0
   4   0   5 27.0766 49.3129   1
  -4   0  -5-28.6592 52.3328   0
   4   0   6 3642.54 137.807   1
   4   0   7-42.7059 56.1097   1
   4   0   8 7525.32 210.941   1
   4   0   9 9.83360 70.1335   1
   4   0  10 232.106 79.0983   1
   4   0  11 19.6092 81.1316   1
   4   0  12 2753.58 172.658   1
   4   0  13 50.5208 86.3207   1
   4   0  14 1663.91 155.613   1
  -4   1  11-8.17068 67.6826   2
  -4  -1  11-1.29699 60.5579   0
  -4   1  11-21.2241 54.0435   0
  -4  -1  10 3537.93 146.085   0
  -4   1  10 3457.20 138.177   0
  -4   1  10 3447.25 147.770   2
  -4  -1   9 2856.11 137.185   0
  -4   1   9 3104.89 135.834   0
  -4   1   9 2907.27 131.872   2
  -4  -1   8 11227.8 255.992   0
  -4   1   8 11044.7 246.570   0
  -4   1   8 11388.7 226.351   2
  -4   1   7 27443.7 328.792   2
  -4  -1   7 28354.0 399.059   0
  -4   1   7 28762.8 391.188   0
  -4  -1   6 1902.09 114.199   0
  -4   1   6 1980.35 114.884   0
  -4   1   6 1887.22 92.8904   2
  -4  -1   5 5367.03 178.752   0
   4  -1  -5 5105.28 92.2532   1
  -4   1   5 5141.96 172.610   0
  -4   1   5 5128.23 131.582   2
   4   1  -4 5405.55 80.9830   1
  -4  -1   4 5618.66 184.359   0
   4  -1  -4 5227.81 97.4638   1
  -4   1   4 5184.13 174.263   0
  -4   1   4 5567.65 125.458   2
  -4   1   3 35733.9 288.527   2
   4   1  -3 34136.3 227.108   1
   4  -1  -3 35901.3 255.124   1
  -4  -1   3 35938.3 439.377   0
  -4   1   3 35353.2 431.206   0
  -4   1   3 36458.9 322.337   3
   4   1  -2 9575.51 130.760   1
   4  -1  -2 9101.88 137.511   1
  -4  -1   2 9599.11 231.217   0
  -4   1   2 8958.03 221.729   0
   4   1  -1 20683.7 204.190   1
   4  -1  -1 20958.1 217.564   1
  -4  -1   1 20299.7 329.620   0
  -4   1   1 21773.4 339.993   0
   4   1   0 254.349 37.6666   1
   4  -1   0 250.355 41.0413   1
  -4  -1   0 212.391 60.5109   0
  -4   1   0 231.224 59.4609   0
   4   1   1 4437.84 114.211   1
   4  -1   1 4486.45 118.646   1
  -4  -1  -1 4568.47 162.757   0
  -4   1  -1 4577.91 167.276   0
   4  -1   2 69.6369 39.4457   1
   4   1   2 32.8501 39.3216   1
  -4  -1  -2-1.25021 52.6675   0
  -4   1  -2 69.1375 50.2944   0
   4   1   2 38.9774 16.2592   2
   4   1   3 7830.89 165.929   1
   4  -1   3 7769.29 166.300   1
  -4  -1  -3 8129.62 216.701   0
  -4   1  -3 8144.06 217.036   0
   4   1   4 13.0747 44.4853   1
   4  -1   4 14.8972 45.7686   1
  -4  -1  -4 49.0879 50.1587   0
  -4   1  -4 154.416 54.5060   0
   4   1   5 7316.49 177.888   1
   4  -1   5 7546.94 181.398   1
  -4  -1  -5 7241.20 206.384   0
  -4   1  -5 7561.71 216.281   0
   4   1   6 795.232 79.5656   1
   4  -1   6 702.985 77.1691   1
   4   1   7 1457.85 100.992   1
   4  -1   7 1509.36 105.935   1
   4   1   8 1064.87 101.022   1
   4  -1   8 1092.31 97.6678   1
   4  -1   9 565.185 87.7240   1
   4   1   9 570.771 89.9811   1
   4   1  10 1306.83 118.906   1
   4  -1  10 1328.21 116.765   1
   4   1  11 1216.93 122.688   1
   4  -1  11 1205.85 122.825   1
   4   1  12 2426.49 158.502   1
   4  -1  12 2060.71 150.165   1
   4   1  13 1266.44 138.125   1
   4  -1  13 1118.13 129.617   1
   4   1  14 164.896 104.825   1
   4  -1  14 202.038 98.5494   1
  -4   2  13 5143.52 207.381   2
  -4   2  12 3206.78 161.259   2
  -4  -2  11 185.354 63.4397   0
  -4   2  11 198.281 70.0373   2
  -4   2  10 5505.87 183.709   2
  -4  -2  10 5363.16 183.435   0
  -4  -2   9 7256.27 212.465   0
  -4   2   9 7728.87 203.995   0
  -4   2   9 7523.88 197.657   2
  -4  -2   8 4362.20 169.596   0
  -4   2   8 4360.03 162.375   0
  -4   2   8 4378.36 146.766   2
  -4  -2   7 9.93646 56.1099   0
  -4   2   7 1.98330 49.6509   0
  -4   2   7 26.7562 46.0483   2
  -4  -2   6 5776.10 187.025   0
  -4   2   6 5914.69 183.250   0
  -4   2   6 5779.83 148.728   2
  -4  -2   5 7506.78 210.537   0
  -4   2   5 7405.39 203.257   0
  -4   2   5 7004.86 152.018   2
   4   2  -4 3925.44 62.2350   1
  -4  -2   4 4389.59 166.779   0
  -4   2   4 4245.17 111.547   2
   4  -2  -4 4189.82 94.8357   1
  -4   2   4 4050.43 154.741   0
  -4   2   3 6119.46 123.164   2
   4   2  -3 5905.90 90.0268   1
  -4  -2   3 6027.15 187.767   0
   4  -2  -3 6198.94 117.042   1
  -4   2   3 6012.91 187.069   0
  -4   2   3 5758.26 132.359   3
   4   2  -2 4911.32 93.0167   1
  -4  -2   2 4621.57 166.802   0
   4  -2  -2 4798.47 107.457   1
  -4   2   2 4620.36 166.156   0
  -4   2   2 4825.45 102.046   2
   4   2  -1 113.808 28.7961   1
   4  -2  -1 163.455 35.3746   1
  -4  -2   1 109.615 50.6925   0
  -4   2   1 157.122 58.8375   0
   4   2   0 20685.2 218.946   1
  -4   2   0 21441.1 342.279   0
   4  -2   0 20234.2 232.425   1
  -4  -2   0 21389.6 342.131   0
   4   2   1 24572.9 253.176   1
  -4   2  -1 23946.8 365.573   0
   4  -2   1 23871.8 264.550   1
  -4  -2  -1 24571.3 365.883   0
   4   2   2 388.671 50.7445   1
   4  -2   2 497.040 54.6780   1
  -4  -2  -2 368.431 64.0481   0
   4   2   2 317.894 28.1355   2
  -4   2  -2 341.411 68.4640   0
   4   2   3 568.922 59.6075   1
   4  -2   3 536.288 61.1850   1
  -4  -2  -3 552.399 71.6339   0
  -4   2  -3 518.262 72.5945   0
   4   2   4 42.2408 45.8375   1
  -4  -2  -4 20.5968 52.3400   0
   4  -2   4 16.3162 47.0499   1
  -4   2  -4-14.9630 52.7170   0
   4   2   5 1252.86 87.7675   1
   4  -2   5 1027.05 83.1729   1
  -4   2  -5 1049.12 97.9641   0
  -4  -2  -5 1331.96 100.585   0
   4   2   6 1634.12 101.382   1
   4  -2   6 1804.96 107.540   1
   4   2   7 95.2911 61.1936   1
   4  -2   7 100.122 53.8551   1
   4   2   8 3634.76 156.661   1
   4  -2   8 3708.91 159.707   1
   4   2   9 180.916 68.0705   1
   4  -2   9 211.532 76.6013   1
   4   2  10 864.522 106.843   1
   4  -2  10 773.041 100.294   1
   4   2  11 77.4948 76.3030   1
   4  -2  11 14.2647 73.6812   1
   4   2  12 511.780 102.889   1
   4  -2  12 427.751 103.276   1
   4   2  13 22.3926 81.9020   1
   4  -2  13-36.0192 87.6104   1
   4   2  14 86.1937 97.6571   1
   4  -2  14-54.1779 102.999   1
  -4   3  14 3694.71 186.363   2
  -4   3  13 110.625 72.4655   2
  -4   3  12 3037.90 159.442   2
  -4  -3  11 154.143 69.0941   0
  -4   3  11 224.913 71.4296   2
  -4   3  10 2476.71 117.212   0
  -4   3  10 2727.84 136.292   2
  -4  -3  10 2556.29 136.399   0
  -4  -3   9 253.633 69.2040   0
  -4   3   9 202.557 60.3039   0
  -4   3   9 266.599 70.5090   2
  -4  -3   8 1648.09 115.132   0
  -4   3   8 1427.65 102.497   0
  -4   3   8 1668.30 98.7509   2
   4   3  -8 1483.84 116.546   0
  -4  -3   7 2962.42 145.803   0
  -4   3   7 2849.12 117.061   2
  -4   3   7 2626.25 130.011   0
  -4  -3   6 12047.8 270.702   0
  -4   3   6 11443.5 204.439   2
  -4   3   6 11940.7 258.700   0
  -4  -3   5 248.769 62.4376   0
  -4   3   5 326.368 51.9642   2
  -4   3   5 266.490 65.2488   0
  -4  -3   4 6336.31 197.345   0
  -4   3   4 6363.72 194.012   0
  -4   3   4 6276.12 136.214   2
   4   3  -3 9109.57 105.005   1
  -4  -3   3 9379.69 234.193   0
   4  -3  -3 9465.31 151.307   1
  -4   3   3 9091.56 229.089   0
  -4   3   3 9130.51 161.814   3
  -4   3   3 9434.53 152.256   2
   4   3  -2 34253.9 230.358   1
  -4  -3   2 32964.7 431.125   0
  -4  -3   2 32515.0 311.878   3
   4  -3  -2 32809.6 283.543   1
  -4   3   2 32516.5 425.383   0
  -4   3   2 33599.3 259.159   2
   4   3  -1 1614.77 62.9350   1
  -4  -3   1 1499.23 104.750   0
   4  -3  -1 1653.55 73.3843   1
  -4   3   1 1594.32 57.8063   2
  -4   3   1 1521.99 105.134   0
   4   3   0 12395.1 169.598   1
  -4  -3   0 11999.2 262.488   0
   4  -3   0 11430.3 181.962   1
  -4   3   0 11552.9 120.963   2
  -4   3   0 11489.6 258.591   0
   4   3   1 974.148 60.8034   1
   4  -3   1 880.375 62.8127   1
  -4  -3  -1 839.998 86.1813   0
  -4   3  -1 865.462 90.0852   0
  -4   3  -2 517.645 77.1091   0
   4   3   2 438.776 52.4744   1
   4  -3   2 594.509 60.3061   1
  -4  -3  -2 497.360 73.9583   0
   4   3   2 432.936 37.0219   2
   4   3   3 2270.88 95.2597   1
   4  -3   3 2148.85 98.8169   1
  -4  -3  -3 2127.02 122.276   0
  -4   3  -3 2084.58 125.434   0
   4   3   3 2242.83 61.4160   2
   4   3   4 53259.9 444.246   1
   4  -3   4 53606.1 457.147   1
  -4  -3  -4 54716.9 546.282   0
  -4   3  -4 52311.6 566.898   0
   4   3   5 8368.10 191.716   1
   4  -3   5 8291.76 193.891   1
  -4   3  -5 8182.67 233.683   0
   4   3   6 11987.6 238.027   1
   4  -3   6 12850.2 249.180   1
   4   3   7 1262.14 97.5193   1
   4  -3   7 1177.47 98.5149   1
   4   3   8-80.1540 49.6679   0
   4   3   8 5.44344 63.6491   1
   4  -3   8-50.1405 62.8924   1
   4   3   9 186.816 76.6574   1
   4  -3   9 182.679 71.7815   1
   4   3  10 4804.78 192.807   1
   4  -3  10 4856.72 194.692   1
   4   3  11 370.205 95.9901   1
   4  -3  11 270.601 86.8432   1
   4   3  12 4476.92 206.718   1
   4  -3  12 4141.26 200.184   1
   4   3  13 52.3917 94.2399   1
   4  -3  13 5.56316 87.8104   1
   4   3  14 217.787 107.466   1
   4  -3  14 267.785 105.729   1
  -4   4  15 2531.07 163.044   2
  -4   4  14 3107.75 183.071   2
  -4   4  13 946.711 113.448   2
  -4  -4  12-197.929 79.8408   0
  -4   4  12 0.62738 71.3288   2
  -4   4  11 3905.02 169.413   2
  -4  -4  11 3613.10 166.808   0
  -4   4  10 2277.76 117.289   0
  -4   4  10 2687.32 137.119   2
  -4  -4  10 2437.53 141.877   0
  -4   4   9 3554.40 145.380   0
  -4   4   9 3713.26 146.297   2
  -4  -4   9 3277.35 156.946   0
   4   4  -8 206.013 66.9826   0
  -4  -4   8 195.270 65.6843   0
  -4   4   8 190.848 57.1715   0
  -4   4   8 239.826 61.1597   2
   4   4  -7 260.101 70.6780   0
  -4  -4   7 265.508 71.3201   0
  -4   4   7 407.853 66.4809   0
  -4   4   7 383.077 61.3058   2
  -4  -4   6 1319.64 107.242   0
  -4   4   6 1324.03 103.371   0
   4   4  -6 1205.22 105.115   0
  -4   4   6 1217.07 80.8158   2
  -4  -4   5 2840.39 146.319   0
  -4   4   5 3116.97 142.673   0
  -4   4   5 2949.78 106.852   2
  -4  -4   4 594.265 77.3078   0
  -4   4   4 556.334 76.5516   0
  -4   4   4 555.908 56.0501   2
   4   4  -3 44240.9 221.124   1
  -4  -4   3 46698.2 527.159   0
  -4   4   3 47427.4 514.232   0
  -4   4   3 47014.4 338.562   2
  -4   4   2 512.057 78.9311   0
   4   4  -2 543.829 37.7226   1
   4  -4  -2 493.064 49.1078   1
  -4  -4   2 517.060 74.3643   0
  -4   4   2 538.894 43.9530   2
   4   4  -1 8338.47 128.825   1
  -4  -4   1 8315.58 225.678   0
   4  -4  -1 8517.77 159.244   1
  -4   4   1 8179.01 122.585   2
  -4   4   1 8280.93 227.193   0
   4   4   0 20883.2 219.420   1
  -4  -4   0 21428.3 351.000   0
  -4   4   0 20336.2 163.184   2
   4  -4   0 19564.0 243.538   1
  -4   4   0 20659.5 352.996   0
   4   4   1 8597.48 155.097   1
  -4  -4  -1 8736.69 229.670   0
   4  -4   1 8412.18 168.368   1
  -4   4  -1 8108.56 228.198   0
   4   4   2 596.296 57.0830   1
  -4   4  -2 563.736 82.9088   0
  -4  -4  -2 574.388 76.8775   0
   4  -4   2 574.283 58.1042   1
   4   4   2 440.490 41.0227   2
   4   4   3 22.8030 41.1720   1
  -4  -4  -3 63.4831 52.4466   0
   4  -4   3 52.7123 44.6933   1
   4   4   3 22.0799 28.1077   2
   4   4   4 430.022 59.5082   1
  -4   4  -4 362.096 79.4904   0
  -4  -4  -4 473.477 71.7283   0
   4  -4   4 368.398 61.4164   1
   4   4   5 760.963 73.6604   1
   4  -4   5 907.397 81.7971   1
  -4   4  -5 763.616 91.8728   0
   4   4   6 794.601 82.6690   1
   4  -4   6 959.136 88.5269   1
   4   4   7 6464.17 189.755   1
   4  -4   7 6278.05 192.280   1
   4   4   7 6151.07 177.445   0
   4   4   8 926.639 96.2832   1
   4  -4   8 969.512 101.266   1
   4   4   8 921.455 72.7289   0
   4   4   9 2676.32 145.792   1
   4  -4   9 2830.14 148.978   1
   4   4  10 1814.03 130.984   1
   4  -4  10 1615.78 129.385   1
   4   4  11-0.33642 82.7275   1
   4  -4  11 31.5971 70.8856   1
   4   4  12 268.840 97.7590   1
   4  -4  12 205.810 88.2973   1
   4   4  13 618.440 115.827   1
   4  -4  13 683.481 101.620   1
   4   4  14 977.140 135.767   1
   4  -4  14 750.959 118.960   1
  -4   5  16 442.441 118.718   2
  -4   5  15 180.685 98.5574   2
  -4   5  14 3572.58 187.789   2
  -4   5  13 3504.13 188.075   2
  -4  -5  12 16.4416 85.6234   0
  -4   5  12 172.159 84.7363   2
  -4   5  11 2070.78 132.038   2
  -4  -5  11 1838.45 128.940   0
  -4  -5  10 316.082 73.6597   0
  -4   5  10 294.302 60.7698   0
  -4   5  10 324.806 71.4557   2
  -4   5   9 4072.30 157.357   0
  -4   5   9 4367.64 160.981   2
  -4  -5   9 4072.98 180.317   0
   4   5  -8 12544.4 311.222   0
  -4   5   8 12406.2 264.699   0
  -4   5   8 12498.4 245.511   2
  -4  -5   8 12885.2 305.157   0
  -4  -5   7 7580.56 233.078   0
   4   5  -7 7991.97 246.658   0
  -4   5   7 7751.88 216.709   0
  -4   5   7 7735.59 186.150   2
  -4  -5   6 20330.4 369.011   0
  -4   5   6 19188.6 272.205   2
  -4   5   6 19029.2 333.969   0
   4   5  -6 19330.0 366.639   0
  -4  -5   5 44105.0 533.260   0
  -4   5   5 44974.3 510.048   0
  -4   5   5 45509.9 388.346   2
   4   5  -5 43732.2 540.007   0
  -4  -5   4 6526.12 211.106   0
  -4   5   4 7302.76 151.664   2
  -4   5   4 6665.04 206.084   0
  -4  -5   3 24495.1 394.989   0
  -4   5   3 24450.4 252.286   2
  -4   5   3 23784.9 379.235   0
   4   5  -2 17587.9 167.537   1
  -4  -5   2 16749.4 326.888   0
   4  -5  -2 16622.8 226.337   1
  -4   5   2 18008.2 333.976   0
  -4   5   2 17683.7 199.259   2
   4   5  -1 33319.6 258.856   1
  -4  -5   1 33673.8 455.986   0
   4  -5  -1 34026.1 323.490   1
  -4  -5   1 31468.0 313.633   3
  -4   5   1 33661.0 252.034   2
  -4   5   1 34898.5 462.419   0
   4   5   0 5991.42 123.613   1
  -4  -5   0 6019.01 201.405   0
  -4   5   0 5853.07 95.8564   2
   4  -5   0 6085.36 144.699   1
  -4   5   0 5875.24 199.552   0
   4   5   1 5199.20 125.504   1
  -4  -5  -1 4899.01 181.028   0
   4  -5   1 5115.03 137.665   1
  -4   5  -1 4749.76 183.848   0
   4   5   1 4811.98 112.758   2
   4   5   2 1344.50 75.4487   1
  -4  -5  -2 1222.79 99.0093   0
   4  -5   2 1311.21 83.4692   1
  -4   5  -2 1284.16 112.862   0
   4   5   2 1377.59 65.4427   2
   4   5   3 10946.6 200.936   1
  -4  -5  -3 10893.2 259.721   0
   4  -5   3 11084.5 211.728   1
  -4   5  -3 10855.8 276.700   0
   4   5   3 10698.0 155.701   2
   4   5   4 4048.11 133.146   1
  -4  -5  -4 3848.05 160.568   0
   4  -5   4 3889.83 137.240   1
  -4   5  -4 3681.35 172.995   0
   4   5   4 3820.26 97.5419   2
   4   5   5 2749.26 120.161   1
   4  -5   5 3011.72 127.054   1
  -4   5  -5 2710.01 152.879   0
   4   5   5 2822.01 134.995   0
   4   5   6 0.11089 53.8915   1
   4  -5   6 84.0134 54.7659   1
   4   5   6 5.08778 47.5579   0
   4   5   7 10103.9 237.947   1
   4   5   7 9986.91 221.383   0
   4  -5   7 9996.93 239.173   1
   4   5   8 1315.38 111.328   1
   4  -5   8 1299.92 112.181   1
   4   5   8 1221.74 85.8152   0
   4   5   9 1525.93 122.303   1
   4  -5   9 1698.65 125.570   1
   4   5  10 414.656 94.2983   1
   4  -5  10 337.073 89.3002   1
   4   5  11 1723.24 144.730   1
   4  -5  11 1671.05 139.112   1
   4   5  12 2067.86 151.813   1
   4  -5  12 1641.41 142.173   1
   4   5  13 483.834 110.766   1
   4  -5  13 523.162 103.911   1
   4   5  14 153.097 115.026   1
   4  -5  14 506.988 109.430   1
  -4   6  16 2010.36 176.864   2
  -4   6  15 3640.86 204.486   2
  -4   6  14 301.450 95.2898   2
  -4   6  13 153.080 88.6999   2
  -4  -6  12 300.440 92.6372   0
  -4   6  12 499.444 89.8397   2
  -4   6  11 1297.53 119.508   2
  -4  -6  11 1502.26 123.921   0
  -4   6  10 1941.23 113.108   0
  -4   6  10 2512.35 138.457   2
  -4  -6  10 2343.28 150.148   0
  -4  -6   9 13.2797 68.0739   0
  -4   6   9-37.7508 55.1576   0
  -4   6   9-37.5158 58.6562   2
   4   6  -8 173.093 76.7030   0
  -4  -6   8 245.825 79.6571   0
  -4   6   8 250.185 67.2209   0
  -4   6   8 294.716 65.5221   2
   4   6  -7 657.037 90.2182   0
  -4  -6   7 495.626 86.8740   0
  -4   6   7 541.779 68.6204   2
  -4   6   7 402.869 72.0461   0
  -4  -6   6 1154.27 110.471   0
   4   6  -6 995.796 111.910   0
  -4   6   6 1290.12 104.619   0
  -4   6   6 1268.76 83.5053   2
   4   6  -5 262.934 72.8553   0
  -4  -6   5 185.845 72.2019   0
  -4   6   5 289.417 53.7105   2
  -4   6   5 162.181 62.2981   0
  -4   6   4 184.034 66.1637   0
  -4  -6   4 131.043 62.2817   0
  -4   6   4 128.460 42.4724   2
   4   6  -4 134.317 63.4596   0
  -4  -6   3 25364.0 413.089   0
  -4   6   3 26756.9 263.038   3
  -4   6   3 24937.1 264.214   2
  -4   6   3 25291.0 400.056   0
   4   6  -3 25374.6 413.218   0
   4   6  -2 17155.3 172.440   1
  -4  -6   2 17898.4 346.337   0
  -4   6   2 17945.3 209.254   2
  -4   6   2 19121.1 350.156   0
   4   6  -2 18290.1 349.834   0
  -4   6   1 86.2788 60.0300   0
   4   6  -1 127.061 34.6578   1
  -4  -6   1 111.661 62.4313   0
   4   6  -1 114.102 62.8693   0
   4  -6  -1 73.5802 42.7439   1
  -4   6   1 90.2222 31.4672   2
   4   6   0 26935.7 260.472   1
  -4  -6   0 27428.6 419.962   0
   4  -6   0 27074.5 307.515   1
  -4   6   0 26865.9 212.313   2
  -4   6   0 27243.2 424.521   0
   4   6   0 26550.2 409.495   0
   4   6   1 167.608 60.2359   0
  -4   6  -1 136.825 71.2557   0
   4   6   1 131.239 40.8866   1
  -4  -6  -1 106.891 63.1628   0
   4  -6   1 189.366 49.1251   1
   4   6   1 175.609 41.1365   2
   4   6   2 9170.20 176.796   1
  -4  -6  -2 9310.71 249.283   0
   4  -6   2 9283.73 193.469   1
  -4   6  -2 8844.93 255.401   0
   4   6   2 9189.57 158.904   2
   4   6   2 9444.61 246.101   0
  -4   6  -3 11.8428 61.6492   0
   4   6   3 29.9936 57.2875   0
   4   6   3 35.8898 46.1765   1
  -4  -6  -3 26.2764 56.4252   0
   4  -6   3-17.4523 47.4534   1
   4   6   3 5.60520 38.6022   2
   4   6   4 737.425 73.8392   1
  -4   6  -4 669.689 94.3729   0
   4  -6   4 673.521 73.9819   1
   4   6   4 564.002 75.8858   0
   4   6   4 713.739 54.4766   2
  -4   6  -5 19.3955 67.1445   0
   4   6   5 53.8709 53.7431   1
   4  -6   5 55.6484 55.1610   1
   4   6   5 9.03847 55.1748   0
   4   6   6 1016.55 93.9259   1
   4   6   6 1178.35 94.2015   0
   4  -6   6 942.842 92.8983   1
   4   6   7 100.627 54.1165   0
   4   6   7 65.4938 62.9235   1
   4  -6   7 71.4296 62.0400   1
   4   6   8 7880.95 228.402   1
   4  -6   8 8539.46 233.477   1
   4   6   9 7327.70 230.496   1
   4  -6   9 7073.15 227.572   1
   4   6  10-23.8271 81.9172   1
   4  -6  10 81.7451 76.2551   1
   4   6  11 141.313 93.5180   1
   4  -6  11-32.2450 85.0538   1
   4   6  12 31.1097 103.086   1
   4  -6  12 15.1408 83.5598   1
   4   6  13 20.0239 96.7524   1
   4  -6  13 80.6883 96.7084   1
   4   6  14 1671.95 156.036   1
   4  -6  14 1214.25 141.269   1
  -4   7  15 5163.42 240.900   2
  -4   7  14 643.002 110.031   2
  -4   7  13 7638.12 257.192   2
  -4  -7  12 570.727 102.029   0
  -4   7  12 489.414 96.4901   2
  -4   7  11 778.652 103.413   2
  -4  -7  11 784.552 105.036   0
  -4  -7  10 562.940 97.1575   0
  -4   7  10 625.408 78.4046   0
  -4   7  10 620.190 88.4183   2
  -4   7   9 2355.64 127.828   0
  -4   7   9 2268.69 131.055   2
  -4  -7   9 2305.20 157.080   0
  -4  -7   8 133.462 75.7266   0
  -4   7   8 291.057 66.4895   2
  -4   7   8 206.460 73.1459   0
   4   7  -8 319.271 87.3712   0
  -4   7   7 6224.21 207.595   0
  -4   7   7 6549.56 180.122   2
   4   7  -7 6063.42 235.386   0
  -4  -7   7 6335.44 231.705   0
  -4   7   6 1777.46 97.0087   2
  -4   7   6 1806.23 122.575   0
   4   7  -6 1755.17 133.952   0
  -4  -7   6 1969.88 136.110   0
  -4   7   5 229.615 69.9284   0
  -4  -7   5 230.283 74.3921   0
   4   7  -5 116.712 74.8395   0
  -4   7   5 243.275 51.7090   2
  -4  -7   4 16399.6 347.917   0
   4   7  -4 17147.7 362.568   0
  -4   7   4 16441.7 236.724   2
  -4   7   4 16464.4 332.341   0
  -4  -7   3 9687.08 266.765   0
  -4   7   3 9783.30 174.126   2
  -4   7   3 10443.6 166.341   3
   4   7  -3 10247.8 277.053   0
  -4   7   3 10099.1 265.144   0
  -4   7   2-12.8251 59.5168   0
   4   7  -2-34.6592 58.6990   0
   4   7  -2-0.12868 27.0056   1
  -4  -7   2 53.7639 63.9823   0
  -4   7   2 12.2874 35.6819   2
   4   7  -1 21080.1 217.974   1
  -4  -7   1 20846.2 379.549   0
   4   7  -1 21094.7 380.094   0
  -4   7   1 20468.8 218.816   2
  -4   7   1 20491.0 378.382   0
  -4   7   0 300.797 76.6928   0
   4   7   0 344.509 46.0448   1
  -4  -7   0 372.780 79.7709   0
   4   7   0 396.440 71.3727   0
  -4  -7   0 267.675 52.6610   3
  -4   7   0 353.564 38.4726   2
   4  -7   0 299.960 55.9698   1
   4   7   1 1000.53 67.8720   1
  -4  -7  -1 1135.72 102.124   0
   4  -7   1 1006.41 80.1835   1
   4   7   1 1070.12 101.289   0
  -4   7  -1 1026.71 109.187   0
   4   7   1 980.807 69.2236   2
   4   7   2 1335.47 81.1988   1
  -4  -7  -2 1654.48 119.992   0
   4  -7   2 1311.27 87.0539   1
   4   7   2 1419.39 111.295   0
   4   7   2 1312.95 73.9750   2
  -4   7  -2 1199.23 116.239   0
   4   7   3 26894.4 321.962   1
  -4  -7  -3 26302.5 417.796   0
   4  -7   3 26932.8 342.563   1
   4   7   3 25848.6 404.591   0
   4   7   3 26121.6 281.157   2
  -4   7  -3 27091.7 459.771   0
   4   7   4 3784.06 137.229   1
   4   7   4 3778.12 161.697   0
   4  -7   4 3899.47 142.141   1
   4   7   4 3755.49 113.133   2
  -4   7  -4 3832.40 191.204   0
   4   7   5 3960.84 146.293   1
   4  -7   5 3885.86 149.482   1
   4   7   5 3761.89 115.482   2
  -4   7  -5 3785.83 191.602   0
   4   7   5 3877.16 159.323   0
   4   7   6 65.3714 61.1601   1
   4  -7   6 84.1798 59.3896   1
   4   7   6 60.4777 55.6541   0
   4   7   7 6149.64 199.373   1
   4  -7   7 5972.72 197.091   1
   4   7   7 5809.60 181.560   0
   4   7   8 988.204 105.439   1
   4  -7   8 887.011 102.393   1
   4   7   9 230.217 80.9937   1
   4  -7   9 196.338 80.3882   1
   4   7  10 972.704 115.962   1
   4  -7  10 1098.97 115.942   1
   4   7  11 6984.56 254.959   1
   4  -7  11 6734.49 248.780   1
   4   7  12 330.407 113.462   1
   4  -7  12 322.068 95.1812   1
   4   7  13 3144.95 198.177   1
   4  -7  13 2817.97 182.311   1
  -4   8  15-34.0350 102.995   2
  -4   8  14 126.763 91.4977   2
  -4   8  13 1808.78 147.882   2
  -4   8  12 2153.80 147.220   2
  -4  -8  12 2039.14 162.263   0
  -4  -8  11 31.0842 98.3224   0
  -4   8  11 11.3879 75.4976   2
  -4   8  10 1517.07 126.484   2
  -4  -8  10 1418.60 132.282   0
  -4   8   9 5294.09 189.253   0
  -4   8   9 5258.72 186.846   2
  -4  -8   9 5057.91 219.919   0
  -4  -8   8 115.267 76.0718   0
   4   8  -8 73.2918 83.9582   0
  -4   8   8 222.578 68.6836   2
  -4   8   8 123.962 63.2017   0
  -4   8   7 1761.07 126.984   0
  -4   8   7 1829.68 112.402   2
   4   8  -7 1590.73 136.313   0
  -4  -8   7 1492.13 131.529   0
   4   8  -6 521.471 95.0697   0
  -4   8   6 528.945 81.3830   0
  -4  -8   6 543.484 96.0216   0
  -4   8   6 534.790 70.1967   2
  -4  -8   5 839.927 104.489   0
  -4   8   5 1106.84 81.0174   2
  -4   8   5 1103.71 109.238   0
   4   8  -5 957.297 116.124   0
  -4   8   4 11950.8 210.542   2
  -4   8   4 12567.2 300.601   0
   4   8  -4 12103.3 313.527   0
  -4  -8   4 11835.9 308.413   0
  -4  -8   3 2953.83 162.344   0
   4   8  -3 3021.64 167.281   0
  -4   8   3 2944.97 107.610   2
  -4   8   3 3045.22 160.385   0
  -4  -8   2 995.049 108.880   0
   4   8  -2 1091.85 111.624   0
  -4   8   2 857.066 63.3803   2
  -4   8   2 904.382 103.884   0
   4   8  -2 872.753 51.4917   1
  -4   8   1 208.044 78.1516   0
  -4  -8   1 251.150 69.1945   0
   4   8  -1 280.385 42.0216   1
   4   8  -1 299.635 76.9846   0
  -4   8   1 264.537 41.8706   2
  -4  -8   0 3693.38 176.423   0
   4   8   0 3711.11 173.527   0
   4  -8   0 3701.41 132.353   1
  -4   8   0 3446.62 93.6786   2
  -4   8   0 3867.43 185.177   0
   4   8   0 3572.03 122.472   2
   4   8   0 3780.37 110.478   1
   4   8   1 18808.1 248.454   1
  -4  -8  -1 18831.2 367.976   0
   4   8   1 19677.7 372.492   0
   4  -8   1 18743.8 282.910   1
   4   8   1 18684.4 256.715   2
  -4   8  -1 18599.8 385.038   0
   4   8   2 346.181 75.6687   0
  -4   8  -2 350.639 83.4147   0
  -4  -8  -2 241.176 69.0082   0
   4   8   2 310.377 55.5187   1
   4  -8   2 310.414 59.4587   1
   4   8   2 305.068 54.0751   2
  -4   8  -3 199.801 85.4168   0
  -4  -8  -3 460.952 80.8501   0
   4   8   3 373.131 78.1748   0
   4   8   3 398.448 61.6293   1
   4  -8   3 314.902 65.8408   1
   4   8   3 351.870 55.4579   2
   4   8   4 3149.40 129.686   1
   4  -8   4 3123.91 133.284   1
   4   8   4 3008.33 111.515   2
  -4   8  -4 3198.27 179.058   0
   4   8   4 3261.44 156.946   0
  -4   8  -5-5.29981 80.6725   0
   4   8   5 62.1195 56.8091   1
   4  -8   5 92.1110 57.4464   1
   4   8   5 42.5471 58.8715   0
   4   8   5 32.5216 48.0652   2
   4   8   6 79.0007 63.3314   1
   4  -8   6 89.5237 67.0447   1
   4   8   6 89.0225 60.4371   0
   4   8   7 838.511 95.4315   1
   4  -8   7 797.787 95.9443   1
   4   8   7 849.258 84.9929   0
   4   8   8 4460.47 184.069   1
   4  -8   8 4186.47 174.656   1
   4   8   9 2239.55 149.121   1
   4  -8   9 1865.42 132.873   1
   4  -8  10 732.142 106.000   1
   4   8  10 701.015 120.776   1
   4   8  11 174.959 85.7176   1
   4  -8  11 30.8403 83.6915   1
   4   8  12 152.140 106.852   1
   4  -8  12 56.1107 90.9871   1
   4   8  13-61.8496 109.708   1
   4  -8  13 237.447 112.657   1
  -4   9  15-1.54920 122.102   2
  -4   9  14 1494.63 151.027   2
  -4   9  13 1083.83 134.400   2
  -4  -9  12 498.747 118.874   0
  -4   9  12 665.340 103.636   2
  -4  -9  11 33.9610 105.851   0
  -4   9  11 67.9572 76.0911   2
  -4   9  10 9959.65 267.328   2
  -4  -9  10 9465.50 307.657   0
  -4   9   9 6373.22 212.526   0
  -4   9   9 6548.75 210.929   2
  -4  -9   9 6117.16 247.153   0
   4   9  -8 4161.66 221.251   0
  -4   9   8 4249.75 184.544   0
  -4  -9   8 4569.26 215.966   0
  -4  -9   7 97.7630 76.2179   0
  -4   9   7 99.6785 56.6597   2
   4   9  -7 103.796 82.9541   0
  -4   9   7 74.2656 67.7740   0
  -4   9   6 5749.83 172.620   2
  -4   9   6 5686.15 215.417   0
   4   9  -6 5712.83 240.919   0
  -4  -9   6 5758.29 238.335   0
  -4   9   5 312.947 78.5343   0
  -4  -9   5 192.701 74.7493   0
   4   9  -5 229.485 88.7469   0
  -4   9   5 176.677 56.9821   2
  -4   9   4 19.9561 69.3079   0
  -4  -9   4 9.17295 80.0402   0
  -4   9   4 6.50969 48.7730   2
   4   9  -4 24.8557 67.0766   0
   4   9  -3 412.053 86.9004   0
  -4   9   3 499.653 92.2358   0
  -4  -9   3 512.565 90.9350   0
  -4   9   3 463.759 57.6623   2
  -4   9   2 16860.4 233.252   2
  -4   9   2 17321.0 371.606   0
   4   9  -2 17331.6 375.220   0
  -4  -9   2 17829.6 385.314   0
  -4  -9   1 10077.7 290.855   0
  -4   9   1 9756.42 171.541   2
  -4   9   1 9710.46 287.019   0
   4   9  -1 10454.8 293.450   0
   4   9  -1 10099.6 164.783   1
  -4  -9   0 7196.35 245.142   0
   4  -9   0 7320.21 185.110   1
  -4   9   0 7000.09 137.185   2
   4   9   0 6809.47 175.331   2
  -4   9   0 7408.06 257.123   0
   4   9   0 7295.03 246.265   0
   4   9   0 7259.79 152.697   1
   4   9   1 74.3197 61.8223   0
  -4  -9  -1 29.2543 63.6045   0
  -4   9  -1 36.3951 74.5761   0
   4   9   1 23.1413 42.7746   1
   4  -9   1-16.1107 51.2624   1
   4   9   1-23.7957 51.2164   2
   4   9   2 393.721 76.5090   0
  -4  -9  -2 286.165 74.9885   0
  -4   9  -2 477.117 91.8784   0
   4   9   2 353.192 57.9092   1
   4  -9   2 317.004 66.0567   1
   4   9   2 417.821 62.1158   2
  -4  -9  -3 176.199 71.1374   0
  -4   9  -3 120.216 80.4279   0
   4   9   3 187.375 58.7548   1
   4  -9   3 215.396 64.0148   1
   4   9   3 179.197 66.7142   0
   4   9   3 205.043 55.8476   2
   4   9   4 8363.36 208.244   1
   4  -9   4 8345.09 213.168   1
   4   9   4 8165.07 244.900   0
   4   9   4 7645.89 176.854   2
  -4   9  -4 7839.07 280.208   0
   4   9   5 3568.78 147.713   1
   4  -9   5 3205.59 145.225   1
   4   9   5 3402.81 162.986   0
   4   9   5 3065.17 118.882   2
  -4   9  -5 3147.44 193.344   0
   4   9   6 1501.98 112.197   1
   4  -9   6 1535.96 114.193   1
   4   9   6 1552.01 116.413   0
   4   9   6 1453.69 92.8460   2
   4   9   7 514.920 79.7802   0
   4   9   7 580.565 99.1178   1
   4  -9   7 621.330 93.7800   1
   4   9   8-23.4630 72.3255   1
   4  -9   8-49.7073 69.2899   1
   4   9   9 706.580 103.678   1
   4  -9   9 621.570 97.5064   1
   4   9  10 1420.43 133.924   1
   4  -9  10 1427.71 131.875   1
   4   9  11 685.119 120.565   1
   4  -9  11 580.642 99.8089   1
   4  -9  12 2697.76 180.371   1
   4   9  12 2867.94 199.016   1
   4   9  13 949.653 144.488   1
   4  -9  13 890.792 129.324   1
  -4  10  14 320.619 101.937   2
  -4  10  13-15.8794 92.5624   2
  -4 -10  12 226.222 135.283   0
  -4  10  12 12.3876 87.7940   2
  -4 -10  11 693.361 117.085   0
  -4  10  11 875.204 113.958   2
  -4  10  10 4346.53 188.875   2
  -4 -10  10 4101.78 221.911   0
  -4  10   9 1485.87 124.039   0
  -4  10   9 1841.00 131.753   2
  -4 -10   9 1751.44 160.928   0
  -4 -10   8 49.8862 92.8444   0
   4  10  -8 76.7166 101.173   0
  -4  10   8 39.8814 67.5904   2
  -4  10   8 69.4654 75.7702   0
  -4  10   7 355.181 81.0615   0
  -4 -10   7 546.823 102.669   0
   4  10  -7 576.993 103.224   0
  -4  10   7 365.038 76.4505   2
   4  10  -6 11972.1 346.353   0
  -4  10   6 11455.8 244.497   2
  -4  10   6 11469.1 305.927   0
  -4 -10   6 11490.0 335.407   0
   4  10  -5 8584.78 298.609   0
  -4  10   5 8413.51 201.932   2
  -4  10   5 8557.08 270.400   0
  -4 -10   5 7945.12 282.126   0
  -4  10   4 721.926 107.181   0
  -4 -10   4 504.895 106.325   0
  -4  10   4 691.812 72.9615   2
   4  10  -4 685.096 103.348   0
  -4  10   3 1475.55 88.6968   2
   4  10  -3 1324.70 128.812   0
  -4  10   3 1518.78 132.612   0
  -4 -10   3 1246.67 130.414   0
  -4  10   2 1625.91 87.1486   2
   4  10  -2 1865.42 146.973   0
  -4  10   2 1566.08 137.935   0
  -4 -10   2 1679.83 138.183   0
  -4  10   1 1912.79 88.4246   2
   4  10  -1 2040.22 149.886   0
   4  10  -1 1931.79 111.637   2
  -4  10   1 1769.77 143.250   0
  -4 -10   1 2010.86 148.588   0
  -4 -10   0 110.874 82.6678   0
   4  10   0 108.339 44.6210   1
  -4  10   0 8.17242 80.0378   0
   4  10   0 161.325 79.9568   0
  -4  10   0 35.2762 37.8120   2
   4  10   0 41.9712 58.3313   2
   4 -10   1 8503.07 208.876   1
   4  10   1 8593.61 271.278   0
   4  10   1 8016.77 193.288   2
  -4  10  -1 8220.40 284.758   0
   4  10   1 8228.62 178.793   1
  -4 -10  -1 8091.33 272.561   0
   4 -10   2 1282.67 99.3760   1
   4  10   2 1105.36 114.830   0
   4  10   2 1072.78 87.0072   2
  -4  10  -2 1350.18 135.466   0
  -4 -10  -2 1206.35 125.694   0
   4  10   2 1257.72 85.8414   1
   4 -10   3 1403.80 101.372   1
   4  10   3 1362.04 119.331   0
   4  10   3 1273.09 92.2198   2
  -4  10  -3 1240.34 135.718   0
   4  10   3 1193.81 90.4986   1
   4 -10   4 2453.55 132.715   1
   4  10   4 2565.34 150.897   0
   4  10   4 2469.47 114.297   2
  -4  10  -4 2376.73 176.303   0
   4  10   4 2529.35 126.556   1
   4 -10   5 1471.27 106.426   1
   4  10   5 1434.51 118.517   0
   4  10   5 1472.10 96.4817   2
  -4  10  -5 1258.85 137.380   0
   4  10   5 1473.66 108.425   1
   4 -10   6 119.024 72.8648   1
   4  10   6 44.8423 70.2125   0
   4  10   6 169.700 74.1553   1
   4  10   6 152.417 59.6766   2
   4  10   7 3731.95 171.257   1
   4  10   7 3336.18 157.950   0
   4 -10   7 3448.98 162.933   1
   4 -10   8 773.809 106.478   1
   4  10   8 899.062 115.854   1
   4  10   9 353.719 96.8971   1
   4 -10   9 499.720 92.2529   1
   4  10  10 525.384 100.925   1
   4 -10  10 322.035 102.063   1
   4  10  11-24.4160 99.5964   1
   4 -10  11 19.9582 87.7553   1
   4  10  12-42.3674 101.491   1
   4 -10  12 11.5467 108.980   1
  -4  11  14 959.386 139.077   2
  -4  11  13 84.3630 95.3928   2
  -4  11  12 2183.73 163.063   2
  -4 -11  11 37.4668 130.907   0
  -4  11  11 196.653 89.1248   2
  -4 -11  10-234.494 115.969   0
  -4  11  10 142.423 83.4843   2
  -4 -11   9 375.108 107.013   0
  -4  11   9 237.493 78.9563   2
  -4  11   9 211.384 85.3875   0
   4  11  -8 4856.87 250.197   0
  -4  11   8 5140.19 212.657   0
  -4  11   8 5084.89 188.296   2
  -4 -11   8 5294.74 255.575   0
   4  11  -7 3585.36 223.367   0
  -4  11   7 3904.29 193.729   0
  -4  11   7 3924.00 168.224   2
  -4 -11   7 3889.91 221.225   0
   4  11  -6 13682.1 387.357   0
  -4  11   6 13318.9 269.861   2
  -4  11   6 13723.9 345.296   0
  -4 -11   6 13847.5 380.521   0
   4  11  -5 983.179 130.690   0
  -4  11   5 962.681 88.2671   2
  -4  11   5 1031.96 119.743   0
  -4 -11   5 1104.91 126.063   0
  -4 -11   4 249.426 90.3929   0
  -4  11   4 217.555 82.0670   0
   4  11  -4 249.799 92.3831   0
  -4  11   4 275.264 63.0010   2
   4  11  -3 7401.29 276.710   0
  -4  11   3 7074.75 179.116   2
  -4  11   3 7187.46 264.864   0
  -4 -11   3 7593.05 278.558   0
   4  11  -2 27009.5 501.797   0
  -4  11   2 25273.5 312.190   2
  -4  11   2 26624.9 495.850   0
  -4 -11   2 27107.2 508.498   0
   4  11  -1 1661.77 143.656   0
  -4  11   1 1622.55 91.2106   2
   4  11  -1 1619.55 109.927   2
  -4  11   1 1412.87 143.472   0
  -4 -11   1 1441.61 135.446   0
   4  11   0 5312.39 228.788   0
   4  11   0 5030.82 167.744   2
  -4  11   0 5617.35 249.730   0
  -4 -11   0 5177.00 230.620   0
  -4 -11  -1-84.8417 82.8740   0
   4  11   1-22.4975 49.6983   1
  -4  11  -1-68.8450 90.1842   0
   4  11   1 36.7130 70.4523   0
   4 -11   1 6.91787 59.3290   1
   4  11   1 5.78606 59.4552   2
   4 -11   2 5168.42 177.461   1
   4  11   2 5017.44 215.432   0
   4  11   2 5177.96 169.575   2
  -4  11  -2 5146.34 243.851   0
  -4 -11  -2 5223.64 227.645   0
   4  11   2 4957.66 155.905   1
   4 -11   3 925.067 93.7054   1
   4  11   3 964.117 110.557   0
   4  11   3 1052.42 92.1532   2
  -4  11  -3 933.793 127.034   0
   4  11   3 1083.03 91.4720   1
   4 -11   4 6448.70 203.806   1
   4  11   4 6736.13 240.423   0
   4  11   4 6426.67 184.506   2
  -4  11  -4 6450.30 282.763   0
   4  11   4 6374.56 193.051   1
   4  11   5 1950.24 144.770   0
   4 -11   5 2073.92 129.257   1
   4  11   5 2002.46 115.265   2
  -4  11  -5 2107.63 176.758   0
   4  11   5 2012.65 125.408   1
   4 -11   6 541.433 86.4880   1
   4  11   6 632.761 91.3707   1
   4  11   6 514.729 75.6211   2
   4  11   6 490.302 84.2382   0
   4  11   7 173.532 78.8069   1
   4  11   7 187.684 86.7753   0
   4 -11   7 230.151 83.1712   1
   4  11   8-66.3997 79.9149   1
   4 -11   8-58.1474 73.8359   1
   4 -11   9 1417.50 129.026   1
   4  11   9 1214.76 130.586   1
   4  11  10 150.853 93.5231   1
   4 -11  10-16.4637 86.1555   1
   4  11  11 120.969 100.526   1
   4 -11  11 77.7176 97.4497   1
   4  11  12 904.721 141.226   1
   4 -11  12 420.123 116.290   1
  -4  12  13 1453.52 152.677   2
  -4  12  12 203.104 90.5695   2
  -4  12  11 444.398 92.3731   2
  -4 -12  10 1030.19 146.865   0
  -4  12  10 1277.55 127.954   2
  -4 -12   9 7.18438 119.893   0
  -4  12   9-104.108 74.0368   2
  -4  12   9 1.58093 99.3123   0
   4  12  -8 3619.77 231.800   0
  -4  12   8 3782.11 194.916   0
  -4  12   8 4235.48 182.453   2
  -4 -12   8 4010.59 232.494   0
   4  12  -7 149.607 112.169   0
  -4  12   7 359.999 104.475   0
  -4 -12   7 417.381 115.314   0
  -4  12   7 494.861 83.7944   2
   4  12  -6 1208.04 145.585   0
  -4  12   6 1212.60 105.188   2
  -4  12   6 1110.86 127.667   0
  -4 -12   6 1216.44 143.447   0
  -4 -12   5 214.037 96.4335   0
   4  12  -5 58.2173 102.183   0
  -4  12   5 162.199 84.4131   0
  -4  12   5 174.245 63.5132   2
   4  12  -4 9256.23 326.026   0
  -4  12   4 9373.58 221.282   2
  -4  12   4 9460.33 313.273   0
  -4 -12   4 9337.28 326.793   0
  -4 -12   3-46.8145 90.8145   0
   4  12  -3-50.9958 90.6543   0
  -4  12   3 2.87756 79.9162   0
  -4  12   3 28.0910 50.7431   2
  -4 -12   2 920.371 129.886   0
   4  12  -2 1051.50 126.270   0
  -4  12   2 1029.29 84.1346   2
   4  12  -2 1079.87 103.472   2
  -4  12   2 1048.29 129.195   0
  -4 -12   1 559.176 107.683   0
   4  12  -1 599.579 104.219   0
  -4  12   1 739.565 125.802   0
  -4  12   1 590.334 67.4681   2
   4  12  -1 574.641 86.0300   2
   4  12   0 7560.34 279.984   0
   4  12   0 7289.76 208.679   2
  -4  12   0 7041.12 286.287   0
  -4 -12   0 7684.67 287.556   0
  -4 -12  -1-13.4491 90.7740   0
   4  12   1-57.9118 76.8417   0
  -4  12  -1-21.1728 95.2936   0
   4 -12   1 20.9174 61.5855   1
   4  12   1 57.2098 64.6154   2
   4 -12   2 7473.98 216.959   1
   4  12   2 7707.11 272.855   0
   4  12   2 7503.58 209.495   2
  -4  12  -2 7851.42 304.495   0
  -4 -12  -2 7173.38 272.729   0
   4  12   2 7703.56 196.310   1
   4  12   3 47.8132 81.7860   0
   4  12   3 1.53953 58.1845   1
  -4  12  -3 21.5574 94.7780   0
   4 -12   3 125.884 72.2696   1
   4  12   3 87.0817 69.0333   2
   4  12   4 835.896 110.605   0
   4 -12   4 922.619 99.2606   1
  -4  12  -4 1034.12 141.920   0
   4  12   4 751.940 87.5913   2
   4  12   4 754.572 89.5075   1
   4  12   5-32.7323 65.6916   1
  -4  12  -5 3.25488 120.267   0
   4 -12   5-0.87718 68.7479   1
   4  12   5 0.74760 87.1029   0
   4  12   5-39.1173 63.3833   2
   4 -12   6 6154.83 213.130   1
   4  12   6 5658.79 187.010   2
   4  12   6 5983.30 225.400   0
   4  12   6 6658.24 219.335   1
   4  12   7 733.148 107.324   1
   4 -12   7 771.763 106.011   1
   4 -12   8 2253.99 150.025   1
   4  12   8 2088.50 149.953   1
   4  12   9 164.603 94.1661   1
   4 -12   9 237.685 92.1697   1
   4  12  10 367.727 108.932   1
   4 -12  10 362.296 89.9758   1
   4  12  11 494.544 115.287   1
   4 -12  11 238.462 105.196   1
  -4  13  13 1031.74 138.516   2
  -4  13  12 3547.70 200.896   2
  -4  13  11 434.956 100.399   2
  -4  13  10 87.0304 87.2061   2
  -4  13   9 3098.76 171.792   2
  -4  13   9 2320.58 160.085   0
  -4 -13   9 3187.54 217.285   0
  -4  13   8 247.832 105.312   0
  -4 -13   8 384.773 117.660   0
  -4  13   8 454.637 96.0110   2
   4  13  -7 7484.09 332.866   0
  -4  13   7 8423.46 244.838   2
  -4  13   7 7199.31 286.329   0
  -4 -13   7 8315.81 335.962   0
  -4 -13   6 155.213 116.580   0
  -4  13   6 299.285 97.6681   0
  -4  13   6 181.804 69.3297   2
   4  13  -6 105.732 118.150   0
   4  13  -5 181.169 100.239   0
  -4 -13   5 62.5949 109.958   0
  -4  13   5 24.1440 91.4702   0
  -4  13   5 119.895 69.5436   2
   4  13  -4 88.8788 101.222   0
  -4 -13   4 58.9943 91.5131   0
  -4  13   4 193.488 93.4808   0
  -4  13   4 123.663 63.9492   2
   4  13  -3 18987.0 462.462   0
  -4  13   3 17592.9 298.820   2
  -4  13   3 18068.3 446.269   0
   4  13  -3 17499.3 340.167   2
  -4 -13   3 19096.5 463.707   0
   4  13  -2 1872.60 169.810   0
  -4  13   2 1704.16 105.598   2
   4  13  -2 1783.37 128.196   2
  -4  13   2 1731.69 171.373   0
  -4 -13   2 1692.44 156.663   0
   4  13  -1 2455.72 179.234   0
  -4  13   1 2142.33 113.246   2
   4  13  -1 2395.47 140.112   2
  -4  13   1 2278.16 178.302   0
  -4 -13   1 2235.38 174.146   0
   4  13   0 3007.77 195.628   0
   4  13   0 3117.97 151.429   2
  -4  13   0 3331.00 214.068   0
  -4 -13   0 3229.32 203.659   0
   4  13   1 555.384 109.358   0
  -4 -13  -1 638.245 111.336   0
   4 -13   1 718.389 90.6471   1
  -4  13  -1 696.828 127.610   0
   4  13   1 637.692 88.7861   2
   4  13   2 589.882 110.429   0
  -4  13  -2 658.074 137.301   0
   4 -13   2 728.274 92.7005   1
   4  13   2 644.149 93.3069   2
   4  13   3 2634.71 173.610   0
   4 -13   3 2977.23 157.700   1
   4  13   3 2755.75 142.666   2
  -4  13  -3 2635.38 207.583   0
   4  13   4 267.840 72.9592   1
  -4  13  -4 285.045 114.478   0
   4 -13   4 210.073 81.5279   1
   4  13   4 138.100 93.2683   0
   4  13   4 354.528 80.6702   2
   4 -13   5 13096.1 303.217   1
   4  13   5 12476.6 278.618   2
  -4  13  -5 12247.9 423.223   0
   4  13   5 12440.4 291.331   1
   4  13   5 11564.7 327.585   0
   4  13   6 76.4536 108.130   0
   4  13   6-33.2011 74.8129   1
   4 -13   6 51.5530 65.0645   1
   4  13   6 35.0096 69.7620   2
   4  13   7 171.125 86.0821   1
   4 -13   7 62.4526 77.4199   1
   4  13   8 230.094 97.4363   1
   4 -13   8 428.812 92.2642   1
   4  13   9 406.874 110.247   1
   4 -13   9 503.905 106.302   1
   4  13  10 151.902 91.9635   1
   4 -13  10-34.1423 99.2395   1
   4 -13  11 2586.83 185.849   1
   4  13  11 3521.45 221.708   1
  -4  14  12-2.39977 106.092   2
  -4  14  11 500.329 109.069   2
  -4  14  10 2206.29 165.592   2
  -4  14   9 1680.53 143.218   2
  -4  14   8 1642.43 159.534   0
  -4  14   8 1790.55 140.974   2
  -4 -14   8 1903.44 188.820   0
  -4 -14   7 1030.35 142.569   0
  -4  14   7 719.406 128.213   0
  -4  14   7 1037.25 112.924   2
   4  14  -7 1115.31 164.492   0
   4  14  -6 6599.36 320.718   0
  -4  14   6 7022.73 231.048   2
  -4  14   6 7187.54 294.519   0
  -4 -14   6 7701.21 326.653   0
   4  14  -5 1989.23 189.776   0
  -4  14   5 2133.57 138.276   2
  -4  14   5 2250.18 177.444   0
  -4 -14   5 2297.97 190.090   0
   4  14  -4 3470.94 226.034   0
  -4  14   4 3459.64 155.957   2
  -4  14   4 3268.82 214.123   0
   4  14  -4 3490.06 175.866   2
  -4 -14   4 3284.33 225.238   0
   4  14  -3 5580.44 279.155   0
  -4  14   3 5086.95 178.043   2
   4  14  -3 5454.24 210.111   2
  -4  14   3 5516.68 266.849   0
  -4 -14   3 5566.93 271.923   0
  -4 -14   2 853.190 138.116   0
  -4  14   2 794.875 137.359   0
  -4  14   2 829.616 86.0982   2
   4  14  -2 889.182 108.087   2
   4  14  -2 719.359 134.322   0
   4  14  -1 1521.05 150.862   0
  -4  14   1 1383.68 102.191   2
   4  14  -1 1559.79 124.250   2
  -4  14   1 1223.00 152.539   0
  -4 -14   1 1584.70 157.173   0
   4  14   0 1827.17 167.232   0
   4  14   0 1639.99 124.872   2
  -4  14   0 1786.81 170.687   0
  -4 -14   0 1465.21 157.115   0
   4  14   1 3687.04 213.265   0
   4 -14   1 3951.09 176.288   1
   4  14   1 3948.33 179.034   2
  -4  14  -1 4122.44 248.365   0
  -4 -14  -1 4008.74 232.126   0
  -4  14  -2 181.411 117.206   0
   4 -14   2 53.9210 66.7713   1
   4  14   2 79.6035 100.048   0
   4  14   2 104.964 77.6018   2
   4 -14   3 959.789 111.316   1
  -4  14  -3 698.140 147.010   0
   4  14   3 712.394 123.144   0
   4  14   3 772.722 101.199   2
  -4  14  -4 606.280 142.293   0
   4  14   4 489.066 108.490   0
   4 -14   4 702.382 96.3330   1
   4  14   4 848.880 107.461   2
   4  14   5-26.0358 111.342   0
  -4  14  -5 3.73444 149.669   0
   4 -14   5 8.78413 77.0518   1
   4  14   5 48.5626 70.6407   2
   4  14   6 563.495 118.385   0
   4 -14   6 724.750 98.6141   1
   4  14   6 684.307 101.807   2
   4  14   6 844.628 112.063   1
   4 -14   7 2795.09 165.533   1
   4  14   7 2782.39 174.340   1
   4 -14   8 505.163 103.092   1
   4  14   8 420.088 109.405   1
   4 -14   9 110.575 91.2329   1
   4  14   9 109.953 99.8777   1
   4 -14  10 403.618 112.616   1
   4  14  10 455.455 114.380   1
  -4  15  11-25.2913 112.826   2
  -4  15  10 159.542 97.2225   2
  -4  15   9 630.688 99.8614   2
  -4  15   8 711.171 145.608   0
  -4  15   8 1292.01 130.853   2
  -4  15   7 2985.89 169.842   2
  -4  15   7 2720.16 199.579   0
  -4 -15   7 3032.01 234.501   0
   4  15  -7 2705.56 232.965   0
  -4  15   6 9196.22 267.628   2
  -4  15   6 8749.04 343.599   0
  -4 -15   6 9135.79 372.595   0
   4  15  -6 8302.90 379.814   0
   4  15  -5 2006.60 200.016   0
  -4  15   5 2265.90 140.090   2
  -4  15   5 2322.04 197.798   0
   4  15  -5 2383.94 161.532   2
  -4 -15   5 2604.65 213.964   0
  -4 -15   4 461.118 137.851   0
  -4  15   4 551.297 128.421   0
   4  15  -4 803.324 138.750   0
  -4  15   4 479.949 84.1929   2
   4  15  -4 626.818 109.026   2
   4  15  -3 1352.22 159.723   0
  -4  15   3 909.643 144.483   0
  -4  15   3 1041.97 104.265   2
   4  15  -3 905.467 121.003   2
  -4 -15   3 1271.73 166.356   0
   4  15  -2 1175.07 150.068   0
  -4 -15   2 965.419 148.587   0
  -4  15   2 775.876 140.402   0
  -4  15   2 861.539 97.1407   2
   4  15  -2 796.041 115.979   2
  -4 -15   1 37.0091 128.438   0
  -4  15   1 76.3943 112.649   0
   4  15  -1-3.92357 118.334   0
   4  15  -1 61.5901 83.7930   2
   4  15   0 9719.22 352.413   0
   4  15   0 9206.94 264.468   2
  -4  15   0 8998.72 353.902   0
  -4 -15   0 8367.28 344.043   0
  -4  15  -1 77.9141 134.898   0
   4 -15   1 290.041 89.1357   1
   4  15   1 173.665 107.925   0
   4  15   1 195.408 89.7098   2
  -4  15  -2-36.3161 119.266   0
   4 -15   2 3.45450 67.5786   1
   4  15   2 7.23077 117.406   0
   4  15   2 58.8118 82.5876   2
  -4  15  -3-66.8098 134.903   0
   4  15   3-257.146 115.459   0
   4 -15   3 30.5456 73.0096   1
   4  15   3 49.3143 80.0237   2
   4 -15   4 2976.01 167.660   1
   4  15   4 2945.39 166.107   2
  -4  15  -4 2870.48 253.759   0
   4  15   4 2743.14 196.519   0
   4 -15   5 3071.42 171.054   1
   4  15   5 2881.48 167.793   2
   4  15   5 2796.54 193.521   0
  -4  15  -5 2472.22 234.485   0
   4 -15   6 602.299 95.6398   1
   4  15   6 645.339 103.419   2
   4 -15   7 3522.66 192.069   1
   4 -15   8 127.029 93.7397   1
   4 -15   9 491.179 108.311   1
  -4  16  10 626.512 127.759   2
  -4  16   9 1084.31 132.169   2
  -4  16   8 77.1777 92.8893   2
  -4  16   7 2606.37 169.603   2
  -4  16   6 2419.78 154.203   2
  -4  16   6 2155.36 208.293   0
   4  16  -6 2587.07 179.888   2
   4  16  -6 2480.60 228.130   0
  -4 -16   5 889.570 165.920   0
  -4  16   5 652.903 147.947   0
   4  16  -5 745.970 165.101   0
  -4  16   5 845.977 104.315   2
   4  16  -5 955.528 137.664   2
  -4 -16   4 12.2120 157.045   0
  -4  16   4-86.3435 141.391   0
   4  16  -4-15.9491 162.620   0
  -4  16   4 3.31652 76.1959   2
   4  16  -4 6.46318 95.6502   2
  -4 -16   3-49.2405 157.037   0
  -4  16   3 106.214 136.834   0
   4  16  -3 252.327 130.749   0
  -4  16   3 161.450 74.3230   2
   4  16  -3 107.975 85.2761   2
  -4  16   2 4100.35 172.651   2
   4  16  -2 4677.46 207.526   2
  -4  16   2 4013.97 255.712   0
  -4 -16   2 4052.43 255.217   0
   4  16  -2 4248.68 265.960   0
  -4 -16   1 1375.91 186.905   0
   4  16  -1 1632.76 140.801   2
  -4  16   1 2047.66 183.931   0
   4  16  -1 1590.85 173.787   0
   4  16   0 1970.04 151.665   2
  -4 -16   0 1665.93 190.557   0
  -4  16   0 1642.95 185.237   0
   4  16   0 1981.98 197.798   0
   4 -16   1 5955.49 230.517   1
   4  16   1 5835.52 228.484   2
  -4  16  -1 5428.48 312.072   0
   4  16   1 5779.30 292.845   0
   4  16   2 136.549 130.907   0
  -4  16  -2-15.4822 141.109   0
   4 -16   2 10.0196 71.7805   1
   4  16   2 137.279 79.5698   2
   4  16   3 48.4968 140.745   0
  -4  16  -3 308.843 153.985   0
   4 -16   3 62.9156 79.4301   1
   4  16   3 96.0235 84.4463   2
   4 -16   4 1583.93 134.288   1
  -4  16  -4 1136.46 200.406   0
   4  16   4 1423.68 136.470   2
   4  16   4 1309.14 144.668   0
   4 -16   5 188.064 81.7366   1
   4  16   5 0.85102 91.6254   2
   4 -16   6 2895.93 169.272   1
   4  16   6 2382.59 167.447   2
   4 -16   7 2876.89 180.752   1
   4 -16   8 99.1877 103.670   1
   4 -16   9 3400.86 206.206   1
  -4  17   9 464.217 113.115   2
  -4  17   8 2090.13 167.835   2
   4  17  -8 2183.43 176.574   2
  -4  17   7 411.914 103.549   2
   4  17  -7 302.699 126.947   2
  -4  17   6 2868.56 176.366   2
   4  17  -6 3410.08 210.482   2
  -4  17   5 811.032 112.666   2
   4  17  -5 897.720 141.285   2
  -4  17   4-13.5425 84.8371   2
   4  17  -4 33.9387 97.5836   2
  -4 -17   3 915.619 181.961   0
  -4  17   3 767.719 99.9201   2
   4  17  -3 822.813 129.329   2
   4  17  -2 18285.4 398.731   2
  -4 -17   2 15784.0 499.732   0
  -4 -17   1 726.148 176.070   0
   4  17  -1 884.011 121.053   2
   4  17   0-11.0319 90.0581   2
   4 -17   1-39.2640 74.4161   1
   4  17   1 111.340 92.1508   2
   4 -17   2 236.523 87.0799   1
   4  17   2 204.823 101.336   2
   4 -17   3 3868.44 201.127   1
   4  17   3 3406.87 188.690   2
   4 -17   4 2354.94 160.409   1
   4  17   4 2127.24 159.327   2
   4 -17   5 362.003 91.2480   1
   4  17   5 158.786 103.946   2
   4 -17   6 764.688 107.835   1
   4  17   6 512.849 114.744   2
   4 -17   7 251.108 110.581   1
   4 -17   8 328.721 120.871   1
  -4  18   8 119.916 116.543   2
   4  18  -8 162.950 116.705   2
  -4  18   7 766.268 119.394   2
   4  18  -7 664.715 150.874   2
  -4  18   6 149.823 106.142   2
   4  18  -6 44.0388 118.346   2
  -4  18   5 3204.54 184.240   2
   4  18  -5 3617.05 217.087   2
  -4  18   4 6102.01 246.835   2
   4  18  -4 6834.26 278.846   2
  -4  18   3 946.506 114.663   2
   4  18  -3 806.736 135.339   2
   4  18  -2 4878.43 235.749   2
   4  18  -1-0.60537 105.611   2
   4 -18   0 4607.29 221.895   1
   4  18   0 4598.10 224.042   2
   4 -18   1-25.3306 86.6977   1
   4  18   1-32.3282 99.5251   2
   4 -18   2 2275.37 160.348   1
   4  18   2 2117.53 163.028   2
   4 -18   3 462.176 111.844   1
   4  18   3 529.877 126.813   2
   4 -18   4 103.144 100.940   1
   4  18   4 105.057 113.935   2
   4 -18   5 888.717 128.575   1
   4  18   5 1007.05 124.408   2
   4 -18   6 820.255 115.402   1
   4  18   6 1121.13 138.352   2
  -4  19   7 1081.10 144.002   2
  -4  19   6 798.990 123.704   2
   4  19  -6 831.288 148.365   2
  -4  19   5 781.633 131.368   2
   4  19  -5 1000.90 152.559   2
  -4  19   4-7.62126 110.899   2
   4  19  -4 37.1957 115.773   2
   4  19  -3 1904.30 170.760   2
   4  19  -2-50.9972 112.185   2
   4  19  -1 7150.25 290.960   2
   4 -19   0 1610.31 147.530   1
   4  19   0 1168.22 147.485   2
   4 -19   1 4.81542 104.590   1
   4  19   1-1.47268 112.347   2
   4 -19   2 743.473 113.971   1
   4  19   2 437.475 126.072   2
   4 -19   3 1812.15 164.185   1
   4  19   3 1296.06 158.405   2
   4 -19   4 178.592 104.225   1
   4  19   4 85.2037 116.743   2
   4 -19   5 739.074 123.825   1
   4  19   5 636.553 133.005   2
   4  20  -4 1478.35 169.690   2
   4  20  -3 427.461 134.855   2
   4  20  -2 142.303 118.481   2
   4  20  -1 111.640 113.912   2
   4 -20   0 3302.69 209.480   1
   4  20   0 3310.97 199.499   2
   4 -20   1 1546.21 157.256   1
   4  20   1 1563.06 170.400   2
   4 -20   2 4700.50 238.313   1
   4  20   2 4298.91 240.574   2
  -5   0  11 4.57971 80.6556   0
  -5   0  10 4275.47 185.045   0
  -5   0   9-22.7532 67.2142   0
  -5   0   8 26655.3 438.584   0
  -5   0   7 7.79991 64.9720   0
  -5   0   6 150.794 70.0530   0
  -5   0   5-23.4183 64.7477   0
   5   0  -4 25673.0 225.497   1
  -5   0   4 27619.5 440.417   0
  -5   0   3 31.0989 49.9269   3
   5   0  -3 1.69268 31.3943   1
  -5   0   3 21.9890 64.5898   0
   5   0  -2 10942.5 169.815   1
  -5   0   2 10759.8 282.414   0
   5   0  -1 1.38677 34.7976   1
  -5   0   1 55.7532 61.0783   0
   5   0   0 31.4347 38.3318   1
  -5   0   0 33.6348 59.4684   0
   5   0   1 15.9463 43.2029   1
  -5   0  -1 42.6340 63.5276   0
   5   0   2 25.7027 46.6322   1
  -5   0  -2 59.7673 61.3972   0
   5   0   3-17.5886 49.0412   1
  -5   0  -3 37.9011 61.2764   0
   5   0   4 2202.66 113.794   1
  -5   0  -4 2135.27 142.024   0
   5   0   5 0.34729 58.5593   1
   5   0   6 9254.06 233.357   1
   5   0   7-32.6038 70.3311   1
   5   0   8 2.67111 70.5912   1
   5   0   9-28.7014 75.5412   1
   5   0  10 4308.85 199.202   1
   5   0  11 28.2574 89.8885   1
   5   0  12 4623.12 224.271   1
   5   0  13-14.4092 99.9840   1
  -5  -1  11 3327.07 170.198   0
  -5   1  11 3462.73 161.581   0
  -5   1  10 703.820 94.7515   0
  -5  -1  10 641.908 91.9029   0
  -5   1   9 269.314 78.8181   0
  -5  -1   8 1728.24 129.509   0
  -5   1   8 1722.86 128.228   0
  -5  -1   7 2797.76 159.084   0
  -5   1   7 2629.18 149.589   0
  -5  -1   6 17250.2 356.067   0
  -5   1   6 17892.7 357.274   0
  -5  -1   5 8664.49 256.221   0
  -5   1   5 8362.96 251.490   0
   5  -1  -4 213.175 35.5724   1
  -5  -1   4 157.358 67.9443   0
  -5   1   4 172.842 65.8457   0
   5   1  -3 10477.0 151.760   1
  -5   1   3 10766.8 205.826   3
   5  -1  -3 10902.8 165.669   1
  -5  -1   3 10726.6 283.479   0
  -5   1   3 10700.0 277.671   0
   5   1  -2 7280.81 135.736   1
   5  -1  -2 6925.09 142.922   1
  -5  -1   2 7072.85 229.977   0
  -5   1   2 7205.36 234.297   0
   5   1  -1 3047.40 98.4552   1
   5  -1  -1 3096.68 104.277   1
  -5  -1   1 3038.01 165.124   0
  -5   1   1 3223.88 162.439   0
   5   1   0 1939.64 86.0019   1
   5  -1   0 1943.44 89.7347   1
  -5  -1   0 2230.68 136.303   0
  -5   1   0 1827.83 131.400   0
   5   1   1 359.178 52.9950   1
   5  -1   1 310.997 54.4552   1
  -5  -1  -1 463.866 80.9935   0
  -5   1  -1 314.397 75.4879   0
   5   1   2 1716.64 91.9314   1
   5  -1   2 1631.85 92.8468   1
  -5  -1  -2 1654.48 119.526   0
  -5   1  -2 1620.63 123.872   0
   5   1   3 201.958 58.2608   1
   5  -1   3 245.406 60.9811   1
  -5  -1  -3 209.915 73.1451   0
  -5   1  -3 256.603 76.7232   0
   5   1   4 784.604 81.1832   1
   5  -1   4 639.117 75.3044   1
  -5  -1  -4 718.569 92.5302   0
  -5   1  -4 634.392 95.8995   0
   5   1   5 2027.32 115.036   1
   5  -1   5 2162.38 118.486   1
   5   1   6 2198.82 125.795   1
   5  -1   6 2363.37 129.026   1
   5   1   7 4077.37 170.927   1
   5  -1   7 4617.36 178.652   1
   5   1   8 591.845 96.7005   1
   5  -1   8 616.204 92.9271   1
   5   1   9 937.307 110.209   1
   5  -1   9 1047.97 113.472   1
   5   1  10 364.468 94.7505   1
   5  -1  10 255.836 87.8709   1
   5   1  11 4967.42 223.196   1
   5  -1  11 4889.89 220.012   1
   5   1  12 357.107 111.610   1
   5  -1  12 277.284 103.768   1
   5   1  13 1739.05 168.506   1
   5  -1  13 1512.73 156.658   1
  -5  -2  12 4037.89 180.232   0
  -5   2  11 2642.34 141.071   0
  -5  -2  11 2546.36 153.012   0
  -5  -2  10 92.8136 69.2318   0
  -5   2  10-131.444 72.2358   0
  -5   2  10 24.1606 70.4168   2
  -5  -2   9 12175.7 307.285   0
  -5   2   9 11399.7 288.331   0
  -5   2   9 11450.8 257.890   2
  -5  -2   8 9927.30 281.220   0
  -5   2   8 9452.82 266.896   0
  -5   2   8 9693.48 223.849   2
  -5  -2   7 1709.51 132.842   0
  -5   2   7 1834.26 129.824   0
  -5   2   7 1722.47 102.352   2
  -5  -2   6 154.833 72.0678   0
  -5   2   6 120.677 67.2665   0
  -5   2   6 146.168 51.8846   2
  -5  -2   5 2703.47 154.324   0
   5  -2  -5 2547.68 84.4828   1
  -5   2   5 2338.39 144.036   0
  -5   2   5 2464.91 103.276   2
  -5  -2   4 7682.44 247.031   0
   5  -2  -4 7806.26 141.685   1
  -5   2   4 8029.18 246.817   0
   5   2  -3 4425.15 97.9642   1
  -5  -2   3 4645.10 190.428   0
   5  -2  -3 4684.23 116.589   1
  -5   2   3 4700.50 194.753   0
  -5   2   3 4668.07 140.034   3
   5   2  -2 15960.2 193.229   1
   5  -2  -2 16161.8 219.301   1
  -5  -2   2 16929.3 350.620   0
  -5   2   2 16145.9 342.974   0
   5   2  -1-5.09013 33.4836   1
  -5  -2   1 58.8266 64.5554   0
  -5   2   1 6.92978 68.5509   0
   5   2   0 3141.84 105.380   1
   5  -2   0 2898.81 108.512   1
  -5  -2   0 3002.53 157.916   0
  -5   2   0 3195.74 164.870   0
   5   2   1 640.071 62.1977   1
   5  -2   1 685.233 67.5945   1
  -5   2  -1 719.751 91.7719   0
  -5  -2  -1 666.756 89.3496   0
   5   2   2 2068.69 99.6491   1
   5  -2   2 2139.53 104.454   1
  -5  -2  -2 2277.02 139.407   0
  -5   2  -2 2415.35 148.138   0
   5   2   3 1520.89 95.3862   1
   5  -2   3 1614.33 98.1733   1
  -5  -2  -3 1498.24 115.940   0
  -5   2  -3 1469.05 126.320   0
   5   2   4 775.040 79.4618   1
   5  -2   4 869.352 82.7346   1
  -5  -2  -4 870.285 100.421   0
  -5   2  -4 781.076 101.424   0
   5   2   5 7449.54 199.050   1
   5  -2   5 7258.91 201.428   1
   5   2   6 8024.04 217.679   1
   5  -2   6 8197.50 224.063   1
   5   2   7 14.3931 70.3258   1
   5  -2   7 59.9970 65.6190   1
   5   2   8 403.264 87.9512   1
   5  -2   8 325.084 83.3897   1
   5   2   9 899.712 112.275   1
   5  -2   9 963.584 112.625   1
   5   2  10 1430.42 132.187   1
   5  -2  10 1544.58 140.038   1
   5   2  11 4667.69 216.794   1
   5  -2  11 4395.95 214.033   1
   5   2  12 140.810 91.8141   1
   5  -2  12 80.4618 91.2312   1
   5   2  13 14.1101 101.107   1
   5  -2  13 37.7080 113.886   1
  -5   3  12 1193.21 116.775   2
  -5  -3  12 991.594 102.710   0
  -5   3  11 2966.25 153.444   0
  -5   3  11 3292.85 166.277   2
  -5  -3  11 2961.43 170.753   0
  -5  -3  10 410.354 83.5056   0
  -5   3  10 413.723 82.9277   0
  -5   3  10 472.680 85.6426   2
  -5  -3   9 2065.66 145.468   0
  -5   3   9 1696.89 123.067   0
  -5   3   9 1854.63 117.161   2
  -5  -3   8 1561.02 128.591   0
  -5   3   8 1436.55 115.524   0
  -5   3   8 1503.27 103.746   2
  -5  -3   7 195.388 81.9571   0
  -5   3   7 417.652 80.0589   0
  -5   3   7 297.762 61.9072   2
  -5  -3   6 5015.50 204.870   0
  -5   3   6 5335.57 205.899   0
  -5   3   6 5289.45 153.397   2
  -5  -3   5 3492.53 174.655   0
   5  -3  -5 3362.72 100.999   1
  -5   3   5 3442.06 172.685   0
  -5   3   5 3328.06 117.750   2
   5  -3  -4 429.524 47.8049   1
  -5  -3   4 436.748 87.6488   0
  -5   3   4 481.638 56.3918   2
  -5   3   4 393.142 84.9482   0
  -5   3   3 20.9728 47.8755   3
  -5  -3   3-9.10554 65.4099   0
   5  -3  -3 19.0188 36.5048   1
  -5   3   3 34.1616 33.6288   2
  -5   3   3 59.8161 66.8175   0
   5   3  -2 15571.4 185.923   1
  -5  -3   2 14932.0 334.860   0
   5  -3  -2 15230.5 219.666   1
  -5   3   2 14867.1 331.771   0
  -5  -3   2 15348.6 248.635   3
   5   3  -1 1047.31 61.4637   1
  -5  -3   1 1109.65 108.978   0
   5  -3  -1 1105.07 71.5080   1
  -5   3   1 1149.93 112.255   0
   5   3   0 8918.55 167.381   1
   5  -3   0 8580.84 179.934   1
  -5  -3   0 9183.10 265.849   0
  -5   3   0 9003.88 262.805   0
   5   3   1 2.72269 39.9070   1
   5  -3   1 12.9908 47.9451   1
  -5  -3  -1-20.8682 64.9850   0
  -5   3  -1 11.1750 62.6555   0
   5   3   2 6374.67 162.043   1
   5  -3   2 6451.97 169.957   1
  -5  -3  -2 6530.77 229.076   0
  -5   3  -2 6472.02 232.042   0
   5  -3   3 184.170 59.2692   1
   5   3   3 154.455 52.4911   1
  -5  -3  -3 91.2750 66.6515   0
  -5   3  -3 125.652 73.0928   0
   5   3   4 1138.60 89.7554   1
   5  -3   4 1076.37 92.9277   1
  -5  -3  -4 1012.70 110.125   0
  -5   3  -4 1088.05 112.245   0
   5   3   5 399.869 73.9216   1
   5  -3   5 396.979 72.4064   1
  -5   3  -5 404.798 86.2061   0
   5   3   6 5987.87 193.276   1
   5  -3   6 6038.39 198.209   1
   5   3   7 821.288 98.9641   1
   5  -3   7 891.190 93.1304   1
   5   3   8 5511.65 203.725   1
   5  -3   8 5451.07 209.814   1
   5   3   9 331.377 93.6578   1
   5  -3   9 277.534 90.1562   1
   5   3  10 145.252 87.5199   1
   5  -3  10 212.995 75.7995   1
   5   3  11 489.150 107.053   1
   5  -3  11 437.053 109.954   1
   5   3  12 3265.28 200.954   1
   5  -3  12 3194.99 196.810   1
   5   3  13 52.9519 110.682   1
   5  -3  13 54.6474 114.461   1
  -5   4  13-15.9147 86.0234   2
  -5   4  12 1736.58 139.848   2
  -5  -4  12 1326.23 125.498   0
  -5  -4  11 155.392 89.9494   0
  -5   4  11 202.319 81.6849   2
  -5  -4  10 160.255 84.2494   0
  -5   4  10 144.144 75.0603   0
  -5   4  10 178.573 74.0740   2
  -5  -4   9 34056.8 525.048   0
  -5   4   9 32371.2 472.286   0
  -5   4   9 33898.1 435.757   2
  -5  -4   8 3197.45 174.210   0
  -5   4   8 3235.40 168.194   0
  -5   4   8 3282.08 139.059   2
  -5  -4   7 4213.10 197.457   0
  -5   4   7 4436.93 191.021   0
   5   4  -7 4143.00 202.260   0
  -5   4   7 4151.70 145.479   2
   5  -4  -6 1750.42 80.5585   1
  -5   4   6 1789.88 131.513   0
  -5   4   6 1799.90 98.4696   2
  -5  -4   5 1268.65 125.294   0
   5  -4  -5 1137.76 69.1576   1
  -5   4   5 1129.97 115.336   0
  -5   4   5 1231.01 79.6993   2
  -5  -4   4 2715.65 159.073   0
  -5   4   4 2707.24 101.477   2
   5  -4  -4 2794.98 101.452   1
  -5   4   4 2899.44 162.133   0
  -5  -4   3 2083.08 145.794   0
   5  -4  -3 1906.82 88.3145   1
  -5   4   3 1957.20 139.589   0
  -5   4   3 2050.31 85.0801   2
   5   4  -2 12168.5 163.088   1
  -5  -4   2 12100.5 311.341   0
   5  -4  -2 11715.9 201.474   1
  -5   4   2 11619.7 301.609   0
  -5   4   2 11973.5 171.080   2
   5   4  -1 32503.0 289.531   1
  -5  -4   1 32647.6 496.002   0
   5  -4  -1 31945.2 336.067   1
  -5   4   1 33510.2 496.945   0
   5   4   0 847.644 63.8543   1
   5  -4   0 704.571 67.3076   1
  -5   4   0 686.716 93.0153   0
  -5  -4   0 535.502 88.1069   0
   5   4   1 3625.33 119.575   1
  -5  -4  -1 3807.19 181.125   0
   5  -4   1 3794.14 132.331   1
  -5   4  -1 3603.52 179.777   0
   5   4   1 3783.67 99.4503   2
   5   4   2 9086.23 190.804   1
  -5  -4  -2 8999.79 268.858   0
   5  -4   2 8957.96 201.971   1
  -5   4  -2 9202.85 276.822   0
   5   4   3-5.71601 47.4559   1
   5  -4   3-1.61066 53.9483   1
  -5  -4  -3 23.3510 66.7383   0
  -5   4  -3 118.886 71.6222   0
   5   4   4 299.561 62.9753   1
   5  -4   4 256.805 70.1316   1
  -5   4  -4 212.320 72.6363   0
   5   4   5 5976.99 183.248   1
   5  -4   5 5992.09 189.586   1
  -5   4  -5 5655.98 230.018   0
   5   4   6 493.942 83.8386   1
   5  -4   6 442.830 84.2636   1
   5   4   7 745.640 95.1215   1
   5   4   7 602.976 86.9137   0
   5  -4   7 742.777 98.0523   1
   5   4   8 307.068 74.5552   0
   5   4   8 270.118 79.5968   1
   5  -4   8 262.961 80.9605   1
   5   4   9 11822.6 300.931   1
   5  -4   9 12303.4 311.089   1
   5   4  10-39.5361 82.3648   1
   5  -4  10-103.462 86.3288   1
   5   4  11-28.6398 86.9949   1
   5  -4  11-49.0263 81.0946   1
   5   4  12 2504.38 185.395   1
   5  -4  12 2271.26 170.211   1
   5   4  13 459.284 118.511   1
   5  -4  13 327.374 114.928   1
  -5   5  14 53.1059 86.7135   2
  -5   5  13 5527.02 228.052   2
  -5   5  12 4577.68 201.798   2
  -5  -5  12 4021.40 197.900   0
  -5   5  11 4733.82 193.062   2
  -5  -5  11 4143.35 202.580   0
  -5  -5  10-81.6792 85.6262   0
  -5   5  10 103.302 75.7782   0
  -5   5  10-13.7980 72.1925   2
  -5  -5   9 22.7862 80.5651   0
  -5   5   9 72.0001 76.7645   0
  -5   5   9 61.1776 61.5657   2
   5   5  -8 70.2831 86.2157   0
  -5  -5   8 26.0487 77.3305   0
  -5   5   8 51.4639 66.8057   0
  -5   5   8 74.6630 58.5758   2
  -5  -5   7 5184.05 221.075   0
  -5   5   7 4848.29 203.797   0
  -5   5   7 5223.11 163.874   2
   5   5  -7 5298.53 228.714   0
  -5  -5   6 7446.99 257.155   0
  -5   5   6 7418.92 247.039   0
  -5   5   6 7782.06 185.820   2
   5   5  -6 8024.48 276.156   0
  -5  -5   5 1554.63 130.568   0
   5  -5  -5 1494.39 81.5199   1
  -5   5   5 1423.17 124.211   0
  -5   5   5 1544.15 87.9473   2
  -5  -5   4 196.857 77.1504   0
   5  -5  -4 214.581 47.1896   1
  -5   5   4 256.611 49.8981   2
  -5   5   4 225.205 77.5891   0
   5  -5  -3 623.617 61.4840   1
  -5  -5   3 567.534 92.7778   0
  -5   5   3 635.148 90.7963   0
  -5   5   3 582.687 54.5127   2
  -5  -5   2 10726.2 301.762   0
   5  -5  -2 11010.5 205.060   1
  -5   5   2 12169.9 311.294   0
  -5   5   2 10825.7 166.492   2
   5   5  -1 1167.18 65.5099   1
  -5  -5   1 1146.82 114.619   0
   5  -5  -1 1149.25 80.5244   1
  -5  -5   1 1156.18 89.2915   3
  -5   5   1 1409.81 122.268   0
  -5   5   0 60.3886 71.6852   0
   5   5   0 156.137 43.7841   1
  -5  -5   0 133.435 73.9919   0
   5  -5   0 80.7224 47.4927   1
   5   5   1 5381.52 142.416   1
  -5  -5  -1 5634.54 221.837   0
   5  -5   1 5674.65 161.427   1
  -5   5  -1 5199.19 217.150   0
   5   5   1 5484.24 126.048   2
  -5   5  -2 44.3011 69.7240   0
   5   5   2 11.5416 49.6459   1
  -5  -5  -2 19.9460 75.8008   0
   5  -5   2 63.8734 54.7770   1
  -5   5  -3 3.72157 69.7332   0
   5   5   3 10.8295 51.4946   1
  -5  -5  -3-54.9430 69.8439   0
   5  -5   3 57.2643 56.9098   1
   5   5   4 1826.26 107.928   1
   5  -5   4 2060.90 120.798   1
  -5   5  -4 1917.81 145.885   0
   5   5   5 3660.95 149.050   1
   5  -5   5 3716.33 155.126   1
  -5   5  -5 3458.77 193.003   0
   5   5   6 973.828 96.6337   1
   5  -5   6 887.059 99.4457   1
   5   5   6 855.357 100.747   0
   5   5   7 2280.73 136.379   1
   5  -5   7 2087.70 141.310   1
   5   5   7 1958.76 124.844   0
   5   5   8 8.07642 74.7676   1
   5  -5   8-10.1292 74.7145   1
   5   5   9 342.728 91.1515   1
   5  -5   9 287.856 90.3144   1
   5   5  10 104.525 78.2540   1
   5  -5  10 117.633 89.6440   1
   5   5  11 3904.11 205.163   1
   5  -5  11 4047.03 202.880   1
   5   5  12 3238.60 201.380   1
   5  -5  12 3014.69 198.715   1
   5   5  13 2397.32 193.515   1
   5  -5  13 2154.49 179.314   1
  -5   6  15 3.29902 106.269   2
  -5   6  14 1554.90 146.701   2
  -5   6  13 1593.73 145.623   2
  -5  -6  12 133.348 117.168   0
  -5   6  12 258.030 97.9476   2
  -5   6  11 1208.32 118.169   2
  -5  -6  11 1101.02 129.947   0
  -5   6  10 11506.6 286.560   0
  -5   6  10 12128.8 285.600   2
  -5  -6  10 12281.6 344.339   0
  -5  -6   9 664.845 105.383   0
  -5   6   9 459.849 89.8231   0
  -5   6   9 677.342 88.1766   2
  -5  -6   8 7338.11 267.487   0
   5   6  -8 6944.49 269.380   0
  -5   6   8 7310.35 247.610   0
  -5   6   8 6935.90 198.681   2
  -5  -6   7 456.680 95.8176   0
  -5   6   7 530.189 74.1479   2
  -5   6   7 381.819 88.0799   0
   5   6  -7 498.389 108.484   0
  -5  -6   6 2254.59 154.270   0
  -5   6   6 2363.49 153.511   0
   5   6  -6 2280.26 158.001   0
  -5   6   6 2273.34 113.310   2
  -5  -6   5 1796.45 142.726   0
  -5   6   5 2165.41 151.014   0
  -5   6   5 1897.09 98.0807   2
   5   6  -5 2089.63 155.441   0
  -5  -6   4 844.756 110.003   0
   5  -6  -4 764.970 67.7990   1
  -5   6   4 853.540 69.5477   2
   5   6  -4 1010.82 118.058   0
  -5   6   4 767.517 105.648   0
  -5  -6   3 10420.9 302.643   0
   5  -6  -3 10595.6 205.912   1
   5   6  -3 11187.5 314.802   0
  -5   6   3 11463.1 206.671   3
  -5   6   3 10860.9 298.042   0
  -5   6   3 10601.2 184.260   2
  -5  -6   2 16026.6 364.708   0
   5  -6  -2 15631.7 252.720   1
  -5   6   2 15497.6 205.217   2
  -5   6   2 16306.8 366.475   0
   5   6  -1 2763.35 92.9360   1
  -5  -6   1 2797.10 165.430   0
   5  -6  -1 2719.76 116.311   1
  -5   6   1 2808.29 166.242   0
   5   6   0 2188.79 92.1412   1
  -5  -6   0 2208.00 146.830   0
   5  -6   0 2211.88 111.634   1
  -5   6   0 2261.46 160.488   0
  -5   6  -1 185.471 88.0161   0
   5   6   1 191.692 50.6472   1
  -5  -6  -1 231.020 78.3363   0
   5  -6   1 167.809 55.5709   1
   5   6   1 203.574 48.4420   2
   5   6   2 4314.61 139.657   1
  -5  -6  -2 4287.05 199.731   0
   5  -6   2 4580.53 154.153   1
  -5   6  -2 4008.06 201.214   0
   5   6   2 4112.99 114.326   2
   5   6   3 2383.68 116.025   1
  -5  -6  -3 2304.51 151.851   0
   5  -6   3 2475.23 126.819   1
  -5   6  -3 2141.06 158.099   0
   5   6   3 2555.52 152.826   0
   5   6   4 6358.64 183.735   1
   5  -6   4 6417.99 195.546   1
  -5   6  -4 6337.11 258.541   0
   5   6   4 6206.44 226.839   0
   5   6   5 594.412 80.2910   1
  -5   6  -5 477.775 108.162   0
   5  -6   5 672.664 94.2657   1
   5   6   5 476.898 85.9916   0
   5   6   6 3854.98 165.587   1
   5  -6   6 3712.14 167.795   1
   5   6   6 3784.13 174.564   0
   5   6   7 1690.01 122.965   0
   5   6   7 1808.68 129.031   1
   5  -6   7 1774.56 128.951   1
   5   6   8 238.751 82.5407   1
   5  -6   8 228.378 87.4427   1
   5   6   9 3800.16 194.506   1
   5  -6   9 3511.97 181.910   1
   5   6  10 3123.81 183.196   1
   5  -6  10 2761.64 177.797   1
   5   6  11 3613.50 203.725   1
   5  -6  11 3541.00 201.124   1
   5   6  12 2778.20 184.949   1
   5  -6  12 2530.76 180.831   1
   5  -6  13 360.275 114.009   1
  -5   7  15 3078.54 205.257   2
  -5   7  14 2007.35 162.096   2
  -5   7  13 3204.07 183.106   2
  -5  -7  12 548.107 126.865   0
  -5   7  12 402.455 102.318   2
  -5   7  11 4106.75 191.116   2
  -5  -7  11 3711.91 202.566   0
  -5  -7  10-54.6343 101.466   0
  -5   7  10-10.8661 88.4703   0
  -5   7  10 53.1025 80.4018   2
  -5   7   9 5405.42 210.880   0
  -5   7   9 5284.31 192.726   2
  -5  -7   9 5377.04 243.968   0
   5   7  -8 927.444 119.107   0
  -5   7   8 899.513 111.044   0
  -5   7   8 1000.74 97.1529   2
  -5  -7   8 1014.22 129.101   0
  -5  -7   7 3110.38 191.933   0
   5   7  -7 2882.47 186.340   0
  -5   7   7 3286.67 178.690   0
  -5   7   7 3106.11 136.057   2
  -5  -7   6 7536.14 274.617   0
   5   7  -6 8461.48 290.599   0
  -5   7   6 8013.38 263.099   0
  -5   7   6 7685.23 194.052   2
  -5  -7   5 3775.16 197.083   0
   5   7  -5 3740.33 202.548   0
  -5   7   5 3862.88 193.430   0
  -5   7   5 3767.83 134.456   2
  -5  -7   4 4578.84 213.350   0
   5   7  -4 4250.10 207.232   0
  -5   7   4 4280.91 202.104   0
  -5   7   4 4409.51 134.234   2
  -5  -7   3 12849.4 339.793   0
   5  -7  -3 13662.0 241.258   1
  -5   7   3 13244.8 220.002   3
  -5   7   3 12730.3 208.384   2
  -5   7   3 14263.0 349.496   0
   5   7  -3 13183.0 347.154   0
  -5  -7   2 15975.9 375.482   0
   5  -7  -2 16054.7 264.288   1
  -5   7   2 15997.6 215.902   2
  -5   7   2 17001.5 384.969   0
   5   7  -2 16931.0 386.099   0
   5   7  -1 6235.85 136.747   1
  -5  -7   1 6490.29 248.813   0
   5  -7  -1 6530.39 178.744   1
  -5   7   1 6339.30 241.714   0
   5   7  -1 7010.25 256.105   0
  -5   7   0 556.179 100.246   0
   5   7   0 454.824 96.0090   0
   5   7   0 394.592 53.4055   1
  -5  -7   0 366.648 95.3433   0
  -5  -7   0 294.340 65.0714   3
   5  -7   0 354.415 63.2971   1
   5   7   1 2818.26 112.958   1
  -5  -7  -1 3112.05 177.580   0
   5  -7   1 2744.03 127.082   1
  -5   7  -1 2852.62 180.300   0
   5   7   1 2933.07 171.812   0
   5   7   1 2668.54 106.968   2
   5   7   2 2086.35 104.890   1
  -5  -7  -2 2208.41 156.898   0
   5  -7   2 1978.65 114.708   1
   5   7   2 2140.66 155.073   0
  -5   7  -2 2012.13 158.828   0
   5   7   2 2047.91 95.2148   2
  -5   7  -3 6.70951 87.6320   0
   5   7   3 134.060 58.8853   1
  -5  -7  -3 241.771 78.6130   0
   5  -7   3 167.017 66.1926   1
   5   7   3 245.080 66.5783   0
   5   7   4 809.089 86.1884   1
  -5   7  -4 669.801 121.677   0
   5  -7   4 696.294 92.6003   1
   5   7   4 737.416 104.016   0
   5   7   5 8121.21 218.685   1
   5   7   5 7629.15 250.896   0
   5  -7   5 8033.26 228.597   1
  -5   7  -5 6933.07 289.597   0
   5   7   6 68.6368 71.2040   1
   5   7   6-20.2817 72.0982   0
   5  -7   6-6.57192 71.3513   1
   5   7   7 15.8315 75.5079   1
   5  -7   7 8.71747 69.2434   1
   5   7   7-29.8608 76.9370   0
   5   7   8-51.3105 83.1972   1
   5  -7   8-7.61408 77.3052   1
   5   7   9 4404.78 198.313   1
   5  -7   9 4094.37 201.941   1
   5   7  10 5301.89 229.003   1
   5  -7  10 5043.80 223.177   1
   5   7  11 27.7494 93.3847   1
   5  -7  11 14.2559 97.4418   1
   5   7  12 394.225 115.591   1
   5  -7  12 428.864 110.371   1
  -5   8  14 10655.8 330.236   2
  -5   8  13 2263.64 169.566   2
  -5  -8  12 277.951 140.722   0
  -5   8  12-29.6618 89.7989   2
  -5  -8  11 662.805 119.336   0
  -5   8  11 465.540 99.9735   2
  -5   8  10 7182.19 239.037   0
  -5   8  10 7647.30 238.627   2
  -5  -8  10 7866.05 298.988   0
  -5   8   9 6750.78 242.889   0
  -5   8   9 6502.21 214.532   2
  -5  -8   9 6428.09 271.437   0
  -5   8   8 15188.6 355.511   0
  -5   8   8 15165.0 298.631   2
   5   8  -8 14416.8 401.713   0
  -5  -8   8 14384.3 386.069   0
   5   8  -7-20.2663 93.9501   0
  -5  -8   7 39.7270 84.6267   0
  -5   8   7 38.7784 59.7360   2
  -5   8   7 41.8118 80.6786   0
  -5  -8   6-4.01494 84.9625   0
   5   8  -6 5.96628 90.3313   0
  -5   8   6-26.3066 53.7648   2
  -5   8   6 120.965 74.7107   0
  -5  -8   5 4260.12 214.469   0
   5   8  -5 4396.45 223.092   0
  -5   8   5 4271.48 201.432   0
  -5   8   5 4342.60 147.110   2
  -5  -8   4 1930.05 152.858   0
   5   8  -4 2068.30 163.247   0
  -5   8   4 1893.94 147.737   0
  -5   8   4 1920.82 98.6306   2
  -5  -8   3 1085.26 122.210   0
   5   8  -3 1187.82 129.772   0
   5  -8  -3 1175.72 89.6698   1
  -5   8   3 1254.85 85.3087   3
  -5   8   3 1232.96 81.8348   2
  -5   8   3 1376.10 134.091   0
  -5  -8   2 1057.54 121.688   0
   5   8  -2 1001.18 126.184   0
   5  -8  -2 1106.77 86.7543   1
  -5   8   2 1005.47 68.3995   2
  -5   8   2 1031.09 126.478   0
   5   8  -1 22.5452 73.6406   0
  -5   8   1-31.2994 86.5279   0
  -5  -8   1-24.1970 76.7707   0
   5  -8  -1-9.00628 49.6986   1
   5   8   0 2227.45 97.5877   1
  -5  -8   0 1977.22 146.915   0
   5  -8   0 2214.47 118.546   1
   5   8   0 2057.64 151.865   0
  -5   8   0 2283.88 166.914   0
   5   8   0 2211.64 107.134   2
   5   8   1 726.399 70.9153   1
  -5   8  -1 648.800 117.677   0
   5  -8   1 671.830 79.8634   1
   5   8   1 932.936 115.429   0
  -5  -8  -1 733.095 102.677   0
   5   8   1 753.622 72.4100   2
   5   8   2 568.088 67.8659   1
  -5   8  -2 458.709 101.753   0
  -5  -8  -2 459.947 95.8596   0
   5  -8   2 479.879 75.8915   1
   5   8   2 487.368 64.8145   2
   5   8   2 583.082 97.4221   0
   5   8   3 855.257 82.1076   1
  -5   8  -3 814.562 116.628   0
   5  -8   3 782.182 89.4580   1
   5   8   3 767.911 106.882   0
  -5   8  -4 157.930 100.184   0
   5   8   4 279.816 71.6907   1
   5   8   4 298.855 87.1339   0
   5  -8   4 289.808 75.2647   1
   5   8   5 3351.72 152.745   1
   5  -8   5 3348.35 159.883   1
  -5   8  -5 2877.49 198.928   0
   5   8   5 3126.51 173.003   0
   5   8   6 34.8516 71.5087   1
   5  -8   6 16.6713 70.1347   1
   5   8   6-29.5082 77.8756   0
   5   8   7 213.612 81.9975   1
   5  -8   7 167.619 76.3266   1
   5   8   7 99.0252 86.1633   0
   5   8   8 46.7185 80.2673   1
   5  -8   8-16.6631 75.5465   1
   5   8   9 822.876 118.131   1
   5  -8   9 766.382 115.976   1
   5   8  10 404.500 114.596   1
   5  -8  10 456.367 98.4567   1
   5   8  11 2247.97 170.335   1
   5  -8  11 2121.99 170.986   1
   5   8  12 1610.16 162.615   1
   5  -8  12 1757.93 155.918   1
  -5   9  14 1805.15 176.376   2
  -5   9  13 1803.81 155.809   2
  -5   9  12 6739.51 255.400   2
  -5  -9  11-60.5878 133.808   0
  -5   9  11-25.9009 82.9549   2
  -5  -9  10 72.7809 118.378   0
  -5   9  10 10.6759 101.773   0
  -5   9  10 188.376 84.8893   2
  -5  -9   9 169.022 102.948   0
  -5   9   9 429.673 88.1120   0
  -5   9   9 309.752 80.9324   2
  -5   9   8 4186.86 207.830   0
  -5   9   8 4293.11 176.443   2
   5   9  -8 4124.58 234.671   0
  -5  -9   8 4179.37 229.403   0
  -5   9   7 2713.15 171.414   0
  -5   9   7 2720.59 137.125   2
   5   9  -7 2650.17 198.502   0
  -5  -9   7 2617.75 191.508   0
  -5   9   6 9162.75 292.128   0
  -5   9   6 9346.56 222.890   2
   5   9  -6 9102.04 328.902   0
  -5  -9   6 9725.93 324.876   0
  -5   9   5 339.222 101.245   0
   5   9  -5 556.301 114.247   0
  -5  -9   5 360.672 98.4362   0
  -5   9   5 424.510 69.3358   2
  -5   9   4 26.4504 79.8137   0
  -5  -9   4 65.1293 78.2246   0
   5   9  -4-61.7618 95.2132   0
  -5   9   4 7.36613 45.7929   2
   5   9  -3 2766.88 182.231   0
  -5  -9   3 2881.49 182.827   0
  -5   9   3 2758.63 113.052   2
  -5   9   3 2826.05 184.417   0
  -5   9   2 383.592 93.8911   0
   5  -9  -2 522.793 76.5303   1
  -5  -9   2 591.238 97.9015   0
   5   9  -2 480.742 100.343   0
  -5  -9   1 3495.70 197.606   0
   5   9  -1 3493.73 197.191   0
   5  -9  -1 3579.41 147.088   1
  -5   9   1 3627.59 208.557   0
  -5   9   0 925.073 125.900   0
   5  -9   0 788.119 87.9038   1
  -5  -9   0 739.801 123.057   0
   5   9   0 736.536 111.805   0
   5   9   0 945.721 85.4137   2
   5   9   0 894.472 71.7115   1
   5   9   1 2419.97 110.807   1
   5   9   1 2199.35 156.457   0
  -5  -9  -1 2350.58 171.204   0
   5  -9   1 2518.94 130.776   1
  -5   9  -1 2196.69 175.513   0
   5   9   1 2158.78 111.025   2
   5   9   2 549.544 71.1398   1
  -5   9  -2 557.954 103.814   0
   5  -9   2 525.374 79.3195   1
  -5  -9  -2 553.035 107.962   0
   5   9   2 607.219 98.6873   0
   5   9   2 577.996 70.6201   2
   5   9   3 2060.40 116.701   1
   5  -9   3 2016.17 126.109   1
  -5   9  -3 1988.86 163.377   0
   5   9   3 1777.65 100.595   2
   5   9   3 1766.03 147.313   0
   5   9   4 138.099 79.0517   0
  -5   9  -4 329.096 109.389   0
   5   9   4 171.286 69.6073   1
   5  -9   4 257.643 75.0430   1
  -5   9  -5-14.8715 111.090   0
   5   9   5-16.3471 68.4549   1
   5  -9   5-55.1006 69.1841   1
   5   9   5-22.9644 83.5201   0
   5   9   6 444.154 86.0438   1
   5  -9   6 452.743 89.4967   1
   5   9   6 436.090 91.9941   0
   5   9   7 148.781 92.2536   0
   5   9   7 200.053 84.3021   1
   5  -9   7 185.386 88.2168   1
   5   9   8 3079.90 175.748   1
   5  -9   8 3207.67 179.785   1
   5  -9   9 52.3308 90.6688   1
   5   9   9 38.7658 89.8523   1
   5   9  10 158.332 99.4381   1
   5  -9  10 114.486 105.774   1
   5   9  11-79.7412 104.333   1
   5  -9  12 2307.69 189.762   1
  -5  10  14 174.893 116.182   2
  -5  10  13 258.416 104.808   2
  -5  10  12 410.248 100.295   2
  -5  10  11 484.130 100.188   2
  -5 -10  10 230.520 125.878   0
  -5  10  10 153.216 81.2096   2
  -5  10   9 10156.7 300.496   0
  -5  10   9 10949.1 286.308   2
  -5 -10   9 10793.3 359.253   0
  -5  10   8 6302.26 210.068   2
  -5  10   8 5816.71 250.609   0
  -5 -10   8 6822.40 292.153   0
  -5  10   7 3693.38 204.325   0
   5  10  -7 3137.61 217.226   0
  -5  10   7 3614.36 158.382   2
  -5 -10   7 3517.33 216.177   0
  -5 -10   6 151.235 101.611   0
   5  10  -6 160.518 95.6598   0
  -5  10   6 165.236 65.5541   2
  -5  10   6 17.9030 88.3414   0
  -5  10   5 2226.39 118.352   2
  -5  10   5 2249.46 173.042   0
   5  10  -5 2504.02 186.538   0
  -5 -10   5 2223.42 173.617   0
  -5  10   4 7388.92 186.902   2
  -5  10   4 7343.29 282.158   0
   5  10  -4 7520.11 295.784   0
  -5 -10   4 7349.19 295.995   0
  -5  10   3 15792.0 254.266   2
  -5  10   3 16688.0 414.510   0
   5  10  -3 16251.8 415.905   0
  -5 -10   3 16636.1 420.667   0
  -5  10   2 309.911 98.9610   0
   5  10  -2 401.402 104.945   0
  -5 -10   2 376.587 93.7610   0
   5 -10  -2 407.024 76.1208   1
   5 -10  -1 4553.84 168.906   1
  -5  10   1 4432.12 234.939   0
   5  10  -1 4254.35 161.654   2
   5  10  -1 4711.33 232.298   0
  -5 -10   1 4565.60 229.284   0
   5 -10   0 5296.10 182.605   1
  -5  10   0 5444.91 256.632   0
   5  10   0 5292.34 171.386   2
   5  10   0 5757.93 251.941   0
  -5 -10   0 5081.78 239.142   0
   5  10   1 772.621 117.246   0
  -5  10  -1 682.677 121.730   0
   5 -10   1 757.137 93.3423   1
   5  10   1 788.632 82.5449   2
   5  10   1 664.012 70.4756   1
  -5 -10  -1 907.744 117.855   0
  -5  10  -2 35.4696 102.340   0
  -5 -10  -2 46.9116 95.5775   0
   5  10   2 52.9457 57.5687   1
   5 -10   2 1.77398 63.0394   1
   5  10   2-0.62762 48.3764   2
   5  10   2 0.42869 83.3144   0
   5 -10   3 2481.07 140.486   1
  -5  10  -3 2336.04 197.017   0
   5  10   3 2631.60 125.006   2
   5  10   3 2977.69 182.910   0
   5  10   3 2810.88 136.347   1
   5  10   4 4081.91 167.511   1
   5 -10   4 4125.33 175.396   1
   5  10   4 3852.18 199.853   0
  -5  10  -4 3925.78 230.662   0
   5  10   5 4224.09 176.066   1
   5 -10   5 4774.08 193.939   1
   5  10   5 4096.39 206.465   0
  -5  10  -5 4089.71 254.736   0
   5  10   6 150.167 94.7277   0
   5  10   6 194.636 84.8073   1
   5 -10   6 243.771 81.4939   1
   5  10   7 186.548 86.9269   1
   5 -10   7 188.668 87.0153   1
   5  10   8 6.68881 87.2440   1
   5 -10   8 75.1248 80.9660   1
   5  10   9 549.457 117.017   1
   5 -10   9 447.048 99.5108   1
   5  10  10-14.6332 94.2432   1
   5 -10  10 126.919 90.8227   1
   5 -10  11 2617.45 178.623   1
   5  10  11 3023.51 205.864   1
  -5  11  13 20.4427 123.802   2
  -5  11  12 933.678 126.025   2
  -5  11  11 2653.49 173.923   2
  -5  11  10 2151.32 155.135   2
  -5 -11   9-71.9725 134.881   0
  -5  11   9-7.72616 82.5085   2
  -5  11   9 49.9407 116.748   0
  -5 -11   8 751.053 128.893   0
  -5  11   8 790.024 96.9921   2
  -5  11   8 561.474 113.107   0
   5  11  -7 1858.98 179.344   0
  -5  11   7 1699.51 155.636   0
  -5  11   7 1867.50 125.051   2
  -5 -11   7 2037.59 175.525   0
  -5  11   6 318.503 99.7443   0
  -5 -11   6 218.907 106.702   0
   5  11  -6 176.391 121.094   0
  -5  11   6 300.762 73.1202   2
   5  11  -5 4875.48 255.203   0
  -5  11   5 4964.28 170.431   2
  -5  11   5 5462.92 252.584   0
  -5 -11   5 4887.32 252.299   0
  -5  11   4-8.34473 88.2879   0
  -5 -11   4-153.046 98.5388   0
   5  11  -4 10.6661 95.8491   0
  -5  11   4-30.9861 52.1357   2
  -5  11   3 227.746 101.910   0
  -5 -11   3 162.516 89.3102   0
   5  11  -3 163.961 90.5449   0
  -5  11   3 229.737 57.0307   2
   5 -11  -2 2072.01 126.864   1
  -5  11   2 2054.02 174.765   0
   5  11  -2 2206.47 182.037   0
  -5 -11   2 2121.95 169.559   0
   5 -11  -1 2607.54 141.813   1
  -5  11   1 2434.74 189.675   0
   5  11  -1 2630.67 188.468   0
   5  11  -1 2728.05 139.018   2
  -5 -11   1 2638.15 186.150   0
   5 -11   0 2514.14 138.525   1
   5  11   0 2293.93 180.923   0
  -5  11   0 2250.16 182.509   0
   5  11   0 2223.10 129.977   2
  -5 -11   0 2087.47 171.268   0
  -5  11  -1 93.0662 109.503   0
  -5 -11  -1 136.145 97.0273   0
   5  11   1 148.982 58.0726   1
   5 -11   1 114.572 72.3751   1
   5  11   1 92.1969 88.6497   0
   5  11   1 75.9386 67.5968   2
  -5  11  -2 88.8216 97.7930   0
   5  11   2 107.498 60.9254   1
   5 -11   2 66.1655 71.9993   1
   5  11   2 175.805 91.1416   0
   5  11   2 128.747 64.8772   2
  -5  11  -3 625.179 123.955   0
   5  11   3 552.058 81.4259   1
   5  11   3 538.093 101.293   0
   5 -11   3 662.675 93.9511   1
   5  11   3 493.337 73.8515   2
  -5  11  -4 606.013 141.615   0
   5 -11   4 873.980 102.210   1
   5  11   4 720.769 115.843   0
   5  11   4 905.316 97.1292   1
  -5  11  -5 23.5362 133.231   0
   5  11   5 30.7139 99.6283   0
   5  11   5 13.0132 75.3345   1
   5 -11   5 24.0452 73.8035   1
   5 -11   6 4544.45 203.106   1
   5  11   6 4271.12 211.412   0
   5  11   6 4500.17 196.309   1
   5 -11   7 2432.39 164.595   1
   5  11   7 2351.05 160.416   1
   5  11   8 697.036 107.963   1
   5 -11   8 763.406 112.636   1
   5 -11   9 1139.96 127.698   1
   5  11   9 1176.82 143.527   1
   5  11  10 605.695 126.092   1
   5 -11  10 635.356 118.729   1
   5 -11  11 1087.51 131.298   1
  -5  12  12 125.017 102.053   2
  -5  12  11 6.67437 98.2398   2
  -5  12  10 267.465 94.9678   2
  -5  12   9 1013.22 115.395   2
  -5  12   9 734.370 132.704   0
  -5  12   8 2334.66 184.889   0
  -5  12   8 2612.69 153.362   2
  -5 -12   8 2623.08 205.796   0
   5  12  -7 1966.53 203.416   0
  -5  12   7 2312.97 175.487   0
  -5  12   7 2253.35 146.266   2
  -5 -12   7 2388.47 199.936   0
  -5  12   6 142.983 104.960   0
  -5 -12   6 70.0634 113.035   0
   5  12  -6-11.9015 119.382   0
  -5  12   6 58.6233 64.8433   2
  -5  12   5 806.491 125.676   0
  -5 -12   5 668.862 126.711   0
   5  12  -5 779.887 135.235   0
  -5  12   5 763.337 89.9091   2
  -5  12   4 789.269 134.222   0
  -5 -12   4 537.724 118.426   0
   5  12  -4 730.637 137.798   0
  -5  12   4 591.580 79.6213   2
   5  12  -3 1650.84 169.082   0
  -5  12   3 1662.74 165.109   0
  -5 -12   3 1744.15 166.505   0
   5  12  -2 3410.93 227.186   0
  -5  12   2 3945.98 238.331   0
   5  12  -2 3730.62 170.252   2
  -5 -12   2 3489.04 228.483   0
   5 -12  -1 3904.78 170.840   1
   5  12  -1 4050.66 230.589   0
  -5  12   1 3759.91 226.130   0
   5  12  -1 3948.84 173.371   2
  -5 -12   1 3712.20 224.647   0
  -5 -12   0 55.5019 112.534   0
  -5  12   0 40.3538 97.4872   0
   5  12   0-87.8046 103.126   0
   5 -12   0 85.0444 71.8807   1
   5  12   0 63.1524 68.3631   2
  -5 -12  -1 181.057 109.006   0
  -5  12  -1 227.080 123.392   0
   5  12   1 290.250 100.212   0
   5 -12   1 224.072 75.9953   1
   5  12   1 211.904 79.9450   2
  -5  12  -2 613.574 125.319   0
   5  12   2 560.853 80.1286   1
   5  12   2 618.192 124.126   0
   5 -12   2 520.609 94.2342   1
   5  12   2 683.338 89.3335   2
   5 -12   3 699.629 96.4017   1
   5  12   3 583.237 103.456   0
  -5  12  -3 581.432 115.890   0
   5  12   3 544.574 83.1741   2
   5  12   3 650.172 85.5016   1
   5 -12   4 5083.50 202.873   1
   5  12   4 5436.36 243.334   0
  -5  12  -4 4980.46 287.646   0
   5  12   4 5563.96 196.497   1
   5  12   5 210.755 111.719   0
   5  12   5 253.046 77.0422   1
   5 -12   5 387.594 91.3724   1
   5  12   6 4454.41 215.615   0
   5 -12   6 4797.28 215.946   1
   5  12   6 5084.87 212.622   1
   5 -12   7 2031.90 153.125   1
   5  12   7 2061.89 153.087   1
   5 -12   8 4009.37 209.024   1
   5  12   8 4409.32 216.189   1
   5  12   9 200.447 103.986   1
   5 -12   9 156.574 97.4680   1
   5 -12  10 3007.81 190.020   1
   5  12  10 3106.64 200.455   1
  -5  13  12 102.669 108.211   2
  -5  13  11 48.7382 111.131   2
  -5  13  10 2388.52 169.971   2
  -5  13   9 447.251 93.4367   2
  -5  13   8 189.053 90.2182   2
  -5  13   8 17.9341 130.165   0
   5  13  -7 4002.87 277.340   0
  -5  13   7 4278.59 239.306   0
  -5  13   7 4205.50 190.607   2
  -5 -13   7 4370.17 262.444   0
  -5  13   6 344.584 124.401   0
  -5 -13   6 560.492 131.440   0
   5  13  -6 204.322 152.168   0
  -5  13   6 537.778 80.5749   2
   5  13  -5 13281.8 424.908   0
  -5  13   5 12971.5 280.832   2
  -5  13   5 13401.1 403.467   0
  -5 -13   5 13480.5 433.298   0
  -5  13   4 432.805 121.666   0
  -5 -13   4 162.465 113.372   0
   5  13  -4 388.552 120.918   0
  -5  13   4 608.171 78.4772   2
   5  13  -3 1903.79 184.060   0
  -5  13   3 1530.93 177.242   0
   5  13  -3 1800.41 141.756   2
  -5 -13   3 2162.12 184.683   0
  -5 -13   2 158.019 113.306   0
  -5  13   2 51.1466 118.422   0
   5  13  -2 220.720 106.454   0
   5  13  -2 118.637 78.4196   2
   5 -13  -1 7783.27 240.862   1
   5  13  -1 7689.07 314.253   0
  -5  13   1 7221.59 320.579   0
   5  13  -1 7743.01 235.073   2
  -5 -13   1 7097.02 322.335   0
   5 -13   0 3667.70 171.609   1
   5  13   0 3903.13 231.171   0
  -5  13   0 3648.03 242.122   0
   5  13   0 3697.77 170.442   2
  -5 -13   0 3492.52 223.381   0
   5 -13   1 2047.08 144.515   1
   5  13   1 1705.95 171.369   0
   5  13   1 2147.69 140.785   2
  -5  13  -1 1826.47 197.606   0
   5  13   2-33.0823 113.836   0
  -5  13  -2 82.2886 132.435   0
   5 -13   2-17.8117 69.8185   1
   5  13   2 55.2470 68.0234   2
   5  13   3-36.3794 110.539   0
  -5  13  -3-10.0193 143.954   0
   5  13   3-10.0315 67.2549   1
   5 -13   3-205.639 86.8188   1
   5  13   3 0.67949 67.4381   2
  -5  13  -4 44.5576 166.870   0
   5  13   4 1.19501 75.8884   1
   5 -13   4 21.2410 71.4942   1
   5  13   4-50.9907 72.5154   2
   5  13   4-7.63874 120.433   0
   5  13   5 260.395 83.7753   1
   5 -13   5 338.928 86.8700   1
   5  13   5 265.497 126.705   0
   5  13   6 13.5660 80.6946   1
   5 -13   6-6.65760 80.1444   1
   5 -13   7 2025.71 153.744   1
   5  13   7 1936.56 149.939   1
   5 -13   8 1567.61 150.413   1
   5  13   8 1481.54 147.437   1
   5  13   9 1047.78 145.013   1
   5 -13   9 1032.33 130.096   1
  -5  14  11 186.386 116.735   2
  -5  14  10 4716.65 229.570   2
  -5  14   9 1689.88 144.729   2
  -5  14   8 8036.41 262.258   2
  -5  14   7 182.883 140.828   0
  -5  14   7 180.745 80.3652   2
   5  14  -7 107.728 173.161   0
  -5  14   6 413.562 136.590   0
  -5 -14   6 670.027 155.761   0
  -5  14   6 415.878 84.7163   2
   5  14  -6 307.830 177.936   0
  -5 -14   5 1230.17 182.532   0
   5  14  -5 1629.96 183.973   0
  -5  14   5 1287.37 113.389   2
  -5  14   5 1423.21 178.054   0
   5  14  -4 5094.13 281.819   0
  -5  14   4 4783.78 181.058   2
  -5  14   4 4815.17 275.418   0
   5  14  -4 5063.96 212.753   2
  -5 -14   4 5245.64 291.098   0
   5  14  -3 825.636 137.019   0
  -5 -14   3 1102.33 157.523   0
  -5  14   3 1047.09 154.790   0
   5  14  -3 995.391 116.562   2
   5  14  -2 426.144 141.303   0
  -5 -14   2 552.526 142.328   0
  -5  14   2 653.242 126.097   0
   5  14  -2 680.127 105.929   2
   5  14  -1 2269.05 198.620   0
   5 -14  -1 2644.66 161.406   1
  -5  14   1 2681.72 222.435   0
   5  14  -1 2388.38 158.385   2
  -5 -14   1 2745.66 214.056   0
   5  14   0 90.8318 115.570   0
  -5 -14   0 98.6151 137.786   0
  -5  14   0-225.533 140.157   0
   5 -14   0 38.0617 73.0987   1
   5  14   0 40.0107 80.5936   2
   5  14   1 1982.57 179.760   0
   5 -14   1 2132.10 144.913   1
   5  14   1 2071.01 141.983   2
  -5  14  -1 2077.46 194.917   0
   5  14   2 209.304 124.838   0
  -5  14  -2 121.590 157.678   0
   5 -14   2 201.712 90.3275   1
   5  14   2 278.735 93.5841   2
  -5  14  -3 35.5637 167.156   0
   5 -14   3 46.1173 73.8827   1
   5  14   3 48.8514 78.7294   2
   5  14   3 31.9534 132.528   0
  -5  14  -4 7.13614 168.615   0
   5 -14   4 91.7904 78.2844   1
   5  14   4 107.924 132.347   0
   5  14   4-17.2663 84.2310   2
   5 -14   5 769.576 104.397   1
   5  14   5 719.323 105.306   1
   5  14   6 491.582 95.3823   1
   5 -14   6 670.408 116.784   1
   5  14   7-61.9316 101.266   1
   5 -14   7 82.0244 92.2504   1
   5  14   8-1.84962 112.935   1
   5 -14   8 2.24640 101.793   1
   5 -14   9 1671.80 163.577   1
  -5  15  10 268.038 116.855   2
  -5  15   9 42.3443 107.140   2
  -5  15   8 116.069 97.0310   2
  -5  15   7 62.4298 89.2050   2
  -5  15   6 2778.07 159.772   2
  -5  15   5 535.459 90.3448   2
   5  15  -5 351.384 181.009   0
   5  15  -5 534.727 114.683   2
  -5 -15   4 1097.46 178.271   0
  -5  15   4 1389.96 172.491   0
   5  15  -4 1256.88 132.751   2
   5  15  -4 914.559 172.215   0
   5  15  -3 3409.20 251.553   0
  -5  15   3 3434.36 249.825   0
   5  15  -3 3249.01 183.726   2
  -5 -15   3 2947.57 238.067   0
   5  15  -2 1463.68 178.919   0
  -5  15   2 1530.67 191.592   0
   5  15  -2 1517.59 137.491   2
  -5 -15   2 1519.86 178.796   0
   5  15  -1 3967.43 252.288   0
   5 -15  -1 4323.94 205.481   1
  -5  15   1 4143.81 267.612   0
   5  15  -1 3844.24 187.769   2
  -5 -15   1 3573.31 260.049   0
   5  15   0 3612.30 238.714   0
   5 -15   0 3603.82 191.440   1
   5  15   0 3381.54 180.482   2
  -5  15   0 3078.41 242.613   0
   5 -15   1 983.092 115.145   1
  -5  15  -1 543.154 175.735   0
   5  15   1 982.025 119.297   2
   5  15   1 754.917 148.834   0
   5 -15   2 4905.60 213.802   1
   5  15   2 4771.18 198.418   2
  -5  15  -2 4261.84 295.583   0
  -5  15  -3 141.651 194.077   0
   5 -15   3-45.2114 87.4704   1
   5  15   3-51.7638 84.1449   2
   5 -15   4 63.2500 85.5943   1
   5  15   4 176.841 88.8210   2
   5 -15   5 17.6829 84.5702   1
   5 -15   6 1819.35 154.116   1
   5 -15   7 245.566 104.183   1
   5 -15   8-23.9472 112.426   1
  -5  16   9 3671.81 200.648   2
  -5  16   8-36.2245 106.695   2
  -5  16   7 86.0153 102.225   2
  -5  16   6 198.693 94.6518   2
   5  16  -6 131.863 112.408   2
   5  16  -5 4409.39 223.726   2
   5  16  -4 158.225 98.4429   2
   5  16  -3 8027.53 284.755   2
  -5 -16   2 75.2092 189.860   0
   5 -16  -2 159.395 79.4897   1
   5  16  -2-36.5956 95.6469   2
   5 -16  -1 183.883 87.6295   1
   5  16  -1 192.760 101.646   2
   5 -16   0 907.427 116.814   1
   5  16   0 977.033 119.598   2
   5 -16   1 4103.83 201.943   1
   5  16   1 3903.60 196.222   2
   5 -16   2-26.6578 89.0163   1
   5  16   2-93.1419 95.2375   2
   5 -16   3 1175.51 134.137   1
   5  16   3 1048.11 120.020   2
   5 -16   4 235.095 91.0624   1
   5  16   4 387.383 102.023   2
   5 -16   5 1125.21 123.653   1
   5 -16   6 1876.83 163.062   1
   5 -16   7 1390.02 156.860   1
  -5  17   8 1157.13 145.305   2
   5  17  -8 1261.25 174.444   2
  -5  17   7 68.0312 120.654   2
   5  17  -7 232.456 114.789   2
  -5  17   6 1642.90 152.678   2
   5  17  -6 2066.85 184.773   2
   5  17  -5 2548.87 185.519   2
   5  17  -4-129.457 113.371   2
   5  17  -3 2909.93 192.216   2
   5 -17  -2 109.101 89.8449   1
   5  17  -2 73.7673 104.341   2
   5 -17  -1 1105.24 134.966   1
   5  17  -1 955.926 133.805   2
   5 -17   0 3690.31 202.010   1
   5  17   0 3872.85 209.812   2
   5 -17   1 1106.82 137.891   1
   5  17   1 1067.51 139.208   2
   5 -17   2 286.446 99.1611   1
   5  17   2 176.071 103.013   2
   5 -17   3 1071.02 133.727   1
   5  17   3 869.145 126.733   2
   5 -17   4-211.430 105.885   1
   5  17   4-75.5512 119.500   2
   5 -17   5 561.816 101.785   1
   5  18  -6 3801.76 240.583   2
   5  18  -5 128.900 120.105   2
   5  18  -4 1000.68 150.336   2
   5  18  -3 1110.27 148.494   2
   5 -18  -2 413.148 105.372   1
   5  18  -2 171.789 115.009   2
   5 -18  -1 632.341 120.025   1
   5  18  -1 501.089 128.584   2
   5 -18   0 589.246 113.105   1
   5  18   0 645.216 138.998   2
   5 -18   1 909.694 143.065   1
   5  18   1 935.263 126.628   2
   5 -18   2 1265.32 131.957   1
   5  18   2 998.331 126.150   2
   5 -18   3 375.534 106.387   1
   5  18   3 381.311 130.113   2
   5  19  -3 1154.58 169.439   2
   5 -19  -2 192.843 109.228   1
   5  19  -2 284.237 121.010   2
   5 -19  -1 1755.34 173.232   1
   5  19  -1 1672.86 185.756   2
   5 -19   0 686.677 118.990   1
   5  19   0 309.666 132.400   2
   5  19   1 2023.91 181.085   2
  -6   0  11 143.687 103.509   0
  -6   0   9 12.6751 90.5241   0
  -6   0   8 9172.55 302.515   0
  -6   0   7 4.22124 81.2477   0
  -6   0   6 1272.69 129.841   0
  -6   0   5 135.014 77.6057   0
  -6   0   4 1485.46 137.242   0
  -6   0   3 49.6852 76.0513   0
   6   0  -2 8185.41 168.678   1
  -6   0   2 8826.24 290.572   0
   6   0  -1-12.7713 47.0431   1
  -6   0   1 20.2808 76.9400   0
   6   0   0 1716.40 96.0490   1
  -6   0   0 1603.45 139.359   0
   6   0   1-41.1073 50.1700   1
  -6   0  -1-52.7781 85.3883   0
   6   0   2 2331.16 117.777   1
  -6   0  -2 2216.29 163.086   0
   6   0   3 14.0796 58.7227   1
  -6   0  -3-54.0251 92.8687   0
   6   0   4 1384.25 113.679   1
   6   0   5-7.23045 67.1415   1
   6   0   6 11227.5 278.884   1
   6   0   7 1.29492 69.0180   1
   6   0   8 566.547 100.937   1
   6   0   9 3.74355 93.0373   1
   6   0  10 2344.35 178.817   1
   6   0  11-33.7612 95.3546   1
   6   0  12 2838.26 195.748   1
  -6  -1  12 859.083 126.036   0
  -6  -1  11 1070.40 122.226   0
  -6   1  11 791.945 121.909   0
  -6  -1  10 8612.93 294.549   0
  -6   1  10 7929.40 283.899   0
  -6  -1   9 1734.73 149.235   0
  -6   1   9 1644.27 152.540   0
  -6  -1   8 646.088 108.343   0
  -6   1   8 671.495 107.966   0
  -6   1   7 966.222 128.750   0
  -6  -1   7 1004.00 125.268   0
  -6  -1   6-183.176 78.8889   0
  -6   1   6-109.265 81.9346   0
  -6  -1   5 3443.69 190.700   0
  -6   1   5 3345.92 191.145   0
  -6  -1   4 6469.46 257.569   0
  -6   1   4 5968.88 242.577   0
   6  -1  -3 3754.95 117.128   1
  -6  -1   3 4065.94 207.518   0
  -6   1   3 4027.12 208.834   0
  -6   1   3 3717.90 150.360   3
   6   1  -2 1249.06 73.6620   1
   6  -1  -2 1298.58 80.4527   1
  -6  -1   2 1388.03 136.506   0
  -6   1   2 1402.87 135.337   0
   6   1  -1 162.863 46.3274   1
   6  -1  -1 148.934 51.3164   1
  -6  -1   1 231.991 85.3816   0
  -6   1   1 134.576 84.0331   0
   6   1   0-7.53353 47.4416   1
   6  -1   0 8.85792 48.5059   1
  -6  -1   0 18.3402 82.1270   0
  -6   1   0 28.3923 77.1667   0
   6   1   1 1729.66 100.987   1
   6  -1   1 1629.55 98.5084   1
  -6  -1  -1 1745.12 145.244   0
  -6   1  -1 1743.18 146.677   0
   6   1   2 339.666 64.5815   1
   6  -1   2 274.802 67.1791   1
  -6  -1  -2 357.958 96.3382   0
  -6   1  -2 306.086 100.200   0
   6   1   3 1503.26 105.707   1
   6  -1   3 1485.65 105.998   1
  -6  -1  -3 1436.25 141.845   0
  -6   1  -3 1261.00 136.598   0
   6   1   4 18.8601 61.9162   1
   6  -1   4 2.98731 60.2161   1
   6   1   5 1588.42 120.530   1
   6  -1   5 1884.75 129.382   1
   6   1   6 543.903 95.4202   1
   6  -1   6 523.198 90.7420   1
   6   1   7 13.0636 77.2739   1
   6  -1   7 153.209 81.2067   1
   6   1   8-29.5642 88.6572   1
   6  -1   8 58.3989 72.6642   1
   6   1   9 6020.61 241.490   1
   6  -1   9 6206.34 241.974   1
   6   1  10-38.7166 100.262   1
   6  -1  10 63.0193 96.2581   1
   6   1  11 344.825 114.250   1
   6  -1  11 292.375 109.873   1
   6   1  12-4.71404 118.715   1
   6  -1  12 11.5545 108.758   1
  -6  -2  12 2501.06 176.713   0
  -6  -2  11 1145.65 128.665   0
  -6   2  11 1277.09 122.856   0
  -6  -2  10 477.861 102.417   0
  -6   2  10 572.020 98.6031   0
  -6  -2   9 2558.26 171.943   0
  -6   2   9 2567.62 172.500   0
  -6  -2   8 1123.27 128.405   0
  -6   2   8 1206.60 129.771   0
  -6  -2   7 3358.90 194.326   0
  -6   2   7 3283.95 193.590   0
  -6  -2   6 434.410 101.063   0
  -6   2   6 383.510 94.1246   0
  -6  -2   5 1085.90 121.010   0
  -6   2   5 842.556 117.538   0
  -6  -2   4 338.421 93.9613   0
  -6   2   4 288.951 87.5756   0
   6  -2  -3 3913.66 124.314   1
  -6  -2   3 4039.83 210.673   0
  -6   2   3 3976.05 201.479   0
  -6   2   3 3902.67 149.432   3
   6  -2  -2 3446.95 123.356   1
  -6  -2   2 3384.06 193.145   0
  -6   2   2 3507.38 191.860   0
  -6  -2   2 3676.87 147.949   3
   6   2  -1 10942.8 196.837   1
   6  -2  -1 10285.8 206.126   1
  -6  -2   1 10364.3 320.131   0
  -6   2   1 10562.3 320.582   0
   6   2   0 12651.3 224.773   1
   6  -2   0 12853.3 237.225   1
  -6  -2   0 12820.4 352.743   0
  -6   2   0 12297.3 342.424   0
   6   2   1 917.166 81.6686   1
   6  -2   1 899.568 84.7818   1
  -6  -2  -1 1027.62 123.820   0
  -6   2  -1 1007.14 119.198   0
   6   2   2 1163.60 91.9097   1
   6  -2   2 1192.60 98.2611   1
  -6  -2  -2 1456.84 137.203   0
  -6   2  -2 1364.79 135.976   0
   6   2   3 354.543 68.4360   1
   6  -2   3 181.066 69.3033   1
  -6  -2  -3 325.978 93.3431   0
  -6   2  -3 279.537 87.9081   0
   6   2   4 472.766 79.8579   1
   6  -2   4 473.560 82.2935   1
  -6   2  -4 419.327 101.070   0
   6   2   5 6792.72 209.776   1
   6  -2   5 6627.86 212.286   1
   6   2   6 3414.24 163.694   1
   6  -2   6 3403.47 168.560   1
   6   2   7 5058.23 202.961   1
   6  -2   7 4999.53 208.687   1
   6   2   8 2054.71 150.157   1
   6  -2   8 1972.20 152.508   1
   6   2   9 715.122 124.860   1
   6  -2   9 569.230 119.000   1
   6   2  10 2584.03 179.029   1
   6  -2  10 3074.72 194.627   1
   6   2  11 1188.74 149.367   1
   6  -2  11 1109.74 148.627   1
   6   2  12 81.9807 115.416   1
   6  -2  12 149.763 115.598   1
  -6  -3  12 8918.82 294.037   0
  -6  -3  11 1236.49 141.514   0
  -6   3  11 1028.35 118.022   0
  -6   3  10 899.478 113.034   0
  -6  -3  10 816.619 121.151   0
  -6  -3   9 1616.03 146.344   0
  -6   3   9 1367.33 134.095   0
  -6  -3   8 160.358 91.1036   0
  -6   3   8 188.717 87.2256   0
  -6  -3   7 4978.02 234.385   0
  -6   3   7 4835.01 226.523   0
  -6  -3   6 484.126 110.787   0
  -6   3   6 316.343 96.1449   0
  -6  -3   5 13.5041 80.2998   0
  -6   3   5 37.5245 79.0852   0
  -6  -3   4 1278.83 131.391   0
   6  -3  -4 1338.69 76.3387   1
  -6   3   4 1068.39 126.937   0
  -6  -3   3 1896.43 154.387   0
   6  -3  -3 1935.69 94.1119   1
  -6   3   3 1467.89 147.806   0
  -6   3   3 1887.69 115.085   3
  -6  -3   2 4133.50 207.523   0
   6  -3  -2 4268.61 136.420   1
  -6   3   2 4387.35 218.284   0
  -6  -3   2 3689.07 153.304   3
   6   3  -1 231.298 51.4491   1
   6  -3  -1 227.326 58.2991   1
  -6  -3   1 174.286 89.7338   0
  -6   3   1 210.535 77.4567   0
   6   3   0 9891.19 197.809   1
   6  -3   0 10148.8 217.348   1
  -6  -3   0 10532.4 324.517   0
  -6   3   0 9861.12 310.990   0
   6   3   1 2643.13 117.043   1
   6  -3   1 2656.17 127.298   1
  -6  -3  -1 2756.66 183.405   0
  -6   3  -1 2622.62 175.878   0
   6   3   2 11794.8 237.698   1
   6  -3   2 11884.8 252.378   1
  -6  -3  -2 11738.5 340.668   0
  -6   3  -2 11612.4 340.858   0
   6   3   3 562.758 79.7958   1
   6  -3   3 561.127 84.4093   1
  -6  -3  -3 601.496 111.122   0
  -6   3  -3 574.450 105.864   0
   6   3   4 16286.0 305.697   1
   6  -3   4 16135.9 312.857   1
  -6   3  -4 15996.6 411.505   0
   6   3   5 68.2601 71.1065   1
   6  -3   5-6.07007 66.9002   1
   6   3   6 84.9555 79.0906   1
   6  -3   6 160.327 76.6718   1
   6   3   7-39.7700 79.2154   1
   6  -3   7 115.855 79.2455   1
   6   3   8 3505.35 186.519   1
   6  -3   8 3804.39 191.451   1
   6   3   9 130.273 95.3599   1
   6  -3   9 54.7555 89.8181   1
   6   3  10 1233.43 148.713   1
   6  -3  10 1442.64 139.294   1
   6   3  11-80.2545 109.830   1
   6  -3  11 11.3795 110.074   1
  -6  -4  12 105.116 145.323   0
  -6  -4  11-61.2279 120.678   0
  -6   4  11 114.242 118.320   0
  -6  -4  10-20.1102 108.645   0
  -6   4  10 21.6860 66.8096   2
  -6   4  10 1.00387 108.663   0
  -6  -4   9 2460.48 180.853   0
  -6   4   9 2526.69 176.352   0
  -6   4   9 2760.73 142.965   2
  -6  -4   8 3777.31 216.830   0
  -6   4   8 3515.68 198.509   0
  -6   4   8 3555.02 153.216   2
  -6  -4   7 6595.85 266.129   0
  -6   4   7 6276.48 255.745   0
  -6   4   7 6667.67 193.783   2
  -6  -4   6 91.6106 85.7933   0
  -6   4   6 110.913 82.5627   0
  -6   4   6 105.176 53.4161   2
  -6  -4   5 16.5536 82.1237   0
  -6   4   5 37.1305 44.8283   2
  -6   4   5 7.42309 81.4812   0
  -6  -4   4-45.8315 82.9334   0
   6  -4  -4-20.0970 41.5647   1
  -6   4   4 20.8154 87.3046   0
  -6   4   3 18.8975 58.5705   3
   6  -4  -3 61.9456 45.5217   1
  -6   4   3 3.20418 76.9538   0
  -6  -4   2 14.8823 78.7125   0
   6  -4  -2 48.2325 45.9918   1
  -6   4   2 116.570 87.8781   0
  -6  -4   1 2322.55 171.330   0
   6  -4  -1 2312.17 113.357   1
  -6   4   1 2299.90 168.659   0
   6   4   0 7777.27 175.304   1
  -6  -4   0 8204.02 287.878   0
   6  -4   0 7779.29 198.945   1
  -6   4   0 7264.30 277.506   0
   6   4   1 4984.22 151.766   1
  -6  -4  -1 4777.17 231.636   0
   6  -4   1 4772.03 164.483   1
  -6   4  -1 4892.72 230.774   0
   6   4   2 2514.75 120.873   1
  -6  -4  -2 2565.39 178.840   0
   6  -4   2 2361.83 126.692   1
  -6   4  -2 2304.67 171.048   0
   6   4   3 2209.36 123.011   1
  -6  -4  -3 2072.59 161.306   0
   6  -4   3 2251.83 127.892   1
  -6   4  -3 2289.65 175.562   0
   6   4   4 1704.78 116.664   1
   6  -4   4 1811.08 126.033   1
  -6   4  -4 1574.65 157.450   0
   6   4   5 5233.29 191.894   1
   6  -4   5 5883.06 206.701   1
   6   4   6 1686.94 126.294   1
   6  -4   6 1618.07 129.224   1
   6   4   7 4079.97 187.378   1
   6  -4   7 4170.09 195.093   1
   6   4   7 3860.37 200.821   0
   6   4   8 380.056 89.0907   1
   6  -4   8 162.794 92.9961   1
   6   4   9 1077.68 127.660   1
   6  -4   9 1135.83 137.127   1
   6   4  10 56.4865 100.166   1
   6  -4  10 85.4668 88.1267   1
   6   4  11 10471.0 342.621   1
   6  -4  11 10044.9 343.209   1
  -6   5  12-55.6922 82.5589   2
  -6   5  11 4840.67 221.591   0
  -6   5  11 5877.88 227.157   2
  -6  -5  11 5960.14 269.592   0
  -6   5  10 2854.18 175.402   0
  -6   5  10 2926.98 158.985   2
  -6  -5  10 2569.45 191.417   0
  -6  -5   9 120.616 102.182   0
  -6   5   9 206.618 97.2539   0
  -6   5   9 242.957 80.2058   2
  -6  -5   8 2033.72 167.868   0
  -6   5   8 1673.35 145.190   0
  -6   5   8 1794.01 118.817   2
  -6  -5   7 2948.69 198.562   0
  -6   5   7 3242.99 195.344   0
  -6   5   7 3482.86 146.754   2
   6   5  -7 3249.86 215.469   0
   6   5  -6 289.587 102.173   0
  -6  -5   6 81.9917 86.0111   0
  -6   5   6 126.492 88.8585   0
  -6   5   6 175.668 55.3351   2
   6  -5  -5 3637.65 128.115   1
  -6   5   5 3440.22 196.161   0
  -6   5   5 3637.74 133.844   2
  -6  -5   4 5503.28 250.370   0
   6  -5  -4 5502.52 156.905   1
  -6   5   4 5603.38 244.923   0
  -6   5   4 5270.66 149.081   2
  -6  -5   3 107.679 84.1365   0
  -6   5   3-7.16673 60.6742   3
   6  -5  -3 5.71520 45.3069   1
  -6   5   3 63.2795 75.7367   0
  -6  -5   2 481.510 105.002   0
   6  -5  -2 426.863 65.8534   1
  -6   5   2 449.082 103.526   0
  -6  -5   1 409.087 98.3253   0
  -6  -5   1 431.734 79.3817   3
   6  -5  -1 425.720 65.6289   1
  -6   5   1 488.396 110.237   0
   6   5   0 693.804 67.2698   1
  -6  -5   0 601.442 109.358   0
   6  -5   0 589.505 78.9889   1
  -6   5   0 663.759 109.378   0
   6   5   1 2149.74 109.701   1
  -6  -5  -1 2315.81 169.310   0
   6  -5   1 2190.61 121.973   1
  -6   5  -1 2192.43 163.390   0
   6   5   2 24.3096 58.5441   1
  -6  -5  -2 161.524 91.7400   0
   6  -5   2 103.829 64.7210   1
  -6   5  -2 255.167 100.305   0
   6   5   3 13670.5 269.390   1
   6  -5   3 13249.4 283.368   1
  -6   5  -3 12536.3 369.405   0
   6   5   4 1086.15 97.9128   1
   6  -5   4 1023.74 105.461   1
  -6   5  -4 884.767 123.427   0
   6   5   5 471.664 85.9778   1
   6  -5   5 570.385 100.321   1
   6   5   6 112.962 77.9018   1
   6  -5   6 92.4802 83.2852   1
   6   5   6 182.734 94.3009   0
   6   5   7 1002.30 118.852   1
   6  -5   7 1527.48 128.680   1
   6   5   7 950.543 110.083   0
   6   5   8 315.971 95.5765   1
   6  -5   8 345.628 100.827   1
   6   5   9 4259.32 215.201   1
   6  -5   9 4626.23 224.197   1
   6   5  10 257.871 112.812   1
   6  -5  10 327.022 102.022   1
   6   5  11 751.601 143.973   1
   6  -5  11 724.428 121.443   1
  -6   6  13 182.525 106.606   2
  -6   6  12 283.827 83.1028   2
  -6  -6  11 40.6598 135.125   0
  -6   6  11 184.095 97.4859   2
  -6  -6  10 800.123 131.484   0
  -6   6  10 878.732 100.532   2
  -6   6  10 729.287 114.620   0
  -6   6   9 3488.84 207.841   0
  -6   6   9 3545.29 165.057   2
  -6  -6   9 3554.70 215.022   0
  -6  -6   8 21595.3 488.660   0
  -6   6   8 22606.9 461.563   0
  -6   6   8 22534.4 362.433   2
  -6  -6   7-32.4440 102.779   0
   6   6  -7 16.5536 117.996   0
  -6   6   7 35.5808 89.8687   0
  -6   6   7-19.5140 63.9717   2
  -6  -6   6 2304.05 182.527   0
  -6   6   6 1877.10 159.144   0
  -6   6   6 2249.90 118.631   2
   6   6  -6 2021.98 173.511   0
   6   6  -5 357.261 102.852   0
  -6  -6   5 245.018 107.927   0
   6  -6  -5 218.335 61.2116   1
  -6   6   5 279.214 59.5260   2
  -6   6   5 309.598 90.4827   0
  -6  -6   4 317.268 106.109   0
   6  -6  -4 191.313 56.2481   1
  -6   6   4 175.600 49.9245   2
  -6   6   4 152.176 92.9037   0
   6   6  -4 262.416 100.250   0
   6  -6  -3 858.641 85.3943   1
  -6   6   3 1046.70 93.5557   3
  -6   6   3 929.570 127.202   0
  -6  -6   2 271.856 96.8696   0
   6  -6  -2 182.937 56.9683   1
  -6   6   2 103.352 93.7760   0
  -6  -6   1 4160.08 220.209   0
   6  -6  -1 4406.81 158.223   1
  -6   6   1 4593.55 230.727   0
   6   6   0 14789.3 239.211   1
  -6  -6   0 15089.2 400.903   0
   6  -6   0 15002.3 281.632   1
  -6   6   0 14598.9 390.008   0
   6   6   1-13.4865 52.0694   1
  -6  -6  -1-16.2721 96.4203   0
   6  -6   1-32.6542 60.5685   1
  -6   6  -1-9.97881 89.7153   0
   6   6   2 930.861 87.5624   1
  -6  -6  -2 760.984 122.102   0
   6  -6   2 570.020 86.1815   1
  -6   6  -2 900.369 122.522   0
   6   6   3 97.6689 92.1732   0
   6   6   3 100.267 61.3917   1
   6  -6   3 34.3882 70.1599   1
  -6   6  -3 78.6073 94.4939   0
   6   6   4 2094.64 127.502   1
   6  -6   4 1952.36 133.614   1
  -6   6  -4 1881.28 169.994   0
   6   6   4 1880.76 159.475   0
   6   6   5 854.855 99.4979   1
   6  -6   5 707.363 105.684   1
   6   6   5 695.366 113.336   0
   6   6   6 15081.8 324.063   1
   6  -6   6 15163.5 345.780   1
   6   6   6 14472.6 361.034   0
   6   6   7 156.480 89.3799   1
   6  -6   7 162.897 86.8616   1
   6   6   7 54.9309 112.701   0
   6   6   8-12.7248 85.6551   1
   6  -6   8-9.79592 84.3631   1
   6   6   9 72.0115 89.9361   1
   6  -6   9 188.974 96.4222   1
   6   6  10 4259.04 225.668   1
   6  -6  10 3898.92 213.674   1
   6   6  11 983.864 148.288   1
   6  -6  11 1219.17 159.314   1
  -6   7  14 64.5434 127.226   2
  -6   7  13 1576.18 152.830   2
  -6   7  12 2046.15 156.805   2
  -6   7  11 6813.57 238.477   2
  -6  -7  10-38.6721 130.493   0
  -6   7  10 109.302 118.509   0
  -6   7  10-202.930 75.6233   2
  -6   7   9 3012.38 194.071   0
  -6   7   9 3508.37 169.523   2
  -6  -7   9 3195.48 220.479   0
  -6  -7   8 172.266 106.172   0
  -6   7   8 145.365 98.9845   0
  -6   7   8 159.950 70.5349   2
  -6  -7   7 2177.63 182.782   0
   6   7  -7 1696.48 169.296   0
  -6   7   7 1948.97 164.173   0
  -6   7   7 2085.40 125.294   2
   6   7  -6 69.6298 102.477   0
  -6  -7   6 0.75978 104.587   0
   6  -7  -6 97.4912 49.8421   1
  -6   7   6 48.8498 55.9374   2
  -6   7   6-119.461 97.0655   0
  -6  -7   5 2548.43 186.693   0
   6  -7  -5 2752.81 127.321   1
  -6   7   5 2418.62 182.474   0
   6   7  -5 3026.48 197.272   0
  -6   7   5 2681.40 122.121   2
  -6  -7   4 2194.64 174.917   0
   6  -7  -4 2509.10 123.472   1
  -6   7   4 2246.10 171.322   0
   6   7  -4 2376.91 187.165   0
  -6  -7   3 2587.77 191.066   0
   6  -7  -3 2919.54 132.586   1
  -6   7   3 3097.25 196.753   0
  -6   7   3 2850.45 131.986   3
   6   7  -3 3060.62 199.824   0
   6  -7  -2 873.261 87.7170   1
  -6  -7   2 782.160 124.614   0
   6   7  -2 819.024 129.597   0
  -6   7   2 810.984 121.137   0
  -6  -7   1 431.311 106.180   0
   6  -7  -1 470.555 76.5811   1
   6   7  -1 530.712 114.293   0
  -6   7   1 414.821 113.819   0
  -6  -7   0-66.5916 91.0209   0
  -6  -7   0 44.6773 70.7485   3
   6  -7   0 36.4326 59.7073   1
   6   7   0-76.1460 99.4929   0
  -6   7   0 70.2585 99.9671   0
   6   7   1 697.317 78.8362   1
   6  -7   1 688.072 84.5588   1
  -6  -7  -1 713.876 118.185   0
   6   7   1 649.917 116.736   0
  -6   7  -1 636.736 119.758   0
   6   7   2 1660.42 108.605   1
  -6  -7  -2 1711.97 147.989   0
   6  -7   2 1710.48 119.464   1
  -6   7  -2 1776.87 166.348   0
   6   7   2 1786.77 156.849   0
   6   7   3 9219.24 229.374   1
   6  -7   3 8898.90 249.119   1
  -6   7  -3 8698.82 334.433   0
   6   7   3 8751.17 305.086   0
   6   7   4 2408.21 138.214   1
   6  -7   4 2518.65 150.946   1
   6   7   4 2150.87 165.561   0
  -6   7  -4 2490.90 192.569   0
   6   7   5 2440.27 143.108   1
   6  -7   5 2412.16 149.866   1
   6   7   5 2569.10 178.900   0
   6   7   6 382.962 98.6290   1
   6  -7   6 329.102 99.6247   1
   6   7   6 242.047 108.244   0
   6   7   7 1349.15 127.654   1
   6  -7   7 1252.05 133.531   1
   6   7   7 1009.07 124.849   0
   6   7   8 296.976 96.3765   1
   6  -7   8 296.507 103.466   1
   6   7   9 136.815 92.7223   1
   6  -7   9-2.43604 86.5073   1
   6   7  10 91.5103 105.085   1
   6  -7  10 108.494 107.613   1
   6  -7  11 186.076 109.664   1
  -6   8  13 24.2406 104.047   2
  -6   8  12 4684.81 217.722   2
  -6   8  11 2792.98 174.203   2
  -6  -8  10 263.983 135.928   0
  -6   8  10 184.732 130.963   0
  -6   8  10 181.557 81.6989   2
  -6   8   9 2289.14 178.697   0
  -6   8   9 2633.01 149.268   2
  -6  -8   9 2810.61 212.351   0
  -6   8   8 2728.62 194.030   0
  -6   8   8 2678.05 148.274   2
  -6  -8   8 2645.72 204.296   0
  -6   8   7 2159.63 179.051   0
  -6   8   7 2337.31 130.413   2
  -6  -8   7 2571.08 204.125   0
   6   8  -7 2238.90 192.189   0
  -6  -8   6 3422.73 214.491   0
   6   8  -6 3621.24 234.621   0
   6  -8  -6 3419.67 145.350   1
  -6   8   6 3320.94 202.104   0
  -6   8   6 3568.84 146.931   2
   6  -8  -5 1174.36 93.2582   1
  -6  -8   5 967.656 141.092   0
  -6   8   5 1193.79 136.509   0
  -6   8   5 1025.82 88.1216   2
   6   8  -5 971.387 138.998   0
  -6  -8   4 1938.49 173.187   0
   6   8  -4 1641.47 173.900   0
   6  -8  -4 2034.07 116.601   1
  -6   8   4 2213.82 173.222   0
   6   8  -3 1036.18 144.664   0
   6  -8  -3 1080.43 97.4168   1
  -6  -8   3 800.186 132.102   0
  -6   8   3 999.621 140.493   0
  -6  -8   2 6584.83 281.033   0
   6  -8  -2 6314.02 194.519   1
   6   8  -2 5909.73 268.079   0
  -6   8   2 6155.95 274.697   0
  -6  -8   1 7611.39 301.756   0
   6  -8  -1 8093.38 223.057   1
   6   8  -1 8179.58 312.287   0
  -6   8   1 8409.97 318.521   0
  -6   8   0 71.3298 98.6259   0
  -6  -8   0 31.2508 94.4107   0
   6   8   0 0.74278 96.6853   0
   6  -8   0 90.1790 63.2271   1
   6   8   0 25.2862 57.9042   2
  -6   8  -1 40.7438 106.339   0
   6   8   1 209.704 90.4254   0
   6   8   1 245.462 61.4380   1
  -6  -8  -1 117.100 103.710   0
  -6  -8  -1 295.938 79.3291   3
   6  -8   1 196.799 65.8705   1
  -6   8  -2 60.1821 107.820   0
   6   8   2 16.6938 90.2913   0
   6   8   2 58.9837 60.7554   1
   6  -8   2 31.5760 64.9037   1
  -6   8  -3-78.5103 126.037   0
   6   8   3 2.53910 61.0447   1
   6  -8   3 53.8217 69.7968   1
   6   8   3-20.5531 94.6536   0
   6   8   4 6457.71 208.948   1
   6   8   4 6788.03 275.117   0
   6  -8   4 6411.13 224.993   1
  -6   8  -4 5886.94 295.076   0
   6   8   5 1674.15 125.100   1
   6  -8   5 1765.47 138.623   1
   6   8   5 1631.16 145.648   0
   6   8   6 970.036 114.687   1
   6   8   6 946.141 124.431   0
   6  -8   6 1160.61 125.063   1
   6   8   7 3479.06 186.028   1
   6  -8   7 3369.92 185.732   1
   6   8   8 493.573 104.510   1
   6  -8   8 232.203 110.679   1
   6   8   9 61.0287 103.720   1
   6  -8   9 221.555 93.5802   1
   6   8  10 130.117 113.738   1
   6  -8  10 239.103 104.288   1
  -6   9  13 1103.71 142.775   2
  -6   9  12 5125.21 233.513   2
  -6   9  11 332.814 95.0916   2
  -6   9  10 7511.20 248.978   2
  -6   9   9 2325.67 177.672   0
  -6   9   9 2497.62 155.055   2
  -6  -9   9 2243.20 194.841   0
  -6  -9   8-91.2641 132.487   0
  -6   9   8 37.0018 114.243   0
  -6   9   8-22.5302 70.0514   2
   6   9  -7 145.026 127.529   0
  -6  -9   7 64.8182 124.534   0
  -6   9   7 190.067 68.2355   2
  -6   9   7 185.166 108.927   0
  -6  -9   6 131.499 119.681   0
   6   9  -6 93.0856 114.765   0
   6  -9  -6 234.604 70.2729   1
  -6   9   6 258.301 62.5503   2
  -6   9   6 23.9168 105.231   0
  -6  -9   5 176.621 114.151   0
   6   9  -5 100.975 126.754   0
   6  -9  -5 154.660 67.6303   1
  -6   9   5 145.961 58.6376   2
  -6   9   5 37.1316 98.9679   0
  -6  -9   4 3364.69 224.714   0
   6   9  -4 3737.37 228.887   0
   6  -9  -4 3725.44 156.497   1
  -6   9   4 3867.44 221.505   0
  -6  -9   3-31.0716 103.308   0
   6  -9  -3 171.403 66.3631   1
   6   9  -3 68.9524 113.219   0
  -6   9   3 174.353 101.004   0
  -6   9   2 9.66256 104.206   0
  -6  -9   2-1.85262 95.7246   0
   6  -9  -2-41.5905 68.4485   1
   6   9  -2 3.45225 102.080   0
  -6  -9   1 14146.9 411.653   0
   6   9  -1 15182.9 426.437   0
   6  -9  -1 14357.3 298.549   1
  -6   9   1 13941.8 409.764   0
   6   9  -1 14797.0 279.349   2
  -6  -9   0 1201.47 147.686   0
   6   9   0 1480.70 165.300   0
   6  -9   0 1594.51 117.001   1
  -6   9   0 1559.30 163.502   0
   6   9   0 1247.46 97.7214   2
  -6   9  -1 236.753 115.647   0
  -6  -9  -1 78.0438 107.605   0
   6  -9   1 241.627 74.5857   1
   6   9   1 221.831 101.745   0
   6   9   2 2415.10 127.440   1
   6   9   2 2757.79 190.939   0
  -6  -9  -2 2016.96 129.913   3
   6  -9   2 2207.41 138.721   1
  -6   9  -2 2449.12 206.215   0
   6   9   3 1554.18 117.885   1
  -6   9  -3 1412.30 185.018   0
   6  -9   3 1810.06 133.050   1
   6   9   3 1575.17 154.009   0
   6   9   4 2525.02 147.130   1
   6  -9   4 2819.30 163.446   1
  -6   9  -4 2380.59 211.149   0
   6   9   4 2484.76 186.398   0
   6   9   5 37.9692 73.2050   1
   6  -9   5 8.74092 94.5521   1
   6   9   5 178.630 116.539   0
   6   9   6 427.059 107.051   1
   6  -9   6 298.631 98.1356   1
   6   9   6 328.275 128.656   0
   6   9   7 74.6717 86.1897   1
   6  -9   7 62.6009 95.2447   1
   6   9   8 1117.06 139.027   1
   6  -9   8 1573.56 142.920   1
   6   9   9 25.0044 97.8576   1
   6  -9   9 72.3585 101.971   1
   6   9  10 2321.24 177.507   1
   6  -9  10 2166.12 177.339   1
  -6  10  12 1041.17 132.384   2
  -6  10  11 716.918 110.614   2
  -6  10  10 183.734 91.5066   2
  -6  10   9 3195.48 212.546   0
  -6  10   9 3697.98 184.901   2
  -6 -10   8 375.998 150.776   0
  -6  10   8 155.793 75.4410   2
  -6  10   8 296.289 126.361   0
  -6  10   7 4819.07 262.444   0
  -6  10   7 5203.35 190.283   2
   6  10  -7 4732.17 281.245   0
  -6 -10   7 4691.17 261.652   0
   6 -10  -6 2220.52 129.260   1
  -6  10   6 2099.10 179.726   0
  -6  10   6 2142.98 128.627   2
   6  10  -6 1919.06 199.821   0
  -6 -10   6 2410.68 192.816   0
   6  10  -5 38.6088 116.742   0
  -6 -10   5 135.070 118.117   0
   6 -10  -5 129.674 69.2228   1
  -6  10   5 45.4812 108.751   0
   6 -10  -4 3565.77 160.873   1
  -6  10   4 3560.43 221.125   0
   6  10  -4 3252.56 223.441   0
  -6 -10   4 3251.41 219.991   0
  -6  10   3-183.352 116.202   0
   6  10  -3-43.9151 110.045   0
  -6 -10   3-35.2270 109.469   0
   6 -10  -3 27.7072 62.3680   1
  -6 -10   2 1786.01 176.727   0
   6 -10  -2 1679.24 123.062   1
  -6  10   2 1692.03 165.509   0
   6  10  -2 1673.06 173.691   0
  -6 -10   1 3361.27 232.269   0
   6 -10  -1 3896.94 171.501   1
  -6  10   1 3622.17 233.001   0
   6  10  -1 3588.67 159.156   2
   6  10  -1 3552.77 229.410   0
  -6  10   0 43.2837 122.854   0
  -6 -10   0 24.2581 108.747   0
   6  10   0 156.469 111.073   0
   6 -10   0-17.9637 70.6667   1
   6  10   0 45.2512 63.9760   2
  -6 -10  -1 4712.48 256.396   0
   6 -10   1 5490.08 203.535   1
  -6  10  -1 5181.16 276.423   0
   6  10   1 5397.14 274.140   0
  -6  10  -2 97.9082 133.852   0
   6  10   2 141.811 109.366   0
   6 -10   2 70.3900 65.6536   1
   6  10   3 126.587 72.4150   1
  -6 -10  -3 6.57167 71.6385   3
   6 -10   3 56.8344 75.5373   1
   6  10   3 196.540 112.795   0
  -6  10  -4 154.349 151.966   0
   6  10   4 166.380 76.8381   1
   6 -10   4 221.018 87.6394   1
   6  10   4 243.567 116.580   0
   6  10   5 6191.82 228.145   1
   6 -10   5 6536.88 240.896   1
   6  10   5 5719.51 255.821   0
   6  10   6 167.186 93.2058   1
   6  10   6 229.972 138.507   0
   6 -10   6 52.0664 95.7624   1
   6  10   7 2001.35 158.158   1
   6 -10   7 1935.24 161.426   1
   6  10   8 252.908 115.730   1
   6 -10   8 347.861 106.023   1
   6  10   9 1563.26 166.051   1
   6 -10   9 2020.88 167.180   1
  -6  11  12 1291.27 150.605   2
  -6  11  11 389.042 106.516   2
  -6  11  10-45.0472 93.6731   2
  -6  11   9 542.990 98.2677   2
  -6  11   8 2596.37 202.690   0
  -6  11   8 2620.94 153.822   2
  -6 -11   7-18.1727 138.972   0
   6  11  -7 121.667 176.116   0
  -6  11   7-56.6443 74.8184   2
  -6  11   7-40.1702 126.714   0
  -6 -11   6 429.139 130.594   0
   6  11  -6 648.007 141.099   0
  -6  11   6 586.303 91.1985   2
  -6  11   6 499.653 122.955   0
   6 -11  -5 2672.67 147.896   1
  -6  11   5 2520.05 201.058   0
   6  11  -5 2270.48 203.041   0
  -6 -11   5 2725.49 223.422   0
  -6  11   4 957.199 149.340   0
  -6 -11   4 839.509 140.294   0
   6 -11  -4 860.935 99.5009   1
   6  11  -4 663.161 152.518   0
  -6  11   3 344.124 116.145   0
  -6 -11   3 455.676 139.654   0
   6 -11  -3 312.705 79.6337   1
   6  11  -3 252.167 122.490   0
  -6  11   2 309.214 130.235   0
  -6 -11   2 507.537 133.446   0
   6 -11  -2 371.280 80.9682   1
   6  11  -2 212.856 127.191   0
   6  11  -2 247.796 82.8885   2
  -6  11   1 605.510 131.348   0
  -6 -11   1 306.968 119.129   0
   6 -11  -1 678.557 94.3553   1
   6  11  -1 572.163 124.322   0
   6  11  -1 614.288 92.9592   2
  -6  11   0 210.148 129.641   0
  -6 -11   0 444.388 127.807   0
   6 -11   0 350.648 84.7884   1
   6  11   0 325.829 125.974   0
   6  11   0 336.247 82.8723   2
   6 -11   1 1939.00 139.473   1
  -6  11  -1 1743.50 204.992   0
   6  11   1 2158.16 189.648   0
   6 -11   2 3300.78 172.055   1
  -6  11  -2 3299.54 245.124   0
   6  11   2 2963.90 214.401   0
  -6  11  -3 235.329 165.708   0
   6  11   3 394.337 79.0096   1
   6 -11   3 425.437 86.1956   1
   6  11   3 364.897 125.440   0
  -6  11  -4 680.403 173.769   0
   6 -11   4 1193.62 130.653   1
   6  11   4 1051.03 146.807   0
   6  11   4 1256.02 122.116   1
   6  11   5-88.4781 134.964   0
   6  11   5 159.469 81.4392   1
   6 -11   5 144.190 86.5134   1
   6  11   6 326.123 103.031   1
   6 -11   6 333.750 110.289   1
   6  11   7-18.3226 100.930   1
   6 -11   7 44.2929 86.5652   1
   6 -11   8 1037.90 144.322   1
   6  11   8 1107.42 138.500   1
   6 -11   9 4715.62 242.643   1
   6  11   9 5150.65 253.070   1
  -6  12  11 397.900 119.066   2
  -6  12  10 120.775 105.204   2
  -6  12   9 2263.98 154.091   2
  -6  12   8-17.0138 89.7875   2
   6  12  -7-43.9386 177.640   0
  -6  12   7 18.4342 79.4912   2
  -6 -12   6 201.538 154.598   0
   6  12  -6 26.2540 180.030   0
  -6  12   6 47.7990 136.674   0
  -6 -12   5-25.1257 160.707   0
   6  12  -5 63.4627 139.967   0
   6 -12  -5 63.2449 70.8636   1
  -6  12   5 44.1787 141.377   0
  -6  12   4 390.247 124.502   0
  -6 -12   4 430.759 140.516   0
   6  12  -4 299.716 136.812   0
   6 -12  -4 304.009 81.1641   1
  -6  12   3 23.5907 123.756   0
  -6 -12   3 79.3264 132.280   0
   6 -12  -3 230.480 82.0694   1
   6  12  -3 248.876 145.384   0
   6  12  -3 336.468 88.7627   2
  -6  12   2 1107.45 171.019   0
  -6 -12   2 909.122 152.067   0
   6 -12  -2 1094.40 116.842   1
   6  12  -2 1187.47 161.427   0
   6  12  -2 1099.97 120.759   2
  -6  12   1 242.032 128.232   0
  -6 -12   1 106.945 147.113   0
   6 -12  -1 219.885 87.9135   1
   6  12  -1 161.797 123.060   0
   6  12  -1 119.840 85.7991   2
   6 -12   0 3551.82 181.414   1
   6  12   0 3547.72 239.888   0
  -6  12   0 3487.19 256.220   0
   6  12   0 3155.97 164.796   2
  -6 -12   0 3006.65 232.067   0
   6 -12   1 1975.76 145.332   1
   6  12   1 1950.65 188.476   0
  -6  12  -1 1871.32 208.650   0
  -6  12  -2 207.840 154.788   0
   6  12   2 314.658 131.877   0
   6 -12   2 260.260 86.8050   1
  -6  12  -3-30.3434 179.374   0
   6  12   3 100.111 138.620   0
   6 -12   3 219.438 72.8501   1
   6  12   4 553.159 94.4893   1
   6 -12   4 731.132 118.191   1
   6 -12   5 1569.88 148.556   1
   6  12   5 1314.37 135.326   1
   6 -12   6 9246.38 307.250   1
   6  12   6 8463.15 273.643   1
   6  12   7 57.7871 94.7159   1
   6 -12   7 94.6036 97.9078   1
   6 -12   8 1647.87 165.884   1
   6  12   8 1688.67 163.950   1
  -6  13  11 7706.08 296.244   2
  -6  13  10 1560.43 147.289   2
  -6  13   9 84.0604 101.346   2
  -6  13   8-52.3468 97.3476   2
  -6  13   7 1031.59 113.138   2
   6  13  -5 1068.90 178.296   0
   6 -13  -5 812.433 104.438   1
  -6  13   4-85.6295 141.489   0
  -6 -13   4-47.7659 174.870   0
   6  13  -4-240.056 174.008   0
   6 -13  -4 24.0457 74.3233   1
   6 -13  -3 7802.33 251.719   1
   6  13  -3 7333.37 347.679   0
  -6  13   3 7333.61 336.290   0
   6  13  -3 7071.08 247.796   2
  -6 -13   3 7259.93 341.467   0
  -6  13   2 148.593 156.483   0
  -6 -13   2-9.46593 163.194   0
   6  13  -2 195.244 157.885   0
   6 -13  -2-36.2808 85.8905   1
   6  13  -2 90.3855 84.8444   2
  -6  13   1 591.232 145.884   0
  -6 -13   1 677.409 171.725   0
   6  13  -1 680.925 153.320   0
   6 -13  -1 735.802 108.559   1
   6  13  -1 554.262 107.022   2
  -6  13   0 88.0203 151.942   0
   6 -13   0 61.4177 71.0581   1
   6  13   0 70.7262 80.1401   2
  -6  13  -1 132.731 173.985   0
   6  13   1 329.999 140.779   0
   6 -13   1 150.184 91.0852   1
   6  13   1 95.8262 82.8101   2
   6 -13   2 5203.61 224.002   1
  -6  13  -2 4715.01 308.342   0
   6 -13   3 8592.35 280.216   1
   6 -13   4 1.78243 85.3138   1
   6  13   5 593.669 106.033   1
   6 -13   5 705.524 126.669   1
   6  13   6 74.2645 100.605   1
   6 -13   6-16.6473 101.754   1
   6  13   7 729.938 122.414   1
   6 -13   7 729.589 134.495   1
  -6  14  10 350.799 127.924   2
  -6  14   9 1419.32 133.334   2
  -6  14   8 3465.43 189.448   2
   6 -14  -5 836.072 108.147   1
   6 -14  -4-170.219 87.7786   1
   6  14  -4-70.0391 104.848   2
   6 -14  -3 918.437 113.450   1
   6  14  -3 851.364 122.934   2
   6 -14  -2 5818.69 234.443   1
   6  14  -2 5643.28 233.956   2
  -6 -14   2 4619.42 291.335   0
   6 -14  -1 274.324 91.0498   1
   6  14  -1 164.483 96.0890   2
   6 -14   0 417.417 92.7775   1
   6  14   0 412.351 94.9345   2
   6 -14   1 1540.69 145.245   1
   6  14   1 1411.43 136.442   2
   6 -14   2 5441.60 232.205   1
   6 -14   3 875.041 114.173   1
   6 -14   4 52.6097 94.4590   1
   6 -14   5 750.628 124.326   1
   6  14   6 793.253 117.291   1
   6 -14   6 700.665 122.201   1
   6  14   7 426.065 124.539   1
   6  15  -6-3.00129 114.592   2
   6 -15  -5-58.5834 88.1529   1
   6  15  -5-46.5673 104.536   2
   6 -15  -4 1777.12 147.655   1
   6  15  -4 1760.31 165.795   2
   6 -15  -3 1722.74 149.427   1
   6  15  -3 1439.06 150.979   2
   6 -15  -2-38.4356 90.2301   1
   6  15  -2 8.18471 96.9025   2
   6 -15  -1-17.8637 86.3272   1
   6  15  -1 122.881 95.1200   2
   6 -15   0 781.858 117.473   1
   6  15   0 733.015 106.736   2
   6 -15   1 763.977 123.828   1
   6  15   1 676.072 117.287   2
   6 -15   2 62.1102 95.8015   1
   6 -15   3-96.3454 99.5578   1
   6 -15   4 1949.68 159.560   1
   6 -15   5 1735.33 155.067   1
   6  16  -7 2079.08 191.987   2
   6  16  -6 636.353 139.468   2
   6 -16  -5 257.461 102.431   1
   6  16  -5 348.433 122.038   2
   6 -16  -4 510.001 104.902   1
   6  16  -4 451.023 129.687   2
   6 -16  -3 159.795 96.2207   1
   6  16  -3-91.8099 110.082   2
   6 -16  -2 302.191 101.828   1
   6  16  -2 204.947 113.934   2
   6 -16  -1 5790.56 255.527   1
   6  16  -1 5421.13 233.436   2
   6 -16   0 52.7092 101.700   1
   6  16   0 95.1552 109.905   2
   6 -16   1 2184.38 174.484   1
   6  16   1 1619.29 163.085   2
   6 -16   2 894.478 127.184   1
   6 -16   3 152.343 112.939   1
   6 -16   4 521.966 118.182   1
   6 -17  -5 2045.21 165.947   1
   6  17  -5 1320.17 175.728   2
   6 -17  -4 3431.08 209.894   1
   6  17  -4 3067.67 211.249   2
   6 -17  -3 392.720 117.442   1
   6  17  -3 163.784 118.280   2
   6 -17  -2 157.906 109.559   1
   6  17  -2 1.46650 117.158   2
   6 -17  -1 170.308 104.880   1
   6  17  -1-36.8958 126.707   2
   6 -17   0 16.7418 108.724   1
   6  17   0 130.026 126.012   2
   6 -17   1 12.7704 115.759   1
  -7   0   9-139.428 125.102   0
  -7   0   8 208.746 118.304   0
  -7   0   7-61.6951 105.832   0
  -7   0   6 107.322 105.476   0
  -7   0   5 2.86309 106.740   0
  -7   0   4 4042.89 241.920   0
  -7   0   3 65.7510 105.370   0
  -7   0   2 5854.45 269.254   0
  -7   0   2 5524.96 200.039   3
   7   0  -1-57.7938 54.5799   1
  -7   0   1-24.5071 93.7644   0
   7   0   0 7311.11 194.793   1
  -7   0   0 7422.18 301.941   0
   7   0   1 15.6513 57.5904   1
  -7   0  -1 11.4047 100.568   0
   7   0   2 1182.56 105.336   1
  -7   0  -2 1087.07 141.444   0
   7   0   3 90.8995 70.6728   1
   7   0   4 25.9101 70.0022   1
   7   0   5 37.2044 74.3123   1
   7   0   6 1221.18 132.129   1
   7   0   7-80.2260 91.1256   1
   7   0   8 1065.23 131.291   1
   7   0   9 117.629 99.2004   1
   7   0  10 844.297 140.551   1
  -7  -1  10 381.788 137.616   0
  -7   1  10 569.043 135.734   0
  -7  -1   9 88.0896 128.409   0
  -7   1   9 23.8763 126.122   0
  -7  -1   8 13156.6 406.083   0
  -7   1   8 12135.5 391.515   0
  -7  -1   7 1162.94 151.722   0
  -7   1   7 1051.18 142.274   0
  -7  -1   6 1775.92 172.315   0
  -7   1   6 1837.80 171.248   0
  -7  -1   5 194.668 95.4668   0
  -7   1   5 93.2338 106.235   0
  -7  -1   4 78.1554 96.5738   0
  -7   1   4 124.464 100.989   0
  -7  -1   3 9403.33 336.394   0
  -7   1   3 9669.06 345.637   0
  -7  -1   2 2359.05 189.369   0
  -7   1   2 2222.55 179.189   0
  -7  -1   2 2437.38 142.550   3
   7  -1  -1 14322.8 258.652   1
  -7  -1   1 13806.1 411.222   0
  -7   1   1 14623.2 412.934   0
   7   1   0 825.026 85.7468   1
   7  -1   0 756.925 84.2158   1
  -7  -1   0 931.519 132.268   0
  -7   1   0 886.297 133.876   0
   7   1   1 32.3019 59.7589   1
   7  -1   1 17.5834 61.8961   1
  -7  -1  -1-80.2087 113.200   0
  -7   1  -1-71.2863 112.756   0
   7   1   2 5527.61 188.844   1
   7  -1   2 4940.40 183.740   1
  -7  -1  -2 5075.91 270.866   0
  -7   1  -2 5104.11 271.244   0
   7   1   3 18851.0 342.185   1
   7  -1   3 18876.4 347.455   1
   7   1   4-9.30192 64.4411   1
   7  -1   4-3.24378 70.3289   1
   7   1   5 2078.41 145.986   1
   7  -1   5 1932.73 140.250   1
   7   1   6 27.8552 86.1519   1
   7  -1   6 9.41408 85.3530   1
   7   1   7 134.074 90.0052   1
   7  -1   7 120.745 92.5171   1
   7   1   8 510.616 119.188   1
   7  -1   8 806.559 129.905   1
   7   1   9 284.211 100.951   1
   7  -1   9 389.063 116.344   1
   7   1  10 899.310 146.120   1
   7  -1  10 926.540 137.903   1
  -7  -2  10 854.135 142.926   0
  -7   2  10 901.077 142.325   0
  -7  -2   9 140.575 126.668   0
  -7   2   9 154.212 122.964   0
  -7  -2   8 362.243 124.903   0
  -7   2   8 377.617 116.513   0
  -7  -2   7-17.3089 118.520   0
  -7   2   7 37.4200 107.477   0
  -7  -2   6-46.3025 110.779   0
  -7   2   6 4.91834 101.476   0
  -7  -2   5 1165.51 141.939   0
  -7   2   5 1177.42 142.331   0
  -7  -2   4 3326.11 221.301   0
  -7   2   4 3115.13 205.351   0
  -7  -2   3 4176.51 242.741   0
  -7   2   3 4525.60 244.219   0
   7  -2  -2 39.9343 54.8293   1
  -7  -2   2 24.4651 100.613   0
  -7   2   2 105.285 104.697   0
   7  -2  -1 2837.16 130.582   1
  -7  -2   1 2627.64 198.827   0
  -7   2   1 2989.02 207.763   0
   7   2   0 1497.94 100.839   1
   7  -2   0 1670.44 108.403   1
  -7  -2   0 1778.84 169.514   0
  -7   2   0 1408.59 148.314   0
   7   2   1 12041.5 251.063   1
   7  -2   1 11868.7 260.597   1
  -7  -2  -1 12056.9 383.157   0
  -7   2  -1 11751.1 375.421   0
   7   2   2 2926.61 146.622   1
   7  -2   2 2971.17 149.755   1
  -7  -2  -2 2663.88 202.420   0
  -7   2  -2 2837.24 205.820   0
   7   2   3 1286.88 114.106   1
   7  -2   3 1314.57 113.371   1
  -7   2  -3 1206.64 153.145   0
   7   2   4 67.8084 73.8352   1
   7  -2   4 100.440 81.0884   1
   7   2   5 1499.07 126.791   1
   7  -2   5 1485.59 129.616   1
   7   2   6-52.7269 84.9124   1
   7  -2   6 11.3255 77.2122   1
   7   2   7 1900.22 153.166   1
   7  -2   7 1772.04 143.088   1
   7   2   8 44.6082 95.8911   1
   7  -2   8-92.3262 91.9381   1
   7   2   9 35.9468 105.827   1
   7  -2   9 40.9958 104.683   1
   7   2  10 432.585 125.029   1
   7  -2  10 378.332 115.663   1
  -7  -3  10 8816.04 351.483   0
  -7   3  10 8986.68 327.508   0
  -7  -3   9 412.772 132.708   0
  -7   3   9 703.164 128.700   0
  -7  -3   8 480.662 121.741   0
  -7   3   8 451.131 121.358   0
  -7  -3   7 186.991 115.267   0
  -7   3   7 232.980 106.061   0
  -7  -3   6 2494.99 197.855   0
  -7   3   6 2370.91 185.102   0
  -7  -3   5 3185.62 210.594   0
  -7   3   5 3167.70 216.620   0
  -7  -3   4 5932.17 282.323   0
  -7   3   4 5543.65 267.400   0
  -7  -3   3 61.7999 98.9838   0
  -7   3   3 85.8285 95.6354   0
  -7  -3   2 3574.75 223.518   0
   7  -3  -2 3127.49 137.603   1
  -7   3   2 3369.69 215.761   0
  -7  -3   1-5.24067 84.4781   3
   7  -3  -1-0.23158 53.8963   1
  -7  -3   1 74.5718 102.192   0
  -7   3   1 80.8182 109.066   0
   7  -3   0 2993.46 144.246   1
  -7  -3   0 3141.08 208.228   0
  -7   3   0 3170.73 215.879   0
   7   3   1 512.443 77.1351   1
   7  -3   1 567.188 85.9187   1
  -7  -3  -1 554.915 113.556   0
  -7   3  -1 580.613 126.745   0
   7   3   2 454.540 80.6733   1
   7  -3   2 457.209 84.0666   1
  -7  -3  -2 388.737 113.512   0
  -7   3  -2 414.994 118.961   0
   7   3   3 1753.15 122.988   1
   7  -3   3 1654.32 128.442   1
  -7   3  -3 1745.14 180.073   0
   7   3   4 11077.4 275.981   1
   7  -3   4 10951.1 288.142   1
   7   3   5 285.008 90.5746   1
   7  -3   5 282.030 88.5868   1
   7   3   6 1667.31 135.351   1
   7  -3   6 1514.37 138.857   1
   7   3   7-81.9783 90.8121   1
   7  -3   7-23.1147 93.4961   1
   7   3   8-35.3082 93.9072   1
   7  -3   8 19.9897 92.7933   1
   7   3   9-20.3479 107.720   1
   7  -3   9 35.1921 94.4513   1
  -7   4  10 1877.15 187.829   0
  -7  -4   9 1486.61 175.087   0
  -7   4   9 1169.50 148.488   0
  -7  -4   8 187.645 120.296   0
  -7   4   8-53.3537 121.178   0
  -7  -4   7 175.071 110.308   0
  -7   4   7-31.9338 114.001   0
  -7   4   6 1548.41 164.627   0
  -7  -4   6 1363.25 167.950   0
  -7  -4   5 137.845 112.082   0
  -7   4   5-53.4663 114.312   0
  -7  -4   4 1435.32 168.447   0
  -7   4   4 1459.59 166.425   0
  -7  -4   3 5171.52 264.186   0
   7  -4  -3 5147.28 168.653   1
  -7   4   3 5473.72 270.066   0
   7  -4  -2 92.5761 54.0288   1
  -7   4   2-52.4450 101.583   0
  -7  -4   1 24.0120 72.1492   3
  -7  -4   1 5.18549 116.905   0
   7  -4  -1 20.1767 62.5299   1
  -7   4   1 117.005 110.926   0
  -7  -4   0 68.0952 103.671   0
   7  -4   0-16.9674 59.5779   1
  -7   4   0 200.269 110.270   0
   7   4   1 3141.76 141.805   1
  -7  -4  -1 3216.73 220.324   0
   7  -4   1 3229.34 154.206   1
  -7   4  -1 3569.70 232.314   0
   7   4   2 265.618 70.3675   1
  -7  -4  -2 316.664 111.835   0
   7  -4   2 231.207 75.0688   1
  -7   4  -2 254.254 114.792   0
   7   4   3 292.600 77.0521   1
   7  -4   3 235.020 82.4956   1
  -7   4  -3 511.526 134.126   0
   7   4   4 953.893 107.953   1
   7  -4   4 963.059 111.967   1
   7   4   5 640.489 100.015   1
   7  -4   5 448.021 106.970   1
   7   4   6 815.580 112.092   1
   7  -4   6 551.152 106.787   1
   7   4   7 3296.50 183.032   1
   7  -4   7 3394.25 192.560   1
   7   4   8-54.1479 94.4333   1
   7  -4   8 39.6123 89.3043   1
   7   4   9 114.076 108.521   1
   7  -4   9-20.4116 98.6019   1
  -7  -5   9 638.180 144.948   0
  -7   5   9 221.642 136.268   0
  -7  -5   8 904.298 139.965   0
  -7   5   8 462.772 125.014   0
  -7  -5   7-78.4628 131.088   0
  -7   5   7 96.7344 120.132   0
   7   5  -7 271.486 149.915   0
  -7  -5   6 2060.75 189.186   0
  -7   5   6 2082.44 193.475   0
   7   5  -6 1970.71 197.939   0
  -7   5   5 1199.96 151.770   0
  -7   5   4 1272.60 160.198   0
  -7  -5   4 999.382 143.661   0
  -7  -5   3 2770.09 210.131   0
   7  -5  -3 2493.97 126.549   1
  -7   5   3 2782.39 212.053   0
  -7  -5   2 9541.40 351.771   0
   7  -5  -2 9136.30 227.248   1
  -7   5   2 9327.41 341.323   0
   7  -5  -1 1098.96 100.961   1
  -7  -5   1 1194.78 153.852   0
  -7   5   1 1076.14 147.900   0
   7  -5   0 1376.25 111.426   1
  -7   5   0 1308.05 159.622   0
  -7  -5   0 1053.68 160.759   0
  -7  -5   0 1343.19 123.327   3
   7  -5   1 952.524 101.175   1
  -7  -5  -1 893.626 132.262   0
  -7   5  -1 706.339 149.915   0
   7   5   2 2641.28 142.773   1
   7  -5   2 2903.99 158.214   1
  -7   5  -2 2531.94 218.811   0
   7   5   3 3529.79 166.683   1
   7  -5   3 3699.23 178.041   1
  -7   5  -3 2716.82 226.001   0
   7   5   4 5348.18 203.330   1
   7  -5   4 5540.95 221.035   1
   7   5   5 10287.1 282.669   1
   7  -5   5 10147.2 293.128   1
   7   5   5 9831.46 346.414   0
   7   5   6-44.1289 144.512   0
   7   5   6 286.063 91.3739   1
   7  -5   6 184.676 83.7205   1
   7  -5   7 1198.17 136.632   1
   7   5   7 960.379 129.942   1
   7   5   8 367.520 116.091   1
   7  -5   8 305.950 112.404   1
   7   5   9 968.576 139.817   1
   7  -5   9 903.868 137.864   1
  -7   6   9 416.067 141.308   0
  -7  -6   8 90.0671 141.975   0
  -7   6   8-33.4512 130.903   0
  -7  -6   7 32.1608 136.968   0
   7   6  -7 180.151 150.372   0
  -7   6   7 58.0436 125.380   0
  -7  -6   6 4463.11 260.156   0
  -7   6   6 4359.44 255.529   0
   7   6  -6 4360.48 266.168   0
  -7  -6   5 1307.90 164.886   0
  -7   6   5 1238.25 158.060   0
   7   6  -5 1378.53 177.041   0
  -7  -6   4 4.94400 126.976   0
   7   6  -4 37.4481 115.033   0
  -7   6   4-246.338 105.917   0
   7  -6  -3 114.338 58.1182   1
  -7   6   3 5.49653 107.131   0
  -7  -6   2 1303.80 160.130   0
   7  -6  -2 1595.32 113.304   1
  -7   6   2 1508.74 162.639   0
  -7  -6   1 77.6623 114.130   0
   7  -6  -1 8.07705 63.2458   1
  -7   6   1 130.388 124.218   0
  -7  -6   0 315.247 132.048   0
  -7  -6   0 367.244 92.0271   3
   7  -6   0 395.196 80.7623   1
  -7   6   0 118.341 123.824   0
  -7  -6  -1-22.6677 136.719   0
   7  -6   1 79.8715 75.9450   1
  -7   6  -1 59.6976 118.169   0
   7   6   2 3901.90 164.427   1
   7  -6   2 4029.88 183.435   1
  -7   6  -2 3636.32 239.208   0
   7   6   3 128.240 121.678   0
   7   6   3-8.41181 72.8108   1
   7  -6   3 127.829 81.4361   1
  -7   6  -3-48.0957 136.688   0
   7   6   4 151.397 126.658   0
   7   6   4 126.927 83.7156   1
   7  -6   4 282.730 90.1161   1
   7   6   5 105.912 82.9037   1
   7  -6   5 192.134 88.0104   1
   7   6   5 192.922 144.302   0
   7   6   6 1147.74 130.474   1
   7  -6   6 1238.12 132.075   1
   7   6   7 499.650 110.567   1
   7  -6   7 572.325 111.588   1
   7   6   8 1921.73 159.141   1
   7  -6   8 1780.05 163.733   1
   7   6   9-30.0851 117.684   1
   7  -6   9-47.1656 107.703   1
  -7   7  11-4.68367 101.984   2
  -7   7  10 135.493 94.1122   2
  -7   7   9 3124.99 165.676   2
  -7   7   8 100.489 138.710   0
  -7   7   8-2.37424 78.8365   2
  -7  -7   7 6756.50 314.984   0
   7   7  -7 5157.12 308.717   0
  -7   7   7 6737.31 313.696   0
  -7  -7   6 4678.83 274.919   0
   7   7  -6 3642.62 267.376   0
  -7   7   6 4573.13 258.809   0
  -7  -7   5 1361.10 173.446   0
  -7   7   5 1275.00 156.904   0
   7   7  -5 1027.54 150.065   0
   7  -7  -4 996.550 93.2792   1
  -7  -7   4 1049.45 148.838   0
  -7   7   4 937.166 150.267   0
   7   7  -4 1112.72 160.696   0
  -7  -7   3 8857.76 364.808   0
   7  -7  -3 8910.37 235.802   1
  -7   7   3 9081.72 344.221   0
   7   7  -3 9567.68 368.913   0
   7   7  -2-0.59514 113.439   0
  -7  -7   2 159.820 138.217   0
   7  -7  -2 160.320 61.8243   1
  -7   7   2 210.887 124.044   0
  -7  -7   1 6824.85 317.998   0
   7  -7  -1 6913.67 216.737   1
  -7   7   1 6418.40 311.323   0
   7   7  -1 6644.93 314.122   0
  -7  -7   0 21.6678 141.467   0
   7   7   0 34.4195 114.660   0
   7  -7   0 65.2835 67.3263   1
  -7   7   0-100.281 136.032   0
   7   7   1 731.215 150.165   0
  -7  -7  -1 503.710 140.033   0
  -7  -7  -1 564.689 106.254   3
   7  -7   1 526.032 97.3173   1
  -7   7  -1 696.915 139.428   0
   7  -7   2 358.336 98.4563   1
  -7   7  -2 78.8067 147.028   0
   7   7   2 409.064 127.090   0
   7   7   3 8873.19 246.134   1
   7  -7   3 9266.63 276.848   1
  -7   7  -3 8399.50 366.319   0
   7   7   3 9254.77 348.193   0
   7   7   4-39.1749 135.888   0
   7   7   4 194.969 88.2483   1
   7  -7   4 125.598 81.8586   1
   7   7   5 3015.75 176.909   1
   7  -7   5 3603.15 189.675   1
   7   7   6 138.551 84.4422   1
   7  -7   6 131.443 84.5304   1
   7   7   7-28.2834 92.1127   1
   7  -7   7 52.8158 91.6221   1
   7   7   8-23.1045 106.768   1
   7  -7   8-84.4772 104.984   1
  -7   8  12 772.538 119.819   2
  -7   8  11 187.514 103.759   2
  -7   8  10 1920.80 147.944   2
  -7   8   9 659.482 95.4122   2
  -7  -8   7 2484.18 210.518   0
   7   8  -7 2073.83 205.643   0
  -7   8   7 2362.74 207.732   0
  -7  -8   6-20.1082 135.671   0
   7   8  -6 12.6634 161.932   0
  -7   8   6 144.611 136.230   0
  -7  -8   5 477.149 127.763   0
  -7   8   5 662.620 140.504   0
   7   8  -5 469.249 155.394   0
  -7  -8   4 2743.97 220.782   0
   7  -8  -4 2588.50 141.037   1
   7   8  -4 2551.84 218.657   0
  -7   8   4 2602.40 211.397   0
  -7  -8   3 2607.01 212.968   0
   7  -8  -3 2598.58 142.409   1
   7   8  -3 2560.77 219.935   0
  -7   8   3 2669.84 212.391   0
   7   8  -2 311.820 130.159   0
  -7  -8   2 270.042 123.442   0
   7  -8  -2 366.581 79.4070   1
  -7   8   2 239.535 135.678   0
   7  -8  -1 1348.27 114.108   1
  -7  -8   1 1276.85 168.234   0
   7   8  -1 1678.99 170.554   0
  -7   8   1 1356.40 167.311   0
  -7  -8   0 4492.15 266.557   0
   7  -8   0 4838.56 194.737   1
   7   8   0 4694.82 266.243   0
  -7   8   0 4293.90 271.974   0
   7  -8   1 13394.8 317.183   1
   7   8   1 13131.9 418.852   0
  -7   8  -1 11888.5 415.288   0
   7   8   2 475.546 130.490   0
  -7  -8  -2 513.624 101.942   3
   7  -8   2 578.436 94.5904   1
  -7   8  -2 310.703 156.536   0
   7  -8   3 14.2334 87.1330   1
   7   8   3 19.6911 141.485   0
  -7   8  -3 56.6086 159.988   0
   7   8   4 18.3076 77.5865   1
   7  -8   4-4.08729 81.6387   1
   7   8   4 136.743 144.983   0
   7   8   5 293.850 87.9021   1
   7  -8   5 249.832 101.913   1
   7   8   6 4273.53 205.057   1
   7  -8   6 3925.80 214.914   1
   7   8   7 831.060 123.914   1
   7  -8   7 967.637 144.514   1
   7   8   8-39.8245 118.726   1
   7  -8   8 33.2790 111.852   1
  -7   9  11 101.691 119.287   2
  -7   9  10 1038.48 120.727   2
  -7   9   9 2456.58 158.420   2
  -7  -9   6 416.115 146.603   0
   7   9  -6 328.792 160.646   0
  -7   9   6 483.820 138.974   0
  -7  -9   5 240.028 150.926   0
   7   9  -5 182.854 162.432   0
   7  -9  -5 407.171 77.7592   1
  -7   9   5 229.360 136.588   0
  -7  -9   4 414.358 144.755   0
   7  -9  -4 488.110 82.8498   1
   7   9  -4 388.934 159.697   0
  -7   9   4 361.553 125.614   0
  -7  -9   3 17.4664 154.807   0
   7  -9  -3-6.27073 68.3725   1
   7   9  -3 111.225 135.024   0
  -7   9   3-6.99452 124.954   0
  -7  -9   2 3273.09 238.378   0
   7   9  -2 3948.14 262.022   0
   7  -9  -2 3516.78 170.940   1
  -7   9   2 3655.92 247.328   0
  -7   9   2 3387.08 157.486   3
   7  -9  -1 950.431 103.119   1
  -7  -9   1 815.122 155.192   0
   7   9  -1 975.932 170.080   0
  -7   9   1 873.408 154.131   0
  -7  -9   0 2105.76 197.523   0
   7   9   0 2517.17 223.762   0
   7  -9   0 2405.84 155.464   1
  -7   9   0 2427.01 219.274   0
   7  -9   1 1157.96 123.632   1
   7   9   1 1156.75 155.548   0
  -7   9  -1 1021.47 158.865   0
   7   9   2 2471.90 193.584   0
   7  -9   2 2828.92 169.586   1
  -7   9  -2 2287.44 213.508   0
  -7  -9  -3 35.9886 82.7746   3
   7  -9   3-22.4248 78.5237   1
   7   9   4 4384.70 197.780   1
   7  -9   4 4456.79 218.361   1
   7   9   5 680.848 110.998   1
   7  -9   5 725.777 122.029   1
   7   9   6 420.087 112.928   1
   7  -9   6 555.130 115.419   1
   7   9   7-23.3006 106.220   1
   7  -9   7-8.90325 98.7522   1
   7   9   8 910.276 131.432   1
  -7  10  11 2906.76 195.799   2
  -7  10  10 4180.80 200.579   2
   7  10  -6 303.415 204.854   0
   7 -10  -5 2699.70 152.679   1
   7  10  -5 2327.59 234.472   0
   7 -10  -4 2158.68 139.266   1
  -7  10   4 2240.63 213.042   0
   7  10  -4 1964.11 204.798   0
  -7 -10   4 1964.42 206.150   0
  -7 -10   3 2365.76 208.639   0
   7 -10  -3 2038.36 140.419   1
  -7  10   3 2033.89 203.881   0
   7  10  -3 2247.44 219.527   0
  -7 -10   2 669.361 164.385   0
   7  10  -2 682.008 150.554   0
   7 -10  -2 745.101 104.767   1
  -7  10   2 600.539 140.893   0
  -7 -10   1 68.0114 171.999   0
   7  10  -1 327.993 141.166   0
   7 -10  -1 135.714 75.9428   1
  -7  10   1 81.9103 145.749   0
  -7 -10   0 4125.58 295.142   0
   7 -10   0 5755.46 218.998   1
  -7  10   0 5326.73 299.673   0
   7  10   0 5374.15 298.904   0
   7 -10   1 54.4588 74.7570   1
  -7  10  -1 78.7793 178.879   0
   7 -10   2 1480.60 134.249   1
  -7  10  -2 1287.96 199.612   0
   7 -10   3 1371.63 136.348   1
   7 -10   4 442.512 110.871   1
   7  10   5 641.047 111.245   1
   7 -10   5 469.078 116.474   1
   7  10   6 43.7298 106.212   1
   7 -10   6 272.544 105.841   1
   7 -10   7 1341.27 152.398   1
   7  10   7 1116.05 151.633   1
   7 -11  -5 758.529 108.305   1
   7 -11  -4 2753.83 164.928   1
   7 -11  -3 1378.39 123.953   1
  -7 -11   3 1062.32 186.441   0
   7  11  -3 1331.86 127.488   2
   7 -11  -2 7659.00 251.616   1
  -7 -11   2 5704.42 343.248   0
  -7 -11   1 577.940 196.532   0
   7 -11  -1 510.065 103.623   1
   7 -11   0 3018.48 173.240   1
   7 -11   1 827.015 112.381   1
   7 -11   2 667.166 120.039   1
   7 -11   3 5274.58 234.373   1
   7 -11   4 10332.9 331.579   1
   7 -11   5-90.8079 109.702   1
   7  11   6 197.021 117.805   1
   7 -11   6 457.226 122.584   1
   7 -12  -5-12.1729 93.2004   1
   7 -12  -4 2289.86 157.262   1
   7  12  -4 1692.69 153.681   2
   7  12  -3 100.790 92.6922   2
   7 -12  -2 99.0838 84.0597   1
   7 -12  -1 667.823 116.340   1
   7 -12   0 4015.74 200.804   1
   7 -12   1-58.0035 93.4749   1
   7 -12   2 5030.83 233.666   1
   7 -12   3 284.035 109.197   1
   7 -12   4 1100.40 142.634   1
   7 -12   5 617.018 140.825   1
   7 -13  -6 256.742 106.718   1
   7 -13  -5 1004.24 131.569   1
   7 -13  -4 414.971 97.1555   1
   7  13  -4 431.973 104.758   2
   7 -13  -3 1348.50 138.197   1
   7  13  -3 1026.05 139.133   2
   7 -13  -2 52.7300 95.2574   1
   7 -13  -1 3876.21 197.906   1
   7 -13   0 287.697 96.3173   1
   7 -13   1 151.566 92.0321   1
   7 -13   2 51.6633 103.990   1
   7 -13   3 462.622 111.378   1
   7 -13   4 77.0913 112.594   1
   7 -14  -6 160.005 116.498   1
   7 -14  -5 86.7410 111.206   1
   7  14  -5 36.1249 122.303   2
   7 -14  -4 1413.02 141.244   1
   7  14  -4 1296.93 158.999   2
   7 -14  -3 2301.86 167.559   1
   7  14  -3 2022.45 163.251   2
   7 -14  -2 1635.18 151.576   1
   7 -14  -1 142.836 100.658   1
   7 -14   0 5619.52 248.431   1
   7 -14   1 460.344 108.900   1
   7 -14   2 1897.47 156.404   1
   7 -14   3-85.9377 106.164   1
   7 -15  -5 77.0312 125.000   1
   7  15  -5-65.6647 142.470   2
   7 -15  -4 116.896 115.072   1
   7  15  -4 124.160 130.649   2
   7 -15  -3 3591.94 209.842   1
   7  15  -3 2262.80 196.286   2
   7 -15  -2 1859.72 167.227   1
   7 -15  -1 1820.99 160.631   1
   7 -15   0 1442.59 145.078   1
   7 -15   1 321.465 109.516   1
  -8   0   6 1424.69 182.557   0
  -8   0   5 83.4951 147.013   0
  -8   0   4 2405.81 218.356   0
  -8   0   3-92.4815 137.266   0
  -8   0   2 5772.68 306.868   0
  -8   0   1 141.702 136.471   0
  -8   0   0 527.476 159.069   0
   8   0   1-12.1194 68.4753   1
  -8   0  -1-262.162 173.312   0
   8   0   2 8479.37 253.849   1
   8   0   3-17.8644 77.0141   1
   8   0   4 74.3472 89.0039   1
   8   0   5-44.6841 89.1933   1
   8   0   6 492.067 111.423   1
   8   0   7-13.2294 102.202   1
  -8  -1   6 7564.53 360.099   0
  -8   1   6 7149.44 340.251   0
  -8  -1   5 1702.22 190.075   0
  -8   1   5 1458.34 174.036   0
  -8  -1   4 73.7651 143.538   0
  -8   1   4 130.199 131.195   0
  -8  -1   3 548.483 144.781   0
  -8   1   3 1018.29 154.542   0
  -8  -1   2 56.5922 134.715   0
  -8   1   2 43.3314 134.238   0
  -8  -1   1 2434.75 210.743   0
  -8   1   1 1871.72 188.838   0
  -8  -1   1 1912.27 149.109   3
  -8  -1   0 837.606 157.704   0
  -8   1   0 494.504 156.089   0
   8  -1   1 2748.82 158.498   1
  -8  -1  -1 2437.57 235.888   0
  -8   1  -1 2716.39 235.037   0
   8   1   2 48.2486 76.5640   1
   8  -1   2-11.4297 73.4352   1
   8   1   3 227.369 78.6900   1
   8  -1   3 170.268 91.7569   1
   8   1   4 10504.6 297.299   1
   8  -1   4 11129.2 308.953   1
   8   1   5 749.045 116.755   1
   8  -1   5 832.782 120.620   1
   8   1   6 405.465 109.940   1
   8  -1   6 465.192 104.403   1
   8   1   7-3.11000 107.912   1
   8  -1   7-72.9785 108.489   1
  -8  -2   6 469.709 157.828   0
  -8   2   6 209.319 153.080   0
  -8  -2   5 2384.40 231.423   0
  -8   2   5 2415.80 211.457   0
  -8  -2   4 314.420 142.614   0
  -8   2   4 687.507 139.644   0
  -8  -2   3 11089.8 417.456   0
  -8   2   3 11493.8 413.631   0
  -8  -2   2 9053.22 374.612   0
  -8   2   2 8908.33 366.886   0
  -8   2   2 8891.38 277.166   3
  -8   2   1 1524.46 179.128   0
  -8  -2   1 1254.19 139.854   3
  -8  -2   1 1184.07 174.561   0
   8  -2   0 281.542 73.6433   1
  -8  -2   0 202.037 143.243   0
  -8   2   0 365.726 151.963   0
   8  -2   1 1229.83 108.149   1
  -8  -2  -1 1205.61 176.539   0
  -8   2  -1 723.134 173.535   0
   8   2   2 1103.00 106.465   1
   8  -2   2 1124.43 115.732   1
   8   2   3 1013.88 114.900   1
   8  -2   3 996.946 122.222   1
   8   2   4 250.294 92.9108   1
   8  -2   4 324.462 105.066   1
   8   2   5 4085.09 209.777   1
   8  -2   5 4551.11 222.156   1
   8   2   6 107.353 99.4939   1
   8  -2   6 298.215 103.451   1
   8   2   7 61.6870 110.745   1
   8  -2   7 65.6055 103.769   1
  -8  -3   5 59.0524 161.555   0
  -8   3   5 358.998 154.802   0
  -8  -3   4 102.264 140.916   0
  -8   3   4 246.372 152.770   0
  -8  -3   3 586.362 164.457   0
  -8   3   3 545.126 133.107   0
  -8  -3   2 3243.71 252.871   0
  -8   3   2 3631.13 251.210   0
  -8   3   2 4019.83 195.494   3
  -8  -3   1 30.1413 157.300   0
  -8   3   1-30.7910 151.535   0
   8  -3   0 964.915 107.916   1
  -8  -3   0 1074.61 129.335   3
  -8  -3   0 797.261 161.596   0
  -8   3   0 1008.91 151.566   0
   8  -3   1 508.817 93.5947   1
  -8  -3  -1 403.715 161.175   0
  -8   3  -1 426.748 171.300   0
   8  -3   2 52.3792 77.6026   1
   8   3   3 1013.91 106.836   1
   8  -3   3 863.262 118.448   1
   8   3   4 213.442 86.5109   1
   8  -3   4 238.902 93.5555   1
   8   3   5-42.7985 92.4300   1
   8  -3   5-24.7292 90.3134   1
   8   3   6 269.024 98.2761   1
   8  -3   6 182.950 99.8106   1
   8   3   7-34.5477 118.978   1
   8  -3   7 2.39808 114.654   1
  -8  -4   5 2835.72 241.927   0
  -8  -4   4 446.941 143.307   0
  -8   4   4 400.984 137.562   0
  -8  -4   3 1346.31 190.619   0
  -8   4   3 1320.24 177.200   0
  -8  -4   2 2422.73 224.457   0
  -8   4   2 1694.54 198.780   0
  -8   4   2 2129.94 149.804   3
   8  -4  -1 722.905 99.6283   1
  -8  -4   1 920.618 160.153   0
  -8   4   1 768.378 157.308   0
  -8  -4   0 2459.28 215.167   0
   8  -4   0 2193.98 139.882   1
  -8   4   0 2036.41 204.244   0
  -8  -4   0 2023.72 160.418   3
   8  -4   1 1112.07 114.607   1
  -8   4  -1 648.424 166.006   0
   8  -4   2 88.4127 78.6592   1
   8  -4   3 1650.70 141.656   1
   8   4   4-24.8421 90.1707   1
   8  -4   4 93.0101 89.2339   1
   8   4   5 611.580 112.746   1
   8  -4   5 449.189 117.420   1
   8   4   6 8.99966 107.292   1
   8  -4   6-42.5566 99.8793   1
   8   4   7 188.907 117.165   1
   8  -4   7 67.6090 120.585   1
   8   5  -6 1009.48 198.209   0
  -8  -5   4 440.330 163.520   0
  -8  -5   3 2745.79 225.732   0
  -8   5   3 2332.03 213.854   0
  -8  -5   2 1519.73 181.985   0
  -8   5   2 1714.24 139.842   3
  -8   5   2 1413.95 189.799   0
  -8  -5   1-48.6156 175.406   0
   8  -5  -1 143.676 75.4338   1
  -8   5   1 82.9016 153.451   0
   8  -5   0 991.481 114.101   1
  -8  -5   0 691.934 167.971   0
  -8   5   0 958.611 161.535   0
  -8  -5  -1 95.4998 103.081   3
   8  -5   1 76.8280 77.4295   1
   8  -5   2 10.4474 83.1670   1
   8  -5   3 271.391 96.5640   1
   8   5   4 569.816 101.918   1
   8  -5   4 624.631 118.174   1
   8   5   5 105.302 98.6376   1
   8  -5   5 10.0091 98.3604   1
   8   5   6 184.017 109.226   1
   8  -5   6 135.340 109.700   1
   8   5   7 1670.21 171.391   1
  -8  -6   3 2692.10 232.241   0
  -8  -6   2 1877.64 201.345   0
  -8   6   2 1885.67 151.500   3
   8  -6  -1 376.478 90.8590   1
  -8   6   1 232.903 177.625   0
   8  -6   0 440.064 92.5565   1
  -8   6   0 388.896 159.348   0
  -8  -6  -1 454.281 115.576   3
   8  -6   1 663.047 102.816   1
   8  -6   2 920.418 119.427   1
   8  -6   3 760.374 121.914   1
   8  -6   4 1099.50 142.649   1
   8   6   5-66.4307 109.760   1
   8  -6   5 28.7912 102.139   1
   8   6   6 362.208 114.577   1
   8  -6   6 293.895 107.703   1
   8  -7  -2 1475.19 125.626   1
  -8  -7   1 2784.02 233.384   0
   8  -7  -1 2721.91 167.812   1
   8  -7   0 710.315 114.502   1
   8  -7   1 1285.59 133.193   1
  -8  -7  -2 396.833 110.458   3
   8  -7   2 324.304 93.4526   1
   8  -7   3 13.4912 92.8997   1
   8  -7   4 182.132 98.6602   1
   8  -7   5 1528.98 161.355   1
   8  -7   6 181.977 111.703   1
   8  -8  -2 2337.12 155.919   1
   8  -8  -1 851.582 113.714   1
   8  -8   0-35.5847 88.2786   1
   8  -8   1 776.823 115.382   1
   8  -8   2 1118.88 129.891   1
   8  -8   3 1552.46 158.684   1
  -8  -8  -3 1316.46 147.103   3
   8  -8   4 1501.20 150.899   1
   8  -8   5 453.000 119.250   1
   8  -9  -2 803.460 106.475   1
   8  -9  -1 158.654 91.3004   1
   8  -9   0 611.729 106.601   1
   8  -9   1 1671.21 156.222   1
   8  -9   2 750.686 128.892   1
   8  -9   3 266.640 109.538   1
   8  -9   4 3262.59 213.695   1
   8 -10  -3 6352.68 241.846   1
   8 -10  -2 591.230 110.139   1
   8 -10  -1 37.9319 97.4239   1
   8 -10   0 454.752 117.018   1
   8 -10   1 3856.33 214.094   1
   8 -10   2 3015.28 199.608   1
   8 -10   3 50.5873 116.313   1
   8 -11  -3 18.2094 108.654   1
   8 -11  -2 1923.13 154.626   1
   8 -11  -1 1018.13 126.717   1
   8 -11   0 785.691 123.017   1
   8 -11   1 705.759 116.851   1
   8 -11   2 248.687 111.443   1
   8 -12  -3 183.218 121.048   1
   8 -12  -2 4921.24 224.390   1
   8 -12  -1 196.456 110.165   1
   8 -12   0 372.675 114.636   1
   8 -12   1 23.2325 122.346   1
  -9   0   0-3.01479 99.0640   3
  -9  -1   0-39.2718 105.512   3
  -9   1   0-52.0114 111.619   3
  -9  -2  -1 1.83921 106.589   3
   9  -2   3-19.8733 110.302   1
   9  -2   4 449.075 123.444   1
  -9   3   1-46.0084 111.376   3
  -9  -3  -1 28.6997 116.137   3
   9  -3   3-34.2003 115.628   1
   9  -3   4 736.062 132.897   1
  -9   4   1 102.764 113.321   3
   9  -4   2-10.4574 113.521   1
  -9  -4  -2 101.110 121.679   3
   9  -4   3 54.8622 121.221   1
  -9   5   1 1186.14 155.497   3
   9  -5   2 379.760 116.979   1
  -9  -5  -2 407.988 123.480   3
   9  -5   3 34.0616 126.592   1
  -9   6   1 206.746 119.042   3
   9  -6   2-251.458 124.200   1
;
_shelx_hkl_checksum              26874
loop_
_space_group_symop_operation_xyz
'x, y, z'
'-x, y+1/2, -z+1/2'
'-x, -y, -z'
'x, -y-1/2, z-1/2'
loop_
_atom_site_label
_atom_site_type_symbol
_atom_site_fract_x
_atom_site_fract_y
_atom_site_fract_z
_atom_site_U_iso_or_equiv
_atom_site_adp_type
_atom_site_occupancy
_atom_site_site_symmetry_order
_atom_site_calc_flag
_atom_site_refinement_flags_posn
_atom_site_refinement_flags_adp
_atom_site_refinement_flags_occupancy
P1 P 0.15575(4) 0.42146(2) 0.67090(2) 0.00835(6) Uani 1 1 d . . .
O1 O 0.28600(12) 0.49859(5) 0.59387(7) 0.01224(12) Uani 1 1 d . . .
H1 H 0.1983 0.5128 0.5218 0.018 Uiso 0.5 1 calc R U P
O2 O 0.20737(12) 0.43513(5) 0.82123(6) 0.01066(12) Uani 1 1 d . . .
O3 O -0.12014(12) 0.41912(5) 0.62507(7) 0.01295(12) Uani 1 1 d . . .
H3 H -0.1521 0.4498 0.5517 0.019 Uiso 0.5 1 calc R U P
O4 O 0.78742(13) 0.24896(5) 0.37182(7) 0.01597(14) Uani 1 1 d . . .
O5 O 0.85980(13) 0.08887(5) 0.45941(7) 0.01374(13) Uani 1 1 d . . .
H5 H 0.9617 0.0851 0.4061 0.021 Uiso 1 1 calc R U .
N1 N 0.52168(13) 0.11097(5) 0.61769(8) 0.00990(13) Uani 1 1 d . . .
H1N H 0.6060 0.0536 0.6144 0.012 Uiso 1 1 calc R U .
C2 C 0.56493(15) 0.19150(6) 0.53937(8) 0.00933(14) Uani 1 1 d . . .
C3 C 0.44444(15) 0.28437(6) 0.54846(8) 0.00943(14) Uani 1 1 d . . .
H3A H 0.4741 0.3412 0.4936 0.011 Uiso 1 1 calc R U .
C4 C 0.27859(15) 0.29416(6) 0.63894(8) 0.00913(14) Uani 1 1 d . . .
C5 C 0.22777(16) 0.20686(6) 0.71207(9) 0.01056(14) Uani 1 1 d . . .
H5A H 0.1073 0.2102 0.7693 0.013 Uiso 1 1 calc R U .
C6 C 0.35449(16) 0.11559(6) 0.70035(9) 0.01094(14) Uani 1 1 d . . .
H6A H 0.3230 0.0564 0.7508 0.013 Uiso 1 1 calc R U .
C7 C 0.75068(15) 0.17944(6) 0.44675(9) 0.01036(14) Uani 1 1 d . . .
loop_
_atom_site_aniso_label
_atom_site_aniso_U_11
_atom_site_aniso_U_22
_atom_site_aniso_U_33
_atom_site_aniso_U_23
_atom_site_aniso_U_13
_atom_site_aniso_U_12
P1 0.00934(10) 0.00750(9) 0.00857(10) 0.00000(6) 0.00253(7) 0.00039(6)
O1 0.0141(3) 0.0105(2) 0.0128(3) 0.0023(2) 0.0045(2) -0.0013(2)
O2 0.0135(3) 0.0107(2) 0.0085(3) -0.00144(19) 0.0037(2) -0.00148(19)
O3 0.0093(3) 0.0144(3) 0.0151(3) 0.0007(2) 0.0015(2) 0.0004(2)
O4 0.0188(3) 0.0129(3) 0.0184(3) 0.0046(2) 0.0105(3) 0.0030(2)
O5 0.0158(3) 0.0119(3) 0.0154(3) 0.0022(2) 0.0086(2) 0.0048(2)
N1 0.0107(3) 0.0087(3) 0.0108(3) 0.0003(2) 0.0033(2) 0.0008(2)
C2 0.0098(3) 0.0089(3) 0.0096(3) -0.0004(2) 0.0026(3) 0.0000(2)
C3 0.0104(3) 0.0088(3) 0.0096(3) 0.0001(2) 0.0032(3) 0.0002(2)
C4 0.0093(3) 0.0087(3) 0.0095(3) -0.0006(2) 0.0019(3) 0.0000(2)
C5 0.0113(3) 0.0101(3) 0.0110(3) 0.0007(2) 0.0042(3) 0.0004(2)
C6 0.0126(4) 0.0095(3) 0.0115(4) 0.0012(2) 0.0043(3) 0.0005(2)
C7 0.0109(3) 0.0100(3) 0.0108(3) -0.0006(2) 0.0034(3) 0.0006(2)
loop_
_atom_type_symbol
_atom_type_description
_atom_type_scat_dispersion_real
_atom_type_scat_dispersion_imag
_atom_type_scat_source
C C 0.0033 0.0016 'International Tables Vol C Tables 4.2.6.8 and 6.1.1.4'
H H 0.0000 0.0000 'International Tables Vol C Tables 4.2.6.8 and 6.1.1.4'
N N 0.0061 0.0033 'International Tables Vol C Tables 4.2.6.8 and 6.1.1.4'
O O 0.0106 0.0060 'International Tables Vol C Tables 4.2.6.8 and 6.1.1.4'
P P 0.1023 0.0942 'International Tables Vol C Tables 4.2.6.8 and 6.1.1.4'
loop_
_geom_angle_atom_site_label_1
_geom_angle_atom_site_label_2
_geom_angle_atom_site_label_3
_geom_angle
O1 P1 O2 114.04(4)
O1 P1 O3 112.82(4)
O2 P1 O3 109.93(5)
O1 P1 C4 106.24(4)
O2 P1 C4 105.15(4)
O3 P1 C4 108.14(4)
P1 O1 H1 109.5
P1 O3 H3 109.5
C7 O5 H5 109.5
C6 N1 C2 122.22(7)
C6 N1 H1N 118.9
C2 N1 H1N 118.9
N1 C2 C3 119.83(8)
N1 C2 C7 119.10(7)
C3 C2 C7 121.04(8)
C2 C3 C4 119.63(8)
C2 C3 H3A 120.2
C4 C3 H3A 120.2
C3 C4 C5 118.62(7)
C3 C4 P1 119.83(6)
C5 C4 P1 121.29(7)
C6 C5 C4 119.54(8)
C6 C5 H5A 120.2
C4 C5 H5A 120.2
N1 C6 C5 119.92(8)
N1 C6 H6A 120.0
C5 C6 H6A 120.0
O4 C7 O5 126.96(9)
O4 C7 C2 120.67(8)
O5 C7 C2 112.36(7)
loop_
_geom_bond_atom_site_label_1
_geom_bond_atom_site_label_2
_geom_bond_distance
P1 O1 1.5140(8)
P1 O2 1.5231(8)
P1 O3 1.5389(9)
P1 C4 1.8260(9)
O1 H1 0.8400
O3 H3 0.8400
O4 C7 1.2129(11)
O5 C7 1.3145(11)
O5 H5 0.8400
N1 C6 1.3419(13)
N1 C2 1.3513(11)
N1 H1N 0.8800
C2 C3 1.3826(12)
C2 C7 1.5034(13)
C3 C4 1.3995(13)
C3 H3A 0.9500
C4 C5 1.4004(12)
C5 C6 1.3865(12)
C5 H5A 0.9500
C6 H6A 0.9500
loop_
_geom_hbond_atom_site_label_D
_geom_hbond_atom_site_label_H
_geom_hbond_atom_site_label_A
_geom_hbond_distance_DH
_geom_hbond_distance_HA
_geom_hbond_distance_DA
_geom_hbond_angle_DHA
_geom_hbond_site_symmetry_A
O1 H1 O3 0.84 1.73 2.5168(12) 154.7 3_566
O3 H3 O1 0.84 1.69 2.5168(12) 166.0 3_566
O5 H5 O2 0.84 1.74 2.5680(13) 168.8 4_665
N1 H1N O2 0.88 1.91 2.7448(12) 158.0 2_646
C5 H5A O4 0.95 2.25 3.1805(15) 165.7 4_466
C6 H6A O3 0.95 2.53 3.4556(13) 164.0 2_546
loop_
_geom_torsion_atom_site_label_1
_geom_torsion_atom_site_label_2
_geom_torsion_atom_site_label_3
_geom_torsion_atom_site_label_4
_geom_torsion
C6 N1 C2 C3 3.66(12)
C6 N1 C2 C7 -178.43(8)
N1 C2 C3 C4 0.05(12)
C7 C2 C3 C4 -177.83(7)
C2 C3 C4 C5 -4.05(12)
C2 C3 C4 P1 170.19(6)
O1 P1 C4 C3 -4.81(8)
O2 P1 C4 C3 -126.04(7)
O3 P1 C4 C3 116.55(7)
O1 P1 C4 C5 169.27(7)
O2 P1 C4 C5 48.04(8)
O3 P1 C4 C5 -69.36(8)
C3 C4 C5 C6 4.57(12)
P1 C4 C5 C6 -169.59(7)
C2 N1 C6 C5 -3.13(13)
C4 C5 C6 N1 -1.07(13)
N1 C2 C7 O4 177.36(8)
C3 C2 C7 O4 -4.75(13)
N1 C2 C7 O5 -3.04(11)
C3 C2 C7 O5 174.85(8)
