#------------------------------------------------------------------------------
#$Date: 2019-11-23 21:38:06 +0200 (Sat, 23 Nov 2019) $
#$Revision: 235137 $
#$URL: file:///home/coder/svn-repositories/cod/cif/4/03/67/4036729.cif $
#------------------------------------------------------------------------------
#
# This file is available in the Crystallography Open Database (COD),
# http://www.crystallography.net/
#
# All data on this site have been placed in the public domain by the
# contributors.
#
data_4036729
loop_
_publ_author_name
'Mironov, Vladimir F.'
'Dimukhametov, Mudaris N.'
'Efimov, Sergey V.'
'Aminova, Roza M.'
'Karataeva, Farida Kh'
'Krivolapov, Dmitry B.'
'Mironova, Ekaterina V.'
'Klochkov, Vladimir V.'
_publ_section_title
;
 Stereoselective PCO/POC-Rearrangement of P-C-Cage Phosphorane in the
 Reaction of
 4,5-Dimethyl-2-(2-oxo-1,2-diphenyl)ethoxy-1,3,2-dioxaphospholane with
 Hexafluoroacetone.
;
_journal_issue                   14
_journal_name_full               'The Journal of organic chemistry'
_journal_page_first              5837
_journal_page_last               5850
_journal_paper_doi               10.1021/acs.joc.6b00356
_journal_volume                  81
_journal_year                    2016
_chemical_formula_moiety         'C17 H12 F6 O2'
_chemical_formula_sum            'C17 H12 F6 O2'
_chemical_formula_weight         362.27
_space_group_crystal_system      triclinic
_space_group_IT_number           2
_space_group_name_Hall           '-P 1'
_space_group_name_H-M_alt        'P -1'
_atom_sites_solution_hydrogens   mixed
_atom_sites_solution_primary     direct
_atom_sites_solution_secondary   geom
_audit_creation_method           SHELXL-2013
_cell_angle_alpha                71.020(11)
_cell_angle_beta                 82.779(12)
_cell_angle_gamma                75.326(11)
_cell_formula_units_Z            2
_cell_length_a                   6.964(7)
_cell_length_b                   11.279(12)
_cell_length_c                   11.328(12)
_cell_measurement_reflns_used    1799
_cell_measurement_temperature    296(2)
_cell_measurement_theta_max      22.07
_cell_measurement_theta_min      2.28
_cell_volume                     813.0(15)
_computing_cell_refinement       'Bruker SAINT'
_computing_data_collection       'Bruker APEX2'
_computing_data_reduction        'Bruker SAINT'
_computing_molecular_graphics    'Bruker SHELXTL'
_computing_publication_material  'Bruker SHELXTL'
_computing_structure_refinement  'SHELXL-2013 (Sheldrick, 2013)'
_computing_structure_solution    'SHELXS-2013 (Sheldrick, 2013)'
_diffrn_ambient_temperature      296(2)
_diffrn_measured_fraction_theta_full 0.996
_diffrn_measured_fraction_theta_max 0.993
_diffrn_measurement_device_type  'Bruker APEX-II CCD'
_diffrn_measurement_method       \w-scan
_diffrn_radiation_probe          x-ray
_diffrn_radiation_type           MoK\a
_diffrn_radiation_wavelength     0.71073
_diffrn_reflns_av_R_equivalents  0.0450
_diffrn_reflns_av_unetI/netI     0.0532
_diffrn_reflns_Laue_measured_fraction_full 0.996
_diffrn_reflns_Laue_measured_fraction_max 0.993
_diffrn_reflns_limit_h_max       8
_diffrn_reflns_limit_h_min       -8
_diffrn_reflns_limit_k_max       13
_diffrn_reflns_limit_k_min       -13
_diffrn_reflns_limit_l_max       13
_diffrn_reflns_limit_l_min       -13
_diffrn_reflns_number            8265
_diffrn_reflns_point_group_measured_fraction_full 0.996
_diffrn_reflns_point_group_measured_fraction_max 0.993
_diffrn_reflns_theta_full        25.242
_diffrn_reflns_theta_max         25.995
_diffrn_reflns_theta_min         1.903
_diffrn_source                   'sealed tube'
_diffrn_source_type              'Smart Apex2'
_exptl_absorpt_coefficient_mu    0.142
_exptl_absorpt_correction_T_max  0.7459
_exptl_absorpt_correction_T_min  0.5428
_exptl_absorpt_correction_type   multi-scan
_exptl_absorpt_process_details   sadabs
_exptl_crystal_colour            colorless
_exptl_crystal_density_diffrn    1.480
_exptl_crystal_description       prism
_exptl_crystal_F_000             368
_exptl_crystal_size_max          0.250
_exptl_crystal_size_mid          0.200
_exptl_crystal_size_min          0.200
_refine_diff_density_max         0.183
_refine_diff_density_min         -0.226
_refine_diff_density_rms         0.048
_refine_ls_extinction_method     none
_refine_ls_goodness_of_fit_ref   1.489
_refine_ls_hydrogen_treatment    mixed
_refine_ls_matrix_type           full
_refine_ls_number_parameters     230
_refine_ls_number_reflns         3180
_refine_ls_number_restraints     0
_refine_ls_restrained_S_all      1.489
_refine_ls_R_factor_all          0.0953
_refine_ls_R_factor_gt           0.0534
_refine_ls_shift/su_max          0.000
_refine_ls_shift/su_mean         0.000
_refine_ls_structure_factor_coef Fsqd
_refine_ls_weighting_details
;
 w=1/[\s^2^(Fo^2^)]
 where P=(Fo^2^+2Fc^2^)/3
;
_refine_ls_weighting_scheme      calc
_refine_ls_wR_factor_gt          0.0938
_refine_ls_wR_factor_ref         0.1040
_reflns_Friedel_coverage         0.000
_reflns_number_gt                1873
_reflns_number_total             3180
_reflns_threshold_expression     'I > 2\s(I)'
_cod_data_source_file            jo6b00356_si_005.cif
_cod_data_source_block           14_1451980
_cod_original_cell_volume        813.0(14)
_cod_database_code               4036729
_shelx_space_group_comment
;
The symmetry employed for this shelxl refinement is uniquely defined
by the following loop, which should always be used as a source of
symmetry information in preference to the above space-group names.
They are only intended as comments.
;
_shelx_estimated_absorpt_t_min   0.965
_shelx_estimated_absorpt_t_max   0.972
_shelxl_version_number           2013-2
_shelx_res_file
;
TITL m34_fin1 in P-1
CELL 0.71073   6.9642  11.2788  11.3275  71.020  82.779  75.326
ZERR    2.00   0.0071   0.0115   0.0115   0.011   0.012   0.011
LATT 1
SFAC C  H  O  F
UNIT 34  24  4  12
OMIT -3 52
L.S. 4
ACTA
BOND
FMAP 2
PLAN 20
TEMP 23.000
WGHT    0.000000
FVAR       0.34671
MOLE 1
O1    3    0.415596    0.127736    0.393117    11.00000    0.05202    0.04401 =
         0.05246   -0.00701   -0.01621   -0.00753
O2    3    0.285831   -0.088721    0.440108    11.00000    0.05883    0.04280 =
         0.05983   -0.00115   -0.00932   -0.01531
F5    4    0.086397   -0.144244    0.294281    11.00000    0.07068    0.05558 =
         0.14317   -0.02381   -0.02879   -0.02303
F2    4    0.646900   -0.089603    0.308678    11.00000    0.04212    0.08276 =
         0.13522   -0.04289   -0.00786   -0.00275
F1    4    0.487046   -0.215644    0.281682    11.00000    0.07706    0.04534 =
         0.13801   -0.03628   -0.00018   -0.00155
F6    4   -0.045753    0.044998    0.303622    11.00000    0.04280    0.07857 =
         0.12967   -0.03663   -0.01462   -0.00277
F4    4    0.115559    0.017548    0.138438    11.00000    0.10382    0.10274 =
         0.07976   -0.01910   -0.03370   -0.03762
F3    4    0.513921   -0.045410    0.135710    11.00000    0.10678    0.08583 =
         0.08293   -0.03279    0.02683   -0.00308
C3    1    0.308558    0.120585    0.295652    11.00000    0.03707    0.03948 =
         0.04707   -0.00927   -0.00667   -0.00655
C2    1    0.301430   -0.019896    0.313417    11.00000    0.04112    0.03934 =
         0.05136   -0.00988   -0.00880   -0.00756
C12   1    0.124424    0.316264    0.371796    11.00000    0.06325    0.03949 =
         0.04139   -0.01026   -0.00157   -0.00855
C4    1    0.201951    0.176975    0.393346    11.00000    0.05239    0.04419 =
         0.04909   -0.00895   -0.00254   -0.01075
AFIX  13
H4    2    0.126187    0.121968    0.456801    11.00000   -1.20000
AFIX   0
C1    1    0.488357   -0.092757    0.256625    11.00000    0.05006    0.04702 =
         0.08473   -0.02424   -0.00391   -0.00718
C5    1    0.114744   -0.025982    0.260587    11.00000    0.05691    0.04587 =
         0.08189   -0.01867   -0.01515   -0.01118
C7    1    0.190105    0.280924    0.095105    11.00000    0.05232    0.05744 =
         0.04911   -0.00806   -0.00559   -0.00295
AFIX  43
H7    2    0.061604    0.271732    0.122697    11.00000   -1.20000
AFIX   0
C6    1    0.346350    0.209241    0.169062    11.00000    0.04242    0.03842 =
         0.04288   -0.00739   -0.00503   -0.00345
C13   1   -0.078893    0.360069    0.389025    11.00000    0.06410    0.05005 =
         0.05951   -0.01252    0.00060   -0.01124
AFIX  43
H13   2   -0.160827    0.301874    0.415038    11.00000   -1.20000
AFIX   0
C17   1    0.243248    0.403220    0.335920    11.00000    0.06630    0.04591 =
         0.06514   -0.01906    0.00312   -0.01136
AFIX  43
H17   2    0.379864    0.374914    0.324892    11.00000   -1.20000
AFIX   0
C11   1    0.535503    0.225492    0.127863    11.00000    0.04978    0.06326 =
         0.06622   -0.00332   -0.00282   -0.01137
AFIX  43
H11   2    0.642189    0.178380    0.177839    11.00000   -1.20000
AFIX   0
C15   1   -0.039908    0.574915    0.331714    11.00000    0.09471    0.04343 =
         0.06596   -0.01709   -0.00886    0.00166
AFIX  43
H15   2   -0.094945    0.662257    0.317728    11.00000   -1.20000
AFIX   0
C14   1   -0.159379    0.489407    0.367687    11.00000    0.06993    0.05687 =
         0.07161   -0.02036   -0.00513    0.00193
AFIX  43
H14   2   -0.295962    0.518593    0.377867    11.00000   -1.20000
AFIX   0
C10   1    0.566993    0.311205    0.013016    11.00000    0.07514    0.09262 =
         0.06887    0.00033    0.01303   -0.03131
AFIX  43
H10   2    0.694981    0.321456   -0.014766    11.00000   -1.20000
AFIX   0
C16   1    0.160948    0.532485    0.316130    11.00000    0.08679    0.04776 =
         0.07206   -0.01813    0.00350   -0.02044
AFIX  43
H16   2    0.242290    0.591033    0.292100    11.00000   -1.20000
AFIX   0
C8    1    0.222824    0.366588   -0.020029    11.00000    0.08392    0.06774 =
         0.05192   -0.00323   -0.01417    0.00198
AFIX  43
H8    2    0.116867    0.414454   -0.070375    11.00000   -1.20000
AFIX   0
C9    1    0.411513    0.380802   -0.059764    11.00000    0.11120    0.07620 =
         0.05350    0.00114    0.00876   -0.02232
AFIX  43
H9    2    0.433578    0.438639   -0.137313    11.00000   -1.20000
AFIX   0
H2    2    0.374799   -0.070090    0.477464    11.00000    0.10127
HKLF 4

REM  m34_fin1 in P-1
REM R1 =  0.0534 for    1873 Fo > 4sig(Fo)  and  0.0953 for all    3180 data
REM    230 parameters refined using      0 restraints

END

WGHT      0.0679      0.1435

REM Highest difference peak  0.183,  deepest hole -0.226,  1-sigma level  0.048
Q1    1   0.5000  0.1850  0.4213  11.00000  0.05    0.18
Q2    1   0.1528  0.1920  0.0911  11.00000  0.05    0.17
Q3    1   0.2862  0.5755  0.3594  11.00000  0.05    0.17
Q4    1   0.1861  0.3678  0.4003  11.00000  0.05    0.17
Q5    1  -0.2064  0.3443  0.3550  11.00000  0.05    0.17
Q6    1   0.4171 -0.3249  0.2975  11.00000  0.05    0.16
Q7    1   0.4442 -0.2837  0.2663  11.00000  0.05    0.16
Q8    1  -0.3662  0.3644  0.3558  11.00000  0.05    0.15
Q9    1   0.5918 -0.2025  0.3544  11.00000  0.05    0.15
Q10   1   0.0410 -0.1497  0.3151  11.00000  0.05    0.15
Q11   1   0.0250 -0.2267  0.2784  11.00000  0.05    0.14
Q12   1   0.2179 -0.1476  0.4170  11.00000  0.05    0.14
Q13   1   0.2475  0.1427  0.3201  11.00000  0.05    0.14
Q14   1   0.7277  0.0276  0.2797  11.00000  0.05    0.14
Q15   1   0.1581  0.3500  0.3250  11.00000  0.05    0.14
Q16   1   0.4379  0.4947 -0.0762  11.00000  0.05    0.14
Q17   1   0.5264  0.2997  0.4194  11.00000  0.05    0.14
Q18   1   0.5441  0.0586  0.1403  11.00000  0.05    0.14
Q19   1  -0.2723  0.5750  0.4399  11.00000  0.05    0.13
Q20   1  -0.2824  0.4381  0.3359  11.00000  0.05    0.13
;
_shelx_res_checksum              35057
_shelx_hkl_file
;
  -1   0   0   22.71    1.02
  -1   0   0   22.54    1.05
   1   0   0   24.74    1.17
  -2   0   0   51.14    2.26
  -2   0   0   51.37    2.34
   2   0   0   54.59    2.60
  -3   0   0   42.23    2.00
  -3   0   0   40.37    1.87
   3   0   0   36.11    1.95
   3   0   0   45.59    2.20
  -4   0   0    1.90    0.40
  -4   0   0    1.67    0.29
   4   0   0    2.42    0.50
   4   0   0    2.49    0.46
  -5   0   0   24.37    1.58
   5   0   0   25.38    1.65
   5   0   0   24.09    1.55
  -6   0   0    1.29    0.49
   6   0   0    1.14    0.47
  -7   0   0    1.79    0.60
  -8   0   0   -0.15    0.53
  -9   0   0    0.51    0.76
  -8   1   0    0.45    0.61
  -7   1   0    1.06    0.57
   6  -1   0   11.74    1.07
  -6   1   0   11.17    1.27
   5  -1   0   92.48    4.16
   5  -1   0   87.12    4.68
  -5   1   0   85.85    4.23
   4  -1   0    5.66    0.65
   4  -1   0    5.12    0.76
  -4   1   0    5.58    0.69
   3  -1   0    1.87    0.32
   3  -1   0    2.15    0.45
  -3   1   0    4.16    0.51
  -3   1   0    2.02    0.27
   2  -1   0   20.58    1.22
   2  -1   0   20.50    1.01
  -2   1   0   20.83    0.95
  -2   1   0   20.17    1.06
   1  -1   0    4.47    0.25
   1  -1   0    4.32    0.36
  -1   1   0    3.99    0.23
  -1   1   0    3.95    0.28
   0  -1   0  450.75   21.25
   0  -1   0  463.94   18.90
   0   1   0  477.70   18.95
  -1  -1   0  515.18   22.85
  -1  -1   0  562.16   22.91
   1   1   0  604.25   22.59
  -2  -1   0  143.31    6.08
  -2  -1   0  143.79    6.11
   2   1   0  148.78    6.09
  -3  -1   0   98.40    4.54
  -3  -1   0  105.79    4.49
   3   1   0  108.74    4.58
  -4  -1   0    5.42    0.65
  -4  -1   0    4.42    0.45
   4   1   0    3.55    0.53
   4   1   0    4.69    0.51
  -5  -1   0    2.10    0.48
  -5  -1   0    2.53    0.43
   5   1   0    1.82    0.43
   5   1   0    2.60    0.53
  -6  -1   0    2.96    0.63
   6   1   0    1.28    0.47
  -7  -1   0   -0.13    0.42
   7   1   0    0.33    0.36
  -8  -1   0    0.09    0.53
   8   1   0    0.23    0.46
  -9  -1   0    1.01    0.75
  -8   2   0    0.51    0.62
  -7   2   0    1.31    0.64
   6  -2   0   -0.38    0.45
  -6   2   0    0.13    0.40
   5  -2   0   37.88    2.03
   5  -2   0   35.34    2.39
  -5   2   0   38.76    2.20
   4  -2   0    9.72    0.73
   4  -2   0   10.33    1.01
  -4   2   0    9.83    0.86
   3  -2   0   27.72    1.71
   3  -2   0   26.24    1.33
  -3   2   0   26.66    1.27
  -3   2   0   27.18    1.46
   2  -2   0  137.85    5.52
   2  -2   0  133.73    6.51
  -2   2   0  132.50    5.70
  -2   2   0  133.16    5.59
   1  -2   0   70.49    3.44
  -1   2   0   69.08    2.97
  -1   2   0   68.23    2.91
   0  -2   0  162.72    7.63
   0  -2   0  159.46    6.74
   0   2   0  171.42    6.63
   0   2   0  160.31    6.77
  -1  -2   0  226.24    9.51
  -1  -2   0  223.12   10.63
   1   2   0  233.21    9.44
   1   2   0  242.85    9.58
  -2  -2   0   85.76    3.62
  -2  -2   0   80.95    3.59
   2   2   0   82.96    3.62
  -3  -2   0    6.40    0.55
  -3  -2   0    7.77    0.56
   3   2   0    8.50    0.65
  -4  -2   0    1.12    0.32
  -4  -2   0    1.92    0.36
   4   2   0    1.79    0.41
  -5  -2   0    4.86    0.70
  -5  -2   0    4.71    0.64
   5   2   0    4.92    0.76
  -6  -2   0    0.80    0.41
   6   2   0    0.38    0.36
  -7  -2   0    0.64    0.49
   7   2   0    0.50    0.41
  -8  -2   0    0.37    0.52
   8   2   0   -0.59    0.38
  -9  -2   0    0.90    0.67
  -8   3   0    0.66    0.70
  -7   3   0    0.42    0.52
   6  -3   0    0.70    0.77
  -6   3   0    1.62    0.58
   5  -3   0    1.03    0.67
  -5   3   0    0.53    0.35
   4  -3   0    9.41    1.05
  -4   3   0    8.82    0.82
   3  -3   0    6.00    0.42
   3  -3   0    7.25    1.00
  -3   3   0    6.25    0.57
  -3   3   0    6.28    0.44
   2  -3   0   76.28    3.93
  -2   3   0   73.76    3.22
  -2   3   0   76.79    3.35
   1  -3   0   62.13    3.21
  -1   3   0   62.07    2.68
  -1   3   0   63.09    2.73
   0  -3   0   18.82    1.13
   0  -3   0   18.69    0.92
   0   3   0   19.06    0.85
   0   3   0   19.41    0.94
  -1  -3   0   53.49    2.34
  -1  -3   0   51.32    2.62
   1   3   0   53.91    2.39
   1   3   0   55.13    2.35
  -2  -3   0  202.26    8.85
   2   3   0  224.14    8.88
  -3  -3   0   14.11    0.85
  -3  -3   0   12.97    0.82
   3   3   0   12.18    0.88
  -4  -3   0   21.44    1.27
  -4  -3   0   21.13    1.25
   4   3   0   21.60    1.37
  -5  -3   0    1.55    0.39
  -5  -3   0    3.33    0.59
   5   3   0    2.17    0.50
  -6  -3   0    3.03    0.64
   6   3   0    1.99    0.54
  -7  -3   0    0.64    0.50
   7   3   0    2.14    0.65
  -8  -3   0    1.67    0.63
   8   3   0    0.16    0.40
  -9  -3   0   -0.39    0.57
   9   3   0   -0.18    0.48
  -8   4   0    0.48    0.68
  -7   4   0   -0.37    0.46
   6  -4   0    0.34    0.73
  -6   4   0    1.60    0.53
   5  -4   0   11.48    1.63
  -5   4   0    9.95    1.15
   4  -4   0    4.87    1.04
  -4   4   0    5.57    0.76
   3  -4   0   16.48    1.34
  -3   4   0   13.92    0.79
  -3   4   0   15.07    0.98
   2  -4   0   21.05    1.53
  -2   4   0   21.65    1.07
  -2   4   0   22.70    1.20
   1  -4   0   -0.05    0.19
  -1   4   0    0.16    0.11
  -1   4   0    0.15    0.12
   0  -4   0   22.19    1.33
   0   4   0   20.50    1.07
   0   4   0   20.79    0.96
  -1  -4   0   33.00    1.84
  -1  -4   0   34.43    1.60
   1   4   0   34.71    1.61
   1   4   0   35.70    1.68
  -2  -4   0    0.28    0.14
   2   4   0    0.08    0.11
   2   4   0    0.10    0.13
  -3  -4   0  104.47    4.59
   3   4   0  104.30    4.64
   3   4   0  106.46    4.70
  -4  -4   0   12.19    0.90
   4   4   0   14.28    1.04
  -5  -4   0   10.04    1.05
   5   4   0    6.91    0.94
  -6  -4   0   14.79    1.24
   6   4   0   15.30    1.33
  -7  -4   0    0.81    0.48
   7   4   0    0.41    0.40
  -8  -4   0    1.37    0.63
   8   4   0    0.75    0.51
  -9  -4   0    0.31    0.68
   9   4   0   -0.37    0.47
  -7   5   0    1.98    0.75
   6  -5   0    0.01    0.73
  -6   5   0   -0.32    0.38
   5  -5   0    1.37    0.82
  -5   5   0    0.66    0.44
   4  -5   0   12.30    1.39
  -4   5   0   13.69    1.07
   3  -5   0   -0.16    0.36
  -3   5   0    0.07    0.12
  -3   5   0    0.30    0.21
   2  -5   0   19.40    1.55
  -2   5   0   20.88    1.07
  -2   5   0   21.20    1.19
   1  -5   0   10.60    0.99
  -1   5   0   10.81    0.71
  -1   5   0   11.90    0.70
   0  -5   0   -0.05    0.24
   0   5   0    0.39    0.17
   0   5   0    0.30    0.15
  -1  -5   0   44.52    2.09
   1   5   0   46.33    2.08
   1   5   0   45.13    2.17
  -2  -5   0    0.20    0.12
  -2  -5   0    0.62    0.23
   2   5   0    0.59    0.20
   2   5   0    0.38    0.18
  -3  -5   0   15.73    0.98
   3   5   0   16.78    1.05
   3   5   0   16.16    1.08
  -4  -5   0    1.07    0.30
   4   5   0    0.08    0.18
   4   5   0   -0.11    0.16
  -5  -5   0   -0.15    0.21
   5   5   0   -0.06    0.19
   5   5   0   -0.12    0.21
  -6  -5   0    2.22    0.58
   6   5   0    1.20    0.40
   6   5   0    1.79    0.56
  -7  -5   0   -0.10    0.37
   7   5   0    0.06    0.37
  -8  -5   0    1.06    0.62
   8   5   0    1.52    0.57
  -9  -5   0   -0.01    0.65
   9   5   0    0.24    0.51
   7  -6   0    2.78    1.15
  -7   6   0    0.65    0.62
   6  -6   0    0.34    0.79
  -6   6   0   -0.48    0.35
   5  -6   0   -0.38    0.63
  -5   6   0    0.24    0.38
   4  -6   0   17.58    1.75
  -4   6   0   19.47    1.33
   3  -6   0   19.07    1.77
  -3   6   0   22.30    1.34
   2  -6   0    0.23    0.36
  -2   6   0    0.30    0.21
  -2   6   0    0.23    0.17
   1  -6   0   45.96    2.75
  -1   6   0   44.25    2.15
  -1   6   0   45.99    2.20
   0  -6   0   -0.03    0.24
   0   6   0   -0.04    0.13
   0   6   0    0.03    0.12
  -1  -6   0   61.88    2.79
   1   6   0   60.00    2.86
   1   6   0   60.70    2.73
  -2  -6   0    3.78    0.46
  -2  -6   0    3.98    0.61
   2   6   0    4.87    0.58
   2   6   0    5.22    0.52
  -3  -6   0    4.08    0.50
   3   6   0    5.34    0.66
   3   6   0    4.28    0.61
  -4  -6   0    8.69    0.77
   4   6   0    8.75    0.79
   4   6   0   10.16    0.90
  -5  -6   0    1.49    0.42
   5   6   0    1.60    0.44
   5   6   0    1.03    0.44
  -6  -6   0    4.15    0.75
   6   6   0    4.58    0.73
   6   6   0    3.79    0.77
  -7  -6   0    1.07    0.51
   7   6   0    0.97    0.46
   7   6   0    1.80    0.61
  -8  -6   0    0.12    0.55
   8   6   0    0.09    0.41
  -9  -6   0    0.49    0.67
   7  -7   0    2.51    1.17
   6  -7   0    2.16    1.05
  -6   7   0    2.04    0.65
   5  -7   0   -1.03    0.56
  -5   7   0   -0.14    0.39
   4  -7   0    4.74    1.17
  -4   7   0    5.09    0.79
   3  -7   0   -0.54    0.42
  -3   7   0    0.08    0.25
   2  -7   0    0.08    0.35
  -2   7   0   -0.01    0.15
  -2   7   0    0.06    0.22
   1  -7   0    7.48    1.19
  -1   7   0    5.94    0.55
  -1   7   0    5.45    0.66
   0  -7   0    3.82    0.78
   0   7   0    6.64    0.76
   0   7   0    4.94    0.63
  -1  -7   0  108.48    5.49
  -1  -7   0  106.62    4.70
   1   7   0  107.46    4.79
   1   7   0  103.81    4.58
  -2  -7   0   13.05    1.06
  -2  -7   0   12.79    0.86
   2   7   0   13.47    0.92
   2   7   0   13.40    0.96
  -3  -7   0    4.09    0.63
  -3  -7   0    5.19    0.63
   3   7   0    4.36    0.64
   3   7   0    5.22    0.69
  -4  -7   0    3.62    0.56
   4   7   0    3.89    0.67
   4   7   0    3.64    0.62
  -5  -7   0    0.97    0.40
   5   7   0    0.13    0.27
   5   7   0    1.03    0.38
  -6  -7   0    2.23    0.56
   6   7   0    2.13    0.61
   6   7   0    1.77    0.53
  -7  -7   0    2.04    0.65
   7   7   0    1.21    0.61
   7   7   0    2.16    0.60
  -8  -7   0   -0.44    0.52
   8   7   0   -0.05    0.42
  -9  -7   0    0.50    0.72
   6  -8   0    0.87    0.97
  -6   8   0    0.01    0.52
   5  -8   0    0.17    0.78
  -5   8   0    0.89    0.51
   4  -8   0    9.39    1.65
  -4   8   0   10.06    1.01
   3  -8   0    0.22    0.63
  -3   8   0    0.69    0.37
   2  -8   0    0.03    0.40
  -2   8   0   -0.03    0.17
  -2   8   0    0.16    0.29
   1  -8   0    0.39    0.49
  -1   8   0    0.36    0.23
  -1   8   0    0.35    0.23
   0  -8   0    1.84    0.62
   0   8   0    1.73    0.40
   0   8   0    1.30    0.36
  -1  -8   0    2.57    0.45
  -1  -8   0    2.74    0.69
   1   8   0    2.73    0.53
  -2  -8   0    4.85    0.82
  -2  -8   0    5.71    0.56
   2   8   0    4.57    0.62
   2   8   0    5.46    0.72
  -3  -8   0    4.33    0.59
   3   8   0    3.65    0.62
   3   8   0    4.31    0.69
  -4  -8   0    5.93    0.77
   4   8   0    6.40    0.86
   4   8   0    6.15    0.85
  -5  -8   0    6.72    0.85
   5   8   0    7.37    1.01
   5   8   0    7.52    0.96
  -6  -8   0   -0.30    0.34
   6   8   0    0.45    0.34
   6   8   0    0.36    0.33
  -7  -8   0    0.05    0.50
   7   8   0    0.01    0.44
   7   8   0   -0.12    0.36
  -8  -8   0    0.95    0.67
   8   8   0    0.85    0.58
   5  -9   0   -0.34    0.66
  -5   9   0    0.62    0.48
   4  -9   0    3.30    1.18
  -4   9   0    2.89    0.67
   3  -9   0    0.03    0.75
  -3   9   0    0.17    0.35
   2  -9   0    3.70    1.02
  -2   9   0    3.35    0.67
  -2   9   0    2.49    0.49
   1  -9   0   22.15    2.05
  -1   9   0   23.22    1.42
  -1   9   0   23.06    1.49
   0  -9   0    2.99    0.84
   0   9   0    3.93    0.66
   0   9   0    3.44    0.58
  -1  -9   0    0.68    0.48
   1   9   0    1.31    0.36
  -2  -9   0   31.79    2.16
  -2  -9   0   33.03    1.77
   2   9   0   31.34    1.77
   2   9   0   32.49    1.89
  -3  -9   0    5.90    0.72
   3   9   0    6.92    0.90
   3   9   0    6.22    0.81
  -4  -9   0    2.18    0.51
   4   9   0    2.86    0.67
   4   9   0    2.67    0.59
  -5  -9   0   12.20    1.10
   5   9   0   10.27    1.27
   5   9   0   12.83    1.10
  -6  -9   0    2.70    0.65
   6   9   0    2.10    0.60
   6   9   0    2.85    0.67
  -7  -9   0    0.22    0.51
   7   9   0    0.39    0.40
   7   9   0   -0.22    0.33
  -8  -9   0    1.20    0.74
   8   9   0   -0.45    0.36
   4 -10   0    2.25    1.15
  -4  10   0    0.99    0.50
   3 -10   0   -0.27    0.70
  -3  10   0    0.70    0.42
   2 -10   0    1.63    0.83
  -2  10   0    2.64    0.68
   1 -10   0    4.23    1.13
  -1  10   0    4.90    0.77
  -1  10   0    3.36    0.69
   0 -10   0    3.77    1.05
   0  10   0    3.47    0.63
   0  10   0    4.72    0.78
  -1 -10   0    9.45    1.50
   1  10   0   10.07    0.92
   1  10   0    8.59    0.88
  -2 -10   0    4.19    0.61
  -2 -10   0    3.18    0.82
   2  10   0    2.96    0.58
  -3 -10   0    0.17    0.23
   3  10   0   -0.13    0.31
   3  10   0    0.37    0.28
  -4 -10   0   -0.19    0.24
   4  10   0    0.09    0.31
   4  10   0    0.11    0.32
  -5 -10   0    0.47    0.39
   5  10   0    0.02    0.34
   5  10   0    0.22    0.34
  -6 -10   0    2.12    0.60
   6  10   0    2.56    0.68
   6  10   0    2.08    0.66
  -7 -10   0    2.20    0.69
   7  10   0    0.40    0.49
   7  10   0    0.33    0.38
  -8 -10   0   -0.36    0.62
   8  10   0    0.29    0.49
   3 -11   0    0.67    0.91
  -3  11   0    0.37    0.45
   2 -11   0    6.40    1.45
  -2  11   0    6.15    1.01
   1 -11   0   -0.51    0.64
  -1  11   0    0.36    0.39
  -1  11   0    0.09    0.30
   0 -11   0    1.71    0.87
   0  11   0    1.16    0.46
   0  11   0    1.31    0.44
  -1 -11   0   -0.20    0.50
   1  11   0    0.13    0.34
   1  11   0   -0.19    0.23
  -2 -11   0    1.03    0.37
   2  11   0    1.18    0.40
  -3 -11   0    0.04    0.24
   3  11   0    0.06    0.35
  -4 -11   0    0.00    0.29
   4  11   0    0.15    0.34
  -5 -11   0   -0.11    0.37
   5  11   0    0.59    0.42
   5  11   0    0.03    0.34
  -6 -11   0    0.18    0.44
   6  11   0    0.17    0.39
   6  11   0    0.18    0.42
  -7 -11   0   -0.67    0.53
   7  11   0   -0.11    0.41
   7  11   0    0.57    0.49
   2 -12   0    0.11    0.82
  -2  12   0    0.03    0.54
   1 -12   0   -0.16    0.67
  -1  12   0    0.82    0.53
   0 -12   0    0.50    0.80
   0  12   0    0.74    0.43
   0  12   0    1.33    0.58
  -1 -12   0    1.72    0.91
   1  12   0    1.67    0.53
   1  12   0    1.77    0.59
   2  12   0    1.35    0.51
   2  12   0    2.82    0.61
  -3 -12   0   -0.67    0.24
   3  12   0    0.79    0.39
  -4 -12   0    2.85    0.59
   4  12   0    3.13    0.73
  -5 -12   0   -0.48    0.36
   5  12   0   -0.20    0.36
  -6 -12   0    0.35    0.46
   6  12   0    0.27    0.45
   6  12   0    0.44    0.46
   1 -13   0    1.03    1.08
  -1  13   0    2.09    0.73
   0 -13   0    0.13    0.91
   0  13   0    0.08    0.31
   0  13   0    0.20    0.48
  -1 -13   0   -0.39    0.85
   1  13   0   -0.42    0.26
   1  13   0   -0.23    0.35
   2  13   0    0.77    0.49
   2  13   0    1.76    0.67
  -3 -13   0    0.41    0.35
   3  13   0    0.96    0.46
  -4 -13   0    0.24    0.34
   4  13   0    0.06    0.36
  -5 -13   0    0.76    0.45
   5  13   0    0.28    0.40
   0 -14   0    0.20    1.03
   1  14   0    0.54    0.44
   2  14   0    0.13    0.38
   2  14   0   -0.22    0.47
   3  14   0    0.24    0.51
   3  14   0   -0.44    0.32
   2  14  -1    0.74    0.48
   1  14  -1    0.30    0.41
   4  13  -1   -0.20    0.36
  -4 -13   1    0.00    0.33
   3  13  -1    0.85    0.46
  -3 -13   1   -0.19    0.27
   2  13  -1    5.90    0.99
   2  13  -1    5.28    0.96
   1  13  -1    0.79    0.54
   1  13  -1    0.28    0.36
   0  13  -1    0.05    0.39
   0  13  -1    0.53    0.53
   0 -13   1   -0.04    0.81
   1 -13   1    0.11    0.95
   6  12  -1    0.23    0.52
   6  12  -1    0.22    0.41
  -6 -12   1    0.06    0.45
   5  12  -1    0.79    0.53
  -5 -12   1   -0.03    0.38
   4  12  -1    0.23    0.49
  -4 -12   1    0.63    0.36
   3  12  -1    0.24    0.35
  -3 -12   1    0.01    0.32
   2  12  -1    2.78    0.67
   1  12  -1    1.16    0.56
   1  12  -1    1.17    0.49
  -1 -12   1    0.89    0.83
   0  12  -1    1.94    0.57
   0  12  -1    3.35    0.79
   0 -12   1    2.67    1.08
  -1  12  -1    0.59    0.60
   1 -12   1    2.45    1.14
  -2  12  -1   -0.07    0.46
   2 -12   1    0.52    0.97
   7  11  -1    0.62    0.49
   7  11  -1    0.39    0.59
  -7 -11   1   -0.82    0.44
   6  11  -1    0.27    0.41
   6  11  -1    0.12    0.40
  -6 -11   1   -0.58    0.33
   5  11  -1    0.65    0.46
   5  11  -1    0.36    0.39
  -5 -11   1    1.65    0.51
   4  11  -1    2.14    0.61
  -4 -11   1    2.22    0.57
   3  11  -1   -0.58    0.24
  -3 -11   1    0.40    0.28
   2  11  -1   -0.21    0.24
  -2 -11   1   -0.52    0.24
   1  11  -1    0.24    0.35
   1  11  -1   -0.37    0.22
  -1 -11   1    0.24    0.54
   0  11  -1    0.12    0.32
   0  11  -1    0.37    0.43
   0 -11   1    0.51    0.66
  -1  11  -1    4.11    0.86
   1 -11   1    4.10    1.30
  -2  11  -1    0.34    0.47
   2 -11   1    0.81    0.89
  -3  11  -1    0.43    0.43
   3 -11   1    0.58    0.99
   7  10  -1   -0.19    0.43
   7  10  -1   -0.15    0.35
  -7 -10   1    1.69    0.62
   6  10  -1   -0.14    0.41
   6  10  -1    0.60    0.40
  -6 -10   1    0.47    0.44
   5  10  -1    2.33    0.68
   5  10  -1    4.96    0.89
  -5 -10   1    3.74    0.69
   4  10  -1    3.00    0.65
   4  10  -1    2.20    0.57
  -4 -10   1    4.98    0.72
   3  10  -1    1.35    0.51
  -3 -10   1    0.78    0.36
   2  10  -1   -0.06    0.25
  -2 -10   1   -0.02    0.24
   1  10  -1    2.51    0.57
   1  10  -1    1.74    0.48
  -1 -10   1    2.39    0.82
   0  10  -1    0.29    0.39
   0  10  -1    0.16    0.28
   0 -10   1    0.19    0.58
  -1  10  -1    7.03    0.98
  -1  10  -1    8.33    1.00
   1 -10   1    8.35    1.61
  -2  10  -1    0.41    0.37
   2 -10   1   -0.22    0.53
  -3  10  -1   -0.14    0.37
   3 -10   1    0.26    0.77
  -4  10  -1    0.40    0.42
   4 -10   1    1.86    1.14
   8   9  -1   -0.06    0.45
  -8  -9   1   -0.06    0.58
   7   9  -1    0.40    0.44
   7   9  -1    0.50    0.42
  -7  -9   1    0.22    0.44
   6   9  -1    0.74    0.47
   6   9  -1   -0.29    0.30
  -6  -9   1    0.37    0.42
   5   9  -1   -0.18    0.26
   5   9  -1    0.09    0.31
  -5  -9   1    0.10    0.26
   4   9  -1    5.64    0.87
   4   9  -1    7.52    0.97
  -4  -9   1    7.13    0.91
   3   9  -1    0.35    0.29
   3   9  -1    0.35    0.26
  -3  -9   1    0.68    0.32
   2   9  -1    4.85    0.78
  -2  -9   1    2.36    0.46
  -2  -9   1    1.78    0.62
   1   9  -1    0.51    0.33
  -1  -9   1    0.84    0.33
  -1  -9   1    0.49    0.44
   0   9  -1    0.86    0.40
   0   9  -1    0.26    0.31
   0  -9   1    1.64    0.78
  -1   9  -1    0.31    0.27
  -1   9  -1    0.54    0.35
   1  -9   1    0.23    0.51
  -2   9  -1   17.20    1.34
   2  -9   1   17.28    1.90
  -3   9  -1   -0.23    0.27
   3  -9   1    0.20    0.63
   4  -9   1    1.54    0.93
  -5   9  -1   -0.44    0.42
   5  -9   1    0.21    0.74
   8   8  -1    0.85    0.66
  -8  -8   1    1.72    0.73
   7   8  -1    1.12    0.49
   7   8  -1    0.39    0.38
  -7  -8   1    0.21    0.48
   6   8  -1    0.93    0.38
   6   8  -1    0.06    0.32
  -6  -8   1    0.50    0.40
   5   8  -1    6.94    0.99
   5   8  -1    5.06    0.87
  -5  -8   1    5.69    0.82
   4   8  -1   19.82    1.47
   4   8  -1   21.12    1.47
  -4  -8   1   22.08    1.40
   3   8  -1    8.05    1.00
   3   8  -1    6.37    0.82
  -3  -8   1    7.18    0.69
   2   8  -1    8.51    0.78
   2   8  -1    7.19    0.68
  -2  -8   1    7.09    0.67
  -2  -8   1    6.29    0.94
   1   8  -1    6.44    0.83
  -1  -8   1    5.70    0.70
  -1  -8   1    5.44    1.03
   0   8  -1    1.67    0.45
   0   8  -1    2.49    0.53
   0  -8   1    2.77    0.78
  -1   8  -1    4.01    0.62
  -1   8  -1    4.55    0.70
   1  -8   1    2.87    0.90
  -2   8  -1   -0.04    0.27
   2  -8   1   -0.10    0.45
  -3   8  -1    1.57    0.50
   3  -8   1    2.39    0.92
  -4   8  -1    0.26    0.29
   4  -8   1    0.55    0.69
  -5   8  -1   -0.19    0.37
   5  -8   1    0.61    0.71
  -6   8  -1    0.04    0.54
   6  -8   1    0.45    0.86
   8   7  -1    0.30    0.47
  -8  -7   1   -0.32    0.45
   7   7  -1    0.53    0.51
   7   7  -1    2.71    0.65
  -7  -7   1    2.31    0.65
   6   7  -1    0.14    0.33
   6   7  -1    0.00    0.32
  -6  -7   1   -0.44    0.28
   5   7  -1    1.34    0.48
   5   7  -1    0.29    0.28
  -5  -7   1    0.69    0.38
   4   7  -1   -0.30    0.17
   4   7  -1    0.25    0.26
  -4  -7   1    0.12    0.22
   3   7  -1    2.81    0.53
   3   7  -1    3.44    0.58
  -3  -7   1    3.40    0.53
   2   7  -1    7.58    0.68
   2   7  -1    8.18    0.74
  -2  -7   1    6.81    0.77
  -2  -7   1    7.46    0.63
   1   7  -1   69.34    3.15
   1   7  -1   70.34    3.32
  -1  -7   1   69.12    3.22
   0   7  -1   -0.14    0.15
   0   7  -1    0.03    0.21
   0  -7   1    0.51    0.41
  -1   7  -1    1.24    0.32
  -1   7  -1    1.20    0.33
   1  -7   1    0.96    0.52
  -2   7  -1    2.30    0.39
  -2   7  -1    2.99    0.52
   2  -7   1    2.44    0.74
  -3   7  -1    0.70    0.32
   3  -7   1    0.40    0.48
  -4   7  -1    0.44    0.30
   4  -7   1   -0.08    0.55
  -5   7  -1   -0.42    0.35
   5  -7   1    0.54    0.71
  -6   7  -1   -0.07    0.49
   6  -7   1    1.16    1.03
   7  -7   1    1.43    1.14
   8   6  -1   -0.28    0.37
  -8  -6   1   -0.55    0.44
   7   6  -1    0.14    0.30
   7   6  -1    0.16    0.40
  -7  -6   1    0.79    0.48
   6   6  -1    0.63    0.33
   6   6  -1    0.85    0.41
  -6  -6   1    0.39    0.34
   5   6  -1    3.07    0.67
   5   6  -1    4.85    0.76
  -5  -6   1    4.11    0.71
   4   6  -1    0.76    0.31
   4   6  -1    0.97    0.36
  -4  -6   1    0.35    0.27
   3   6  -1   26.58    1.62
   3   6  -1   29.63    1.66
  -3  -6   1   28.69    1.54
   2   6  -1   13.78    0.97
   2   6  -1   14.20    0.95
  -2  -6   1   14.32    1.01
  -2  -6   1   13.74    0.88
   1   6  -1   28.86    1.53
   1   6  -1   27.57    1.43
  -1  -6   1   26.61    1.44
   0   6  -1   -0.05    0.14
   0   6  -1    0.05    0.11
   0  -6   1    0.32    0.30
  -1   6  -1   26.56    1.40
  -1   6  -1   26.26    1.44
   1  -6   1   23.88    1.84
  -2   6  -1   14.08    0.98
  -2   6  -1   14.89    0.88
   2  -6   1   13.41    1.35
  -3   6  -1   18.28    1.22
   3  -6   1   18.82    1.73
  -4   6  -1    0.32    0.28
   4  -6   1    0.62    0.52
  -5   6  -1    1.43    0.56
   5  -6   1    1.19    0.78
  -6   6  -1    0.72    0.51
   6  -6   1    0.25    0.85
  -7   6  -1    0.68    0.61
   7  -6   1    2.65    0.95
  -9  -5   1   -0.61    0.59
   8   5  -1    1.12    0.59
  -8  -5   1    0.38    0.57
   7   5  -1    0.02    0.36
   7   5  -1    0.79    0.48
  -7  -5   1    0.35    0.42
   6   5  -1    0.10    0.30
  -6  -5   1    0.11    0.30
   5   5  -1    4.67    0.77
  -5  -5   1    5.94    0.81
   4   5  -1    1.36    0.41
  -4  -5   1    1.25    0.35
   3   5  -1    0.39    0.22
   3   5  -1    0.38    0.24
  -3  -5   1    0.72    0.27
   2   5  -1   -0.04    0.13
   2   5  -1    0.03    0.12
  -2  -5   1    0.20    0.14
  -2  -5   1    0.28    0.18
   1   5  -1   24.19    1.31
   1   5  -1   23.07    1.23
  -1  -5   1   23.32    1.21
  -1  -5   1   22.70    1.44
   0   5  -1    2.28    0.38
   0   5  -1    1.93    0.26
   0  -5   1    1.73    0.46
   0  -5   1    2.57    0.37
  -1   5  -1   21.88    1.17
  -1   5  -1   23.20    1.22
   1  -5   1   21.16    1.57
  -2   5  -1    0.02    0.17
  -2   5  -1    0.12    0.13
   2  -5   1    0.27    0.31
  -3   5  -1   10.25    0.81
   3  -5   1   10.21    1.39
  -4   5  -1    9.59    0.85
   4  -5   1    9.86    1.46
  -5   5  -1    1.68    0.51
   5  -5   1    1.75    0.76
  -6   5  -1    0.63    0.52
   6  -5   1    0.37    0.84
  -7   5  -1    0.57    0.57
   7  -5   1   -0.42    0.77
   9   4  -1    0.36    0.50
  -9  -4   1   -0.51    0.59
   8   4  -1    1.23    0.59
  -8  -4   1    0.92    0.62
   7   4  -1   -0.15    0.32
  -7  -4   1    0.26    0.40
   6   4  -1    3.10    0.64
  -6  -4   1    4.02    0.74
  -6  -4   1    3.80    0.67
   5   4  -1   39.52    2.30
  -5  -4   1   41.27    2.21
  -5  -4   1   38.54    2.18
   4   4  -1    2.22    0.51
  -4  -4   1    1.78    0.41
  -4  -4   1    0.78    0.32
   3   4  -1    7.24    0.68
  -3  -4   1    7.90    0.62
  -3  -4   1    7.95    0.69
   2   4  -1   44.22    2.18
  -2  -4   1   45.44    2.11
   1   4  -1   63.72    2.74
   1   4  -1   61.11    2.81
  -1  -4   1   59.62    3.09
  -1  -4   1   60.98    2.73
   0   4  -1   87.14    3.52
   0   4  -1   81.63    3.65
   0  -4   1   81.21    4.20
   0  -4   1   82.52    3.62
  -1   4  -1  164.63    6.99
  -1   4  -1  166.01    7.03
   1  -4   1  168.86    8.13
  -2   4  -1   56.08    2.52
  -2   4  -1   58.21    2.66
   2  -4   1   57.92    3.24
  -3   4  -1    9.02    0.72
   3  -4   1    8.99    1.01
  -4   4  -1    0.66    0.32
   4  -4   1    0.55    0.49
  -5   4  -1   11.87    1.12
   5  -4   1   13.14    1.74
  -6   4  -1    2.57    0.76
   6  -4   1    1.65    0.95
  -7   4  -1    1.25    0.63
   7  -4   1    2.14    0.99
  -8   4  -1    0.37    0.71
   9   3  -1    0.34    0.49
  -9  -3   1   -0.73    0.52
   8   3  -1    0.13    0.41
  -8  -3   1    0.38    0.53
   7   3  -1    0.29    0.40
  -7  -3   1    0.48    0.43
   6   3  -1    5.66    0.88
  -6  -3   1    4.99    0.75
  -6  -3   1    5.73    0.82
   5   3  -1    1.53    0.43
  -5  -3   1    1.69    0.51
  -5  -3   1    1.12    0.38
   4   3  -1    0.37    0.26
  -4  -3   1    0.26    0.23
  -4  -3   1    0.55    0.25
   3   3  -1   87.62    3.97
  -3  -3   1   89.31    3.94
  -3  -3   1   84.02    3.88
   2   3  -1    0.06    0.09
  -2  -3   1    0.06    0.09
  -2  -3   1    0.06    0.11
   1   3  -1   28.76    1.35
  -1  -3   1   26.98    1.31
  -1  -3   1   27.14    1.46
   0   3  -1    7.89    0.52
   0   3  -1    8.71    0.47
   0  -3   1    8.37    0.50
   0  -3   1    8.11    0.65
  -1   3  -1   10.50    0.62
  -1   3  -1   11.05    0.59
   1  -3   1   10.51    0.85
  -2   3  -1    0.56    0.12
  -2   3  -1    1.10    0.23
   2  -3   1    0.62    0.32
  -3   3  -1    1.42    0.32
   3  -3   1    1.77    0.23
   3  -3   1    1.12    0.43
  -4   3  -1   13.59    1.02
   4  -3   1   12.83    1.27
  -5   3  -1   41.21    2.38
   5  -3   1   41.97    2.82
  -6   3  -1    1.50    0.57
   6  -3   1    3.53    1.00
  -7   3  -1    0.90    0.65
  -8   3  -1    0.69    0.77
   9   2  -1    0.22    0.55
  -9  -2   1    0.54    0.61
   8   2  -1    0.52    0.52
  -8  -2   1    0.13    0.48
   7   2  -1    0.01    0.34
  -7  -2   1    0.32    0.40
   6   2  -1    1.93    0.53
  -6  -2   1    4.06    0.72
  -6  -2   1    4.08    0.65
   5   2  -1    2.53    0.51
  -5  -2   1    2.20    0.51
  -5  -2   1    2.61    0.51
   4   2  -1   29.50    1.71
  -4  -2   1   30.28    1.66
  -4  -2   1   30.32    1.62
   3   2  -1    0.27    0.19
  -3  -2   1    0.13    0.14
  -3  -2   1    0.32    0.18
   2   2  -1    9.09    0.63
  -2  -2   1    9.21    0.61
  -2  -2   1    9.21    0.59
   1   2  -1   53.79    2.36
  -1  -2   1   54.03    2.39
  -1  -2   1   52.48    2.33
   0   2  -1  236.86    9.85
   0  -2   1  247.54    9.65
   0  -2   1  234.64    9.80
   0  -2   1  233.81   11.08
  -1   2  -1    1.84    0.22
  -1   2  -1    1.81    0.16
   1  -2   1    1.99    0.14
   1  -2   1    2.48    0.40
  -2   2  -1    4.66    0.39
   2  -2   1    4.74    0.64
   2  -2   1    4.74    0.30
  -3   2  -1    2.63    0.40
   3  -2   1    2.88    0.33
   3  -2   1    2.13    0.53
  -4   2  -1   14.78    1.05
   4  -2   1   14.52    1.25
   4  -2   1   14.70    0.89
  -5   2  -1   11.51    1.04
   5  -2   1   11.36    1.25
  -6   2  -1   -0.17    0.38
   6  -2   1    1.07    0.58
  -7   2  -1    4.58    0.95
  -8   2  -1    0.51    0.70
  -9  -1   1    0.43    0.67
   8   1  -1   -0.13    0.38
  -8  -1   1   -0.12    0.50
   7   1  -1   -0.34    0.27
  -7  -1   1   -0.16    0.34
   6   1  -1   12.01    1.12
  -6  -1   1   10.27    1.06
   5   1  -1    2.39    0.51
  -5  -1   1    1.38    0.43
  -5  -1   1    1.60    0.40
   4   1  -1   14.63    1.05
  -4  -1   1   15.91    1.03
  -4  -1   1   15.28    0.96
   3   1  -1    2.64    0.39
  -3  -1   1    3.23    0.41
  -3  -1   1    3.17    0.44
   2   1  -1   14.96    0.78
  -2  -1   1   11.45    0.70
  -2  -1   1   10.41    0.68
   1   1  -1  374.62   15.07
  -1  -1   1  361.97   15.23
  -1  -1   1  378.90   15.30
   0  -1   1    3.97    0.31
   0  -1   1    4.59    0.25
  -1   1  -1   36.89    1.65
   1  -1   1   35.91    1.94
   1  -1   1   40.10    1.59
  -2   1  -1   12.43    0.68
   2  -1   1   12.01    0.62
   2  -1   1   11.21    0.84
  -3   1  -1  100.71    4.38
   3  -1   1  100.70    4.97
   3  -1   1   96.03    4.22
  -4   1  -1    1.59    0.39
   4  -1   1    1.38    0.30
   4  -1   1    2.68    0.61
  -5   1  -1    2.24    0.53
   5  -1   1    2.02    0.48
   5  -1   1    1.82    0.57
  -6   1  -1   15.16    1.35
   6  -1   1   15.24    1.44
  -7   1  -1    1.37    0.61
  -8   1  -1   -0.52    0.61
  -9   1  -1    2.92    0.99
  -8   0   1   -0.10    0.50
   7   0  -1    1.93    0.62
  -7   0   1    1.44    0.49
   6   0  -1    7.87    1.01
  -6   0   1    9.19    1.16
   5   0  -1   -0.08    0.30
   5   0  -1   -0.04    0.20
  -5   0   1    0.01    0.20
  -5   0   1    0.15    0.29
   4   0  -1    1.31    0.36
   4   0  -1    0.25    0.25
  -4   0   1    0.12    0.18
  -4   0   1    0.16    0.17
   3   0  -1   79.42    3.71
   3   0  -1   75.38    3.40
  -3   0   1   73.18    3.41
  -3   0   1   73.20    3.33
   2   0  -1  171.33    6.94
   2   0  -1  174.08    7.75
  -2   0   1  160.99    6.96
  -2   0   1  159.05    6.99
   1   0  -1   53.11    2.20
  -1   0   1   50.76    2.22
  -1   0   1   49.98    2.21
   0   0  -1   98.34    4.53
   0   0   1   95.63    3.97
  -1   0  -1  964.76   39.98
   1   0   1 1000.00   44.96
  -2   0  -1    0.10    0.08
   2   0   1   -0.03    0.06
   2   0   1    0.03    0.15
  -3   0  -1   12.33    0.79
   3   0   1   12.59    0.92
  -4   0  -1    4.22    0.58
   4   0   1    4.78    0.73
  -5   0  -1    8.31    0.97
   5   0   1    7.38    0.99
  -6   0  -1   19.49    1.49
  -7   0  -1    0.08    0.49
  -8   0  -1   -0.42    0.54
  -9   0  -1    0.95    0.89
  -8   1   1    1.54    0.67
  -7   1   1    1.76    0.63
   6  -1  -1    0.71    0.40
  -6   1   1    1.46    0.54
   5  -1  -1   14.09    1.22
   5  -1  -1   16.59    1.16
  -5   1   1   15.98    1.23
  -5   1   1   12.77    1.01
   4  -1  -1   26.39    1.61
   4  -1  -1   25.89    1.45
  -4   1   1   23.79    1.31
  -4   1   1   24.90    1.50
   3  -1  -1   72.58    3.51
   3  -1  -1   67.33    3.08
  -3   1   1   66.73    3.03
  -3   1   1   67.52    3.16
   2  -1  -1  486.05   19.39
   2  -1  -1  507.45   22.07
  -2   1   1  470.38   19.64
  -2   1   1  449.89   19.67
   1  -1  -1  246.62   10.46
   1  -1  -1  283.43   11.95
  -1   1   1  249.32   10.63
  -1   1   1  252.96   10.64
   0  -1  -1   55.31    2.69
   0   1   1   57.94    2.39
  -1  -1  -1   53.46    2.19
   1   1   1   48.64    2.17
   1   1   1   53.53    2.20
  -2  -1  -1   11.79    0.65
   2   1   1   12.17    0.73
   2   1   1   11.34    0.67
  -3  -1  -1  101.22    4.44
  -3  -1  -1  104.10    4.56
   3   1   1  109.78    5.09
   3   1   1  104.71    4.55
  -4  -1  -1   14.11    0.95
   4   1   1   15.08    1.00
   4   1   1   13.90    1.02
  -5  -1  -1   12.52    1.06
   5   1   1   17.28    1.17
   5   1   1   14.63    1.14
  -6  -1  -1   18.28    1.38
   6   1   1   18.81    1.41
  -7  -1  -1    0.28    0.43
   7   1   1    0.50    0.41
  -8  -1  -1    1.47    0.73
  -9  -1  -1    1.00    0.81
  -8   2   1    1.57    0.71
  -7   2   1    5.87    0.96
  -6   2   1   15.34    1.39
   5  -2  -1   13.86    1.07
   5  -2  -1   12.59    1.26
  -5   2   1   12.94    1.17
   4  -2  -1    5.59    0.84
   4  -2  -1    6.35    0.60
  -4   2   1    6.94    0.84
  -4   2   1    5.70    0.51
   3  -2  -1  148.96    6.38
   3  -2  -1  157.68    7.38
  -3   2   1  145.94    6.55
  -3   2   1  152.62    6.41
   2  -2  -1   87.00    3.65
   2  -2  -1   88.58    4.28
  -2   2   1   83.68    3.77
  -2   2   1   85.13    3.68
   1  -2  -1   24.09    1.36
  -1   2   1   24.91    1.16
  -1   2   1   24.48    1.13
   0  -2  -1    0.29    0.11
   0   2   1    0.43    0.07
   0   2   1    0.34    0.07
   0   2   1    0.37    0.08
  -1  -2  -1    7.95    0.42
   1   2   1    8.65    0.47
   1   2   1    8.43    0.45
  -2  -2  -1   11.21    0.66
  -2  -2  -1   11.05    0.61
   2   2   1    9.83    0.64
   2   2   1   11.13    0.60
  -3  -2  -1   17.07    0.97
  -3  -2  -1   17.32    1.01
   3   2   1   17.10    1.03
  -4  -2  -1   27.63    1.54
   4   2   1   29.93    1.64
  -5  -2  -1   33.30    1.90
   5   2   1   35.52    2.00
  -6  -2  -1   20.81    1.52
   6   2   1   24.55    1.63
  -7  -2  -1    0.37    0.48
   7   2   1    0.08    0.39
  -8  -2  -1    1.22    0.65
   8   2   1    1.81    0.63
  -9  -2  -1    0.76    0.72
  -8   3   1    0.61    0.59
  -7   3   1    1.61    0.66
   6  -3  -1    0.70    0.66
  -6   3   1    1.02    0.52
   5  -3  -1    0.10    0.48
  -5   3   1    0.49    0.37
   4  -3  -1    6.15    0.65
   4  -3  -1    5.34    0.93
  -4   3   1    5.07    0.49
  -4   3   1    5.28    0.76
   3  -3  -1   56.58    2.51
   3  -3  -1   57.79    3.11
  -3   3   1   54.30    2.52
  -3   3   1   54.61    2.68
   2  -3  -1    6.11    0.75
  -2   3   1    5.51    0.39
  -2   3   1    4.88    0.45
   1  -3  -1   28.59    1.63
  -1   3   1   28.13    1.32
  -1   3   1   29.82    1.37
   0  -3  -1  680.57   30.12
   0   3   1  636.98   26.80
   0   3   1  654.76   26.72
   0   3   1  648.53   26.30
  -1  -3  -1  128.58    5.39
   1   3   1  133.41    5.45
   1   3   1  126.30    5.36
  -2  -3  -1   28.28    1.37
  -2  -3  -1   30.65    1.53
   2   3   1   30.14    1.42
   2   3   1   29.46    1.47
  -3  -3  -1   12.88    0.78
   3   3   1   11.32    0.82
  -4  -3  -1    7.79    0.65
   4   3   1    8.10    0.73
   4   3   1    7.28    0.58
  -5  -3  -1    2.69    0.55
   5   3   1    4.71    0.56
   5   3   1    2.75    0.54
  -6  -3  -1   31.75    1.93
   6   3   1   31.82    2.03
  -7  -3  -1   -0.01    0.41
   7   3   1   -0.08    0.34
  -8  -3  -1    0.76    0.56
   8   3   1   -0.07    0.37
  -9  -3  -1   -0.96    0.60
   9   3   1    0.14    0.52
  -8   4   1   -0.89    0.55
  -7   4   1    0.66    0.50
   6  -4  -1   -0.07    0.70
  -6   4   1    0.83    0.53
   5  -4  -1    1.90    0.78
  -5   4   1    0.94    0.45
   4  -4  -1   -0.25    0.40
  -4   4   1    0.06    0.19
  -4   4   1   -0.21    0.23
   3  -4  -1    0.30    0.33
  -3   4   1    0.14    0.14
  -3   4   1    0.11    0.18
   2  -4  -1    1.68    0.48
  -2   4   1    1.97    0.28
  -2   4   1    2.14    0.34
   1  -4  -1   78.43    4.15
  -1   4   1   81.63    3.52
  -1   4   1   84.46    3.56
   0  -4  -1   86.68    4.22
   0   4   1   83.83    3.49
   0   4   1   83.58    3.63
   0   4   1   85.17    3.66
  -1  -4  -1  344.95   14.03
   1   4   1  345.31   14.12
   1   4   1  333.29   13.86
  -2  -4  -1   91.45    4.10
  -2  -4  -1   98.15    4.61
   2   4   1   97.81    4.18
   2   4   1   95.87    4.16
  -3  -4  -1   34.98    1.66
   3   4   1   32.13    1.77
   3   4   1   34.20    1.69
  -4  -4  -1    7.12    0.63
   4   4   1    7.11    0.72
  -5  -4  -1   -0.13    0.20
   5   4   1    0.14    0.23
   5   4   1    0.04    0.20
  -6  -4  -1   -0.83    0.25
   6   4   1   -0.23    0.28
  -7  -4  -1   -0.47    0.42
   7   4   1    1.23    0.49
  -8  -4  -1   -0.07    0.52
   8   4   1   -0.13    0.44
  -9  -4  -1    0.72    0.64
   9   4   1    0.86    0.60
  -7   5   1    0.25    0.54
   6  -5  -1    1.85    0.82
  -6   5   1    1.76    0.59
   5  -5  -1   16.71    1.77
  -5   5   1   17.18    1.41
   4  -5  -1    5.95    1.20
  -4   5   1    4.30    0.69
   3  -5  -1    1.47    0.55
  -3   5   1    2.06    0.44
  -3   5   1    2.62    0.37
   2  -5  -1    8.91    0.94
  -2   5   1    9.93    0.69
  -2   5   1    8.74    0.59
   1  -5  -1    5.68    0.85
  -1   5   1    4.99    0.41
  -1   5   1    4.38    0.41
   0  -5  -1  176.78    8.65
   0   5   1  180.41    7.59
   0   5   1  181.85    7.55
  -1  -5  -1  339.26   14.20
  -1  -5  -1  358.63   16.07
   1   5   1  343.89   14.29
   1   5   1  333.91   13.99
  -2  -5  -1    1.38    0.31
  -2  -5  -1    1.28    0.23
   2   5   1    1.10    0.27
   2   5   1    1.64    0.30
  -3  -5  -1    0.31    0.16
   3   5   1    0.00    0.14
   3   5   1    0.08    0.16
  -4  -5  -1    5.65    0.54
   4   5   1    4.13    0.65
   4   5   1    6.06    0.57
  -5  -5  -1    0.92    0.34
   5   5   1    0.79    0.36
   5   5   1    0.44    0.25
  -6  -5  -1    1.77    0.50
   6   5   1    1.32    0.47
   6   5   1    3.06    0.55
  -7  -5  -1    3.02    0.71
   7   5   1    2.93    0.68
  -8  -5  -1   -0.07    0.52
   8   5   1    0.60    0.47
  -9  -5  -1   -0.74    0.55
   9   5   1   -0.07    0.46
  -7   6   1   -0.31    0.47
   6  -6  -1    0.20    0.67
  -6   6   1   -0.17    0.42
   5  -6  -1    1.96    0.97
  -5   6   1    1.46    0.52
   4  -6  -1   13.19    1.55
  -4   6   1   16.32    1.24
   3  -6  -1   26.49    2.03
  -3   6   1   24.84    1.35
  -3   6   1   28.05    1.55
   2  -6  -1    5.34    1.01
  -2   6   1    4.14    0.41
  -2   6   1    5.10    0.60
   1  -6  -1   14.67    1.26
  -1   6   1   14.88    0.89
  -1   6   1   15.05    0.91
   0  -6  -1    0.20    0.28
   0   6   1    0.42    0.18
   0   6   1    0.11    0.15
  -1  -6  -1  305.55   12.70
  -1  -6  -1  314.15   14.43
   1   6   1  294.91   12.48
   1   6   1  307.65   12.80
  -2  -6  -1    0.82    0.31
  -2  -6  -1    1.00    0.24
   2   6   1    0.83    0.25
   2   6   1    1.03    0.28
  -3  -6  -1   83.46    3.71
  -3  -6  -1   81.69    4.14
   3   6   1   84.01    3.81
   3   6   1   82.64    3.83
  -4  -6  -1    0.01    0.19
   4   6   1   -0.05    0.17
   4   6   1    0.21    0.25
  -5  -6  -1    0.21    0.25
   5   6   1    0.59    0.35
   5   6   1    0.49    0.30
  -6  -6  -1    0.36    0.33
   6   6   1   -0.18    0.21
   6   6   1    0.00    0.28
  -7  -6  -1    6.49    0.97
   7   6   1    6.55    1.02
  -8  -6  -1    0.76    0.61
   8   6   1   -0.32    0.36
  -9  -6  -1   -0.13    0.57
   9   6   1    0.33    0.54
   6  -7  -1    1.00    0.86
  -6   7   1    0.83    0.57
   5  -7  -1    0.24    0.66
  -5   7   1    0.35    0.47
   4  -7  -1    0.14    0.54
  -4   7   1    0.40    0.38
   3  -7  -1    2.30    0.79
  -3   7   1    1.51    0.34
  -3   7   1    1.50    0.42
   2  -7  -1    0.43    0.50
  -2   7   1    0.60    0.23
  -2   7   1    0.80    0.30
   1  -7  -1   15.68    1.46
  -1   7   1   18.29    1.07
  -1   7   1   18.33    1.10
   0  -7  -1   -0.06    0.27
   0   7   1    0.02    0.17
   0   7   1    0.12    0.16
  -1  -7  -1   24.48    1.34
  -1  -7  -1   25.82    1.71
   1   7   1   23.63    1.26
   1   7   1   25.76    1.42
  -2  -7  -1   44.11    2.10
  -2  -7  -1   43.26    2.49
   2   7   1   43.54    2.14
   2   7   1   42.85    2.20
  -3  -7  -1   35.93    1.84
  -3  -7  -1   35.16    2.08
   3   7   1   37.31    1.96
   3   7   1   37.25    1.98
  -4  -7  -1    5.77    0.68
   4   7   1    4.65    0.63
   4   7   1    4.97    0.75
  -5  -7  -1    1.52    0.41
   5   7   1    2.47    0.51
   5   7   1    2.17    0.55
  -6  -7  -1    0.62    0.41
   6   7   1   -0.03    0.26
   6   7   1   -0.44    0.27
  -7  -7  -1    1.18    0.59
   7   7   1    1.57    0.59
  -8  -7  -1    0.10    0.53
   8   7   1   -0.53    0.35
  -9  -7  -1    0.37    0.61
   6  -8  -1    0.26    0.94
  -6   8   1    0.69    0.56
   5  -8  -1   -0.06    0.62
  -5   8   1   -0.48    0.39
   4  -8  -1    0.78    0.65
  -4   8   1    0.36    0.36
   3  -8  -1    8.09    1.40
  -3   8   1    7.50    0.90
   2  -8  -1    2.82    0.91
  -2   8   1    4.04    0.63
  -2   8   1    3.62    0.50
   1  -8  -1   14.15    1.45
  -1   8   1   14.49    1.03
  -1   8   1   15.89    1.02
   0  -8  -1    4.41    0.87
   0   8   1    5.73    0.74
   0   8   1    4.87    0.64
  -1  -8  -1   18.01    1.51
   1   8   1   19.39    1.21
   1   8   1   17.74    1.03
  -2  -8  -1    1.10    0.29
  -2  -8  -1    1.39    0.46
   2   8   1    0.97    0.28
   2   8   1    1.82    0.40
  -3  -8  -1    5.69    0.84
  -3  -8  -1    7.18    0.63
   3   8   1    8.50    0.76
   3   8   1    7.45    0.74
  -4  -8  -1   12.28    0.94
   4   8   1   13.40    1.08
   4   8   1   12.99    1.02
  -5  -8  -1    2.92    0.56
   5   8   1    3.34    0.61
   5   8   1    2.34    0.61
  -6  -8  -1    0.59    0.48
   6   8   1    0.22    0.29
   6   8   1    0.67    0.37
  -7  -8  -1   -0.21    0.49
   7   8   1   -0.18    0.30
   7   8   1   -0.18    0.29
  -8  -8  -1    0.39    0.56
   8   8   1   -0.46    0.46
  -9  -8  -1    1.71    0.77
   5  -9  -1   -0.11    0.67
  -5   9   1   -0.65    0.42
   4  -9  -1   -0.01    0.67
  -4   9   1    0.03    0.35
   3  -9  -1    0.21    0.68
  -3   9   1    1.20    0.45
   2  -9  -1    0.88    0.72
  -2   9   1    0.50    0.26
  -2   9   1    0.91    0.38
   1  -9  -1   24.20    2.06
  -1   9   1   24.25    1.49
  -1   9   1   23.03    1.45
   0  -9  -1    2.12    0.75
   0   9   1    3.38    0.63
   0   9   1    2.80    0.53
  -1  -9  -1    0.37    0.42
   1   9   1    0.16    0.24
   1   9   1    0.20    0.21
  -2  -9  -1   20.50    1.27
   2   9   1   20.90    1.28
   2   9   1   22.07    1.40
  -3  -9  -1   16.66    1.10
   3   9   1   16.81    1.21
   3   9   1   17.06    1.19
  -4  -9  -1    3.95    0.60
   4   9   1    4.75    0.78
   4   9   1    4.30    0.69
  -5  -9  -1    0.13    0.31
   5   9   1   -0.12    0.24
   5   9   1   -0.17    0.24
  -6  -9  -1   -0.43    0.37
   6   9   1   -0.24    0.27
   6   9   1    0.35    0.38
  -7  -9  -1    1.43    0.61
   7   9   1    0.04    0.41
   7   9   1    0.74    0.42
  -8  -9  -1   -0.18    0.57
   8   9   1   -0.14    0.43
   5 -10  -1    0.48    0.81
   4 -10  -1    1.69    1.09
  -4  10   1    0.35    0.44
   3 -10  -1    0.65    1.05
  -3  10   1    2.30    0.62
   2 -10  -1   -0.54    0.53
  -2  10   1    1.07    0.47
  -2  10   1    0.12    0.25
   1 -10  -1    2.34    0.88
  -1  10   1    1.10    0.40
  -1  10   1    1.28    0.41
   0 -10  -1    0.21    0.52
   0  10   1   -0.02    0.22
   0  10   1    0.11    0.27
  -1 -10  -1    7.57    1.27
   1  10   1    9.16    0.87
   1  10   1    8.91    0.85
  -2 -10  -1    1.25    0.58
  -2 -10  -1    3.45    0.53
   2  10   1    6.34    0.88
  -3 -10  -1    1.49    0.40
   3  10   1    1.32    0.40
   3  10   1    0.53    0.29
  -4 -10  -1    2.66    0.53
   4  10   1    3.02    0.65
   4  10   1    1.60    0.46
  -5 -10  -1   -0.41    0.27
   5  10   1    0.00    0.28
   5  10   1    0.39    0.35
  -6 -10  -1    0.66    0.47
   6  10   1    0.83    0.44
   6  10   1    0.27    0.39
  -7 -10  -1    1.54    0.64
   7  10   1    1.25    0.54
   7  10   1    0.54    0.48
  -8 -10  -1   -0.17    0.54
   4 -11  -1   -0.33    0.86
  -4  11   1    0.38    0.51
   3 -11  -1    3.84    1.25
  -3  11   1    2.29    0.64
   2 -11  -1    1.81    0.90
  -2  11   1    1.01    0.50
   1 -11  -1    0.16    0.68
  -1  11   1    0.44    0.42
  -1  11   1    0.04    0.26
   0 -11  -1   -0.32    0.52
   0  11   1    0.02    0.26
   0  11   1    0.27    0.31
  -1 -11  -1    0.11    0.54
   1  11   1    0.03    0.29
   1  11   1    0.19    0.25
  -2 -11  -1    0.50    0.54
   2  11   1    0.49    0.35
  -3 -11  -1    0.46    0.34
   3  11   1    0.20    0.31
  -4 -11  -1    1.07    0.42
   4  11   1    1.62    0.50
   4  11   1    1.41    0.48
  -5 -11  -1    0.11    0.37
   5  11   1    0.11    0.36
   5  11   1    0.18    0.34
  -6 -11  -1    0.50    0.47
   6  11   1    0.14    0.38
   6  11   1   -0.37    0.34
  -7 -11  -1    0.82    0.62
   7  11   1    0.65    0.52
   7  11   1    0.41    0.49
  -8 -11  -1    0.76    0.67
   3 -12  -1   -0.12    0.91
  -3  12   1   -0.22    0.43
   2 -12  -1    1.35    1.02
  -2  12   1    0.95    0.52
   1 -12  -1    0.40    0.75
  -1  12   1   -0.01    0.31
  -1  12   1    0.19    0.48
   0 -12  -1    0.64    0.82
   0  12   1    0.71    0.42
   0  12   1    0.63    0.43
  -1 -12  -1    1.09    0.70
   1  12   1    0.42    0.32
   1  12   1    0.51    0.38
   2  12   1    0.02    0.29
   2  12   1    0.44    0.29
  -3 -12  -1    0.77    0.38
   3  12   1    0.66    0.41
  -4 -12  -1    0.84    0.38
   4  12   1    0.12    0.32
  -5 -12  -1    2.70    0.68
   5  12   1    2.95    0.73
  -6 -12  -1    0.18    0.50
   6  12   1    0.26    0.36
   6  12   1   -0.17    0.40
  -7 -12  -1    1.40    0.67
   7  12   1    0.23    0.48
   7  12   1    0.20    0.44
   1 -13  -1    0.06    0.87
  -1  13   1    1.00    0.63
   0 -13  -1    0.85    0.97
   0  13   1    1.34    0.56
   0  13   1    1.08    0.58
  -1 -13  -1    0.12    0.81
   1  13   1   -0.05    0.30
   1  13   1    0.05    0.35
   2  13   1   -0.40    0.33
   2  13   1   -0.09    0.31
   3  13   1    0.56    0.42
  -4 -13  -1    0.35    0.44
   4  13   1    0.41    0.42
  -5 -13  -1    1.01    0.52
   5  13   1    0.03    0.39
  -6 -13  -1    0.87    0.55
   0 -14  -1    1.74    1.25
   0  14   1    2.58    0.67
  -1 -14  -1    0.28    0.95
   1  14   1   -0.30    0.41
   1  14   1   -0.24    0.32
   2  14   1    0.35    0.39
   2  14   1    0.36    0.43
   3  14   1   -0.55    0.28
   3  14   1   -0.16    0.38
  -4 -14  -1   -0.11    0.44
   4  14   1    0.30    0.49
  -5 -14  -1    0.76    0.58
   1  14  -2    0.35    0.47
   3  13  -2    0.67    0.42
  -3 -13   2    0.18    0.40
   2  13  -2    0.52    0.54
   2  13  -2    0.66    0.54
   1  13  -2    0.32    0.63
   1  13  -2    1.41    0.53
   0 -13   2    0.15    0.89
   6  12  -2    0.19    0.49
   5  12  -2    1.00    0.57
  -5 -12   2    0.37    0.47
   4  12  -2    0.08    0.40
  -4 -12   2    0.02    0.37
   3  12  -2    3.45    0.74
  -3 -12   2    2.31    0.57
   2  12  -2    3.06    0.74
   1  12  -2    0.03    0.47
   1  12  -2    0.12    0.33
   0  12  -2    0.79    0.58
   0  12  -2    0.82    0.45
   0 -12   2    0.36    0.86
  -1  12  -2    0.05    0.44
   1 -12   2   -0.53    0.80
  -2  12  -2    0.61    0.51
   2 -12   2    0.46    1.06
   6  11  -2    0.10    0.45
   6  11  -2    0.40    0.46
  -6 -11   2   -0.19    0.43
   5  11  -2    0.18    0.38
   5  11  -2   -0.30    0.34
  -5 -11   2   -0.05    0.32
   4  11  -2   -0.17    0.37
  -4 -11   2   -0.29    0.32
   3  11  -2    0.44    0.35
  -3 -11   2    1.13    0.42
   2  11  -2    2.50    0.67
  -2 -11   2    1.63    0.51
   1  11  -2    1.02    0.51
   1  11  -2    0.70    0.39
   0  11  -2    1.28    0.49
   0  11  -2    3.41    0.79
   0 -11   2    3.01    1.05
  -1  11  -2    0.29    0.51
   1 -11   2    0.43    0.80
  -2  11  -2    0.24    0.43
   2 -11   2    0.22    0.86
  -3  11  -2    0.47    0.47
   3 -11   2    0.62    0.95
   7  10  -2    0.32    0.50
   7  10  -2    0.10    0.38
  -7 -10   2   -0.08    0.40
   6  10  -2   -0.02    0.35
   6  10  -2    0.16    0.42
  -6 -10   2    0.17    0.39
   5  10  -2    1.38    0.53
   5  10  -2    0.82    0.48
  -5 -10   2    0.96    0.43
   4  10  -2    1.71    0.49
   4  10  -2    1.53    0.54
  -4 -10   2    1.59    0.49
   3  10  -2    0.42    0.36
  -3 -10   2   -0.04    0.32
   2  10  -2    0.61    0.34
  -2 -10   2    0.06    0.31
   1  10  -2    2.10    0.54
  -1 -10   2    2.19    0.76
   0  10  -2   -0.74    0.29
   0  10  -2    0.27    0.28
   0 -10   2    0.32    0.54
  -1  10  -2    2.81    0.67
   1 -10   2    2.59    0.96
  -2  10  -2    0.43    0.48
   2 -10   2   -0.06    0.70
  -3  10  -2    0.20    0.42
   3 -10   2    0.36    0.78
  -4  10  -2    1.00    0.55
   4 -10   2    1.94    1.13
   8   9  -2    0.35    0.56
   7   9  -2    0.29    0.39
   7   9  -2    0.04    0.41
  -7  -9   2    0.17    0.42
   6   9  -2    0.23    0.35
   6   9  -2   -0.24    0.36
  -6  -9   2   -0.35    0.33
   5   9  -2    0.47    0.40
   5   9  -2    0.00    0.30
  -5  -9   2    0.37    0.37
   4   9  -2    0.76    0.37
   4   9  -2    0.15    0.37
  -4  -9   2    0.71    0.37
   3   9  -2    7.93    1.05
   3   9  -2    5.51    0.83
  -3  -9   2    6.40    0.81
   2   9  -2    1.94    0.50
  -2  -9   2    2.26    0.48
   1   9  -2   -0.09    0.23
  -1  -9   2   -0.11    0.22
  -1  -9   2    0.19    0.38
   0   9  -2   11.13    0.99
   0   9  -2   10.08    0.91
   0  -9   2    8.67    1.35
  -1   9  -2   36.32    2.07
  -1   9  -2   39.56    2.19
   1  -9   2   34.68    2.76
  -2   9  -2   -0.15    0.32
   2  -9   2   -0.62    0.49
  -3   9  -2   -0.31    0.30
   3  -9   2   -0.11    0.61
  -4   9  -2    0.64    0.43
   4  -9   2   -0.35    0.87
  -5   9  -2    0.55    0.45
   5  -9   2    0.08    0.90
   8   8  -2    0.48    0.77
   8   8  -2    0.68    0.51
  -8  -8   2   -0.62    0.48
   7   8  -2    0.14    0.42
   7   8  -2   -0.58    0.32
  -7  -8   2    0.17    0.42
   6   8  -2    0.40    0.37
   6   8  -2   -0.16    0.27
  -6  -8   2    1.07    0.46
   5   8  -2    0.30    0.34
   5   8  -2    0.08    0.28
  -5  -8   2   -0.14    0.32
   4   8  -2   21.83    1.49
   4   8  -2   16.92    1.38
  -4  -8   2   19.03    1.36
   3   8  -2    2.92    0.61
   3   8  -2    2.43    0.55
  -3  -8   2    1.53    0.41
   2   8  -2   21.30    1.33
   2   8  -2   19.50    1.39
  -2  -8   2   21.88    1.32
   1   8  -2    1.59    0.46
  -1  -8   2    0.06    0.31
  -1  -8   2    1.40    0.38
   0   8  -2    3.42    0.60
   0   8  -2    5.14    0.74
   0  -8   2    3.10    0.78
  -1   8  -2   33.45    1.91
  -1   8  -2   31.15    1.83
   1  -8   2   35.88    2.52
  -2   8  -2    5.77    0.85
   2  -8   2    5.56    1.27
  -3   8  -2    0.19    0.34
   3  -8   2    0.39    0.57
  -4   8  -2    2.52    0.65
   4  -8   2    2.57    1.16
  -5   8  -2    0.81    0.53
   5  -8   2    0.28    0.77
  -6   8  -2   -0.07    0.62
   8   7  -2   -0.01    0.46
  -8  -7   2   -0.15    0.44
   7   7  -2    0.03    0.34
   7   7  -2    0.76    0.53
  -7  -7   2    0.04    0.36
   6   7  -2    0.15    0.30
   6   7  -2   -0.36    0.25
  -6  -7   2   -0.31    0.38
   5   7  -2    7.19    0.99
   5   7  -2    5.33    0.90
  -5  -7   2    8.62    1.09
   4   7  -2   25.41    1.68
   4   7  -2   24.36    1.67
  -4  -7   2   28.00    1.64
   3   7  -2    0.21    0.22
   3   7  -2   -0.03    0.26
  -3  -7   2    0.43    0.26
   2   7  -2    1.28    0.36
   2   7  -2    2.19    0.48
  -2  -7   2    0.41    0.30
  -2  -7   2    1.72    0.38
   1   7  -2   72.18    3.45
   1   7  -2   71.76    3.31
  -1  -7   2   71.97    3.35
   0   7  -2    2.27    0.44
   0   7  -2    2.26    0.47
   0  -7   2    1.87    0.61
  -1   7  -2    0.11    0.22
  -1   7  -2   -0.15    0.14
   1  -7   2    0.23    0.40
  -2   7  -2    1.58    0.43
   2  -7   2    1.07    0.66
  -3   7  -2    0.15    0.25
   3  -7   2   -0.43    0.42
  -4   7  -2    5.96    0.85
   4  -7   2    6.57    1.47
  -5   7  -2    0.20    0.41
   5  -7   2    0.72    0.79
  -6   7  -2    0.46    0.61
   6  -7   2    1.40    0.85
   8   6  -2   -0.06    0.46
  -8  -6   2   -0.11    0.43
   7   6  -2   -0.01    0.36
   7   6  -2    0.37    0.42
  -7  -6   2    0.40    0.42
   6   6  -2    1.06    0.51
  -6  -6   2    0.08    0.36
   5   6  -2   -0.21    0.25
  -5  -6   2    0.45    0.34
   4   6  -2    1.56    0.43
  -4  -6   2    0.19    0.27
   3   6  -2    0.07    0.21
   3   6  -2   -0.13    0.17
  -3  -6   2    0.08    0.19
   2   6  -2   11.91    0.89
   2   6  -2   11.04    0.90
  -2  -6   2   12.04    0.83
   1   6  -2   71.36    3.30
   1   6  -2   70.69    3.17
  -1  -6   2   69.28    3.19
  -1  -6   2   66.27    3.67
   0   6  -2   -0.05    0.12
   0   6  -2    0.01    0.15
   0  -6   2    0.13    0.27
  -1   6  -2   17.89    1.10
  -1   6  -2   16.44    1.03
   1  -6   2   17.05    1.46
  -2   6  -2    0.24    0.17
  -2   6  -2   -0.07    0.17
   2  -6   2    0.43    0.45
  -3   6  -2    0.68    0.33
   3  -6   2    0.46    0.58
  -4   6  -2    0.68    0.34
   4  -6   2    0.59    0.61
  -5   6  -2   -0.34    0.33
   5  -6   2    0.35    0.64
  -6   6  -2    1.18    0.70
   6  -6   2    1.48    0.81
  -7   6  -2    0.70    0.75
   7  -6   2   -0.37    0.84
   8   5  -2   -0.24    0.38
  -8  -5   2    0.88    0.47
   7   5  -2    3.13    0.75
  -7  -5   2    1.43    0.52
   6   5  -2    0.60    0.38
  -6  -5   2    0.28    0.35
  -6  -5   2    0.51    0.43
   5   5  -2    0.35    0.33
  -5  -5   2    0.00    0.25
  -5  -5   2    0.58    0.35
   4   5  -2    0.00    0.21
  -4  -5   2   -0.14    0.19
  -4  -5   2   -0.09    0.21
   3   5  -2   10.30    0.88
  -3  -5   2   10.65    0.81
  -3  -5   2   10.39    0.89
   2   5  -2    5.48    0.64
  -2  -5   2    5.80    0.52
   1   5  -2    0.13    0.13
   1   5  -2    0.56    0.26
  -1  -5   2    0.40    0.17
  -1  -5   2    0.10    0.20
   0   5  -2   16.33    0.88
   0   5  -2   13.61    0.93
   0  -5   2   16.97    1.22
   0  -5   2   15.60    0.93
  -1   5  -2    0.14    0.16
  -1   5  -2    0.00    0.14
   1  -5   2    0.03    0.26
  -2   5  -2    5.67    0.47
  -2   5  -2    6.71    0.61
   2  -5   2    6.51    1.05
  -3   5  -2    5.86    0.71
   3  -5   2    6.11    1.07
  -4   5  -2   12.08    1.02
   4  -5   2   13.92    1.48
  -5   5  -2    0.24    0.36
   5  -5   2   -0.11    0.58
  -6   5  -2    0.58    0.59
   6  -5   2    0.04    0.78
  -7   5  -2    1.24    0.73
   7  -5   2   -0.53    0.81
   8   4  -2    0.31    0.47
  -8  -4   2   -0.02    0.42
   7   4  -2    0.56    0.38
  -7  -4   2    0.71    0.47
  -7  -4   2    0.86    0.45
   6   4  -2    0.33    0.34
  -6  -4   2   -0.42    0.29
  -6  -4   2    0.38    0.39
   5   4  -2    0.66    0.32
  -5  -4   2    0.54    0.35
  -5  -4   2    0.70    0.43
   4   4  -2    6.35    0.83
  -4  -4   2    9.68    1.06
  -4  -4   2    8.73    0.77
   3   4  -2   21.07    1.35
  -3  -4   2   22.68    1.38
  -3  -4   2   21.47    1.25
   2   4  -2  110.46    5.07
  -2  -4   2  116.73    5.04
  -2  -4   2  120.96    5.19
   1   4  -2  142.24    5.89
  -1  -4   2  134.77    5.89
  -1  -4   2  138.97    6.65
   0   4  -2   61.48    2.76
   0  -4   2   58.72    2.70
   0  -4   2   59.70    3.17
  -1   4  -2   88.47    3.96
  -1   4  -2   88.53    3.94
   1  -4   2   97.83    3.80
   1  -4   2   86.05    4.67
  -2   4  -2   41.92    1.90
  -2   4  -2   42.32    2.05
   2  -4   2   41.26    2.56
  -3   4  -2    0.94    0.29
   3  -4   2    1.32    0.52
  -4   4  -2    2.68    0.53
   4  -4   2    2.30    0.67
  -5   4  -2    3.86    0.73
   5  -4   2    5.03    1.18
  -6   4  -2    0.04    0.49
   6  -4   2    0.19    0.72
  -7   4  -2    0.93    0.67
   7  -4   2    0.00    0.80
  -8   4  -2   -0.59    0.66
   9   3  -2    0.18    0.55
  -9  -3   2    0.17    0.60
   8   3  -2    0.15    0.42
  -8  -3   2    0.31    0.50
   7   3  -2    0.04    0.34
  -7  -3   2   -0.17    0.38
   6   3  -2    1.02    0.43
  -6  -3   2    0.84    0.41
  -6  -3   2    0.90    0.46
   5   3  -2    0.23    0.24
  -5  -3   2   -0.13    0.26
  -5  -3   2   -0.01    0.24
   4   3  -2    1.47    0.38
  -4  -3   2    1.30    0.37
  -4  -3   2    2.16    0.48
   3   3  -2    2.19    0.40
  -3  -3   2    3.34    0.48
  -3  -3   2    2.63    0.45
   2   3  -2   10.31    0.74
  -2  -3   2   10.82    0.76
  -2  -3   2   10.50    0.68
   1   3  -2   70.85    3.16
  -1  -3   2   69.89    3.15
  -1  -3   2   73.76    3.53
  -1  -3   2   73.36    3.25
   0  -3   2    0.79    0.18
   0  -3   2    1.25    0.32
   0  -3   2    0.90    0.19
  -1   3  -2    1.63    0.25
  -1   3  -2    1.84    0.27
   1  -3   2    2.29    0.48
   1  -3   2    1.48    0.19
  -2   3  -2   21.52    1.18
   2  -3   2   23.72    1.04
   2  -3   2   21.46    1.54
  -3   3  -2    3.00    0.45
   3  -3   2    2.52    0.26
   3  -3   2    3.12    0.69
  -4   3  -2    5.13    0.68
   4  -3   2    5.27    0.93
  -5   3  -2    4.35    0.77
   5  -3   2    5.97    1.18
  -6   3  -2    0.24    0.44
   6  -3   2   -0.89    0.54
  -7   3  -2    0.01    0.59
   7  -3   2    0.19    0.77
  -8   3  -2   -0.10    0.75
   9   2  -2    0.29    0.63
   8   2  -2    0.57    0.50
  -8  -2   2    0.40    0.46
   7   2  -2   -0.20    0.30
  -7  -2   2   -0.27    0.38
   6   2  -2   -0.11    0.25
  -6  -2   2    0.98    0.35
  -6  -2   2   -0.15    0.29
   5   2  -2   33.31    1.95
  -5  -2   2   31.90    1.88
  -5  -2   2   30.65    1.82
   4   2  -2    0.81    0.31
  -4  -2   2    1.29    0.36
  -4  -2   2    0.88    0.35
   3   2  -2    2.74    0.46
  -3  -2   2    2.58    0.41
  -3  -2   2    2.84    0.43
   2   2  -2   16.22    1.01
  -2  -2   2   18.00    1.03
  -2  -2   2   18.34    0.98
   1   2  -2    0.32    0.13
  -1  -2   2    0.15    0.10
  -1  -2   2    0.11    0.09
   0  -2   2    6.74    0.50
   0  -2   2    9.60    0.66
   0  -2   2    9.42    0.51
   0  -2   2    9.55    0.51
  -1   2  -2   93.07    4.03
  -1   2  -2   89.57    4.04
   1  -2   2   92.84    4.72
   1  -2   2  106.09    3.96
  -2   2  -2    3.87    0.36
   2  -2   2    4.06    0.64
   2  -2   2    4.22    0.29
  -3   2  -2    3.81    0.48
   3  -2   2    3.75    0.71
   3  -2   2    3.41    0.31
  -4   2  -2    0.62    0.29
   4  -2   2    0.83    0.44
   4  -2   2    0.80    0.22
  -5   2  -2    3.16    0.67
   5  -2   2    1.99    0.75
  -6   2  -2    0.15    0.46
   6  -2   2   -0.48    0.55
  -7   2  -2    1.48    0.70
  -8   2  -2    2.32    0.85
   8   1  -2   -0.36    0.42
  -8  -1   2   -0.36    0.40
   7   1  -2   -0.27    0.31
  -7  -1   2   -0.02    0.41
   6   1  -2    3.19    0.65
  -6  -1   2    3.03    0.63
  -6  -1   2    4.92    0.86
   5   1  -2    2.71    0.55
  -5  -1   2    3.48    0.65
  -5  -1   2    3.78    0.60
   4   1  -2   17.14    1.21
  -4  -1   2   19.66    1.18
  -4  -1   2   18.16    1.18
   3   1  -2    0.00    0.13
  -3  -1   2   -0.10    0.13
  -3  -1   2   -0.09    0.12
   2   1  -2  100.16    4.31
  -2  -1   2   98.92    4.35
  -2  -1   2   98.69    4.31
  -1  -1   2    7.00    0.47
  -1  -1   2    7.32    0.45
  -1  -1   2    8.11    0.52
  -1   1  -2    0.47    0.09
   1  -1   2    0.06    0.05
   1  -1   2    0.07    0.13
  -2   1  -2   -0.02    0.08
   2  -1   2    0.02    0.17
   2  -1   2   -0.01    0.06
  -3   1  -2    1.60    0.32
   3  -1   2    0.35    0.27
   3  -1   2    1.17    0.21
  -4   1  -2    0.71    0.27
   4  -1   2    1.12    0.27
   4  -1   2    0.64    0.35
  -5   1  -2   16.23    1.24
   5  -1   2   15.70    1.43
   5  -1   2   17.70    1.13
  -6   1  -2   -0.40    0.35
   6  -1   2   -0.25    0.51
  -7   1  -2    1.13    0.63
  -8   1  -2    0.74    0.69
  -9   1  -2    1.38    0.86
  -8   0   2    0.29    0.47
   7   0  -2    2.42    0.68
  -7   0   2    2.42    0.69
   6   0  -2    0.76    0.37
  -6   0   2    0.83    0.45
   5   0  -2    1.67    0.43
  -5   0   2    2.12    0.56
  -5   0   2    2.64    0.51
   4   0  -2   30.84    1.79
  -4   0   2   33.49    1.74
  -4   0   2   33.78    1.82
   3   0  -2    1.44    0.33
  -3   0   2    1.42    0.33
  -3   0   2    0.94    0.27
   2   0  -2    1.75    0.29
  -2   0   2    1.90    0.29
  -2   0   2    1.66    0.28
  -1   0   2  156.50    6.31
  -1   0   2  143.55    6.40
  -1   0   2  158.54    6.38
   0   0  -2  512.58   21.89
   0   0   2  494.68   19.22
   0   0   2  455.45   19.53
   0   0   2  445.05   19.42
  -1   0  -2    9.12    0.46
   1   0   2    9.54    0.49
   1   0   2    9.23    0.63
  -2   0  -2  415.51   16.54
   2   0   2  389.63   18.67
  -3   0  -2   25.55    1.32
   3   0   2   24.74    1.55
  -4   0  -2   23.09    1.32
   4   0   2   21.11    1.49
  -5   0  -2   79.62    3.67
   5   0   2   71.38    4.05
  -6   0  -2   37.88    2.16
   6   0   2   33.06    2.26
   6   0   2   29.83    1.93
  -7   0  -2    0.90    0.62
  -8   0  -2    0.05    0.58
  -9   0  -2    0.46    0.73
  -8   1   2   -0.38    0.46
  -7   1   2    1.16    0.53
   6  -1  -2    0.36    0.33
  -6   1   2   -0.15    0.37
  -5   1   2   12.03    0.91
  -5   1   2   12.08    1.10
   4  -1  -2    1.88    0.46
  -4   1   2    2.68    0.45
  -4   1   2    2.09    0.44
   3  -1  -2   -0.08    0.10
   3  -1  -2    0.03    0.22
  -3   1   2    0.53    0.23
  -3   1   2    0.07    0.17
   2  -1  -2   11.72    0.72
  -2   1   2    9.87    0.64
  -2   1   2   10.74    0.69
   1  -1  -2   12.60    0.68
  -1   1   2   10.94    0.60
  -1   1   2   10.62    0.62
  -1   1   2   11.92    0.63
   0   1   2  392.26   16.07
   0   1   2  386.62   15.98
   0   1   2  397.87   15.80
  -1  -1  -2   63.87    3.04
   1   1   2   61.40    2.61
  -2  -1  -2  415.17   16.67
   2   1   2  409.63   18.80
   2   1   2  394.98   16.48
  -3  -1  -2   68.56    3.13
   3   1   2   68.03    3.12
   3   1   2   74.53    3.59
  -4  -1  -2    8.97    0.69
   4   1   2    7.34    0.76
   4   1   2    7.82    0.66
  -5  -1  -2   19.55    1.29
   5   1   2   20.06    1.29
   5   1   2   18.01    1.40
  -6  -1  -2   19.42    1.49
   6   1   2   24.01    1.54
   6   1   2   19.81    1.62
  -7  -1  -2    5.52    0.94
  -8  -1  -2    0.33    0.54
  -9  -1  -2    1.14    0.74
  -8   2   2    0.67    0.55
  -7   2   2   -0.37    0.47
  -6   2   2   -0.05    0.41
   5  -2  -2   26.44    1.87
   5  -2  -2   27.64    1.63
  -5   2   2   28.45    1.80
  -5   2   2   25.26    1.50
   4  -2  -2    8.50    0.88
   4  -2  -2    7.50    0.67
  -4   2   2    7.99    0.65
  -4   2   2    7.25    0.84
   3  -2  -2   68.28    3.25
   3  -2  -2   76.00    3.76
  -3   2   2   74.33    3.28
  -3   2   2   73.24    3.40
   2  -2  -2  398.28   17.37
   2  -2  -2  367.30   15.20
  -2   2   2  363.26   15.48
  -2   2   2  366.78   15.45
   1  -2  -2  205.13    8.64
  -1   2   2  179.52    7.66
  -1   2   2  178.14    7.50
  -1   2   2  174.03    7.65
   0  -2  -2  357.29   16.77
   0   2   2  346.47   14.86
   0   2   2  379.36   14.67
   0   2   2  372.21   14.94
  -1  -2  -2   29.69    1.30
  -1  -2  -2   30.54    1.57
   1   2   2   31.10    1.36
  -2  -2  -2  132.94    5.45
   2   2   2  133.43    5.47
   2   2   2  125.77    5.43
  -3  -2  -2  351.57   16.35
  -3  -2  -2  360.75   14.56
   3   2   2  356.86   14.45
   3   2   2  338.74   14.47
  -4  -2  -2   27.00    1.48
   4   2   2   28.13    1.55
  -5  -2  -2    1.27    0.39
   5   2   2    1.38    0.39
  -6  -2  -2   -0.06    0.36
   6   2   2    0.30    0.30
  -7  -2  -2    0.63    0.47
   7   2   2    0.84    0.46
  -8  -2  -2   -0.19    0.51
   8   2   2    0.54    0.47
  -9  -2  -2   -0.31    0.61
  -8   3   2    0.14    0.65
  -7   3   2    0.18    0.51
  -6   3   2    2.18    0.65
   5  -3  -2   11.47    1.27
  -5   3   2   11.45    1.26
   4  -3  -2    1.37    0.55
   4  -3  -2    1.76    0.38
  -4   3   2    1.33    0.32
  -4   3   2    0.70    0.35
   3  -3  -2    0.19    0.28
   3  -3  -2    0.29    0.18
  -3   3   2   -0.10    0.16
  -3   3   2    0.42    0.18
   2  -3  -2  293.88   12.05
   2  -3  -2  316.38   13.91
  -2   3   2  286.43   12.32
  -2   3   2  287.30   12.27
   1  -3  -2  142.75    7.25
  -1   3   2  156.72    6.40
  -1   3   2  161.81    6.23
  -1   3   2  148.91    6.39
   0  -3  -2  310.04   14.66
   0   3   2  319.70   12.75
   0   3   2  318.41   13.02
  -1  -3  -2  352.37   15.48
  -1  -3  -2  324.49   13.68
   1   3   2  311.96   13.75
   1   3   2  349.45   13.56
  -2  -3  -2   28.49    1.33
   2   3   2   30.57    1.44
  -3  -3  -2  342.96   15.65
  -3  -3  -2  336.02   13.94
   3   3   2  336.07   13.88
   3   3   2  333.31   13.93
  -4  -3  -2   25.26    1.50
  -4  -3  -2   25.28    1.38
   4   3   2   26.82    1.50
   4   3   2   24.04    1.27
  -5  -3  -2    6.93    0.74
  -5  -3  -2    7.44    0.83
   5   3   2    8.38    0.82
   5   3   2    7.19    0.58
  -6  -3  -2    2.30    0.57
   6   3   2    1.97    0.54
  -7  -3  -2    2.00    0.61
   7   3   2    0.68    0.47
  -8  -3  -2    0.61    0.48
   8   3   2    0.16    0.43
  -9  -3  -2   -0.80    0.56
   9   3   2   -0.01    0.55
  -7   4   2    0.21    0.57
  -6   4   2    2.19    0.73
   5  -4  -2    0.60    0.62
  -5   4   2    1.30    0.50
   4  -4  -2   -0.01    0.42
  -4   4   2    0.29    0.26
  -4   4   2   -0.06    0.20
   3  -4  -2    0.70    0.21
   3  -4  -2    0.44    0.39
  -3   4   2    0.25    0.17
  -3   4   2    0.85    0.32
   2  -4  -2  212.64    9.74
  -2   4   2  193.23    8.46
  -2   4   2  200.89    8.53
   1  -4  -2   47.78    2.64
  -1   4   2   51.10    2.25
  -1   4   2   49.76    2.23
   0  -4  -2    1.23    0.33
   0   4   2    1.01    0.18
   0   4   2    1.74    0.25
   0   4   2    1.50    0.17
  -1  -4  -2   30.41    1.65
  -1  -4  -2   29.72    1.37
   1   4   2   29.00    1.38
   1   4   2   30.19    1.42
  -2  -4  -2   24.05    1.48
  -2  -4  -2   28.87    1.29
   2   4   2   28.64    1.34
   2   4   2   26.80    1.36
  -3  -4  -2   -0.23    0.14
  -3  -4  -2   -0.04    0.11
   3   4   2   -0.09    0.11
   3   4   2    0.64    0.18
  -4  -4  -2    0.30    0.18
  -4  -4  -2    0.30    0.20
   4   4   2    0.44    0.25
   4   4   2    0.22    0.14
  -5  -4  -2   15.80    1.06
   5   4   2   12.84    1.09
   5   4   2   13.57    0.91
  -6  -4  -2    0.63    0.42
   6   4   2    0.32    0.35
  -7  -4  -2    1.92    0.60
   7   4   2    1.13    0.51
  -8  -4  -2   -0.39    0.45
   8   4   2    0.99    0.60
  -9  -4  -2   -0.10    0.57
   9   4   2   -0.25    0.44
  -7   5   2    0.15    0.57
   6  -5  -2    0.96    0.81
  -6   5   2    0.37    0.52
   5  -5  -2    0.39    0.62
  -5   5   2   -0.11    0.36
   4  -5  -2   11.29    1.30
  -4   5   2   12.73    1.06
  -4   5   2   12.13    0.87
   3  -5  -2   12.49    1.21
  -3   5   2   12.41    0.80
  -3   5   2   13.05    0.93
   2  -5  -2   17.10    1.30
  -2   5   2   16.38    0.99
  -2   5   2   15.82    0.90
   1  -5  -2    1.37    0.41
  -1   5   2    0.88    0.20
  -1   5   2    0.95    0.23
   0  -5  -2  203.21    9.75
   0   5   2  202.78    8.30
   0   5   2  207.76    8.52
   0   5   2  203.19    8.57
  -1  -5  -2    6.25    0.63
  -1  -5  -2    6.86    0.46
   1   5   2    6.13    0.49
   1   5   2    6.02    0.45
  -2  -5  -2    0.24    0.19
  -2  -5  -2    0.54    0.16
   2   5   2    0.21    0.13
   2   5   2    0.11    0.11
  -3  -5  -2   11.98    0.73
  -3  -5  -2   12.57    0.86
   3   5   2   10.92    0.75
   3   5   2   10.97    0.83
  -4  -5  -2   10.89    0.74
  -4  -5  -2    8.77    0.74
   4   5   2   11.65    0.89
   4   5   2    9.62    0.71
  -5  -5  -2    0.24    0.26
   5   5   2    0.41    0.23
   5   5   2    0.44    0.30
  -6  -5  -2    9.19    0.94
   6   5   2    8.49    1.08
  -7  -5  -2    2.85    0.69
   7   5   2    2.64    0.67
  -8  -5  -2    0.94    0.50
   8   5   2    0.21    0.40
  -9  -5  -2    0.31    0.67
   9   5   2   -0.46    0.47
  -7   6   2    0.84    0.70
   6  -6  -2    0.39    0.82
  -6   6   2    0.61    0.52
   5  -6  -2    5.25    1.17
  -5   6   2    7.38    1.08
   4  -6  -2    8.37    1.40
  -4   6   2    8.05    0.96
   3  -6  -2    4.63    0.91
  -3   6   2    4.34    0.53
  -3   6   2    5.27    0.70
   2  -6  -2    3.69    0.83
  -2   6   2    2.54    0.37
  -2   6   2    2.68    0.43
   1  -6  -2    4.70    0.75
  -1   6   2    4.45    0.45
  -1   6   2    4.87    0.44
   0  -6  -2    8.49    0.82
   0   6   2    7.40    0.56
   0   6   2    7.54    0.55
   0   6   2    7.27    0.43
  -1  -6  -2    3.29    0.59
  -1  -6  -2    3.96    0.37
   1   6   2    3.80    0.48
   1   6   2    3.78    0.37
  -2  -6  -2   34.91    1.65
   2   6   2   32.12    1.69
   2   6   2   35.46    1.75
  -3  -6  -2    0.13    0.13
  -3  -6  -2    0.03    0.22
   3   6   2   -0.17    0.16
   3   6   2   -0.10    0.15
  -4  -6  -2   14.01    1.02
  -4  -6  -2   15.80    0.99
   4   6   2   14.90    1.09
   4   6   2   14.73    0.98
  -5  -6  -2   -0.18    0.19
   5   6   2   -0.09    0.27
   5   6   2    0.05    0.17
  -6  -6  -2    8.40    0.99
   6   6   2   10.08    0.86
   6   6   2    9.64    1.17
  -7  -6  -2    8.83    1.10
   7   6   2    5.03    0.89
  -8  -6  -2    0.57    0.53
   8   6   2    0.23    0.43
  -9  -6  -2    0.04    0.70
   9   6   2    1.09    0.60
   6  -7  -2    0.43    0.78
  -6   7   2    1.84    0.75
   5  -7  -2    1.47    0.85
  -5   7   2    0.66    0.50
   4  -7  -2    0.63    0.64
  -4   7   2    0.97    0.43
   3  -7  -2   19.25    1.71
  -3   7   2   18.19    1.11
  -3   7   2   20.08    1.27
   2  -7  -2   33.75    2.43
  -2   7   2   34.22    1.76
  -2   7   2   37.83    1.89
   1  -7  -2   10.17    1.08
  -1   7   2   10.26    0.74
  -1   7   2   11.58    0.80
   0  -7  -2    2.22    0.55
   0   7   2    1.50    0.32
   0   7   2    1.74    0.32
  -1  -7  -2   51.42    2.90
   1   7   2   49.58    2.30
   1   7   2   51.41    2.47
  -2  -7  -2    6.39    0.96
  -2  -7  -2    8.37    0.62
   2   7   2    8.40    0.68
   2   7   2    8.84    0.67
  -3  -7  -2   -0.17    0.21
  -3  -7  -2    0.19    0.16
   3   7   2    0.08    0.18
   3   7   2    0.07    0.18
  -4  -7  -2    1.79    0.37
   4   7   2    1.82    0.40
   4   7   2    1.33    0.38
  -5  -7  -2    2.28    0.50
   5   7   2    2.85    0.52
   5   7   2    2.01    0.51
  -6  -7  -2   16.77    1.27
   6   7   2   14.76    1.16
   6   7   2   16.66    1.44
  -7  -7  -2    6.96    0.99
   7   7   2    6.77    1.10
  -8  -7  -2    0.84    0.53
   8   7   2    0.09    0.41
   6  -8  -2   -1.46    0.75
  -6   8   2   -0.03    0.54
   5  -8  -2    1.56    0.83
  -5   8   2    0.32    0.51
   4  -8  -2    3.30    1.10
  -4   8   2    4.37    0.73
   3  -8  -2    0.08    0.51
  -3   8   2    0.31    0.31
  -3   8   2    0.42    0.19
   2  -8  -2   16.77    1.69
  -2   8   2   18.90    1.13
  -2   8   2   19.53    1.24
   1  -8  -2    3.16    0.81
  -1   8   2    3.79    0.58
  -1   8   2    3.90    0.56
   0  -8  -2   10.84    1.20
   0   8   2   12.82    0.88
   0   8   2   11.77    0.86
  -1  -8  -2   83.87    4.54
   1   8   2   84.72    3.82
   1   8   2   84.75    3.66
   1   8   2   81.04    3.87
  -2  -8  -2    7.48    1.05
  -2  -8  -2    7.35    0.61
   2   8   2    6.40    0.60
  -3  -8  -2    0.05    0.25
  -3  -8  -2    0.06    0.16
   3   8   2    0.05    0.17
   3   8   2   -0.06    0.18
  -4  -8  -2   -0.10    0.19
   4   8   2    0.29    0.26
   4   8   2    0.11    0.22
  -5  -8  -2   15.65    1.13
   5   8   2   15.07    1.14
   5   8   2   14.83    1.24
  -6  -8  -2    3.32    0.68
   6   8   2    3.82    0.67
   6   8   2    1.96    0.58
  -7  -8  -2    0.37    0.47
   7   8   2    0.23    0.41
  -8  -8  -2    1.12    0.56
   8   8   2    1.37    0.59
   6  -9  -2    0.81    1.07
   5  -9  -2    2.07    0.90
  -5   9   2    0.06    0.50
   4  -9  -2    1.34    0.80
  -4   9   2    0.63    0.40
   3  -9  -2    2.50    1.01
  -3   9   2    3.14    0.61
   2  -9  -2    1.58    0.73
  -2   9   2    0.35    0.23
  -2   9   2    1.51    0.44
   1  -9  -2    9.26    1.51
  -1   9   2   11.16    0.90
  -1   9   2    9.83    0.85
   0  -9  -2    0.11    0.39
   0   9   2    0.08    0.20
   0   9   2    0.36    0.21
  -1  -9  -2   15.32    1.45
   1   9   2   14.78    1.05
   1   9   2   16.59    1.13
  -2  -9  -2    0.84    0.29
  -2  -9  -2    0.39    0.39
   2   9   2    0.54    0.33
   2   9   2    0.74    0.27
  -3  -9  -2    6.72    0.75
  -3  -9  -2    6.67    0.98
   3   9   2    6.62    0.83
   3   9   2    6.45    0.86
  -4  -9  -2    3.74    0.59
   4   9   2    2.74    0.59
   4   9   2    3.06    0.63
  -5  -9  -2    2.84    0.59
   5   9   2    3.57    0.67
   5   9   2    2.45    0.60
  -6  -9  -2    3.10    0.63
   6   9   2    3.13    0.66
   6   9   2    2.13    0.63
  -7  -9  -2    2.55    0.71
   7   9   2    1.92    0.58
   7   9   2    1.02    0.56
  -8  -9  -2   -0.31    0.55
   8   9   2   -0.18    0.36
   5 -10  -2   -1.25    0.57
   4 -10  -2    0.62    0.92
  -4  10   2    1.87    0.62
   3 -10  -2    1.65    0.90
  -3  10   2    0.58    0.42
   2 -10  -2    1.54    0.78
  -2  10   2    0.62    0.29
  -2  10   2    0.93    0.45
   1 -10  -2    1.97    0.80
  -1  10   2    2.81    0.61
  -1  10   2    2.04    0.52
   0 -10  -2    1.09    0.62
   0  10   2    0.75    0.33
   0  10   2    0.78    0.35
  -1 -10  -2    3.36    0.93
   1  10   2    2.21    0.48
   1  10   2    3.67    0.67
  -2 -10  -2    0.20    0.26
  -2 -10  -2    0.02    0.44
   2  10   2    0.56    0.36
  -3 -10  -2    0.55    0.41
  -3 -10  -2    0.76    0.28
   3  10   2    0.40    0.28
   3  10   2    0.87    0.38
  -4 -10  -2    4.77    0.68
   4  10   2    3.40    0.65
   4  10   2    2.61    0.60
  -5 -10  -2    3.31    0.64
   5  10   2    3.11    0.64
   5  10   2    3.50    0.74
  -6 -10  -2    0.98    0.49
   6  10   2    0.09    0.36
   6  10   2    1.38    0.50
  -7 -10  -2    1.47    0.64
   7  10   2    1.75    0.60
   7  10   2    2.14    0.62
  -8 -10  -2   -0.35    0.54
   8  10   2   -0.02    0.36
   4 -11  -2    0.46    0.87
  -4  11   2    0.07    0.41
   3 -11  -2    1.31    1.05
  -3  11   2    1.81    0.56
   2 -11  -2   -0.23    0.66
  -2  11   2   -0.04    0.36
  -2  11   2    0.03    0.24
   1 -11  -2    3.94    1.07
  -1  11   2    4.09    0.75
  -1  11   2    3.20    0.65
   0 -11  -2    3.31    1.04
   0  11   2    2.03    0.52
   0  11   2    2.87    0.66
  -1 -11  -2    0.10    0.52
   1  11   2    0.36    0.31
   1  11   2    0.53    0.30
  -2 -11  -2    0.20    0.41
   2  11   2   -0.21    0.22
  -3 -11  -2    1.51    0.45
   3  11   2    1.15    0.42
  -4 -11  -2    2.60    0.56
   4  11   2    3.23    0.62
   4  11   2    2.16    0.49
  -5 -11  -2    0.34    0.39
   5  11   2    0.31    0.42
   5  11   2    0.34    0.31
  -6 -11  -2    0.35    0.42
   6  11   2    0.50    0.40
   6  11   2    0.55    0.38
  -7 -11  -2    0.91    0.57
   7  11   2    0.65    0.44
   7  11   2    0.91    0.55
   3 -12  -2   -1.28    0.87
  -3  12   2   -0.08    0.41
   2 -12  -2   -0.54    0.70
  -2  12   2    0.25    0.43
   1 -12  -2    0.26    0.70
  -1  12   2    0.41    0.29
  -1  12   2   -0.07    0.33
   0 -12  -2   -0.35    0.66
   0  12   2    0.08    0.35
   0  12   2   -0.31    0.27
  -1 -12  -2    0.57    0.66
   1  12   2    0.20    0.25
   1  12   2   -0.39    0.27
  -2 -12  -2    1.79    0.84
   2  12   2    0.90    0.41
   2  12   2    1.71    0.49
  -3 -12  -2    0.56    0.40
   3  12   2   -0.26    0.32
  -4 -12  -2    2.93    0.62
   4  12   2    2.84    0.74
  -5 -12  -2    0.18    0.39
   5  12   2    0.09    0.32
   5  12   2   -0.08    0.36
  -6 -12  -2   -0.07    0.40
   6  12   2    1.53    0.61
   6  12   2    0.43    0.41
  -7 -12  -2   -0.60    0.44
   7  12   2    0.92    0.53
   7  12   2    0.43    0.50
   2 -13  -2    5.19    1.70
  -2  13   2    3.62    0.91
   1 -13  -2   -0.14    0.87
  -1  13   2    0.23    0.43
  -1  13   2   -0.28    0.24
   0 -13  -2    0.26    0.75
   0  13   2    0.26    0.43
   0  13   2    0.56    0.39
  -1 -13  -2    1.14    0.87
   1  13   2    2.45    0.62
   1  13   2    1.41    0.50
   2  13   2    0.50    0.33
   2  13   2    0.07    0.34
   3  13   2    0.49    0.35
  -4 -13  -2    0.06    0.40
   4  13   2    0.51    0.44
  -5 -13  -2    0.87    0.48
   5  13   2    1.50    0.59
  -6 -13  -2    1.44    0.52
   6  13   2    0.25    0.43
  -7 -13  -2   -0.47    0.52
   0 -14  -2   -0.23    1.02
   0  14   2    1.23    0.58
   0  14   2    0.06    0.39
  -1 -14  -2    0.65    0.86
   1  14   2    0.94    0.51
   1  14   2    0.15    0.42
   2  14   2    0.97    0.50
   2  14   2    1.83    0.59
   3  14   2    0.03    0.33
   3  14   2   -0.13    0.39
  -4 -14  -2   -0.11    0.40
   4  14   2    0.00    0.40
  -5 -14  -2    1.35    0.55
   2  13  -3    0.12    0.42
   1  13  -3    0.22    0.37
   4  12  -3    0.08    0.49
  -4 -12   3   -0.19    0.42
   3  12  -3    0.52    0.44
  -3 -12   3   -0.25    0.35
   2  12  -3   -0.53    0.32
   1  12  -3    1.63    0.58
   1  12  -3    1.44    0.59
   0  12  -3   -0.21    0.44
   0 -12   3    0.75    0.85
  -1  12  -3    1.14    0.53
   1 -12   3    0.37    0.85
   6  11  -3   -0.17    0.37
   5  11  -3    0.14    0.39
   5  11  -3   -0.88    0.31
  -5 -11   3   -0.08    0.41
   4  11  -3    0.47    0.38
  -4 -11   3   -0.59    0.33
   3  11  -3    3.62    0.77
   2  11  -3    0.10    0.32
  -2 -11   3    0.00    0.31
   1  11  -3    0.78    0.51
   1  11  -3    0.69    0.43
   0  11  -3    0.95    0.37
   0  11  -3    0.58    0.43
   0 -11   3    0.20    0.66
  -1  11  -3    2.98    0.75
   1 -11   3    3.18    1.19
  -2  11  -3    0.36    0.44
   2 -11   3    0.66    0.86
  -3  11  -3   -0.51    0.49
   6  10  -3    0.19    0.50
   6  10  -3    0.75    0.52
  -6 -10   3    0.06    0.47
   5  10  -3   -0.22    0.35
   5  10  -3   -0.03    0.36
  -5 -10   3   -0.09    0.41
   4  10  -3    2.00    0.66
   4  10  -3    1.31    0.49
  -4 -10   3    0.79    0.42
   3  10  -3    0.82    0.32
  -3 -10   3    0.88    0.40
   2  10  -3    0.81    0.44
  -2 -10   3    0.65    0.36
   1  10  -3   -0.03    0.29
   0  10  -3    1.10    0.40
   0  10  -3    0.19    0.38
   0 -10   3    0.27    0.62
  -1  10  -3    7.73    1.08
   1 -10   3    8.61    1.70
  -2  10  -3    0.87    0.58
   2 -10   3    1.00    0.80
  -3  10  -3    0.04    0.44
   3 -10   3   -0.30    0.75
  -4  10  -3    0.06    0.54
   7   9  -3   -0.27    0.39
   7   9  -3   -0.51    0.36
  -7  -9   3    0.73    0.54
   6   9  -3    1.44    0.59
   6   9  -3    0.21    0.38
  -6  -9   3    0.79    0.56
   5   9  -3    1.60    0.57
   5   9  -3    1.48    0.56
  -5  -9   3    2.38    0.64
   4   9  -3    0.44    0.38
   4   9  -3    0.37    0.35
  -4  -9   3    1.03    0.43
   3   9  -3    3.93    0.75
   3   9  -3    3.59    0.66
  -3  -9   3    3.22    0.62
   2   9  -3    3.82    0.69
  -2  -9   3    5.54    0.74
   1   9  -3    2.79    0.60
  -1  -9   3    3.69    0.62
   0   9  -3    0.48    0.32
   0   9  -3    0.74    0.42
   0  -9   3    0.77    0.63
  -1   9  -3    1.11    0.44
   1  -9   3    0.51    0.69
  -2   9  -3    0.22    0.44
   2  -9   3    1.22    0.76
  -3   9  -3   -0.02    0.42
   3  -9   3    0.14    0.74
  -4   9  -3    1.24    0.62
   4  -9   3    1.01    1.00
  -5   9  -3    1.24    0.69
   8   8  -3    0.37    0.48
   7   8  -3   -0.35    0.38
   7   8  -3    0.28    0.41
  -7  -8   3   -0.56    0.46
   6   8  -3    0.58    0.44
   6   8  -3    0.22    0.35
  -6  -8   3    1.93    0.61
   5   8  -3    0.20    0.35
   5   8  -3    0.11    0.28
  -5  -8   3   -0.23    0.36
   4   8  -3    0.02    0.29
   4   8  -3    0.14    0.32
  -4  -8   3    0.00    0.34
   3   8  -3    9.22    0.87
   3   8  -3    6.49    0.94
  -3  -8   3    5.78    0.77
   2   8  -3   37.43    2.09
   2   8  -3   35.67    2.11
  -2  -8   3   37.10    2.01
   1   8  -3    0.65    0.32
  -1  -8   3    0.25    0.37
  -1  -8   3    0.89    0.34
   0   8  -3    3.26    0.62
   0   8  -3    2.74    0.56
   0  -8   3    1.80    0.66
  -1   8  -3    2.59    0.55
  -1   8  -3    4.14    0.72
   1  -8   3    3.27    0.95
  -2   8  -3    7.17    0.97
   2  -8   3    8.02    1.49
  -3   8  -3   -0.54    0.35
   3  -8   3    0.77    0.70
  -4   8  -3    0.30    0.42
   4  -8   3   -0.70    0.83
  -5   8  -3    0.60    0.58
   5  -8   3   -0.45    0.78
   8   7  -3    0.39    0.46
  -8  -7   3    0.21    0.47
   7   7  -3    1.87    0.73
   7   7  -3    3.49    0.83
  -7  -7   3    2.61    0.70
   6   7  -3    0.72    0.41
   6   7  -3   -0.02    0.36
  -6  -7   3   -0.65    0.38
   5   7  -3    0.29    0.27
   5   7  -3   -0.37    0.31
  -5  -7   3    0.51    0.43
   4   7  -3    7.16    1.03
   4   7  -3    8.91    1.10
  -4  -7   3    9.17    0.93
   3   7  -3   17.01    1.29
   3   7  -3   17.19    1.29
  -3  -7   3   16.52    1.17
   2   7  -3   16.81    1.22
   2   7  -3   18.74    1.23
  -2  -7   3   15.93    1.10
   1   7  -3   28.31    1.68
   1   7  -3   29.47    1.61
  -1  -7   3   28.88    1.59
  -1  -7   3   26.98    1.91
   0   7  -3   12.35    0.94
   0  -7   3   12.24    1.23
  -1   7  -3    8.88    0.78
  -1   7  -3   10.23    0.86
   1  -7   3    9.73    1.43
  -2   7  -3    2.06    0.49
   2  -7   3    3.06    0.89
  -3   7  -3   -0.44    0.26
   3  -7   3    0.07    0.46
  -4   7  -3    0.20    0.38
   4  -7   3   -0.11    0.81
  -5   7  -3    2.91    0.75
   5  -7   3   -0.51    0.76
  -6   7  -3   -0.73    0.54
   6  -7   3   -0.11    0.80
   8   6  -3    0.09    0.44
  -8  -6   3    0.28    0.45
   7   6  -3    0.82    0.50
  -7  -6   3    1.50    0.57
   6   6  -3    0.38    0.40
  -6  -6   3   -0.18    0.37
   5   6  -3    9.63    1.22
  -5  -6   3   11.90    1.10
  -5  -6   3    8.93    1.18
   4   6  -3    3.60    0.68
  -4  -6   3    4.19    0.69
  -4  -6   3    4.23    0.74
   3   6  -3   -0.26    0.13
  -3  -6   3    0.05    0.18
   2   6  -3   11.34    0.90
   2   6  -3   10.20    0.89
  -2  -6   3   11.52    0.82
  -2  -6   3    9.62    0.89
   1   6  -3    0.78    0.34
   1   6  -3    0.45    0.23
  -1  -6   3    0.48    0.23
  -1  -6   3    0.13    0.27
   0   6  -3   -0.11    0.14
   0   6  -3    0.16    0.17
   0  -6   3   -0.16    0.13
   0  -6   3   -0.14    0.28
  -1   6  -3    0.90    0.28
  -1   6  -3    1.68    0.39
   1  -6   3    0.57    0.43
  -2   6  -3   -0.42    0.16
   2  -6   3    0.31    0.38
  -3   6  -3    6.58    0.83
   3  -6   3    7.63    1.29
  -4   6  -3    0.15    0.32
   4  -6   3    1.19    0.80
  -5   6  -3    2.86    0.71
   5  -6   3    2.41    1.03
  -6   6  -3   -0.18    0.51
   6  -6   3   -0.39    0.70
  -7   6  -3   -0.30    0.64
   7  -6   3   -0.76    0.86
   8   5  -3    0.16    0.49
  -8  -5   3    0.48    0.50
   7   5  -3    0.73    0.48
  -7  -5   3    0.95    0.47
  -7  -5   3    1.08    0.53
   6   5  -3    0.55    0.43
  -6  -5   3    0.64    0.44
  -6  -5   3    0.46    0.46
   5   5  -3    0.17    0.32
  -5  -5   3    0.88    0.42
  -5  -5   3    0.18    0.36
   4   5  -3   10.33    1.00
  -4  -5   3   10.88    1.01
  -4  -5   3   10.71    0.93
   3   5  -3    4.44    0.68
  -3  -5   3    4.08    0.58
  -3  -5   3    4.11    0.69
   2   5  -3    0.34    0.23
  -2  -5   3    0.33    0.27
  -2  -5   3    0.29    0.17
   1   5  -3   -0.04    0.15
  -1  -5   3    0.08    0.13
  -1  -5   3   -0.14    0.22
   0   5  -3   15.54    0.92
   0   5  -3   14.97    0.98
   0  -5   3   17.31    1.27
   0  -5   3   15.35    0.95
  -1   5  -3    0.29    0.20
  -1   5  -3    0.79    0.26
   1  -5   3    0.59    0.21
   1  -5   3    0.59    0.35
  -2   5  -3   22.36    1.29
  -2   5  -3   21.18    1.17
   2  -5   3   22.39    1.74
  -3   5  -3    0.20    0.24
   3  -5   3   -0.47    0.41
  -4   5  -3   17.81    1.25
   4  -5   3   16.38    1.78
  -5   5  -3   -0.66    0.37
   5  -5   3   -0.55    0.53
  -6   5  -3   -0.48    0.45
   6  -5   3    0.90    0.74
  -7   5  -3    0.68    0.63
   7  -5   3    0.29    0.97
   8   4  -3   -0.18    0.43
  -8  -4   3    0.26    0.50
   7   4  -3    2.13    0.62
  -7  -4   3    1.49    0.57
  -7  -4   3    1.38    0.55
   6   4  -3    4.01    0.82
  -6  -4   3    4.96    0.81
  -6  -4   3    2.17    0.62
   5   4  -3   12.57    1.18
  -5  -4   3   14.12    1.19
  -5  -4   3   14.98    1.20
   4   4  -3    1.77    0.52
  -4  -4   3    2.03    0.48
  -4  -4   3    1.84    0.45
   3   4  -3    2.04    0.42
  -3  -4   3    1.14    0.33
  -3  -4   3    1.67    0.42
   2   4  -3    8.81    0.73
  -2  -4   3    9.13    0.67
  -2  -4   3    7.76    0.75
   1   4  -3    2.29    0.38
  -1  -4   3    2.41    0.43
  -1  -4   3    3.10    0.41
  -1  -4   3    2.80    0.47
   0  -4   3  111.80    4.97
   0  -4   3  119.53    4.93
   0  -4   3  114.56    5.76
  -1   4  -3   18.47    1.06
  -1   4  -3   17.75    1.04
   1  -4   3   19.12    1.41
   1  -4   3   20.16    0.99
  -2   4  -3   31.15    1.56
  -2   4  -3   32.40    1.68
   2  -4   3   35.48    1.53
   2  -4   3   31.98    2.17
  -3   4  -3    2.79    0.46
   3  -4   3    2.24    0.71
  -4   4  -3    9.61    0.86
   4  -4   3    8.67    1.31
  -5   4  -3   13.54    1.40
   5  -4   3    9.42    1.53
  -6   4  -3   -0.03    0.46
   6  -4   3   -0.30    0.66
  -7   4  -3   -0.27    0.53
   7  -4   3   -1.04    0.62
  -8   4  -3   -0.10    0.69
   8   3  -3    0.08    0.43
  -8  -3   3    1.35    0.57
   7   3  -3    0.28    0.34
  -7  -3   3   -0.44    0.35
  -7  -3   3    0.61    0.47
   6   3  -3    4.37    0.82
  -6  -3   3    4.56    0.78
  -6  -3   3    5.21    0.83
   5   3  -3    0.25    0.32
  -5  -3   3    0.05    0.35
  -5  -3   3   -0.03    0.26
   4   3  -3    4.29    0.73
  -4  -3   3    4.34    0.66
  -4  -3   3    4.29    0.73
   3   3  -3   60.20    3.09
  -3  -3   3   67.32    3.15
  -3  -3   3   64.09    3.02
   2   3  -3  132.75    6.03
  -2  -3   3  144.56    6.16
  -2  -3   3  141.78    6.02
  -1  -3   3   24.02    1.30
  -1  -3   3   23.83    1.37
  -1  -3   3   22.71    1.20
   0  -3   3   37.61    1.65
   0  -3   3   31.42    1.66
   0  -3   3   33.84    1.62
   0  -3   3   34.03    1.96
  -1   3  -3   36.26    1.74
  -1   3  -3   36.11    1.74
   1  -3   3   39.48    1.68
   1  -3   3   35.13    2.17
  -2   3  -3  114.88    5.14
   2  -3   3  126.98    4.98
   2  -3   3  115.15    6.08
  -3   3  -3    3.86    0.50
   3  -3   3    4.20    0.80
   3  -3   3    3.49    0.33
  -4   3  -3    8.01    0.76
   4  -3   3   10.19    1.41
  -5   3  -3    0.19    0.31
   5  -3   3   -0.71    0.45
  -6   3  -3    0.21    0.44
   6  -3   3    0.15    0.70
  -7   3  -3    0.88    0.62
   7  -3   3    1.43    0.86
  -8   3  -3   -0.01    0.59
   9   2  -3   -0.10    0.53
   8   2  -3    0.10    0.44
  -8  -2   3    0.09    0.49
   7   2  -3    0.59    0.43
  -7  -2   3    1.45    0.58
   6   2  -3    1.80    0.56
  -6  -2   3    1.26    0.51
  -6  -2   3    2.06    0.53
   5   2  -3   35.34    2.18
  -5  -2   3   36.48    2.11
  -5  -2   3   39.78    2.16
   4   2  -3    3.02    0.59
  -4  -2   3    1.71    0.40
  -4  -2   3    1.15    0.33
   3   2  -3   30.77    1.70
  -3  -2   3   27.94    1.65
  -3  -2   3   31.70    1.66
   2   2  -3   15.73    1.00
  -2  -2   3   16.09    0.94
  -2  -2   3   16.40    1.02
  -1  -2   3   27.49    1.44
  -1  -2   3   30.44    1.50
  -1  -2   3   28.39    1.39
  -1  -2   3   29.59    1.54
   0  -2   3   54.80    2.69
   0  -2   3   67.10    2.66
   0  -2   3   53.83    2.63
   0  -2   3   66.90    3.12
   1  -2   3    0.47    0.24
   1  -2   3    0.54    0.13
   1  -2   3    0.30    0.12
  -2   2  -3    9.99    0.65
   2  -2   3   10.53    0.58
   2  -2   3   10.18    0.92
  -3   2  -3    0.53    0.21
   3  -2   3    0.14    0.10
   3  -2   3    0.13    0.27
  -4   2  -3   26.67    1.49
   4  -2   3   23.12    1.24
   4  -2   3   22.59    1.78
  -5   2  -3    1.77    0.53
   5  -2   3    1.86    0.71
  -6   2  -3   -0.04    0.36
   6  -2   3   -0.18    0.56
  -7   2  -3    0.74    0.57
   7  -2   3    1.69    0.88
  -8   2  -3    0.65    0.69
   8   1  -3    0.60    0.51
  -8  -1   3   -0.15    0.48
   7   1  -3    1.22    0.53
  -7  -1   3    0.51    0.56
   6   1  -3    4.20    0.76
  -6  -1   3    3.21    0.66
  -6  -1   3    2.99    0.66
   5   1  -3    0.12    0.22
  -5  -1   3    0.12    0.26
  -5  -1   3    0.12    0.24
   4   1  -3    1.09    0.36
  -4  -1   3    0.68    0.29
  -4  -1   3    0.54    0.30
   3   1  -3   32.67    1.72
  -3  -1   3   29.69    1.65
  -3  -1   3   30.79    1.68
   2   1  -3   43.41    2.07
  -2  -1   3   42.22    2.02
  -2  -1   3   41.02    2.07
   1   1  -3    3.10    0.28
  -1  -1   3    2.35    0.32
  -1  -1   3    3.66    0.37
  -1  -1   3    2.67    0.26
   0  -1   3   26.08    1.51
   0  -1   3   28.81    1.27
   0  -1   3   30.08    1.32
   0  -1   3   25.90    1.34
  -1   1  -3   36.71    1.63
   1  -1   3   36.86    2.02
   1  -1   3   36.77    1.64
  -2   1  -3   32.43    1.51
   2  -1   3   32.35    1.48
   2  -1   3   31.41    1.90
  -3   1  -3   15.06    0.89
   3  -1   3   14.05    1.15
   3  -1   3   14.00    0.80
  -4   1  -3    4.35    0.59
   4  -1   3    4.86    0.45
   4  -1   3    4.67    0.80
  -5   1  -3    1.12    0.42
   5  -1   3    1.50    0.55
  -6   1  -3    3.06    0.72
   6  -1   3    3.40    0.89
  -7   1  -3    2.47    0.74
   7  -1   3    4.83    1.01
  -8   1  -3    1.46    0.78
  -8   0   3    0.08    0.57
   7   0  -3    0.04    0.33
  -7   0   3   -0.04    0.42
   6   0  -3    3.32    0.68
  -6   0   3    1.70    0.49
  -6   0   3    1.68    0.61
   5   0  -3   -0.04    0.21
  -5   0   3    0.02    0.25
  -5   0   3    0.06    0.23
   4   0  -3    0.65    0.27
  -4   0   3    0.92    0.30
  -4   0   3    1.12    0.34
   3   0  -3    1.57    0.33
  -3   0   3    1.33    0.35
  -3   0   3    0.55    0.25
   2   0  -3   10.56    0.71
  -2   0   3   11.14    0.71
  -2   0   3   10.24    0.71
   1   0  -3  125.72    5.64
  -1   0   3  114.55    5.14
  -1   0   3  120.75    5.07
   0   0  -3  810.16   35.09
   0   0   3  765.41   30.81
   0   0   3  776.30   31.32
   0   0   3  709.51   31.15
  -1   0  -3   32.56    1.46
   1   0   3   36.68    1.52
   1   0   3   33.06    1.83
   1   0   3   34.00    1.52
  -2   0  -3    0.86    0.15
   2   0   3    0.91    0.28
   2   0   3    0.48    0.13
  -3   0  -3   43.49    1.99
   3   0   3   39.32    2.35
  -4   0  -3    0.26    0.21
   4   0   3    0.01    0.10
   4   0   3    0.03    0.27
  -5   0  -3    1.88    0.47
   5   0   3    1.51    0.57
  -6   0  -3   11.38    1.25
   6   0   3   10.11    1.38
   6   0   3    9.78    0.91
  -7   0  -3   -0.32    0.40
  -8   0  -3    3.25    0.84
  -8   1   3    0.56    0.61
  -7   1   3    0.81    0.49
   6  -1  -3    0.41    0.34
  -6   1   3    0.30    0.47
   5  -1  -3    0.08    0.20
  -5   1   3   -0.31    0.23
  -5   1   3    0.01    0.21
   4  -1  -3    2.16    0.44
   4  -1  -3    2.24    0.43
  -4   1   3    2.71    0.53
  -4   1   3    3.75    0.57
   3  -1  -3  196.74    9.05
   3  -1  -3  189.88    8.11
  -3   1   3  191.89    8.20
  -3   1   3  188.31    8.21
   2  -1  -3   76.75    3.56
  -2   1   3   72.86    3.28
  -2   1   3   69.40    3.26
  -1   1   3   97.36    4.34
  -1   1   3  104.88    4.27
   0  -1  -3  930.43   38.36
   0   1   3  824.24   34.06
   0   1   3  815.66   33.66
   0   1   3  778.84   34.21
  -1  -1  -3  239.14   11.31
   1   1   3  242.02    9.88
   1   1   3  246.34    9.98
  -2  -1  -3    0.40    0.11
   2   1   3    0.30    0.11
  -3  -1  -3  407.13   16.55
   3   1   3  408.92   18.73
   3   1   3  387.72   16.35
  -4  -1  -3   10.25    0.75
   4   1   3    9.95    0.73
   4   1   3    9.36    0.90
  -5  -1  -3    0.50    0.28
   5   1   3   -0.43    0.33
   5   1   3    0.54    0.31
  -6  -1  -3    1.03    0.48
   6   1   3    1.71    0.47
   6   1   3    0.83    0.54
  -7  -1  -3   -0.05    0.38
   7   1   3    0.08    0.39
  -8  -1  -3    3.11    0.82
  -8   2   3    0.41    0.60
  -7   2   3    1.13    0.67
  -6   2   3    0.31    0.48
   5  -2  -3    0.58    0.29
  -5   2   3    0.55    0.29
  -5   2   3    0.46    0.38
   4  -2  -3    1.62    0.48
   4  -2  -3    2.46    0.48
  -4   2   3    1.76    0.44
  -4   2   3    1.79    0.41
   3  -2  -3   99.33    4.42
   3  -2  -3  102.52    4.99
  -3   2   3   99.07    4.54
  -3   2   3  101.99    4.49
   2  -2  -3  525.30   23.26
  -2   2   3  503.53   20.78
  -2   2   3  482.40   20.79
  -1   2   3   76.15    3.22
  -1   2   3   70.70    3.12
   0  -2  -3    1.67    0.30
   0   2   3    1.53    0.15
   0   2   3    1.84    0.18
   0   2   3    1.97    0.24
  -1  -2  -3  270.74   12.84
   1   2   3  282.04   11.24
  -2  -2  -3   12.48    0.83
  -2  -2  -3   11.47    0.59
   2   2   3   11.66    0.59
   2   2   3   11.46    0.68
  -3  -2  -3  119.82    5.06
  -3  -2  -3  120.28    5.80
   3   2   3  115.69    5.07
  -4  -2  -3    0.16    0.24
  -4  -2  -3    1.14    0.28
   4   2   3    0.44    0.21
  -5  -2  -3    0.70    0.29
   5   2   3    0.10    0.22
  -6  -2  -3    9.01    1.07
   6   2   3   10.20    0.98
  -7  -2  -3   -0.40    0.34
   7   2   3   -0.25    0.33
  -8  -2  -3    1.72    0.73
   8   2   3    2.12    0.65
  -8   3   3    0.41    0.73
  -7   3   3    1.15    0.68
  -6   3   3   -0.35    0.42
   5  -3  -3    3.79    0.83
  -5   3   3    1.88    0.54
  -5   3   3    2.15    0.48
   4  -3  -3   32.07    2.05
   4  -3  -3   30.91    1.71
  -4   3   3   32.00    1.87
  -4   3   3   30.86    1.72
   3  -3  -3    2.20    0.48
   3  -3  -3    2.28    0.37
  -3   3   3    2.09    0.44
  -3   3   3    2.66    0.45
   2  -3  -3   42.91    2.29
  -2   3   3   42.80    2.04
  -2   3   3   40.15    1.99
   1  -3  -3    5.50    0.51
  -1   3   3    4.95    0.39
  -1   3   3    5.31    0.36
  -1   3   3    4.61    0.38
   0  -3  -3   25.03    1.35
   0   3   3   22.66    1.08
   0   3   3   24.52    1.15
   0   3   3   23.71    1.09
  -1  -3  -3  160.72    7.70
   1   3   3  158.42    6.80
   1   3   3  170.43    6.73
  -2  -3  -3    1.51    0.33
  -2  -3  -3    1.29    0.16
   2   3   3    1.04    0.21
   2   3   3    1.13    0.18
  -3  -3  -3   71.93    3.17
   3   3   3   71.41    3.14
   3   3   3   75.12    3.28
  -4  -3  -3   16.01    1.14
  -4  -3  -3   15.63    0.97
   4   3   3   17.03    1.07
   4   3   3   15.43    0.84
  -5  -3  -3    7.51    0.83
  -5  -3  -3    6.53    0.83
   5   3   3    5.97    0.77
  -6  -3  -3   -0.04    0.30
   6   3   3    0.21    0.32
  -7  -3  -3   -0.27    0.38
   7   3   3   -0.22    0.29
  -8  -3  -3    0.70    0.54
   8   3   3    0.09    0.46
   9   3   3    1.05    0.70
  -7   4   3    0.94    0.67
  -6   4   3    1.33    0.58
   5  -4  -3    9.38    1.38
  -5   4   3    9.37    1.20
   4  -4  -3   37.78    2.46
  -4   4   3   40.91    2.25
  -4   4   3   39.41    2.07
   3  -4  -3    5.49    0.80
   3  -4  -3    5.38    0.57
  -3   4   3    4.46    0.59
  -3   4   3    3.97    0.57
   2  -4  -3    7.83    0.77
  -2   4   3    7.90    0.58
  -2   4   3    8.22    0.65
   1  -4  -3    0.25    0.23
  -1   4   3    0.19    0.09
  -1   4   3    0.29    0.14
  -1   4   3    0.25    0.14
   0  -4  -3   65.32    3.47
   0   4   3   70.33    2.89
   0   4   3   69.84    3.01
  -1  -4  -3    3.81    0.53
   1   4   3    3.45    0.31
   1   4   3    3.62    0.30
  -2  -4  -3   13.40    0.69
  -2  -4  -3   12.45    0.88
   2   4   3   15.07    0.77
   2   4   3   12.45    0.78
  -3  -4  -3    0.34    0.13
  -3  -4  -3    0.09    0.18
   3   4   3    0.21    0.12
   3   4   3    0.42    0.22
  -4  -4  -3   11.72    0.93
  -4  -4  -3   13.71    0.85
   4   4   3   13.78    0.79
   4   4   3   13.77    0.96
  -5  -4  -3   22.63    1.34
  -5  -4  -3   21.03    1.44
   5   4   3   20.96    1.17
   5   4   3   22.19    1.45
  -6  -4  -3    0.53    0.34
   6   4   3    0.65    0.38
  -7  -4  -3    3.73    0.75
   7   4   3    2.63    0.64
  -8  -4  -3    1.13    0.59
   8   4   3    0.36    0.46
   9   4   3    0.31    0.55
  -7   5   3    0.61    0.61
  -6   5   3    2.12    0.70
   5  -5  -3   -0.95    0.55
  -5   5   3   -0.22    0.31
   4  -5  -3   20.40    1.74
  -4   5   3   21.78    1.33
  -4   5   3   23.12    1.52
   3  -5  -3    0.05    0.33
  -3   5   3    0.57    0.22
  -3   5   3    0.36    0.25
   2  -5  -3   12.44    1.05
  -2   5   3   11.33    0.80
  -2   5   3   12.46    0.77
   1  -5  -3   12.75    1.03
  -1   5   3   13.28    0.79
  -1   5   3   13.94    0.79
   0  -5  -3    2.28    0.45
   0   5   3    2.07    0.23
   0   5   3    2.28    0.32
   0   5   3    1.90    0.27
  -1  -5  -3  225.91   10.58
   1   5   3  220.36    9.34
   1   5   3  222.95    9.16
  -2  -5  -3    3.34    0.51
  -2  -5  -3    2.63    0.27
   2   5   3    2.32    0.33
   2   5   3    2.90    0.39
  -3  -5  -3   12.42    0.72
  -3  -5  -3   12.23    0.90
   3   5   3   11.56    0.83
   3   5   3   12.23    0.77
  -4  -5  -3   32.82    1.62
  -4  -5  -3   28.63    1.80
   4   5   3   32.98    1.79
   4   5   3   33.72    1.63
  -5  -5  -3    0.74    0.30
  -5  -5  -3    0.50    0.29
   5   5   3    0.61    0.25
   5   5   3    0.39    0.29
  -6  -5  -3   16.84    1.25
   6   5   3   18.14    1.41
  -7  -5  -3    0.42    0.37
   7   5   3    0.03    0.37
   8   5   3    0.17    0.46
   9   5   3    0.90    0.55
  -7   6   3    0.03    0.55
   6  -6  -3    0.10    0.79
  -6   6   3    0.06    0.46
   5  -6  -3    1.20    0.86
  -5   6   3    3.32    0.75
   4  -6  -3   30.07    2.19
  -4   6   3   28.19    1.64
  -4   6   3   29.85    1.83
   3  -6  -3   18.54    1.51
  -3   6   3   17.30    1.06
  -3   6   3   16.60    1.17
   2  -6  -3    6.40    1.00
  -2   6   3    4.97    0.46
  -2   6   3    4.28    0.54
   1  -6  -3    8.33    0.87
  -1   6   3    8.32    0.60
  -1   6   3    8.80    0.63
   0  -6  -3   20.17    1.48
   0   6   3   23.53    1.21
   0   6   3   21.55    1.04
   0   6   3   23.47    1.16
  -1  -6  -3   30.70    1.86
   1   6   3   27.01    1.45
   1   6   3   31.03    1.54
   1   6   3   33.08    1.48
  -2  -6  -3    4.84    0.68
  -2  -6  -3    4.47    0.39
   2   6   3    4.81    0.47
   2   6   3    5.02    0.46
  -3  -6  -3    0.79    0.30
  -3  -6  -3    0.89    0.22
   3   6   3    0.95    0.24
   3   6   3    0.96    0.28
  -4  -6  -3   41.20    2.36
  -4  -6  -3   45.57    2.10
   4   6   3   41.41    2.11
   4   6   3   42.50    2.25
  -5  -6  -3    1.95    0.42
   5   6   3    1.66    0.45
   5   6   3    2.26    0.43
  -6  -6  -3    2.93    0.58
   6   6   3    4.03    0.80
  -7  -6  -3    1.60    0.54
   7   6   3    1.49    0.57
   8   6   3    0.16    0.42
   9   6   3    0.67    0.58
   6  -7  -3    0.78    0.86
  -6   7   3    0.74    0.54
   5  -7  -3   -0.33    0.71
  -5   7   3    0.83    0.45
   4  -7  -3    2.74    0.83
  -4   7   3    4.00    0.72
   3  -7  -3    3.52    0.87
  -3   7   3    5.38    0.55
  -3   7   3    7.78    0.88
   2  -7  -3   30.67    2.14
  -2   7   3   28.28    1.54
  -2   7   3   30.58    1.64
   1  -7  -3   62.78    3.60
  -1   7   3   65.19    2.96
  -1   7   3   63.31    2.96
   0  -7  -3    0.01    0.25
   0   7   3    0.12    0.16
   0   7   3   -0.06    0.12
   0   7   3    0.00    0.07
  -1  -7  -3    3.82    0.68
   1   7   3    3.96    0.53
   1   7   3    2.96    0.39
   1   7   3    3.64    0.45
  -2  -7  -3    9.77    0.92
  -2  -7  -3    8.20    0.61
   2   7   3    8.66    0.67
   2   7   3    9.11    0.70
  -3  -7  -3   10.14    0.95
  -3  -7  -3   11.24    0.73
   3   7   3   11.15    0.82
   3   7   3   10.53    0.82
  -4  -7  -3   73.57    3.83
  -4  -7  -3   74.45    3.35
   4   7   3   73.70    3.44
   4   7   3   70.82    3.50
  -5  -7  -3   -0.12    0.20
   5   7   3    0.50    0.29
   5   7   3    0.19    0.21
  -6  -7  -3    2.05    0.53
   6   7   3    1.51    0.55
   6   7   3    1.41    0.41
  -7  -7  -3   -0.14    0.38
   7   7   3    0.14    0.32
   8   7   3    0.37    0.47
   6  -8  -3    2.58    0.95
  -6   8   3    1.80    0.65
   5  -8  -3   -0.31    0.72
  -5   8   3    0.34    0.44
   4  -8  -3    0.78    0.75
  -4   8   3    0.49    0.40
   3  -8  -3    0.72    0.53
  -3   8   3    1.66    0.39
  -3   8   3    1.86    0.47
   2  -8  -3    2.22    0.66
  -2   8   3    1.79    0.39
  -2   8   3    2.41    0.50
   1  -8  -3   79.51    4.47
  -1   8   3   78.54    3.67
  -1   8   3   81.83    3.71
   0  -8  -3    4.07    0.85
   0   8   3    4.17    0.59
   0   8   3    4.32    0.56
  -1  -8  -3    7.40    1.04
   1   8   3    5.58    0.51
   1   8   3    7.19    0.60
   1   8   3    7.46    0.64
  -2  -8  -3   33.17    2.14
  -2  -8  -3   33.56    1.69
   2   8   3   32.29    1.71
  -3  -8  -3    1.02    0.43
  -3  -8  -3    1.30    0.31
   3   8   3    1.13    0.30
   3   8   3    2.60    0.50
  -4  -8  -3   45.08    2.16
  -4  -8  -3   39.42    2.50
   4   8   3   41.75    2.30
   4   8   3   44.36    2.26
  -5  -8  -3    0.01    0.23
   5   8   3    0.46    0.35
   5   8   3    0.08    0.20
  -6  -8  -3   -0.26    0.29
   6   8   3    0.10    0.27
   6   8   3    1.25    0.51
  -7  -8  -3   -0.31    0.43
   7   8   3   -0.11    0.39
   8   8   3    0.25    0.53
   6  -9  -3    1.75    1.02
   5  -9  -3    1.66    1.05
  -5   9   3    1.68    0.59
   4  -9  -3   -0.33    0.69
  -4   9   3    0.29    0.42
   3  -9  -3    0.90    0.64
  -3   9   3    0.65    0.31
  -3   9   3    1.33    0.45
   2  -9  -3   -0.88    0.53
  -2   9   3    0.66    0.28
  -2   9   3    0.71    0.34
   1  -9  -3   43.47    2.93
  -1   9   3   43.49    2.25
  -1   9   3   43.95    2.28
   0  -9  -3    0.62    0.44
   0   9   3    0.38    0.26
   0   9   3    0.56    0.28
  -1  -9  -3    0.60    0.43
   1   9   3    0.67    0.26
   1   9   3    0.96    0.31
  -2  -9  -3   39.02    2.50
  -2  -9  -3   40.26    1.97
   2   9   3   35.94    1.93
  -3  -9  -3    0.24    0.34
  -3  -9  -3    0.49    0.23
   3   9   3    0.59    0.31
   3   9   3    1.07    0.37
  -4  -9  -3   20.50    1.24
   4   9   3   17.79    1.35
   4   9   3   21.57    1.37
  -5  -9  -3    1.48    0.40
   5   9   3    1.43    0.41
   5   9   3    1.02    0.42
  -6  -9  -3    7.16    0.92
   6   9   3    6.33    1.07
   6   9   3    6.09    0.88
  -7  -9  -3    1.20    0.52
   7   9   3   -0.37    0.32
   8   9   3    0.74    0.53
   5 -10  -3    1.00    0.84
   4 -10  -3   -1.10    0.60
  -4  10   3    0.70    0.54
   3 -10  -3   -0.36    0.57
  -3  10   3    0.22    0.31
   2 -10  -3    0.52    0.68
  -2  10   3    0.14    0.22
  -2  10   3    0.39    0.34
   1 -10  -3    0.31    0.54
  -1  10   3    0.26    0.31
  -1  10   3    0.21    0.29
   0 -10  -3    2.16    0.82
   0  10   3    1.79    0.46
   0  10   3    2.56    0.59
  -1 -10  -3    2.15    0.74
   1  10   3    3.48    0.65
   1  10   3    2.77    0.53
  -2 -10  -3   20.59    1.72
   2  10   3   18.19    1.32
  -3 -10  -3    1.33    0.38
  -3 -10  -3    0.43    0.40
   3  10   3    1.26    0.41
   3  10   3    1.67    0.41
  -4 -10  -3    3.21    0.54
   4  10   3    2.00    0.57
   4  10   3    1.67    0.45
  -5 -10  -3    4.22    0.66
   5  10   3    2.30    0.66
   5  10   3    3.47    0.69
  -6 -10  -3    4.40    0.74
   6  10   3    3.76    0.81
   6  10   3    5.27    0.82
   7  10   3    0.07    0.39
   7  10   3    0.12    0.38
   8  10   3   -0.39    0.39
   4 -11  -3    2.37    0.95
  -4  11   3    0.04    0.45
   3 -11  -3   -0.56    0.75
  -3  11   3    0.67    0.40
   2 -11  -3    1.98    0.91
  -2  11   3    0.86    0.33
  -2  11   3    1.55    0.54
   1 -11  -3    0.12    0.62
  -1  11   3    0.38    0.34
  -1  11   3    0.41    0.31
   0 -11  -3    5.88    1.23
   0  11   3    6.41    0.89
   0  11   3    6.39    0.83
  -1 -11  -3    2.18    0.88
   1  11   3    1.44    0.45
   1  11   3    1.32    0.44
  -2 -11  -3    0.27    0.46
   2  11   3    0.45    0.32
   2  11   3   -0.09    0.27
  -3 -11  -3    6.36    0.79
   3  11   3    5.43    0.77
  -4 -11  -3    0.10    0.28
   4  11   3   -0.51    0.22
   4  11   3    0.00    0.28
  -5 -11  -3    0.24    0.31
   5  11   3    0.39    0.33
   5  11   3   -0.35    0.25
  -6 -11  -3    1.07    0.47
   6  11   3    0.43    0.45
   6  11   3    0.63    0.38
   7  11   3    0.27    0.40
   7  11   3    0.61    0.44
   3 -12  -3    1.26    1.11
  -3  12   3    0.21    0.38
   2 -12  -3   -0.12    0.66
  -2  12   3    0.47    0.39
   1 -12  -3   -0.05    0.63
  -1  12   3    0.20    0.32
  -1  12   3   -0.22    0.32
   0 -12  -3   -0.15    0.62
   0  12   3    0.03    0.33
   0  12   3    0.25    0.31
  -1 -12  -3    1.65    0.80
   1  12   3    2.48    0.68
   1  12   3    0.67    0.39
  -2 -12  -3   -0.33    0.51
   2  12   3    0.00    0.27
   2  12   3   -0.13    0.26
   3  12   3   -0.17    0.26
  -4 -12  -3    0.36    0.37
   4  12   3    0.23    0.33
  -5 -12  -3   -0.03    0.33
   5  12   3   -0.47    0.33
   5  12   3    0.01    0.31
  -6 -12  -3   -0.32    0.39
   6  12   3   -0.38    0.34
   6  12   3    0.09    0.35
   7  12   3    0.28    0.50
   7  12   3    0.44    0.48
   2 -13  -3    0.01    0.87
  -2  13   3    0.44    0.46
   1 -13  -3    0.63    0.78
  -1  13   3   -0.22    0.37
  -1  13   3    0.26    0.33
   0 -13  -3    0.59    0.76
   0  13   3    0.01    0.35
   0  13   3   -0.24    0.35
  -1 -13  -3    1.01    0.89
   1  13   3    2.70    0.69
   1  13   3    2.43    0.62
  -2 -13  -3    0.98    0.73
   2  13   3   -0.21    0.30
   2  13   3    0.59    0.36
   3  13   3   -0.10    0.31
   3  13   3    0.40    0.34
  -4 -13  -3    2.50    0.57
   4  13   3    3.51    0.82
  -5 -13  -3   -0.13    0.35
   5  13   3    0.09    0.36
   6  13   3   -0.27    0.38
   6  13   3    0.74    0.53
  -1  14   3   -0.14    0.37
   0 -14  -3    1.46    0.98
   0  14   3    0.44    0.37
   0  14   3    0.69    0.55
  -1 -14  -3    0.00    0.78
   1  14   3   -0.06    0.41
   1  14   3    0.29    0.36
   2  14   3    1.15    0.50
   2  14   3    1.05    0.48
   3  14   3    0.17    0.36
   3  14   3    0.26    0.38
   4  14   3    0.48    0.48
  -5 -14  -3    1.56    0.61
   5  14   3    1.28    0.64
  -1 -15  -3    0.70    1.03
   2  15   3    0.45    0.48
   3  15   3    0.61    0.47
   3  12  -4    0.28    0.37
  -3 -12   4   -0.16    0.36
   2  12  -4    0.43    0.38
   1  12  -4    2.00    0.68
   1  12  -4    2.19    0.67
   0  12  -4   -0.62    0.42
   1 -12   4    0.13    0.94
   6  11  -4   -0.02    0.42
   5  11  -4   -0.29    0.49
  -5 -11   4    0.17    0.45
   4  11  -4    0.18    0.40
  -4 -11   4   -0.42    0.35
   3  11  -4    0.97    0.50
  -3 -11   4    0.92    0.44
   2  11  -4    0.45    0.42
  -2 -11   4    0.43    0.39
   1  11  -4   -0.03    0.39
   1  11  -4   -0.11    0.29
   0  11  -4    0.31    0.44
   0 -11   4   -0.44    0.73
  -1  11  -4    0.17    0.52
   1 -11   4   -0.58    0.83
  -2  11  -4    0.36    0.52
   2 -11   4   -0.50    0.81
   6  10  -4    0.00    0.43
   6  10  -4    0.29    0.46
  -6 -10   4   -0.15    0.50
   5  10  -4    0.11    0.40
   5  10  -4    0.12    0.36
  -5 -10   4   -0.32    0.38
   4  10  -4   -0.88    0.33
  -4 -10   4    0.09    0.34
   3  10  -4    0.35    0.35
  -3 -10   4    0.01    0.33
   2  10  -4    1.47    0.50
  -2 -10   4    2.24    0.52
   1  10  -4    0.23    0.31
   0  10  -4    0.63    0.40
   0  10  -4    0.44    0.46
   0 -10   4   -0.39    0.59
  -1  10  -4    0.44    0.47
   1 -10   4    0.43    0.82
  -2  10  -4    0.79    0.55
   2 -10   4   -0.28    0.68
  -3  10  -4    1.39    0.66
   3 -10   4    1.39    1.15
   6   9  -4    0.76    0.56
   6   9  -4    0.43    0.42
  -6  -9   4    0.63    0.59
   5   9  -4   -0.40    0.31
   5   9  -4    0.38    0.42
  -5  -9   4   -0.30    0.39
   4   9  -4    0.54    0.37
   4   9  -4   -0.33    0.32
  -4  -9   4    0.74    0.44
   3   9  -4    0.71    0.35
   3   9  -4   -0.16    0.25
  -3  -9   4   -0.28    0.29
   2   9  -4   -0.23    0.26
  -2  -9   4    0.35    0.29
   1   9  -4    2.74    0.65
  -1  -9   4    2.20    0.53
   0   9  -4    0.38    0.35
   0   9  -4    1.05    0.43
   0  -9   4    0.55    0.73
  -1   9  -4    0.61    0.45
   1  -9   4   -0.20    0.64
  -2   9  -4    0.95    0.54
   2  -9   4    0.44    0.75
  -3   9  -4    0.92    0.55
   3  -9   4   -0.09    0.68
  -4   9  -4   -0.04    0.54
   4  -9   4    0.16    0.90
   7   8  -4   -0.32    0.38
   7   8  -4    0.35    0.46
  -7  -8   4    1.55    0.65
   6   8  -4    0.88    0.55
   6   8  -4    1.01    0.52
  -6  -8   4    0.24    0.51
   5   8  -4    1.49    0.56
   5   8  -4    1.17    0.49
  -5  -8   4    1.19    0.48
   4   8  -4    1.60    0.54
   4   8  -4    2.99    0.72
  -4  -8   4    2.03    0.59
   3   8  -4    0.46    0.40
   3   8  -4    1.80    0.55
  -3  -8   4    1.25    0.45
   2   8  -4    2.39    0.60
   2   8  -4    2.86    0.58
  -2  -8   4    1.80    0.49
   1   8  -4   11.06    1.00
  -1  -8   4    7.64    1.14
  -1  -8   4   11.11    0.93
   0   8  -4    0.18    0.31
   0   8  -4    0.29    0.24
   0  -8   4   -0.20    0.42
  -1   8  -4    6.81    0.90
   1  -8   4    4.43    1.08
  -2   8  -4    6.38    0.91
   2  -8   4    4.17    1.28
  -3   8  -4    1.92    0.62
   3  -8   4    1.65    0.95
  -4   8  -4    0.40    0.50
   4  -8   4    0.50    0.75
  -5   8  -4   -0.18    0.57
   5  -8   4    0.88    1.07
   8   7  -4    0.47    0.56
   7   7  -4    0.23    0.42
  -7  -7   4   -0.33    0.53
   6   7  -4    0.56    0.43
  -6  -7   4    1.00    0.56
   5   7  -4    0.28    0.30
  -5  -7   4   -0.12    0.32
   4   7  -4   -0.03    0.25
  -4  -7   4    0.18    0.30
   3   7  -4   -0.16    0.26
   3   7  -4   -0.06    0.29
  -3  -7   4   -0.01    0.26
   2   7  -4   18.58    1.31
   2   7  -4   18.34    1.31
  -2  -7   4   18.16    1.20
   1   7  -4   20.17    1.40
   1   7  -4   20.67    1.36
  -1  -7   4   21.61    1.33
  -1  -7   4   22.84    1.68
   0   7  -4    2.70    0.52
   0  -7   4    3.92    0.93
  -1   7  -4   22.61    1.43
  -1   7  -4   20.25    1.33
   1  -7   4   22.09    1.91
  -2   7  -4    5.89    0.79
   2  -7   4    5.06    1.18
  -3   7  -4    1.19    0.52
   3  -7   4    0.73    0.64
  -4   7  -4    7.42    1.06
   4  -7   4    6.37    1.57
  -5   7  -4    1.82    0.67
   5  -7   4    0.32    0.93
  -6   7  -4   -0.56    0.63
   7   6  -4    0.46    0.42
  -7  -6   4   -0.01    0.42
  -7  -6   4   -0.14    0.50
   6   6  -4    3.55    0.81
  -6  -6   4    2.03    0.64
  -6  -6   4    1.60    0.57
   5   6  -4   -0.21    0.26
  -5  -6   4    0.11    0.38
  -5  -6   4   -0.13    0.29
   4   6  -4   14.75    1.31
  -4  -6   4   20.60    1.40
  -4  -6   4   18.39    1.49
   3   6  -4    0.07    0.21
  -3  -6   4    0.40    0.32
  -3  -6   4    0.07    0.25
   2   6  -4    3.88    0.64
  -2  -6   4    4.04    0.56
   1   6  -4   10.44    0.86
   1   6  -4    8.96    0.83
  -1  -6   4    9.81    0.78
  -1  -6   4   10.85    1.03
   0   6  -4   11.12    0.82
   0   6  -4    9.58    0.83
   0  -6   4   12.23    0.85
   0  -6   4   11.34    1.15
  -1   6  -4    0.61    0.31
  -1   6  -4    0.48    0.25
   1  -6   4    0.44    0.46
  -2   6  -4    8.22    0.77
   2  -6   4    7.64    1.35
  -3   6  -4    0.98    0.40
   3  -6   4    0.18    0.52
  -4   6  -4    7.96    1.04
   4  -6   4    8.06    1.59
  -5   6  -4    4.70    0.89
   5  -6   4    3.67    1.21
  -6   6  -4   -0.09    0.55
   6  -6   4    2.14    0.99
   8   5  -4    0.36    0.49
  -8  -5   4   -0.30    0.48
   7   5  -4    0.08    0.42
  -7  -5   4    0.22    0.43
  -7  -5   4    0.36    0.50
   6   5  -4    3.68    0.80
  -6  -5   4    1.76    0.62
  -6  -5   4    2.48    0.62
   5   5  -4    3.93    0.83
  -5  -5   4    5.10    0.83
  -5  -5   4    3.66    0.83
   4   5  -4    1.91    0.47
  -4  -5   4    1.99    0.60
  -4  -5   4    1.97    0.51
   3   5  -4    9.17    0.88
  -3  -5   4    9.75    0.83
  -3  -5   4    9.51    0.96
   2   5  -4    0.13    0.23
  -2  -5   4    0.05    0.22
  -2  -5   4    0.07    0.16
   1   5  -4   20.38    1.22
  -1  -5   4   17.95    1.10
  -1  -5   4   19.11    1.37
   0   5  -4    0.45    0.21
   0  -5   4    0.40    0.21
   0  -5   4    0.34    0.34
  -1   5  -4    1.21    0.32
  -1   5  -4    1.13    0.32
   1  -5   4    1.45    0.33
   1  -5   4    1.65    0.58
  -2   5  -4    0.91    0.30
   2  -5   4    0.75    0.51
  -3   5  -4    0.18    0.26
   3  -5   4   -0.23    0.36
  -4   5  -4    6.87    0.88
   4  -5   4    6.02    1.19
  -5   5  -4   -0.26    0.38
   5  -5   4    1.00    0.78
  -6   5  -4    0.56    0.54
   6  -5   4    0.34    0.69
  -7   5  -4   -0.58    0.64
   7  -5   4    1.23    1.02
   8   4  -4   -0.10    0.47
  -8  -4   4   -1.44    0.41
   7   4  -4   -0.18    0.37
  -7  -4   4   -1.31    0.34
  -7  -4   4   -0.66    0.38
   6   4  -4    6.58    1.02
   5   4  -4    0.11    0.32
  -5  -4   4    0.36    0.35
  -5  -4   4    0.15    0.31
   4   4  -4    7.44    0.95
  -4  -4   4   10.14    0.89
  -4  -4   4    8.83    1.12
   3   4  -4   13.89    1.11
  -3  -4   4   13.70    1.13
  -3  -4   4   16.02    1.07
   2   4  -4    0.68    0.30
  -2  -4   4    0.40    0.29
  -2  -4   4    0.95    0.28
  -1  -4   4   16.78    0.99
  -1  -4   4   16.75    1.11
  -1  -4   4   16.18    1.16
   0  -4   4   13.31    0.85
   0  -4   4   13.74    1.10
   0  -4   4   11.84    0.78
   0  -4   4   12.06    0.85
  -1   4  -4    4.55    0.55
  -1   4  -4    4.71    0.48
   1  -4   4    4.62    0.45
   1  -4   4    4.04    0.72
  -2   4  -4   21.54    1.23
  -2   4  -4   20.08    1.12
   2  -4   4   21.48    1.11
   2  -4   4   22.75    1.70
  -3   4  -4   -0.10    0.19
   3  -4   4   -0.12    0.36
  -4   4  -4    9.85    0.86
   4  -4   4    5.99    1.19
  -5   4  -4    1.18    0.58
   5  -4   4    1.61    0.73
  -6   4  -4   -0.12    0.42
  -7   4  -4   -0.08    0.60
   7  -4   4   -0.50    0.76
   8   3  -4    0.15    0.48
  -8  -3   4   -0.49    0.54
   7   3  -4   -0.10    0.37
  -7  -3   4   -0.81    0.41
  -7  -3   4    0.35    0.42
   6   3  -4    0.34    0.38
  -6  -3   4    0.93    0.49
  -6  -3   4    0.48    0.42
   5   3  -4    2.83    0.64
  -5  -3   4    2.66    0.66
  -5  -3   4    3.08    0.64
   4   3  -4    5.44    0.83
  -4  -3   4    5.52    0.74
  -4  -3   4    5.91    0.90
   3   3  -4    1.73    0.45
  -3  -3   4    1.57    0.47
  -3  -3   4    2.37    0.46
   2   3  -4   65.51    3.20
  -2  -3   4   70.64    3.15
  -2  -3   4   67.05    3.28
  -1  -3   4   28.92    1.53
  -1  -3   4   26.53    1.38
  -1  -3   4   28.17    1.60
  -1  -3   4   25.10    1.45
   0  -3   4   -0.07    0.14
   0  -3   4    0.22    0.13
   0  -3   4   -0.20    0.23
   0  -3   4    0.02    0.12
  -1   3  -4   23.46    1.24
   1  -3   4   23.42    1.63
   1  -3   4   24.76    1.22
  -2   3  -4    0.17    0.16
   2  -3   4    0.11    0.29
   2  -3   4    0.14    0.14
  -3   3  -4    1.86    0.37
   3  -3   4    1.62    0.26
   3  -3   4    1.46    0.55
  -4   3  -4   17.05    1.13
   4  -3   4   14.63    1.53
  -5   3  -4    0.50    0.41
   5  -3   4    0.11    0.52
  -6   3  -4   -0.15    0.44
   6  -3   4    1.35    0.73
  -7   3  -4    0.71    0.60
   7  -3   4    1.72    0.92
   8   2  -4    0.73    0.50
  -8  -2   4   -0.52    0.55
   7   2  -4    0.40    0.43
  -7  -2   4    1.90    0.52
  -7  -2   4   -0.08    0.48
   6   2  -4   -0.21    0.28
  -6  -2   4   -0.48    0.33
  -6  -2   4    0.52    0.41
   5   2  -4    0.45    0.34
  -5  -2   4    0.26    0.30
  -5  -2   4    0.63    0.37
   4   2  -4    0.42    0.28
  -4  -2   4    0.65    0.35
  -4  -2   4    0.58    0.31
   3   2  -4    9.02    0.83
  -3  -2   4   10.89    0.91
  -3  -2   4   10.39    0.82
   2   2  -4   21.93    1.28
  -2  -2   4   20.98    1.30
  -2  -2   4   20.07    1.16
  -1  -2   4   65.32    2.94
  -1  -2   4   59.60    2.77
  -1  -2   4   61.45    2.86
   0  -2   4    3.03    0.40
   0  -2   4    3.19    0.50
   0  -2   4    2.85    0.41
  -1   2  -4    2.57    0.33
   1  -2   4    1.93    0.44
   1  -2   4    2.26    0.31
   1  -2   4    2.57    0.36
  -2   2  -4    1.23    0.25
   2  -2   4    0.93    0.20
   2  -2   4    1.04    0.40
  -3   2  -4    7.46    0.61
   3  -2   4    7.85    0.54
   3  -2   4    8.41    1.10
  -4   2  -4   15.52    1.04
   4  -2   4   12.94    1.33
   4  -2   4   13.48    0.84
  -5   2  -4   -0.02    0.27
   5  -2   4   -0.44    0.45
  -6   2  -4   -0.23    0.34
   6  -2   4   -0.49    0.62
  -7   2  -4    2.62    0.82
   7  -2   4    3.73    1.02
   8   1  -4    0.09    0.44
  -8  -1   4    0.23    0.59
   7   1  -4    0.41    0.44
  -7  -1   4    0.51    0.48
   6   1  -4    0.64    0.38
  -6  -1   4    0.92    0.45
  -6  -1   4    0.60    0.41
   5   1  -4    0.56    0.36
  -5  -1   4    0.64    0.38
  -5  -1   4    1.01    0.39
   4   1  -4    0.71    0.30
  -4  -1   4    1.06    0.38
  -4  -1   4    1.05    0.36
   3   1  -4   20.66    1.31
  -3  -1   4   19.60    1.28
  -3  -1   4   20.62    1.25
  -2  -1   4   39.25    1.92
  -2  -1   4   38.06    1.99
   1   1  -4  112.98    5.19
  -1  -1   4  104.12    4.68
  -1  -1   4  108.64    4.79
   0  -1   4   45.54    2.05
   0  -1   4   50.14    2.20
   0  -1   4   44.44    2.11
  -1   1  -4   40.99    1.87
   1  -1   4   42.64    1.91
   1  -1   4   43.27    1.93
   1  -1   4   41.28    2.33
  -2   1  -4   28.26    1.38
   2  -1   4   30.18    1.84
  -3   1  -4    2.21    0.34
   3  -1   4    1.93    0.54
   3  -1   4    2.33    0.32
  -4   1  -4   17.06    1.08
   4  -1   4   15.61    1.39
   4  -1   4   15.45    0.94
  -5   1  -4    2.32    0.54
   5  -1   4    2.37    0.72
   5  -1   4    1.85    0.37
  -6   1  -4    4.40    0.82
   6  -1   4    3.55    0.98
  -7   1  -4    0.72    0.60
   7  -1   4   -1.06    0.59
  -8   0   4   -0.44    0.51
   7   0  -4    0.29    0.38
  -7   0   4   -0.10    0.43
   6   0  -4    2.73    0.63
  -6   0   4    3.25    0.68
  -6   0   4    4.13    0.75
   5   0  -4    1.16    0.44
  -5   0   4    1.05    0.42
  -5   0   4    0.63    0.35
   4   0  -4    0.51    0.26
  -4   0   4    0.43    0.28
  -4   0   4    0.32    0.28
   3   0  -4   -0.02    0.16
  -3   0   4   -0.16    0.14
  -3   0   4   -0.01    0.16
  -2   0   4   29.66    1.61
  -2   0   4   32.77    1.66
   1   0  -4   32.30    1.54
  -1   0   4   23.51    1.36
  -1   0   4   29.39    1.49
  -1   0   4   31.43    1.48
   0   0  -4  179.22    8.31
   0   0   4  176.90    7.30
   0   0   4  169.79    7.27
   0   0   4  178.72    7.42
  -1   0  -4    1.61    0.17
   1   0   4    2.03    0.26
   1   0   4    1.34    0.21
  -2   0  -4   34.41    1.56
   2   0   4   34.23    2.01
   2   0   4   34.91    1.62
  -3   0  -4   60.48    2.71
   3   0   4   58.42    2.67
   3   0   4   60.66    3.29
  -4   0  -4   21.31    1.20
   4   0   4   17.32    1.45
  -5   0  -4    3.29    0.61
   5   0   4    2.33    0.64
  -6   0  -4   10.60    1.17
   6   0   4    8.16    1.36
   6   0   4    9.89    0.88
  -7   0  -4    0.59    0.52
   7   0   4    1.34    0.68
  -8   1   4   -0.15    0.58
  -7   1   4    1.02    0.56
   6  -1  -4    0.76    0.40
  -6   1   4    1.56    0.53
  -6   1   4    0.96    0.43
   5  -1  -4    0.69    0.34
  -5   1   4    1.23    0.46
  -5   1   4    0.78    0.36
   4  -1  -4    0.99    0.35
  -4   1   4    1.62    0.45
  -4   1   4    1.08    0.35
   3  -1  -4    2.23    0.37
   3  -1  -4    1.92    0.41
  -3   1   4    1.81    0.39
  -3   1   4    0.87    0.28
   2  -1  -4    3.36    0.39
  -2   1   4    4.08    0.52
  -2   1   4    4.30    0.52
  -2   1   4    4.24    0.43
   1  -1  -4   41.31    1.96
  -1   1   4   38.41    1.79
  -1   1   4   36.77    1.76
  -1   1   4   34.82    1.81
   0  -1  -4  136.68    5.93
   0   1   4  123.67    5.27
   0   1   4  118.96    5.18
   0   1   4  117.08    5.14
  -1  -1  -4  263.21   12.90
   1   1   4  286.53   11.40
   1   1   4  277.93   11.26
  -2  -1  -4   28.04    1.25
  -2  -1  -4   27.50    1.66
   2   1   4   27.50    1.34
  -3  -1  -4   19.96    1.02
   3   1   4   18.57    1.05
  -4  -1  -4   24.79    1.36
   4   1   4   25.01    1.37
   4   1   4   25.44    1.70
  -5  -1  -4    6.58    0.78
   5   1   4    5.74    0.91
   5   1   4    6.39    0.74
  -6  -1  -4    9.84    1.06
   6   1   4    5.75    0.99
   6   1   4    9.14    0.85
  -7  -1  -4    3.25    0.78
   7   1   4    2.63    0.62
  -8   2   4   -0.35    0.65
  -7   2   4    1.22    0.59
  -6   2   4    0.45    0.44
   5  -2  -4    0.31    0.29
  -5   2   4    0.48    0.29
  -5   2   4    0.53    0.37
   4  -2  -4   13.01    1.07
  -4   2   4   11.66    0.97
  -4   2   4   14.67    1.10
   3  -2  -4   18.30    1.23
  -3   2   4   19.58    1.22
  -3   2   4   20.74    1.21
   2  -2  -4   52.94    2.63
  -2   2   4   49.37    2.40
  -2   2   4   50.86    2.44
  -2   2   4   50.84    2.37
   1  -2  -4   10.55    0.71
  -1   2   4    9.40    0.64
  -1   2   4   10.49    0.63
  -1   2   4    9.89    0.61
   0  -2  -4    5.98    0.50
   0   2   4    5.82    0.41
   0   2   4    4.60    0.36
   0   2   4    4.67    0.32
  -1  -2  -4    7.94    0.64
   1   2   4    8.50    0.51
  -2  -2  -4   10.43    0.81
   2   2   4    9.87    0.53
  -3  -2  -4   58.14    3.15
  -3  -2  -4   60.47    2.61
   3   2   4   58.55    2.69
  -4  -2  -4   11.32    0.76
  -4  -2  -4   10.71    1.01
   4   2   4   11.71    0.81
  -5  -2  -4   22.48    1.34
  -5  -2  -4   21.29    1.63
   5   2   4   21.23    1.34
  -6  -2  -4    4.68    0.72
  -6  -2  -4    1.81    0.63
   6   2   4    4.45    0.70
   7   2   4    4.55    0.78
   8   2   4    0.02    0.40
  -7   3   4   -0.16    0.46
  -6   3   4   -0.01    0.37
  -5   3   4    3.70    0.77
  -5   3   4    3.44    0.65
   4  -3  -4   16.70    1.33
   4  -3  -4   16.38    1.12
  -4   3   4   18.02    1.27
  -4   3   4   17.07    1.17
   3  -3  -4   16.44    1.21
   3  -3  -4   17.49    1.07
  -3   3   4   18.57    1.14
  -3   3   4   17.45    1.15
   2  -3  -4   23.87    1.42
  -2   3   4   22.18    1.26
  -2   3   4   24.31    1.29
  -2   3   4   21.26    1.19
   1  -3  -4    0.73    0.25
  -1   3   4    0.83    0.21
  -1   3   4    0.57    0.18
  -1   3   4    0.57    0.17
   0  -3  -4   -0.01    0.13
   0   3   4   -0.03    0.08
   0   3   4   -0.15    0.07
   0   3   4   -0.04    0.07
  -1  -3  -4    3.79    0.44
   1   3   4    4.39    0.34
   1   3   4    4.07    0.32
  -2  -3  -4    2.25    0.17
  -2  -3  -4    1.53    0.33
   2   3   4    1.80    0.24
   2   3   4    1.87    0.28
  -3  -3  -4   71.63    3.68
  -3  -3  -4   72.02    3.06
   3   3   4   72.92    3.06
   3   3   4   66.34    3.16
  -4  -3  -4   12.20    1.04
   4   3   4   13.93    0.91
  -5  -3  -4  112.28    4.98
   5   3   4  111.24    5.06
  -6  -3  -4    1.24    0.40
  -6  -3  -4    1.67    0.56
   6   3   4    0.67    0.37
   7   3   4    0.23    0.35
   8   3   4    0.24    0.42
   9   3   4    1.70    0.69
  -7   4   4    0.57    0.54
  -6   4   4    0.55    0.55
   5  -4  -4    1.00    0.55
  -5   4   4    0.23    0.25
  -5   4   4    0.01    0.31
   4  -4  -4   10.70    1.14
  -4   4   4   10.97    0.93
  -4   4   4   12.28    1.06
   3  -4  -4    0.03    0.16
   3  -4  -4   -0.01    0.28
  -3   4   4   -0.01    0.19
  -3   4   4    0.25    0.21
   2  -4  -4   46.11    2.40
  -2   4   4   41.67    2.08
  -2   4   4   40.60    1.95
  -2   4   4   40.19    2.05
   1  -4  -4    0.06    0.19
  -1   4   4   -0.04    0.10
  -1   4   4   -0.11    0.10
  -1   4   4    0.45    0.17
   0  -4  -4  202.95    9.71
   0   4   4  210.85    8.58
   0   4   4  205.33    8.38
   0   4   4  200.18    8.47
  -1  -4  -4   32.62    1.87
   1   4   4   35.04    1.56
   1   4   4   33.00    1.47
   1   4   4   33.48    1.58
  -2  -4  -4   34.48    1.48
  -2  -4  -4   33.36    1.90
   2   4   4   34.39    1.63
   2   4   4   31.82    1.57
  -3  -4  -4   88.29    3.73
  -3  -4  -4   81.76    4.35
   3   4   4   87.58    3.77
   3   4   4   91.74    3.88
  -4  -4  -4    0.08    0.18
  -4  -4  -4    0.02    0.14
   4   4   4   -0.02    0.16
   4   4   4    0.08    0.11
  -5  -4  -4    8.36    0.78
  -5  -4  -4    8.57    1.02
   5   4   4    9.95    0.87
  -6  -4  -4   13.06    1.07
   6   4   4   13.50    1.16
   7   4   4   -0.04    0.35
   8   4   4    0.11    0.43
   9   4   4    1.12    0.57
  -7   5   4   -0.25    0.48
  -6   5   4   -0.44    0.38
   5  -5  -4    1.99    0.67
  -5   5   4    0.02    0.34
   4  -5  -4    6.94    1.06
  -4   5   4    8.10    0.79
  -4   5   4    7.92    1.01
   3  -5  -4    4.94    0.83
  -3   5   4    6.35    0.81
  -3   5   4    5.94    0.60
   2  -5  -4   50.32    3.02
  -2   5   4   55.05    2.48
  -2   5   4   59.08    2.67
  -2   5   4   57.53    2.62
   1  -5  -4    0.52    0.31
  -1   5   4    0.30    0.15
  -1   5   4    0.52    0.17
  -1   5   4    0.17    0.13
   0  -5  -4   17.00    1.23
   0   5   4   17.87    0.98
   0   5   4   18.77    0.93
   0   5   4   17.55    0.89
  -1  -5  -4    5.14    0.60
   1   5   4    5.62    0.42
   1   5   4    5.87    0.38
   1   5   4    5.89    0.46
  -2  -5  -4   21.23    1.36
  -2  -5  -4   22.28    1.03
   2   5   4   20.58    1.10
   2   5   4   19.65    1.12
  -3  -5  -4    0.38    0.27
  -3  -5  -4    0.39    0.15
   3   5   4    0.21    0.13
   3   5   4    0.39    0.21
  -4  -5  -4    0.11    0.16
  -4  -5  -4    0.23    0.21
   4   5   4    0.13    0.20
   4   5   4    0.07    0.14
  -5  -5  -4   -0.17    0.21
  -5  -5  -4   -0.27    0.24
   5   5   4   -0.18    0.17
   5   5   4   -0.12    0.17
  -6  -5  -4   11.56    0.98
   6   5   4   12.07    1.12
   7   5   4    4.45    0.85
   8   5   4    0.20    0.45
   9   5   4   -0.30    0.44
  -7   6   4   -0.05    0.60
  -6   6   4   -0.25    0.44
   5  -6  -4    1.23    0.69
  -5   6   4   -0.24    0.34
   4  -6  -4    5.32    1.02
  -4   6   4    4.52    0.67
  -4   6   4    5.08    0.78
   3  -6  -4   13.63    1.29
  -3   6   4   13.55    1.05
  -3   6   4   13.41    0.94
   2  -6  -4   13.06    1.16
  -2   6   4   12.35    0.83
  -2   6   4   12.59    0.87
   1  -6  -4    3.57    0.75
  -1   6   4    3.69    0.46
  -1   6   4    4.13    0.52
   0  -6  -4    3.47    0.68
   0   6   4    3.04    0.29
   0   6   4    3.75    0.44
  -1  -6  -4  110.41    5.61
   1   6   4  109.80    4.73
   1   6   4  113.20    4.87
   1   6   4  113.29    4.76
  -2  -6  -4    0.10    0.11
  -2  -6  -4   -0.07    0.18
   2   6   4    0.03    0.11
   2   6   4   -0.12    0.11
  -3  -6  -4    0.61    0.31
  -3  -6  -4    1.65    0.28
   3   6   4    1.05    0.26
   3   6   4    1.73    0.36
  -4  -6  -4    0.70    0.21
  -4  -6  -4    0.57    0.29
   4   6   4    0.23    0.24
   4   6   4    0.08    0.15
  -5  -6  -4    3.02    0.57
  -5  -6  -4    4.94    0.60
   5   6   4    5.46    0.63
   5   6   4    3.93    0.68
  -6  -6  -4    0.12    0.30
   6   6   4   -0.15    0.30
   7   6   4    0.19    0.37
   8   6   4    0.30    0.45
   9   6   4    0.48    0.56
  -6   7   4    0.11    0.47
   5  -7  -4    2.58    0.96
  -5   7   4    3.65    0.76
   4  -7  -4    0.23    0.51
  -4   7   4    0.19    0.26
  -4   7   4    0.43    0.35
   3  -7  -4    3.16    0.90
  -3   7   4    3.63    0.58
  -3   7   4    3.01    0.59
   2  -7  -4   44.14    2.79
  -2   7   4   44.46    2.24
  -2   7   4   48.30    2.32
   1  -7  -4   20.09    1.52
  -1   7   4   20.48    1.14
  -1   7   4   18.29    1.12
   0  -7  -4    0.48    0.34
   0   7   4    0.28    0.11
   0   7   4    0.11    0.17
   0   7   4    0.07    0.14
  -1  -7  -4    0.02    0.25
   1   7   4    0.07    0.15
   1   7   4    0.04    0.12
   1   7   4    0.06    0.11
  -2  -7  -4    3.90    0.40
  -2  -7  -4    3.72    0.68
   2   7   4    4.13    0.50
   2   7   4    4.47    0.57
  -3  -7  -4   13.66    1.14
  -3  -7  -4   15.59    0.88
   3   7   4   15.39    0.97
   3   7   4   14.78    1.00
  -4  -7  -4   12.71    0.83
  -4  -7  -4   11.70    1.05
   4   7   4   12.40    0.91
   4   7   4   13.36    1.01
  -5  -7  -4   10.58    0.81
   5   7   4    9.41    0.94
  -6  -7  -4    1.12    0.42
   6   7   4    0.60    0.43
   7   7   4   -0.16    0.38
   8   7   4   -0.20    0.39
   6  -8  -4    0.14    0.90
  -6   8   4    0.27    0.55
   5  -8  -4    0.91    0.79
  -5   8   4    0.09    0.42
   4  -8  -4    6.60    1.18
  -4   8   4    7.23    1.03
   3  -8  -4    1.09    0.55
  -3   8   4    0.29    0.20
  -3   8   4    0.14    0.25
   2  -8  -4   14.25    1.44
  -2   8   4   14.28    1.02
  -2   8   4   14.12    0.96
   1  -8  -4    2.12    0.68
  -1   8   4    1.98    0.38
  -1   8   4    2.82    0.48
   0  -8  -4    4.58    0.93
   0   8   4    4.87    0.60
   0   8   4    5.10    0.51
  -1  -8  -4   23.15    1.66
   1   8   4   20.97    1.13
   1   8   4   21.21    1.18
   1   8   4   19.44    1.25
  -2  -8  -4   -0.07    0.29
   2   8   4    0.01    0.14
   2   8   4    0.04    0.17
  -3  -8  -4    9.82    1.02
  -3  -8  -4    9.57    0.71
   3   8   4    9.66    0.79
   3   8   4   10.27    0.80
  -4  -8  -4    9.49    0.73
  -4  -8  -4    8.68    0.98
   4   8   4   10.07    0.90
  -5  -8  -4    7.84    0.72
   5   8   4    7.19    1.00
   5   8   4    8.49    0.79
   6   8   4    0.41    0.31
   6   8   4    0.53    0.37
   7   8   4   -0.08    0.42
   8   8   4    0.38    0.46
   6  -9  -4   -0.33    0.84
   5  -9  -4    0.08    0.90
  -5   9   4    0.06    0.41
   4  -9  -4   -0.25    0.55
  -4   9   4    1.89    0.64
   3  -9  -4    6.04    1.22
  -3   9   4    7.17    0.90
  -3   9   4    6.78    0.67
   2  -9  -4    0.29    0.52
  -2   9   4    0.54    0.28
  -2   9   4    0.48    0.30
   1  -9  -4    0.18    0.41
  -1   9   4    0.36    0.24
  -1   9   4    0.41    0.26
   0  -9  -4    7.77    1.27
   0   9   4    8.39    0.72
   0   9   4    8.21    0.72
  -1  -9  -4    1.24    0.57
   1   9   4    0.87    0.29
   1   9   4    0.61    0.30
  -2  -9  -4    8.80    1.17
   2   9   4    7.37    0.66
   2   9   4    8.15    0.67
   2   9   4    6.96    0.69
  -3  -9  -4    3.61    0.51
  -3  -9  -4    1.24    0.56
   3   9   4    3.40    0.58
   3   9   4    4.15    0.63
  -4  -9  -4    3.97    0.55
  -4  -9  -4    3.90    0.84
   4   9   4    4.19    0.69
   4   9   4    3.82    0.69
  -5  -9  -4    7.21    0.80
   5   9   4    6.69    0.91
   5   9   4    6.11    0.89
   6   9   4   -0.28    0.28
   6   9   4    0.76    0.41
   7   9   4    0.96    0.49
   8   9   4   -0.28    0.40
   5 -10  -4   -0.74    0.77
   4 -10  -4   -0.13    0.64
  -4  10   4   -0.30    0.42
   3 -10  -4    5.06    1.18
  -3  10   4    6.13    0.91
  -3  10   4    4.90    0.73
   2 -10  -4    4.26    1.17
  -2  10   4    4.43    0.75
  -2  10   4    3.43    0.57
   1 -10  -4   16.97    1.75
  -1  10   4   19.02    1.27
  -1  10   4   18.01    1.21
   0 -10  -4    1.25    0.59
   0  10   4    1.81    0.41
   0  10   4    1.67    0.43
  -1 -10  -4    0.13    0.43
   1  10   4   -0.06    0.22
   1  10   4    0.24    0.27
  -2 -10  -4   15.33    1.56
   2  10   4   15.90    1.16
   2  10   4   18.14    1.13
  -3 -10  -4   16.82    1.54
  -3 -10  -4   15.40    1.09
   3  10   4   17.64    1.15
   3  10   4   15.29    1.16
  -4 -10  -4    9.75    0.82
   4  10   4   11.16    0.98
   4  10   4    9.99    0.96
  -5 -10  -4    9.02    0.78
   5  10   4    4.51    0.81
   5  10   4    8.06    1.03
   6  10   4    0.82    0.44
   6  10   4    1.37    0.51
   7  10   4    1.69    0.59
   8  10   4    0.17    0.40
   4 -11  -4   -0.23    0.74
  -4  11   4   -0.13    0.47
   3 -11  -4    1.58    0.80
   2 -11  -4    0.77    0.86
  -2  11   4    1.45    0.39
  -2  11   4    1.50    0.53
   1 -11  -4   14.06    1.93
  -1  11   4   12.64    1.10
  -1  11   4   12.42    1.04
   0 -11  -4    2.69    0.92
   0  11   4    2.68    0.55
   0  11   4    2.63    0.55
  -1 -11  -4    2.34    0.87
   1  11   4    1.18    0.42
   1  11   4    1.26    0.39
  -2 -11  -4    0.46    0.56
   2  11   4    0.31    0.30
   2  11   4    0.49    0.36
  -3 -11  -4    0.80    0.55
  -3 -11  -4    0.83    0.35
   3  11   4    0.53    0.30
  -4 -11  -4    0.21    0.27
   4  11   4    0.17    0.30
   4  11   4    0.11    0.26
  -5 -11  -4    0.22    0.34
   5  11   4   -0.13    0.29
   5  11   4    0.10    0.37
   6  11   4   -0.16    0.32
   6  11   4    0.37    0.42
   7  11   4   -0.09    0.30
   3 -12  -4   -0.01    0.88
  -3  12   4    1.08    0.56
   2 -12  -4    0.04    0.71
  -2  12   4   -0.04    0.23
  -2  12   4   -0.14    0.36
   1 -12  -4    2.26    0.98
  -1  12   4    2.81    0.67
  -1  12   4    1.35    0.43
   0 -12  -4    0.80    0.66
   0  12   4   -0.28    0.28
   0  12   4    0.37    0.32
  -1 -12  -4   -0.27    0.55
   1  12   4   -0.09    0.26
   1  12   4   -0.36    0.23
  -2 -12  -4    0.88    0.68
   2  12   4    0.77    0.44
   2  12   4    1.55    0.46
  -3 -12  -4    0.55    0.58
   3  12   4   -0.12    0.24
   3  12   4   -0.20    0.24
  -4 -12  -4    0.01    0.30
   4  12   4   -0.09    0.25
   5  12   4    0.16    0.33
   5  12   4    0.20    0.38
   6  12   4    0.31    0.45
   6  12   4    0.30    0.46
   7  12   4    0.52    0.48
   7  12   4    1.25    0.62
   2 -13  -4   -0.15    0.69
  -2  13   4   -0.32    0.43
   1 -13  -4   -0.02    0.65
  -1  13   4    0.22    0.45
  -1  13   4   -0.03    0.27
   0 -13  -4    0.17    0.78
   0  13   4   -0.10    0.28
   0  13   4    0.24    0.41
  -1 -13  -4    0.73    0.70
   1  13   4   -0.03    0.35
   1  13   4    0.65    0.41
  -2 -13  -4   -0.32    0.64
   2  13   4    0.10    0.32
   2  13   4   -0.34    0.31
   3  13   4    1.15    0.44
   3  13   4    1.35    0.45
  -4 -13  -4    0.92    0.42
   4  13   4    0.11    0.32
   5  13   4   -0.05    0.36
   6  13   4    0.15    0.44
   6  13   4   -0.13    0.38
   7  13   4   -0.08    0.43
  -1  14   4    0.40    0.59
  -1  14   4    0.77    0.39
   0 -14  -4    0.29    0.92
   0  14   4    0.39    0.49
   0  14   4    1.02    0.55
  -1 -14  -4    0.38    0.86
   1  14   4    0.13    0.37
   1  14   4    0.26    0.37
  -2 -14  -4    0.51    0.78
   2  14   4    0.49    0.43
   2  14   4   -0.22    0.36
   3  14   4    0.53    0.51
   3  14   4    1.24    0.49
   4  14   4    0.42    0.43
   4  14   4   -0.07    0.33
   5  14   4    2.82    0.72
  -1 -15  -4    0.33    0.99
   1  15   4   -0.09    0.46
   2  15   4    0.22    0.46
   3  15   4    0.49    0.41
   2  12  -5    0.00    0.40
   4  11  -5    3.07    0.87
  -4 -11   5    1.28    0.60
   3  11  -5    0.05    0.34
  -3 -11   5   -0.15    0.36
   2  11  -5    0.94    0.48
  -2 -11   5   -0.35    0.37
   1  11  -5    0.03    0.37
   1  11  -5    0.25    0.53
   0  11  -5   -0.53    0.42
  -1  11  -5    0.01    0.53
   1 -11   5    0.26    0.75
   6  10  -5    1.40    0.72
   5  10  -5   -0.79    0.29
   5  10  -5    0.84    0.53
  -5 -10   5   -0.01    0.46
   4  10  -5   -0.11    0.36
  -4 -10   5    0.36    0.43
   3  10  -5    0.75    0.51
  -3 -10   5    0.46    0.37
   2  10  -5    0.39    0.37
  -2 -10   5    0.26    0.39
   1  10  -5    0.54    0.35
   0  10  -5    0.57    0.41
   0 -10   5    0.48    0.63
  -1  10  -5    0.72    0.54
   1 -10   5    0.21    0.69
  -2  10  -5    0.01    0.53
   2 -10   5   -0.04    0.78
  -3  10  -5    4.59    1.00
   6   9  -5   -0.06    0.48
   6   9  -5    0.23    0.42
  -6  -9   5   -0.24    0.47
   5   9  -5   -0.52    0.33
   5   9  -5    0.00    0.39
  -5  -9   5   -0.22    0.39
   4   9  -5   -0.48    0.33
   4   9  -5    0.69    0.36
  -4  -9   5   -0.07    0.34
   3   9  -5    0.64    0.36
   3   9  -5    0.20    0.41
  -3  -9   5   -0.35    0.32
   2   9  -5    0.31    0.29
  -2  -9   5    0.34    0.32
   1   9  -5    1.70    0.51
  -1  -9   5    1.44    0.46
   0   9  -5    0.56    0.42
   0   9  -5   -0.12    0.27
   0  -9   5    0.37    0.54
  -1   9  -5    0.17    0.44
   1  -9   5   -0.04    0.62
  -2   9  -5   -0.49    0.39
   2  -9   5    0.55    0.71
  -3   9  -5    0.70    0.57
   3  -9   5    0.52    0.82
  -4   9  -5    1.42    0.61
   6   8  -5   -0.12    0.33
   6   8  -5   -0.31    0.44
  -6  -8   5    0.30    0.53
   5   8  -5    0.06    0.49
   5   8  -5    0.49    0.43
  -5  -8   5   -0.13    0.40
   4   8  -5   -0.04    0.35
   4   8  -5    0.66    0.50
  -4  -8   5   -0.02    0.38
   3   8  -5    0.20    0.27
   3   8  -5    0.31    0.28
  -3  -8   5    0.31    0.34
   2   8  -5    4.02    0.75
   2   8  -5    6.44    1.04
  -2  -8   5    4.59    0.68
   1   8  -5    2.08    0.58
  -1  -8   5    3.83    0.67
   0   8  -5    0.76    0.37
   0   8  -5    1.24    0.47
   0  -8   5    0.88    0.54
  -1   8  -5    0.67    0.45
   1  -8   5    1.21    0.69
  -2   8  -5    0.28    0.42
   2  -8   5    0.03    0.60
  -3   8  -5    1.20    0.56
   3  -8   5    0.49    0.70
  -4   8  -5    3.89    0.80
   4  -8   5    4.20    1.33
  -5   8  -5    0.77    0.64
   7   7  -5   -0.37    0.43
  -7  -7   5   -0.19    0.45
   6   7  -5    0.18    0.42
  -6  -7   5   -0.11    0.49
   5   7  -5    1.33    0.57
  -5  -7   5    0.93    0.46
   4   7  -5    0.08    0.32
  -4  -7   5   -0.15    0.36
   3   7  -5   -0.12    0.28
  -3  -7   5    0.25    0.32
   2   7  -5    0.14    0.32
   2   7  -5    0.57    0.34
  -2  -7   5    0.69    0.34
   1   7  -5   71.93    3.47
   1   7  -5   68.69    3.52
  -1  -7   5   70.48    3.38
   0   7  -5    0.18    0.24
   0  -7   5    0.17    0.44
  -1   7  -5    4.75    0.74
   1  -7   5    2.84    0.79
  -2   7  -5    8.93    1.05
   2  -7   5    7.09    1.26
  -3   7  -5    2.37    0.62
   3  -7   5    2.40    1.01
  -4   7  -5    6.06    0.95
   4  -7   5    4.38    1.28
  -5   7  -5    0.53    0.51
   5  -7   5   -0.77    0.91
   7   6  -5    1.25    0.61
  -7  -6   5    1.65    0.60
  -7  -6   5    2.03    0.75
   6   6  -5    0.21    0.46
  -6  -6   5    1.14    0.53
  -6  -6   5    1.26    0.63
   5   6  -5    0.30    0.36
  -5  -6   5    0.28    0.39
  -5  -6   5   -0.03    0.38
   4   6  -5   -0.48    0.22
  -4  -6   5    0.27    0.32
  -4  -6   5   -0.01    0.43
   3   6  -5   -0.08    0.22
  -3  -6   5    0.17    0.29
  -3  -6   5   -0.23    0.30
   2   6  -5    4.37    0.72
  -2  -6   5    4.34    0.62
  -2  -6   5    4.46    0.77
   1   6  -5   13.98    1.07
  -1  -6   5   11.55    1.21
  -1  -6   5   13.81    0.97
   0   6  -5    0.03    0.20
   0  -6   5   -0.27    0.35
   0  -6   5   -0.18    0.17
  -1   6  -5    6.05    0.77
  -1   6  -5    5.72    0.76
   1  -6   5    4.29    0.89
  -2   6  -5    0.25    0.31
   2  -6   5    0.71    0.55
  -3   6  -5    7.77    0.95
   3  -6   5    6.52    1.26
  -4   6  -5    3.60    0.72
   4  -6   5    2.72    1.05
  -5   6  -5    1.03    0.53
   5  -6   5    0.39    0.92
   6  -6   5   -0.75    0.78
  -8  -5   5   -0.11    0.44
   7   5  -5    1.71    0.66
  -7  -5   5    1.61    0.55
  -7  -5   5    1.19    0.61
   6   5  -5    1.18    0.56
  -6  -5   5    2.08    0.60
  -6  -5   5    0.82    0.52
   5   5  -5    1.93    0.67
  -5  -5   5    1.34    0.55
  -5  -5   5    1.29    0.58
   4   5  -5    6.38    1.00
  -4  -5   5    7.37    1.17
  -4  -5   5    7.92    1.01
   3   5  -5    3.56    0.67
  -3  -5   5    5.28    0.71
  -3  -5   5    4.39    0.81
   2   5  -5   -0.11    0.17
  -2  -5   5   -0.21    0.23
  -2  -5   5   -0.03    0.19
   1   5  -5    3.05    0.52
  -1  -5   5    2.81    0.48
  -1  -5   5    2.57    0.60
  -1  -5   5    2.24    0.53
   0  -5   5    0.21    0.21
   0  -5   5    1.02    0.49
   0  -5   5    0.43    0.25
  -1   5  -5   12.24    0.91
  -1   5  -5   11.37    0.86
   1  -5   5   12.41    1.27
   1  -5   5   14.05    0.93
  -2   5  -5   15.87    1.12
   2  -5   5   16.82    1.58
  -3   5  -5    0.75    0.37
   3  -5   5    1.17    0.70
  -4   5  -5    3.70    0.68
   4  -5   5    3.00    1.13
  -5   5  -5    1.09    0.49
   5  -5   5    0.33    0.65
   6  -5   5   -1.56    0.56
   8   4  -5    0.24    0.44
  -8  -4   5    0.27    0.55
   7   4  -5   -0.07    0.36
  -7  -4   5   -0.71    0.37
  -7  -4   5   -0.06    0.44
   6   4  -5    1.16    0.54
  -6  -4   5    0.40    0.42
  -6  -4   5    1.07    0.52
   5   4  -5   -0.23    0.26
  -5  -4   5    0.98    0.50
  -5  -4   5    1.19    0.48
   4   4  -5   17.79    1.47
  -4  -4   5   18.26    1.46
  -4  -4   5   22.29    1.47
   3   4  -5    6.02    0.83
  -3  -4   5    8.08    0.90
  -3  -4   5    6.58    0.92
   2   4  -5    4.28    0.69
  -2  -4   5    4.27    0.69
  -2  -4   5    3.82    0.57
  -1  -4   5    1.00    0.29
  -1  -4   5    0.43    0.32
  -1  -4   5    0.52    0.29
   0  -4   5   17.31    1.03
   0  -4   5   16.94    1.11
   0  -4   5   17.88    1.36
  -1   4  -5   35.64    1.81
   1  -4   5   35.52    1.79
   1  -4   5   34.43    2.28
  -2   4  -5    0.15    0.21
   2  -4   5    0.13    0.34
   2  -4   5    0.14    0.19
  -3   4  -5    3.40    0.57
   3  -4   5    3.08    0.80
  -4   4  -5   11.27    0.94
   4  -4   5    8.88    1.45
  -5   4  -5    0.01    0.40
   5  -4   5   -0.47    0.52
   6  -4   5    0.07    0.71
   7  -4   5    0.49    1.01
   8   3  -5    0.99    0.53
  -8  -3   5    0.48    0.55
   7   3  -5    0.07    0.36
  -7  -3   5    0.12    0.36
  -7  -3   5   -0.05    0.42
   6   3  -5    1.14    0.55
  -6  -3   5    0.30    0.40
  -6  -3   5    1.09    0.51
   5   3  -5    4.92    0.83
  -5  -3   5    6.06    0.85
  -5  -3   5    3.66    0.77
   4   3  -5    2.44    0.60
  -4  -3   5    2.37    0.54
  -4  -3   5    1.04    0.49
   3   3  -5    6.12    0.90
  -3  -3   5    6.58    0.81
  -3  -3   5    4.67    0.81
   2   3  -5    3.57    0.58
  -2  -3   5    2.79    0.58
  -2  -3   5    2.74    0.46
  -1  -3   5    3.40    0.45
  -1  -3   5    2.44    0.47
  -1  -3   5    2.36    0.48
  -1  -3   5    2.97    0.49
   0  -3   5    5.40    0.80
   0  -3   5    5.61    0.54
   0  -3   5    4.01    0.48
   0  -3   5    5.47    0.65
  -1   3  -5    5.17    0.56
   1  -3   5    4.11    0.74
   1  -3   5    4.70    0.46
   1  -3   5    3.23    0.45
  -2   3  -5   65.53    3.04
   2  -3   5   61.56    3.72
   2  -3   5   70.87    3.01
  -3   3  -5    0.36    0.23
   3  -3   5    0.39    0.19
   3  -3   5    0.27    0.35
  -4   3  -5    4.76    0.66
   4  -3   5    3.47    0.89
  -5   3  -5   -0.27    0.31
   5  -3   5    0.76    0.56
   6  -3   5   -0.12    0.58
   7  -3   5   -1.02    0.73
   8  -3   5   -1.07    0.99
   8   2  -5    0.37    0.47
  -8  -2   5   -0.01    0.45
   7   2  -5    0.19    0.39
  -7  -2   5    0.33    0.41
  -7  -2   5   -0.08    0.44
   6   2  -5    0.49    0.48
  -6  -2   5   -0.05    0.42
  -6  -2   5    0.95    0.44
   5   2  -5    3.34    0.73
  -5  -2   5    5.11    0.90
  -5  -2   5    4.69    0.81
   4   2  -5    5.20    0.80
  -4  -2   5    5.59    0.83
  -4  -2   5    7.61    0.92
   3   2  -5   44.87    2.44
  -3  -2   5   44.54    2.44
  -3  -2   5   45.67    2.34
  -2  -2   5    6.48    0.59
  -2  -2   5    7.75    0.77
   1   2  -5    1.71    0.39
  -1  -2   5    1.87    0.30
  -1  -2   5    2.11    0.44
  -1  -2   5    1.93    0.45
   0  -2   5   53.96    2.91
   0  -2   5   49.93    2.41
   0  -2   5   57.02    2.58
   0  -2   5   55.40    2.53
   1  -2   5    2.93    0.43
   1  -2   5    4.10    0.66
   1  -2   5    3.85    0.45
  -2   2  -5    2.93    0.37
   2  -2   5    2.61    0.61
   2  -2   5    2.82    0.39
  -3   2  -5    1.95    0.35
   3  -2   5    1.77    0.30
   3  -2   5    1.89    0.62
  -4   2  -5    1.10    0.36
   4  -2   5    1.52    0.64
   4  -2   5    0.52    0.22
  -5   2  -5   19.29    1.38
   5  -2   5   20.32    1.81
   6  -2   5    0.39    0.64
   7  -2   5   -1.35    0.67
   8   1  -5   -0.38    0.40
  -8  -1   5   -0.29    0.47
   7   1  -5   -0.23    0.33
  -7  -1   5   -0.35    0.37
  -7  -1   5    0.50    0.51
   6   1  -5    1.11    0.54
  -6  -1   5    0.95    0.46
  -6  -1   5    0.77    0.46
   5   1  -5   15.76    1.33
  -5  -1   5   16.03    1.27
  -5  -1   5   15.97    1.30
   4   1  -5    0.20    0.25
  -4  -1   5   -0.08    0.24
  -4  -1   5    0.27    0.27
   3   1  -5    6.08    0.78
  -3  -1   5    6.87    0.87
  -3  -1   5    6.94    0.79
  -2  -1   5   30.68    1.70
  -2  -1   5   30.69    1.73
  -2  -1   5   30.93    1.62
   1   1  -5   13.83    0.90
  -1  -1   5   12.54    0.89
  -1  -1   5   13.53    0.93
   0   1  -5  285.41   13.00
   0  -1   5  272.19   11.42
   0  -1   5  288.68   11.63
   0  -1   5  259.83   11.39
   1  -1   5    5.23    0.69
   1  -1   5    4.37    0.49
   1  -1   5    4.57    0.50
  -2   1  -5    6.94    0.48
   2  -1   5    6.28    0.88
   2  -1   5    5.92    0.48
  -3   1  -5    6.96    0.53
   3  -1   5    5.70    0.48
   3  -1   5    5.88    0.88
  -4   1  -5    0.40    0.26
   4  -1   5    0.30    0.18
   4  -1   5    0.06    0.39
  -5   1  -5   17.88    1.28
   5  -1   5   17.17    1.09
   5  -1   5   18.43    1.67
   6  -1   5   -0.16    0.58
   7  -1   5    0.31    0.70
  -8   0   5    0.29    0.53
   7   0  -5    1.16    0.48
  -7   0   5    0.55    0.52
   6   0  -5    5.87    0.97
  -6   0   5    3.40    0.75
  -6   0   5    4.94    0.88
   5   0  -5   10.55    1.06
  -5   0   5   11.41    1.09
  -5   0   5   12.28    1.10
   4   0  -5    1.47    0.46
  -4   0   5    0.80    0.38
  -4   0   5    0.68    0.30
   3   0  -5    0.04    0.19
  -3   0   5    0.08    0.19
  -3   0   5    0.07    0.21
   2   0  -5   12.74    0.81
  -2   0   5   12.40    0.91
  -2   0   5   12.11    0.89
   1   0  -5    8.74    0.63
  -1   0   5    8.27    0.65
  -1   0   5    7.67    0.55
  -1   0   5    9.27    0.70
   0   0  -5   96.63    4.60
   0   0   5   94.04    4.05
   0   0   5   92.90    4.10
   0   0   5   88.50    3.92
  -1   0  -5   -0.22    0.19
   1   0   5    0.26    0.14
   1   0   5    0.02    0.10
  -2   0  -5    8.46    0.51
   2   0   5    8.13    0.57
   2   0   5    9.02    0.83
  -3   0  -5    1.89    0.32
   3   0   5    1.77    0.29
   3   0   5    2.14    0.53
  -4   0  -5    6.44    0.61
   4   0   5    6.32    1.00
   4   0   5    5.76    0.52
  -5   0  -5    5.62    0.76
   5   0   5    6.92    1.21
   6   0   5    0.03    0.53
   6   0   5    0.24    0.26
   7   0   5    0.36    0.59
  -8   1   5    0.58    0.57
  -7   1   5    0.15    0.46
   6  -1  -5    1.68    0.52
  -6   1   5    1.78    0.56
  -6   1   5    1.71    0.58
   5  -1  -5    9.72    1.15
  -5   1   5    7.10    0.99
  -5   1   5   12.07    1.08
   4  -1  -5    2.04    0.47
  -4   1   5    3.06    0.60
  -4   1   5    2.33    0.54
   3  -1  -5    5.42    0.74
   3  -1  -5    4.23    0.55
  -3   1   5    4.69    0.66
  -3   1   5    4.74    0.65
   2  -1  -5   15.19    0.93
  -2   1   5   13.92    0.97
  -2   1   5   13.87    0.91
  -2   1   5   14.09    0.96
   1  -1  -5    0.63    0.22
  -1   1   5    0.64    0.19
  -1   1   5    0.78    0.19
  -1   1   5    0.30    0.18
   0  -1  -5    0.30    0.18
   0   1   5    0.58    0.19
   0   1   5    0.70    0.18
   0   1   5    0.75    0.13
  -1  -1  -5   69.13    3.79
   1   1   5   81.60    3.29
   1   1   5   73.71    3.25
  -2  -1  -5   -0.07    0.08
  -2  -1  -5    1.06    0.39
   2   1   5   -0.07    0.08
   2   1   5    0.03    0.10
  -3  -1  -5   18.49    0.97
   3   1   5   18.45    1.03
  -4  -1  -5    8.35    0.67
   4   1   5    8.96    0.68
  -5  -1  -5    0.00    0.25
   5   1   5    0.01    0.17
   6   1   5   -0.06    0.26
   7   1   5    1.79    0.54
  -7   2   5    0.34    0.50
  -6   2   5    3.27    0.76
  -6   2   5    1.54    0.60
   5  -2  -5    1.55    0.50
  -5   2   5    1.68    0.49
  -5   2   5    1.47    0.48
   4  -2  -5    0.71    0.33
   4  -2  -5    1.15    0.47
  -4   2   5    1.29    0.42
  -4   2   5    0.78    0.32
   3  -2  -5   15.80    1.03
   3  -2  -5   12.44    0.97
  -3   2   5   13.78    1.01
  -3   2   5   13.46    0.98
   2  -2  -5   15.92    1.06
  -2   2   5   16.73    1.02
  -2   2   5   16.10    1.05
  -2   2   5   16.45    1.01
   1  -2  -5    0.90    0.28
  -1   2   5    1.63    0.33
  -1   2   5    1.25    0.25
  -1   2   5    1.63    0.29
   0  -2  -5   54.69    2.83
   0   2   5   49.68    2.45
   0   2   5   56.80    2.40
   0   2   5   60.33    2.55
  -1  -2  -5   41.89    2.35
   1   2   5   45.47    2.00
  -2  -2  -5    0.46    0.26
   2   2   5    0.83    0.22
   2   2   5    0.72    0.16
  -3  -2  -5  103.44    5.41
  -3  -2  -5  110.61    4.53
   3   2   5  105.91    4.62
  -4  -2  -5   10.91    0.72
  -4  -2  -5   10.96    1.04
   4   2   5    9.68    0.75
  -5  -2  -5   15.05    1.42
  -5  -2  -5   16.99    1.17
   5   2   5   17.64    1.15
  -6  -2  -5    1.10    0.64
   6   2   5    1.43    0.44
  -7  -2  -5    0.18    0.56
   7   2   5    0.45    0.37
   8   2   5    0.00    0.40
  -7   3   5   -0.01    0.43
  -6   3   5   -0.39    0.37
   5  -3  -5    0.37    0.31
  -5   3   5    0.11    0.31
  -5   3   5    0.62    0.42
   4  -3  -5    1.14    0.34
   4  -3  -5    1.26    0.51
  -4   3   5    1.17    0.42
  -4   3   5    0.45    0.35
   3  -3  -5    0.36    0.22
   3  -3  -5    0.51    0.33
  -3   3   5    0.31    0.26
  -3   3   5    0.74    0.31
   2  -3  -5    0.22    0.23
  -2   3   5    0.19    0.14
  -2   3   5    0.18    0.21
  -2   3   5    0.12    0.18
   1  -3  -5    4.41    0.48
  -1   3   5    3.67    0.44
  -1   3   5    4.27    0.40
  -1   3   5    4.42    0.52
   0  -3  -5   -0.07    0.15
   0   3   5    0.14    0.11
   0   3   5   -0.01    0.10
   0   3   5    0.10    0.10
  -1  -3  -5   64.90    3.47
   1   3   5   72.88    3.02
   1   3   5   67.21    2.98
  -2  -3  -5   21.67    1.35
   2   3   5   20.71    1.11
   2   3   5   20.75    1.03
  -3  -3  -5    2.91    0.27
  -3  -3  -5    3.07    0.57
   3   3   5    3.13    0.28
   3   3   5    3.21    0.42
  -4  -3  -5    3.60    0.43
  -4  -3  -5    5.14    0.78
   4   3   5    3.24    0.48
  -5  -3  -5   26.59    1.89
   5   3   5   25.86    1.56
  -6  -3  -5   14.46    1.39
   7   3   5    0.01    0.34
   8   3   5   -0.09    0.44
  -7   4   5   -0.14    0.56
  -6   4   5    0.15    0.44
  -5   4   5    0.38    0.35
  -5   4   5    0.19    0.40
   4  -4  -5    9.42    1.05
  -4   4   5    8.88    1.09
  -4   4   5    8.54    0.88
   3  -4  -5   17.11    1.31
   3  -4  -5   18.06    1.14
  -3   4   5   17.97    1.20
  -3   4   5   19.09    1.24
   2  -4  -5    0.73    0.31
  -2   4   5    1.28    0.34
  -2   4   5    0.99    0.30
  -2   4   5    1.16    0.28
   1  -4  -5   10.45    0.85
  -1   4   5    9.39    0.70
  -1   4   5    9.93    0.66
  -1   4   5   10.36    0.67
   0  -4  -5   33.60    1.94
   0   4   5   33.31    1.56
   0   4   5   34.32    1.65
   0   4   5   34.37    1.58
  -1  -4  -5  167.29    7.86
   1   4   5  164.55    6.79
   1   4   5  153.36    6.72
   1   4   5  169.11    6.89
  -2  -4  -5   16.42    1.16
   2   4   5   18.64    1.00
  -3  -4  -5   29.82    1.31
  -3  -4  -5   26.42    1.73
   3   4   5   28.68    1.39
   3   4   5   28.87    1.50
  -4  -4  -5    1.25    0.40
  -4  -4  -5    1.49    0.27
   4   4   5    1.77    0.38
   4   4   5    1.75    0.28
  -5  -4  -5   26.66    1.91
   5   4   5   29.79    1.68
  -6  -4  -5    0.58    0.53
   6   4   5    0.25    0.30
   7   4   5    0.35    0.36
   8   4   5    0.09    0.40
   9   4   5   -0.30    0.49
  -7   5   5    0.55    0.64
  -6   5   5   -0.16    0.44
   5  -5  -5    3.03    0.92
  -5   5   5    2.02    0.64
  -5   5   5    1.15    0.47
   4  -5  -5    0.40    0.49
  -4   5   5   -0.21    0.28
  -4   5   5    0.29    0.33
   3  -5  -5   23.22    1.68
  -3   5   5   24.44    1.50
  -3   5   5   23.82    1.43
   2  -5  -5   10.04    0.95
  -2   5   5   10.21    0.70
  -2   5   5    9.46    0.77
  -2   5   5   10.67    0.78
   1  -5  -5   10.65    0.93
  -1   5   5   10.93    0.70
  -1   5   5   11.05    0.74
   0  -5  -5   18.46    1.27
   0   5   5   17.46    0.93
   0   5   5   17.85    0.92
   0   5   5   17.95    1.00
  -1  -5  -5  102.87    5.04
   1   5   5  101.51    4.34
   1   5   5   94.39    4.19
   1   5   5  101.93    4.27
  -2  -5  -5   34.78    2.09
   2   5   5   36.77    1.76
   2   5   5   38.50    1.80
  -3  -5  -5   -0.04    0.11
  -3  -5  -5   -0.16    0.19
   3   5   5    0.12    0.13
   3   5   5    0.59    0.20
  -4  -5  -5    9.14    0.61
  -4  -5  -5    9.20    0.85
   4   5   5   10.19    0.80
   4   5   5    9.13    0.64
  -5  -5  -5    0.64    0.32
   5   5   5    3.51    0.58
  -6  -5  -5    3.57    0.73
   6   5   5    4.05    0.71
   7   5   5    9.24    1.13
   8   5   5    0.26    0.42
   9   5   5    0.27    0.51
  -6   6   5    1.05    0.62
   5  -6  -5    0.35    0.64
  -5   6   5    0.22    0.37
   4  -6  -5    1.91    0.63
  -4   6   5    0.28    0.34
  -4   6   5    0.62    0.36
   3  -6  -5    6.60    1.05
  -3   6   5    6.71    0.83
  -3   6   5    7.60    0.91
   2  -6  -5    0.88    0.44
  -2   6   5   -0.11    0.20
  -2   6   5    0.36    0.21
   1  -6  -5    0.00    0.29
  -1   6   5    0.01    0.15
  -1   6   5   -0.01    0.13
  -1   6   5    0.00    0.14
   0  -6  -5   82.70    4.24
   0   6   5   76.44    3.48
   0   6   5   79.21    3.43
   0   6   5   82.37    3.59
  -1  -6  -5    0.59    0.34
   1   6   5    0.47    0.14
   1   6   5    0.55    0.19
   1   6   5    0.58    0.18
  -2  -6  -5    1.04    0.37
   2   6   5    0.95    0.24
   2   6   5    1.24    0.28
  -3  -6  -5    9.71    0.93
  -3  -6  -5   11.38    0.65
   3   6   5   11.97    0.75
   3   6   5    9.77    0.77
  -4  -6  -5    1.86    0.46
  -4  -6  -5    1.69    0.30
   4   6   5    1.86    0.40
   4   6   5    2.77    0.40
  -5  -6  -5    2.37    0.55
   5   6   5    5.24    0.76
   5   6   5    4.67    0.54
   6   6   5    0.66    0.38
   7   6   5   13.19    1.27
   8   6   5    0.20    0.42
   9   6   5   -0.02    0.54
  -6   7   5    0.35    0.58
   5  -7  -5    1.98    0.76
  -5   7   5    0.16    0.47
   4  -7  -5    0.79    0.61
  -4   7   5    0.38    0.37
  -4   7   5    0.05    0.27
   3  -7  -5   -0.65    0.40
  -3   7   5    0.57    0.35
  -3   7   5    0.64    0.30
   2  -7  -5   10.90    1.10
  -2   7   5   11.56    0.86
  -2   7   5   10.60    0.81
   1  -7  -5    2.06    0.58
  -1   7   5    2.62    0.42
  -1   7   5    3.63    0.51
   0  -7  -5   11.62    1.14
   0   7   5   13.94    0.76
   0   7   5   13.55    0.87
  -1  -7  -5   16.84    1.34
   1   7   5   16.95    0.94
   1   7   5   17.53    1.03
   1   7   5   15.96    0.91
  -2  -7  -5    4.62    0.80
   2   7   5    5.89    0.54
   2   7   5    5.64    0.52
   2   7   5    5.60    0.46
  -3  -7  -5    0.00    0.13
  -3  -7  -5    0.23    0.27
   3   7   5   -0.04    0.16
   3   7   5   -0.16    0.16
  -4  -7  -5   43.89    2.13
   4   7   5   44.79    2.32
   4   7   5   45.40    2.21
  -5  -7  -5    8.74    0.95
   5   7   5    9.52    0.91
   5   7   5   11.14    0.82
   6   7   5    2.79    0.70
   7   7   5    0.72    0.45
   8   7   5    1.60    0.58
  -6   8   5    0.20    0.58
   5  -8  -5    1.28    0.69
  -5   8   5   -0.19    0.43
   4  -8  -5    0.31    0.69
  -4   8   5    0.60    0.40
  -4   8   5    0.35    0.28
   3  -8  -5    0.62    0.53
  -3   8   5    1.13    0.34
  -3   8   5    0.76    0.43
   2  -8  -5    0.60    0.49
  -2   8   5    0.77    0.28
  -2   8   5    0.52    0.30
   1  -8  -5   14.95    1.42
  -1   8   5   15.25    0.99
  -1   8   5   15.65    1.00
   0  -8  -5    7.34    1.11
   0   8   5    6.88    0.62
   0   8   5    6.95    0.59
  -1  -8  -5    7.82    1.05
   1   8   5    7.19    0.64
   1   8   5    7.14    0.55
   1   8   5    7.11    0.57
  -2  -8  -5   -0.01    0.28
   2   8   5    0.25    0.18
   2   8   5    0.12    0.19
   2   8   5   -0.15    0.13
  -3  -8  -5    2.69    0.65
  -3  -8  -5    2.92    0.41
   3   8   5    1.88    0.41
   3   8   5    1.99    0.42
  -4  -8  -5   35.32    1.88
   4   8   5   34.01    1.96
   4   8   5   38.88    1.94
  -5  -8  -5    9.11    1.06
   5   8   5   12.60    1.02
   5   8   5   10.50    0.87
   6   8   5    4.53    0.79
   7   8   5   -0.36    0.36
   8   8   5    1.20    0.64
   5  -9  -5    3.61    1.13
  -5   9   5    4.82    1.00
   4  -9  -5    1.09    0.68
  -4   9   5    1.75    0.58
   3  -9  -5   -0.14    0.47
  -3   9   5    0.60    0.30
  -3   9   5    0.36    0.41
   2  -9  -5    0.81    0.51
  -2   9   5   -0.04    0.23
  -2   9   5    0.14    0.21
   1  -9  -5   18.10    1.71
  -1   9   5   21.33    1.26
  -1   9   5   18.62    1.20
   0  -9  -5    1.95    0.70
   0   9   5    1.45    0.37
   0   9   5    1.87    0.42
  -1  -9  -5    4.49    0.92
   1   9   5    2.56    0.49
  -2  -9  -5   15.75    1.44
   2   9   5   15.26    1.08
   2   9   5   15.04    0.99
   2   9   5   15.84    0.98
  -3  -9  -5   -0.21    0.32
  -3  -9  -5   -0.08    0.19
   3   9   5    0.34    0.24
   3   9   5   -0.07    0.20
  -4  -9  -5    6.83    1.10
   4   9   5   10.74    0.91
   5   9   5    0.27    0.26
   5   9   5    1.11    0.46
   6   9   5    5.76    0.89
   6   9   5    5.40    0.79
   7   9   5    0.38    0.39
   8   9   5   -0.67    0.36
   5 -10  -5   -0.24    0.76
   4 -10  -5    1.44    0.71
  -4  10   5    1.23    0.54
   3 -10  -5    0.93    0.65
  -3  10   5   -0.26    0.34
  -3  10   5    0.10    0.22
   2 -10  -5    0.63    0.63
  -2  10   5    0.22    0.22
  -2  10   5    0.12    0.29
   1 -10  -5    3.33    0.94
  -1  10   5    2.83    0.52
  -1  10   5    3.12    0.58
   0 -10  -5   -0.13    0.43
   0  10   5    0.27    0.24
   0  10   5    0.41    0.24
  -1 -10  -5    1.32    0.62
   1  10   5    2.71    0.51
   1  10   5    2.44    0.45
  -2 -10  -5   10.07    1.44
   2  10   5    7.46    0.88
  -3 -10  -5    8.31    1.27
   3  10   5   10.24    0.89
   3  10   5    9.28    0.82
   4  10   5    6.14    0.85
   4  10   5    6.63    0.92
   5  10   5    1.67    0.49
   5  10   5    1.48    0.42
   6  10   5   -0.29    0.24
   6  10   5    0.06    0.30
   7  10   5    0.62    0.44
   8  10   5    0.39    0.47
   4 -11  -5    1.39    0.92
  -4  11   5    1.51    0.69
   3 -11  -5   -0.41    0.61
  -3  11   5    0.38    0.27
  -3  11   5   -0.04    0.36
   2 -11  -5    0.71    0.69
  -2  11   5    0.41    0.38
  -2  11   5    0.11    0.22
   1 -11  -5    1.14    0.78
  -1  11   5    2.38    0.56
  -1  11   5    1.12    0.38
   0 -11  -5    8.89    1.51
   0  11   5    8.50    0.84
   0  11   5    7.15    0.89
  -1 -11  -5   -0.14    0.47
   1  11   5   -0.03    0.21
   1  11   5    0.04    0.24
  -2 -11  -5    9.40    1.48
   2  11   5   10.29    0.96
   2  11   5   10.36    0.87
  -3 -11  -5    0.34    0.48
   3  11   5   -0.01    0.20
   3  11   5   -0.06    0.26
  -4 -11  -5   -0.01    0.37
   4  11   5    0.09    0.26
   4  11   5    0.34    0.28
   5  11   5    3.32    0.69
   5  11   5    1.42    0.51
   6  11   5   -0.11    0.33
   6  11   5   -0.21    0.30
   7  11   5    0.41    0.45
   3 -12  -5    4.33    1.26
  -3  12   5    3.11    0.80
   2 -12  -5   -0.90    0.82
  -2  12   5    0.37    0.27
  -2  12   5    1.12    0.53
   1 -12  -5    0.58    0.69
  -1  12   5    0.48    0.32
  -1  12   5    0.09    0.35
   0 -12  -5    0.08    0.60
   0  12   5   -0.01    0.32
   0  12   5    0.63    0.33
  -1 -12  -5    0.20    0.58
   1  12   5    0.22    0.28
   1  12   5   -0.12    0.24
  -2 -12  -5    1.32    0.81
   2  12   5    2.52    0.60
   2  12   5    3.06    0.59
  -3 -12  -5    0.39    0.54
   3  12   5   -0.17    0.27
   3  12   5    0.37    0.34
   4  12   5    0.71    0.39
   5  12   5    0.77    0.39
   5  12   5    0.60    0.37
   6  12   5    0.66    0.39
   6  12   5    0.90    0.51
   7  12   5    0.53    0.45
   2 -13  -5    0.35    0.89
  -2  13   5    0.02    0.43
  -2  13   5    0.27    0.28
   1 -13  -5   -0.07    0.74
  -1  13   5    0.10    0.40
  -1  13   5    0.00    0.26
   0 -13  -5    0.77    0.71
   0  13   5   -0.04    0.29
   0  13   5   -0.11    0.36
  -1 -13  -5    0.97    0.84
   1  13   5    0.83    0.44
   1  13   5    0.68    0.38
  -2 -13  -5    0.62    0.72
   2  13   5    0.49    0.41
   2  13   5    0.36    0.37
  -3 -13  -5    2.13    0.88
   3  13   5    2.80    0.62
   3  13   5    2.18    0.62
   4  13   5    0.29    0.33
   5  13   5    0.20    0.37
   6  13   5    0.66    0.44
   6  13   5    0.25    0.41
   7  13   5    0.70    0.55
   7  13   5    0.37    0.51
  -1  14   5    0.26    0.29
  -1  14   5    1.59    0.60
   0 -14  -5    0.56    0.87
   0  14   5    0.13    0.43
   0  14   5   -0.01    0.34
  -1 -14  -5    1.06    0.90
   1  14   5    1.00    0.45
   1  14   5    1.13    0.52
  -2 -14  -5    0.45    0.85
   2  14   5    0.34    0.44
   2  14   5    1.41    0.56
   3  14   5    0.14    0.41
   4  14   5    0.44    0.46
   5  14   5    1.40    0.61
  -1 -15  -5   -0.43    0.91
   1  15   5   -0.02    0.41
  -2 -15  -5    2.30    1.08
   2  15   5    2.89    0.74
   3  11  -6    0.46    0.51
   2  11  -6   -0.48    0.28
  -2 -11   6    0.34    0.45
   1  11  -6    1.43    0.63
   0  11  -6    1.74    0.64
   5  10  -6    1.69    0.59
   4  10  -6    0.75    0.41
  -4 -10   6   -0.45    0.43
   3  10  -6    0.65    0.39
  -3 -10   6    0.23    0.40
   2  10  -6    0.20    0.42
  -2 -10   6    0.28    0.42
   1  10  -6    0.21    0.35
   0  10  -6    0.36    0.47
  -1  10  -6    1.10    0.55
   1 -10   6    0.36    0.74
  -2  10  -6   -0.61    0.50
   2 -10   6    0.32    0.85
   5   9  -6    0.90    0.50
   5   9  -6    1.52    0.67
  -5  -9   6    0.24    0.52
   4   9  -6    0.34    0.44
   4   9  -6    1.76    0.64
  -4  -9   6    0.82    0.46
   3   9  -6    0.12    0.38
  -3  -9   6    0.05    0.37
   2   9  -6    0.19    0.35
  -2  -9   6    0.12    0.35
   1   9  -6    0.77    0.41
  -1  -9   6    0.62    0.38
   0   9  -6   -0.18    0.41
  -1   9  -6   -0.40    0.40
   1  -9   6   -0.04    0.65
  -2   9  -6    0.45    0.50
   2  -9   6    0.52    0.77
  -3   9  -6    1.01    0.62
   3  -9   6    0.30    0.87
   6   8  -6   -0.02    0.45
   6   8  -6   -0.27    0.44
  -6  -8   6    0.35    0.52
   5   8  -6    0.22    0.41
  -5  -8   6   -0.08    0.43
   4   8  -6    0.06    0.46
   4   8  -6    0.79    0.47
  -4  -8   6   -0.14    0.39
   3   8  -6   -0.45    0.27
   3   8  -6    0.49    0.39
  -3  -8   6    0.73    0.41
   2   8  -6   11.82    1.17
  -2  -8   6   11.16    1.04
   1   8  -6   -0.15    0.30
  -1  -8   6    0.58    0.36
   0   8  -6    1.76    0.56
   0   8  -6    0.82    0.41
   0  -8   6    0.68    0.62
  -1   8  -6    0.97    0.50
   1  -8   6    0.78    0.66
  -2   8  -6    0.57    0.48
   2  -8   6    0.06    0.61
  -3   8  -6    0.97    0.54
   3  -8   6   -0.25    0.69
   4  -8   6    0.68    0.86
   6   7  -6   -0.37    0.38
  -6  -7   6   -0.12    0.45
  -6  -7   6    0.26    0.39
   5   7  -6    0.33    0.37
  -5  -7   6   -0.03    0.46
  -5  -7   6   -0.08    0.42
   4   7  -6   -0.19    0.28
  -4  -7   6   -0.16    0.33
  -4  -7   6    0.48    0.49
   3   7  -6    3.49    0.77
  -3  -7   6    5.23    0.82
   2   7  -6   -0.32    0.23
  -2  -7   6   -0.50    0.22
   1   7  -6    3.26    0.73
   1   7  -6    3.81    0.70
  -1  -7   6    4.89    0.72
   0   7  -6    1.95    0.51
   0  -7   6    2.03    0.68
  -1   7  -6    1.61    0.48
   1  -7   6    0.62    0.57
  -2   7  -6    0.34    0.39
   2  -7   6   -0.01    0.53
  -3   7  -6    1.09    0.49
   3  -7   6    0.38    0.70
  -4   7  -6    1.64    0.64
   4  -7   6    0.46    0.83
   5  -7   6    0.82    1.20
   7   6  -6    0.84    0.60
  -7  -6   6   -0.08    0.47
  -7  -6   6   -0.31    0.48
   6   6  -6    0.75    0.64
  -6  -6   6   -0.41    0.47
  -6  -6   6    0.52    0.54
   5   6  -6    1.32    0.53
  -5  -6   6    2.11    0.74
  -5  -6   6    2.03    0.65
   4   6  -6    3.40    0.80
  -4  -6   6    1.11    0.57
  -4  -6   6    2.77    0.64
   3   6  -6    2.29    0.62
  -3  -6   6    2.51    0.61
  -3  -6   6    1.33    0.60
   2   6  -6    2.05    0.56
  -2  -6   6    2.65    0.54
  -2  -6   6    2.87    0.68
   1   6  -6   10.50    0.92
  -1  -6   6    5.87    1.07
  -1  -6   6   10.76    0.88
   0   6  -6    0.42    0.29
   0  -6   6    0.16    0.25
   0  -6   6    0.47    0.47
  -1   6  -6    0.71    0.37
   1  -6   6   -0.19    0.45
  -2   6  -6   -0.05    0.32
   2  -6   6    0.68    0.64
  -3   6  -6    2.94    0.65
   3  -6   6    2.87    0.94
  -4   6  -6    0.74    0.49
   4  -6   6   -0.29    0.65
   5  -6   6    0.54    0.96
   7   5  -6    0.32    0.58
  -7  -5   6    0.35    0.53
  -7  -5   6    0.12    0.52
   6   5  -6    0.45    0.58
  -6  -5   6    1.01    0.53
  -6  -5   6    0.52    0.52
   5   5  -6    0.92    0.47
  -5  -5   6    0.33    0.42
  -5  -5   6    0.83    0.56
   4   5  -6    3.28    0.76
  -4  -5   6    3.40    0.89
  -4  -5   6    5.16    0.84
   3   5  -6    1.49    0.55
  -3  -5   6    3.50    0.64
  -3  -5   6    2.40    0.69
   2   5  -6    1.81    0.51
  -2  -5   6    2.90    0.55
  -2  -5   6    1.92    0.58
  -1  -5   6    3.95    0.69
  -1  -5   6    5.71    0.71
  -1  -5   6    3.61    0.73
   0  -5   6    1.23    0.52
   0  -5   6    2.74    0.53
   0  -5   6    3.33    0.51
  -1   5  -6    7.62    0.75
  -1   5  -6    6.94    0.69
   1  -5   6    6.00    0.99
  -2   5  -6   14.10    1.05
   2  -5   6   12.50    1.44
  -3   5  -6   16.97    1.23
   3  -5   6   15.50    1.71
  -4   5  -6    2.18    0.60
   4  -5   6    2.66    0.93
   5  -5   6    0.53    0.84
   6  -5   6   -0.97    0.72
  -8  -4   6   -0.38    0.53
   7   4  -6    0.85    0.53
  -7  -4   6    1.30    0.64
  -7  -4   6    0.46    0.52
   6   4  -6    0.40    0.52
  -6  -4   6   -0.06    0.32
  -6  -4   6    0.11    0.41
   5   4  -6    0.19    0.37
  -5  -4   6   -0.19    0.39
  -5  -4   6   -0.11    0.37
   4   4  -6    0.35    0.35
  -4  -4   6    0.67    0.41
  -4  -4   6    0.49    0.44
   3   4  -6    0.50    0.36
  -3  -4   6    0.73    0.37
  -3  -4   6    1.14    0.50
   2   4  -6    0.21    0.27
  -2  -4   6    0.04    0.25
  -2  -4   6    0.07    0.22
  -1  -4   6   18.73    1.26
  -1  -4   6   18.14    1.25
  -1  -4   6   16.65    1.08
  -1  -4   6   18.12    1.35
   0  -4   6    8.16    1.10
   0  -4   6    7.30    0.86
   0  -4   6    6.77    0.84
   0  -4   6    8.09    0.65
  -1   4  -6   13.03    0.88
   1  -4   6   10.77    1.19
   1  -4   6   11.61    0.88
  -2   4  -6    7.32    0.70
   2  -4   6    7.98    1.16
  -3   4  -6    1.90    0.46
   3  -4   6    1.87    0.68
  -4   4  -6    8.37    1.01
   4  -4   6    8.84    1.48
   5  -4   6    7.82    1.46
   6  -4   6    0.62    0.79
   7  -4   6    0.11    1.03
   7   3  -6    0.36    0.51
  -7  -3   6    0.38    0.49
  -7  -3   6    0.28    0.44
   6   3  -6    0.48    0.46
  -6  -3   6    0.61    0.44
  -6  -3   6    1.18    0.54
   5   3  -6    3.78    0.81
  -5  -3   6    3.40    0.66
  -5  -3   6    2.57    0.62
   4   3  -6    6.84    1.01
  -4  -3   6    8.72    1.03
  -4  -3   6    8.59    1.19
   3   3  -6   -0.29    0.23
  -3  -3   6   -0.15    0.22
  -3  -3   6   -0.19    0.22
  -2  -3   6    1.40    0.47
  -2  -3   6    0.98    0.30
  -1  -3   6   44.38    2.34
  -1  -3   6   42.88    2.29
  -1  -3   6   42.60    2.11
   0  -3   6   17.39    1.31
   0  -3   6   15.37    1.07
   0  -3   6   16.11    1.10
  -1   3  -6   -0.02    0.18
   1  -3   6   -0.27    0.17
   1  -3   6   -0.16    0.28
   1  -3   6    0.03    0.16
  -2   3  -6    0.19    0.19
   2  -3   6    0.10    0.20
   2  -3   6   -0.09    0.30
  -3   3  -6    3.19    0.52
   3  -3   6    3.08    0.79
  -4   3  -6    0.03    0.25
   4  -3   6    0.01    0.55
   5  -3   6    0.41    0.70
   6  -3   6   -0.40    0.65
   7  -3   6   -1.36    0.86
   8   2  -6   -0.25    0.53
   7   2  -6    0.50    0.51
  -7  -2   6    0.09    0.48
  -7  -2   6    0.48    0.46
   6   2  -6    4.05    0.87
  -6  -2   6    3.55    0.84
  -6  -2   6    2.12    0.64
   5   2  -6    9.19    1.28
  -5  -2   6   13.23    1.21
  -5  -2   6   11.31    1.15
   4   2  -6    4.89    0.89
  -4  -2   6    3.21    0.72
  -4  -2   6    5.08    0.80
   3   2  -6    4.19    0.74
  -3  -2   6    3.79    0.62
  -3  -2   6    4.10    0.79
  -2  -2   6    0.55    0.32
  -2  -2   6    0.12    0.21
  -2  -2   6    0.61    0.26
   1   2  -6   29.63    1.75
  -1  -2   6   28.87    1.69
  -1  -2   6   30.94    1.75
   0  -2   6   49.35    2.37
   0  -2   6   45.52    2.20
   0  -2   6   49.19    2.40
   1  -2   6    2.41    0.57
   1  -2   6    3.13    0.47
   1  -2   6    2.32    0.41
  -2   2  -6    0.53    0.21
   2  -2   6    0.35    0.36
   2  -2   6    0.47    0.21
  -3   2  -6    2.97    0.44
   3  -2   6    2.29    0.40
   3  -2   6    2.67    0.71
   4  -2   6    0.34    0.56
   4  -2   6    1.18    0.34
   5  -2   6    2.44    0.84
   6  -2   6    5.77    1.20
   7  -2   6   -1.76    0.73
   8  -2   6   -0.77    0.88
   8   1  -6   -0.03    0.55
   7   1  -6   -0.04    0.39
  -7  -1   6    0.31    0.50
  -7  -1   6   -0.19    0.39
   6   1  -6    3.03    0.76
  -6  -1   6    2.00    0.60
  -6  -1   6    1.85    0.66
   5   1  -6    0.38    0.37
  -5  -1   6    0.57    0.38
  -5  -1   6    0.21    0.38
   4   1  -6   53.07    2.96
  -4  -1   6   47.88    2.86
  -4  -1   6   58.48    2.86
   3   1  -6   16.35    1.22
  -3  -1   6   12.85    1.16
  -3  -1   6   14.61    1.09
   2   1  -6    4.02    0.50
  -2  -1   6    2.99    0.56
  -2  -1   6    4.46    0.57
  -2  -1   6    3.07    0.61
   1   1  -6    2.25    0.43
  -1  -1   6    1.73    0.32
  -1  -1   6    2.43    0.50
  -1  -1   6    2.45    0.45
   0   1  -6    6.43    0.71
   0  -1   6    6.28    0.47
   0  -1   6    5.58    0.57
   0  -1   6    6.78    0.65
   1  -1   6    1.57    0.33
   1  -1   6    0.84    0.26
  -2   1  -6    9.73    0.61
   2  -1   6    8.86    0.62
   2  -1   6    8.96    0.95
   2  -1   6   10.30    0.69
  -3   1  -6    0.93    0.25
   3  -1   6    0.98    0.47
   4  -1   6    7.40    0.62
   4  -1   6    7.93    1.18
   5  -1   6    4.65    0.61
   5  -1   6    5.52    1.03
   6  -1   6    8.11    1.50
   7  -1   6    1.24    0.89
   7   0  -6    0.19    0.38
  -7   0   6   -0.06    0.38
  -7   0   6    0.54    0.52
   6   0  -6    2.38    0.67
  -6   0   6    0.71    0.44
  -6   0   6    1.62    0.65
   5   0  -6    0.07    0.35
  -5   0   6    0.29    0.33
  -5   0   6    0.38    0.35
   4   0  -6    3.87    0.73
  -4   0   6    3.30    0.61
  -4   0   6    4.05    0.78
  -3   0   6   18.21    1.21
  -3   0   6   16.12    1.25
   2   0  -6   12.31    0.83
  -2   0   6   11.55    0.85
  -2   0   6   13.01    0.97
  -2   0   6   11.33    0.93
   1   0  -6   19.03    1.20
  -1   0   6   20.50    1.23
  -1   0   6   19.31    1.05
  -1   0   6   19.37    1.20
   0   0  -6   16.30    1.15
   0   0   6   16.75    1.02
   0   0   6   16.34    0.84
   0   0   6   15.17    0.99
  -1   0  -6   56.95    3.27
   1   0   6   65.60    2.83
   1   0   6   61.51    2.81
  -2   0  -6   10.10    0.56
   2   0   6    8.00    0.62
  -3   0  -6    4.36    0.42
   3   0   6    5.74    0.88
   3   0   6    4.79    0.54
   4   0   6    3.45    0.47
   4   0   6    3.99    0.79
   5   0   6    0.58    0.25
   5   0   6    0.81    0.44
   6   0   6    1.73    0.45
   6   0   6    2.25    0.80
   7  -1  -6   -0.09    0.40
  -7   1   6    0.11    0.48
   6  -1  -6    5.40    0.96
  -6   1   6    2.24    0.62
  -6   1   6    3.48    0.81
   5  -1  -6    0.15    0.30
  -5   1   6    0.30    0.35
  -5   1   6    0.27    0.37
   4  -1  -6   -0.18    0.23
  -4   1   6    0.28    0.30
  -4   1   6    0.01    0.26
   3  -1  -6   24.21    1.48
  -3   1   6   23.20    1.54
  -3   1   6   26.21    1.50
   2  -1  -6    3.43    0.51
  -2   1   6    3.05    0.53
  -2   1   6    2.83    0.51
   1  -1  -6    0.65    0.29
  -1   1   6    0.86    0.21
  -1   1   6    0.49    0.21
  -1   1   6    0.33    0.24
   0  -1  -6   80.01    3.87
   0   1   6   72.41    3.40
   0   1   6   76.08    3.45
  -1  -1  -6    1.08    0.39
   1   1   6    0.82    0.23
   1   1   6    1.09    0.26
  -2  -1  -6    1.68    0.47
  -2  -1  -6    1.86    0.20
   2   1   6    2.98    0.36
   2   1   6    1.70    0.31
  -3  -1  -6   10.09    1.01
   3   1   6    8.52    0.65
   4   1   6    0.02    0.16
   5   1   6   -0.14    0.16
   6   1   6    0.71    0.34
  -7  -1  -6   -0.43    0.57
   7   1   6    0.49    0.41
  -7   2   6    0.48    0.48
   6  -2  -6    0.68    0.45
  -6   2   6    0.33    0.46
  -6   2   6   -0.32    0.32
   5  -2  -6    0.21    0.32
  -5   2   6    0.38    0.37
  -5   2   6    0.78    0.40
   4  -2  -6   -0.11    0.24
  -4   2   6    0.16    0.30
  -4   2   6    0.42    0.31
   3  -2  -6    0.25    0.27
  -3   2   6   -0.16    0.19
  -3   2   6    0.17    0.24
   2  -2  -6   36.97    1.95
  -2   2   6   31.51    1.84
  -2   2   6   33.84    1.84
   1  -2  -6   17.92    1.10
  -1   2   6   13.88    0.99
  -1   2   6   15.34    0.98
  -1   2   6   16.35    0.94
   0  -2  -6    0.70    0.28
   0   2   6    0.54    0.21
   0   2   6    0.43    0.20
   0   2   6    0.20    0.10
  -1  -2  -6  152.21    7.78
   1   2   6  170.06    6.77
  -2  -2  -6   31.36    1.95
   2   2   6   30.87    1.56
   2   2   6   32.96    1.52
  -3  -2  -6    4.21    0.77
   3   2   6    3.72    0.48
  -4  -2  -6    1.06    0.46
   4   2   6    0.50    0.23
  -5  -2  -6    0.38    0.37
   5   2   6   -0.16    0.17
  -6  -2  -6   -0.07    0.46
   6   2   6    0.14    0.25
  -7  -2  -6    0.47    0.56
   7   2   6    0.32    0.35
  -7   3   6   -0.10    0.51
  -6   3   6    0.65    0.49
  -6   3   6    1.10    0.52
   5  -3  -6   -0.02    0.27
  -5   3   6    0.15    0.34
  -5   3   6   -0.06    0.39
  -4   3   6    7.81    0.99
  -4   3   6    7.27    0.96
   3  -3  -6    0.98    0.43
  -3   3   6    1.01    0.37
  -3   3   6    1.40    0.38
   2  -3  -6   16.99    1.17
  -2   3   6   14.98    1.10
  -2   3   6   17.01    1.08
   1  -3  -6    7.59    0.71
  -1   3   6    7.74    0.60
  -1   3   6    7.88    0.58
  -1   3   6    6.70    0.62
   0  -3  -6    2.09    0.44
   0   3   6    2.17    0.35
   0   3   6    2.60    0.31
   0   3   6    2.42    0.41
  -1  -3  -6    2.43    0.52
   1   3   6    3.40    0.42
   1   3   6    3.49    0.41
  -2  -3  -6    8.15    0.81
   2   3   6    9.95    0.66
   2   3   6    9.80    0.61
  -3  -3  -6    1.65    0.47
   3   3   6    2.15    0.38
   3   3   6    2.48    0.31
  -4  -3  -6   -0.10    0.31
   4   3   6   -0.02    0.13
  -5  -3  -6    0.08    0.36
   5   3   6   -0.04    0.19
  -6  -3  -6   -0.09    0.45
   6   3   6   -0.24    0.24
  -7  -3  -6    0.73    0.64
   7   3   6    0.06    0.29
   8   3   6    0.08    0.43
  -7   4   6    0.34    0.51
  -6   4   6    0.41    0.53
  -5   4   6    2.47    0.67
  -5   4   6    1.54    0.55
   4  -4  -6    0.64    0.38
   4  -4  -6    0.90    0.50
  -4   4   6    0.67    0.39
  -4   4   6    0.45    0.33
   3  -4  -6    0.36    0.38
  -3   4   6    0.11    0.23
  -3   4   6   -0.07    0.21
   2  -4  -6    3.02    0.60
  -2   4   6    3.66    0.52
  -2   4   6    2.91    0.50
  -2   4   6    4.41    0.60
   1  -4  -6    3.37    0.57
  -1   4   6    4.14    0.50
  -1   4   6    4.52    0.52
  -1   4   6    3.83    0.55
   0  -4  -6    4.35    0.70
   0   4   6    4.10    0.47
   0   4   6    4.62    0.54
   0   4   6    4.20    0.37
  -1  -4  -6    5.49    0.76
   1   4   6    5.09    0.44
   1   4   6    5.25    0.44
  -2  -4  -6    1.63    0.45
   2   4   6    1.21    0.26
  -3  -4  -6    0.06    0.22
   3   4   6   -0.04    0.10
   3   4   6    0.18    0.17
  -4  -4  -6    8.70    0.94
   4   4   6    8.51    0.71
  -5  -4  -6    1.06    0.50
   5   4   6    0.53    0.28
  -6  -4  -6    0.68    0.54
   6   4   6    1.06    0.38
   7   4   6    0.04    0.30
   8   4   6    0.08    0.41
   9   4   6    0.45    0.59
  -7   5   6   -0.34    0.64
  -6   5   6    0.09    0.49
  -5   5   6    0.24    0.49
  -5   5   6    0.88    0.45
   4  -5  -6    0.37    0.46
  -4   5   6   -0.01    0.31
  -4   5   6   -0.06    0.28
   3  -5  -6    0.30    0.36
  -3   5   6    0.85    0.37
  -3   5   6    0.31    0.29
   2  -5  -6    0.45    0.37
  -2   5   6    0.58    0.27
  -2   5   6    1.05    0.34
  -2   5   6    1.16    0.30
   1  -5  -6   28.41    1.81
  -1   5   6   28.61    1.48
  -1   5   6   27.57    1.54
  -1   5   6   29.04    1.48
   0  -5  -6   19.95    1.30
   0   5   6   17.86    1.03
   0   5   6   17.55    0.96
   0   5   6   15.77    0.92
  -1  -5  -6   27.22    1.69
   1   5   6   23.66    1.18
   1   5   6   28.21    1.37
   1   5   6   27.29    1.33
  -2  -5  -6    9.69    0.87
   2   5   6    9.27    0.63
   2   5   6    9.87    0.68
  -3  -5  -6    8.43    0.82
   3   5   6    8.08    0.67
   3   5   6    8.73    0.59
  -4  -5  -6    0.13    0.27
   4   5   6    0.14    0.16
   4   5   6    0.07    0.18
  -5  -5  -6    2.54    0.60
   5   5   6    2.30    0.49
   6   5   6    5.02    0.82
   7   5   6    1.06    0.52
   8   5   6    0.29    0.47
   9   5   6   -0.31    0.50
  -6   6   6    0.09    0.51
  -5   6   6    0.13    0.43
  -5   6   6    0.57    0.37
   4  -6  -6    5.13    1.06
  -4   6   6    7.57    1.03
  -4   6   6    8.27    1.07
   3  -6  -6    1.68    0.58
  -3   6   6    0.25    0.24
  -3   6   6    0.66    0.36
   2  -6  -6    0.14    0.31
  -2   6   6    0.02    0.22
  -2   6   6    0.05    0.17
  -2   6   6   -0.06    0.19
   1  -6  -6    8.53    0.92
  -1   6   6    8.01    0.68
  -1   6   6    8.17    0.66
  -1   6   6    9.11    0.66
   0  -6  -6    2.24    0.56
   0   6   6    3.33    0.41
   0   6   6    3.36    0.47
   0   6   6    3.69    0.42
  -1  -6  -6   -0.08    0.24
   1   6   6    0.04    0.10
   1   6   6    0.04    0.12
   1   6   6    0.22    0.16
  -2  -6  -6    2.12    0.50
   2   6   6    1.82    0.37
   2   6   6    2.95    0.43
  -3  -6  -6   -0.02    0.22
   3   6   6    0.12    0.17
   3   6   6   -0.04    0.13
  -4  -6  -6    0.48    0.36
   4   6   6    0.40    0.21
   4   6   6    0.50    0.26
  -5  -6  -6    0.11    0.30
   5   6   6   -0.26    0.23
  -6  -6  -6    1.78    0.58
   6   6   6    2.13    0.52
   7   6   6    2.20    0.58
   8   6   6    0.09    0.42
  -6   7   6    1.20    0.62
   5  -7  -6    0.84    0.78
  -5   7   6    0.18    0.46
   4  -7  -6    0.56    0.55
  -4   7   6   -0.33    0.36
  -4   7   6    0.01    0.29
   3  -7  -6    8.43    1.35
  -3   7   6   10.85    0.92
  -3   7   6   11.77    1.02
   2  -7  -6    3.72    0.80
  -2   7   6    5.74    0.76
  -2   7   6    4.48    0.65
   1  -7  -6    0.73    0.46
  -1   7   6    1.05    0.26
  -1   7   6    1.57    0.37
   0  -7  -6    5.57    1.01
   0   7   6    4.39    0.44
   0   7   6    4.80    0.42
   0   7   6    4.81    0.57
  -1  -7  -6   16.67    1.38
   1   7   6   18.25    1.01
   1   7   6   17.70    0.95
   1   7   6   17.94    1.06
  -2  -7  -6    9.26    0.98
   2   7   6   10.93    0.74
   2   7   6   10.09    0.73
  -3  -7  -6    1.63    0.49
   3   7   6    2.44    0.47
   3   7   6    3.20    0.47
  -4  -7  -6   22.02    1.60
   4   7   6   22.52    1.40
  -5  -7  -6    1.54    0.50
   5   7   6    1.85    0.50
   5   7   6    2.11    0.44
   6   7   6    1.21    0.43
   7   7   6    2.16    0.62
   8   7   6   -0.23    0.43
   5  -8  -6    0.12    0.67
  -5   8   6    0.41    0.49
   4  -8  -6    1.59    0.77
  -4   8   6    0.98    0.39
  -4   8   6    0.75    0.49
   3  -8  -6   -0.67    0.46
  -3   8   6    0.52    0.31
  -3   8   6    0.64    0.39
   2  -8  -6    3.84    0.82
  -2   8   6    3.38    0.58
  -2   8   6    3.02    0.50
   1  -8  -6    8.27    1.22
  -1   8   6    8.89    0.74
  -1   8   6    8.86    0.71
   0  -8  -6    0.18    0.41
   0   8   6    0.39    0.17
   0   8   6    0.51    0.25
   0   8   6    0.42    0.20
  -1  -8  -6   34.01    2.28
   1   8   6   34.03    1.66
   1   8   6   33.07    1.76
   1   8   6   33.78    1.67
  -2  -8  -6    3.25    0.72
   2   8   6    3.85    0.48
   2   8   6    3.73    0.53
   2   8   6    3.55    0.51
  -3  -8  -6    0.34    0.34
   3   8   6    0.13    0.19
   3   8   6   -0.33    0.14
  -4  -8  -6   11.02    1.14
   4   8   6   12.33    0.92
   4   8   6   12.86    0.98
  -5  -8  -6    0.09    0.30
   5   8   6    1.58    0.48
   5   8   6    0.70    0.30
   6   8   6    2.92    0.68
   7   8   6    2.09    0.64
   8   8   6    0.20    0.39
   5  -9  -6    2.82    0.91
  -5   9   6   -0.32    0.46
   4  -9  -6    2.22    0.87
  -4   9   6    2.38    0.64
  -4   9   6    2.06    0.59
   3  -9  -6    2.22    0.83
  -3   9   6    2.74    0.55
  -3   9   6    2.44    0.63
   2  -9  -6   -0.42    0.40
  -2   9   6   -0.11    0.23
  -2   9   6   -0.27    0.14
   1  -9  -6    1.31    0.67
  -1   9   6    1.20    0.33
  -1   9   6    1.86    0.41
   0  -9  -6    0.62    0.47
   0   9   6    0.72    0.31
   0   9   6   -0.05    0.15
  -1  -9  -6    4.47    0.99
   1   9   6    4.62    0.53
   1   9   6    4.49    0.57
   1   9   6    4.59    0.63
  -2  -9  -6   20.81    1.70
   2   9   6   20.05    1.25
   2   9   6   18.92    1.18
  -3  -9  -6    0.11    0.33
   3   9   6    0.05    0.22
   3   9   6    0.47    0.23
  -4  -9  -6    2.66    0.69
   4   9   6    3.18    0.61
   4   9   6    2.94    0.55
  -5  -9  -6   -0.06    0.35
   5   9   6    0.76    0.35
   5   9   6    1.06    0.39
   6   9   6    3.49    0.76
   7   9   6    2.63    0.66
   8   9   6    1.28    0.67
   5 -10  -6    1.05    0.91
   4 -10  -6    0.49    0.81
  -4  10   6    0.01    0.44
   3 -10  -6    3.54    1.00
  -3  10   6    2.52    0.56
  -3  10   6    3.95    0.80
   2 -10  -6    0.56    0.59
  -2  10   6   -0.03    0.27
  -2  10   6    0.30    0.26
   1 -10  -6    2.71    0.98
  -1  10   6    2.28    0.49
  -1  10   6    2.01    0.48
   0 -10  -6   -0.31    0.41
   0  10   6   -0.04    0.21
   0  10   6    0.00    0.18
  -1 -10  -6    0.10    0.45
   1  10   6    0.47    0.26
   1  10   6    0.43    0.30
  -2 -10  -6   28.76    2.26
   2  10   6   30.99    1.67
   2  10   6   32.70    1.82
  -3 -10  -6    0.69    0.48
   3  10   6    0.88    0.29
   3  10   6    1.00    0.38
  -4 -10  -6    0.60    0.50
   4  10   6    1.05    0.40
   4  10   6    0.75    0.34
   5  10   6    2.31    0.55
   5  10   6    1.86    0.57
   6  10   6   -0.01    0.29
   6  10   6    0.32    0.33
   7  10   6    0.58    0.42
   4 -11  -6    0.81    0.79
  -4  11   6    0.87    0.63
   3 -11  -6    0.14    0.56
  -3  11   6   -0.34    0.23
  -3  11   6   -0.47    0.35
   2 -11  -6    0.61    0.70
  -2  11   6    0.59    0.29
  -2  11   6    0.89    0.45
   1 -11  -6    0.43    0.60
  -1  11   6   -0.09    0.28
  -1  11   6    0.11    0.20
   0 -11  -6    2.34    0.84
   0  11   6    2.05    0.44
   0  11   6    3.26    0.57
  -1 -11  -6    0.69    0.64
   1  11   6    0.09    0.22
   1  11   6    0.54    0.36
  -2 -11  -6    0.00    0.51
   2  11   6    0.32    0.26
  -3 -11  -6    1.89    0.72
   3  11   6    2.74    0.60
   3  11   6    1.44    0.41
  -4 -11  -6    3.27    0.88
   4  11   6    6.16    0.90
   4  11   6    4.76    0.73
   5  11   6    1.54    0.50
   5  11   6    1.44    0.49
   6  11   6    1.67    0.52
   6  11   6    0.25    0.33
   7  11   6    0.05    0.28
   3 -12  -6   -0.61    0.71
  -3  12   6   -0.32    0.48
   2 -12  -6    1.98    0.97
  -2  12   6    0.40    0.44
  -2  12   6    0.12    0.26
   1 -12  -6    0.73    0.84
  -1  12   6    0.74    0.44
  -1  12   6    0.43    0.31
   0 -12  -6   -0.38    0.54
   0  12   6    0.21    0.31
   0  12   6    0.49    0.27
  -1 -12  -6    0.45    0.61
   1  12   6    0.04    0.28
   1  12   6   -0.07    0.27
  -2 -12  -6    0.39    0.68
   2  12   6    0.35    0.27
  -3 -12  -6    6.48    1.35
   3  12   6    6.27    0.95
  -4 -12  -6    2.53    0.83
   4  12   6    2.51    0.65
   4  12   6    1.21    0.45
   5  12   6    0.88    0.43
   5  12   6    0.60    0.43
   6  12   6    0.79    0.47
   6  12   6    0.29    0.32
   7  12   6   -0.18    0.37
   2 -13  -6   -1.44    0.95
  -2  13   6    0.16    0.30
  -2  13   6    0.72    0.52
   1 -13  -6    0.15    0.76
  -1  13   6   -0.32    0.20
  -1  13   6   -0.20    0.40
   0 -13  -6    0.05    0.67
   0  13   6    1.06    0.50
   0  13   6    0.14    0.25
  -1 -13  -6    1.12    0.74
   1  13   6    0.20    0.33
   1  13   6    0.41    0.36
  -2 -13  -6    1.56    0.86
   2  13   6    1.13    0.48
  -3 -13  -6    0.77    0.72
   3  13   6    1.22    0.55
   4  13   6    0.55    0.42
   5  13   6   -0.44    0.35
   6  13   6   -0.07    0.41
   6  13   6    0.68    0.40
  -1  14   6    0.03    0.31
  -1  14   6    0.03    0.54
   0 -14  -6    0.62    0.80
   0  14   6    0.47    0.30
   0  14   6    0.17    0.48
  -1 -14  -6    0.31    0.80
   1  14   6    0.19    0.34
  -2 -14  -6    0.85    0.90
   2  14   6    2.03    0.69
  -3 -14  -6    0.15    0.73
   3  14   6   -0.54    0.34
   4  14   6   -0.14    0.35
   5  14   6    1.05    0.62
  -2 -15  -6   -0.43    0.85
   3  10  -7   -0.76    0.31
  -3 -10   7    0.35    0.45
   2  10  -7    1.25    0.55
  -2 -10   7    0.36    0.46
   1  10  -7   -0.72    0.41
   0  10  -7    0.12    0.47
  -1  10  -7   -0.04    0.49
   5   9  -7    1.38    0.61
   4   9  -7    0.51    0.37
   4   9  -7   -1.06    0.30
  -4  -9   7    0.47    0.47
   3   9  -7    0.10    0.42
  -3  -9   7   -0.36    0.40
   2   9  -7   -0.43    0.30
  -2  -9   7    0.36    0.39
   1   9  -7    0.42    0.33
   0   9  -7   -0.61    0.37
  -1   9  -7    0.17    0.43
   1  -9   7   -0.52    0.66
  -2   9  -7   -0.35    0.51
   2  -9   7   -0.24    0.73
   5   8  -7    0.83    0.66
  -5  -8   7    1.63    0.72
   4   8  -7    0.38    0.46
  -4  -8   7    0.22    0.47
   3   8  -7    0.08    0.35
   3   8  -7    0.34    0.44
  -3  -8   7   -0.05    0.36
   2   8  -7    0.69    0.43
  -2  -8   7    0.51    0.40
   1   8  -7    4.03    0.79
  -1  -8   7    4.33    0.74
   0   8  -7   -0.20    0.38
  -1   8  -7    0.87    0.40
   1  -8   7    0.03    0.64
  -2   8  -7    2.94    0.69
   2  -8   7    1.26    0.84
   3  -8   7   -0.16    0.70
   6   7  -7    0.77    0.61
  -6  -7   7    0.26    0.55
  -6  -7   7    1.65    0.70
   5   7  -7    0.09    0.40
  -5  -7   7   -0.53    0.48
  -5  -7   7    0.31    0.51
   4   7  -7    0.34    0.47
  -4  -7   7    0.62    0.53
  -4  -7   7    0.22    0.44
   3   7  -7   -0.14    0.35
  -3  -7   7    0.08    0.38
   2   7  -7    2.82    0.64
  -2  -7   7    1.42    0.51
   1   7  -7    0.78    0.44
  -1  -7   7    0.48    0.34
   0  -7   7    0.03    0.60
  -1   7  -7    0.80    0.41
   1  -7   7    0.42    0.66
  -2   7  -7    1.19    0.49
   2  -7   7    0.86    0.77
   3  -7   7    1.76    0.90
   4  -7   7    2.12    1.06
   6   6  -7   -0.51    0.42
  -6  -6   7    0.42    0.54
  -6  -6   7   -0.20    0.40
   5   6  -7    0.06    0.37
  -5  -6   7    0.44    0.59
  -5  -6   7    1.03    0.56
   4   6  -7    0.09    0.35
  -4  -6   7   -0.12    0.39
  -4  -6   7   -0.21    0.46
   3   6  -7   -0.25    0.32
  -3  -6   7    0.50    0.49
  -3  -6   7    0.22    0.37
   2   6  -7   -0.02    0.31
  -2  -6   7    0.31    0.40
  -2  -6   7    0.11    0.32
   1   6  -7   -0.08    0.29
  -1  -6   7    0.21    0.30
   0   6  -7    0.30    0.32
   0  -6   7    0.25    0.29
   0  -6   7    0.33    0.53
  -1   6  -7    2.74    0.56
   1  -6   7    2.67    0.77
  -2   6  -7    2.45    0.58
   2  -6   7    2.48    0.87
   3  -6   7    0.18    0.68
   4  -6   7    3.85    1.15
   5  -6   7    0.33    1.03
  -7  -5   7   -0.70    0.43
   6   5  -7    0.01    0.50
  -6  -5   7    0.30    0.52
  -6  -5   7   -0.26    0.35
   5   5  -7   -0.28    0.37
  -5  -5   7   -0.47    0.46
  -5  -5   7   -0.54    0.34
   4   5  -7    0.34    0.34
  -4  -5   7    0.68    0.47
  -4  -5   7    0.48    0.41
   3   5  -7    4.09    0.83
  -3  -5   7    5.40    0.81
  -3  -5   7    5.34    0.96
   2   5  -7    0.05    0.29
  -2  -5   7   -0.45    0.37
  -2  -5   7    0.19    0.27
  -1  -5   7    5.70    0.93
  -1  -5   7    5.38    0.73
   0  -5   7    2.49    0.49
   0  -5   7    2.25    0.52
   0  -5   7    0.78    0.50
   0  -5   7    0.45    0.37
  -1   5  -7    0.48    0.29
   1  -5   7    0.46    0.53
  -2   5  -7    9.29    1.03
   2  -5   7    7.64    1.31
   3  -5   7    3.85    1.02
   4  -5   7    0.38    0.71
   5  -5   7   -1.52    0.77
   7   4  -7    0.18    0.52
  -7  -4   7   -0.24    0.43
  -7  -4   7    0.11    0.49
   6   4  -7    0.21    0.51
  -6  -4   7    0.56    0.44
  -6  -4   7    0.31    0.48
   5   4  -7   -0.24    0.38
  -5  -4   7   -0.02    0.41
  -5  -4   7    0.25    0.36
   4   4  -7    0.91    0.44
  -4  -4   7    0.59    0.51
  -4  -4   7   -0.19    0.40
   3   4  -7    2.16    0.62
  -3  -4   7    4.44    0.83
  -3  -4   7    5.12    0.81
   2   4  -7    5.41    0.83
  -2  -4   7    3.70    0.72
  -2  -4   7    3.25    0.61
  -1  -4   7    2.34    0.55
  -1  -4   7    1.60    0.48
  -1  -4   7    1.79    0.40
   0  -4   7    0.13    0.17
   0  -4   7    0.44    0.33
   0  -4   7    0.21    0.41
   0  -4   7    0.02    0.31
  -1   4  -7    4.39    0.62
   1  -4   7    2.86    0.52
   1  -4   7    3.18    0.78
   1  -4   7    4.19    0.70
  -2   4  -7   43.39    2.18
   2  -4   7   38.74    2.80
   3  -4   7    2.96    0.89
   4  -4   7    1.19    0.75
   5  -4   7    0.68    0.91
   6  -4   7    2.11    1.00
   7   3  -7    0.09    0.56
  -7  -3   7    0.12    0.53
  -7  -3   7   -0.11    0.45
   6   3  -7    0.31    0.49
  -6  -3   7    0.82    0.50
  -6  -3   7   -0.18    0.41
   5   3  -7    0.55    0.43
  -5  -3   7    0.61    0.51
  -5  -3   7    1.30    0.55
   4   3  -7    5.50    0.99
  -4  -3   7   10.67    1.24
  -4  -3   7    7.24    1.16
   3   3  -7   16.78    1.44
  -3  -3   7   17.03    1.43
  -3  -3   7   21.43    1.42
  -2  -3   7    0.97    0.35
  -2  -3   7    0.14    0.36
   1   3  -7    0.20    0.30
  -1  -3   7    0.04    0.23
  -1  -3   7    0.06    0.29
  -1  -3   7    0.09    0.18
   0  -3   7    2.55    0.54
   0  -3   7    3.26    0.58
   0  -3   7    2.06    0.38
  -1   3  -7    4.37    0.56
   1  -3   7    3.58    0.77
   1  -3   7    4.57    0.64
   1  -3   7    3.19    0.51
  -2   3  -7    5.90    0.67
   2  -3   7    4.57    0.64
   2  -3   7    4.34    0.86
   3  -3   7    3.21    0.85
   4  -3   7   -0.35    0.55
   5  -3   7    3.11    1.02
   6  -3   7    1.61    0.79
   7  -3   7   -0.16    1.00
   7   2  -7    0.18    0.51
  -7  -2   7    0.08    0.52
  -7  -2   7    0.77    0.64
   6   2  -7    0.21    0.41
  -6  -2   7    0.48    0.52
  -6  -2   7    0.34    0.39
   5   2  -7    0.84    0.50
  -5  -2   7    1.21    0.53
  -5  -2   7    2.65    0.61
   4   2  -7    1.74    0.65
  -4  -2   7    1.24    0.58
  -4  -2   7    2.53    0.62
   3   2  -7   14.73    1.31
  -3  -2   7   13.76    1.26
  -3  -2   7   15.56    1.17
  -2  -2   7    9.35    0.92
  -2  -2   7    9.04    1.07
  -2  -2   7    9.85    0.84
   1   2  -7   28.49    1.74
  -1  -2   7   26.33    1.66
  -1  -2   7   27.13    1.48
  -1  -2   7   29.17    1.73
   0   2  -7    6.05    0.92
   0  -2   7    6.65    0.80
   0  -2   7    7.27    0.84
   0  -2   7    5.87    0.53
   1  -2   7   11.01    0.83
   1  -2   7    9.92    0.83
   2  -2   7    1.35    0.37
   2  -2   7    2.25    0.62
   3  -2   7    4.70    0.62
   3  -2   7    5.96    1.03
   4  -2   7    1.14    0.64
   5  -2   7    7.76    1.39
   6  -2   7    1.16    0.70
   7  -2   7    0.80    0.90
   7   1  -7    0.42    0.52
  -7  -1   7    0.12    0.47
  -7  -1   7   -0.08    0.40
   6   1  -7    0.48    0.45
  -6  -1   7    0.70    0.52
  -6  -1   7    0.50    0.54
   5   1  -7    1.62    0.57
  -5  -1   7    1.26    0.49
  -5  -1   7    1.07    0.51
   4   1  -7   -0.06    0.32
  -4  -1   7   -0.16    0.35
  -4  -1   7   -0.10    0.35
  -3  -1   7    2.31    0.54
  -3  -1   7    1.21    0.51
   2   1  -7    0.31    0.24
  -2  -1   7    0.03    0.19
  -2  -1   7   -0.30    0.20
  -2  -1   7    0.06    0.22
   1   1  -7    0.16    0.31
  -1  -1   7    1.25    0.40
  -1  -1   7    1.18    0.27
  -1  -1   7    0.50    0.29
   0   1  -7   21.70    1.45
   0  -1   7   18.61    1.23
   0  -1   7   20.53    1.30
   0  -1   7   19.91    1.07
  -1   1  -7    1.17    0.50
   1  -1   7    2.84    0.48
   1  -1   7    2.91    0.48
   2  -1   7    2.54    0.43
   3  -1   7    4.75    0.55
   3  -1   7    2.92    0.66
   4  -1   7    0.61    0.50
   4  -1   7    0.21    0.19
   5  -1   7   19.78    1.80
   6  -1   7    2.97    0.88
   7   0  -7   -0.41    0.44
  -7   0   7   -0.62    0.38
  -7   0   7    0.17    0.51
   6   0  -7    0.74    0.47
  -6   0   7    0.85    0.55
  -6   0   7    0.08    0.44
   5   0  -7    7.93    1.16
  -5   0   7    6.20    0.92
  -5   0   7    3.76    0.82
   4   0  -7   19.26    1.56
  -4   0   7   16.04    1.42
  -4   0   7   21.21    1.46
  -3   0   7    5.17    0.88
  -3   0   7    7.49    0.90
   2   0  -7    1.97    0.38
  -2   0   7    1.80    0.47
  -2   0   7    1.88    0.51
  -2   0   7    1.28    0.35
   1   0  -7   17.40    1.13
  -1   0   7   16.42    1.14
  -1   0   7   14.78    1.11
  -1   0   7   16.33    0.96
   0   0  -7   72.96    3.89
   0   0   7   74.87    3.25
   0   0   7   78.59    3.52
   0   0   7   72.06    3.43
  -1   0  -7    5.30    0.81
   1   0   7    4.43    0.56
   1   0   7    5.32    0.63
  -2   0  -7    6.20    0.96
   2   0   7    7.87    0.61
   2   0   7    6.66    0.58
   3   0   7   10.83    0.77
   4   0   7    4.16    0.53
   5   0   7    5.72    0.70
  -8   0  -7   -0.29    0.82
   7  -1  -7    0.00    0.50
  -7   1   7    1.40    0.64
  -7   1   7   -0.19    0.44
   6  -1  -7    0.20    0.41
  -6   1   7    0.55    0.48
  -6   1   7    0.29    0.46
   5  -1  -7    2.00    0.62
  -5   1   7    2.19    0.68
  -5   1   7    1.97    0.60
   4  -1  -7    5.68    0.94
  -4   1   7    4.07    0.78
  -4   1   7    3.49    0.67
  -3   1   7   29.34    1.70
  -3   1   7   26.91    1.78
   2  -1  -7    4.87    0.64
  -2   1   7    3.85    0.68
  -2   1   7    4.09    0.63
  -2   1   7    3.66    0.52
   1  -1  -7    0.07    0.25
  -1   1   7    0.45    0.24
  -1   1   7    0.19    0.16
  -1   1   7    0.49    0.28
   0  -1  -7  253.28   11.94
   0   1   7  263.98   10.73
   0   1   7  251.63   10.42
   0   1   7  239.72   10.53
  -1  -1  -7   31.63    2.02
   1   1   7   33.78    1.69
   1   1   7   33.40    1.70
  -2  -1  -7    9.29    0.97
   2   1   7   11.45    0.72
   2   1   7    9.20    0.69
  -3  -1  -7    6.69    1.01
   3   1   7    6.63    0.58
  -4  -1  -7   16.11    1.52
   4   1   7   16.58    1.04
  -5  -1  -7   -0.21    0.42
   5   1   7    0.10    0.21
  -6  -1  -7    0.42    0.65
   6   1   7    0.29    0.29
  -7  -1  -7   -0.37    0.65
  -8  -1  -7   -0.27    0.78
  -7   2   7   -0.36    0.50
   6  -2  -7    0.58    0.44
  -6   2   7    0.97    0.50
  -6   2   7    0.18    0.48
   5  -2  -7    0.28    0.36
  -5   2   7    0.56    0.42
  -5   2   7    0.12    0.35
   4  -2  -7    5.41    0.87
  -4   2   7    5.48    0.82
  -4   2   7    2.50    0.60
   3  -2  -7   -0.19    0.32
  -3   2   7    0.90    0.37
  -3   2   7    0.68    0.38
  -3   2   7    0.46    0.28
   2  -2  -7    8.95    0.78
  -2   2   7    7.97    0.77
  -2   2   7    8.02    0.82
  -2   2   7    7.53    0.71
   1  -2  -7    7.17    0.68
  -1   2   7    6.29    0.61
  -1   2   7    5.99    0.73
   0  -2  -7    0.87    0.40
   0   2   7    1.59    0.35
   0   2   7    1.34    0.19
   0   2   7    0.49    0.24
  -1  -2  -7   15.09    1.10
   1   2   7   15.13    0.87
   1   2   7   10.78    0.82
  -2  -2  -7    2.27    0.55
   2   2   7    2.54    0.41
   2   2   7    3.06    0.42
  -3  -2  -7   11.78    1.15
   3   2   7   12.95    0.84
  -4  -2  -7    0.95    0.48
   4   2   7    0.72    0.26
  -5  -2  -7    5.93    1.09
   5   2   7    4.49    0.63
  -6  -2  -7    0.35    0.51
   6   2   7    0.88    0.39
  -7  -2  -7   -0.34    0.58
   7   2   7   -0.01    0.31
  -7   3   7    0.87    0.63
  -6   3   7    0.45    0.42
  -6   3   7    0.34    0.51
   5  -3  -7    0.80    0.47
  -5   3   7    0.86    0.49
  -5   3   7    1.17    0.53
   4  -3  -7    5.37    0.88
  -4   3   7    4.43    0.75
  -4   3   7    4.32    0.77
   3  -3  -7    2.28    0.56
  -3   3   7    3.53    0.63
  -3   3   7    2.71    0.54
  -3   3   7    2.84    0.64
   2  -3  -7    6.32    0.81
  -2   3   7    5.02    0.73
  -2   3   7    5.67    0.72
  -2   3   7    5.26    0.65
   1  -3  -7    1.83    0.49
  -1   3   7    2.39    0.39
  -1   3   7    2.21    0.41
  -1   3   7    2.12    0.45
   0  -3  -7    9.58    0.82
   0   3   7    7.44    0.63
   0   3   7    9.41    0.71
  -1  -3  -7    3.72    0.64
   1   3   7    4.67    0.43
   1   3   7    4.69    0.46
  -2  -3  -7    8.49    0.88
   2   3   7   11.08    0.69
   2   3   7    9.84    0.70
  -3  -3  -7    8.83    1.18
   3   3   7    6.93    0.52
   3   3   7    6.34    0.58
  -4  -3  -7    0.18    0.34
   4   3   7    0.11    0.19
  -5  -3  -7    1.19    0.59
   5   3   7    1.53    0.42
  -6  -3  -7    0.16    0.49
   6   3   7    0.15    0.28
  -7  -3  -7   -0.20    0.61
   7   3   7    0.27    0.36
   8   3   7    0.07    0.43
  -7   4   7    0.72    0.65
  -6   4   7    0.62    0.49
  -6   4   7   -0.02    0.40
  -5   4   7    0.40    0.41
  -5   4   7    0.15    0.45
   4  -4  -7    5.31    0.79
  -4   4   7    4.19    0.75
  -4   4   7    4.64    0.78
   3  -4  -7    1.62    0.54
  -3   4   7    1.70    0.43
  -3   4   7    1.40    0.42
  -3   4   7    3.08    0.56
   2  -4  -7   13.04    1.08
  -2   4   7   11.79    0.89
  -2   4   7   10.77    0.89
  -2   4   7   12.28    0.98
   1  -4  -7    4.02    0.66
  -1   4   7    4.30    0.61
  -1   4   7    3.00    0.45
  -1   4   7    3.32    0.47
   0  -4  -7    0.53    0.30
   0   4   7    1.08    0.32
   0   4   7    1.27    0.27
   0   4   7    1.25    0.26
  -1  -4  -7    6.63    0.76
   1   4   7    7.39    0.58
   1   4   7    8.46    0.61
  -2  -4  -7   16.95    1.29
   2   4   7   18.64    1.05
  -3  -4  -7    0.73    0.37
   3   4   7    0.39    0.19
   3   4   7    0.37    0.18
  -4  -4  -7    0.28    0.38
   4   4   7    0.92    0.28
  -5  -4  -7   -0.24    0.39
   5   4   7    0.12    0.21
  -6  -4  -7    0.36    0.48
   6   4   7    0.06    0.27
  -7  -4  -7    0.06    0.59
   7   4   7    0.01    0.32
   8   4   7    0.95    0.49
  -6   5   7    0.29    0.55
  -5   5   7    0.49    0.43
  -5   5   7    0.43    0.49
   4  -5  -7    0.01    0.43
  -4   5   7   -0.05    0.30
  -4   5   7   -0.15    0.33
   3  -5  -7   -0.28    0.37
  -3   5   7   -0.18    0.23
  -3   5   7    0.19    0.22
  -3   5   7    0.00    0.21
   2  -5  -7    9.59    0.97
  -2   5   7    9.98    0.83
  -2   5   7    5.87    0.78
  -2   5   7    9.93    0.80
   1  -5  -7    1.86    0.55
  -1   5   7    2.17    0.41
  -1   5   7    1.92    0.39
  -1   5   7    2.45    0.48
   0  -5  -7    2.25    0.54
   0   5   7    1.84    0.30
   0   5   7    2.09    0.35
   0   5   7    2.48    0.43
  -1  -5  -7    0.31    0.29
   1   5   7    0.32    0.18
   1   5   7    0.37    0.19
  -2  -5  -7    5.06    0.79
   2   5   7    5.39    0.51
   2   5   7    5.83    0.50
  -3  -5  -7   37.57    2.42
   3   5   7   43.85    1.98
   3   5   7   42.07    2.07
  -4  -5  -7    0.23    0.32
   4   5   7   -0.02    0.16
  -5  -5  -7    0.67    0.41
   5   5   7    0.38    0.25
  -6  -5  -7    4.58    0.87
   6   5   7    5.10    0.76
   7   5   7    2.21    0.61
   8   5   7    1.34    0.56
  -6   6   7    0.14    0.50
  -5   6   7    0.23    0.35
  -5   6   7   -0.09    0.50
   4  -6  -7    1.29    0.61
  -4   6   7    2.56    0.65
  -4   6   7    1.17    0.47
   3  -6  -7    2.02    0.62
  -3   6   7    2.94    0.56
  -3   6   7    2.42    0.54
   2  -6  -7    0.53    0.38
  -2   6   7    0.02    0.19
  -2   6   7   -0.05    0.19
  -2   6   7   -0.02    0.21
   1  -6  -7    0.49    0.40
  -1   6   7    1.23    0.32
  -1   6   7    1.23    0.30
  -1   6   7    1.28    0.36
   0  -6  -7   13.40    1.21
   0   6   7   16.51    0.99
   0   6   7   15.24    0.88
   0   6   7   13.80    0.88
  -1  -6  -7    2.43    0.59
   1   6   7    2.17    0.34
   1   6   7    3.09    0.46
  -2  -6  -7    5.97    0.91
   2   6   7    6.01    0.52
   2   6   7    5.65    0.52
  -3  -6  -7    4.45    0.77
   3   6   7    5.32    0.64
  -4  -6  -7    0.11    0.30
   4   6   7    0.01    0.20
   4   6   7    0.22    0.20
  -5  -6  -7   -0.07    0.32
   5   6   7    0.27    0.26
  -6  -6  -7    1.57    0.56
   6   6   7    2.40    0.55
   7   6   7   -0.16    0.32
   8   6   7    0.04    0.44
  -6   7   7    0.05    0.51
  -5   7   7    0.14    0.36
  -5   7   7    0.36    0.48
   4  -7  -7    0.67    0.58
  -4   7   7    0.41    0.38
  -4   7   7    0.80    0.50
   3  -7  -7    5.55    1.08
  -3   7   7    6.00    0.89
  -3   7   7    5.28    0.78
   2  -7  -7   11.80    1.26
  -2   7   7   13.09    0.99
  -2   7   7   13.28    0.99
   1  -7  -7    2.84    0.64
  -1   7   7    2.93    0.51
  -1   7   7    1.93    0.40
  -1   7   7    2.32    0.38
   0  -7  -7    1.71    0.58
   0   7   7    3.18    0.48
   0   7   7    1.94    0.34
   0   7   7    2.60    0.39
  -1  -7  -7   26.63    1.79
   1   7   7   23.37    1.30
   1   7   7   24.31    1.35
  -2  -7  -7    4.95    0.84
   2   7   7    4.87    0.51
   2   7   7    6.05    0.55
  -3  -7  -7    0.54    0.38
   3   7   7    0.92    0.29
   3   7   7    0.91    0.28
  -4  -7  -7    3.43    0.67
   4   7   7    2.96    0.52
   4   7   7    2.91    0.49
  -5  -7  -7    3.28    0.71
   5   7   7    3.12    0.60
  -6  -7  -7    0.12    0.48
   6   7   7   -0.01    0.28
   7   7   7    0.55    0.39
   8   7   7   -0.08    0.40
  -5   8   7    0.08    0.49
   4  -8  -7   -0.04    0.59
  -4   8   7   -0.02    0.30
  -4   8   7   -0.24    0.38
   3  -8  -7    0.78    0.67
  -3   8   7    0.23    0.34
  -3   8   7    0.39    0.29
   2  -8  -7    0.70    0.51
  -2   8   7   -0.09    0.20
  -2   8   7    0.53    0.31
   1  -8  -7   -0.44    0.33
  -1   8   7    0.06    0.22
  -1   8   7   -0.18    0.20
   0  -8  -7    0.71    0.48
   0   8   7    0.19    0.18
   0   8   7   -0.28    0.15
   0   8   7    0.20    0.18
  -1  -8  -7    0.22    0.33
   1   8   7    0.20    0.20
   1   8   7    0.11    0.17
  -2  -8  -7    4.56    0.86
   2   8   7    4.14    0.55
   2   8   7    3.75    0.52
  -3  -8  -7    0.21    0.35
   3   8   7    0.52    0.23
   3   8   7    0.64    0.26
  -4  -8  -7    0.89    0.47
   4   8   7    0.84    0.35
   4   8   7    1.27    0.37
  -5  -8  -7    1.67    0.59
   5   8   7    2.90    0.56
   5   8   7    3.54    0.56
   6   8   7    4.98    0.87
   7   8   7    0.63    0.45
   8   8   7   -0.12    0.44
   5  -9  -7   -0.50    0.70
  -5   9   7    0.40    0.57
  -4   9   7    0.02    0.27
  -4   9   7   -0.31    0.40
   3  -9  -7    0.29    0.66
  -3   9   7    1.45    0.44
  -3   9   7    0.98    0.46
   2  -9  -7    0.12    0.43
  -2   9   7   -0.01    0.29
  -2   9   7    0.08    0.19
   1  -9  -7   -0.01    0.45
  -1   9   7    0.00    0.18
  -1   9   7    0.22    0.21
   0  -9  -7    9.47    1.43
   0   9   7    7.68    0.67
   0   9   7    8.90    0.76
  -1  -9  -7   21.42    1.82
   1   9   7   23.30    1.36
   1   9   7   21.35    1.23
  -2  -9  -7    1.54    0.59
   2   9   7    1.83    0.41
   2   9   7    1.45    0.34
  -3  -9  -7    0.13    0.38
   3   9   7    0.55    0.29
   3   9   7    0.25    0.23
  -4  -9  -7    0.09    0.41
   4   9   7   -0.02    0.16
   4   9   7    0.16    0.24
  -5  -9  -7    0.11    0.41
   5   9   7    0.04    0.21
   5   9   7    0.29    0.29
   6   9   7   -0.18    0.27
   7   9   7    0.77    0.49
   8   9   7    1.31    0.65
   5 -10  -7    1.53    0.88
   4 -10  -7    1.23    0.84
  -4  10   7    0.53    0.48
  -4  10   7   -0.14    0.30
   3 -10  -7    0.23    0.59
  -3  10   7    0.17    0.26
  -3  10   7    0.36    0.38
   2 -10  -7   -0.61    0.40
  -2  10   7   -0.20    0.33
  -2  10   7   -0.08    0.19
   1 -10  -7    1.15    0.72
  -1  10   7    1.23    0.36
  -1  10   7    1.80    0.44
   0 -10  -7    3.37    0.94
   0  10   7    2.45    0.52
   0  10   7    1.73    0.40
  -1 -10  -7    7.55    1.32
   1  10   7    6.77    0.80
  -2 -10  -7    8.75    1.36
   2  10   7    8.65    0.81
   2  10   7    8.42    0.74
  -3 -10  -7   13.85    1.46
   3  10   7   12.44    0.98
   3  10   7   12.83    1.01
  -4 -10  -7    0.39    0.46
   4  10   7    0.31    0.30
   4  10   7    0.03    0.20
  -5 -10  -7    0.29    0.44
   5  10   7   -0.01    0.24
   5  10   7    0.02    0.31
   6  10   7    0.06    0.25
   7  10   7    1.26    0.49
   4 -11  -7    0.79    0.90
  -4  11   7    0.18    0.53
   3 -11  -7    0.95    0.64
  -3  11   7    0.54    0.48
  -3  11   7    0.74    0.35
   2 -11  -7    0.30    0.70
  -2  11   7    1.40    0.43
  -2  11   7    0.58    0.46
   1 -11  -7   -0.90    0.59
  -1  11   7    0.34    0.31
  -1  11   7    0.27    0.25
   0 -11  -7    0.26    0.60
   0  11   7    0.19    0.22
  -1 -11  -7    0.56    0.62
   1  11   7    0.52    0.35
  -2 -11  -7    7.29    1.37
   2  11   7    9.74    0.90
  -3 -11  -7    2.93    0.88
   3  11   7    3.29    0.60
   3  11   7    3.05    0.57
  -4 -11  -7    2.80    0.83
   4  11   7    3.59    0.64
   4  11   7    3.32    0.67
   5  11   7    0.47    0.31
   5  11   7    0.78    0.41
   6  11   7    0.93    0.41
   7  11   7    3.13    0.73
   3 -12  -7    0.72    0.87
  -3  12   7   -0.15    0.50
  -3  12   7    1.08    0.39
   2 -12  -7    1.04    0.81
  -2  12   7    0.47    0.50
  -2  12   7    0.78    0.36
   1 -12  -7   -0.11    0.72
  -1  12   7    0.17    0.22
  -1  12   7    0.47    0.38
   0 -12  -7    0.03    0.59
   0  12   7    0.40    0.27
  -1 -12  -7   -0.30    0.54
   1  12   7    0.35    0.32
  -2 -12  -7    2.29    0.95
   2  12   7    4.06    0.72
  -3 -12  -7   -0.55    0.49
   3  12   7    0.25    0.29
  -4 -12  -7    0.88    0.67
   4  12   7    0.60    0.33
   4  12   7    0.98    0.42
   5  12   7   -0.21    0.23
   5  12   7    0.73    0.43
   6  12   7    0.11    0.38
   6  12   7   -0.16    0.34
   7  12   7    0.03    0.35
  -2  13   7   -0.22    0.43
  -2  13   7   -0.07    0.30
   1 -13  -7   -0.05    0.81
  -1  13   7    0.33    0.29
  -1  13   7    0.29    0.40
   0 -13  -7    0.04    0.69
   0  13   7   -0.01    0.22
  -1 -13  -7    0.05    0.68
   1  13   7    0.18    0.28
  -2 -13  -7    1.96    0.87
   2  13   7    3.47    0.74
  -3 -13  -7    0.66    0.76
   3  13   7    0.69    0.43
  -4 -13  -7    0.46    0.69
   4  13   7    0.36    0.35
   5  13   7    0.07    0.37
   6  13   7    0.49    0.37
   6  13   7    0.44    0.48
   0 -14  -7   -0.70    0.72
   0  14   7    0.27    0.29
  -1 -14  -7   -0.26    0.69
   1  14   7    0.06    0.25
  -2 -14  -7    2.30    1.06
   2  14   7    1.87    0.68
  -3 -14  -7    0.29    0.76
   3  14   7   -0.04    0.38
   4  14   7   -0.16    0.34
   5  14   7    1.48    0.60
  -2 -15  -7    0.65    0.93
  -3 -15  -7    0.09    0.82
   2  10  -8    0.78    0.48
   1  10  -8    0.84    0.57
   0  10  -8   -0.62    0.52
   4   9  -8    0.13    0.46
   3   9  -8    0.69    0.56
  -3  -9   8    0.59    0.47
   2   9  -8    0.92    0.50
  -2  -9   8    1.11    0.56
   0   9  -8    0.35    0.51
   4   8  -8   -0.68    0.34
  -4  -8   8    0.01    0.49
   3   8  -8   -0.29    0.41
   3   8  -8   -0.19    0.34
  -3  -8   8   -0.52    0.41
   2   8  -8    0.72    0.48
  -2  -8   8    0.40    0.38
   1   8  -8    0.32    0.34
  -1  -8   8    0.16    0.39
   0   8  -8   -0.22    0.43
   1  -8   8   -0.58    0.68
   2  -8   8    0.74    0.82
   5   7  -8    0.70    0.60
  -5  -7   8    2.17    0.80
  -5  -7   8    2.13    0.74
   4   7  -8   -0.11    0.43
  -4  -7   8    0.92    0.62
  -4  -7   8   -0.05    0.48
   3   7  -8   -0.62    0.31
  -3  -7   8   -0.03    0.38
  -3  -7   8   -0.41    0.47
   2   7  -8    0.48    0.42
  -2  -7   8    0.37    0.41
   1   7  -8    0.79    0.45
  -1  -7   8    0.73    0.42
   0   7  -8   -0.47    0.33
   1  -7   8    0.09    0.68
   2  -7   8   -0.54    0.61
   3  -7   8    0.14    0.78
  -6  -6   8   -0.42    0.54
   5   6  -8   -0.66    0.38
  -5  -6   8    0.02    0.57
  -5  -6   8   -0.54    0.56
   4   6  -8    1.70    0.70
  -4  -6   8    1.74    0.59
  -4  -6   8    2.20    0.83
   3   6  -8    0.72    0.50
  -3  -6   8    0.30    0.44
  -3  -6   8   -0.13    0.49
   2   6  -8    0.08    0.34
  -2  -6   8   -0.02    0.34
  -2  -6   8    0.22    0.50
   1   6  -8    8.36    1.15
  -1  -6   8    8.32    0.85
  -1  -6   8    9.82    1.29
   0  -6   8    0.22    0.61
   1  -6   8    0.63    0.64
   2  -6   8    0.96    0.70
   3  -6   8    0.77    0.82
   4  -6   8   -0.54    0.75
   6   5  -8   -0.54    0.61
  -6  -5   8   -0.81    0.51
  -6  -5   8   -0.41    0.55
   5   5  -8   -0.23    0.37
  -5  -5   8    0.03    0.50
  -5  -5   8   -0.12    0.45
   4   5  -8    0.34    0.35
  -4  -5   8   -0.19    0.41
  -4  -5   8    0.55    0.49
   3   5  -8    0.57    0.45
  -3  -5   8    0.91    0.52
  -3  -5   8    1.91    0.53
   2   5  -8    0.48    0.40
  -2  -5   8    0.06    0.31
  -2  -5   8   -0.17    0.40
  -1  -5   8    2.36    0.68
  -1  -5   8    1.80    0.48
   0  -5   8    0.72    0.42
   0  -5   8    1.68    0.60
   0  -5   8    1.78    0.55
   0  -5   8    1.66    0.44
   1  -5   8    0.66    0.70
   2  -5   8    3.15    0.90
   3  -5   8   -0.05    0.67
   4  -5   8    1.72    0.96
   5  -5   8    2.43    1.17
   6   4  -8    0.58    0.51
  -6  -4   8    0.45    0.56
  -6  -4   8    0.15    0.38
   5   4  -8    0.04    0.51
  -5  -4   8    0.54    0.50
  -5  -4   8    0.28    0.52
   4   4  -8   -0.20    0.38
  -4  -4   8    0.70    0.45
  -4  -4   8   -0.08    0.43
   3   4  -8   -0.22    0.33
  -3  -4   8    0.09    0.39
  -3  -4   8    0.11    0.40
  -2  -4   8    2.08    0.62
  -2  -4   8    1.68    0.54
  -1  -4   8    0.92    0.45
  -1  -4   8    1.28    0.48
  -1  -4   8    1.43    0.40
   0  -4   8   -0.27    0.18
   0  -4   8   -0.02    0.32
   0  -4   8    0.03    0.36
   1  -4   8    0.12    0.26
   1  -4   8   -0.04    0.48
   2  -4   8    0.15    0.54
   3  -4   8    0.06    0.57
   4  -4   8    0.60    0.78
   5  -4   8    4.49    1.28
  -7  -3   8    0.16    0.53
   6   3  -8   -0.07    0.43
  -6  -3   8    0.15    0.48
  -6  -3   8    0.64    0.47
   5   3  -8    3.26    0.89
  -5  -3   8    1.32    0.66
  -5  -3   8    2.88    0.81
   4   3  -8   -0.13    0.38
  -4  -3   8   -0.08    0.42
  -4  -3   8   -0.10    0.47
   3   3  -8    0.35    0.37
  -3  -3   8   -0.14    0.35
  -3  -3   8   -0.46    0.34
  -2  -3   8    4.01    0.64
  -2  -3   8    3.97    0.80
   1   3  -8    0.88    0.45
  -1  -3   8    0.14    0.40
  -1  -3   8    0.59    0.33
  -1  -3   8    0.58    0.26
   0   3  -8    2.83    0.74
   0  -3   8    3.30    0.60
   0  -3   8    2.92    0.60
   0  -3   8    3.68    0.50
   1  -3   8   25.21    1.59
   2  -3   8    0.59    0.28
   2  -3   8    0.16    0.46
   3  -3   8    0.39    0.60
   4  -3   8    2.58    0.85
   5  -3   8   -0.85    0.69
   6  -3   8    0.77    0.79
   7   2  -8    0.00    0.57
  -7  -2   8    0.34    0.60
  -7  -2   8   -0.45    0.53
   6   2  -8    0.12    0.53
  -6  -2   8   -0.19    0.46
  -6  -2   8   -0.97    0.38
   5   2  -8    0.78    0.48
  -5  -2   8    0.43    0.54
  -5  -2   8   -0.23    0.43
   4   2  -8   -0.16    0.34
  -4  -2   8    0.21    0.43
  -4  -2   8   -0.33    0.43
   3   2  -8    0.41    0.39
  -3  -2   8    0.45    0.40
  -3  -2   8   -0.16    0.31
  -2  -2   8    0.14    0.25
  -2  -2   8    0.36    0.32
  -2  -2   8   -0.23    0.27
   1   2  -8    2.90    0.61
  -1  -2   8    2.72    0.47
  -1  -2   8    2.64    0.62
  -1  -2   8    3.06    0.65
   0   2  -8   -0.14    0.31
   0  -2   8    0.10    0.26
   0  -2   8    0.09    0.25
   0  -2   8    0.15    0.19
  -1   2  -8   -0.09    0.40
   1  -2   8   -0.29    0.23
   1  -2   8   -0.12    0.25
   2  -2   8   20.20    1.33
   3  -2   8    0.14    0.19
   3  -2   8   -0.09    0.41
   4  -2   8    0.40    0.57
   5  -2   8    5.87    1.20
   6  -2   8    0.53    0.63
   7   1  -8   -0.31    0.55
  -7  -1   8   -0.18    0.49
  -7  -1   8   -0.12    0.45
   6   1  -8   -0.49    0.36
  -6  -1   8    0.25    0.42
  -6  -1   8   -0.05    0.47
   5   1  -8    1.81    0.70
  -5  -1   8    0.73    0.48
  -5  -1   8    1.00    0.50
   4   1  -8    0.72    0.51
  -4  -1   8    0.24    0.42
  -4  -1   8    0.54    0.44
  -3  -1   8    0.21    0.35
  -3  -1   8    0.12    0.33
  -2  -1   8    1.36    0.43
  -2  -1   8    0.53    0.41
  -2  -1   8    1.16    0.39
   1   1  -8    0.19    0.31
  -1  -1   8    0.53    0.28
  -1  -1   8    0.07    0.26
  -1  -1   8    0.21    0.21
   0   1  -8    0.22    0.36
   0  -1   8   -0.14    0.21
   0  -1   8    0.43    0.24
   0  -1   8    0.10    0.18
  -1   1  -8   11.02    1.17
   1  -1   8   13.98    1.02
   1  -1   8   13.42    1.00
  -2   1  -8   16.78    1.55
   2  -1   8   19.29    1.21
   3  -1   8    4.60    0.64
   4  -1   8    0.97    0.31
   7   0  -8   -0.03    0.54
  -7   0   8    0.03    0.55
  -7   0   8   -0.17    0.43
   6   0  -8   -0.49    0.34
  -6   0   8    1.05    0.63
  -6   0   8    0.24    0.46
   5   0  -8    0.46    0.42
  -5   0   8    1.09    0.52
  -5   0   8    0.29    0.42
   4   0  -8    1.00    0.50
  -4   0   8    1.27    0.56
  -4   0   8    1.38    0.59
  -3   0   8   19.37    1.37
  -3   0   8   15.13    1.41
   2   0  -8    7.57    0.76
  -2   0   8    7.79    0.85
  -2   0   8    6.56    0.92
  -2   0   8    6.97    0.96
   1   0  -8    0.02    0.25
  -1   0   8   -0.12    0.18
  -1   0   8   -0.19    0.18
  -1   0   8    0.20    0.24
   0   0  -8    0.96    0.41
   0   0   8    0.91    0.31
   0   0   8    1.09    0.33
  -1   0  -8    0.60    0.39
   1   0   8    0.83    0.32
  -2   0  -8   12.35    1.21
   2   0   8   12.52    0.91
  -3   0  -8   58.78    3.71
   3   0   8   64.67    2.95
  -4   0  -8    3.87    1.00
   4   0   8    2.59    0.46
  -5   0  -8    2.56    0.89
   5   0   8    1.43    0.39
  -6   0  -8   -0.22    0.60
  -7   0  -8   -0.53    0.69
   7  -1  -8    0.45    0.63
  -7   1   8    0.93    0.57
  -7   1   8    0.49    0.57
   6  -1  -8   -0.53    0.37
  -6   1   8    0.48    0.49
  -6   1   8    0.06    0.43
   5  -1  -8    0.41    0.44
  -5   1   8   -0.35    0.32
  -5   1   8    0.10    0.41
   4  -1  -8    1.22    0.48
  -4   1   8    1.05    0.48
  -4   1   8    1.72    0.52
  -3   1   8   34.99    1.99
  -3   1   8   32.16    2.06
  -3   1   8   32.02    2.08
   2  -1  -8   32.38    1.86
  -2   1   8   32.39    1.77
  -2   1   8   27.36    1.82
  -2   1   8   30.46    1.89
   1  -1  -8    4.62    0.67
  -1   1   8    5.67    0.76
  -1   1   8    5.39    0.51
  -1   1   8    4.78    0.71
   0  -1  -8    0.56    0.33
   0   1   8    0.93    0.30
   0   1   8    0.03    0.22
  -1  -1  -8   15.95    1.29
   1   1   8   15.61    1.06
   1   1   8   17.55    1.09
  -2  -1  -8    0.11    0.31
   2   1   8   -0.13    0.13
   2   1   8    0.24    0.23
  -3  -1  -8   27.39    2.12
   3   1   8   30.32    1.59
  -4  -1  -8    0.79    0.51
   4   1   8    1.16    0.33
  -5  -1  -8    0.67    0.57
   5   1   8    0.13    0.21
  -6  -1  -8   -0.15    0.56
   6   1   8    0.09    0.25
  -7  -1  -8   -0.19    0.65
  -8  -1  -8   -0.35    0.80
  -7   2   8    0.86    0.64
  -7   2   8    0.83    0.62
   6  -2  -8   -0.02    0.43
  -6   2   8    0.27    0.50
  -6   2   8    0.13    0.47
   5  -2  -8    0.03    0.42
  -5   2   8   -0.05    0.40
  -5   2   8   -0.11    0.30
   4  -2  -8    0.98    0.47
  -4   2   8    0.24    0.32
  -4   2   8    0.35    0.37
  -3   2   8    0.17    0.38
  -3   2   8    0.21    0.35
  -3   2   8   -0.20    0.27
   2  -2  -8   40.64    2.23
  -2   2   8   34.61    2.14
  -2   2   8   37.78    2.14
   1  -2  -8    4.36    0.64
  -1   2   8    4.03    0.59
  -1   2   8    5.48    0.75
  -1   2   8    3.99    0.50
   0  -2  -8   16.35    1.19
   0   2   8   17.55    1.11
   0   2   8   14.85    1.05
  -1  -2  -8    0.38    0.33
   1   2   8    0.23    0.19
   1   2   8    0.27    0.22
  -2  -2  -8    4.39    0.86
   2   2   8    3.35    0.49
   2   2   8    4.76    0.57
  -3  -2  -8   17.79    1.54
   3   2   8   18.70    1.13
  -4  -2  -8    2.48    0.78
   4   2   8    2.63    0.44
  -5  -2  -8   14.29    1.48
   5   2   8    9.94    0.87
  -6  -2  -8    0.22    0.61
   6   2   8    0.25    0.26
  -7  -2  -8    0.35    0.71
   7   2   8    0.14    0.31
  -8  -2  -8    0.30    0.81
  -6   3   8    0.16    0.50
  -6   3   8    0.15    0.36
   5  -3  -8    0.93    0.45
  -5   3   8    0.66    0.45
  -5   3   8    0.40    0.44
   4  -3  -8    0.50    0.40
  -4   3   8    0.02    0.35
  -4   3   8    0.07    0.32
   3  -3  -8    3.34    0.69
  -3   3   8    1.64    0.47
  -3   3   8    3.73    0.74
  -3   3   8    1.96    0.54
   2  -3  -8    0.19    0.35
  -2   3   8    0.26    0.25
  -2   3   8    0.09    0.24
  -2   3   8    0.02    0.31
   1  -3  -8    4.45    0.71
  -1   3   8    4.52    0.62
  -1   3   8    3.66    0.63
   0  -3  -8    2.39    0.55
   0   3   8    4.47    0.66
   0   3   8    2.24    0.42
  -1  -3  -8   14.13    1.12
   1   3   8   15.55    0.96
   1   3   8   12.05    0.87
  -2  -3  -8    1.82    0.52
   2   3   8    1.34    0.31
   2   3   8    1.75    0.36
  -3  -3  -8    1.39    0.54
   3   3   8    0.79    0.25
  -4  -3  -8    6.02    0.99
   4   3   8    5.84    0.70
  -5  -3  -8    5.49    1.06
   5   3   8    6.96    0.82
  -6  -3  -8    0.45    0.62
   6   3   8    0.68    0.34
  -7  -3  -8    0.27    0.75
   7   3   8    0.42    0.37
   8   3   8    0.11    0.41
  -6   4   8    0.41    0.48
  -6   4   8    0.30    0.50
  -5   4   8    0.70    0.44
  -5   4   8    0.31    0.42
   4  -4  -8    1.02    0.44
  -4   4   8    0.79    0.46
  -4   4   8    0.77    0.41
   3  -4  -8    0.28    0.41
  -3   4   8    0.23    0.32
  -3   4   8    0.56    0.35
  -3   4   8    0.31    0.32
   2  -4  -8    1.58    0.54
  -2   4   8    1.02    0.42
  -2   4   8    1.00    0.37
  -2   4   8    1.12    0.38
   1  -4  -8    0.54    0.34
  -1   4   8    1.56    0.43
  -1   4   8    1.26    0.33
   0  -4  -8    8.29    0.86
   0   4   8    9.69    0.72
  -1  -4  -8    1.49    0.48
   1   4   8    1.94    0.39
   1   4   8    2.52    0.40
  -2  -4  -8    6.47    0.91
   2   4   8    6.32    0.71
   2   4   8    8.71    0.65
  -3  -4  -8   -0.12    0.26
   3   4   8   -0.17    0.13
   3   4   8    0.83    0.27
  -4  -4  -8    9.73    1.29
   4   4   8   11.17    0.84
  -5  -4  -8    0.90    0.60
   5   4   8    0.15    0.25
  -6  -4  -8    3.57    0.92
   6   4   8    2.63    0.55
  -7  -4  -8    0.14    0.65
   7   4   8    0.01    0.31
   8   4   8    0.01    0.42
  -6   5   8   -0.59    0.38
  -6   5   8   -0.04    0.49
  -5   5   8   -0.34    0.42
  -5   5   8    0.20    0.40
  -4   5   8    0.64    0.42
  -4   5   8    0.83    0.49
   3  -5  -8   -0.72    0.35
  -3   5   8    0.13    0.29
  -3   5   8   -0.03    0.29
  -3   5   8   -0.26    0.25
   2  -5  -8    0.38    0.40
  -2   5   8    0.07    0.26
  -2   5   8    0.12    0.26
  -2   5   8    0.17    0.24
   1  -5  -8    0.87    0.45
  -1   5   8   -0.13    0.20
  -1   5   8    0.37    0.24
   0  -5  -8    0.97    0.43
   0   5   8    0.78    0.28
   0   5   8    1.64    0.41
  -1  -5  -8    4.87    0.76
   1   5   8    6.27    0.57
   1   5   8    5.41    0.50
  -2  -5  -8    6.79    0.94
   2   5   8    8.15    0.64
   2   5   8    7.39    0.62
  -3  -5  -8    2.07    0.55
   3   5   8    2.17    0.42
   3   5   8    2.04    0.37
  -4  -5  -8    1.60    0.57
   4   5   8    1.96    0.42
  -5  -5  -8   -0.03    0.35
   5   5   8    0.40    0.29
  -6  -5  -8   -0.05    0.46
   6   5   8   -0.18    0.26
  -7  -5  -8   -0.11    0.52
   7   5   8    0.37    0.34
   8   5   8   -0.02    0.38
  -6   6   8   -0.81    0.51
  -5   6   8    0.02    0.43
  -5   6   8   -0.04    0.33
   4  -6  -8   -1.11    0.50
  -4   6   8    0.05    0.37
  -4   6   8   -0.08    0.38
   3  -6  -8    3.16    0.82
  -3   6   8    3.15    0.59
  -3   6   8    3.33    0.67
   2  -6  -8   -0.24    0.39
  -2   6   8   -0.03    0.23
  -2   6   8    0.10    0.26
  -2   6   8    0.12    0.28
   1  -6  -8   -0.04    0.30
  -1   6   8   -0.11    0.18
  -1   6   8   -0.04    0.21
   0  -6  -8   19.29    1.48
   0   6   8   22.81    1.28
   0   6   8   18.38    1.16
  -1  -6  -8    5.28    0.91
   1   6   8    4.44    0.59
   1   6   8    4.69    0.56
  -2  -6  -8    3.23    0.66
   2   6   8    3.70    0.50
   2   6   8    4.52    0.54
  -3  -6  -8    2.77    0.67
   3   6   8    4.00    0.58
  -4  -6  -8    1.89    0.57
  -5  -6  -8    0.24    0.36
   5   6   8    0.04    0.22
  -6  -6  -8    1.49    0.60
   6   6   8    0.89    0.41
   7   6   8    0.84    0.43
   8   6   8   -0.27    0.34
  -5   7   8    0.17    0.51
  -5   7   8    0.17    0.38
   4  -7  -8    1.07    0.68
  -4   7   8   -0.04    0.35
  -4   7   8    0.77    0.50
   3  -7  -8    4.04    0.95
  -3   7   8    7.60    1.00
  -3   7   8    5.13    0.81
   2  -7  -8    1.47    0.63
  -2   7   8    1.70    0.47
  -2   7   8    1.35    0.46
   1  -7  -8    0.39    0.42
  -1   7   8    0.54    0.31
  -1   7   8    0.88    0.31
   0  -7  -8    1.15    0.46
   0   7   8    1.09    0.34
   0   7   8    0.67    0.26
  -1  -7  -8   13.51    1.29
   1   7   8   15.96    1.02
   1   7   8   15.81    0.96
  -2  -7  -8    2.24    0.61
   2   7   8    2.68    0.44
   2   7   8    2.92    0.46
  -3  -7  -8    0.77    0.45
   3   7   8    0.58    0.24
   3   7   8    0.76    0.27
  -4  -7  -8   17.37    1.46
   4   7   8   17.28    1.17
   4   7   8   17.35    1.07
  -5  -7  -8    0.23    0.42
   5   7   8    0.44    0.30
  -6  -7  -8    0.19    0.46
   6   7   8    0.08    0.27
   7   7   8    0.51    0.41
   8   7   8   -0.07    0.42
  -5   8   8    0.05    0.41
  -5   8   8    0.23    0.50
   4  -8  -8    0.93    0.69
  -4   8   8    0.40    0.36
  -4   8   8   -0.10    0.42
   3  -8  -8    1.98    0.79
  -3   8   8    1.79    0.57
  -3   8   8    2.29    0.55
   2  -8  -8    2.85    0.81
  -2   8   8    4.74    0.76
   1  -8  -8    2.90    0.74
  -1   8   8    3.65    0.62
   0  -8  -8    0.30    0.44
   0   8   8    0.20    0.20
   0   8   8    0.54    0.24
  -1  -8  -8    0.47    0.41
   1   8   8    0.08    0.21
   1   8   8    0.71    0.26
  -2  -8  -8   -0.19    0.29
   2   8   8    0.12    0.18
   2   8   8    0.12    0.20
  -3  -8  -8    5.78    0.99
   3   8   8    4.99    0.64
   3   8   8    6.25    0.75
  -4  -8  -8    3.06    0.75
   4   8   8    4.97    0.63
   4   8   8    4.85    0.69
  -5  -8  -8    0.12    0.40
   5   8   8   -0.34    0.20
  -6  -8  -8    0.10    0.42
   6   8   8   -0.26    0.28
   7   8   8    0.22    0.40
   8   8   8    0.30    0.47
  -5   9   8    0.37    0.54
   4  -9  -8    0.23    0.55
  -4   9   8    0.23    0.48
  -4   9   8    0.21    0.34
   3  -9  -8   -0.40    0.60
  -3   9   8    0.17    0.41
  -3   9   8    0.30    0.31
   2  -9  -8    0.00    0.49
  -2   9   8    0.49    0.36
  -2   9   8   -0.13    0.19
   1  -9  -8    4.19    0.94
  -1   9   8    4.22    0.69
   0  -9  -8    0.17    0.52
   0   9   8    0.02    0.23
  -1  -9  -8    0.56    0.51
   1   9   8    0.29    0.21
   1   9   8    0.06    0.23
  -2  -9  -8    8.57    1.25
   2   9   8   10.44    0.83
   2   9   8    9.87    0.78
  -3  -9  -8    3.80    0.81
   3   9   8    3.47    0.61
   3   9   8    2.80    0.50
  -4  -9  -8   -0.14    0.38
   4   9   8    0.80    0.33
   4   9   8    0.32    0.25
  -5  -9  -8   -0.46    0.40
   5   9   8   -0.17    0.20
   6   9   8    1.14    0.41
   7   9   8    1.19    0.58
   4 -10  -8    2.80    0.90
  -4  10   8   -0.15    0.46
  -4  10   8    0.86    0.43
   3 -10  -8   -0.61    0.54
  -3  10   8    0.54    0.35
  -3  10   8    0.05    0.43
   2 -10  -8    0.55    0.59
  -2  10   8    0.18    0.34
  -2  10   8   -0.10    0.19
   1 -10  -8    0.43    0.61
  -1  10   8    0.46    0.29
   0 -10  -8    0.92    0.71
   0  10   8    0.52    0.33
  -1 -10  -8    1.77    0.74
   1  10   8    3.68    0.61
  -2 -10  -8    2.25    0.82
   2  10   8    2.35    0.45
   2  10   8    3.27    0.58
  -3 -10  -8   16.30    1.63
   3  10   8   15.09    1.15
   3  10   8   19.24    1.23
  -4 -10  -8    0.10    0.41
   4  10   8   -0.06    0.21
   4  10   8    0.28    0.28
  -5 -10  -8    0.05    0.46
   5  10   8    0.08    0.31
   5  10   8   -0.08    0.19
   6  10   8   -0.25    0.20
   7  10   8    0.72    0.39
   3 -11  -8    0.70    0.86
  -3  11   8   -0.12    0.30
  -3  11   8    0.97    0.56
   2 -11  -8    0.17    0.62
  -2  11   8   -0.17    0.23
   1 -11  -8    1.10    0.73
  -1  11   8    0.19    0.22
   0 -11  -8   -0.11    0.56
   0  11   8   -0.27    0.23
  -1 -11  -8    2.52    0.85
   1  11   8    3.57    0.60
  -2 -11  -8    0.05    0.50
   2  11   8   -0.25    0.23
  -3 -11  -8    0.67    0.58
   3  11   8    0.30    0.29
   3  11   8   -0.13    0.22
  -4 -11  -8    4.49    1.06
   4  11   8    3.74    0.68
   4  11   8    6.81    0.93
  -5 -11  -8   -0.37    0.44
   5  11   8   -0.09    0.32
   5  11   8    0.20    0.29
   7  11   8    0.89    0.47
  -3  12   8    0.09    0.33
  -3  12   8    0.73    0.64
   2 -12  -8    0.20    0.70
  -2  12   8    0.03    0.28
   1 -12  -8   -1.54    0.65
  -1  12   8    0.17    0.25
   0 -12  -8    0.87    0.79
   0  12   8   -0.07    0.20
  -1 -12  -8   -0.44    0.57
   1  12   8    0.00    0.28
  -2 -12  -8    0.48    0.63
   2  12   8    0.74    0.40
  -3 -12  -8    0.51    0.62
   3  12   8    0.77    0.38
  -4 -12  -8   -0.11    0.54
   4  12   8    0.23    0.27
   4  12   8   -0.02    0.33
   5  12   8    0.21    0.31
   5  12   8   -0.15    0.23
   6  12   8    0.50    0.33
  -2  13   8    0.13    0.30
   1 -13  -8    0.41    0.88
  -1  13   8    0.30    0.33
   0 -13  -8   -0.01    0.70
   0  13   8   -0.21    0.20
  -1 -13  -8    0.34    0.67
   1  13   8    0.07    0.30
  -2 -13  -8    0.49    0.74
   2  13   8    0.00    0.31
  -3 -13  -8    2.21    0.96
   3  13   8    4.23    0.81
  -4 -13  -8    0.23    0.65
   4  13   8    0.50    0.42
   5  13   8    0.00    0.31
   5  13   8   -0.25    0.32
   6  13   8    0.30    0.31
   6  13   8    0.50    0.46
   0  14   8   -0.03    0.27
  -1 -14  -8    0.15    0.78
   1  14   8    0.73    0.40
  -2 -14  -8   -0.10    0.76
   2  14   8    0.07    0.36
  -3 -14  -8    1.23    0.90
   3  14   8    0.88    0.47
  -4 -14  -8    0.99    0.87
   4  14   8    1.67    0.63
   5  14   8    0.11    0.40
  -3 -15  -8    0.23    0.85
   2   9  -9    0.18    0.38
  -2  -9   9    0.26    0.56
   4   8  -9   -0.66    0.43
   3   8  -9    0.61    0.60
   3   8  -9    0.28    0.51
  -3  -8   9    0.23    0.51
   2   8  -9    0.31    0.41
  -2  -8   9    0.38    0.45
   2  -8   9   -0.02    0.99
   4   7  -9    1.06    0.62
  -4  -7   9    1.32    0.66
  -4  -7   9    0.70    0.69
   3   7  -9   -0.75    0.36
  -3  -7   9   -0.02    0.42
  -3  -7   9    0.46    0.63
   2   7  -9    0.88    0.52
  -2  -7   9    0.81    0.47
   1   7  -9    0.12    0.36
  -1  -7   9    0.46    0.44
   1  -7   9    0.11    0.76
   2  -7   9    0.60    0.86
   5   6  -9   -0.49    0.48
  -5  -6   9    0.16    0.62
   4   6  -9    0.14    0.45
  -4  -6   9   -0.17    0.53
  -4  -6   9   -0.78    0.51
   3   6  -9    0.88    0.57
  -3  -6   9    0.50    0.59
  -3  -6   9    0.24    0.42
   2   6  -9    0.55    0.44
  -2  -6   9   -0.49    0.37
  -2  -6   9    0.25    0.52
   1   6  -9    2.39    0.70
  -1  -6   9    3.23    0.63
  -1  -6   9    2.51    0.72
   1  -6   9    0.46    0.66
   2  -6   9   -0.23    0.68
   3  -6   9    0.23    0.85
   5   5  -9   -0.18    0.42
  -5  -5   9    0.17    0.53
  -5  -5   9   -0.51    0.51
   4   5  -9    1.86    0.61
  -4  -5   9    1.33    0.61
  -4  -5   9    0.93    0.61
   3   5  -9    0.42    0.41
  -3  -5   9   -0.22    0.40
  -3  -5   9   -0.27    0.41
   2   5  -9   -0.16    0.39
  -2  -5   9   -0.37    0.44
  -2  -5   9   -0.11    0.31
  -1  -5   9   -0.52    0.38
  -1  -5   9   -0.27    0.26
   0  -5   9    0.11    0.37
   1  -5   9    0.16    0.59
   2  -5   9    1.37    0.77
   3  -5   9   -0.49    0.64
   4  -5   9    0.32    0.82
  -6  -4   9    0.10    0.58
   5   4  -9    0.35    0.59
  -5  -4   9    0.38    0.61
  -5  -4   9    0.21    0.58
   4   4  -9   -0.87    0.34
  -4  -4   9    0.27    0.52
  -4  -4   9   -0.14    0.46
   3   4  -9   -0.43    0.33
  -3  -4   9   -0.13    0.42
  -3  -4   9    0.59    0.51
  -2  -4   9    0.20    0.34
  -2  -4   9    0.42    0.39
  -1  -4   9    0.64    0.43
  -1  -4   9    0.91    0.47
   0   4  -9    0.58    0.57
   0  -4   9   -0.02    0.42
   0  -4   9    0.70    0.42
   1  -4   9    0.21    0.36
   2  -4   9    0.43    0.55
   3  -4   9   -0.06    0.58
   4  -4   9    3.97    1.04
   5  -4   9    0.47    0.88
   6   3  -9   -0.09    0.53
  -6  -3   9   -0.28    0.56
  -6  -3   9    1.07    0.52
   5   3  -9    0.16    0.43
  -5  -3   9   -0.59    0.48
  -5  -3   9    0.19    0.53
   4   3  -9   -0.12    0.42
  -4  -3   9   -0.44    0.47
  -4  -3   9   -0.52    0.50
   3   3  -9    1.36    0.63
  -3  -3   9    0.86    0.47
  -3  -3   9    1.60    0.68
  -2  -3   9    0.71    0.57
  -2  -3   9    0.79    0.36
  -1  -3   9    0.23    0.34
  -1  -3   9    0.20    0.42
   0   3  -9    0.16    0.42
   0  -3   9    1.00    0.46
   0  -3   9    0.77    0.38
  -1   3  -9    2.52    0.89
   1  -3   9    1.53    0.51
   2  -3   9    5.16    0.82
   3  -3   9    1.62    0.72
   4  -3   9    0.05    0.59
   5  -3   9    2.82    1.07
   6   2  -9   -0.23    0.43
  -6  -2   9    0.31    0.53
  -6  -2   9    0.12    0.48
   5   2  -9    1.75    0.68
  -5  -2   9    1.23    0.54
  -5  -2   9    0.29    0.45
   4   2  -9    0.22    0.44
  -4  -2   9    0.23    0.48
  -4  -2   9   -0.41    0.42
   3   2  -9    0.72    0.52
  -3  -2   9    1.40    0.59
  -3  -2   9    0.82    0.55
  -2  -2   9    3.52    0.77
  -2  -2   9    2.97    0.60
  -2  -2   9    1.96    0.68
  -1  -2   9    7.91    1.07
  -1  -2   9   11.20    1.26
   0   2  -9    0.44    0.43
   0  -2   9    0.18    0.35
   0  -2   9    0.51    0.33
  -1   2  -9    1.84    0.71
   1  -2   9    3.30    0.65
  -2   2  -9    2.38    0.87
   2  -2   9    2.32    0.55
   3  -2   9    0.42    0.36
   6   1  -9    0.32    0.54
  -6  -1   9    0.44    0.52
  -6  -1   9    0.80    0.59
   5   1  -9    1.21    0.61
  -5  -1   9    0.47    0.47
  -5  -1   9    0.55    0.52
   4   1  -9    4.08    0.92
  -4  -1   9    2.87    0.69
  -4  -1   9    3.19    0.84
  -3  -1   9    1.67    0.62
  -3  -1   9    2.37    0.66
  -2  -1   9    0.73    0.39
  -2  -1   9    0.87    0.42
  -2  -1   9    1.28    0.50
   1   1  -9    2.28    0.55
  -1  -1   9    4.54    0.76
  -1  -1   9    3.92    0.74
   0   1  -9    1.15    0.52
   0  -1   9    0.89    0.38
   0  -1   9    0.80    0.39
  -1   1  -9    2.48    0.74
   1  -1   9    3.33    0.61
   1  -1   9    4.10    0.68
  -2   1  -9    0.05    0.44
   2  -1   9   -0.11    0.24
  -3   1  -9    0.70    0.63
   3  -1   9    0.31    0.27
  -4   1  -9   -0.04    0.60
   4  -1   9   -0.06    0.24
  -6   1  -9   -0.63    0.65
  -7   0   9   -0.16    0.60
   6   0  -9   -0.18    0.44
  -6   0   9   -0.03    0.50
  -6   0   9    0.54    0.52
   5   0  -9    0.09    0.45
  -5   0   9    0.05    0.47
  -5   0   9   -0.01    0.35
   4   0  -9    7.64    1.14
  -4   0   9    6.09    1.05
  -4   0   9    7.94    1.03
  -3   0   9    2.52    0.73
  -2   0   9   -0.13    0.30
  -2   0   9    0.27    0.36
  -2   0   9   -0.11    0.30
   1   0  -9    1.49    0.46
  -1   0   9    1.70    0.49
  -1   0   9    1.68    0.49
   0   0  -9    1.69    0.55
   0   0   9    1.91    0.48
   0   0   9    2.15    0.53
  -1   0  -9    4.92    0.91
   1   0   9    6.64    0.84
   1   0   9    8.39    0.81
  -2   0  -9    8.44    1.19
   2   0   9    8.82    0.81
  -3   0  -9    2.87    0.87
   3   0   9    2.83    0.53
  -4   0  -9    0.07    0.57
   4   0   9    1.19    0.36
  -5   0  -9   -0.43    0.53
   5   0   9    0.33    0.26
  -6   0  -9   -0.70    0.69
  -7   0  -9    2.13    1.03
   7  -1  -9   -0.21    0.59
  -7   1   9   -0.08    0.56
   6  -1  -9    0.88    0.59
  -6   1   9    1.15    0.66
  -6   1   9    0.57    0.57
   5  -1  -9   -0.16    0.42
  -5   1   9   -0.02    0.48
  -5   1   9    0.65    0.50
   4  -1  -9    0.65    0.43
  -4   1   9    0.69    0.48
  -4   1   9    0.54    0.47
  -3   1   9    0.15    0.34
  -3   1   9    0.14    0.32
  -3   1   9   -0.17    0.35
  -2   1   9    7.71    1.02
  -2   1   9    7.87    1.00
   1  -1  -9    1.23    0.39
  -1   1   9    1.72    0.50
  -1   1   9    0.91    0.40
   0  -1  -9    1.49    0.47
   0   1   9    0.47    0.26
   0   1   9    1.83    0.47
  -1  -1  -9    0.35    0.34
   1   1   9   -0.08    0.20
   1   1   9   -0.16    0.20
  -2  -1  -9   41.95    2.75
   2   1   9   43.82    2.22
  -3  -1  -9    0.09    0.50
   3   1   9    0.08    0.20
  -4  -1  -9    0.67    0.56
   4   1   9    0.92    0.32
  -5  -1  -9    0.15    0.57
   5   1   9   -0.02    0.24
  -6  -1  -9    0.04    0.62
   6   1   9   -0.15    0.24
  -7  -1  -9    0.81    0.94
  -7   2   9    0.36    0.57
   6  -2  -9    0.32    0.54
  -6   2   9    0.46    0.51
  -6   2   9   -0.02    0.48
   5  -2  -9   -0.04    0.42
  -5   2   9    0.70    0.49
  -5   2   9    0.98    0.48
   4  -2  -9   -0.13    0.37
  -4   2   9    0.91    0.53
  -4   2   9    0.16    0.41
  -3   2   9    4.02    0.71
  -3   2   9    2.71    0.73
  -3   2   9    2.34    0.67
   2  -2  -9    0.07    0.37
  -2   2   9    1.83    0.54
  -2   2   9    1.39    0.44
   1  -2  -9   14.16    1.09
  -1   2   9   11.82    0.99
  -1   2   9   12.17    1.09
   0  -2  -9   11.41    1.01
   0   2   9    9.96    0.88
   0   2   9   11.94    0.97
  -1  -2  -9    1.54    0.49
   1   2   9    1.82    0.45
   1   2   9    2.39    0.44
  -2  -2  -9    0.72    0.45
   2   2   9    1.89    0.43
   2   2   9    1.90    0.43
  -3  -2  -9    2.62    0.80
   3   2   9    3.38    0.55
  -4  -2  -9   -0.07    0.40
   4   2   9    0.52    0.28
  -5  -2  -9    0.15    0.50
   5   2   9    0.03    0.21
  -6  -2  -9    0.32    0.60
   6   2   9    0.66    0.34
  -7  -2  -9    0.35    0.69
   7   2   9    0.51    0.38
  -8  -2  -9    1.19    0.99
  -6   3   9    0.18    0.53
  -6   3   9    0.73    0.56
   5  -3  -9   -0.47    0.42
  -5   3   9    0.14    0.45
  -5   3   9    0.16    0.37
   4  -3  -9    5.06    0.93
  -4   3   9    4.40    0.76
  -4   3   9    4.89    0.98
  -3   3   9    0.18    0.35
  -3   3   9    0.46    0.45
  -3   3   9    0.19    0.41
   2  -3  -9   17.70    1.35
  -2   3   9   18.44    1.39
  -2   3   9   17.46    1.34
   1  -3  -9    3.46    0.65
  -1   3   9    3.76    0.62
  -1   3   9    4.17    0.71
   0  -3  -9    8.79    0.94
   0   3   9    8.16    0.77
   0   3   9   11.35    0.91
  -1  -3  -9   22.53    1.62
   1   3   9   22.52    1.38
   1   3   9   27.14    1.47
  -2  -3  -9   10.08    1.08
   2   3   9    9.46    0.75
   2   3   9   11.09    0.82
  -3  -3  -9   12.08    1.29
   3   3   9   12.04    0.87
  -4  -3  -9    0.88    0.52
   4   3   9    0.37    0.23
  -5  -3  -9    0.82    0.61
   5   3   9    0.56    0.28
  -6  -3  -9    0.30    0.64
   6   3   9    0.13    0.26
  -7  -3  -9    0.31    0.68
   7   3   9    0.60    0.38
  -8  -3  -9    0.63    0.88
   8   3   9    0.30    0.47
  -6   4   9    0.54    0.58
  -6   4   9    0.41    0.41
  -5   4   9   -0.40    0.38
  -5   4   9    0.17    0.39
   4  -4  -9    0.61    0.46
  -4   4   9    0.09    0.43
  -4   4   9    0.35    0.41
  -3   4   9    1.80    0.61
  -3   4   9    2.71    0.61
  -3   4   9    2.68    0.69
   2  -4  -9    9.72    1.05
  -2   4   9    7.02    0.89
  -2   4   9    8.78    1.07
   1  -4  -9    0.09    0.37
  -1   4   9    0.97    0.42
  -1   4   9    0.69    0.29
   0  -4  -9    5.46    0.91
   0   4   9    5.12    0.73
   0   4   9    6.41    0.63
  -1  -4  -9    1.07    0.52
   1   4   9    2.27    0.47
   1   4   9    2.42    0.43
  -2  -4  -9    1.57    0.56
   2   4   9    2.08    0.40
   2   4   9    1.38    0.35
  -3  -4  -9    4.99    0.91
   3   4   9    6.59    0.62
  -4  -4  -9   -0.17    0.34
   4   4   9    0.05    0.21
  -5  -4  -9    0.58    0.63
   5   4   9    1.11    0.38
  -6  -4  -9    1.12    0.64
   6   4   9    0.43    0.32
  -7  -4  -9    0.42    0.70
   7   4   9   -0.08    0.34
   8   4   9    0.35    0.47
  -6   5   9    0.07    0.59
  -6   5   9    0.21    0.44
  -5   5   9    0.28    0.43
  -5   5   9    0.20    0.42
  -4   5   9    0.02    0.29
  -4   5   9    0.57    0.40
   3  -5  -9    0.88    0.52
  -3   5   9   -0.14    0.31
  -3   5   9    0.05    0.32
  -3   5   9   -0.26    0.29
   2  -5  -9    8.37    1.19
  -2   5   9    6.77    1.00
  -2   5   9    7.02    0.94
   1  -5  -9    2.06    0.57
  -1   5   9    3.40    0.58
  -1   5   9    2.72    0.56
   0  -5  -9    0.11    0.35
   0   5   9    0.21    0.19
   0   5   9    0.54    0.29
  -1  -5  -9   -0.07    0.26
   1   5   9    0.19    0.23
   1   5   9    0.24    0.19
  -2  -5  -9    2.35    0.64
   2   5   9    4.07    0.58
   2   5   9    2.75    0.44
  -3  -5  -9    2.19    0.62
   3   5   9    2.27    0.45
   3   5   9    3.33    0.51
  -4  -5  -9    3.93    0.85
   4   5   9    3.24    0.52
  -5  -5  -9   -0.11    0.38
   5   5   9   -0.05    0.22
  -6  -5  -9    0.11    0.49
   6   5   9    1.55    0.47
  -7  -5  -9    0.04    0.54
   7   5   9    0.15    0.31
   8   5   9    0.06    0.38
  -6   6   9   -0.34    0.45
  -6   6   9    0.22    0.60
  -5   6   9   -0.34    0.51
  -5   6   9   -0.10    0.42
  -4   6   9   -0.14    0.42
  -4   6   9   -0.13    0.27
   3  -6  -9   -0.90    0.45
  -3   6   9   -0.12    0.24
  -3   6   9    0.31    0.34
   2  -6  -9    5.89    1.05
  -2   6   9    7.86    1.03
  -2   6   9    6.63    0.86
   1  -6  -9   -0.29    0.35
  -1   6   9    0.35    0.26
  -1   6   9    0.78    0.33
   0  -6  -9    1.40    0.51
   0   6   9    2.14    0.44
   0   6   9    2.82    0.54
  -1  -6  -9    0.48    0.38
   1   6   9    0.35    0.20
   1   6   9    0.70    0.30
  -2  -6  -9    0.16    0.32
   2   6   9    0.24    0.22
   2   6   9    0.22    0.18
  -3  -6  -9    3.55    0.74
   3   6   9    3.32    0.50
   3   6   9    3.44    0.55
  -4  -6  -9    0.30    0.34
   4   6   9    0.08    0.24
  -5  -6  -9    0.28    0.41
   5   6   9   -0.07    0.20
  -6  -6  -9    2.68    0.78
   6   6   9    3.48    0.66
  -7  -6  -9    0.91    0.64
   7   6   9    0.30    0.35
   8   6   9    0.18    0.45
  -5   7   9    0.37    0.54
  -5   7   9   -0.14    0.35
  -4   7   9   -0.28    0.31
  -4   7   9   -0.21    0.40
   3  -7  -9    0.32    0.54
  -3   7   9    0.51    0.33
   2  -7  -9    1.82    0.69
  -2   7   9    2.71    0.61
   1  -7  -9    0.69    0.55
  -1   7   9    0.99    0.33
  -1   7   9    1.23    0.45
   0  -7  -9    0.63    0.45
   0   7   9    0.69    0.32
   0   7   9    0.47    0.24
  -1  -7  -9    0.82    0.45
   1   7   9    1.15    0.35
  -2  -7  -9    2.91    0.71
   2   7   9    2.16    0.42
   2   7   9    3.06    0.50
  -3  -7  -9    0.07    0.30
   3   7   9    0.16    0.20
   3   7   9    0.09    0.19
  -4  -7  -9    2.36    0.66
   4   7   9    1.84    0.44
  -5  -7  -9    1.67    0.68
   5   7   9    0.40    0.36
  -6  -7  -9    3.27    0.83
   6   7   9    2.36    0.57
   7   7   9    0.45    0.39
  -5   8   9    0.08    0.39
  -5   8   9   -0.16    0.53
   4  -8  -9    1.28    0.75
  -4   8   9    0.16    0.37
  -4   8   9    0.04    0.45
   3  -8  -9    1.24    0.75
  -3   8   9    2.66    0.65
   2  -8  -9    0.55    0.60
  -2   8   9    0.75    0.39
   1  -8  -9    0.50    0.47
  -1   8   9    0.17    0.28
   0  -8  -9   -0.20    0.37
   0   8   9   -0.02    0.17
   0   8   9    0.20    0.26
  -1  -8  -9   -0.28    0.32
   1   8   9   -0.18    0.20
   1   8   9    0.33    0.21
  -2  -8  -9    1.14    0.51
   2   8   9    1.97    0.42
   2   8   9    1.49    0.37
  -3  -8  -9   -0.09    0.36
   3   8   9    0.84    0.30
   3   8   9    1.02    0.33
  -4  -8  -9   -0.06    0.41
   4   8   9   -0.02    0.18
   4   8   9    0.04    0.20
  -5  -8  -9    1.74    0.66
   5   8   9    1.08    0.39
  -6  -8  -9    2.06    0.68
   6   8   9    1.85    0.55
   7   8   9   -0.34    0.27
   4  -9  -9    0.65    0.77
  -4   9   9   -0.47    0.33
   3  -9  -9    0.68    0.64
  -3   9   9    0.21    0.31
   2  -9  -9    1.77    0.71
  -2   9   9    0.97    0.39
   1  -9  -9    2.57    0.74
  -1   9   9    1.35    0.42
   0  -9  -9   -0.31    0.44
   0   9   9    0.49    0.27
  -1  -9  -9   -0.15    0.40
   1   9   9   -0.10    0.22
   1   9   9    0.23    0.20
  -2  -9  -9    5.77    1.11
   2   9   9    6.72    0.80
   2   9   9    7.72    0.86
  -3  -9  -9    0.04    0.42
   3   9   9    0.24    0.25
   3   9   9    0.45    0.27
  -4  -9  -9   -0.65    0.35
   4   9   9   -0.29    0.22
   4   9   9   -0.38    0.16
  -5  -9  -9    2.20    0.71
   5   9   9    2.37    0.51
  -6  -9  -9    0.03    0.53
   6   9   9   -0.13    0.23
   7   9   9    0.76    0.46
   4 -10  -9    0.53    0.73
  -4  10   9   -0.05    0.33
   3 -10  -9   -0.41    0.61
  -3  10   9    0.00    0.31
   2 -10  -9   -0.28    0.57
  -2  10   9    0.23    0.22
   1 -10  -9    0.56    0.51
  -1  10   9    0.12    0.24
   0 -10  -9    0.35    0.56
   0  10   9   -0.12    0.21
  -1 -10  -9    0.37    0.55
   1  10   9    0.25    0.29
  -2 -10  -9    2.90    0.88
   2  10   9    3.01    0.51
   2  10   9    3.93    0.63
  -3 -10  -9    0.73    0.59
   3  10   9    1.06    0.39
   3  10   9    1.04    0.34
  -4 -10  -9   -0.30    0.40
   4  10   9   -0.09    0.25
   4  10   9    0.00    0.25
  -5 -10  -9   -0.17    0.45
   5  10   9    0.11    0.26
   6  10   9    0.76    0.35
   7  10   9    0.16    0.32
   3 -11  -9    0.24    0.69
  -3  11   9   -0.05    0.34
   2 -11  -9    1.03    0.62
  -2  11   9    0.02    0.23
   1 -11  -9    1.31    0.85
  -1  11   9    0.49    0.29
   0 -11  -9    0.99    0.70
   0  11   9   -0.13    0.25
  -1 -11  -9    0.79    0.65
   1  11   9   -0.02    0.24
  -2 -11  -9    0.25    0.56
   2  11   9   -0.01    0.25
  -3 -11  -9    0.09    0.53
   3  11   9    0.39    0.29
   3  11   9    0.14    0.32
  -4 -11  -9    0.04    0.47
   4  11   9   -0.42    0.23
   4  11   9   -0.28    0.25
  -5 -11  -9    0.08    0.46
   5  11   9    0.45    0.35
   5  11   9    0.39    0.36
   6  11   9   -0.20    0.21
   2 -12  -9   -0.07    0.68
  -2  12   9    0.50    0.28
   1 -12  -9    1.20    0.76
   0 -12  -9    4.13    1.31
   0  12   9    2.94    0.62
  -1 -12  -9    0.31    0.64
   1  12   9    0.34    0.35
  -2 -12  -9    0.30    0.60
   2  12   9    0.21    0.30
  -3 -12  -9    0.13    0.61
   3  12   9    1.42    0.52
  -4 -12  -9   -0.37    0.51
   4  12   9   -0.12    0.34
   4  12   9   -0.09    0.24
  -5 -12  -9   -0.03    0.52
   5  12   9    0.09    0.30
   5  12   9   -0.01    0.36
   6  12   9    0.07    0.35
  -1  13   9    0.00    0.28
   0 -13  -9    0.51    0.79
   0  13   9    0.47    0.29
  -1 -13  -9    0.10    0.77
   1  13   9    0.29    0.37
  -2 -13  -9    0.94    0.76
   2  13   9    2.14    0.58
  -3 -13  -9   -0.02    0.70
   3  13   9   -0.31    0.34
  -4 -13  -9   -0.34    0.59
   4  13   9    0.14    0.42
   5  13   9    0.78    0.47
   5  13   9    0.51    0.34
   6  13   9   -0.09    0.30
  -2 -14  -9    0.32    0.74
   2  14   9    0.00    0.37
  -3 -14  -9    0.18    0.86
   3  14   9    0.45    0.43
  -4 -14  -9    0.61    0.75
   4  14   9    0.41    0.46
   2   8 -10    1.64    0.67
   3   7 -10   -1.01    0.38
   2  -7  10    0.25    0.87
   4   6 -10   -0.24    0.51
   3   6 -10    1.23    0.70
  -3  -6  10   -0.17    0.63
   2   6 -10    0.32    0.45
  -2  -6  10   -0.22    0.59
   1   6 -10   -0.50    0.47
  -1  -6  10    0.64    0.54
  -5  -5  10    0.21    0.66
   4   5 -10   -0.18    0.42
  -4  -5  10    0.07    0.53
  -4  -5  10   -0.16    0.57
   3   5 -10    0.20    0.52
  -3  -5  10   -0.69    0.47
   2   5 -10    0.02    0.49
  -2  -5  10   -0.20    0.58
  -1  -5  10    0.84    0.60
   0  -5  10    0.65    0.49
   5   4 -10    0.60    0.65
  -5  -4  10    0.38    0.61
  -5  -4  10    0.34    0.55
   4   4 -10   -0.72    0.44
  -4  -4  10   -0.34    0.49
  -4  -4  10   -0.12    0.42
   3   4 -10    0.04    0.41
  -3  -4  10    1.01    0.55
  -2  -4  10    0.83    0.54
  -1  -4  10    0.33    0.47
  -1  -4  10   -0.09    0.44
   0  -4  10    1.01    0.57
  -1   4 -10   -0.06    0.58
   1  -4  10    0.07    0.38
   5   3 -10    0.00    0.51
  -5  -3  10    0.00    0.63
  -5  -3  10    0.10    0.61
   4   3 -10    0.26    0.50
  -4  -3  10    0.14    0.55
  -4  -3  10    0.25    0.60
   3   3 -10    0.15    0.48
  -3  -3  10   -0.19    0.59
  -2  -3  10    0.57    0.54
  -1  -3  10    0.37    0.46
  -1  -3  10    0.17    0.39
   0   3 -10    1.39    0.68
   0  -3  10    2.33    0.65
   0  -3  10    3.29    0.71
  -1   3 -10    0.25    0.63
   1  -3  10    0.30    0.41
  -2   3 -10    0.19    0.71
   2  -3  10    0.38    0.35
  -6  -2  10    0.23    0.69
   5   2 -10    0.49    0.53
  -5  -2  10    0.14    0.55
  -5  -2  10    0.68    0.59
   4   2 -10    0.09    0.45
  -4  -2  10    0.46    0.57
  -4  -2  10    0.78    0.57
   3   2 -10   -0.24    0.46
  -3  -2  10   -0.38    0.37
  -2  -2  10    1.12    0.54
  -2  -2  10    1.08    0.50
  -1  -2  10    2.01    0.63
  -1  -2  10    1.66    0.56
   0   2 -10    0.79    0.57
   0  -2  10    2.60    0.65
   0  -2  10    2.33    0.63
  -1   2 -10    1.02    0.68
   1  -2  10    1.98    0.54
  -2   2 -10    0.22    0.55
   2  -2  10    0.93    0.41
  -3   2 -10   -0.09    0.53
   3  -2  10    0.33    0.39
  -4   2 -10   -0.51    0.50
  -5   2 -10   -0.07    0.73
  -6  -1  10    0.32    0.50
  -6  -1  10    0.34    0.69
   5   1 -10    0.52    0.54
  -5  -1  10    1.64    0.64
  -5  -1  10    0.95    0.59
   4   1 -10    2.01    0.77
  -4  -1  10    1.33    0.72
  -4  -1  10    2.52    0.84
  -3  -1  10    0.71    0.60
  -2  -1  10    0.25    0.37
  -2  -1  10    0.40    0.44
  -1  -1  10    7.51    1.13
  -1  -1  10    5.97    0.96
   0   1 -10    0.13    0.42
   0  -1  10    1.19    0.46
   0  -1  10    0.75    0.42
  -1   1 -10    0.12    0.49
   1  -1  10    0.24    0.32
  -2   1 -10   -0.21    0.47
   2  -1  10   -0.07    0.29
  -3   1 -10    0.23    0.46
   3  -1  10   -0.11    0.26
  -4   1 -10   -0.01    0.66
   4  -1  10    0.78    0.38
  -5   1 -10   -0.51    0.61
  -6   1 -10   -0.73    0.82
   6   0 -10   -0.27    0.58
  -6   0  10   -0.06    0.61
  -6   0  10   -0.17    0.39
   5   0 -10    0.57    0.59
  -5   0  10   -0.10    0.52
  -5   0  10    0.16    0.53
   4   0 -10    0.52    0.47
  -4   0  10   -0.08    0.49
  -4   0  10    0.19    0.57
  -3   0  10    1.60    0.63
  -2   0  10    0.13    0.42
  -2   0  10    0.63    0.48
   1   0 -10   -0.18    0.30
  -1   0  10   -0.24    0.27
  -1   0  10   -0.37    0.31
   0   0 -10    1.06    0.48
   0   0  10    1.23    0.50
   0   0  10    0.45    0.30
  -1   0 -10    0.26    0.44
   1   0  10    0.29    0.31
   1   0  10    0.29    0.34
  -2   0 -10    1.45    0.63
   2   0  10    1.08    0.40
  -3   0 -10    2.50    0.91
   3   0  10    2.08    0.49
  -4   0 -10    0.48    0.66
   4   0  10    0.13    0.28
  -5   0 -10    1.41    0.78
   5   0  10    1.42    0.43
  -6   0 -10    1.05    0.82
   6  -1 -10    0.05    0.54
  -6   1  10   -0.29    0.61
  -6   1  10    0.29    0.53
   5  -1 -10    0.05    0.53
  -5   1  10    0.22    0.39
  -5   1  10   -0.11    0.54
   4  -1 -10    0.50    0.47
  -4   1  10   -0.21    0.41
  -3   1  10   -0.01    0.33
  -3   1  10    0.16    0.34
  -2   1  10    3.04    0.74
  -2   1  10    3.03    0.72
   1  -1 -10    2.29    0.55
  -1   1  10    1.21    0.48
  -1   1  10    1.51    0.53
   0  -1 -10    1.87    0.58
   0   1  10    3.82    0.70
   0   1  10    3.03    0.61
  -1  -1 -10    0.34    0.45
   1   1  10    0.19    0.25
   1   1  10    0.24    0.26
  -2  -1 -10    1.62    0.64
   2   1  10    2.86    0.56
  -3  -1 -10   13.45    1.78
   3   1  10   14.63    1.07
  -4  -1 -10    0.40    0.62
   4   1  10    0.13    0.25
  -5  -1 -10    1.04    0.69
   5   1  10    1.05    0.38
  -6  -1 -10    0.23    0.66
   6   1  10    0.37    0.31
  -7  -1 -10    0.23    0.81
   6  -2 -10    0.21    0.58
  -6   2  10    0.34    0.60
  -6   2  10   -0.20    0.57
   5  -2 -10    0.04    0.52
  -5   2  10   -0.14    0.40
  -5   2  10   -0.35    0.51
   4  -2 -10    0.56    0.50
  -4   2  10    0.50    0.49
  -3   2  10    5.94    1.01
  -3   2  10    8.03    1.15
  -2   2  10    2.88    0.71
  -2   2  10    2.80    0.64
   1  -2 -10    3.06    0.61
  -1   2  10    5.09    0.82
  -1   2  10    3.01    0.60
   0  -2 -10    2.58    0.59
   0   2  10    3.47    0.67
   0   2  10    2.36    0.49
  -1  -2 -10   44.32    2.89
   1   2  10   48.23    2.54
   1   2  10   55.90    2.65
  -2  -2 -10   -0.01    0.41
   2   2  10   -0.01    0.20
  -3  -2 -10    5.49    1.12
   3   2  10    6.58    0.74
  -4  -2 -10    0.58    0.56
   4   2  10    0.59    0.28
  -5  -2 -10    0.33    0.59
   5   2  10    0.66    0.30
  -6  -2 -10    1.10    0.83
   6   2  10    1.73    0.49
  -7  -2 -10    0.14    0.85
   7   2  10   -0.07    0.37
  -6   3  10   -0.02    0.56
  -6   3  10    0.26    0.55
   5  -3 -10    0.54    0.60
  -5   3  10    0.42    0.47
  -5   3  10    0.20    0.53
   4  -3 -10    3.19    0.81
  -4   3  10    1.62    0.59
  -3   3  10    0.02    0.36
  -3   3  10   -0.48    0.35
   2  -3 -10    5.89    0.84
  -2   3  10    4.74    0.85
  -2   3  10    4.84    0.89
   1  -3 -10    0.14    0.34
  -1   3  10    0.39    0.33
  -1   3  10    0.44    0.23
   0  -3 -10    0.38    0.39
   0   3  10    0.08    0.26
   0   3  10    0.34    0.31
  -1  -3 -10    0.14    0.42
   1   3  10    0.72    0.33
   1   3  10    0.39    0.27
  -2  -3 -10   14.37    1.38
   2   3  10   15.26    1.09
   2   3  10   20.13    1.20
  -3  -3 -10    0.80    0.57
   3   3  10    0.86    0.31
  -4  -3 -10   -0.22    0.42
   4   3  10   -0.01    0.18
  -5  -3 -10   -0.34    0.49
   5   3  10   -0.26    0.21
  -6  -3 -10    2.39    0.85
   6   3  10    1.46    0.41
  -7  -3 -10    0.69    0.76
   7   3  10    0.00    0.30
  -6   4  10   -0.40    0.55
  -6   4  10    0.31    0.49
  -5   4  10    1.21    0.62
  -5   4  10    0.07    0.34
   4  -4 -10    1.82    0.63
  -4   4  10    0.59    0.42
  -3   4  10    1.84    0.64
  -3   4  10    3.11    0.75
   2  -4 -10   -0.48    0.40
  -2   4  10   -0.11    0.24
  -2   4  10    0.25    0.36
   1  -4 -10   -0.38    0.39
  -1   4  10   -0.02    0.21
  -1   4  10   -0.10    0.29
   0  -4 -10    0.25    0.38
   0   4  10    0.20    0.25
   0   4  10    0.52    0.34
  -1  -4 -10    4.36    0.89
   1   4  10    5.55    0.71
   1   4  10    7.65    0.89
  -2  -4 -10    1.20    0.60
   2   4  10    1.58    0.44
   2   4  10    1.72    0.40
  -3  -4 -10   -0.02    0.40
   3   4  10    0.21    0.21
  -4  -4 -10    4.83    1.03
   4   4  10    3.82    0.59
  -5  -4 -10   -0.11    0.46
   5   4  10    0.58    0.30
  -6  -4 -10    1.43    0.86
   6   4  10    1.39    0.46
  -7  -4 -10   -0.58    0.67
   7   4  10    0.33    0.35
  -8  -4 -10   -0.20    1.01
  -5   5  10   -0.13    0.46
  -4   5  10    0.45    0.42
  -3   5  10   -0.29    0.30
  -3   5  10    0.03    0.36
   2  -5 -10    0.16    0.46
  -2   5  10    0.00    0.36
  -2   5  10    0.28    0.31
   1  -5 -10    0.76    0.45
  -1   5  10    0.26    0.28
  -1   5  10    0.52    0.40
   0  -5 -10    2.17    0.68
   0   5  10    3.41    0.61
   0   5  10    2.56    0.56
  -1  -5 -10   -0.01    0.29
   1   5  10   -0.10    0.21
   1   5  10    0.01    0.16
  -2  -5 -10    1.66    0.62
   2   5  10    1.42    0.37
   2   5  10    1.34    0.38
  -3  -5 -10   -0.26    0.28
   3   5  10    0.33    0.23
  -4  -5 -10    1.31    0.58
   4   5  10    2.20    0.44
  -5  -5 -10    0.03    0.43
   5   5  10   -0.11    0.22
  -6  -5 -10    1.83    0.69
   6   5  10    1.61    0.49
  -7  -5 -10    0.18    0.69
   7   5  10    0.60    0.39
  -5   6  10    0.56    0.47
  -4   6  10    1.42    0.58
   3  -6 -10    0.91    0.67
  -3   6  10    0.40    0.42
   2  -6 -10   -0.36    0.48
  -2   6  10   -0.04    0.35
  -2   6  10    0.37    0.33
   1  -6 -10    6.61    1.06
  -1   6  10    4.35    0.75
   0  -6 -10   -0.28    0.35
   0   6  10    0.35    0.28
   0   6  10    0.26    0.23
  -1  -6 -10    0.67    0.43
   1   6  10    0.02    0.25
   1   6  10   -0.14    0.15
  -2  -6 -10    4.37    0.90
   2   6  10    3.71    0.58
   2   6  10    4.34    0.64
  -3  -6 -10    1.54    0.63
   3   6  10    1.64    0.43
   3   6  10    1.20    0.38
  -4  -6 -10    4.43    0.86
   4   6  10    5.64    0.75
  -5  -6 -10    0.54    0.43
   5   6  10    0.32    0.28
  -6  -6 -10    0.05    0.53
   6   6  10    0.35    0.30
  -7  -6 -10    0.25    0.62
   7   6  10    0.45    0.35
  -5   7  10   -0.16    0.42
  -4   7  10    0.09    0.37
   3  -7 -10    2.52    0.82
  -3   7  10    3.45    0.79
   2  -7 -10    0.04    0.52
  -2   7  10    0.41    0.38
   1  -7 -10    3.11    0.81
  -1   7  10    3.63    0.66
  -1   7  10    4.00    0.64
   0  -7 -10    5.25    0.96
   0   7  10    4.46    0.67
   0   7  10    6.88    0.88
  -1  -7 -10    0.60    0.47
   1   7  10    1.66    0.45
   1   7  10    1.07    0.32
  -2  -7 -10    0.53    0.46
   2   7  10    0.54    0.23
   2   7  10    0.61    0.29
  -3  -7 -10    0.31    0.38
   3   7  10    0.09    0.23
   3   7  10    0.15    0.19
  -4  -7 -10    2.04    0.71
   4   7  10    2.55    0.55
  -5  -7 -10    0.37    0.50
   5   7  10    0.34    0.34
  -6  -7 -10    0.71    0.52
   6   7  10    0.01    0.29
  -7  -7 -10    0.60    0.58
   7   7  10    0.25    0.39
  -4   8  10   -0.07    0.40
   3  -8 -10    0.44    0.57
  -3   8  10    0.62    0.36
   2  -8 -10    5.25    1.08
  -2   8  10    6.07    0.86
   1  -8 -10    0.81    0.59
  -1   8  10    1.19    0.45
   0  -8 -10   -0.02    0.36
   0   8  10   -0.13    0.25
   0   8  10   -0.09    0.21
  -1  -8 -10    4.32    0.90
   1   8  10    5.22    0.68
   1   8  10    8.16    0.79
  -2  -8 -10   -0.31    0.34
   2   8  10    0.26    0.28
   2   8  10    0.10    0.20
  -3  -8 -10   -0.14    0.39
   3   8  10   -0.05    0.17
   3   8  10   -0.20    0.22
  -4  -8 -10    3.11    0.80
   4   8  10    4.82    0.72
  -5  -8 -10    1.05    0.58
   5   8  10    0.31    0.28
  -6  -8 -10   -0.29    0.49
   6   8  10    0.48    0.34
   7   8  10    0.23    0.38
  -4   9  10    0.24    0.44
   3  -9 -10   -0.82    0.51
  -3   9  10    0.05    0.28
   2  -9 -10   -0.50    0.58
  -2   9  10    0.09    0.28
   1  -9 -10    4.61    1.09
  -1   9  10    6.18    0.95
   0  -9 -10   -0.57    0.44
   0   9  10   -0.03    0.26
  -1  -9 -10    0.77    0.71
   1   9  10    0.64    0.26
   1   9  10    1.23    0.38
  -2  -9 -10    0.42    0.41
   2   9  10   -0.01    0.20
   2   9  10   -0.05    0.24
  -3  -9 -10    0.26    0.44
   3   9  10    0.55    0.28
   3   9  10    0.20    0.27
  -4  -9 -10    2.17    0.77
   4   9  10    2.92    0.57
   4   9  10    2.09    0.47
  -5  -9 -10    0.56    0.55
   5   9  10    0.32    0.23
  -6  -9 -10    0.27    0.62
   6   9  10   -0.20    0.29
   7   9  10    0.93    0.49
   4 -10 -10    0.86    0.92
   3 -10 -10    0.85    0.81
  -3  10  10    0.13    0.31
   2 -10 -10   -0.25    0.54
  -2  10  10   -0.06    0.27
   1 -10 -10    1.14    0.66
  -1  10  10    0.37    0.31
   0 -10 -10    1.23    0.71
   0  10  10    0.29    0.32
  -1 -10 -10    0.54    0.66
   1  10  10   -0.03    0.29
  -2 -10 -10    0.59    0.56
   2  10  10    0.21    0.27
   2  10  10   -0.04    0.21
  -3 -10 -10    1.41    0.64
   3  10  10    1.08    0.39
   3  10  10    1.69    0.47
  -4 -10 -10   -0.11    0.47
   4  10  10   -0.06    0.26
   4  10  10    0.36    0.27
  -5 -10 -10   -0.80    0.42
   5  10  10   -0.08    0.24
  -6 -10 -10   -0.17    0.58
   6  10  10    0.32    0.33
   3 -11 -10   -0.39    0.80
   2 -11 -10   -1.40    0.52
  -2  11  10    0.23    0.27
   1 -11 -10    0.26    0.60
  -1  11  10   -0.09    0.19
   0 -11 -10    0.62    0.72
   0  11  10    0.06    0.30
  -1 -11 -10   -0.08    0.49
   1  11  10    0.18    0.30
  -2 -11 -10    3.25    1.05
   2  11  10    4.39    0.73
  -3 -11 -10    1.93    0.78
   3  11  10    1.60    0.42
   3  11  10    3.19    0.61
  -4 -11 -10    0.69    0.65
   4  11  10    1.24    0.41
   4  11  10    1.21    0.43
  -5 -11 -10    0.57    0.50
   5  11  10    0.13    0.35
   6  11  10    1.85    0.55
   1 -12 -10    0.10    0.76
  -1  12  10    0.29    0.33
   0 -12 -10    0.52    0.79
   0  12  10    0.18    0.36
  -1 -12 -10    1.39    0.79
   1  12  10    1.32    0.48
  -2 -12 -10   -0.19    0.56
   2  12  10    0.28    0.32
  -3 -12 -10    0.22    0.59
   3  12  10    1.20    0.48
  -4 -12 -10    0.71    0.66
   4  12  10    0.54    0.35
   4  12  10    0.33    0.40
  -5 -12 -10    0.63    0.62
   5  12  10   -0.08    0.25
   5  12  10   -0.32    0.38
   6  12  10    0.11    0.33
   0 -13 -10    0.02    0.89
   0  13  10   -0.02    0.29
  -1 -13 -10   -0.22    0.76
   1  13  10    0.32    0.35
  -2 -13 -10    0.92    0.77
   2  13  10    0.26    0.39
  -3 -13 -10    0.58    0.70
   3  13  10    0.45    0.39
  -4 -13 -10    0.12    0.70
   4  13  10   -0.03    0.43
  -5 -13 -10   -0.42    0.67
   5  13  10   -0.59    0.23
   5  13  10    0.27    0.44
   2   6 -11    3.09    0.85
  -2  -6  11    1.96    0.89
   3   5 -11    0.03    0.58
  -3  -5  11   -0.64    0.60
   2   5 -11    0.42    0.53
  -2  -5  11   -0.26    0.68
  -1  -5  11   -0.18    0.59
  -2   5 -11   -0.54    0.71
   4   4 -11   -0.18    0.50
  -4  -4  11    0.40    0.72
   3   4 -11   -0.22    0.48
  -3  -4  11    0.65    0.60
  -2  -4  11   -0.25    0.52
  -1  -4  11    0.79    0.56
  -1  -4  11    0.55    0.59
   0  -4  11    0.49    0.50
  -1   4 -11    0.14    0.67
  -2   4 -11   -0.59    0.78
  -3   4 -11    0.18    0.80
   4   3 -11    0.58    0.57
  -4  -3  11    0.76    0.72
   3   3 -11   -0.39    0.45
  -3  -3  11   -0.26    0.56
  -2  -3  11    0.42    0.60
  -1  -3  11    0.41    0.53
  -1  -3  11   -0.06    0.42
   0  -3  11    1.80    0.62
  -1   3 -11   -0.34    0.59
   1  -3  11    0.12    0.40
  -2   3 -11    0.39    0.69
  -3   3 -11    0.12    0.79
  -4   3 -11   -0.21    0.66
   4   2 -11    0.83    0.66
  -4  -2  11    0.76    0.68
   3   2 -11   -0.58    0.40
  -3  -2  11   -0.06    0.52
  -2  -2  11    3.16    0.83
  -2  -2  11    3.13    0.81
  -1  -2  11    0.03    0.40
  -1  -2  11    0.06    0.45
   0  -2  11   -0.37    0.43
   0  -2  11   -0.47    0.31
  -1   2 -11    0.88    0.65
   1  -2  11    1.51    0.52
  -2   2 -11    0.42    0.72
   2  -2  11    0.02    0.34
  -3   2 -11    0.52    0.60
  -4   2 -11    1.89    0.87
   5   1 -11    1.32    0.74
  -5  -1  11    0.04    0.58
   4   1 -11    0.18    0.53
  -4  -1  11    0.81    0.67
  -3  -1  11    0.72    0.59
  -2  -1  11   -0.25    0.42
  -2  -1  11    0.04    0.43
  -1  -1  11    0.01    0.35
  -1  -1  11    0.09    0.41
   0   1 -11    0.41    0.53
   0  -1  11    0.73    0.53
   0  -1  11    0.08    0.35
  -1   1 -11    0.65    0.66
   1  -1  11    0.78    0.42
  -2   1 -11    3.23    0.99
   2  -1  11    2.13    0.59
  -3   1 -11   -0.11    0.62
   3  -1  11   -0.26    0.32
  -4   1 -11    0.65    0.68
  -5   1 -11    0.27    0.77
   5   0 -11   -0.47    0.53
  -5   0  11    0.04    0.52
   4   0 -11    0.90    0.55
  -4   0  11    0.42    0.62
  -3   0  11    0.32    0.53
  -2   0  11    0.53    0.48
  -2   0  11    1.55    0.60
  -1   0  11    0.40    0.37
  -1   0  11    0.59    0.47
   0   0 -11    0.45    0.44
   0   0  11    0.25    0.34
   0   0  11    0.13    0.38
  -1   0 -11   -0.47    0.46
   1   0  11    0.24    0.30
  -2   0 -11   -0.42    0.44
   2   0  11    0.36    0.34
  -3   0 -11    0.34    0.59
   3   0  11    0.24    0.30
  -4   0 -11    0.34    0.65
   4   0  11    0.14    0.30
  -5   0 -11    0.06    0.72
   5  -1 -11   -0.90    0.43
  -5   1  11    0.22    0.51
   4  -1 -11    0.14    0.50
  -4   1  11    0.42    0.57
  -3   1  11   -0.19    0.43
  -3   1  11    0.34    0.43
  -2   1  11    0.46    0.43
  -2   1  11    0.32    0.43
   1  -1 -11    2.19    0.63
  -1   1  11    2.44    0.67
  -1   1  11    0.58    0.46
   0  -1 -11    7.08    1.06
   0   1  11    5.98    0.89
   0   1  11    7.81    1.08
  -1  -1 -11   -0.22    0.41
   1   1  11    0.41    0.32
   1   1  11   -0.05    0.30
  -2  -1 -11    1.40    0.62
   2   1  11    1.06    0.43
  -3  -1 -11    1.42    0.66
   3   1  11    1.21    0.41
  -4  -1 -11    1.30    0.87
   4   1  11    0.88    0.39
  -5  -1 -11   -0.28    0.53
   5   1  11   -0.04    0.28
  -6  -1 -11    0.32    0.78
   5  -2 -11   -0.08    0.58
  -5   2  11   -0.12    0.40
   4  -2 -11   -0.29    0.44
  -4   2  11   -0.02    0.41
  -3   2  11   -0.05    0.42
  -3   2  11    0.37    0.45
  -2   2  11    0.21    0.36
  -2   2  11    0.22    0.41
   1  -2 -11    0.42    0.36
  -1   2  11   -0.05    0.30
  -1   2  11   -0.19    0.28
   0  -2 -11    7.69    1.04
   0   2  11   10.48    1.20
   0   2  11    6.25    0.90
  -1  -2 -11    4.05    0.85
   1   2  11    3.00    0.61
   1   2  11    4.41    0.75
  -2  -2 -11    7.26    1.20
   2   2  11    9.81    0.89
  -3  -2 -11   -0.52    0.40
   3   2  11    0.15    0.27
  -4  -2 -11    1.11    0.77
   4   2  11    1.27    0.43
  -5  -2 -11    0.34    0.62
   5   2  11   -0.30    0.25
  -6  -2 -11    0.78    0.87
   6   2  11    0.08    0.28
   5  -3 -11   -0.18    0.56
  -5   3  11    1.11    0.53
   4  -3 -11    0.02    0.46
  -4   3  11    0.67    0.60
  -3   3  11    1.69    0.61
  -3   3  11    3.07    0.75
  -2   3  11    0.06    0.42
  -2   3  11    1.37    0.48
   1  -3 -11    0.52    0.42
  -1   3  11    0.36    0.35
  -1   3  11    0.74    0.44
   0  -3 -11    1.54    0.58
   0   3  11    1.29    0.42
   0   3  11    2.24    0.59
  -1  -3 -11    9.16    1.26
   1   3  11   11.12    1.02
   1   3  11   10.22    1.11
  -2  -3 -11   -0.21    0.37
   2   3  11    0.02    0.22
  -3  -3 -11    0.47    0.45
   3   3  11    0.71    0.32
  -4  -3 -11   -0.13    0.50
   4   3  11   -0.03    0.19
  -5  -3 -11    3.65    1.04
   5   3  11    2.31    0.49
  -6  -3 -11   -0.08    0.76
   6   3  11    0.16    0.31
  -7  -3 -11   -0.01    0.98
   7   3  11    0.19    0.41
  -5   4  11    1.03    0.57
   4  -4 -11    1.02    0.53
  -4   4  11   -0.09    0.42
  -3   4  11    0.78    0.58
  -3   4  11    1.54    0.67
   2  -4 -11    1.36    0.71
  -2   4  11    3.67    0.78
  -2   4  11    4.71    0.92
   1  -4 -11   -0.53    0.42
  -1   4  11    0.40    0.38
  -1   4  11   -0.06    0.21
   0  -4 -11    0.71    0.49
   0   4  11    1.17    0.47
   0   4  11    0.38    0.30
  -1  -4 -11   -0.77    0.37
   1   4  11    0.04    0.23
   1   4  11   -0.29    0.27
  -2  -4 -11    3.11    0.81
   2   4  11    3.93    0.61
   2   4  11    3.51    0.65
  -3  -4 -11    2.73    0.82
   3   4  11    1.45    0.36
  -4  -4 -11   -0.03    0.38
   4   4  11    0.24    0.24
  -5  -4 -11    1.43    0.63
   5   4  11    2.25    0.51
  -6  -4 -11    0.75    0.79
   6   4  11    0.02    0.34
  -7  -4 -11    0.36    0.79
   7   4  11    0.67    0.38
  -5   5  11   -0.24    0.44
  -4   5  11    0.46    0.44
  -3   5  11    0.15    0.40
  -3   5  11   -0.06    0.43
   2  -5 -11   -0.49    0.44
  -2   5  11   -0.15    0.35
  -2   5  11    0.09    0.33
   1  -5 -11    0.65    0.52
  -1   5  11    2.02    0.59
  -1   5  11    2.06    0.50
   0  -5 -11    0.95    0.54
   0   5  11    0.81    0.44
   0   5  11    0.73    0.33
  -1  -5 -11    1.31    0.49
   1   5  11    1.46    0.52
   1   5  11    1.37    0.39
  -2  -5 -11    0.36    0.51
   2   5  11    0.99    0.37
   2   5  11    0.73    0.35
  -3  -5 -11    3.08    0.82
   3   5  11    5.83    0.76
  -4  -5 -11    0.44    0.48
   4   5  11    0.24    0.22
  -5  -5 -11   -0.18    0.50
   5   5  11    0.23    0.27
  -6  -5 -11   -0.16    0.59
   6   5  11    0.57    0.36
  -7  -5 -11    1.38    0.89
   7   5  11    0.61    0.41
  -4   6  11   -0.42    0.30
  -3   6  11    0.13    0.37
   2  -6 -11    2.41    0.73
  -2   6  11    1.44    0.56
  -2   6  11    2.06    0.55
   1  -6 -11   -0.77    0.45
  -1   6  11   -0.13    0.35
  -1   6  11   -0.06    0.24
   0  -6 -11    1.47    0.60
   0   6  11    1.60    0.54
   0   6  11    1.37    0.42
  -1  -6 -11    1.13    0.53
   1   6  11    1.95    0.54
   1   6  11    2.75    0.55
  -2  -6 -11    2.61    0.72
   2   6  11    2.41    0.46
   2   6  11    4.69    0.72
  -3  -6 -11    0.76    0.56
   3   6  11    0.57    0.29
  -4  -6 -11    0.24    0.42
   4   6  11    0.19    0.27
  -5  -6 -11    0.11    0.49
   5   6  11    0.36    0.28
  -6  -6 -11    0.81    0.63
   6   6  11   -0.11    0.25
  -7  -6 -11    0.28    0.71
   7   6  11    0.43    0.38
  -4   7  11    0.51    0.45
  -3   7  11    0.09    0.37
   2  -7 -11   -0.18    0.54
  -2   7  11   -0.10    0.38
   1  -7 -11    0.28    0.55
  -1   7  11    0.23    0.24
  -1   7  11    2.24    0.65
   0  -7 -11    0.37    0.43
   0   7  11    0.30    0.34
   0   7  11    0.41    0.28
  -1  -7 -11    7.85    1.24
   1   7  11    8.77    0.83
   1   7  11   11.61    1.03
  -2  -7 -11    1.68    0.74
   2   7  11    1.61    0.42
   2   7  11    2.99    0.58
  -3  -7 -11    0.46    0.43
   3   7  11    0.10    0.20
   3   7  11   -0.09    0.29
  -4  -7 -11    0.83    0.53
   4   7  11    0.91    0.33
  -5  -7 -11   -0.84    0.42
   5   7  11    0.03    0.29
  -6  -7 -11   -0.27    0.55
   6   7  11    0.30    0.32
  -7  -7 -11    0.65    0.69
  -4   8  11    0.65    0.50
   3  -8 -11    0.58    0.67
  -3   8  11    0.15    0.38
   2  -8 -11    1.04    0.66
  -2   8  11    1.12    0.49
   1  -8 -11   -0.61    0.48
  -1   8  11    0.17    0.30
  -1   8  11   -0.02    0.27
   0  -8 -11   -0.37    0.44
   0   8  11    0.02    0.19
   0   8  11   -0.03    0.31
  -1  -8 -11    0.08    0.41
   1   8  11   -0.22    0.29
   1   8  11   -0.17    0.21
  -2  -8 -11    3.44    0.96
   2   8  11    5.17    0.76
   2   8  11    5.01    0.71
  -3  -8 -11   -0.07    0.35
   3   8  11   -0.09    0.16
   3   8  11    0.01    0.26
  -4  -8 -11    0.41    0.45
   4   8  11    0.22    0.25
  -5  -8 -11    0.83    0.56
   5   8  11    0.40    0.29
  -6  -8 -11    0.08    0.56
   6   8  11    0.19    0.35
  -7  -8 -11    1.22    0.73
   3  -9 -11    0.77    0.70
  -3   9  11    1.02    0.50
   2  -9 -11   -0.51    0.68
  -2   9  11    0.52    0.37
   1  -9 -11   -0.04    0.54
  -1   9  11   -0.03    0.34
   0  -9 -11    0.23    0.47
   0   9  11    0.04    0.30
  -1  -9 -11   -0.34    0.52
   1   9  11    0.02    0.22
   1   9  11    0.45    0.35
  -2  -9 -11    0.03    0.45
   2   9  11    0.32    0.33
   2   9  11    0.52    0.28
  -3  -9 -11    0.41    0.49
   3   9  11   -0.14    0.16
   3   9  11    0.26    0.33
  -4  -9 -11    0.09    0.47
   4   9  11    0.49    0.28
  -5  -9 -11    0.54    0.62
   5   9  11    1.28    0.45
  -6  -9 -11   -0.45    0.50
   6   9  11   -0.16    0.27
   3 -10 -11   -1.12    0.60
   2 -10 -11   -0.17    0.70
  -2  10  11    0.31    0.32
   1 -10 -11    0.19    0.63
  -1  10  11   -0.07    0.31
   0 -10 -11    0.02    0.53
   0  10  11    0.31    0.38
  -1 -10 -11   -0.05    0.59
   1  10  11    0.23    0.32
  -2 -10 -11   -0.34    0.48
   2  10  11    0.04    0.29
   2  10  11    0.51    0.25
  -3 -10 -11    0.20    0.46
   3  10  11   -0.01    0.23
   3  10  11    0.09    0.33
  -4 -10 -11   -0.21    0.45
   4  10  11   -0.10    0.31
   4  10  11    0.06    0.21
  -5 -10 -11   -0.47    0.54
   5  10  11   -0.01    0.24
  -6 -10 -11   -0.63    0.55
   6  10  11    0.01    0.29
   2 -11 -11    0.13    0.80
   1 -11 -11    0.71    0.69
  -1  11  11    0.26    0.32
   0 -11 -11   -0.07    0.62
   0  11  11    0.18    0.30
  -1 -11 -11   -0.51    0.64
   1  11  11    0.00    0.30
  -2 -11 -11   -0.09    0.51
   2  11  11   -0.27    0.31
  -3 -11 -11    1.44    0.77
   3  11  11    1.79    0.49
   3  11  11    1.75    0.45
  -4 -11 -11    1.76    0.75
   4  11  11    1.38    0.46
   4  11  11    2.20    0.59
  -5 -11 -11   -0.21    0.54
   5  11  11    0.58    0.35
  -6 -11 -11    0.20    0.68
   0 -12 -11    1.12    0.85
   0  12  11    0.31    0.36
  -1 -12 -11   -0.18    0.65
   1  12  11    0.07    0.33
  -2 -12 -11   -0.40    0.60
   2  12  11    0.10    0.34
  -3 -12 -11    0.73    0.65
   3  12  11    0.33    0.38
  -4 -12 -11    0.04    0.61
   4  12  11    0.26    0.28
   4  12  11   -0.15    0.34
  -5 -12 -11   -0.37    0.66
   5  12  11    0.03    0.27
  -2 -13 -11    0.26    0.70
   2  13  11    0.26    0.38
  -3 -13 -11   -0.14    0.66
   3  13  11    0.08    0.39
  -4 -13 -11    0.33    0.72
   4  13  11   -0.15    0.38
   5  13  11   -0.28    0.26
   2   5 -12    0.88    0.71
  -2   5 -12   -0.20    0.74
   2   4 -12    1.50    0.73
  -2  -4  12    0.75    0.68
   0  -4  12    0.01    0.58
  -2   4 -12    0.30    0.76
   3   3 -12   -0.08    0.51
  -3  -3  12    0.51    0.67
  -2  -3  12    0.55    0.60
  -1  -3  12    0.12    0.48
  -1  -3  12   -0.23    0.48
   0  -3  12    0.20    0.52
  -1   3 -12    0.23    0.79
   1  -3  12    1.07    0.57
  -2   3 -12    0.64    0.80
  -3   3 -12    0.57    0.91
   3   2 -12   -0.44    0.44
  -3  -2  12    0.30    0.56
  -2  -2  12   -0.04    0.50
  -2  -2  12   -0.30    0.41
  -1  -2  12    0.57    0.57
  -1  -2  12    0.68    0.59
   0  -2  12    1.43    0.59
  -1   2 -12    1.24    0.77
   1  -2  12    1.91    0.72
  -2   2 -12    0.31    0.74
   2  -2  12    0.62    0.47
  -3   2 -12    0.27    0.73
  -4   2 -12   -0.45    0.67
   4   1 -12   -0.02    0.56
  -4  -1  12    1.55    0.80
  -3  -1  12    0.28    0.59
  -2  -1  12   -0.50    0.48
  -2  -1  12    0.13    0.45
  -1  -1  12    0.14    0.50
  -1  -1  12    0.02    0.45
   0  -1  12    0.93    0.51
   0  -1  12    0.57    0.54
  -1   1 -12   -0.22    0.59
   1  -1  12    0.09    0.39
  -2   1 -12    0.38    0.68
   2  -1  12   -0.30    0.33
  -3   1 -12    0.00    0.72
   3  -1  12   -0.01    0.37
  -4   1 -12    1.21    0.81
   4   0 -12    0.41    0.51
  -4   0  12    0.69    0.64
  -3   0  12    0.56    0.61
  -2   0  12    0.81    0.57
  -2   0  12    0.36    0.44
  -1   0  12    0.19    0.46
  -1   0  12    0.13    0.36
   0   0 -12   -0.50    0.46
   0   0  12   -0.05    0.35
   0   0  12   -0.09    0.46
  -1   0 -12    0.56    0.62
   1   0  12    0.15    0.37
  -2   0 -12    0.18    0.60
   2   0  12    0.18    0.34
  -3   0 -12   -1.28    0.53
   3   0  12    0.25    0.37
  -4   0 -12    0.36    0.72
   4   0  12    0.22    0.32
  -5   0 -12    0.94    1.00
   4  -1 -12   -0.03    0.51
  -4   1  12    0.23    0.56
  -3   1  12    0.15    0.61
  -3   1  12    0.20    0.43
  -2   1  12   -0.05    0.48
  -2   1  12   -0.43    0.34
  -1   1  12    0.19    0.37
  -1   1  12    0.29    0.46
   0  -1 -12   -0.19    0.39
   0   1  12   -0.02    0.31
   0   1  12    0.44    0.47
  -1  -1 -12    0.03    0.53
   1   1  12    0.46    0.35
  -2  -1 -12   -0.34    0.50
   2   1  12    0.53    0.39
  -3  -1 -12    0.20    0.54
   3   1  12    0.01    0.29
  -4  -1 -12    0.16    0.70
   4   1  12   -0.20    0.28
  -5  -1 -12   -0.18    0.77
   5   1  12   -0.15    0.30
   4  -2 -12    0.09    0.56
  -4   2  12   -0.13    0.53
  -3   2  12    0.26    0.43
  -3   2  12    0.07    0.40
  -2   2  12    0.26    0.48
  -2   2  12   -0.04    0.34
  -1   2  12    1.00    0.52
  -1   2  12    0.42    0.42
   0  -2 -12    1.03    0.53
   0   2  12    0.57    0.39
   0   2  12    1.00    0.47
  -1  -2 -12    0.17    0.50
   1   2  12    0.16    0.40
   1   2  12    0.20    0.32
  -2  -2 -12    0.55    0.53
   2   2  12    0.76    0.41
  -3  -2 -12    0.29    0.57
   3   2  12    0.37    0.33
  -4  -2 -12    0.41    0.62
   4   2  12    0.04    0.29
  -5  -2 -12   -0.25    0.65
   5   2  12   -0.33    0.24
   6   2  12    0.77    0.41
   4  -3 -12    0.37    0.50
  -4   3  12   -0.23    0.50
  -3   3  12   -0.05    0.45
  -3   3  12    0.38    0.50
  -2   3  12    0.23    0.45
  -2   3  12    0.13    0.35
   1  -3 -12   -0.06    0.47
  -1   3  12    0.07    0.46
  -1   3  12   -0.18    0.25
   0  -3 -12    0.05    0.42
   0   3  12    0.59    0.45
   0   3  12    0.42    0.35
  -1  -3 -12    0.55    0.49
   1   3  12   -0.38    0.36
   1   3  12   -0.20    0.25
  -2  -3 -12    2.77    0.79
   2   3  12    2.39    0.55
  -3  -3 -12    0.12    0.44
   3   3  12    0.72    0.36
  -4  -3 -12    0.65    0.59
   4   3  12    0.27    0.28
  -5  -3 -12    0.27    0.75
   5   3  12    0.23    0.28
  -6  -3 -12    0.36    0.80
   6   3  12    0.83    0.46
   4  -4 -12    1.70    0.67
  -4   4  12    1.11    0.60
  -3   4  12    0.00    0.51
  -3   4  12    0.85    0.57
  -2   4  12    0.17    0.45
  -2   4  12   -0.01    0.32
   1  -4 -12   -0.10    0.49
  -1   4  12   -0.02    0.23
  -1   4  12   -0.42    0.36
   0  -4 -12   -0.27    0.45
   0   4  12    0.16    0.25
   0   4  12   -0.07    0.34
  -1  -4 -12    1.94    0.66
   1   4  12    3.01    0.67
   1   4  12    2.46    0.59
  -2  -4 -12   -0.28    0.36
   2   4  12    0.02    0.23
  -3  -4 -12    2.88    0.88
   3   4  12    4.18    0.67
  -4  -4 -12    0.03    0.51
   4   4  12    0.43    0.29
  -5  -4 -12    1.68    0.78
   5   4  12    1.54    0.47
  -6  -4 -12    1.99    0.93
   6   4  12    1.84    0.53
  -4   5  12    0.15    0.47
  -3   5  12    2.91    0.80
  -3   5  12    1.75    0.66
  -2   5  12    0.71    0.43
  -2   5  12    0.75    0.53
   1  -5 -12   -0.42    0.42
  -1   5  12    0.49    0.45
  -1   5  12    0.45    0.33
   0  -5 -12    0.25    0.49
   0   5  12   -0.10    0.23
   0   5  12   -0.36    0.32
  -1  -5 -12    1.39    0.60
   1   5  12    1.45    0.58
   1   5  12    0.40    0.28
  -2  -5 -12    0.13    0.49
   2   5  12    0.83    0.33
   2   5  12    0.48    0.42
  -3  -5 -12   -0.10    0.44
   3   5  12   -0.06    0.20
  -4  -5 -12    0.03    0.45
   4   5  12   -0.07    0.22
  -5  -5 -12    0.62    0.70
   5   5  12    1.27    0.41
  -6  -5 -12   -0.20    0.66
   6   5  12    0.15    0.33
  -3   6  12    0.25    0.43
   2  -6 -12   -0.44    0.56
  -2   6  12    0.42    0.44
  -2   6  12    0.44    0.42
   1  -6 -12   -0.30    0.53
  -1   6  12    0.34    0.27
  -1   6  12   -0.17    0.42
   0  -6 -12    0.36    0.56
   0   6  12    0.74    0.51
   0   6  12   -0.04    0.24
  -1  -6 -12    2.02    0.68
   1   6  12    1.11    0.36
   1   6  12    2.95    0.69
  -2  -6 -12    0.21    0.43
   2   6  12    0.19    0.24
   2   6  12    0.26    0.35
  -3  -6 -12    1.51    0.73
   3   6  12    1.26    0.41
  -4  -6 -12    0.44    0.52
   4   6  12    0.02    0.24
  -5  -6 -12   -0.08    0.50
   5   6  12   -0.27    0.23
  -6  -6 -12    0.75    0.70
   6   6  12    0.04    0.33
  -3   7  12    1.04    0.54
   2  -7 -12   -0.65    0.53
  -2   7  12   -0.38    0.35
  -2   7  12    0.07    0.43
   1  -7 -12   -0.33    0.51
  -1   7  12    0.26    0.30
  -1   7  12   -0.14    0.42
   0  -7 -12    0.20    0.40
   0   7  12    0.17    0.27
   0   7  12   -0.11    0.31
  -1  -7 -12    3.13    0.88
   1   7  12    5.26    0.86
   1   7  12    2.64    0.52
  -2  -7 -12    0.06    0.49
   2   7  12    0.06    0.30
   2   7  12    0.13    0.23
  -3  -7 -12    0.55    0.54
   3   7  12    0.14    0.23
  -4  -7 -12    0.16    0.56
   4   7  12    0.21    0.25
  -5  -7 -12    0.85    0.80
   5   7  12    0.68    0.37
  -6  -7 -12    1.36    0.81
   6   7  12    0.37    0.35
  -3   8  12    0.61    0.52
   2  -8 -12    1.09    0.61
  -2   8  12    0.05    0.41
   1  -8 -12   -0.87    0.55
  -1   8  12   -0.27    0.33
  -1   8  12    0.30    0.35
   0  -8 -12   -0.48    0.49
   0   8  12    0.83    0.46
   0   8  12    0.77    0.37
  -1  -8 -12    0.95    0.63
   1   8  12    1.58    0.55
   1   8  12    1.31    0.41
  -2  -8 -12   -0.21    0.50
   2   8  12    0.14    0.24
   2   8  12    0.72    0.47
  -3  -8 -12    0.16    0.46
   3   8  12    0.04    0.34
   3   8  12    0.37    0.29
  -4  -8 -12    0.96    0.56
   4   8  12    0.16    0.21
  -5  -8 -12   -0.14    0.46
   5   8  12    0.00    0.27
  -6  -8 -12    0.86    0.76
   6   8  12    0.72    0.41
   2  -9 -12    0.92    0.79
  -2   9  12    1.61    0.65
   1  -9 -12   -0.23    0.61
  -1   9  12    0.03    0.38
   0  -9 -12    0.07    0.51
   0   9  12    0.17    0.38
   0   9  12   -0.16    0.31
  -1  -9 -12    0.79    0.62
   1   9  12    0.79    0.44
   1   9  12    0.15    0.24
  -2  -9 -12    0.53    0.58
   2   9  12   -0.08    0.32
   2   9  12   -0.07    0.22
  -3  -9 -12   -0.19    0.46
   3   9  12    0.27    0.24
   3   9  12    0.14    0.38
  -4  -9 -12    0.23    0.54
   4   9  12    0.31    0.29
  -5  -9 -12   -0.35    0.53
   5   9  12   -0.12    0.23
  -6  -9 -12    0.16    0.66
   2 -10 -12   -0.58    0.74
   1 -10 -12    0.71    0.69
  -1  10  12    0.32    0.37
   0 -10 -12   -0.23    0.58
   0  10  12    0.13    0.40
  -1 -10 -12    0.29    0.65
   1  10  12    0.06    0.39
   1  10  12   -0.53    0.21
  -2 -10 -12    2.61    0.99
   2  10  12    2.45    0.58
   2  10  12    0.88    0.35
  -3 -10 -12    0.13    0.48
   3  10  12    0.02    0.28
   3  10  12    0.44    0.39
  -4 -10 -12    0.30    0.54
   4  10  12   -0.24    0.21
  -5 -10 -12   -0.83    0.51
   5  10  12    0.10    0.25
  -6 -10 -12    0.06    0.67
   1 -11 -12    0.62    0.81
   0 -11 -12    0.12    0.59
   0  11  12   -0.41    0.36
  -1 -11 -12   -0.59    0.63
   1  11  12    0.28    0.36
  -2 -11 -12    1.27    0.76
   2  11  12    2.72    0.66
  -3 -11 -12    0.21    0.63
   3  11  12    0.63    0.43
   3  11  12   -0.02    0.25
  -4 -11 -12    0.96    0.58
   4  11  12   -0.19    0.24
  -5 -11 -12    0.89    0.78
   5  11  12    0.64    0.34
  -1 -12 -12   -0.30    0.77
   1  12  12    0.19    0.43
  -2 -12 -12    0.33    0.70
   2  12  12    0.26    0.39
  -3 -12 -12    0.26    0.64
   3  12  12    0.33    0.44
  -4 -12 -12    0.69    0.78
   4  12  12    0.40    0.47
   4  12  12    0.13    0.31
  -2  -3  13    0.89    0.74
  -1  -3  13    0.36    0.65
   0  -3  13    1.24    0.66
   1  -3  13   -0.30    0.57
  -2   3 -13    0.45    0.83
  -2  -2  13   -1.18    0.59
  -1  -2  13    0.03    0.67
  -1  -2  13    0.32    0.53
   0  -2  13    0.72    0.55
   1  -2  13    1.42    0.62
  -2   2 -13    0.76    0.74
   2  -2  13    0.95    0.59
  -3   2 -13    1.02    1.07
  -2  -1  13    0.45    0.50
  -2  -1  13    0.52    0.62
  -1  -1  13   -0.12    0.48
  -1  -1  13    0.27    0.58
   0  -1  13    1.63    0.66
  -1   1 -13    0.17    0.63
   1  -1  13    0.45    0.48
  -2   1 -13    1.03    0.88
   2  -1  13    1.44    0.55
  -3   1 -13    0.47    0.78
   3  -1  13    0.94    0.52
  -3   0  13    0.42    0.60
  -2   0  13   -0.09    0.55
  -2   0  13    0.18    0.53
  -1   0  13    0.17    0.58
  -1   0  13    0.18    0.40
   0   0  13    0.68    0.54
  -1   0 -13    0.58    0.60
   1   0  13    0.55    0.41
  -2   0 -13   -0.15    0.72
   2   0  13   -0.12    0.39
  -3   0 -13    0.00    0.57
   3   0  13    0.05    0.38
  -4   0 -13   -0.16    0.71
   4   0  13    0.31    0.45
  -3   1  13    0.87    0.62
  -2   1  13    0.13    0.57
  -2   1  13   -0.30    0.42
  -1   1  13    0.32    0.43
  -1   1  13    0.31    0.56
   0  -1 -13   -0.05    0.67
   0   1  13   -0.28    0.35
   0   1  13   -0.04    0.50
  -1  -1 -13   -0.50    0.52
   1   1  13   -0.18    0.33
  -2  -1 -13    0.18    0.64
   2   1  13   -0.24    0.30
  -3  -1 -13   -0.41    0.57
   3   1  13    0.27    0.38
  -4  -1 -13    0.22    0.81
   4   1  13    0.44    0.40
   5   1  13    0.45    0.44
  -3   2  13    1.29    0.65
  -3   2  13    0.27    0.63
  -2   2  13    0.24    0.51
  -2   2  13   -0.22    0.43
  -1   2  13    0.45    0.48
  -1   2  13   -0.17    0.36
   0  -2 -13    0.21    0.50
   0   2  13    0.21    0.33
   0   2  13    0.69    0.54
  -1  -2 -13    0.17    0.53
   1   2  13    1.18    0.45
  -2  -2 -13    0.48    0.60
   2   2  13   -0.44    0.30
  -3  -2 -13   -0.14    0.47
   3   2  13    0.13    0.33
  -4  -2 -13    0.17    0.65
   4   2  13    0.22    0.35
   5   2  13    0.32    0.40
  -3   3  13    0.52    0.68
  -3   3  13    0.33    0.49
  -2   3  13    1.86    0.72
  -2   3  13    0.35    0.44
  -1   3  13   -0.16    0.26
  -1   3  13   -0.02    0.42
   0  -3 -13    0.02    0.40
   0   3  13    0.29    0.52
   0   3  13    0.01    0.31
  -1  -3 -13    1.64    0.70
   1   3  13    1.96    0.64
   1   3  13    2.25    0.62
  -2  -3 -13    0.54    0.53
   2   3  13    1.01    0.44
  -3  -3 -13    0.15    0.51
   3   3  13    0.33    0.34
  -4  -3 -13    0.13    0.60
   4   3  13   -0.03    0.31
  -5  -3 -13    0.00    0.53
   5   3  13    0.12    0.37
  -3   4  13    0.17    0.52
  -3   4  13    0.37    0.55
  -2   4  13    0.26    0.56
  -2   4  13   -0.01    0.33
   1  -4 -13    0.52    0.72
  -1   4  13    0.42    0.33
  -1   4  13    0.99    0.60
   0  -4 -13    0.05    0.55
   0   4  13   -0.07    0.26
   0   4  13    0.30    0.46
  -1  -4 -13    0.22    0.53
   1   4  13    1.50    0.60
   1   4  13    0.11    0.37
  -2  -4 -13    1.62    0.59
   2   4  13    1.70    0.49
  -3  -4 -13    0.17    0.51
   3   4  13    0.25    0.33
  -4  -4 -13    0.19    0.73
   4   4  13    0.26    0.30
  -5  -4 -13    0.08    0.64
   5   4  13   -0.20    0.25
  -3   5  13   -0.32    0.50
  -3   5  13    0.17    0.59
  -2   5  13    0.21    0.53
  -2   5  13    0.23    0.42
   1  -5 -13   -0.87    0.46
  -1   5  13    0.25    0.32
  -1   5  13    0.36    0.55
   0  -5 -13    0.41    0.56
   0   5  13   -0.16    0.39
   0   5  13    0.35    0.30
  -1  -5 -13    0.34    0.48
   1   5  13    0.19    0.41
   1   5  13    0.04    0.25
  -2  -5 -13    0.85    0.55
   2   5  13    1.16    0.43
  -3  -5 -13    0.30    0.51
   3   5  13    0.10    0.26
  -4  -5 -13    1.62    0.85
   4   5  13    0.86    0.38
  -5  -5 -13    0.29    0.67
   5   5  13    0.21    0.29
  -3   6  13    0.45    0.72
  -2   6  13    0.66    0.56
  -2   6  13    0.39    0.44
   1  -6 -13   -0.88    0.47
  -1   6  13   -0.32    0.40
  -1   6  13   -0.19    0.28
   0  -6 -13    0.43    0.58
   0   6  13    0.17    0.23
   0   6  13   -0.09    0.43
  -1  -6 -13   -0.08    0.46
   1   6  13    0.07    0.26
   1   6  13   -0.23    0.46
  -2  -6 -13    0.80    0.45
   2   6  13    0.19    0.26
   2   6  13   -0.07    0.40
  -3  -6 -13    0.17    0.56
   3   6  13    0.04    0.30
  -4  -6 -13   -0.06    0.57
   4   6  13   -0.08    0.23
  -5  -6 -13    0.31    0.66
   5   6  13   -0.02    0.30
  -2   7  13   -0.25    0.41
  -2   7  13   -0.24    0.41
   1  -7 -13    0.34    0.55
  -1   7  13    0.08    0.32
  -1   7  13   -0.04    0.45
   0  -7 -13    0.12    0.54
   0   7  13    0.41    0.31
   0   7  13   -0.21    0.42
  -1  -7 -13   -0.38    0.48
   1   7  13    0.44    0.29
   1   7  13   -0.12    0.40
  -2  -7 -13    0.12    0.51
   2   7  13    1.33    0.47
   2   7  13    0.74    0.50
  -3  -7 -13    0.10    0.55
   3   7  13   -0.12    0.22
  -4  -7 -13    0.06    0.55
   4   7  13   -0.21    0.23
  -5  -7 -13    0.67    0.78
   5   7  13    0.16    0.33
   2  -8 -13    0.44    0.72
  -2   8  13    0.11    0.52
   1  -8 -13   -0.35    0.64
  -1   8  13   -0.30    0.43
  -1   8  13    0.08    0.33
   0  -8 -13    0.01    0.61
   0   8  13   -0.25    0.43
   0   8  13   -0.30    0.22
  -1  -8 -13   -0.03    0.51
   1   8  13   -0.04    0.39
   1   8  13   -0.23    0.22
  -2  -8 -13    0.53    0.62
   2   8  13    0.30    0.41
   2   8  13    0.16    0.25
  -3  -8 -13    0.72    0.65
   3   8  13   -0.12    0.19
  -4  -8 -13    0.09    0.57
   4   8  13   -0.15    0.18
  -5  -8 -13    0.69    0.63
   5   8  13    0.57    0.34
   2  -9 -13    1.29    0.76
   1  -9 -13    1.65    0.86
  -1   9  13    0.77    0.54
   0  -9 -13    0.14    0.58
   0   9  13    0.17    0.35
   0   9  13    0.04    0.42
  -1  -9 -13    1.50    0.69
   1   9  13   -0.28    0.25
   1   9  13    0.59    0.44
  -2  -9 -13   -0.18    0.57
   2   9  13    0.41    0.45
   2   9  13    0.36    0.31
  -3  -9 -13   -0.58    0.57
   3   9  13    0.01    0.24
  -4  -9 -13    0.38    0.54
   4   9  13    0.30    0.24
  -5  -9 -13    0.44    0.80
   1 -10 -13    1.89    0.88
   0 -10 -13   -0.75    0.57
   0  10  13    0.31    0.39
  -1 -10 -13    0.40    0.70
   1  10  13   -0.25    0.39
   1  10  13   -0.11    0.29
  -2 -10 -13    0.64    0.74
   2  10  13    0.67    0.36
   2  10  13   -0.09    0.36
  -3 -10 -13   -0.15    0.58
   3  10  13   -0.16    0.27
   3  10  13   -0.59    0.41
  -4 -10 -13   -0.18    0.54
   4  10  13    0.39    0.30
  -1 -11 -13    1.14    0.86
   1  11  13    0.25    0.43
  -2 -11 -13    0.11    0.75
   2  11  13    0.80    0.50
   3  11  13    0.77    0.40
   3  11  13    0.52    0.48
   4  11  13   -0.15    0.27
  -1  -1  14    0.14    0.70
   1  -1  14    0.68    0.65
  -2   1 -14   -1.21    0.79
  -1   0  14   -0.05    0.60
   0   0  14   -0.21    0.44
  -1   0 -14    0.35    0.75
   1   0  14    0.34    0.52
  -2   0 -14    0.26    0.73
   2   0  14   -0.31    0.39
  -2   1  14    0.16    0.64
  -1   1  14    0.86    0.60
  -1   1  14    0.09    0.46
   0   1  14    0.23    0.48
  -1  -1 -14   -0.17    0.53
   1   1  14    0.21    0.40
  -2  -1 -14    0.20    0.70
   2   1  14    0.26    0.38
  -3  -1 -14    0.94    0.75
   3   1  14    0.33    0.42
  -2   2  14    0.18    0.52
  -2   2  14   -0.73    0.56
  -1   2  14    0.03    0.58
  -1   2  14    0.57    0.52
   0   2  14    0.43    0.58
   0   2  14    0.12    0.41
  -1  -2 -14    0.96    0.58
   1   2  14    0.15    0.41
  -2  -2 -14   -0.19    0.67
   2   2  14    0.19    0.40
  -3  -2 -14    0.23    0.70
   3   2  14    0.39    0.43
  -2   3  14    0.46    0.56
  -2   3  14    0.20    0.47
  -1   3  14    0.25    0.34
  -1   3  14    0.17    0.54
   0  -3 -14    1.27    0.56
   0   3  14    0.26    0.44
   0   3  14   -0.02    0.49
  -1  -3 -14   -0.24    0.60
   1   3  14    0.05    0.33
  -2  -3 -14    1.36    0.75
   2   3  14    0.53    0.44
  -3  -3 -14   -0.05    0.58
   3   3  14   -0.09    0.34
   4   3  14    0.41    0.41
  -2   4  14    0.29    0.56
  -2   4  14    0.23    0.35
  -1   4  14    0.79    0.66
  -1   4  14    0.00    0.30
   0  -4 -14    0.00    0.53
   0   4  14   -0.03    0.26
   0   4  14    0.48    0.60
  -1  -4 -14    1.00    0.62
   1   4  14    0.20    0.39
  -2  -4 -14    0.41    0.52
   2   4  14   -0.14    0.28
  -3  -4 -14   -0.07    0.53
   3   4  14    0.03    0.32
  -4  -4 -14    0.13    0.71
   4   4  14   -0.06    0.34
  -2   5  14   -0.04    0.59
  -2   5  14    0.21    0.49
  -1   5  14    0.32    0.58
  -1   5  14   -0.11    0.32
   0  -5 -14   -0.31    0.51
   0   5  14    0.37    0.52
   0   5  14    0.14    0.28
  -1  -5 -14    0.52    0.59
   1   5  14    0.63    0.58
   1   5  14   -0.11    0.29
  -2  -5 -14    1.78    0.72
   2   5  14    1.37    0.50
  -3  -5 -14    0.43    0.57
   3   5  14    0.33    0.34
  -4  -5 -14   -0.35    0.64
   4   5  14    0.08    0.31
  -2   6  14    0.18    0.42
   1  -6 -14   -1.01    0.56
  -1   6  14    0.07    0.50
  -1   6  14   -0.05    0.35
   0  -6 -14   -0.63    0.50
   0   6  14   -0.21    0.47
   0   6  14   -0.44    0.19
  -1  -6 -14    0.64    0.60
   1   6  14    0.31    0.51
   1   6  14    0.01    0.26
  -2  -6 -14    0.00    0.50
   2   6  14    0.02    0.25
  -3  -6 -14    1.28    0.67
   3   6  14    1.07    0.45
  -4  -6 -14   -0.46    0.70
   4   6  14    0.01    0.30
  -2   7  14    0.06    0.52
   1  -7 -14   -0.11    0.61
  -1   7  14   -0.03    0.35
  -1   7  14    0.09    0.51
   0  -7 -14    0.54    0.55
   0   7  14    0.47    0.53
   0   7  14   -0.31    0.29
  -1  -7 -14    0.24    0.61
   1   7  14   -0.06    0.25
   1   7  14   -0.37    0.45
  -2  -7 -14    0.11    0.50
   2   7  14    0.07    0.25
  -3  -7 -14    0.43    0.60
   3   7  14   -0.25    0.21
  -4  -7 -14    0.41    0.64
   4   7  14    0.01    0.31
   1  -8 -14    1.08    0.71
  -1   8  14    0.24    0.41
   0  -8 -14   -0.25    0.68
   0   8  14   -0.51    0.42
   0   8  14    0.37    0.35
  -1  -8 -14   -0.92    0.51
   1   8  14   -0.01    0.29
   1   8  14   -0.09    0.53
  -2  -8 -14   -0.16    0.58
   2   8  14   -0.04    0.25
   2   8  14   -0.16    0.49
  -3  -8 -14    1.45    0.87
   1  -9 -14    1.63    0.97
   0  -9 -14   -0.07    0.72
   0   9  14    0.37    0.35
   0   9  14   -0.27    0.52
  -1  -9 -14    0.91    0.62
   1   9  14    0.57    0.37
   1   9  14    0.35    0.54
  -2  -9 -14   -0.50    0.56
   2   9  14   -0.33    0.21
   2   9  14    0.33    0.53
  -3  -9 -14   -0.56    0.65
   3   9  14   -0.01    0.23
   1  10  14    0.20    0.36
   2  10  14   -0.06    0.46
   2  10  14   -0.42    0.21
   3  10  14   -0.01    0.28
   2  11  14   -0.46    0.32
  -1  -2 -15    0.24    0.64
  -2  -2 -15    0.26    0.73
   0   3  15    0.57    0.61
  -1  -3 -15   -0.53    0.54
  -2  -3 -15    1.00    0.73
   0   4  15    0.15    0.62
  -1  -4 -15    0.01    0.54
  -2  -4 -15    0.23    0.72
   0  -5 -15   -1.28    0.56
   0   5  15    0.97    0.74
  -1  -5 -15   -0.71    0.55
   1   5  15    0.35    0.37
  -2  -5 -15   -0.15    0.53
   0  -6 -15   -0.01    0.56
   0   6  15    0.10    0.32
   0   6  15   -0.27    0.59
  -1  -6 -15   -0.14    0.67
   1   6  15   -0.02    0.28
   1   6  15    0.71    0.65
  -2  -6 -15   -0.39    0.52
   0  -7 -15    1.03    0.60
   0   7  15   -0.05    0.33
  -1  -7 -15   -0.38    0.68
   1   7  15    0.36    0.58
   1   7  15   -0.19    0.27
   1   8  15    0.39    0.63
   0   0   0    0.00    0.00
;
_shelx_hkl_checksum              11548
loop_
_space_group_symop_operation_xyz
'x, y, z'
'-x, -y, -z'
loop_
_atom_site_label
_atom_site_type_symbol
_atom_site_fract_x
_atom_site_fract_y
_atom_site_fract_z
_atom_site_U_iso_or_equiv
_atom_site_adp_type
_atom_site_occupancy
_atom_site_site_symmetry_order
_atom_site_calc_flag
_atom_site_refinement_flags_posn
_atom_site_refinement_flags_adp
O1 O 0.4156(2) 0.12774(13) 0.39312(13) 0.0508(4) Uani 1 1 d . .
O2 O 0.2858(3) -0.08872(14) 0.44011(17) 0.0561(5) Uani 1 1 d . .
F5 F 0.0864(2) -0.14424(13) 0.29428(16) 0.0876(5) Uani 1 1 d . .
F2 F 0.6469(2) -0.08960(14) 0.30868(16) 0.0861(5) Uani 1 1 d . .
F1 F 0.4870(2) -0.21564(13) 0.28168(16) 0.0875(5) Uani 1 1 d . .
F6 F -0.0458(2) 0.04500(14) 0.30362(16) 0.0836(5) Uani 1 1 d . .
F4 F 0.1156(3) 0.01755(15) 0.13844(16) 0.0922(6) Uani 1 1 d . .
F3 F 0.5139(3) -0.04541(15) 0.13571(17) 0.0965(6) Uani 1 1 d . .
C3 C 0.3086(3) 0.12059(19) 0.2957(2) 0.0422(6) Uani 1 1 d . .
C2 C 0.3014(3) -0.01990(19) 0.3134(2) 0.0446(6) Uani 1 1 d . .
C12 C 0.1244(4) 0.3163(2) 0.3718(2) 0.0492(6) Uani 1 1 d . .
C4 C 0.2020(4) 0.1770(2) 0.3933(2) 0.0499(6) Uani 1 1 d . .
H4 H 0.1262 0.1220 0.4568 0.060 Uiso 1 1 calc R U
C1 C 0.4884(4) -0.0928(2) 0.2566(3) 0.0602(7) Uani 1 1 d . .
C5 C 0.1147(4) -0.0260(2) 0.2606(3) 0.0608(7) Uani 1 1 d . .
C7 C 0.1901(4) 0.2809(2) 0.0951(2) 0.0565(7) Uani 1 1 d . .
H7 H 0.0616 0.2717 0.1227 0.068 Uiso 1 1 calc R U
C6 C 0.3464(3) 0.2092(2) 0.1691(2) 0.0433(6) Uani 1 1 d . .
C13 C -0.0789(4) 0.3601(2) 0.3890(2) 0.0596(7) Uani 1 1 d . .
H13 H -0.1608 0.3019 0.4150 0.071 Uiso 1 1 calc R U
C17 C 0.2432(4) 0.4032(2) 0.3359(2) 0.0594(7) Uani 1 1 d . .
H17 H 0.3799 0.3749 0.3249 0.071 Uiso 1 1 calc R U
C11 C 0.5355(4) 0.2255(2) 0.1279(2) 0.0641(7) Uani 1 1 d . .
H11 H 0.6422 0.1784 0.1778 0.077 Uiso 1 1 calc R U
C15 C -0.0399(5) 0.5749(2) 0.3317(2) 0.0708(8) Uani 1 1 d . .
H15 H -0.0949 0.6623 0.3177 0.085 Uiso 1 1 calc R U
C14 C -0.1594(4) 0.4894(2) 0.3677(2) 0.0689(8) Uani 1 1 d . .
H14 H -0.2960 0.5186 0.3779 0.083 Uiso 1 1 calc R U
C10 C 0.5670(5) 0.3112(3) 0.0130(3) 0.0843(9) Uani 1 1 d . .
H10 H 0.6950 0.3215 -0.0148 0.101 Uiso 1 1 calc R U
C16 C 0.1609(5) 0.5325(2) 0.3161(2) 0.0686(8) Uani 1 1 d . .
H16 H 0.2423 0.5910 0.2921 0.082 Uiso 1 1 calc R U
C8 C 0.2228(5) 0.3666(3) -0.0200(3) 0.0742(8) Uani 1 1 d . .
H8 H 0.1169 0.4145 -0.0704 0.089 Uiso 1 1 calc R U
C9 C 0.4115(6) 0.3808(3) -0.0598(3) 0.0865(10) Uani 1 1 d . .
H9 H 0.4336 0.4386 -0.1373 0.104 Uiso 1 1 calc R U
H2 H 0.375(4) -0.070(3) 0.477(3) 0.101(12) Uiso 1 1 d . .
loop_
_atom_site_aniso_label
_atom_site_aniso_U_11
_atom_site_aniso_U_22
_atom_site_aniso_U_33
_atom_site_aniso_U_23
_atom_site_aniso_U_13
_atom_site_aniso_U_12
O1 0.0520(11) 0.0440(9) 0.0525(10) -0.0070(8) -0.0162(8) -0.0075(8)
O2 0.0588(12) 0.0428(10) 0.0598(12) -0.0011(8) -0.0093(9) -0.0153(8)
F5 0.0707(11) 0.0556(9) 0.1432(15) -0.0238(9) -0.0288(10) -0.0230(8)
F2 0.0421(10) 0.0828(11) 0.1352(15) -0.0429(10) -0.0079(10) -0.0028(8)
F1 0.0771(12) 0.0453(9) 0.1380(14) -0.0363(9) -0.0002(10) -0.0016(8)
F6 0.0428(10) 0.0786(11) 0.1297(14) -0.0366(10) -0.0146(9) -0.0028(8)
F4 0.1038(14) 0.1027(13) 0.0798(13) -0.0191(10) -0.0337(10) -0.0376(10)
F3 0.1068(15) 0.0858(12) 0.0829(13) -0.0328(10) 0.0268(11) -0.0031(10)
C3 0.0371(14) 0.0395(13) 0.0471(15) -0.0093(11) -0.0067(11) -0.0065(10)
C2 0.0411(15) 0.0393(13) 0.0514(16) -0.0099(12) -0.0088(12) -0.0076(11)
C12 0.0633(18) 0.0395(13) 0.0414(14) -0.0103(11) -0.0016(13) -0.0086(12)
C4 0.0524(17) 0.0442(14) 0.0491(15) -0.0090(11) -0.0025(12) -0.0108(12)
C1 0.0501(18) 0.0470(16) 0.085(2) -0.0242(15) -0.0039(16) -0.0072(13)
C5 0.0569(19) 0.0459(16) 0.082(2) -0.0187(15) -0.0152(16) -0.0112(14)
C7 0.0523(17) 0.0574(16) 0.0491(16) -0.0081(13) -0.0056(13) -0.0030(13)
C6 0.0424(15) 0.0384(13) 0.0429(14) -0.0074(11) -0.0050(12) -0.0034(11)
C13 0.0641(19) 0.0500(16) 0.0595(17) -0.0125(13) 0.0006(14) -0.0112(14)
C17 0.0663(18) 0.0459(15) 0.0651(17) -0.0191(13) 0.0031(14) -0.0114(13)
C11 0.0498(18) 0.0633(17) 0.0662(19) -0.0033(14) -0.0028(14) -0.0114(14)
C15 0.095(3) 0.0434(16) 0.0660(19) -0.0171(14) -0.0089(17) 0.0017(17)
C14 0.070(2) 0.0569(18) 0.0716(19) -0.0204(15) -0.0051(16) 0.0019(16)
C10 0.075(2) 0.093(2) 0.069(2) 0.0003(17) 0.0130(18) -0.0313(19)
C16 0.087(2) 0.0478(16) 0.072(2) -0.0181(14) 0.0035(17) -0.0204(16)
C8 0.084(2) 0.0677(19) 0.0519(19) -0.0032(15) -0.0142(17) 0.0020(16)
C9 0.111(3) 0.076(2) 0.053(2) 0.0011(16) 0.009(2) -0.022(2)
loop_
_atom_type_symbol
_atom_type_description
_atom_type_scat_dispersion_real
_atom_type_scat_dispersion_imag
_atom_type_scat_source
C C 0.0033 0.0016 'International Tables Vol C Tables 4.2.6.8 and 6.1.1.4'
H H 0.0000 0.0000 'International Tables Vol C Tables 4.2.6.8 and 6.1.1.4'
O O 0.0106 0.0060 'International Tables Vol C Tables 4.2.6.8 and 6.1.1.4'
F F 0.0171 0.0103 'International Tables Vol C Tables 4.2.6.8 and 6.1.1.4'
loop_
_geom_angle_atom_site_label_1
_geom_angle_atom_site_label_2
_geom_angle_atom_site_label_3
_geom_angle
C3 O1 C4 61.61(14)
O1 C3 C4 59.51(15)
O1 C3 C6 114.38(19)
C4 C3 C6 118.59(19)
O1 C3 C2 110.93(16)
C4 C3 C2 116.29(19)
C6 C3 C2 120.90(19)
O2 C2 C5 104.0(2)
O2 C2 C1 107.2(2)
C5 C2 C1 110.5(2)
O2 C2 C3 111.07(18)
C5 C2 C3 111.20(18)
C1 C2 C3 112.50(19)
C17 C12 C13 119.1(2)
C17 C12 C4 123.2(2)
C13 C12 C4 117.8(2)
O1 C4 C12 118.18(19)
O1 C4 C3 58.88(13)
C12 C4 C3 123.7(2)
F3 C1 F1 107.5(2)
F3 C1 F2 107.8(2)
F1 C1 F2 106.6(2)
F3 C1 C2 114.3(2)
F1 C1 C2 111.6(2)
F2 C1 C2 108.6(2)
F4 C5 F5 107.3(2)
F4 C5 F6 107.0(2)
F5 C5 F6 106.5(2)
F4 C5 C2 113.2(2)
F5 C5 C2 112.4(2)
F6 C5 C2 110.1(2)
C6 C7 C8 120.3(3)
C7 C6 C11 119.2(2)
C7 C6 C3 119.9(2)
C11 C6 C3 120.8(2)
C14 C13 C12 120.1(2)
C12 C17 C16 120.2(3)
C10 C11 C6 120.2(3)
C14 C15 C16 120.1(3)
C15 C14 C13 120.3(3)
C9 C10 C11 120.1(3)
C15 C16 C17 120.2(3)
C9 C8 C7 119.7(3)
C10 C9 C8 120.5(3)
loop_
_geom_bond_atom_site_label_1
_geom_bond_atom_site_label_2
_geom_bond_distance
O1 C3 1.441(3)
O1 C4 1.450(3)
O2 C2 1.397(3)
F5 C5 1.322(3)
F2 C1 1.329(3)
F1 C1 1.323(3)
F6 C5 1.338(3)
F4 C5 1.309(3)
F3 C1 1.305(3)
C3 C4 1.481(3)
C3 C6 1.494(3)
C3 C2 1.544(3)
C2 C5 1.523(3)
C2 C1 1.541(3)
C12 C17 1.371(3)
C12 C13 1.388(3)
C12 C4 1.474(3)
C7 C6 1.372(3)
C7 C8 1.380(3)
C6 C11 1.378(3)
C13 C14 1.375(3)
C17 C16 1.379(3)
C11 C10 1.376(4)
C15 C14 1.362(4)
C15 C16 1.368(4)
C10 C9 1.357(4)
C8 C9 1.366(4)
