#------------------------------------------------------------------------------
#$Date: 2019-11-23 20:16:24 +0200 (Sat, 23 Nov 2019) $
#$Revision: 234808 $
#$URL: file:///home/coder/svn-repositories/cod/cif/4/03/65/4036521.cif $
#------------------------------------------------------------------------------
#
# This file is available in the Crystallography Open Database (COD),
# http://www.crystallography.net/
#
# All data on this site have been placed in the public domain by the
# contributors.
#
data_4036521
loop_
_publ_author_name
'\<Senica, Luka'
'Stopar, Karmen'
'Friedrich, Miha'
'Gro\<selj, Uro\<s'
'Plavec, Janez'
'Po\<ckaj, Marta'
'Podlipnik, \<Crtomir'
'\<Stefane, Bogdan'
'Svete, Jurij'
_publ_section_title
;
 Synthesis and Rotational Isomerism of 1-Substituted Methyl
 (S)-[5-(2-Nitrophenyl)-1H-pyrazole-4-carbonyl]alaninates.
;
_journal_issue                   1
_journal_name_full               'The Journal of organic chemistry'
_journal_page_first              146
_journal_page_last               161
_journal_paper_doi               10.1021/acs.joc.5b02467
_journal_volume                  81
_journal_year                    2016
_chemical_formula_moiety         'C16 H10 N4 O2'
_chemical_formula_sum            'C16 H10 N4 O2'
_chemical_formula_weight         290.28
_space_group_crystal_system      triclinic
_space_group_IT_number           2
_space_group_name_Hall           '-P 1'
_space_group_name_H-M_alt        'P -1'
_atom_sites_solution_hydrogens   geom
_audit_creation_method           SHELXL-2013
_cell_angle_alpha                69.962(5)
_cell_angle_beta                 74.221(5)
_cell_angle_gamma                85.653(4)
_cell_formula_units_Z            2
_cell_length_a                   7.9251(4)
_cell_length_b                   8.5930(5)
_cell_length_c                   11.6468(7)
_cell_measurement_reflns_used    2974
_cell_measurement_temperature    293(2)
_cell_measurement_theta_max      30.2986
_cell_measurement_theta_min      2.8494
_cell_volume                     716.93(8)
_computing_cell_refinement
;
CrysAlisPro, Agilent Technologies,
Version 1.171.36.20 (release 27-06-2012 CrysAlis171 .NET)
(compiled Jul 11 2012,15:38:31)
;
_computing_data_collection
;
CrysAlisPro, Agilent Technologies,
Version 1.171.36.20 (release 27-06-2012 CrysAlis171 .NET)
(compiled Jul 11 2012,15:38:31)
;
_computing_data_reduction
;
CrysAlisPro, Agilent Technologies,
Version 1.171.36.20 (release 27-06-2012 CrysAlis171 .NET)
(compiled Jul 11 2012,15:38:31)
;
_computing_structure_refinement  'SHELXL-2013 (Sheldrick, 2013)'
_computing_structure_solution    'SIR97 (Altomare et al., 1999)'
_diffrn_ambient_temperature      293(2)
_diffrn_detector_area_resol_mean 10.4933
_diffrn_measured_fraction_theta_full 0.998
_diffrn_measured_fraction_theta_max 0.999
_diffrn_measurement_device_type  'SuperNova, Dual, Cu at zero, Atlas'
_diffrn_measurement_method       '\w scans'
_diffrn_radiation_monochromator  mirror
_diffrn_radiation_source         'SuperNova (Mo) X-ray Source'
_diffrn_radiation_type           MoK\a
_diffrn_radiation_wavelength     0.71073
_diffrn_reflns_av_R_equivalents  0.0179
_diffrn_reflns_av_unetI/netI     0.0253
_diffrn_reflns_Laue_measured_fraction_full 0.998
_diffrn_reflns_Laue_measured_fraction_max 0.999
_diffrn_reflns_limit_h_max       9
_diffrn_reflns_limit_h_min       -10
_diffrn_reflns_limit_k_max       11
_diffrn_reflns_limit_k_min       -11
_diffrn_reflns_limit_l_max       15
_diffrn_reflns_limit_l_min       -14
_diffrn_reflns_number            6676
_diffrn_reflns_point_group_measured_fraction_full 0.998
_diffrn_reflns_point_group_measured_fraction_max 0.999
_diffrn_reflns_theta_full        25.242
_diffrn_reflns_theta_max         27.475
_diffrn_reflns_theta_min         2.855
_exptl_absorpt_coefficient_mu    0.093
_exptl_absorpt_correction_T_max  1.00000
_exptl_absorpt_correction_T_min  0.70361
_exptl_absorpt_correction_type   multi-scan
_exptl_absorpt_process_details
;
CrysAlisPro, Agilent Technologies,
Version 1.171.36.20 (release 27-06-2012 CrysAlis171 .NET)
(compiled Jul 11 2012,15:38:31)
Empirical absorption correction using spherical harmonics,
 implemented in SCALE3 ABSPACK scaling algorithm.
;
_exptl_crystal_colour            colourless
_exptl_crystal_density_diffrn    1.345
_exptl_crystal_description       prism
_exptl_crystal_F_000             300
_exptl_crystal_size_max          .4
_exptl_crystal_size_mid          .2
_exptl_crystal_size_min          .15
_refine_diff_density_max         0.452
_refine_diff_density_min         -0.338
_refine_diff_density_rms         0.043
_refine_ls_extinction_coef       0.038(8)
_refine_ls_extinction_expression Fc^*^=kFc[1+0.001xFc^2^\l^3^/sin(2\q)]^-1/4^
_refine_ls_extinction_method     SHELXL
_refine_ls_goodness_of_fit_ref   1.081
_refine_ls_hydrogen_treatment    constr
_refine_ls_matrix_type           full
_refine_ls_number_parameters     200
_refine_ls_number_reflns         3297
_refine_ls_number_restraints     0
_refine_ls_restrained_S_all      1.081
_refine_ls_R_factor_all          0.0853
_refine_ls_R_factor_gt           0.0652
_refine_ls_shift/su_max          0.000
_refine_ls_shift/su_mean         0.000
_refine_ls_structure_factor_coef Fsqd
_refine_ls_weighting_details
'w=1/[\s^2^(Fo^2^)+(0.0841P)^2^+0.3366P] where P=(Fo^2^+2Fc^2^)/3'
_refine_ls_weighting_scheme      calc
_refine_ls_wR_factor_gt          0.1859
_refine_ls_wR_factor_ref         0.2010
_reflns_Friedel_coverage         0.000
_reflns_number_gt                2425
_reflns_number_total             3297
_reflns_threshold_expression     'I > 2\s(I)'
_cod_data_source_file            jo5b02467_si_001.cif
_cod_data_source_block           crystr6
_cod_database_code               4036521
_shelx_space_group_comment
;
The symmetry employed for this shelxl refinement is uniquely defined
by the following loop, which should always be used as a source of
symmetry information in preference to the above space-group names.
They are only intended as comments.
;
_shelxl_version_number           2013-4
_shelx_res_file
;
TITL mo415 in P-1
CELL  0.71073   7.9251   8.5930  11.6468   69.962   74.221   85.653
ZERR     2.00   0.0004   0.0005   0.0007    0.005    0.005    0.004
LATT   1
SFAC  C    H    N    O
UNIT  32   20   8    4
MERG   2
FMAP   2
PLAN   25
SHEL 50 0.77
ACTA
BOND $H
CONF
L.S.   8
WGHT    0.084100    0.336600
EXTI    0.038290
FVAR      11.54133
O1    4    0.725262    0.834997    0.814354    11.00000    0.10837    0.06442 =
         0.28533   -0.08015   -0.08100    0.03741
O2    4    0.603940    0.602370    0.865566    11.00000    0.04681    0.09197 =
         0.13168   -0.05744   -0.01453    0.00544
N1    3    0.744070    0.441921    0.670255    11.00000    0.05882    0.03991 =
         0.05592   -0.01430   -0.01511   -0.00640
N2    3    0.630309    0.334135    0.665224    11.00000    0.06708    0.04826 =
         0.07649   -0.02116   -0.02321   -0.00864
N3    3    0.771400    0.030746    1.039425    11.00000    0.08020    0.06434 =
         0.13999   -0.03344   -0.02237   -0.00889
N4    3    0.730497    0.687947    0.839601    11.00000    0.05917    0.05150 =
         0.08511   -0.03101   -0.02746    0.01114
C1    1    0.625511    0.201759    0.766578    11.00000    0.06193    0.04284 =
         0.07943   -0.02061   -0.01655   -0.00613
AFIX  43
H1    2    0.558319    0.106807    0.788182    11.00000   -1.20000
AFIX   0
C2    1    0.734342    0.222492    0.837331    11.00000    0.05881    0.03862 =
         0.06269   -0.01384   -0.01202   -0.00306
C3    1    0.808227    0.380003    0.772947    11.00000    0.05207    0.03800 =
         0.05282   -0.01455   -0.01032   -0.00058
C4    1    0.761844    0.101232    0.961157    11.00000    0.05953    0.03564 =
         0.05601   -0.00993   -0.00983   -0.01119
C5    1    0.934846    0.465519    0.803980    11.00000    0.04815    0.03903 =
         0.04512   -0.00874   -0.00858   -0.00332
C6    1    0.903193    0.611739    0.832135    11.00000    0.04666    0.03891 =
         0.04907   -0.00978   -0.01135   -0.00063
C7    1    1.027984    0.690346    0.856289    11.00000    0.06128    0.04376 =
         0.05762   -0.01302   -0.01687   -0.00665
AFIX  43
H7    2    1.002521    0.788508    0.873934    11.00000   -1.20000
AFIX   0
C8    1    1.191619    0.621246    0.853929    11.00000    0.05419    0.06644 =
         0.06306   -0.01363   -0.01569   -0.01337
AFIX  43
H8    2    1.277777    0.673293    0.869213    11.00000   -1.20000
AFIX   0
C9    1    1.226240    0.476160    0.829046    11.00000    0.04487    0.07873 =
         0.07372   -0.02075   -0.01508    0.00447
AFIX  43
H9    2    1.335767    0.428899    0.829036    11.00000   -1.20000
AFIX   0
C10   1    1.100349    0.398270    0.803785    11.00000    0.05455    0.05450 =
         0.06558   -0.02016   -0.01183    0.00734
AFIX  43
H10   2    1.126849    0.299953    0.786515    11.00000   -1.20000
AFIX   0
C11   1    0.767097    0.604678    0.577190    11.00000    0.07097    0.04399 =
         0.04662   -0.01595   -0.01311   -0.00531
C12   1    0.622906    0.678469    0.535953    11.00000    0.08071    0.05851 =
         0.06708   -0.01415   -0.02920   -0.00154
AFIX  43
H12   2    0.515484    0.622213    0.566421    11.00000   -1.20000
AFIX   0
C13   1    0.641137    0.836240    0.449243    11.00000    0.11772    0.06323 =
         0.07951   -0.00999   -0.04546    0.00606
AFIX  43
H13   2    0.545011    0.887162    0.421251    11.00000   -1.20000
AFIX   0
C14   1    0.799547    0.919325    0.403588    11.00000    0.15004    0.05158 =
         0.06706   -0.00043   -0.03266   -0.00947
AFIX  43
H14   2    0.810032    1.026607    0.345908    11.00000   -1.20000
AFIX   0
C15   1    0.944306    0.843109    0.443569    11.00000    0.10432    0.06050 =
         0.05630   -0.01643   -0.00227   -0.02543
AFIX  43
H15   2    1.051913    0.899179    0.411926    11.00000   -1.20000
AFIX   0
C16   1    0.929066    0.684348    0.530151    11.00000    0.07222    0.05468 =
         0.05113   -0.02093   -0.00484   -0.01058
AFIX  43
H16   2    1.025940    0.632082    0.556284    11.00000   -1.20000
AFIX   0
HKLF    4

REM  mo415 in P-1
REM R1 =  0.0652 for    2425 Fo > 4sig(Fo)  and  0.0853 for all    3297 data
REM    200 parameters refined using      0 restraints

END

WGHT      0.0825      0.3407

REM Highest difference peak  0.452,  deepest hole -0.338,  1-sigma level  0.043
Q1    1   0.6748  0.7695  0.9241  11.00000  0.05    0.45
Q2    1   0.7612  0.1395  0.9065  11.00000  0.05    0.42
Q3    1   0.8292  0.0745  0.9571  11.00000  0.05    0.37
Q4    1   0.7291  0.1161  0.9910  11.00000  0.05    0.33
Q5    1   0.7287  0.0574  0.9748  11.00000  0.05    0.33
Q6    1   0.7541  0.0424  1.0769  11.00000  0.05    0.32
Q7    1   0.8107  0.0258  1.0575  11.00000  0.05    0.31
Q8    1   0.7721 -0.0351  1.0456  11.00000  0.05    0.30
Q9    1   0.8291  0.2752  0.7743  11.00000  0.05    0.16
Q10   1   0.6155  0.6411  0.9202  11.00000  0.05    0.14
Q11   1   0.9257  0.5575  0.7828  11.00000  0.05    0.14
Q12   1   1.0051  0.6829  0.7817  11.00000  0.05    0.13
Q13   1   0.9940  0.4211  0.8401  11.00000  0.05    0.13
Q14   1   1.0217  0.4686  0.7794  11.00000  0.05    0.12
Q15   1   0.8631  0.4163  0.7939  11.00000  0.05    0.12
Q16   1   0.8973  0.5186  0.8408  11.00000  0.05    0.12
Q17   1   0.8699  0.6287  0.5242  11.00000  0.05    0.12
Q18   1   0.4919  0.6758  0.8583  11.00000  0.05    0.11
Q19   1   0.6076  0.3421  0.5562  11.00000  0.05    0.11
Q20   1   0.9447  0.6166  0.8797  11.00000  0.05    0.11
Q21   1   0.7249  0.4391  0.7530  11.00000  0.05    0.11
Q22   1   0.4868  0.3618  0.7575  11.00000  0.05    0.11
Q23   1   0.8436  0.6576  0.5751  11.00000  0.05    0.10
Q24   1   0.7405  0.3280  0.8288  11.00000  0.05    0.10
Q25   1   0.8242  0.6355  0.8402  11.00000  0.05    0.10
;
_shelx_res_checksum              93773
_shelx_hkl_file
;
   0   0   2 40672.0 538.883   1
   0   0   2 39804.9 597.876   2
   0   0   3 672369. 7465.76   1
   0   0   3 676086. 7583.47   2
   0   0   4 38114.7 693.225   2
   0   0   4 39375.1 600.471   1
   0   0   5 87222.4 1188.74   1
   0   0   5 87779.0 1324.25   2
   0   0   6 51025.3 953.628   2
   0   0   6 51564.0 818.693   1
   0   0   7 8748.75 282.935   1
   0   0   7 9109.09 365.405   2
   0   0   8 19661.0 474.078   1
   0   0   8 19437.0 588.749   2
   0   0   9 3241.19 245.059   2
   0   0   9 2262.85 156.913   1
   0   0  10 7653.95 304.181   1
   0   0  10 8824.91 424.597   2
   0   0  11 2557.61 242.869   2
   0   0  12 1066.80 172.719   2
   0   0  13 570.920 146.830   2
   0   0  14 353.171 112.372   2
   0  -1  13 122.336 87.6038   2
   0  -1  12 1568.49 200.690   2
   0  -1  11-45.8820 66.8551   2
   0  -1  10 1911.90 196.954   2
   0  -1   9 545.176 69.9370   3
   0  -1   9 500.259 108.022   2
   0  -1   9 569.745 63.8515   1
   0  -1   8 9008.22 247.281   1
   0  -1   8 8905.23 276.879   3
   0  -1   8 8843.68 380.302   2
   0  -1   7 87.2502 27.4397   1
   0  -1   7 68.9152 49.7690   2
   0  -1   6 145379. 1766.41   1
   0  -1   6 145879. 2043.66   2
   0  -1   5 17600.1 309.769   1
   0  -1   5 17200.1 450.924   2
   0  -1   4 5318.19 212.288   2
   0  -1   4 5275.14 126.033   1
   0  -1   3 404409. 4629.91   2
   0  -1   3 400155. 4493.00   3
   0  -1   2 799439. 8707.71   2
   0  -1   2 776618. 8611.07   3
   0  -1   1 8424.20 153.107   3
   0  -1   1 8229.45 170.867   2
   0   1   2 18179.3 339.510   4
   0   1   3 71385.6 988.620   1
   0   1   4 159556. 2007.35   1
   0   1   5 35198.2 646.727   1
   0   1   5 35068.8 699.159   2
   0   1   6 1190.10 105.418   1
   0   1   6 1059.33 119.056   2
   0   1   7 394.639 70.4561   1
   0   1   7 430.367 86.0294   2
   0   1   8 1034.26 112.245   1
   0   1   8 1100.66 141.082   2
   0   1   9 7568.16 373.829   2
   0   1   9 6688.84 302.823   1
   0   1  10 3097.71 258.045   2
   0   1  10 2677.12 198.850   1
   0   1  11 11.2832 78.0429   2
   0   1  12-80.9257 91.4272   2
   0   1  13-56.1793 101.716   2
   0   1  14-56.5292 105.137   2
   0  -2  12 340.894 112.565   2
   0  -2  11 110.518 86.8094   2
   0  -2  10 3374.38 263.372   2
   0  -2   9 5501.38 316.047   2
   0  -2   8 24975.4 477.678   3
   0  -2   8 24019.1 661.074   2
   0  -2   7 5673.65 189.476   3
   0  -2   7 5157.90 273.038   2
   0  -2   6 33498.7 722.236   2
   0  -2   6 33659.5 553.272   3
   0  -2   5 175.829 30.5443   3
   0  -2   5 158.080 51.8848   2
   0  -2   4 80781.6 1053.82   3
   0  -2   4 81840.0 1199.84   2
   0  -2   3 70276.8 915.411   3
   0  -2   3 69602.9 1016.09   2
   0   2  -2 5023.55 142.866   3
   0  -2   2 4711.21 161.477   2
   0  -2   2 4509.21 139.967   3
   0  -2   1 366.910 41.4442   3
   0   2  -1 425.325 41.7408   3
   0   2  -1 423.931 33.5567   1
   0  -2   1 428.592 43.8484   2
   0   2   0 7608.89 199.973   3
   0   2   0 7406.41 204.497   4
   0   2   0 7589.10 183.740   1
   0  -2   0 6596.15 165.435   2
   0   2   1 124141. 1569.94   1
   0   2   1 123940. 1553.73   4
   0  -2  -1 128944. 1547.30   2
   0   2   2 11248.9 269.767   4
   0  -2  -2 11125.2 265.288   5
   0   2   2 11018.3 284.007   1
   0   2   3 999999. 11023.0   1
   0   2   3 972494. 10983.9   4
   0   2   4 187552. 2389.50   1
   0   2   4 188054. 2384.82   4
   0   2   5 56198.7 946.358   1
   0   2   5 55326.5 971.721   4
   0   2   6 97805.5 1469.69   1
   0   2   6 96382.6 1527.18   4
   0   2   7 966.276 120.852   2
   0   2   7 860.412 117.859   4
   0   2   7 891.127 108.235   1
   0   2   8 13425.3 496.328   2
   0   2   8 14034.4 460.511   1
   0   2   8 14030.6 524.772   4
   0   2   9 5667.98 297.624   1
   0   2   9 5264.60 319.082   2
   0   2   9 5315.02 341.410   4
   0   2  10 2322.59 241.078   4
   0   2  10 2071.09 208.642   2
   0   2  11 1492.34 206.745   4
   0   2  11 1841.04 211.274   2
   0   2  12 266.017 111.719   2
   0   2  12 40.6920 77.0791   4
   0   2  13 1116.17 199.683   4
   0   2  13 1640.02 214.609   2
   0   2  14 103.637 88.1294   4
   0   2  14 41.4693 95.0096   2
   0  -3  11 2913.56 256.881   2
   0  -3  10 1170.86 162.098   2
   0  -3   9 1280.90 167.540   2
   0  -3   8 6726.61 333.749   2
   0  -3   8 6321.47 207.491   3
   0  -3   7 522.206 102.150   2
   0  -3   7 431.234 55.6683   3
   0  -3   6 2551.42 188.715   2
   0  -3   6 2431.38 124.891   3
   0  -3   5 14405.4 327.540   3
   0  -3   5 15029.8 426.925   2
   0  -3   4 9207.26 351.238   4
   0  -3   4 8492.62 291.902   2
   0  -3   4 9089.66 243.554   3
   0  -3   3 544.317 73.3339   2
   0   3  -3 488.181 59.9762   3
   0  -3   3 491.081 57.3206   3
   0  -3   2 47796.2 740.253   3
   0  -3   2 47919.1 749.865   2
   0   3  -2 47521.1 626.583   1
   0   3  -2 48869.7 729.423   3
   0  -3   1 4114.11 155.296   2
   0   3  -1 4315.59 143.583   1
   0   3  -1 4519.90 170.754   3
   0   3  -1 4367.85 202.309   4
   0   3   0 32407.6 610.081   4
   0  -3   0 32457.3 543.165   2
   0   3   0 34396.2 593.968   3
   0   3   0 32185.7 554.391   1
   0   3   1 18580.2 411.697   4
   0   3   1 19047.7 354.838   2
   0   3   1 18513.4 407.413   1
   0  -3  -1 19643.2 412.823   2
   0  -3  -2 1450.12 106.781   5
   0   3   2 1584.57 114.520   1
   0   3   2 1644.07 109.078   4
   0   3   2 1574.66 103.987   2
   0  -3  -3 5002.34 214.943   4
   0   3   3 5231.29 203.252   5
   0   3   3 4977.68 221.169   1
   0   3   3 5325.32 208.291   4
   0   3   4 5095.82 235.320   1
   0  -3  -4 5445.30 238.377   4
   0   3   4 5171.43 223.763   5
   0   3   4 5260.03 222.801   4
   0  -3  -5 2239.66 164.195   4
   0   3   5 2295.37 157.923   4
   0   3   5 2478.67 170.860   1
   0   3   6 63105.6 1125.91   4
   0   3   6 62980.3 1123.06   1
   0   3   7 15917.4 503.538   1
   0   3   7 15642.3 507.171   4
   0   3   8 322.479 77.2003   1
   0   3   8 187.730 62.3284   4
   0   3   9 2956.09 251.132   4
   0   3   9 2586.08 229.369   2
   0   3  10 645.148 127.837   2
   0   3  10 683.070 138.727   4
   0   3  11 396.455 111.555   4
   0   3  11 185.538 90.8156   2
   0   3  12 498.055 132.553   2
   0   3  12 445.526 131.278   4
   0   3  13 498.727 147.790   4
   0   3  13 404.767 133.700   2
   0   3  14 211.280 112.367   2
   0   3  14 326.357 124.218   4
   0   3  15-86.0676 126.056   2
   0  -4  11-12.0648 90.7142   2
   0  -4  10-52.7540 71.8906   2
   0  -4   9-88.9983 79.2044   2
   0  -4   8 1770.10 182.185   2
   0  -4   7 2576.69 204.884   2
   0  -4   6 894.898 111.062   2
   0  -4   5 966.731 111.490   2
   0  -4   4 10578.3 346.780   2
   0   4  -4 11130.9 307.343   3
   0   4  -3 4532.43 190.152   3
   0  -4   3 4652.17 208.442   2
   0   4  -3 4771.79 236.117   2
   0   4  -2 2597.94 110.210   1
   0   4  -2 2792.06 162.246   2
   0   4  -2 2507.01 143.018   3
   0  -4   2 2858.52 151.833   2
   0   4  -1 73851.3 1071.78   2
   0   4  -1 69203.3 1086.71   3
   0  -4   1 72991.0 1059.79   2
   0   4  -1 71953.0 1021.97   1
   0   4  -1 72445.6 1201.02   4
   0   4   0 136084. 1788.69   1
   0  -4   0 134724. 1781.71   2
   0   4   0 138391. 1744.68   2
   0   4   0 136781. 1846.58   3
   0   4   0 135876. 1890.30   4
   0   4   1 10917.5 327.466   1
   0  -4  -1 10171.4 318.396   2
   0   4   1 10964.0 337.942   4
   0   4   1 10910.2 271.767   2
   0   4   1 10234.1 338.476   3
   0   4   2 16280.3 433.942   1
   0  -4  -2 14865.3 402.183   5
   0   4   2 15752.2 413.101   4
   0   4   2 15977.1 364.403   2
   0   4   3 29470.6 583.444   2
   0  -4  -3 29234.9 614.053   5
   0   4   3 29071.2 606.101   4
   0  -4  -3 30605.2 652.860   4
   0   4   3 29164.6 653.263   1
   0   4   4 70408.3 1148.36   4
   0   4   4 74122.7 1143.48   5
   0  -4  -4 74938.7 1235.44   4
   0   4   4 71515.9 1224.38   1
   0   4   5 13645.6 414.496   4
   0   4   5 14502.1 464.442   1
   0  -4  -5 13789.6 449.424   4
   0   4   5 14391.9 431.601   5
   0  -4  -6 16726.5 523.736   4
   0   4   6 16560.6 491.335   4
   0   4   6 16611.9 527.200   1
   0   4   7 55633.7 1082.98   4
   0   4   8 7984.26 380.207   4
   0   4   9 10448.7 464.154   4
   0   4  10 5192.59 344.466   4
   0   4  10 4344.99 318.347   2
   0   4  11 1684.60 210.713   4
   0   4  11 1222.59 178.902   2
   0   4  12 521.730 143.358   4
   0   4  12 349.202 117.410   2
   0   4  13 121.366 102.448   2
   0   4  13 73.5886 89.9599   4
   0   4  14 408.121 146.115   2
   0   4  14 228.068 111.620   4
   0   4  15 223.617 135.682   2
   0  -5  10 111.900 95.1742   2
   0  -5   9 188.906 70.9105   2
   0  -5   8 1349.51 165.722   2
   0  -5   7 803.632 125.310   2
   0  -5   6 906.224 120.847   2
   0  -5   5 13377.1 442.957   2
   0  -5   4 6540.96 287.614   2
   0   5  -4 6519.13 256.445   3
   0  -5   3 1341.76 125.082   2
   0   5  -3 860.445 53.3817   1
   0   5  -3 1113.35 107.107   3
   0  -5   2 44337.9 799.835   2
   0   5  -2 43125.7 684.348   1
   0   5  -2 42267.5 794.994   3
   0   5  -1 6638.88 241.039   1
   0   5  -1 7024.27 264.935   2
   0  -5   1 6751.73 262.324   2
   0   5  -1 6658.79 272.881   3
   0   5   0 8189.36 289.924   1
   0   5   0 8374.37 271.421   2
   0   5   0 8264.46 314.929   3
   0  -5   0 7606.00 292.256   2
   0   5   0 8207.58 342.351   4
   0  -5  -1 59137.7 1033.50   2
   0   5   1 59395.3 910.671   2
   0   5   1 58881.5 1059.23   4
   0   5   1 57763.4 1050.59   3
   0   5   1 59512.8 1018.94   1
   0   5   2 95.4347 42.5415   1
   0   5   2 53.6854 47.4866   3
   0   5   2-72.0079 54.9107   2
   0   5   2 73.1660 44.3211   4
   0  -5  -2 74.6931 67.8739   2
   0  -5  -2 86.6716 66.5927   5
   0  -5  -3 19570.9 518.669   5
   0   5   3 20029.4 558.476   1
   0   5   3 19861.6 520.336   4
   0   5   3 19828.2 468.245   2
   0   5   4 34363.2 732.826   4
   0  -5  -4 33851.1 751.298   5
   0   5   4 34570.4 708.824   2
   0   5   4 36256.7 811.389   1
   0   5   5 10818.4 371.540   2
   0   5   5 10692.7 424.108   1
   0   5   5 10833.6 381.561   4
   0   5   6 5835.86 293.273   5
   0   5   6 5715.84 286.075   4
   0   5   7 7440.11 358.133   5
   0   5   7 7544.62 344.867   4
   0  -5  -7 7584.35 378.898   4
   0   5   8 2053.62 188.746   4
   0   5   9 1610.78 176.043   4
   0   5  10 1359.82 176.272   4
   0   5  11 166.787 89.9410   4
   0   5  12 0.97180 73.2162   4
   0   5  12 59.1356 90.1037   2
   0   5  13 266.790 107.063   2
   0   5  13 243.420 93.1460   4
   0   5  14-40.3746 88.9976   4
   0   5  14-62.6704 102.711   2
   0   5  15 255.259 131.238   2
   0  -6   8 159.533 89.8716   2
   0  -6   7 736.518 131.270   2
   0  -6   6 378.324 94.6469   2
   0  -6   5 2782.58 210.908   2
   0   6  -4 3470.08 203.620   3
   0  -6   4 3321.29 221.617   2
   0   6  -3 139.088 50.7667   3
   0  -6   3 226.584 74.3528   2
   0   6  -3 184.949 30.3664   1
   0   6  -2 4.98704 35.2152   3
   0   6  -2 64.7439 33.7205   1
   0  -6   1 1207.14 131.068   2
   0   6  -1 1242.36 110.842   1
   0   6  -1 1182.05 129.759   3
   0  -6   0 3979.54 242.130   2
   0   6   0 4073.35 243.373   3
   0   6   0 4076.10 219.104   1
   0   6   0 4440.64 273.417   4
   0   6   1 7791.50 345.760   3
   0   6   1 7454.46 319.561   1
   0   6   1 7459.60 346.814   4
   0  -6  -1 7405.12 342.329   2
   0   6   2 662.973 108.197   3
   0   6   2 720.490 85.9104   2
   0  -6  -2 600.448 106.138   2
   0   6   2 797.619 112.145   1
   0   6   2 599.664 103.065   4
   0   6   3 48544.7 1023.56   3
   0   6   3 47176.7 949.963   4
   0   6   3 48171.6 832.799   2
   0  -6  -3 48540.4 1018.05   4
   0   6   3 45522.7 976.725   1
   0  -6  -4 316.774 82.3264   4
   0  -6  -4 179.647 76.4396   5
   0   6   4 342.775 79.5877   4
   0   6   4 331.290 79.0212   2
   0   6   5 170.449 83.4327   2
   0   6   5-36.2962 48.4744   4
   0  -6  -5 79.5965 53.2370   4
   0   6   6 2885.92 218.003   4
   0  -6  -6 2972.70 247.169   4
   0   6   7 4317.84 272.803   4
   0   6   8 5015.31 300.324   4
   0   6   9 9005.08 428.097   4
   0   6  10 3634.42 285.929   4
   0   6  11 2613.17 249.789   4
   0   6  12 2928.35 273.296   4
   0   6  13 758.610 154.274   4
   0   6  13 152.121 85.8620   2
   0   6  14 106.482 102.828   4
   0   6  14 232.297 107.741   2
   0   6  15 437.475 147.215   2
   0  -7   7 91.1842 89.4833   2
   0  -7   6 322.640 103.495   2
   0  -7   5 211.255 89.2064   2
   0   7  -4 351.411 77.4828   3
   0  -7   4 169.474 65.1612   2
   0   7  -3 270.079 75.6598   3
   0  -7   3 2.34971 79.5788   2
   0   7  -2 5623.44 226.234   1
   0  -7   2 5590.55 305.433   2
   0   7  -2 5988.35 298.462   3
   0  -7   1 1769.83 182.509   2
   0   7  -1 1839.21 146.872   1
   0   7  -1 1872.31 173.503   3
   0  -7   0 286.320 106.092   2
   0   7   0 323.989 73.6384   1
   0   7   0 307.520 88.4045   3
   0   7   0 347.805 98.0757   4
   0   7   1 412.203 86.8204   1
   0   7   1 420.478 94.4840   3
   0  -7  -1 557.916 135.254   2
   0   7   1 370.156 89.2313   4
   0   7   2 1575.21 173.814   3
   0   7   2 1506.40 168.428   4
   0  -7  -2 1307.16 166.693   2
   0   7   3 60.7934 51.7561   3
   0  -7  -3-2.00807 80.7445   5
   0   7   3 24.0822 46.7542   4
   0   7   4-23.5662 70.1289   3
   0   7   4 29.6681 47.4435   4
   0  -7  -4-26.2585 87.0293   5
   0   7   5 10506.4 429.672   4
   0   7   6 546.929 102.453   4
   0   7   7 87.5924 67.4850   4
   0   7   8 1122.60 152.393   4
   0   7   9 827.770 138.346   4
   0   7  10 945.999 152.519   4
   0   7  11 1040.34 167.588   4
   0   7  12 325.671 107.582   4
   0   7  13 160.018 84.2009   4
   0   7  14 451.349 141.269   2
   0   7  15 17.7444 111.226   2
   0  -8   6 79.0550 79.2509   2
   0  -8   5-51.2326 92.4878   2
   0  -8   4 32.8226 87.4915   2
   0  -8   3 122.225 73.8681   2
   0   8  -3 39.0291 54.0924   3
   0  -8   2 915.086 153.022   2
   0   8  -2 988.922 136.205   3
   0  -8   1 15784.6 588.631   2
   0   8  -1 15926.3 556.817   3
   0   8   0 1778.51 191.737   3
   0  -8   0 1915.52 219.276   2
   0   8   1 3181.29 255.868   3
   0   8   1 2684.54 251.214   4
   0  -8  -1 2693.87 250.023   2
   0   8   2 4173.09 300.510   3
   0   8   2 4095.24 298.371   4
   0  -8  -2 4075.84 295.983   5
   0  -8  -2 3792.13 287.174   2
   0   8   3 347.566 108.006   3
   0  -8  -3 210.972 104.350   5
   0   8   3 194.347 86.4527   4
   0   8   4 614.323 121.845   4
   0   8   4 657.741 132.634   3
   0  -8  -5 9372.29 455.137   5
   0   8   5 9995.24 451.103   4
   0   8   5 9658.98 498.597   3
   0   8   6 9835.87 452.276   4
   0   8   6 10128.1 523.150   3
   0   8   7 1069.47 157.098   4
   0   8   8 2892.63 249.318   4
   0   8   9 327.169 98.3997   4
   0   8  10 57.6665 68.2416   4
   0   8  11 359.350 110.923   4
   0   8  12 1080.42 183.951   4
   0   8  13 499.365 129.680   4
   0   8  14 193.910 120.340   2
   0  -9   4 867.255 164.278   2
   0  -9   3 1019.89 173.818   2
   0  -9   2 272.327 132.292   2
   0   9  -2 156.986 82.7183   3
   0   9  -1 107.014 69.8436   3
   0  -9   1 218.660 122.083   2
   0   9   0 152.134 89.5447   3
   0  -9   0 128.781 108.535   2
   0   9   1 389.867 108.299   3
   0  -9  -1 375.855 122.169   2
   0   9   2 941.292 157.902   4
   0   9   2 748.801 150.423   3
   0  -9  -2 975.273 169.535   5
   0   9   3 6122.04 392.557   4
   0  -9  -3 5408.35 367.799   5
   0   9   3 6025.03 393.922   3
   0   9   4 3055.23 288.944   3
   0  -9  -4 3258.95 282.251   5
   0   9   4 2930.00 267.464   4
   0   9   5 6289.75 421.851   3
   0   9   5 6198.17 383.573   4
   0  -9  -5 5745.29 378.644   5
   0   9   6 40.5797 67.9064   4
   0   9   6-78.8827 100.488   3
   0   9   7 103.004 77.3620   4
   0   9   7-123.296 107.626   3
   0   9   8 100.184 75.7523   4
   0   9   8-108.002 98.5685   3
   0   9   9 101.465 84.1612   4
   0   9   9 255.759 123.862   3
   0   9  10 665.702 146.472   4
   0   9  10 573.377 169.235   3
   0   9  11 191.049 101.488   4
   0   9  11 44.1854 100.092   3
   0   9  12-52.1827 78.2316   4
   0   9  12-188.925 137.154   3
   0 -10   2 285.815 149.409   2
   0  10  -1 881.594 150.104   3
   0 -10   1 713.982 176.940   2
   0 -10   0 1200.03 209.152   2
   0  10   0 1339.72 185.140   3
   0  10   1 710.394 142.264   3
   0 -10  -1 525.074 146.154   2
   0 -10  -2 14.5128 106.751   5
   0  10   2 63.2491 79.6580   3
   0  10   3 2918.67 288.823   3
   0  10   3 2889.44 292.871   4
   0 -10  -3 2850.79 283.975   5
   0 -10  -4 614.115 146.219   5
   0  10   4 725.486 148.493   4
   0  10   4 959.239 182.952   3
   0  10   5 1032.93 196.621   3
   0 -10  -5 765.587 152.994   5
   0  10   5 1039.96 175.134   4
   0  10   6 165.022 93.8377   3
   0  10   6 183.978 87.1229   4
   0  10   7 642.816 167.736   3
   0  10   7 855.785 157.916   4
   0  10   8 1645.66 262.134   3
   0  10   8 1345.40 198.279   4
   0  10   9 671.397 185.295   3
   0  10   9 931.975 174.987   4
   0  10  10 130.690 96.8024   3
   0  10  10 121.676 101.972   4
   0  10  11 1483.07 216.564   4
   0  11   1 6.62201 85.5384   3
   0 -11  -1 53.5210 127.555   5
   0  11   2 260.780 120.575   3
   0 -11  -2 340.130 144.330   5
   0  11   3 186.793 103.087   3
   0 -11  -3 278.931 128.606   5
   0 -11  -4-3.74868 107.349   5
   0  11   4 208.221 112.913   3
   0  11   4-83.4207 100.763   4
   0 -11  -5 1110.32 195.317   5
   0  11   5 1576.47 250.016   3
   0  11   5 1507.11 223.594   4
   0  11   6 566.351 147.227   4
   0  11   6 487.382 146.756   3
   0  11   7 1649.42 232.167   4
   0  11   7 1543.84 253.614   3
   0  11   8 209.511 110.017   4
   0  11   9 94.1111 94.4499   4
   0  11  10 87.2496 81.1906   4
   1 -12  -4 250.394 169.261   5
  -1  11  10 435.816 153.482   4
  -1  11   9 426.022 138.265   4
  -1  11   8 2421.92 288.741   4
  -1  11   7-3.50791 92.6148   4
  -1  11   7 268.627 145.831   3
  -1  11   6 3148.90 320.106   4
  -1  11   6 3387.88 362.303   3
  -1  11   5 63.4487 78.6750   4
   1 -11  -5-70.8493 141.843   5
  -1  11   5 33.8350 87.8021   3
  -1  11   4-229.163 133.248   4
  -1  11   4-20.8193 79.8540   3
   1 -11  -4-83.7083 140.896   5
  -1  11   3 61.9255 88.6484   3
   1 -11  -3 158.882 139.633   5
  -1  11   3 150.897 106.984   4
  -1  11   2 60.7663 85.3306   3
   1 -11  -2 372.876 151.401   5
   1 -11  -1 498.204 171.842   5
  -1  11   1 172.114 76.3753   3
   1 -11   0 52.4932 125.612   2
   1 -11   0 167.189 144.216   5
  -1  10  12 21.6256 98.2537   4
  -1  10  11 353.078 132.388   4
  -1  10  10-21.2717 77.7037   4
  -1  10   9 305.245 122.437   4
  -1  10   8 2774.83 292.120   4
  -1  10   8 3075.13 343.272   3
  -1  10   7 663.365 152.700   4
  -1  10   7 599.356 162.214   3
  -1  10   6 622.723 166.156   3
  -1  10   6 415.702 136.757   4
  -1  10   5 503.203 131.612   4
  -1  10   5 406.565 132.101   3
   1 -10  -5 242.653 105.538   5
   1 -10  -4 13.6293 98.0430   5
  -1  10   4 12.9190 90.2440   3
  -1  10   4 87.6920 89.9930   4
  -1  10   3 28.7944 76.9354   3
   1 -10  -3 15.0256 99.2548   5
  -1  10   3 102.620 95.4900   4
  -1  10   2 208.116 93.5393   3
  -1  10   2 225.534 109.836   4
   1 -10  -2 522.492 155.958   5
  -1  10   1 271.289 98.8486   3
  -1  10   1 111.826 84.1933   4
   1 -10  -1-63.0124 116.553   2
   1 -10  -1 150.988 114.291   5
  -1  10   0 106.496 76.0961   3
   1 -10   0 273.396 128.703   2
   1 -10   1 287.484 138.627   2
   1 -10   2 114.842 119.817   2
   1 -10   3 1065.33 211.946   2
  -1   9  13-131.160 104.021   4
  -1   9  12 92.6593 98.6527   4
  -1   9  11 21.9645 77.0047   4
  -1   9  10-41.6369 96.8795   4
  -1   9   9 413.053 127.620   4
  -1   9   8-52.8760 83.0779   4
  -1   9   7 2435.49 255.554   4
  -1   9   6 746.945 148.907   4
  -1   9   5 1218.69 194.757   3
  -1   9   5 1205.40 183.292   4
   1  -9  -5 1581.51 215.884   5
  -1   9   4 462.955 130.723   3
  -1   9   4 504.301 128.517   4
   1  -9  -4 516.634 141.843   5
  -1   9   3 960.729 165.719   4
   1  -9  -3 1136.26 191.593   5
  -1   9   3 854.568 158.120   3
   1  -9  -2 17.2793 99.6893   5
  -1   9   2 47.8117 69.1591   3
  -1   9   2 138.541 81.7811   4
   1  -9  -1 2350.19 247.746   2
  -1   9   1 2815.53 259.162   3
  -1   9   1 2647.42 270.353   4
  -1   9   0 3194.71 266.070   3
  -1   9   0 3454.41 318.661   4
   1  -9   0 2993.59 274.061   2
  -1   9  -1 919.886 142.191   3
   1  -9   1 1169.57 186.441   2
  -1   9  -2 115.299 70.5772   3
   1  -9   2 152.052 106.625   2
   1  -9   3 216.143 114.921   2
   1  -9   4 310.025 110.569   2
   1  -9   5 16.8324 83.4114   2
  -1   8  13 512.997 138.367   4
  -1   8  13 787.060 172.748   2
  -1   8  12 180.605 101.548   4
  -1   8  11 61.5313 81.5644   4
  -1   8  10 226.631 98.1557   4
  -1   8   9 319.925 110.017   4
  -1   8   8 1795.13 213.450   4
  -1   8   7 3580.66 291.892   4
  -1   8   6 1399.46 185.010   4
  -1   8   5 9925.02 472.684   4
   1  -8  -5 9278.18 485.893   5
  -1   8   4 89.5026 78.7617   4
   1  -8  -4-194.629 116.533   5
  -1   8   3 1392.45 176.246   4
   1  -8  -3 1459.69 193.294   5
  -1   8   3 1095.40 163.892   3
   1  -8  -2 5549.61 356.463   5
  -1   8   2 5235.07 341.409   4
  -1   8   2 4492.09 313.151   3
   1  -8  -1 47.1604 88.7832   2
  -1   8   1 74.1966 70.6385   4
  -1   8   1 75.2193 70.6951   3
  -1   8   0 10383.9 453.026   3
  -1   8   0 10474.2 511.904   4
   1  -8   0 9653.51 452.098   2
  -1   8  -1 642.925 124.831   3
   1  -8   1 477.895 118.707   2
   1  -8   2 728.704 137.471   2
  -1   8  -2 857.565 122.098   3
  -1   8  -3 569.530 98.8532   3
   1  -8   3 388.818 99.3955   2
   1  -8   4 15.2098 82.2986   2
   1  -8   5-37.2184 89.3306   2
   1  -8   6-142.046 105.031   2
  -1   7  14 32.9076 89.1304   2
  -1   7  14 81.4391 101.645   4
  -1   7  13 1055.08 183.470   2
  -1   7  13 1190.12 203.399   4
  -1   7  12-102.653 96.9105   2
  -1   7  12-109.628 101.533   4
  -1   7  11 3.03945 79.4099   4
  -1   7  10 3458.10 307.124   4
  -1   7   9 3281.56 283.620   4
  -1   7   8 1846.02 207.540   4
  -1   7   7 311.045 101.930   4
  -1   7   6 463.755 102.636   4
  -1   7   5 1401.02 163.659   4
  -1   7   4 711.790 120.576   4
   1  -7  -4 433.795 115.291   5
   1  -7  -3 7379.56 387.404   5
  -1   7   3 7148.48 366.918   4
  -1   7   2 417.466 98.7367   3
  -1   7   2 472.806 107.135   4
   1  -7  -2 318.224 95.1247   2
  -1   7   1 125.014 71.1712   4
  -1   7   1 1.82277 43.0173   1
  -1   7   1-29.7299 49.8139   3
  -1   7   0 1524.16 161.336   3
  -1   7   0 1580.62 185.713   4
   1  -7   0 1339.12 162.885   2
  -1   7   0 1549.59 154.872   1
  -1   7  -1 1645.93 162.213   3
   1  -7   1 1491.16 160.411   2
  -1   7  -1 1453.55 138.658   1
  -1   7  -1 1371.50 176.887   4
  -1   7  -2 613.064 96.1031   3
   1  -7   2 386.068 86.8320   2
  -1   7  -2 442.554 70.5929   1
   1  -7   3 3227.95 224.093   2
  -1   7  -3 3168.90 201.862   3
   1  -7   4 1844.70 176.179   2
  -1   7  -4 1947.84 156.082   3
   1  -7   5 494.147 110.413   2
   1  -7   6 179.042 84.8673   2
   1  -7   7 131.948 85.7390   2
   1  -7   8 93.4317 93.5154   2
  -1   6  15 308.131 127.655   2
  -1   6  14 20.4894 78.7653   2
  -1   6  14 34.2995 103.274   4
  -1   6  13 800.469 169.997   2
  -1   6  13 872.112 184.206   4
  -1   6  12 949.272 178.280   4
  -1   6  12 1011.01 173.190   2
  -1   6  11 842.163 155.648   2
  -1   6  11 867.959 170.368   4
  -1   6  10 197.944 106.728   4
  -1   6   9 962.634 155.326   4
  -1   6   8 3142.76 265.154   4
  -1   6   7 97.5373 63.7058   4
  -1   6   6 1599.01 155.331   2
  -1   6   6 1653.57 177.911   4
  -1   6   5 11912.3 466.631   4
  -1   6   5 12907.2 403.784   2
  -1   6   4 6488.57 254.259   2
   1  -6  -4 5961.56 334.170   5
  -1   6   4 6410.22 326.801   4
  -1   6   3 555.754 64.5776   2
  -1   6   3 718.973 111.616   4
   1  -6  -3 677.389 124.228   5
  -1   6   2 3854.88 177.055   2
  -1   6   2 4041.40 250.653   1
  -1   6   2 3884.01 249.037   4
   1  -6  -2 3971.61 263.651   5
   1  -6  -2 3496.90 220.091   2
  -1   6   1 835.155 112.236   1
   1  -6  -1 1034.45 131.270   2
  -1   6   1 898.277 89.8009   2
  -1   6   1 968.993 128.168   4
  -1   6   0 6174.47 285.542   1
   1  -6   0 6099.13 282.944   2
  -1   6   0 6155.15 295.633   3
  -1   6   0 6092.72 318.712   4
  -1   6   0 6274.60 252.947   2
  -1   6  -1 102.906 65.7622   4
   1  -6   1-56.0452 76.9399   2
  -1   6  -1 67.1416 31.5732   1
  -1   6  -1 126.883 57.9431   3
   1  -6   2 5023.21 245.140   2
  -1   6  -2 5376.87 254.232   3
  -1   6  -2 5035.44 222.720   1
   1  -6   3 4404.68 236.233   2
  -1   6  -3 4163.31 213.892   3
  -1   6  -3 4592.63 179.975   1
  -1   6  -4 603.708 80.2560   3
   1  -6   4 636.531 103.170   2
   1  -6   5 115.014 71.0460   2
  -1   6  -5 61.7365 36.6863   3
   1  -6   6-36.5093 57.5576   2
   1  -6   7 2556.60 217.196   2
   1  -6   8 104.940 90.0850   2
   1  -6   9 2.11712 66.0146   2
  -1   5  15 56.8296 87.7415   2
  -1   5  14 54.1361 84.0091   2
  -1   5  14 5.52239 93.7828   4
  -1   5  13 194.509 112.896   4
  -1   5  13 198.382 90.0334   2
  -1   5  12 38.3773 72.0214   2
  -1   5  12-63.3006 85.4079   4
  -1   5  11 485.471 129.613   4
  -1   5  11 349.145 109.539   2
  -1   5  10 1170.74 169.870   2
  -1   5  10 1840.81 225.727   4
  -1   5   9 2516.92 243.408   4
  -1   5   8 147.265 80.6544   4
  -1   5   7 10150.5 445.951   4
   1  -5  -6 1081.30 156.578   4
  -1   5   6 1137.07 145.825   4
  -1   5   5 6093.74 306.355   5
  -1   5   5 5551.16 297.443   4
  -1   5   5 5511.72 247.899   2
   1  -5  -5 5741.85 334.986   4
  -1   5   4 13946.2 387.421   2
   1  -5  -4 13216.6 468.802   5
  -1   5   4 14075.2 469.578   4
   1  -5  -4 14489.4 528.987   4
  -1   5   3 1620.42 110.370   2
   1  -5  -3 1730.14 170.813   4
   1  -5  -3 1399.82 150.516   5
  -1   5   3 1501.78 148.244   4
  -1   5   2 1158.05 127.055   4
  -1   5   2 1283.14 93.0756   2
   1  -5  -2 1332.28 147.879   5
  -1   5   1 18320.9 524.234   4
   1  -5  -1 17377.1 460.775   2
  -1   5   1 17864.7 392.413   2
  -1   5   0 33928.3 718.993   3
  -1   5   0 34726.3 625.647   2
  -1   5   0 33462.9 760.783   4
   1  -5   0 33347.1 658.026   2
  -1   5  -1 18782.4 465.226   1
  -1   5  -1 18601.1 482.170   3
  -1   5  -1 19729.0 467.306   2
   1  -5   1 18971.0 454.022   2
  -1   5  -1 19579.2 564.468   4
  -1   5  -2 1173.89 110.252   3
  -1   5  -2 1165.19 117.476   2
  -1   5  -2 1248.58 99.4127   1
   1  -5   2 1286.40 116.235   2
  -1   5  -2 1227.30 145.879   4
   1  -5   3 7943.90 290.799   2
  -1   5  -3 7605.19 221.048   1
  -1   5  -3 7788.76 267.375   3
   1  -5   4 4502.65 231.615   2
  -1   5  -4 5099.27 202.133   3
   1  -5   5 4730.42 249.695   2
   1  -5   6 741.960 111.198   2
   1  -5   7 471.408 100.627   2
   1  -5   8-30.4102 70.7121   2
   1  -5   9 132.891 78.1371   2
   1  -5  10 2.68908 80.4162   2
  -1   4  15-13.2597 118.689   2
  -1   4  15 105.380 90.0648   4
  -1   4  14-59.0991 86.4248   4
  -1   4  14 212.913 104.537   2
  -1   4  13 189.687 111.527   4
  -1   4  13 274.428 103.914   2
  -1   4  12-8.27122 80.2485   4
  -1   4  12 38.8933 66.9270   2
  -1   4  11 23.0215 62.0630   2
  -1   4  11 116.815 99.0515   4
  -1   4  10 477.607 103.333   2
  -1   4  10 398.985 121.470   4
  -1   4   9 24.9294 72.2361   4
  -1   4   9-36.3831 62.9218   2
  -1   4   8 2392.85 232.682   4
  -1   4   7 10168.1 452.936   4
  -1   4   6 192.633 73.3925   5
   1  -4  -6 202.130 78.5045   4
  -1   4   6 208.322 72.6357   4
  -1   4   5 8208.13 347.781   5
  -1   4   5 7613.41 340.234   4
  -1   4   4 1871.11 158.228   4
   1  -4  -3 2815.85 189.954   5
  -1   4   3 3225.83 154.637   2
  -1   4   3 3065.19 190.445   4
   1  -4  -2 33324.0 705.035   5
  -1   4   2 34618.0 562.970   2
  -1   4   2 33678.5 704.213   4
  -1   4   1 98236.7 1463.97   4
  -1   4   1 98921.5 1270.01   2
   1  -4  -1 97294.6 1362.33   2
  -1   4   0 1832.98 102.570   2
  -1   4   0 1840.94 141.949   4
   1  -4   0 1446.22 101.545   2
  -1   4  -1 5135.17 197.025   2
  -1   4  -1 4986.76 243.781   4
   1  -4   1 4491.42 175.436   2
  -1   4  -1 4647.30 200.925   3
   1  -4   2 988.371 87.4619   2
  -1   4  -2 943.911 112.638   4
  -1   4  -2 1131.03 92.6964   3
  -1   4  -2 1113.88 103.054   2
  -1   4  -3 1712.41 88.5476   1
   1  -4   3 1545.88 116.303   2
  -1   4  -3 1591.40 138.371   2
   1  -4   3 1778.39 156.093   4
  -1   4  -3 1633.18 102.633   3
   1  -4   4 38.4848 38.8489   2
  -1   4  -4 93.4062 34.4055   3
   1  -4   5 1440.65 128.185   2
   1  -4   6 3471.22 217.761   2
   1  -4   7 580.366 99.4780   2
   1  -4   8-33.9872 74.0485   2
   1  -4   9-64.7446 85.5817   2
   1  -4  10 824.060 140.505   2
   1  -4  11 7.16512 82.9857   2
  -1   3  15 87.4921 86.7084   2
  -1   3  15 103.763 119.249   4
  -1   3  14-302.087 134.520   2
  -1   3  14-18.0610 103.327   4
  -1   3  13 235.860 122.134   4
  -1   3  13-157.205 124.856   2
  -1   3  12 736.162 180.945   4
  -1   3  12 664.080 142.319   2
  -1   3  11 141.898 87.5235   2
  -1   3  11-66.4257 89.6428   4
  -1   3  10 94.8489 80.3284   4
  -1   3  10 87.5143 72.9193   2
  -1   3   9 3227.06 283.720   4
  -1   3   9 2863.46 232.171   2
  -1   3   8 70.4064 68.8115   2
  -1   3   8 204.867 129.004   4
  -1   3   7 14908.5 552.659   4
  -1   3   7 14546.7 471.681   2
  -1   3   6 26873.5 717.004   4
  -1   3   5 13925.9 471.718   4
  -1   3   4 109987. 1664.86   4
  -1   3   3 68938.0 1125.94   4
   1  -3  -2 29358.8 598.586   5
  -1   3   2 28892.0 603.313   4
  -1   3   2 29480.6 489.278   2
  -1   3   1 11021.9 327.143   4
   1  -3  -1 11788.3 275.769   2
  -1   3   1 11181.8 230.349   2
  -1   3   0 4820.43 148.767   2
   1  -3   0 5168.04 158.190   2
  -1   3   0 5085.27 211.127   4
  -1   3  -1 28631.1 493.344   2
  -1   3  -1 27818.8 571.219   4
   1  -3   1 27386.1 466.444   2
  -1   3  -2 318.389 47.1875   3
   1  -3   2 349.648 54.6098   2
  -1   3  -2 437.080 73.1172   4
  -1   3  -2 293.607 57.7345   2
   1  -3   3 104590. 1437.85   2
  -1   3  -3 106887. 1536.52   2
  -1   3  -3 107002. 1320.25   3
   1  -3   3 106804. 1554.85   4
  -1   3  -4 10244.9 369.578   2
   1  -3   4 10990.1 368.678   4
   1  -3   4 9807.03 315.139   2
  -1   3  -4 10442.3 214.672   3
   1  -3   5 4818.47 251.467   4
   1  -3   5 4123.77 215.611   2
   1  -3   6 370.833 76.4169   2
   1  -3   7 3108.68 213.145   2
   1  -3   8 3339.84 238.991   2
   1  -3   9 2365.68 218.448   2
   1  -3  10 55.1686 58.3319   2
   1  -3  11 171.533 89.8802   2
   1  -3  12 344.137 126.429   2
  -1   2  15 254.670 136.530   4
  -1   2  14-13.7911 102.658   4
  -1   2  14-96.2030 92.7797   2
  -1   2  13-66.2228 115.004   4
  -1   2  13-174.539 107.723   2
  -1   2  12 21.9139 99.9571   4
  -1   2  12-12.6218 88.1006   2
  -1   2  11 1063.78 157.824   2
  -1   2  11 1088.02 193.083   4
  -1   2  10 3999.14 283.930   2
  -1   2  10 3916.39 340.893   4
  -1   2   9 5840.06 320.257   2
  -1   2   9 5498.76 377.947   4
  -1   2   8 245.691 80.5209   2
  -1   2   8 305.793 73.0806   1
  -1   2   8 288.751 100.192   4
  -1   2   7 13815.4 537.745   4
  -1   2   7 13712.8 448.790   2
  -1   2   6 14397.3 431.575   2
  -1   2   6 15659.2 532.267   4
  -1   2   5 971.512 123.878   4
  -1   2   5 790.570 92.1448   2
  -1   2   4 39230.3 806.691   4
  -1   2   3 74590.8 1180.10   4
  -1   2   2 525741. 6004.31   4
   1  -2  -2 513371. 5968.76   5
   1  -2  -1 294354. 3446.04   5
  -1   2   1 290730. 3280.46   2
  -1   2   1 296132. 3463.17   4
   1  -2   0 7923.41 159.559   2
  -1   2   0 7712.71 228.530   4
  -1   2   0 7107.87 154.741   2
  -1   2  -1 2920.54 135.538   4
  -1   2  -1 2580.96 105.596   2
   1  -2   1 2916.39 103.537   2
  -1   2  -2 1183.53 98.6915   4
  -1   2  -2 1282.95 91.3650   2
   1  -2   2 1164.67 87.9018   2
  -1   2  -2 1197.03 61.6919   3
   1  -2   3 1358.18 99.5065   2
   1  -2   3 1424.47 107.975   4
  -1   2  -3 1197.73 54.2940   1
  -1   2  -3 1220.64 49.7202   3
   1  -2   4 21415.5 479.912   2
  -1   2  -4 20922.2 306.061   1
   1  -2   4 22779.3 505.930   4
   1  -2   5 7827.38 297.657   4
   1  -2   5 7515.62 286.649   2
   1  -2   6 4841.82 248.241   4
   1  -2   6 4905.84 249.760   2
   1  -2   7 7026.10 319.301   2
   1  -2   8 393.105 91.6912   2
   1  -2   9 3120.33 240.073   2
   1  -2  10 243.888 96.9112   2
   1  -2  11-21.3269 60.1209   2
   1  -2  12 75.5100 88.2841   2
  -1   1  14-219.854 139.395   4
  -1   1  14 104.766 92.7576   2
  -1   1  13 526.322 128.637   2
  -1   1  12 716.682 138.535   2
  -1   1  11 3094.93 256.708   2
  -1   1  10 726.921 110.583   1
  -1   1  10 539.507 106.889   2
  -1   1   9 122.380 64.7876   2
  -1   1   9 155.085 55.4607   1
  -1   1   8 653.994 106.276   2
  -1   1   8 569.750 91.2510   1
  -1   1   7 6061.10 286.655   2
  -1   1   6 141.481 51.1993   2
  -1   1   5 4932.84 218.565   2
  -1   1   4 37386.5 661.472   2
  -1   1   3 75256.4 1034.50   2
  -1   1   2 588047. 6716.08   4
   1  -1  -1 451554. 5085.33   5
  -1   1   1 446757. 5124.20   4
  -1   1   0 677.344 53.6736   4
  -1   1  -1 4397.14 134.644   4
   1  -1   1 4559.09 117.689   2
  -1   1  -1 4381.49 125.044   2
   1  -1   2 2972.65 124.988   2
  -1   1  -2 2781.83 115.458   4
   1  -1   2 3083.26 118.632   4
   1  -1   3 14715.3 344.235   2
   1  -1   3 14007.1 314.348   4
  -1   1  -3 13905.1 245.705   1
  -1   1  -4 3474.07 112.535   1
   1  -1   4 3281.29 172.668   2
   1  -1   4 3347.90 155.744   4
   1  -1   5 7328.78 282.925   2
  -1   1  -5 7234.89 186.072   1
   1  -1   5 6916.58 172.470   1
   1  -1   6 27531.3 646.109   2
   1  -1   6 27810.1 450.393   1
   1  -1   6 27556.3 395.274   3
   1  -1   7 16604.9 516.167   2
   1  -1   7 16881.3 337.299   1
   1  -1   7 17164.8 297.175   3
   1  -1   8 2138.05 93.9564   3
   1  -1   8 1897.38 178.272   2
   1  -1   8 2028.29 106.857   1
   1  -1   9 224.897 34.9290   3
   1  -1   9 249.486 41.3117   1
   1  -1   9 50.2381 57.6697   2
   1  -1  10 1074.93 154.242   2
   1  -1  11 84.2431 67.7690   2
   1  -1  12 854.725 156.057   2
   1  -1  13 62.3535 94.6692   2
  -1   0  13 378.552 119.406   2
  -1   0  12 317.121 109.924   2
  -1   0  11 38.1379 78.5127   2
  -1   0  10 1669.42 180.905   2
  -1   0   9 95.4859 46.6083   1
  -1   0   9 28.3811 57.4318   2
  -1   0   8 9515.14 386.065   2
  -1   0   8 9542.78 329.884   1
  -1   0   7 11418.6 343.662   1
  -1   0   7 11721.0 402.084   2
  -1   0   6 4478.31 232.867   2
   1   0  -6 3923.58 237.946   2
   1   0  -5 9426.81 336.967   2
  -1   0   5 9216.05 303.410   2
  -1   0   4 1294.49 100.431   2
   1   0  -4 1099.66 101.168   2
  -1   0   3 153014. 1888.09   2
  -1   0   2 3377.77 113.712   2
  -1   0   1 381412. 4213.16   2
   1   0   1 232981. 2615.63   3
   1   0   2 13912.0 206.070   3
   1   0   2 13664.7 250.318   1
   1   0   2 13811.0 217.316   4
  -1   0  -3 19014.0 342.912   1
   1   0   3 19201.9 279.804   3
   1   0   3 18755.9 407.036   2
   1   0   3 18570.8 334.623   1
   1   0   4 2267.19 106.551   1
   1   0   4 2377.91 150.391   2
  -1   0  -4 2043.15 104.155   1
  -1   0  -5 53005.4 803.514   1
   1   0   5 52793.9 790.389   1
   1   0   5 54433.4 947.654   2
   1   0   6 1058.11 123.490   2
   1   0   6 1031.75 86.1180   1
   1   0   7 6631.70 318.105   2
   1   0   7 6709.82 236.958   1
   1   0   8 191.879 47.5711   1
   1   0   8 340.267 90.2373   2
   1   0   9 4130.41 282.245   2
   1   0   9 3666.32 192.608   1
   1   0  10 714.199 120.868   2
   1   0  10 787.759 94.5239   1
   1   0  11 831.320 140.728   2
   1   0  12-138.125 107.143   2
   1   0  13 578.667 138.992   2
   1   0  14 123.116 112.706   2
  -1  -1  13 126.107 101.919   2
  -1  -1  12 47.2328 77.7467   2
  -1  -1  11 1297.51 170.542   2
  -1  -1  10 3551.71 257.657   2
  -1  -1   9 7472.13 258.139   1
  -1  -1   9 7646.98 361.508   2
  -1  -1   9 7181.22 303.971   3
  -1  -1   8 10383.5 302.593   1
  -1  -1   8 10989.2 365.415   3
  -1  -1   8 11130.3 416.557   2
  -1  -1   7 202.743 66.2526   2
  -1  -1   7 168.126 38.4706   1
  -1  -1   6 305.773 67.6007   2
   1   1  -6 329.687 76.4022   2
  -1  -1   5 58915.3 972.044   2
  -1  -1   4 540.027 71.2007   2
  -1  -1   3 83231.3 1138.41   2
  -1  -1   2 130278. 1586.66   2
  -1  -1   2 129381. 1619.12   3
  -1  -1   1 2862.47 97.4541   2
   1   1  -1 3187.13 120.366   3
   1   1   0 94203.7 1173.14   3
  -1  -1   0 91157.8 1131.26   2
   1   1   1 70106.3 904.863   3
   1   1   2 170532. 2045.94   1
   1   1   2 171453. 2018.91   3
   1   1   3 758082. 8549.88   3
   1   1   3 782605. 8481.76   4
   1   1   3 760472. 8599.84   1
   1   1   4 4710.15 183.437   1
   1   1   5 5087.95 206.828   1
  -1  -1  -5 5462.55 213.159   1
   1   1   6 164.132 42.1762   1
   1   1   6 105.505 40.3150   2
   1   1   7 2454.26 160.375   1
   1   1   7 2334.27 192.176   2
   1   1   8 1149.11 117.150   1
   1   1   8 1057.42 142.496   2
   1   1   9 1997.67 201.410   2
   1   1   9 1646.05 145.285   1
   1   1  10-40.1497 65.0521   2
   1   1  10-15.3940 51.9719   1
   1   1  11 3319.38 283.114   2
   1   1  12 666.467 129.552   2
   1   1  13-44.9056 98.5327   2
   1   1  14 54.3624 83.7995   2
  -1  -2  12 438.123 129.023   2
  -1  -2  11 2807.83 249.542   2
  -1  -2  10 2804.39 238.534   2
  -1  -2   9 6321.53 331.674   2
  -1  -2   8 12408.7 382.224   3
  -1  -2   8 12266.6 449.577   2
  -1  -2   7 4172.12 115.026   1
  -1  -2   7 4504.07 214.738   3
  -1  -2   7 4003.09 237.383   2
  -1  -2   6 2484.30 88.4678   1
  -1  -2   6 2840.57 186.092   2
  -1  -2   6 2892.07 161.502   3
  -1  -2   5 30258.5 438.955   1
  -1  -2   5 31220.8 596.489   3
  -1  -2   5 32371.4 647.181   2
  -1  -2   4 27422.7 529.525   3
  -1  -2   4 26814.0 381.778   1
  -1  -2   4 27618.3 550.612   2
  -1  -2   3 53690.6 822.313   2
  -1  -2   3 52058.6 671.135   1
  -1  -2   3 54086.5 814.595   3
  -1  -2   2 403.502 37.7006   1
  -1  -2   2 320.887 46.5052   2
   1   2  -2 424.727 56.9781   3
  -1  -2   2 346.523 52.2046   3
  -1  -2   1 610.534 57.4957   2
  -1  -2   1 541.573 46.3874   1
   1   2  -1 714.337 66.1943   3
   1   2  -1 501.752 42.3954   1
  -1  -2   1 424.006 59.2915   3
   1   2   0 43323.2 632.923   1
  -1  -2   0 45033.1 652.890   2
   1   2   0 44385.7 680.032   3
  -1  -2   0 44372.4 642.579   1
  -1  -2  -1 254775. 3037.81   2
   1   2   1 256223. 3022.16   1
   1   2   1 264146. 3050.29   3
   1   2   2 39150.0 645.938   3
   1   2   2 38563.0 646.558   1
  -1  -2  -2 39113.8 557.361   4
   1   2   2 39011.2 532.367   5
   1   2   2 39713.1 550.972   4
   1   2   3 3373.00 161.651   1
   1   2   3 3389.87 155.165   3
  -1  -2  -3 3139.53 118.634   4
   1   2   3 3368.78 112.302   4
   1   2   4 353.584 56.5133   1
   1   2   4 477.374 52.9101   4
   1   2   5 3183.62 177.742   1
   1   2   5 3112.60 149.114   4
   1   2   6 32.7350 31.2621   4
   1   2   6 65.6086 37.9156   1
   1   2   7 11345.5 386.506   1
   1   2   7 10998.6 374.419   4
   1   2   8 998.280 122.450   4
   1   2   8 874.480 110.081   1
   1   2   8 809.275 120.050   2
   1   2   9 1146.59 157.778   2
   1   2   9 906.133 129.959   4
   1   2   9 1182.00 135.233   1
   1   2  10 1948.99 197.800   4
   1   2  10 2096.21 187.613   1
   1   2  11 137.064 82.4731   2
   1   2  11 48.0972 57.0210   4
   1   2  12 462.969 133.724   2
   1   2  12 356.940 106.468   4
   1   2  13-59.0948 82.6710   4
   1   2  13 131.701 104.079   2
   1   2  14-67.8967 115.232   2
   1   2  14 35.8795 92.0621   4
  -1  -3  11 1819.64 207.196   2
  -1  -3  10 1789.24 190.345   2
  -1  -3   9 303.414 93.9367   2
  -1  -3   8 1508.13 159.722   2
  -1  -3   7 57.7601 33.8197   3
  -1  -3   7-32.3023 65.9901   2
  -1  -3   6 2046.48 161.720   2
  -1  -3   6 2203.01 143.285   3
  -1  -3   5 5758.38 229.203   3
  -1  -3   5 5476.40 248.612   2
  -1  -3   4 2576.24 146.898   3
  -1  -3   4 2554.36 157.960   2
  -1  -3   3 21992.7 328.168   1
  -1  -3   3 22353.1 477.520   3
   1   3  -3 22471.1 488.771   3
  -1  -3   3 23197.8 491.213   2
  -1  -3   2 29485.5 540.886   2
   1   3  -2 29077.3 564.871   3
  -1  -3   2 29171.1 450.407   1
  -1  -3   2 28384.1 555.914   3
  -1  -3   1 963.329 83.5138   2
   1   3  -1 877.152 83.0406   3
   1   3  -1 841.805 62.0898   1
  -1  -3   1 904.716 86.6772   3
  -1  -3   1 768.674 65.0920   1
  -1  -3   0 1956.57 125.304   3
  -1  -3   0 2247.70 123.530   2
   1   3   0 2216.13 113.520   1
  -1  -3   0 2189.38 114.818   1
   1   3   0 2140.51 127.846   3
   1   3   1 155044. 1969.53   1
   1   3   1 156105. 2001.54   3
  -1  -3  -1 155167. 1965.49   1
  -1  -3  -1 152675. 1990.21   2
   1   3   1 156012. 1968.36   4
   1   3   2 112479. 1547.95   1
   1   3   2 110295. 1552.13   3
  -1  -3  -2 114150. 1464.09   4
  -1  -3  -2 111103. 1542.64   1
  -1  -3  -2 112994. 1411.64   5
   1   3   2 113278. 1457.12   4
  -1  -3  -3 1405.78 94.1234   4
   1   3   3 1415.62 88.3093   4
   1   3   3 1568.36 91.7706   5
   1   3   3 1457.56 118.131   3
   1   3   3 1473.70 119.529   1
  -1  -3  -4 86195.7 1228.30   4
   1   3   4 88430.3 1339.39   1
   1   3   4 88413.0 1177.57   4
   1   3   4 85409.9 1212.33   5
   1   3   5 12956.8 408.532   1
   1   3   5 12878.2 327.248   4
  -1  -3  -5 12354.6 347.209   4
   1   3   6 53398.6 893.394   4
   1   3   6 52805.8 1001.27   1
   1   3   7 26552.4 608.850   4
   1   3   7 27203.0 679.032   1
   1   3   8 3949.59 252.740   1
   1   3   8 3994.63 233.039   4
   1   3   9 181.543 69.1514   4
   1   3  10 51.1142 53.3349   4
   1   3  10 11.8975 66.2519   2
   1   3  11 12.1213 57.8873   4
   1   3  11-26.5945 87.8568   2
   1   3  12 846.181 168.231   2
   1   3  12 1014.01 162.911   4
   1   3  13-44.6474 67.2790   4
   1   3  13 26.2480 87.5928   2
   1   3  14 625.548 144.089   4
   1   3  14 536.087 145.405   2
   1   3  15 16.9038 92.4398   2
  -1  -4  10 158.655 89.8742   2
  -1  -4   9 75.2573 61.5839   2
  -1  -4   8 226.619 74.5921   2
  -1  -4   7 136.735 64.9656   2
  -1  -4   6 4445.28 251.930   2
  -1  -4   6 4058.35 208.289   3
  -1  -4   5 11477.3 392.991   2
  -1  -4   5 11724.4 364.488   3
  -1  -4   4 3461.67 198.273   2
  -1  -4   4 3579.18 189.836   3
  -1  -4   3 4872.45 220.540   3
  -1  -4   3 4693.30 215.873   2
   1   4  -3 4857.74 224.299   3
   1   4  -2 11230.1 343.206   3
   1   4  -2 10944.6 240.477   1
  -1  -4   2 11025.6 345.435   3
  -1  -4   2 10697.4 323.020   2
   1   4  -1 15406.6 339.388   1
   1   4  -1 15263.6 405.680   3
  -1  -4   1 15611.5 395.631   2
  -1  -4   1 15453.2 414.269   3
  -1  -4   0 172.532 50.1940   3
   1   4   0 173.507 40.8891   1
  -1  -4   0 171.150 43.0428   1
   1   4   0 193.356 51.0204   3
  -1  -4   0 29.4907 49.6829   2
   1   4   1 20276.8 490.107   4
   1   4   1 20277.0 497.043   3
   1   4   1 19822.1 470.295   1
  -1  -4  -1 20084.3 497.918   2
  -1  -4  -1 20810.2 475.114   1
  -1  -4  -2 8984.56 321.749   2
   1   4   2 9306.32 297.141   4
  -1  -4  -2 9670.11 323.914   1
  -1  -4  -2 9325.47 299.023   4
   1   4   2 9336.41 318.202   1
   1   4   2 9245.13 327.827   3
  -1  -4  -3 8108.09 258.434   5
  -1  -4  -3 7895.72 305.686   1
   1   4   3 7207.72 249.277   4
   1   4   3 7556.32 300.320   1
  -1  -4  -3 7573.01 269.076   4
   1   4   3 7602.96 302.359   3
   1   4   4 1475.25 108.710   4
   1   4   4 1260.63 127.845   1
  -1  -4  -4 1726.28 127.928   4
   1   4   4 1675.88 114.738   5
   1   4   4 1504.06 139.404   3
   1   4   5 19470.2 468.750   5
   1   4   5 19213.3 547.449   1
  -1  -4  -5 19332.8 493.693   4
   1   4   5 18877.0 442.272   4
  -1  -4  -6 12407.8 400.358   4
   1   4   6 13058.2 402.928   5
   1   4   6 12863.9 453.712   1
   1   4   6 12362.7 363.813   4
   1   4   7 218.614 60.5392   1
   1   4   7 360.413 69.2906   4
   1   4   8 657.905 100.611   4
   1   4   9 491.895 91.3723   4
   1   4  10 1503.87 167.999   4
   1   4  11 326.733 109.640   2
   1   4  11 333.704 93.2599   4
   1   4  12 618.323 149.600   2
   1   4  12 782.456 139.507   4
   1   4  13 282.416 108.429   2
   1   4  13 489.294 127.290   4
   1   4  14 1026.91 197.613   2
   1   4  15 123.359 110.212   2
  -1  -5   9 106.775 73.1667   2
  -1  -5   8 1473.32 175.998   2
  -1  -5   7 3966.70 269.505   2
  -1  -5   6 741.734 116.008   2
  -1  -5   5 610.967 90.0740   3
  -1  -5   5 902.994 123.977   2
   1   5  -4 1360.25 130.531   3
  -1  -5   4 1203.14 122.204   3
  -1  -5   4 1471.52 144.655   2
   1   5  -3 958.378 112.115   3
  -1  -5   3 1062.58 124.066   2
  -1  -5   3 917.161 107.039   3
   1   5  -2 622.865 91.3010   3
   1   5  -2 605.276 58.8312   1
  -1  -5   2 682.261 91.3540   3
   1   5  -1 177.928 55.8208   3
   1   5  -1 80.6621 31.3906   1
  -1  -5   0 11331.6 379.459   2
   1   5   0 11681.8 339.969   2
  -1  -5   0 11696.4 402.076   4
   1   5   0 10992.9 378.903   3
   1   5   0 10751.6 334.053   1
   1   5   1 3528.43 170.145   2
  -1  -5  -1 3215.23 198.579   4
   1   5   1 3159.53 202.107   3
   1   5   1 3351.31 190.831   1
  -1  -5  -1 3026.25 208.863   2
   1   5   1 3393.07 209.954   4
   1   5   2 1248.26 121.261   4
   1   5   2 1328.47 130.144   1
  -1  -5  -2 1153.50 131.166   2
   1   5   2 1376.32 139.183   3
   1   5   2 1272.27 102.573   2
  -1  -5  -3 1552.01 127.739   5
   1   5   3 1566.99 130.546   4
   1   5   3 1880.54 160.442   1
   1   5   3 1633.93 134.254   2
   1   5   3 1594.66 150.796   3
   1   5   4 28815.2 715.753   1
  -1  -5  -4 30485.6 670.099   4
   1   5   4 28831.4 620.220   4
   1   5   4 29393.8 659.916   2
   1   5   4 28054.2 712.399   3
  -1  -5  -5 1286.32 130.711   4
   1   5   5 1181.76 128.584   2
   1   5   5 1150.74 139.645   3
   1   5   5 1213.30 113.732   4
   1   5   5 1112.70 132.799   1
  -1  -5  -6 12961.8 444.295   4
   1   5   6 13208.9 401.016   4
   1   5   7 19233.1 552.975   5
   1   5   7 18850.1 507.524   4
   1   5   8 18872.3 583.610   5
   1   5   8 18875.9 531.700   4
   1   5   9 2168.79 180.682   4
   1   5  10 2233.62 196.055   4
   1   5  11 6816.09 365.428   4
   1   5  12 712.540 130.347   4
   1   5  13 22.5834 91.6978   2
   1   5  13 191.141 88.3670   4
   1   5  14 1133.63 217.261   2
   1   5  15 51.2036 83.5669   2
   1   5  15 165.752 91.7742   3
  -1  -6   8 108.719 82.9784   2
  -1  -6   7 74.6582 80.6077   2
  -1  -6   6 406.179 102.982   2
  -1  -6   5 696.894 129.590   2
  -1  -6   4 702.622 119.727   2
   1   6  -4 663.212 101.775   3
  -1  -6   3 16549.2 516.912   2
   1   6  -3 17202.3 520.401   3
   1   6  -2 366.321 80.9435   3
   1   6  -2 375.407 52.1913   1
  -1  -6   1 8157.36 347.434   2
   1   6  -1 7556.47 275.125   1
   1   6  -1 7728.52 335.378   3
  -1  -6   0 1665.36 170.785   2
   1   6   0 1604.29 152.869   3
   1   6   0 1397.56 125.210   1
   1   6   1 494.465 94.7763   3
   1   6   1 585.959 91.5019   1
  -1  -6  -1 688.958 134.096   2
  -1  -6  -2 112.524 49.8426   4
  -1  -6  -2-0.56759 85.9082   2
   1   6   2 42.7348 38.5806   4
   1   6   2 64.0361 45.8221   3
   1   6   2 95.0806 44.7146   1
   1   6   3 4344.29 268.288   3
   1   6   3 4185.59 255.197   1
   1   6   3 4310.32 244.963   4
  -1  -6  -3 4091.89 247.534   4
  -1  -6  -3 3818.92 222.485   5
  -1  -6  -4 18025.7 543.427   4
  -1  -6  -4 17177.8 496.042   5
   1   6   4 16686.9 494.605   4
   1   6   4 16794.7 563.232   3
  -1  -6  -5 1266.56 143.952   4
   1   6   5 1128.95 123.999   4
   1   6   5 1205.90 152.212   3
  -1  -6  -6 3326.24 238.952   4
   1   6   6 3362.59 260.496   3
   1   6   6 3371.86 211.872   4
   1   6   7 1006.38 135.890   5
  -1  -6  -7 742.581 116.971   4
   1   6   7 690.000 124.948   3
   1   6   7 769.084 106.227   4
  -1  -6  -8 10683.2 457.371   4
   1   6   8 10356.2 400.020   4
   1   6   9 67.6322 52.6903   4
   1   6  10 27.0378 47.8438   4
   1   6  11 151.703 72.8640   4
   1   6  12 565.308 123.288   4
   1   6  13 1233.02 171.103   4
   1   6  14-61.4395 121.711   2
   1   6  14 344.315 122.121   3
   1   6  15-41.4032 110.517   2
   1   6  15 108.759 100.057   3
  -1  -7   7 556.938 133.249   2
  -1  -7   6 314.163 109.376   2
  -1  -7   5 256.789 89.6149   2
  -1  -7   4-4.06392 82.9214   2
   1   7  -4 85.0379 54.4958   3
   1   7  -3 3247.74 235.517   3
  -1  -7   3 3298.25 249.044   2
  -1  -7   2 3042.50 237.266   2
   1   7  -2 3302.63 237.584   3
   1   7  -1 629.067 113.390   3
   1   7  -1 449.067 73.3937   1
  -1  -7   1 474.523 116.335   2
   1   7   0 258.543 65.0392   1
  -1  -7   0 316.785 116.176   2
   1   7   0 172.453 69.0170   3
  -1  -7  -1 3495.04 272.108   2
   1   7   1 3537.08 229.000   1
   1   7   1 3506.65 248.617   3
   1   7   2 314.390 86.2102   3
   1   7   2 361.109 83.4807   1
   1   7   2 288.310 85.4810   4
  -1  -7  -2 239.419 105.628   2
   1   7   3 4158.00 269.568   4
   1   7   3 4099.17 284.441   3
  -1  -7  -3 4246.16 258.295   5
   1   7   4 5512.07 300.364   4
   1   7   4 6041.26 352.296   3
   1   7   5 1943.75 174.287   4
   1   7   5 2025.02 213.956   3
   1   7   6 196.737 57.7821   4
   1   7   6 143.173 65.0613   3
   1   7   7-96.5401 94.7771   3
   1   7   7 15.4077 47.0696   4
   1   7   8 113.316 77.0516   3
   1   7   8 23.3237 45.8573   4
   1   7   9 754.796 119.907   4
   1   7   9 962.349 167.364   3
   1   7  10 104.755 89.4972   3
   1   7  10 39.7616 58.7614   4
   1   7  11 570.241 143.039   3
   1   7  11 564.058 116.262   4
   1   7  12 2369.66 272.112   3
   1   7  12 2819.16 243.696   4
   1   7  13 1068.11 186.867   3
   1   7  14 797.201 185.311   3
   1   7  15-111.510 108.478   3
   1   7  15-107.768 135.320   2
  -1  -8   5-79.2055 103.565   2
  -1  -8   4 165.932 93.2065   2
  -1  -8   3 821.233 159.243   2
   1   8  -3 744.338 128.975   3
   1   8  -2 125.151 66.6287   3
  -1  -8   2 266.253 107.300   2
  -1  -8   1 1225.07 195.344   2
   1   8  -1 885.346 132.944   3
   1   8   0 3716.70 271.938   3
  -1  -8   0 3815.25 301.912   2
   1   8   1 1091.60 153.950   3
  -1  -8  -1 1042.81 179.532   2
   1   8   2 50.1597 81.0353   3
  -1  -8  -2 94.5062 85.2644   2
   1   8   3 658.468 129.687   4
   1   8   3 632.481 127.083   3
  -1  -8  -3 812.085 135.674   5
   1   8   4 2638.36 230.714   4
  -1  -8  -4 2495.27 216.083   5
   1   8   4 2671.01 250.228   3
   1   8   5 4431.01 288.176   4
   1   8   5 5030.58 351.499   3
   1   8   6 5951.72 395.504   3
   1   8   6 5912.62 330.823   4
   1   8   7 268.055 81.7380   4
   1   8   7 216.534 93.1203   3
   1   8   8 571.735 114.625   4
   1   8   8 357.102 112.851   3
   1   8   9 388.436 98.9165   4
   1   8   9 576.494 152.565   3
   1   8  10 577.038 115.867   4
   1   8  10 753.654 169.853   3
   1   8  11 61.7815 65.9610   4
   1   8  11 44.8316 85.8610   3
   1   8  12 156.677 77.6816   4
   1   8  12 36.2645 82.2776   3
   1   8  13 667.584 175.401   3
   1   8  14 56.3842 100.034   3
  -1  -9   4 508.825 157.465   2
  -1  -9   3 479.173 134.958   2
   1   9  -2 157.954 78.7926   3
  -1  -9   2 393.034 159.219   2
   1   9  -1 33.2586 64.5281   3
  -1  -9   1 193.946 128.162   2
   1   9   0 90.0489 77.2844   3
  -1  -9   0 15.8869 102.112   2
   1   9   1 23.9006 61.7305   3
  -1  -9  -1-71.3003 101.060   2
  -1  -9  -2 2992.32 255.940   5
  -1  -9  -2 2498.35 269.919   2
   1   9   2 2997.53 272.875   3
   1   9   3 2518.22 259.129   3
   1   9   3 2804.71 262.242   4
  -1  -9  -3 2422.52 229.661   5
   1   9   4 5593.28 366.677   4
  -1  -9  -4 5955.95 358.961   5
   1   9   4 6181.64 405.934   3
  -1  -9  -5 477.233 108.811   5
   1   9   5 695.837 145.578   3
   1   9   5 653.322 131.383   4
   1   9   6-59.4750 71.3252   4
   1   9   6 22.2311 78.4309   3
   1   9   7 1236.41 199.054   3
   1   9   7 1034.97 153.935   4
   1   9   8 225.945 90.0500   4
   1   9   8 87.6507 102.039   3
   1   9   9 742.125 175.358   3
   1   9   9 643.391 129.998   4
   1   9  10 589.961 124.951   4
   1   9  10 509.838 157.579   3
   1   9  11 56.9148 92.1230   3
   1   9  11-14.8823 64.4412   4
   1   9  12 372.616 146.343   3
   1   9  13 69.1557 91.6980   3
   1  10  -1 617.490 138.127   3
  -1 -10   1 864.065 195.039   2
   1  10   0 1035.32 173.756   3
  -1 -10   0 1371.63 226.509   2
  -1 -10  -1 822.352 190.633   2
   1  10   1 656.312 145.802   3
   1  10   2 282.929 104.018   3
  -1 -10  -2 364.466 130.930   5
  -1 -10  -3 79.2703 94.4621   5
   1  10   3 123.650 82.5150   3
   1  10   4 157.970 90.9316   3
  -1 -10  -4 191.864 101.960   5
   1  10   4 127.661 92.5649   4
   1  10   5 877.126 181.889   3
  -1 -10  -5 890.604 161.823   5
   1  10   5 812.826 148.307   4
   1  10   6 2007.84 235.387   4
   1  10   6 1971.83 264.414   3
   1  10   7 226.979 114.057   3
   1  10   7 366.357 114.851   4
   1  10   8 1786.87 213.198   4
   1  10   8 1792.31 262.723   3
   1  10   9 1271.95 230.148   3
   1  10   9 1258.96 182.674   4
   1  10  10 328.695 151.947   3
   1  10  10 337.206 108.663   4
   1  10  11-16.7262 92.2615   3
   1  10  11 128.844 82.1001   4
   1  11   0 113.579 94.6294   3
   1  11   1 339.243 117.371   3
   1  11   2 287.182 126.420   3
  -1 -11  -3 239.195 129.309   5
   1  11   3-130.646 122.449   3
   1  11   4 120.361 89.8354   3
  -1 -11  -4 240.233 117.026   5
   1  11   5 78.3896 101.363   3
   1  11   6 1630.08 248.339   3
   1  11   6 1436.61 217.793   4
   1  11   7 50.7919 108.613   3
   1  11   7 324.992 118.513   4
   1  11   8 363.410 157.392   3
   1  11   8 167.545 88.9848   4
   1  11   9 36.4792 85.7315   4
   1  11  10 60.2306 89.6950   4
   1  12   7-117.213 127.132   4
   1  12   8-83.4245 104.283   4
  -2  11   6-129.311 137.097   3
  -2  11   5 118.093 100.045   3
  -2  11   4-13.0643 94.4233   3
   2 -11  -4-22.5460 131.896   5
  -2  11   3 408.905 135.893   3
   2 -11  -3 383.319 164.535   5
   2 -11  -2 331.939 165.568   5
  -2  11   2 338.380 122.854   3
  -2  11   1 396.559 135.314   3
   2 -11  -1 42.5173 120.043   5
   2 -11   0-163.044 143.335   2
   2 -11   1 43.1815 121.198   2
  -2  10  10 27.3028 95.9802   4
  -2  10   9 654.076 166.396   4
  -2  10   8 294.865 115.774   4
  -2  10   7 922.085 177.616   4
  -2  10   6 704.485 167.929   4
  -2  10   5 96.1734 104.942   3
  -2  10   5 127.188 92.3084   4
  -2  10   4 550.005 142.513   3
   2 -10  -4 641.046 172.556   5
  -2  10   4 792.020 168.101   4
  -2  10   3 141.692 109.329   4
   2 -10  -3 234.377 134.673   5
  -2  10   3 129.620 92.4269   3
  -2  10   2 2582.22 277.302   3
  -2  10   2 2830.81 296.430   4
   2 -10  -2 3077.04 327.238   5
  -2  10   1 470.297 142.995   4
   2 -10  -1 914.879 198.240   5
  -2  10   1 774.220 150.770   3
  -2  10   0 131.026 83.1791   3
   2 -10   0-5.17167 101.788   2
  -2  10   0 75.2517 82.1742   4
   2 -10   1 426.180 143.685   2
   2 -10   2 135.454 123.939   2
   2 -10   3-9.39050 96.7121   2
  -2   9  12-27.8856 110.816   4
  -2   9  11 967.484 198.250   4
  -2   9  10 63.4549 80.5717   4
  -2   9   9 12.3625 81.3643   4
  -2   9   8 213.696 105.964   4
  -2   9   7 562.080 150.621   4
  -2   9   6 509.872 136.029   4
   2  -9  -5-169.593 155.183   5
  -2   9   5 34.8588 89.3504   4
  -2   9   4 10.5331 72.2273   4
   2  -9  -4-38.1239 102.142   5
   2  -9  -3 171.186 122.533   5
  -2   9   3 7.31966 79.6821   4
  -2   9   3 32.6107 75.3992   3
  -2   9   2 1300.22 191.810   4
  -2   9   2 1081.37 175.328   3
   2  -9  -2 1195.62 199.444   5
   2  -9  -1 577.580 130.138   2
  -2   9   1 583.814 123.117   3
  -2   9   1 536.218 129.104   4
   2  -9  -1 683.703 166.522   5
  -2   9   0 877.016 170.599   4
  -2   9   0 945.473 157.337   3
   2  -9   0 1054.66 171.781   2
  -2   9  -1 17.6551 62.1325   3
  -2   9  -1-35.2410 93.8408   4
   2  -9   1 103.155 94.5710   2
   2  -9   2-14.0986 81.0585   2
   2  -9   3 375.464 122.043   2
   2  -9   4 89.6512 92.0301   2
   2  -9   5-40.3452 95.9073   2
  -2   8  13 23.3177 103.480   4
  -2   8  12-4.74609 82.4846   4
  -2   8  11-104.363 105.112   4
  -2   8  10 1254.46 208.330   4
  -2   8   9 227.199 112.975   4
  -2   8   8 418.275 123.853   4
  -2   8   7 451.683 120.093   4
  -2   8   6 3425.69 294.706   4
  -2   8   5 1412.06 189.550   4
  -2   8   4 1885.16 215.476   4
   2  -8  -4 1975.60 238.521   5
   2  -8  -3 263.788 112.698   5
  -2   8   3 328.623 110.907   4
   2  -8  -2 247.859 116.942   5
  -2   8   2 113.625 74.9550   4
   2  -8  -1 7165.59 423.448   5
   2  -8  -1 6558.03 353.774   2
  -2   8   1 6771.74 402.941   4
  -2   8   1 6751.15 382.941   3
  -2   8   0 401.140 106.627   4
   2  -8   0 539.080 130.358   2
  -2   8   0 417.222 107.051   3
  -2   8  -1 4745.04 354.678   4
  -2   8  -1 4890.08 298.886   3
   2  -8   1 4395.93 296.545   2
  -2   8  -2 250.514 82.6446   3
  -2   8  -2 164.025 87.1807   4
   2  -8   2 242.348 99.4075   2
   2  -8   3 471.908 113.484   2
  -2   8  -3 337.218 75.1591   3
   2  -8   4 145.203 70.1897   2
   2  -8   5-209.746 105.144   2
   2  -8   6 117.266 79.6844   2
  -2   7  14 116.708 111.434   4
  -2   7  13 496.096 163.555   4
  -2   7  12-50.6616 89.3437   2
  -2   7  12 105.164 102.124   4
  -2   7  11 383.429 107.053   2
  -2   7  11 509.580 150.240   4
  -2   7  10 1499.19 225.416   4
  -2   7   9 697.022 155.704   4
  -2   7   8 4223.90 335.860   4
  -2   7   7 1008.54 164.426   4
  -2   7   6 561.306 128.351   4
  -2   7   6 615.679 93.2556   2
  -2   7   5 490.995 114.781   4
  -2   7   5 270.618 55.9610   2
   2  -7  -4 73.2468 95.4195   5
  -2   7   4 231.919 53.6398   2
  -2   7   4 195.808 75.8061   4
  -2   7   3-7.88758 35.2729   2
  -2   7   3 17.4716 59.2397   4
   2  -7  -3 20.2278 96.0284   5
  -2   7   2 4129.02 289.585   4
   2  -7  -2 3976.76 307.890   5
  -2   7   2 4033.10 196.065   2
   2  -7  -1 3061.87 221.674   2
  -2   7   1 3380.53 263.192   4
  -2   7   0 39.4955 51.8731   3
  -2   7   0-38.6533 56.8044   4
   2  -7   0 33.3265 71.3876   2
  -2   7  -1 1418.09 182.587   4
   2  -7   1 1416.48 152.840   2
  -2   7  -1 1428.71 148.899   1
  -2   7  -1 1471.61 153.341   3
  -2   7  -2 939.679 118.338   3
   2  -7   2 808.982 116.385   2
  -2   7  -2 882.842 109.111   1
  -2   7  -2 747.432 139.030   4
  -2   7  -3 605.285 90.8481   3
   2  -7   3 499.681 95.0067   2
  -2   7  -4-2.27317 34.1532   3
   2  -7   4 122.830 74.1550   2
   2  -7   5 802.155 127.649   2
   2  -7   6 2558.52 216.196   2
   2  -7   7 57.4301 67.9034   2
   2  -7   8 1076.88 163.209   2
  -2   6  14 314.249 135.976   4
  -2   6  13 74.6249 79.7882   2
  -2   6  13 21.7592 102.560   4
  -2   6  12 56.2813 96.0759   4
  -2   6  12 54.8977 76.1185   2
  -2   6  11 241.380 82.3462   2
  -2   6  11 119.391 83.2678   4
  -2   6  10 49.9627 62.6461   2
  -2   6  10 243.139 109.509   4
  -2   6   9 157.293 102.272   4
  -2   6   8 919.803 166.561   4
  -2   6   7 92.6215 68.1082   4
  -2   6   7-65.9170 66.4227   2
  -2   6   6 1779.33 203.182   4
  -2   6   6 1545.11 141.507   2
  -2   6   5 4269.62 293.730   4
  -2   6   5 4192.91 203.583   2
  -2   6   4 6228.53 343.392   4
  -2   6   4 5837.55 217.677   2
   2  -6  -4 5193.56 335.265   5
  -2   6   3 11761.9 307.206   2
  -2   6   3 11831.5 469.573   4
   2  -6  -3 11137.3 478.410   5
  -2   6   2-72.0976 61.8210   4
   2  -6  -2 152.493 100.734   5
  -2   6   2 45.5815 31.6564   2
  -2   6   1 9328.33 286.723   2
  -2   6   1 9420.49 410.804   4
   2  -6  -1 8927.65 345.188   2
  -2   6   0 5105.63 225.083   2
   2  -6   0 5014.03 249.269   2
  -2   6   0 5226.06 304.207   4
  -2   6  -1 475.253 107.334   4
   2  -6   1 280.017 65.1958   2
  -2   6  -1 412.077 80.0464   3
  -2   6  -2 1229.62 154.801   4
   2  -6   2 1035.54 103.658   2
  -2   6  -2 1473.71 136.687   3
  -2   6  -3 4003.36 289.961   4
  -2   6  -3 4407.84 209.395   1
  -2   6  -3 4699.02 221.893   3
   2  -6   3 4500.90 227.944   2
   2  -6   4 1147.66 125.663   2
  -2   6  -4 1040.14 95.8893   3
  -2   6  -4 1138.61 90.4828   1
   2  -6   5 316.113 82.8567   2
  -2   6  -5 425.596 56.6381   3
   2  -6   6 510.154 100.363   2
   2  -6   7 430.835 98.9474   2
   2  -6   8 937.376 145.926   2
   2  -6   9 34.2667 80.8764   2
  -2   5  14-181.889 131.031   4
  -2   5  14-195.189 125.499   2
  -2   5  13-15.3144 115.927   4
  -2   5  13 140.285 86.5015   2
  -2   5  12 101.812 76.8230   2
  -2   5  12 54.6787 104.858   4
  -2   5  11 153.766 79.8045   2
  -2   5  11-33.1837 92.2994   4
  -2   5  10 147.142 64.8323   2
  -2   5  10 292.399 110.280   4
  -2   5   9 1470.61 163.149   2
  -2   5   9 2032.04 239.462   4
  -2   5   8 235.352 97.8934   4
  -2   5   7 17.8247 63.6569   4
  -2   5   6 479.694 113.389   4
  -2   5   5 7598.10 377.119   4
  -2   5   5 7026.10 267.719   2
  -2   5   4 2147.78 195.578   4
  -2   5   4 2143.11 133.938   2
   2  -5  -3 203.718 87.2469   5
  -2   5   3 159.607 31.7551   2
  -2   5   3 220.936 72.9068   4
   2  -5  -2 2979.60 229.195   5
  -2   5   2 2581.18 120.316   2
  -2   5   2 2577.58 200.874   4
   2  -5  -1 7587.23 276.434   2
  -2   5   1 7560.47 227.455   2
  -2   5   1 7629.34 338.417   4
  -2   5   0 2492.09 195.616   4
   2  -5   0 2807.81 156.658   2
  -2   5   0 2680.77 141.673   2
  -2   5  -1 17406.4 539.694   4
  -2   5  -1 18064.0 443.255   2
   2  -5   1 17477.0 412.712   2
  -2   5  -2 9429.11 393.711   4
  -2   5  -2 9534.24 337.031   2
  -2   5  -2 9236.85 312.873   3
   2  -5   2 8713.81 286.091   2
  -2   5  -3 547.161 100.660   4
  -2   5  -3 584.866 73.1463   3
   2  -5   3 565.622 80.1634   2
  -2   5  -4 188.927 40.9302   3
   2  -5   4 232.587 63.3080   2
  -2   5  -5 967.850 67.6093   3
  -2   5  -5 885.977 53.1901   1
  -2   5  -5 777.813 52.9436   1
   2  -5   5 908.482 109.698   2
   2  -5   6 217.544 70.9393   2
   2  -5   7 582.421 103.271   2
   2  -5   8 395.054 99.4455   2
   2  -5   9 364.718 100.523   2
   2  -5  10 193.356 86.7322   2
  -2   4  14-92.2448 106.444   2
  -2   4  14-54.8091 102.840   4
  -2   4  13-39.7538 85.2987   2
  -2   4  13 136.029 111.896   4
  -2   4  12-32.8469 104.631   4
  -2   4  12 177.678 107.005   2
  -2   4  11 1949.89 267.242   4
  -2   4  11 2101.04 210.929   2
  -2   4  10 424.145 134.424   4
  -2   4  10 517.015 106.294   2
  -2   4   9 834.883 124.268   2
  -2   4   9 946.989 181.431   4
  -2   4   8 589.523 145.363   4
  -2   4   8 327.564 77.1774   2
  -2   4   7-62.1471 58.9532   2
  -2   4   7 70.5183 59.9699   4
  -2   4   6 6492.77 371.132   4
  -2   4   5 33558.9 853.495   4
   2  -4  -5 34279.4 902.343   4
  -2   4   4 3981.14 172.924   2
  -2   4   4 3882.05 255.788   4
  -2   4   3 2962.68 131.322   2
  -2   4   3 2516.64 191.594   4
   2  -4  -3 2402.74 194.930   5
   2  -4  -2 3281.54 219.665   5
  -2   4   2 3238.46 117.706   2
  -2   4   2 3060.68 204.948   4
  -2   4   1 78.5402 42.7346   4
   2  -4  -1 111.865 56.8014   2
   2  -4  -1 154.692 79.3542   5
  -2   4   1 59.0067 21.6164   2
   2  -4   0 2664.16 127.131   2
  -2   4   0 2766.10 125.137   2
  -2   4   0 2883.60 187.518   4
  -2   4  -1 12407.5 320.899   2
  -2   4  -1 12196.6 403.335   4
   2  -4   1 12641.5 296.970   2
  -2   4  -2 954.058 113.501   4
  -2   4  -2 890.040 91.9146   2
   2  -4   2 1204.98 130.675   4
   2  -4   2 1039.82 87.2552   2
   2  -4   3 5063.72 271.361   4
  -2   4  -3 4953.05 263.166   4
  -2   4  -3 5204.98 251.234   2
   2  -4   3 5007.04 208.095   2
  -2   4  -3 5341.89 191.345   3
  -2   4  -4 6934.98 188.025   3
   2  -4   4 6643.13 258.252   2
   2  -4   5 17009.6 465.647   2
  -2   4  -5 16570.5 305.138   1
   2  -4   6 597.230 92.5334   2
   2  -4   7 1650.32 162.455   2
   2  -4   8 494.685 103.278   2
   2  -4   9 1764.59 186.526   2
   2  -4  10 1294.11 172.553   2
   2  -4  11 7.44779 75.6920   2
  -2   3  14 10.0093 100.986   4
  -2   3  14 14.4536 84.3102   2
  -2   3  13 81.7545 124.938   4
  -2   3  13-173.822 105.504   2
  -2   3  12 193.612 115.009   4
  -2   3  12 93.5004 72.0277   2
  -2   3  11 101.625 110.113   4
  -2   3  11 103.822 63.0748   2
  -2   3  10 227.835 83.5010   2
  -2   3  10 68.4455 91.1937   4
  -2   3   9 2972.33 223.591   2
  -2   3   9 3229.18 308.646   4
  -2   3   8 789.963 115.366   2
  -2   3   8 861.183 184.023   4
  -2   3   7 4080.03 309.913   4
  -2   3   7 3558.56 215.419   2
  -2   3   6 4951.97 332.461   4
  -2   3   6 5303.26 250.872   2
  -2   3   5 8213.96 393.018   4
  -2   3   4 37844.1 871.173   4
  -2   3   3 10226.9 388.402   4
   2  -3  -2 2076.64 160.458   5
  -2   3   2 2352.84 171.959   4
  -2   3   2 2290.56 87.4120   2
  -2   3   1 32045.5 456.019   2
   2  -3  -1 33300.5 512.395   2
  -2   3   1 32806.1 685.570   4
   2  -3  -1 32911.4 679.980   5
   2  -3   0 582.110 46.0015   2
  -2   3   0 588.888 49.0120   2
  -2   3   0 485.595 73.9153   4
  -2   3  -1 490.744 53.4489   2
   2  -3   1 316.488 39.3553   2
  -2   3  -1 476.381 74.3788   4
   2  -3   2 15586.8 437.094   4
   2  -3   2 15020.4 325.963   2
  -2   3  -2 15135.0 374.486   2
  -2   3  -2 14815.3 409.598   4
   2  -3   3 1295.05 122.928   4
   2  -3   3 1130.66 95.4017   2
  -2   3  -3 1358.54 117.548   2
  -2   3  -3 1268.05 120.377   4
   2  -3   4 3903.31 218.003   4
  -2   3  -4 4102.87 230.448   2
   2  -3   4 4104.87 194.221   2
  -2   3  -4 3920.00 103.357   3
   2  -3   5 1586.94 135.217   2
   2  -3   5 1392.45 137.140   4
  -2   3  -5 1273.55 142.654   2
  -2   3  -5 1338.51 77.1486   1
  -2   3  -6 6840.85 165.612   1
   2  -3   6 6756.63 297.368   2
   2  -3   7 5157.71 275.471   2
   2  -3   8 1950.77 184.848   2
   2  -3   9 455.449 103.306   2
   2  -3  10 432.705 106.921   2
   2  -3  11 555.374 131.997   2
   2  -3  12 394.736 117.522   2
  -2   2  14 686.318 144.017   2
  -2   2  14 531.120 190.788   4
  -2   2  13 176.747 97.9852   2
  -2   2  13 70.4283 105.148   4
  -2   2  12 463.627 172.025   4
  -2   2  12 408.755 104.580   2
  -2   2  11 186.078 76.1245   2
  -2   2  11 354.733 128.156   4
  -2   2  10 179.755 62.9539   2
  -2   2  10 229.187 129.108   4
  -2   2   9 71.9383 52.9090   2
  -2   2   9 203.699 101.336   4
  -2   2   8 1326.88 138.645   2
  -2   2   8 1291.81 194.145   4
  -2   2   7 3370.28 286.316   4
  -2   2   7 3343.28 205.917   2
  -2   2   6 5612.01 344.606   4
  -2   2   6 5438.16 241.856   2
  -2   2   5 463.112 65.1046   2
  -2   2   5 434.001 98.6483   4
  -2   2   4 12107.3 457.364   4
  -2   2   4 9372.42 286.828   2
  -2   2   3 222195. 2957.77   4
  -2   2   3 224985. 2614.28   2
  -2   2   2 35115.5 738.234   4
   2  -2  -1 148228. 1959.68   5
  -2   2   1 148359. 2006.27   4
  -2   2   1 150348. 1662.04   2
  -2   2   0 11940.6 340.792   4
   2  -2   0 12880.0 201.639   2
  -2   2   0 12461.7 215.557   2
   2  -2   1 10611.4 317.329   4
  -2   2  -1 10495.3 240.589   2
  -2   2  -1 10693.8 305.708   4
   2  -2   1 11212.4 214.880   2
   2  -2   2 42423.5 640.871   2
   2  -2   2 42488.6 735.629   4
  -2   2  -2 41575.5 686.250   2
  -2   2  -2 41524.4 712.277   4
   2  -2   3 7219.29 232.122   2
  -2   2  -3 7206.03 250.249   4
  -2   2  -3 7349.70 266.326   2
   2  -2   3 7267.81 256.036   4
  -2   2  -4 259.881 55.7750   2
  -2   2  -4 258.784 40.2694   1
   2  -2   4 247.242 52.6461   4
   2  -2   4 137.094 43.9553   2
   2  -2   5 3064.66 175.276   4
  -2   2  -5 3220.65 214.986   2
   2  -2   5 2824.53 179.356   2
  -2   2  -5 3225.56 130.506   1
  -2   2  -6 2797.09 122.928   1
   2  -2   6 2615.57 182.641   2
   2  -2   6 3062.12 187.506   4
   2  -2   7 273.761 74.0668   2
   2  -2   7 334.411 69.7452   4
  -2   2  -7 309.885 42.6573   1
   2  -2   8 26398.9 708.762   2
   2  -2   9 694.479 118.332   2
   2  -2  10 165.576 93.2398   2
   2  -2  11 110.265 71.8666   2
   2  -2  12 125.318 92.5995   2
   2  -2  13 211.739 105.272   2
  -2   1  14 77.8844 126.483   4
  -2   1  14 192.928 103.567   2
  -2   1  13 222.626 97.3716   2
  -2   1  13 105.613 115.040   4
  -2   1  12 3663.11 278.759   2
  -2   1  11 21.9167 62.1236   2
  -2   1  10-56.6338 66.6347   2
  -2   1   9 469.129 94.9279   2
  -2   1   8 1114.93 125.955   2
  -2   1   7 203.995 55.9721   2
  -2   1   6 1461.78 121.524   2
  -2   1   5 5144.29 209.456   2
  -2   1   4 3099.88 142.855   2
  -2   1   3 20457.5 566.975   4
  -2   1   3 21358.6 379.019   2
  -2   1   2 62440.5 1072.93   4
  -2   1   2 62763.6 779.765   2
  -2   1   1 116729. 1624.93   4
   2  -1  -1 116923. 1552.64   5
  -2   1   0 3721.87 173.080   4
   2  -1   0 3686.60 160.234   5
  -2   1  -1 112933. 1448.06   4
   2  -1   1 110934. 1477.01   4
   2  -1   1 113433. 1336.65   2
  -2   1  -2 145668. 1785.19   4
   2  -1   2 143636. 1813.78   4
   2  -1   2 146736. 1788.27   2
  -2   1  -3 1984.92 105.137   4
  -2   1  -3 1807.56 98.6308   1
   2  -1   3 1662.51 110.076   2
  -2   1  -3 1829.59 66.3511   3
   2  -1   3 1698.82 99.4187   4
   2  -1   4 791.855 71.9803   4
   2  -1   4 938.756 95.3876   2
  -2   1  -4 873.795 71.8691   1
   2  -1   5 3580.37 164.977   4
  -2   1  -5 3572.30 150.791   1
   2  -1   5 3467.51 197.220   2
   2  -1   6 15171.5 472.334   2
  -2   1  -6 16276.7 368.655   1
   2  -1   6 16334.1 412.360   4
   2  -1   7 380.668 67.0564   4
   2  -1   7 398.198 92.2686   2
  -2   1  -7 367.576 57.1399   1
   2  -1   8 311.893 78.7081   2
   2  -1   8 487.685 84.2599   4
   2  -1   9 2655.94 195.050   4
   2  -1   9 2887.43 237.739   2
   2  -1  10 275.715 93.2059   2
   2  -1  11-97.4332 97.4908   2
   2  -1  12 635.782 141.149   2
   2  -1  13-13.9795 101.843   2
  -2   0  13 29.0257 85.6924   2
  -2   0  12 998.595 157.825   2
  -2   0  11 2682.85 227.847   2
  -2   0  10 61.7941 67.6062   2
  -2   0   9 55.6852 53.2161   2
  -2   0   9 99.2984 52.1784   1
  -2   0   8 531.401 92.1010   2
  -2   0   7 148.326 59.5708   2
  -2   0   6 281.972 73.7897   2
   2   0  -6 194.954 60.3853   2
  -2   0   5 23.5862 32.5060   2
  -2   0   4 3048.85 146.460   2
   2   0  -4 3029.89 165.900   2
   2   0  -3 25947.9 493.501   2
  -2   0   3 26349.6 451.159   2
  -2   0   2 274.943 30.8787   2
   2   0  -2 288.832 37.3347   2
  -2   0   1 367005. 4007.02   2
   2   0  -1 354400. 4018.37   2
   2   0   0 403270. 4456.39   2
  -2   0   0 398883. 4683.60   4
  -2   0   0 394119. 4558.24   5
   2   0   1 10208.7 247.518   4
  -2   0  -1 9986.02 238.343   4
   2   0   2 44427.8 624.678   4
  -2   0  -2 45137.8 599.669   4
  -2   0  -2 44041.2 634.225   3
  -2   0  -3 1103.94 56.5620   4
   2   0   3 1047.38 61.1400   3
  -2   0  -3 988.297 58.9916   3
   2   0   3 1104.23 58.6402   4
   2   0   4 13698.4 320.605   1
  -2   0  -4 13696.4 331.109   1
   2   0   4 14429.5 272.753   4
   2   0   4 13066.8 378.508   2
   2   0   4 13772.3 251.135   3
  -2   0  -4 14592.7 262.898   3
   2   0   5 84896.7 1041.66   3
   2   0   5 83634.2 1332.61   2
   2   0   5 84979.4 1122.94   4
   2   0   5 84212.9 1174.29   1
  -2   0  -5 84726.4 1207.97   1
   2   0   6 14095.3 338.732   4
  -2   0  -6 14115.4 372.064   1
   2   0   6 14138.9 462.210   2
   2   0   6 14425.8 357.601   1
   2   0   6 14642.6 264.030   3
   2   0   7 780.437 117.399   2
   2   0   7 707.998 78.2829   4
   2   0   7 834.627 83.7331   1
  -2   0  -7 754.017 85.5711   1
   2   0   7 773.705 56.1495   3
  -2   0  -8 2323.21 156.053   1
   2   0   8 2241.00 201.166   2
   2   0   8 2085.36 139.832   1
   2   0   8 2272.31 99.4724   3
   2   0   9 4513.80 216.206   1
   2   0   9 4835.49 312.936   2
   2   0   9 4561.31 150.479   3
   2   0  10 3148.40 185.218   1
   2   0  10 3428.27 278.728   2
   2   0  10 3426.10 130.022   3
   2   0  11 1283.88 188.158   2
   2   0  12 3392.07 303.813   2
   2   0  13-189.833 123.730   2
   2   0  14-91.5060 111.012   2
  -2  -1  12 166.927 89.3890   2
  -2  -1  11 198.191 84.5018   2
  -2  -1  10 383.000 103.700   2
  -2  -1   9 7045.74 343.818   2
  -2  -1   8 396.651 91.2832   2
  -2  -1   8 349.930 83.7264   3
  -2  -1   7 9284.21 351.342   2
  -2  -1   6 3903.82 207.885   2
  -2  -1   5 28416.8 586.747   2
   2   1  -5 28800.7 664.233   2
  -2  -1   4 63.6977 30.7780   2
   2   1  -4 72.6914 38.4596   2
  -2  -1   3 1492.01 93.0165   2
   2   1  -3 1367.92 103.025   2
   2   1  -2 191.871 35.9477   2
  -2  -1   2 222.575 49.7194   3
  -2  -1   2 165.925 33.0666   2
   2   1  -1 4123.65 128.953   2
  -2  -1   1 4343.20 131.758   2
  -2  -1   0 10905.7 244.810   2
   2   1   0 11054.8 287.403   3
   2   1   1 37322.5 613.456   3
   2   1   2 10500.7 271.548   1
   2   1   2 10900.0 264.068   3
   2   1   3 106320. 1392.45   1
   2   1   3 102594. 1330.87   3
  -2  -1  -3 103496. 1343.26   3
   2   1   4 115054. 1546.23   1
  -2  -1  -4 114368. 1476.98   3
   2   1   4 116694. 1468.84   3
   2   1   5 18.5173 21.6661   3
  -2  -1  -5 31.7855 38.0004   1
   2   1   5 18.3507 25.1204   1
  -2  -1  -6 19379.4 477.235   1
   2   1   6 17809.0 455.478   1
   2   1   6 19086.6 397.199   3
   2   1   7 4634.72 277.435   2
   2   1   7 4574.90 222.717   1
  -2  -1  -7 4957.86 238.931   1
   2   1   7 4574.05 182.381   3
   2   1   8 1211.47 154.746   2
   2   1   8 1334.66 124.518   1
   2   1   8 1332.69 100.286   3
   2   1   9 1171.02 159.497   2
   2   1   9 1033.49 117.100   1
   2   1   9 973.444 93.2563   3
   2   1  10 2595.04 188.892   1
   2   1  10 2219.38 232.334   2
   2   1  10 2409.85 147.530   3
   2   1  11 305.168 61.5484   3
   2   1  11 270.195 72.5789   1
   2   1  12 1011.08 177.713   2
   2   1  13 150.278 114.724   2
   2   1  14 179.712 105.775   2
  -2  -2  12 389.529 115.500   2
  -2  -2  11 707.486 120.696   2
  -2  -2  10 725.415 121.836   2
  -2  -2   9 2013.15 184.755   2
  -2  -2   8 248.449 69.8383   3
  -2  -2   8 113.205 61.1988   2
  -2  -2   7 1216.25 127.920   2
  -2  -2   7 1246.56 131.007   3
  -2  -2   6 14322.8 429.727   2
  -2  -2   6 14579.3 445.674   3
  -2  -2   5 841.668 94.2247   2
  -2  -2   5 1016.09 107.625   3
  -2  -2   4 936.139 92.3689   2
  -2  -2   4 1032.43 105.320   3
   2   2  -4 1067.84 111.149   2
  -2  -2   3 443.204 69.2902   3
  -2  -2   3 486.399 62.6765   2
  -2  -2   2 4384.95 165.258   2
  -2  -2   2 4171.89 154.630   1
  -2  -2   2 4273.06 195.553   3
  -2  -2   1 507.731 54.0800   2
  -2  -2   1 594.621 62.3414   1
   2   2  -1 727.706 79.0130   3
  -2  -2   1 607.512 72.9167   3
  -2  -2   0 41680.0 674.695   2
  -2  -2   0 41960.6 674.017   1
   2   2   0 42404.2 724.326   3
  -2  -2  -1 7100.12 233.732   2
  -2  -2  -1 6742.10 225.088   1
   2   2   1 7123.20 236.676   3
   2   2   1 6704.14 216.361   1
  -2  -2  -2 68461.2 888.034   4
   2   2   2 68149.3 1011.22   1
   2   2   2 69666.0 1010.11   3
  -2  -2  -3 7032.32 142.564   4
   2   2   3 6978.90 248.339   1
   2   2   3 6798.32 229.114   3
   2   2   4 3593.35 182.164   1
   2   2   4 3322.66 161.552   3
   2   2   5 8277.93 298.960   1
   2   2   5 8350.98 273.181   3
   2   2   5 8240.26 169.680   4
   2   2   6 1257.37 81.7072   4
   2   2   6 1324.96 122.451   1
   2   2   6 1224.44 107.706   3
   2   2   7 3317.84 207.186   1
   2   2   7 3563.72 169.430   4
   2   2   7 3291.15 180.747   3
   2   2   8 41536.4 779.483   4
   2   2   8 40092.9 773.143   3
   2   2   8 39931.2 853.766   1
   2   2   9 151.625 61.9054   1
   2   2   9 96.5945 46.1242   3
   2   2   9 15.8975 61.5850   2
   2   2   9 16.0785 46.2225   4
   2   2  10 581.216 88.8501   3
   2   2  10 586.234 131.235   2
   2   2  10 505.830 96.9683   4
   2   2  11 5649.10 273.708   3
   2   2  11 5216.97 314.392   4
   2   2  11 5695.16 389.433   2
   2   2  12 11.3038 44.7516   3
   2   2  12 46.4593 99.2355   2
   2   2  12-70.8997 72.4510   4
   2   2  13 444.404 117.975   4
   2   2  13 587.947 159.236   2
   2   2  14 114.584 106.841   2
   2   2  15 209.142 102.394   2
  -2  -3  11 74.0514 74.3636   2
  -2  -3  10-53.1204 68.8769   2
  -2  -3   9 224.411 81.9050   2
  -2  -3   8 585.271 104.754   2
  -2  -3   7 1129.13 124.287   3
  -2  -3   7 1156.22 135.008   2
  -2  -3   6 7248.73 311.066   2
  -2  -3   6 6620.84 159.697   1
  -2  -3   6 7261.22 306.016   3
  -2  -3   5 30.9190 36.1886   3
  -2  -3   5 64.5654 22.0382   1
  -2  -3   5 8.55725 48.6142   2
  -2  -3   4 4921.57 163.061   1
  -2  -3   4 5067.97 238.593   3
  -2  -3   4 5463.63 234.789   2
   2   3  -3 15769.8 436.310   2
  -2  -3   3 15363.1 396.135   2
  -2  -3   3 15958.7 336.101   1
  -2  -3   3 16130.7 434.010   3
  -2  -3   2 10550.1 271.481   1
  -2  -3   2 10947.4 340.278   3
   2   3  -2 10099.4 337.792   3
  -2  -3   2 10682.5 305.069   2
  -2  -3   1 1452.15 101.888   2
  -2  -3   1 1723.71 109.164   1
   2   3  -1 1781.29 135.444   3
  -2  -3   1 1737.11 130.107   3
  -2  -3   0 10608.8 311.972   2
   2   3   0 10658.2 286.285   1
   2   3   0 10701.7 331.779   3
  -2  -3   0 10497.0 324.068   3
  -2  -3   0 10172.0 290.376   1
  -2  -3  -1 19488.7 464.954   2
  -2  -3  -1 19198.3 419.159   4
   2   3   1 19411.8 433.286   1
   2   3   1 19076.4 459.783   3
  -2  -3  -1 18959.8 439.096   1
  -2  -3  -2 6212.74 139.126   5
  -2  -3  -2 6247.36 247.016   1
  -2  -3  -2 6036.53 194.508   4
   2   3   2 6121.14 242.174   3
   2   3   2 5932.57 236.156   1
  -2  -3  -3 1058.92 72.9189   4
   2   3   3 1143.35 105.960   3
   2   3   3 1115.08 104.988   1
   2   3   4 16947.7 330.551   5
   2   3   4 15956.7 434.105   3
   2   3   4 16253.8 306.915   4
  -2  -3  -4 16785.8 326.079   4
   2   3   4 16422.7 456.426   1
  -2  -3  -5 41963.8 645.035   4
   2   3   5 40892.0 792.294   3
   2   3   5 41637.4 593.458   4
   2   3   5 41248.5 830.750   1
   2   3   6 408.698 72.2461   3
   2   3   6 527.225 50.3572   4
   2   3   6 515.055 84.7381   1
  -2  -3  -7 2628.18 197.111   1
   2   3   7 2478.82 129.967   4
   2   3   7 2676.72 183.206   3
   2   3   7 2674.26 199.228   1
   2   3   8 7534.99 266.526   4
  -2  -3  -8 7355.32 348.811   1
   2   3   8 7173.15 344.164   1
   2   3   8 7252.39 314.227   3
   2   3   9 79.4999 48.1431   4
   2   3   9 10.5859 41.0893   3
   2   3  10 1699.92 158.384   4
   2   3  10 1476.24 152.470   3
   2   3  11 457.897 126.488   2
   2   3  11 500.302 96.9079   4
   2   3  11 498.545 101.677   3
   2   3  12 81.5848 92.9002   2
   2   3  12 3.90003 52.0960   4
   2   3  12 84.7621 63.2700   3
   2   3  13 310.692 128.672   2
   2   3  13 241.252 81.4375   3
   2   3  13 117.396 91.0107   4
   2   3  14 831.812 187.471   2
   2   3  15 258.405 162.214   2
  -2  -4  10 44.1170 61.3211   2
  -2  -4   9 85.6857 71.6505   2
  -2  -4   8 59.7568 61.0373   2
  -2  -4   7-2.32198 63.0950   2
  -2  -4   6 3564.26 221.853   3
  -2  -4   6 3221.12 219.607   2
  -2  -4   5 5617.87 273.843   3
  -2  -4   5 5767.40 278.766   2
  -2  -4   4 356.301 69.6138   3
  -2  -4   4 374.072 82.0067   2
  -2  -4   4 278.922 36.9573   1
  -2  -4   3 2976.77 133.572   1
  -2  -4   3 3417.22 191.769   2
  -2  -4   3 3022.88 191.356   3
  -2  -4   2 2201.98 123.884   1
  -2  -4   2 2073.26 155.429   3
   2   4  -2 1889.28 156.496   3
  -2  -4   2 1827.59 138.624   2
  -2  -4   1 2238.06 134.976   1
   2   4  -1 2286.05 168.699   3
  -2  -4   1 2395.50 166.479   3
  -2  -4   1 2162.50 149.353   2
   2   4   0 270.262 60.8675   3
   2   4   0 239.967 46.9607   1
  -2  -4   0 274.765 63.9878   3
  -2  -4   0 329.777 83.2397   2
  -2  -4   0 287.140 54.4786   1
   2   4   1 839.410 97.8307   3
  -2  -4  -1 866.342 92.8904   1
  -2  -4  -1 940.624 95.2145   4
  -2  -4  -1 925.233 122.930   2
   2   4   1 805.256 87.0764   1
  -2  -4  -1 925.894 105.729   3
   2   4   2 91.8890 40.2053   1
   2   4   2 151.654 53.3033   3
  -2  -4  -2 214.000 56.2138   1
  -2  -4  -2 224.756 46.7990   4
   2   4   3 17289.8 411.005   4
   2   4   3 17788.7 493.828   3
  -2  -4  -3 18638.6 415.013   4
  -2  -4  -3 18160.7 497.220   1
   2   4   3 17592.0 487.742   1
   2   4   4 66323.9 970.671   4
  -2  -4  -4 65673.7 993.456   4
   2   4   4 65814.6 1148.29   3
   2   4   4 68334.2 1171.88   1
   2   4   5 3094.53 151.084   5
   2   4   5 3040.23 139.420   4
  -2  -4  -5 2984.31 154.566   4
   2   4   5 3458.97 215.468   3
   2   4   5 3224.09 214.489   1
   2   4   6 6445.28 208.097   4
   2   4   6 6318.83 303.654   3
   2   4   6 6488.17 322.956   1
  -2  -4  -6 6346.08 240.186   4
   2   4   7 869.381 84.0915   4
   2   4   7 970.222 129.678   3
  -2  -4  -7 886.529 135.158   1
  -2  -4  -8 2788.94 227.997   1
   2   4   8 2733.62 151.927   4
   2   4   8 2540.90 205.759   3
   2   4   9 502.471 77.7321   4
   2   4   9 468.085 99.8623   3
   2   4  10 724.463 101.139   4
   2   4  10 669.738 114.818   3
   2   4  11 12995.4 453.318   4
   2   4  11 12776.2 503.175   3
   2   4  12 493.441 110.601   3
   2   4  12 451.664 140.325   2
   2   4  12 505.154 101.017   4
   2   4  13 1002.04 202.231   2
   2   4  13 1347.24 173.016   3
   2   4  13 995.755 148.965   4
   2   4  14 2490.35 303.742   2
   2   4  14 2822.42 246.943   3
   2   4  15 88.7555 84.2412   2
  -2  -5   9 91.4252 86.3496   2
  -2  -5   8 120.886 81.8643   2
  -2  -5   7 81.0930 78.6897   2
  -2  -5   6 57.8031 71.0827   2
  -2  -5   5 1949.44 175.255   2
  -2  -5   4 381.397 78.2317   3
  -2  -5   4 389.270 90.4099   2
  -2  -5   3 10542.8 385.852   2
  -2  -5   3 10716.7 401.060   3
   2   5  -3 10652.8 407.240   3
  -2  -5   2 4869.62 198.244   1
  -2  -5   2 4808.47 246.576   2
   2   5  -2 4675.50 258.675   3
  -2  -5   2 4921.61 262.267   3
  -2  -5   1 7893.92 275.972   1
   2   5  -1 7160.02 249.436   1
  -2  -5   1 7234.90 307.651   2
   2   5  -1 7510.03 325.574   3
  -2  -5   1 7955.15 336.802   3
  -2  -5   0 3299.32 210.993   4
  -2  -5   0 2929.81 206.320   2
  -2  -5   0 3067.29 180.221   1
   2   5   0 2825.42 194.434   3
   2   5   0 2855.19 166.384   1
  -2  -5   0 3291.12 211.741   3
   2   5   1 506.469 89.9761   3
  -2  -5  -1 478.117 80.4612   1
   2   5   1 500.602 78.5977   1
  -2  -5  -1 655.351 91.7614   4
  -2  -5  -1 747.606 129.265   2
  -2  -5  -1 456.045 83.1316   3
  -2  -5  -2 16986.4 524.185   2
  -2  -5  -2 17379.8 500.270   1
   2   5   2 17514.5 492.645   1
   2   5   2 17415.2 519.212   3
  -2  -5  -2 17607.5 523.402   3
  -2  -5  -3 7991.34 295.874   4
  -2  -5  -3 7782.08 249.888   5
  -2  -5  -3 7953.82 334.451   1
   2   5   3 8351.36 354.036   3
   2   5   3 8286.69 341.772   1
   2   5   4 1844.16 132.728   4
   2   5   4 1699.88 162.185   3
  -2  -5  -4 1561.43 153.796   1
  -2  -5  -4 1671.38 131.451   4
   2   5   4 1937.77 169.284   1
   2   5   5 16505.0 511.588   2
   2   5   5 16680.8 417.376   4
  -2  -5  -5 16376.7 538.699   1
  -2  -5  -5 17053.3 454.350   4
   2   5   5 17786.5 554.463   3
   2   5   5 18297.7 567.907   1
  -2  -5  -6 14193.0 513.981   1
   2   5   6 14419.0 377.689   4
  -2  -5  -6 14099.1 424.847   4
   2   5   6 14930.6 514.973   3
   2   5   6 14000.7 386.174   5
   2   5   7 12577.9 353.449   4
  -2  -5  -7 13642.4 516.357   1
  -2  -5  -7 12843.6 409.274   4
   2   5   7 12726.3 401.004   5
   2   5   7 12377.8 482.658   3
   2   5   8 7526.80 274.745   4
   2   5   8 7708.15 381.065   3
   2   5   9 75.5983 60.2820   3
   2   5   9 110.941 50.0490   4
   2   5  10 390.773 106.591   3
   2   5  10 315.157 71.0982   4
   2   5  11 11820.8 416.201   4
   2   5  11 11638.2 510.172   3
   2   5  12 69.4269 78.0920   3
   2   5  12 39.5120 44.3419   4
   2   5  13 2727.65 315.702   2
   2   5  13 2983.40 269.270   3
   2   5  14 1831.96 268.831   2
   2   5  14 1972.47 228.572   3
   2   5  15 112.147 125.732   2
  -2  -6   8 63.2613 103.359   2
  -2  -6   7 91.7968 84.2089   2
  -2  -6   6 1.83172 68.2428   2
  -2  -6   5 425.959 96.7556   2
  -2  -6   4 5081.00 296.940   2
  -2  -6   3-130.545 91.1402   2
   2   6  -3-10.2437 49.1614   3
  -2  -6   2 14159.1 495.760   2
   2   6  -2 14648.0 509.572   3
  -2  -6   1 6182.79 325.280   2
   2   6  -1 5708.55 236.155   1
   2   6  -1 5752.46 309.576   3
   2   6   0 840.393 121.146   3
   2   6   0 827.569 103.725   1
  -2  -6   0 854.187 144.186   2
  -2  -6  -1 2677.81 232.832   2
   2   6   1 2427.30 200.242   3
  -2  -6  -1 2615.43 188.292   1
   2   6   1 2316.86 172.825   1
  -2  -6  -2 2828.34 232.742   2
  -2  -6  -2 3445.67 224.045   1
  -2  -6  -2 3752.07 229.397   4
   2   6   2 3286.87 217.480   1
   2   6   2 3767.05 248.988   3
  -2  -6  -3 28822.0 684.939   4
  -2  -6  -3 28119.1 719.679   1
   2   6   3 28310.9 722.199   1
  -2  -6  -3 27594.4 589.442   5
   2   6   3 27606.9 742.503   3
  -2  -6  -4 14486.2 513.950   1
  -2  -6  -4 14546.5 461.028   4
   2   6   4 14972.1 455.776   4
  -2  -6  -4 14269.9 404.211   5
   2   6   4 15067.7 530.875   3
   2   6   5 5338.90 255.401   4
  -2  -6  -5 5456.03 317.747   1
   2   6   5 5587.01 325.808   3
   2   6   6 3951.39 211.909   4
   2   6   6 4076.70 287.018   3
   2   6   7 14470.8 420.309   4
   2   6   7 14031.6 551.044   3
   2   6   8 831.257 141.626   3
   2   6   8 911.368 104.330   4
   2   6   8 862.459 117.136   5
   2   6   9 5636.98 359.912   3
   2   6   9 6149.74 274.009   4
   2   6  10 289.164 68.4010   4
   2   6  10 281.708 102.119   3
   2   6  11 7079.51 317.846   4
   2   6  11 7082.88 422.905   3
   2   6  12 226.959 105.781   3
   2   6  12 255.235 77.2823   4
   2   6  13 413.598 125.082   3
   2   6  14-146.221 146.475   2
   2   6  14-52.9455 82.6947   3
   2   6  15 122.685 114.775   2
   2   6  15 18.8809 74.6214   3
  -2  -7   6 566.437 133.784   2
  -2  -7   5 573.790 131.914   2
  -2  -7   4 648.634 131.593   2
  -2  -7   3 3877.67 282.575   2
   2   7  -3 3489.36 260.277   3
  -2  -7   2 2298.96 226.680   2
   2   7  -2 2154.73 203.796   3
   2   7  -1 260.212 78.3185   3
   2   7  -1 228.345 54.3022   1
  -2  -7   1 351.031 116.482   2
  -2  -7   0 2604.71 245.968   2
   2   7   0 2126.13 162.589   1
   2   7   0 2048.45 199.032   3
   2   7   1 895.776 135.681   3
  -2  -7  -1 932.561 166.668   2
   2   7   1 981.016 123.480   1
  -2  -7  -2 15164.7 575.515   2
   2   7   2 14687.6 546.539   3
  -2  -7  -3 17016.3 484.859   5
   2   7   3 17090.6 599.493   3
   2   7   4 323.393 98.1037   3
  -2  -7  -4 158.736 63.7552   5
   2   7   4 188.662 65.7544   4
   2   7   5 13491.1 464.200   4
   2   7   5 14034.1 560.058   3
  -2  -7  -6 6903.82 354.826   4
   2   7   6 6584.91 311.732   4
   2   7   6 7466.84 410.677   3
   2   7   7 6395.59 298.279   4
  -2  -7  -7 5879.42 331.438   4
   2   7   7 6308.18 388.650   3
   2   7   8 69.0432 81.7968   3
   2   7   8 62.0736 49.8887   4
  -2  -7  -8-49.1943 51.6787   4
   2   7   9 3997.52 237.726   4
   2   7   9 3915.02 319.633   3
   2   7  10-2.02621 43.6361   4
   2   7  10 66.9877 68.0320   3
   2   7  11 2814.05 206.673   4
   2   7  11 3407.83 309.815   3
   2   7  12-8.65541 78.9532   3
   2   7  13 54.8748 76.4081   3
   2   7  14 226.414 108.566   3
   2   7  15 472.091 134.297   3
  -2  -8   5 682.628 164.176   2
  -2  -8   4 289.701 126.635   2
  -2  -8   3 41.4451 91.3771   2
   2   8  -3-20.9023 60.8539   3
  -2  -8   2 148.531 105.727   2
   2   8  -2 214.251 91.5459   3
   2   8  -1 425.940 114.500   3
  -2  -8   1 453.234 124.676   2
   2   8   0 98.5397 70.9792   3
  -2  -8   0 160.102 136.067   2
   2   8   1 406.173 112.271   3
  -2  -8  -1 505.062 149.912   2
  -2  -8  -2 515.419 137.196   2
   2   8   2 664.994 128.522   3
  -2  -8  -3 19569.1 574.063   5
   2   8   3 19778.1 690.488   3
  -2  -8  -4 2629.93 208.307   5
   2   8   4 2573.14 253.184   3
   2   8   5 262.861 97.4564   3
   2   8   5 35.1505 65.7053   4
   2   8   6 689.980 143.045   3
   2   8   6 749.993 124.073   4
   2   8   7 2189.52 194.185   4
   2   8   7 2458.87 261.974   3
   2   8   8 3636.89 318.305   3
   2   8   8 3649.59 244.143   4
   2   8   9 33.6864 79.6082   3
   2   8   9 200.983 74.4664   4
   2   8  10 568.343 148.394   3
   2   8  10 431.516 93.7356   4
   2   8  11 384.318 136.051   3
   2   8  11 257.200 81.7776   4
   2   8  12 1981.43 262.248   3
   2   8  13-162.121 121.487   3
   2   8  14 387.609 138.691   3
   2   8  15 140.355 90.8365   3
  -2  -9   3 756.056 177.761   2
  -2  -9   2 313.791 130.294   2
   2   9  -2 160.231 88.4154   3
  -2  -9   1 2996.48 312.452   2
   2   9  -1 2979.05 272.691   3
   2   9   0 341.209 115.186   3
  -2  -9   0 268.891 128.328   2
   2   9   1 553.097 136.963   3
  -2  -9  -1 502.840 157.030   2
   2   9   2 1443.56 195.193   3
  -2  -9  -2 1512.15 228.607   2
  -2  -9  -2 1477.74 175.323   5
   2   9   3 441.628 127.553   3
  -2  -9  -3 343.049 104.123   5
  -2  -9  -4 3214.41 247.636   5
   2   9   4 3480.45 307.169   3
   2   9   5 4638.78 362.815   3
   2   9   6 3269.36 270.625   4
   2   9   6 3655.25 326.037   3
   2   9   7 162.518 100.494   3
   2   9   7 182.213 76.0470   4
   2   9   8 67.5231 104.522   3
   2   9   8 20.6333 59.8330   4
   2   9   9 2046.26 260.752   3
   2   9   9 1985.03 201.480   4
   2   9  10 2348.63 215.524   4
   2   9  10 2708.49 307.283   3
   2   9  11 497.668 154.743   3
   2   9  12 570.453 168.780   3
   2   9  13-33.1393 103.454   3
   2  10  -1-38.1304 71.5717   3
  -2 -10   1 97.5611 117.114   2
   2  10   0 513.964 138.695   3
  -2 -10   0 337.915 156.631   2
   2  10   1 121.519 91.2487   3
  -2 -10  -1 88.8402 114.705   2
   2  10   2 100.312 86.5229   3
  -2 -10  -2 193.622 111.061   5
  -2 -10  -3 275.321 112.504   5
   2  10   3 343.888 123.868   3
   2  10   4 418.258 133.584   3
  -2 -10  -4 336.444 105.557   5
   2  10   5-38.7770 97.3451   3
   2  10   6 3013.42 320.002   3
   2  10   7 1369.82 224.322   3
   2  10   7 880.477 154.573   4
   2  10   8 96.1953 96.2299   3
   2  10   8 293.010 97.4056   4
   2  10   9 36.1471 104.450   3
   2  10   9 220.778 94.6084   4
   2  10  10 119.510 122.360   3
   2  10  10 63.7350 78.3913   4
   2  10  11 371.566 167.716   3
   2  11   0 189.524 91.8528   3
   2  11   1 434.420 137.014   3
   2  11   2 1273.84 212.194   3
   2  11   3 308.903 127.372   3
   2  11   4-88.0406 107.263   3
   2  11   5 108.770 102.258   3
   2  11   6-3.88658 103.968   3
   2  11   7-56.6440 106.164   3
   2  11   8-2.04428 76.8827   4
   2  11   9 85.3595 82.9017   4
  -3  11   4 609.819 150.405   3
  -3  11   3 158.833 106.112   3
  -3  11   2 264.336 121.547   3
  -3  10   8 264.196 131.467   4
  -3  10   7 189.114 126.926   4
  -3  10   6 67.8339 83.4395   4
  -3  10   5 222.806 97.9687   4
   3 -10  -4 259.920 126.839   5
  -3  10   4 323.693 144.614   4
  -3  10   3 1021.29 196.133   3
   3 -10  -3 1035.41 227.735   5
  -3  10   3 1069.54 197.197   4
  -3  10   2 205.985 104.945   3
  -3  10   2 190.047 110.050   4
   3 -10  -2 167.955 136.238   5
  -3  10   1 62.3996 80.7951   4
  -3  10   1 203.605 97.2167   3
  -3  10   0 93.1331 76.2631   3
   3 -10   0-62.0925 104.068   2
  -3  10   0 29.3102 83.9360   4
   3 -10   1 197.143 118.181   2
   3 -10   2 442.526 144.843   2
   3 -10   3 72.2526 105.362   2
  -3   9  10 62.0522 102.018   4
  -3   9   9 259.800 131.627   4
  -3   9   8 17.9066 86.4971   4
  -3   9   7 215.025 125.705   4
  -3   9   6 148.777 117.792   4
  -3   9   5 1481.32 218.548   4
  -3   9   4 3261.88 309.912   4
   3  -9  -4 2839.74 318.728   5
   3  -9  -3 101.447 126.350   5
  -3   9   3 227.443 116.916   4
  -3   9   2 1609.35 221.444   4
   3  -9  -2 1831.59 259.686   5
   3  -9  -1 426.854 154.941   5
  -3   9   1 149.029 66.0579   3
  -3   9   1 323.747 123.055   4
   3  -9   0 1652.98 248.425   5
  -3   9   0 1116.18 167.220   3
   3  -9   0 1125.04 171.309   2
  -3   9   0 1385.16 209.076   4
  -3   9  -1-36.3862 57.7937   3
  -3   9  -1-3.37087 70.2375   4
   3  -9   1-0.79328 92.4072   2
  -3   9  -2-50.5610 83.7965   4
   3  -9   2 30.3228 87.3416   2
   3  -9   3 572.730 132.396   2
   3  -9   4 279.681 112.873   2
   3  -9   5 532.121 128.719   2
  -3   8  12-5.34268 102.663   4
  -3   8  11 11.4375 97.8963   4
  -3   8  10 23.6892 103.990   4
  -3   8   9 69.0537 77.7287   4
  -3   8   8 1121.11 193.412   4
  -3   8   7 172.668 116.094   4
  -3   8   6 811.345 163.951   4
  -3   8   5 1896.95 234.937   4
   3  -8  -4-86.9207 118.995   5
  -3   8   4 59.7966 69.0616   4
  -3   8   3 3263.30 289.437   4
   3  -8  -3 3525.07 325.891   5
   3  -8  -2 499.300 147.471   5
  -3   8   2 451.620 129.088   4
  -3   8   1-27.4504 68.9382   4
   3  -8  -1-46.4766 95.9493   2
   3  -8   0 1609.29 182.483   2
  -3   8   0 1675.10 214.995   4
  -3   8  -1 57.9210 66.7807   3
  -3   8  -1 34.2979 72.8016   4
   3  -8   1 124.763 86.3686   2
  -3   8  -2 151.412 76.7573   3
  -3   8  -2 172.854 93.5120   4
   3  -8   2 290.695 93.6298   2
  -3   8  -3 330.916 122.850   4
   3  -8   3 245.054 86.2340   2
   3  -8   4 45.2635 68.3784   2
   3  -8   5 1068.61 145.187   2
   3  -8   6 160.763 87.8825   2
   3  -8   7 616.931 132.090   2
  -3   7  12 78.9639 104.497   4
  -3   7  11 252.938 121.219   4
  -3   7  10 174.943 118.719   4
  -3   7   9 762.216 173.002   4
  -3   7   9 657.715 116.268   2
  -3   7   8 230.012 108.297   4
  -3   7   7-53.3927 74.3740   4
  -3   7   6 1101.79 176.731   4
  -3   7   5-3.53602 80.1686   4
  -3   7   5 47.5600 42.9390   2
   3  -7  -4 5172.09 376.964   5
  -3   7   4 5112.80 197.108   2
  -3   7   4 5141.88 352.727   4
  -3   7   3 2940.13 257.885   4
  -3   7   3 3071.13 156.443   2
   3  -7  -3 2700.10 274.656   5
   3  -7  -2 12127.3 555.166   5
  -3   7   2 11661.7 517.956   4
  -3   7   2 11878.3 340.243   2
   3  -7  -1 25110.2 643.571   2
   3  -7  -1 25396.0 816.619   5
  -3   7   1 26850.3 801.514   4
  -3   7   1 25171.0 567.415   2
   3  -7   0 3736.45 237.783   2
  -3   7   0 4736.10 325.961   4
   3  -7   1 5503.85 280.053   2
  -3   7  -1 5639.84 357.547   4
  -3   7  -2 11511.2 529.232   4
   3  -7   2 12119.0 414.923   2
  -3   7  -2 11944.8 433.297   3
  -3   7  -3 4233.97 324.036   4
  -3   7  -3 3874.71 226.801   3
   3  -7   3 4092.47 236.774   2
   3  -7   4 323.199 85.6878   2
   3  -7   5 4105.01 254.999   2
   3  -7   6 5888.63 318.681   2
   3  -7   7 1140.54 155.484   2
   3  -7   8 227.966 93.7200   2
  -3   6  13 386.189 157.242   4
  -3   6  12 153.212 127.206   4
  -3   6  11 136.587 124.329   4
  -3   6  10 141.428 71.9762   2
  -3   6  10 44.1085 87.9102   4
  -3   6   9 460.088 91.6437   2
  -3   6   9 457.372 144.881   4
  -3   6   8 489.761 87.3811   2
  -3   6   8 292.355 110.633   4
  -3   6   7 6393.29 419.799   4
  -3   6   7 6002.16 267.466   2
  -3   6   6 7118.22 266.622   2
  -3   6   6 8996.92 478.485   4
  -3   6   5 8586.22 261.016   2
  -3   6   5 8917.46 461.212   4
   3  -6  -4 623.609 135.936   5
  -3   6   4 827.304 142.699   4
  -3   6   4 877.117 74.0241   2
   3  -6  -3 17660.3 659.027   5
  -3   6   3 18956.0 645.146   4
  -3   6   3 18452.3 379.334   2
  -3   6   2 11417.1 486.157   4
  -3   6   2 12036.7 302.804   2
   3  -6  -2 12052.3 521.580   5
   3  -6  -1 11069.0 488.689   5
  -3   6   1 11212.5 470.562   4
   3  -6  -1 10334.1 351.581   2
  -3   6   1 10379.9 303.316   2
  -3   6   0 32735.2 844.835   4
   3  -6   0 31883.6 678.249   2
  -3   6   0 31474.9 637.055   2
  -3   6  -1 877.184 103.391   2
  -3   6  -1 931.475 145.644   4
   3  -6   1 1048.37 110.236   2
  -3   6  -2 2798.30 238.324   4
   3  -6   2 2586.97 164.428   2
  -3   6  -3 22492.7 716.354   4
   3  -6   3 22667.4 537.784   2
  -3   6  -3 22243.0 547.906   3
  -3   6  -4 2705.51 247.412   4
   3  -6   4 2900.83 188.528   2
  -3   6  -4 2933.93 161.811   3
   3  -6   5 3662.75 221.386   2
   3  -6   6 2464.60 193.815   2
   3  -6   7 669.502 120.572   2
   3  -6   8 470.571 109.209   2
   3  -6   9 748.011 134.226   2
  -3   5  13-234.258 165.076   4
  -3   5  12 14.0879 109.235   4
  -3   5  11 195.633 122.764   4
  -3   5  11 229.521 81.3250   2
  -3   5  10-17.9775 47.0861   2
  -3   5  10-91.1268 121.592   4
  -3   5   9 2302.99 189.083   2
  -3   5   9 2742.26 301.663   4
  -3   5   8 3714.96 336.830   4
  -3   5   8 3448.55 218.824   2
  -3   5   7 1073.94 175.546   4
  -3   5   7 1041.44 115.972   2
  -3   5   6 448.192 68.8933   2
  -3   5   6 587.080 138.443   4
  -3   5   5 3931.83 300.215   4
  -3   5   5 3801.47 175.187   2
  -3   5   4 882.420 71.1379   2
  -3   5   4 937.269 144.980   4
   3  -5  -3 8264.78 410.687   5
  -3   5   3 7954.86 391.727   4
  -3   5   3 7793.15 198.467   2
   3  -5  -2 20011.3 648.628   5
  -3   5   2 20526.7 374.024   2
  -3   5   2 20950.1 636.646   4
   3  -5  -1 1316.25 108.372   2
   3  -5  -1 1854.63 200.266   5
  -3   5   1 1433.81 92.6624   2
  -3   5   1 1494.19 162.192   4
  -3   5   0 476.150 62.7481   2
   3  -5   0 422.782 73.1065   2
  -3   5   0 465.266 98.2180   4
  -3   5  -1 1510.62 163.427   4
   3  -5   1 1346.59 100.153   2
  -3   5  -1 1677.51 127.244   2
  -3   5  -2 29312.3 654.667   2
   3  -5   2 28741.7 560.092   2
  -3   5  -2 30070.2 760.871   4
   3  -5   3 18525.8 448.083   2
  -3   5  -3 18809.8 595.497   4
  -3   5  -3 19056.6 548.221   2
   3  -5   4 6992.61 277.548   2
  -3   5  -4 7634.03 382.270   4
  -3   5  -4 7705.64 243.470   3
  -3   5  -5 40.8985 19.2831   3
   3  -5   5-11.9658 49.2329   2
   3  -5   6 543.056 92.3308   2
  -3   5  -6 748.090 66.8701   1
   3  -5   7-70.1541 74.7261   2
   3  -5   8 216.549 64.7464   2
   3  -5   9 929.089 135.948   2
   3  -5  10 29.3257 67.3775   2
  -3   4  13 65.8477 125.151   4
  -3   4  12-10.9868 116.455   4
  -3   4  12-28.5039 71.2775   2
  -3   4  11-10.8151 69.6224   2
  -3   4  11 231.982 136.721   4
  -3   4  10 2016.64 286.024   4
  -3   4  10 1653.03 163.998   2
  -3   4   9 3134.97 329.463   4
  -3   4   9 2766.70 201.684   2
  -3   4   8 309.114 77.5233   2
  -3   4   8 454.865 135.984   4
  -3   4   7 2173.91 245.940   4
  -3   4   7 2259.32 161.741   2
  -3   4   6 1445.44 200.875   4
  -3   4   6 1249.72 113.051   2
  -3   4   5 30326.6 871.096   4
  -3   4   5 29610.6 571.953   2
  -3   4   4 46322.4 1059.13   4
  -3   4   4 44159.4 679.941   2
  -3   4   3 12114.5 230.698   2
  -3   4   3 11391.3 461.321   4
   3  -4  -3 11379.8 453.784   5
  -3   4   2 78.2268 51.2840   4
   3  -4  -2 31.8128 64.4627   5
  -3   4   2 78.0903 18.4481   2
   3  -4  -1 1036.06 142.871   5
  -3   4   1 843.659 57.9151   2
  -3   4   1 781.424 113.225   4
  -3   4   0 334.451 43.3973   2
  -3   4   0 374.572 77.3345   4
   3  -4   0 401.693 52.8878   2
   3  -4   0 450.861 93.6654   4
   3  -4   1 3391.65 236.893   4
  -3   4  -1 3072.14 208.202   4
  -3   4  -1 3004.60 151.953   2
   3  -4   1 3288.14 132.731   2
   3  -4   2 1157.46 140.106   4
   3  -4   2 831.093 73.2745   2
  -3   4  -2 814.777 113.219   4
  -3   4  -2 772.356 92.7665   2
   3  -4   3 65.9127 35.0790   2
  -3   4  -3 92.9007 55.8028   2
  -3   4  -3 101.627 56.0811   4
  -3   4  -4 4270.16 261.010   4
   3  -4   4 4367.75 204.500   2
  -3   4  -4 4492.80 263.101   2
  -3   4  -4 4588.90 165.676   3
   3  -4   5 16.1658 57.8691   2
  -3   4  -5 31.0737 11.1799   3
  -3   4  -5 22.8581 29.1672   1
   3  -4   6 25104.0 622.524   2
  -3   4  -6 25780.1 495.172   1
   3  -4   7 1631.50 162.043   2
  -3   4  -7 1628.20 91.4078   1
   3  -4   8 1995.17 191.518   2
   3  -4   9 1109.59 160.537   2
   3  -4  10 93.2508 85.2885   2
   3  -4  11 443.201 124.063   2
  -3   3  13 116.543 77.6686   2
  -3   3  13 146.506 141.447   4
  -3   3  12 131.116 76.5262   2
  -3   3  12 26.0358 107.143   4
  -3   3  11 375.737 97.1437   2
  -3   3  11 589.323 182.563   4
  -3   3  10 1426.66 156.636   2
  -3   3  10 1350.62 235.903   4
  -3   3   9 1352.48 141.363   2
  -3   3   9 1700.33 249.803   4
  -3   3   8-43.1820 62.1965   2
  -3   3   8 20.2681 88.0857   4
  -3   3   7 7160.78 444.522   4
  -3   3   7 7098.56 281.145   2
  -3   3   6 2723.41 275.051   4
  -3   3   6 3212.92 176.332   2
  -3   3   5 6481.17 380.363   4
  -3   3   5 6387.77 218.904   2
  -3   3   4 945.691 186.474   4
  -3   3   4 1058.87 86.1649   2
  -3   3   3 52416.9 1093.91   4
  -3   3   3 52185.5 697.503   2
  -3   3   3 50068.3 676.914   2
   3  -3  -2 10023.7 389.973   5
  -3   3   2 10564.3 413.256   4
  -3   3   2 10283.5 159.427   2
   3  -3  -1 24336.7 616.253   5
  -3   3   1 23138.6 610.429   4
  -3   3   1 23999.7 338.126   2
   3  -3   0 15303.8 503.762   4
   3  -3   0 15863.3 270.071   2
  -3   3   0 14513.7 447.147   4
  -3   3   0 14809.3 286.346   2
  -3   3  -1 22565.9 554.565   4
   3  -3   1 22539.2 605.823   4
   3  -3   1 22220.6 369.809   2
  -3   3  -1 22146.7 427.798   2
  -3   3  -2 1585.69 135.669   4
   3  -3   2 1516.19 142.287   4
   3  -3   2 1396.92 85.7192   2
  -3   3  -2 1576.22 115.076   2
  -3   3  -3 11472.3 375.268   4
   3  -3   3 12006.0 409.171   4
   3  -3   3 11342.4 301.633   2
  -3   3  -3 11740.4 371.127   2
  -3   3  -4 17074.2 502.192   2
  -3   3  -4 16813.9 479.761   4
   3  -3   4 16265.1 414.627   2
   3  -3   4 17988.3 514.293   4
   3  -3   5 9798.71 377.701   4
  -3   3  -5 9286.23 284.822   1
  -3   3  -5 9103.26 388.402   2
   3  -3   5 9414.09 328.039   2
   3  -3   6 50311.4 993.476   4
   3  -3   6 47284.7 922.446   2
  -3   3  -6 48181.5 794.665   1
   3  -3   7 10321.5 396.676   2
  -3   3  -7 10171.4 285.321   1
  -3   3  -8 1788.73 103.938   1
   3  -3   8 1954.26 182.914   2
   3  -3   9 2117.53 202.392   2
   3  -3  10 50.0899 74.8534   2
   3  -3  11 61.2726 82.0090   2
   3  -3  12 130.915 94.6583   2
  -3   2  13 1332.31 177.351   2
  -3   2  13 1142.49 249.434   4
  -3   2  12 29.7396 64.4839   2
  -3   2  12 162.126 133.733   4
  -3   2  11 105.423 64.7915   2
  -3   2  11 187.335 134.497   4
  -3   2  10 132.746 64.0293   2
  -3   2  10 98.2064 102.393   4
  -3   2   9-12.1643 46.1098   2
  -3   2   9-13.1688 87.2989   4
  -3   2   8-9.41318 45.0973   2
  -3   2   8 8.40128 88.5509   4
  -3   2   7 1961.67 239.619   4
  -3   2   7 1927.47 144.839   2
  -3   2   6 3559.34 303.750   4
  -3   2   6 3267.14 169.985   2
  -3   2   5 14.9548 28.9262   2
  -3   2   5 26.6523 64.5658   4
  -3   2   4 35334.1 915.252   4
  -3   2   4 36491.6 575.865   2
  -3   2   3 52313.2 1090.05   4
  -3   2   3 52350.3 680.471   2
  -3   2   2 232198. 3124.54   4
   3  -2  -1 21825.0 541.528   5
  -3   2   1 22175.9 581.034   4
   3  -2   0 153231. 2090.54   5
  -3   2   0 153168. 2112.67   4
  -3   2  -1 37931.8 729.742   4
   3  -2   1 39507.1 793.190   4
   3  -2   1 38558.6 524.706   2
  -3   2  -2 25947.2 550.401   4
   3  -2   2 26470.7 599.455   4
   3  -2   2 26687.6 452.546   2
  -3   2  -3 55903.6 926.498   4
   3  -2   3 58930.9 982.724   4
   3  -2   3 57013.9 873.646   2
   3  -2   4 67191.2 1085.87   4
  -3   2  -4 64506.6 1047.96   4
   3  -2   4 64991.0 1037.32   2
  -3   2  -4 67314.6 864.257   3
   3  -2   5 246.457 65.0305   4
   3  -2   5 230.831 55.8588   2
  -3   2  -5 280.388 54.2548   1
   3  -2   6 2723.76 179.245   4
   3  -2   6 2580.07 185.308   2
  -3   2  -6 2733.20 153.657   1
   3  -2   7 61.8827 70.0195   2
  -3   2  -7 204.185 49.9651   1
   3  -2   7 222.348 60.4797   4
  -3   2  -8 3080.33 164.258   1
   3  -2   8 3271.69 215.853   4
   3  -2   8 3409.25 243.866   2
   3  -2   9 212.694 90.6871   2
  -3   2  -9 191.731 47.8568   1
   3  -2  10 1402.53 177.070   2
   3  -2  11 215.910 92.3280   2
   3  -2  12 28.2368 87.7868   2
   3  -2  13 61.9675 80.6194   2
  -3   1  13 374.271 109.111   2
  -3   1  13 236.313 135.498   4
  -3   1  12 206.587 93.6533   2
  -3   1  12 7.59197 111.796   4
  -3   1  11 178.717 82.9487   2
  -3   1  11 61.2780 97.4581   4
  -3   1  10 167.928 74.3345   2
  -3   1   9 841.535 117.932   2
  -3   1   8 1660.53 144.842   2
  -3   1   7 845.515 98.4263   2
  -3   1   6 3028.29 164.417   2
  -3   1   5 1740.78 111.814   2
  -3   1   4 42243.3 1030.37   4
  -3   1   4 44579.4 673.078   2
  -3   1   3 46272.6 637.965   2
  -3   1   3 47855.3 916.236   5
  -3   1   3 44769.1 1009.17   4
  -3   1   2 65488.6 1083.22   5
  -3   1   2 64922.0 784.050   2
  -3   1   2 63398.8 1186.36   4
   3  -1  -2 64947.3 840.169   2
  -3   1   1 12622.4 417.284   4
  -3   1   1 13013.1 357.563   5
   3  -1   0 24472.0 516.417   5
  -3   1   0 24058.1 567.768   4
   3  -1   0 24930.3 587.372   4
  -3   1  -1 11834.7 339.863   4
   3  -1   1 11205.2 350.969   4
   3  -1   1 11618.2 227.031   2
   3  -1   2 226730. 2838.79   4
  -3   1  -2 229510. 2773.14   4
   3  -1   2 230168. 2705.96   2
  -3   1  -3 35513.5 603.833   4
   3  -1   3 36381.7 649.282   4
   3  -1   3 36082.5 640.011   2
  -3   1  -3 34917.7 570.296   3
  -3   1  -4 6977.51 222.733   4
   3  -1   4 7193.65 240.076   4
  -3   1  -4 6916.88 178.934   3
   3  -1   4 6614.12 258.628   2
  -3   1  -4 6988.55 246.430   1
   3  -1   5 5542.97 256.268   2
   3  -1   5 5979.38 220.961   4
  -3   1  -5 5829.32 228.172   1
  -3   1  -5 5343.65 134.714   3
  -3   1  -6 245.155 55.5381   1
   3  -1   6 259.158 72.8782   2
   3  -1   6 228.098 49.0247   4
   3  -1   7 5110.27 224.891   4
   3  -1   7 5020.98 281.438   2
  -3   1  -7 5166.97 231.224   1
  -3   1  -8 106.555 42.8919   1
   3  -1   8 211.759 84.7647   2
   3  -1   8 119.800 43.1505   4
  -3   1  -9 4045.40 210.619   1
   3  -1   9 3805.72 220.810   4
   3  -1   9 4001.23 285.611   2
   3  -1  10 8532.67 433.250   2
   3  -1  11 5488.44 368.839   2
   3  -1  12 77.5200 79.2052   2
   3  -1  13 419.749 118.979   2
  -3   0  13-2.35029 70.2399   2
  -3   0  12 96.9949 77.9244   2
  -3   0  11 1475.95 170.487   2
  -3   0  10 4121.03 261.651   2
  -3   0   9 2526.92 197.117   2
  -3   0   8 1183.23 132.090   2
  -3   0   7 216.823 67.4645   2
  -3   0   6 403.264 71.7774   2
   3   0  -6 303.279 66.1101   2
  -3   0   5 9252.78 279.664   2
  -3   0   4 767.372 69.2246   2
   3   0  -4 804.132 88.1876   2
   3   0  -3 7232.19 232.916   2
  -3   0   3 6831.48 193.440   2
  -3   0   2 8395.10 187.714   2
   3   0  -2 7955.85 208.392   2
   3   0  -1 10421.1 206.652   2
  -3   0   1 10750.0 314.229   5
  -3   0   1 10771.1 218.583   2
  -3   0   0 33231.7 574.142   5
   3   0   0 33279.4 450.163   2
  -3   0   0 34126.5 689.639   4
   3   0   1 6519.89 204.071   5
  -3   0  -1 6233.92 232.181   4
  -3   0  -2 5296.83 185.059   4
   3   0   2 5309.60 196.296   4
  -3   0  -2 5355.76 196.439   3
  -3   0  -3 21636.0 378.391   4
   3   0   3 20989.5 411.496   4
  -3   0  -3 21246.7 415.832   3
   3   0   4 3710.24 137.182   4
  -3   0  -4 3293.10 175.330   1
  -3   0  -4 3514.89 119.623   4
  -3   0  -4 3371.34 136.016   3
   3   0   5 12253.3 275.009   4
   3   0   5 12292.0 402.172   2
   3   0   5 11742.4 269.573   3
  -3   0  -5 12395.6 361.228   1
  -3   0  -5 11922.3 272.406   3
   3   0   6 12113.4 261.116   3
   3   0   6 11214.4 419.366   2
  -3   0  -6 12676.6 379.737   1
   3   0   6 11948.0 287.776   4
  -3   0  -7 2115.65 156.581   1
   3   0   7 1928.98 116.885   4
   3   0   7 1861.31 177.866   2
   3   0   7 2063.98 92.5046   3
   3   0   8 321.419 90.7060   2
   3   0   8 314.106 56.5726   4
   3   0   8 346.502 69.1494   1
   3   0   8 371.118 37.8872   3
   3   0   9 732.458 131.343   2
   3   0   9 546.794 78.5232   4
   3   0   9 628.580 88.3869   1
   3   0   9 597.373 42.4822   3
   3   0  10 681.119 136.280   2
   3   0  10 579.646 83.9518   4
   3   0  11 136.417 96.5010   2
   3   0  12 75.5785 82.8114   2
   3   0  13 13.2013 91.5203   2
   3   0  14 36.9387 100.980   2
  -3  -1  12 50.5574 71.8836   2
  -3  -1  11-49.4511 78.9048   2
  -3  -1  10 1174.76 143.987   2
  -3  -1   9-125.868 79.5074   2
  -3  -1   8-41.0771 64.3722   2
  -3  -1   7 4042.50 222.703   2
  -3  -1   6 666.947 87.0644   2
  -3  -1   5 7846.96 272.811   2
   3   1  -5 7571.67 322.302   2
  -3  -1   4 3578.01 164.374   2
  -3  -1   4 3494.72 217.302   3
   3   1  -3 641.517 72.6567   2
  -3  -1   3 593.775 62.1819   2
  -3  -1   3 697.893 96.2848   3
   3   1  -2 77929.6 1084.12   2
  -3  -1   2 78850.4 1056.06   2
  -3  -1   2 81091.7 1264.72   3
  -3  -1   1 2558.94 115.959   2
   3   1  -1 2623.23 108.738   2
  -3  -1   0 35050.0 587.313   2
  -3  -1   0 34985.4 576.131   5
   3   1   0 36004.9 525.664   2
   3   1   1 5118.87 171.575   2
  -3  -1  -2 35671.9 598.589   4
   3   1   2 36008.4 650.072   3
  -3  -1  -3 255.165 45.9762   3
  -3  -1  -3 173.695 25.7946   4
   3   1   3 96.5057 30.8093   3
   3   1   4 15370.9 399.932   1
   3   1   4 15612.3 362.951   3
  -3  -1  -4 15351.5 362.342   3
   3   1   5 3145.36 174.882   1
   3   1   5 3135.61 146.627   3
  -3  -1  -5 3355.48 194.093   1
  -3  -1  -5 3262.07 153.195   3
   3   1   6 27755.9 404.529   4
   3   1   6 27738.7 608.555   1
   3   1   6 27447.8 512.512   3
   3   1   7 14182.1 282.713   4
   3   1   7 14543.8 425.499   1
   3   1   7 14221.3 342.654   3
   3   1   8 1016.18 76.6678   4
   3   1   8 935.532 147.283   2
   3   1   8 856.704 104.372   1
   3   1   8 890.362 79.4940   3
  -3  -1  -9 1332.10 142.912   1
   3   1   9 1208.10 98.9202   4
   3   1   9 1339.47 179.385   2
   3   1   9 1229.04 130.266   1
   3   1   9 1192.76 93.5935   3
   3   1  10 496.119 63.2478   3
  -3  -1 -10 677.695 106.979   1
   3   1  10 618.545 134.972   2
   3   1  10 648.138 80.5372   4
   3   1  10 596.270 96.8224   1
   3   1  11 2139.75 249.866   2
   3   1  11 1686.57 139.093   4
   3   1  11 1640.43 109.324   3
   3   1  12 4749.86 371.860   2
   3   1  13 91.2326 97.8148   2
   3   1  14 2039.10 277.249   2
  -3  -2  11 83.1476 65.1474   2
  -3  -2  10-0.45081 65.5791   2
  -3  -2   9 720.287 123.403   2
  -3  -2   8 11212.9 423.634   2
  -3  -2   7 1397.05 137.908   2
  -3  -2   6 2992.48 189.865   2
  -3  -2   5 23934.2 550.290   2
  -3  -2   5 25325.8 655.400   3
   3   2  -4 497.052 81.8428   2
  -3  -2   4 543.449 75.7795   2
  -3  -2   4 521.315 86.4692   3
  -3  -2   3 78.2359 43.8268   3
  -3  -2   3 107.932 39.7682   2
  -3  -2   2 168.445 51.4027   3
   3   2  -2 189.843 45.5095   2
  -3  -2   2 314.740 59.5140   2
  -3  -2   1 10212.7 309.345   1
  -3  -2   1 9926.08 284.709   2
   3   2  -1 10198.9 267.908   2
  -3  -2   1 10876.6 351.663   3
  -3  -2   0 32337.4 618.447   1
   3   2   0 32409.4 532.475   2
  -3  -2   0 32366.8 607.508   2
   3   2   0 30299.7 657.079   3
  -3  -2  -1 11455.5 215.486   5
   3   2   1 11559.2 290.856   2
  -3  -2  -1 11183.3 326.453   2
  -3  -2  -1 11649.6 343.291   1
   3   2   1 11670.5 356.077   3
   3   2   2 267053. 3234.38   1
   3   2   2 265203. 3199.01   2
   3   2   2 261464. 3262.74   3
   3   2   3 44255.6 792.582   1
   3   2   3 43242.0 770.113   3
  -3  -2  -4 11331.5 334.855   3
   3   2   4 11142.8 352.359   1
   3   2   4 10389.3 319.935   3
   3   2   5 48672.0 887.519   1
   3   2   5 46045.3 813.727   3
  -3  -2  -5 49106.5 838.017   3
   3   2   6 5099.13 253.250   1
   3   2   6 5081.08 218.673   3
  -3  -2  -7 20648.8 573.707   1
   3   2   7 20672.9 556.011   1
   3   2   7 19536.7 476.947   3
   3   2   8 15481.2 286.936   4
   3   2   8 15952.3 332.049   4
   3   2   8 15747.5 500.266   1
  -3  -2  -8 16100.7 518.092   1
   3   2   8 15999.6 428.408   3
  -3  -2  -9 6541.49 332.487   1
   3   2   9 6032.18 189.930   4
   3   2   9 6402.26 236.248   4
   3   2   9 6345.79 264.906   3
  -3  -2 -10 12147.5 470.234   1
   3   2  10 11245.8 365.865   4
   3   2  10 11834.2 561.753   2
   3   2  10 11407.5 370.328   3
   3   2  11 969.007 169.388   2
   3   2  11 1214.00 106.029   4
   3   2  11 1254.72 137.459   4
   3   2  11 1211.96 123.149   3
   3   2  12 771.816 98.1185   3
   3   2  12 975.596 179.781   2
   3   2  12 592.599 101.840   4
   3   2  13 161.353 105.727   2
   3   2  14 260.154 123.650   2
  -3  -3  10 134.343 67.7195   2
  -3  -3   9 212.800 80.3283   2
  -3  -3   8 360.982 89.1739   2
  -3  -3   7 2045.80 118.151   1
  -3  -3   7 2092.43 180.960   2
  -3  -3   6 513.671 67.7016   1
  -3  -3   6 485.416 98.2762   2
  -3  -3   5 2150.22 163.782   2
  -3  -3   5 1864.24 121.041   1
  -3  -3   4 33.0197 39.4955   3
  -3  -3   4 23.6052 30.2949   1
  -3  -3   4 43.3029 46.4175   2
  -3  -3   3 4122.15 200.601   2
  -3  -3   3 4082.30 187.839   1
  -3  -3   3 3985.67 232.728   3
   3   3  -2 1379.90 116.098   2
  -3  -3   2 1163.74 102.277   1
  -3  -3   2 1224.06 125.174   3
  -3  -3   2 1124.03 97.6039   2
  -3  -3   1 15982.6 421.125   2
  -3  -3   1 16724.8 421.311   1
   3   3  -1 16520.4 483.600   3
  -3  -3   1 17379.8 474.246   3
  -3  -3   0 55430.2 960.758   2
  -3  -3   0 58802.1 957.915   1
   3   3   0 55550.2 1015.24   3
  -3  -3   0 57095.2 1004.77   3
   3   3   1 83602.5 1259.96   1
  -3  -3  -1 83538.7 1308.41   2
   3   3   1 87480.1 1352.00   3
  -3  -3  -1 86778.7 1301.67   1
   3   3   2 55091.3 946.107   1
   3   3   2 54626.9 968.496   3
  -3  -3  -2 56686.7 977.132   1
   3   3   3 11246.3 369.338   1
  -3  -3  -3 11678.4 270.554   4
   3   3   3 11477.8 368.074   3
   3   3   4 22304.9 330.537   5
  -3  -3  -4 22832.0 371.901   4
   3   3   4 22387.4 562.502   1
   3   3   4 22548.8 543.573   3
  -3  -3  -5 32579.6 463.333   4
   3   3   5 34691.8 747.855   1
   3   3   5 32881.0 696.278   3
   3   3   6 1359.71 143.987   1
   3   3   6 1775.61 150.907   3
  -3  -3  -7 1666.55 164.059   1
   3   3   7 1955.15 172.682   1
   3   3   7 1597.54 139.636   3
  -3  -3  -8 7635.37 368.416   1
   3   3   8 7072.63 156.115   4
   3   3   8 7963.14 328.020   3
  -3  -3  -9 12191.0 486.122   1
   3   3   9 11780.5 272.525   4
   3   3   9 11573.6 411.052   3
   3   3  10 813.134 115.163   3
   3   3  10 903.552 85.5333   4
  -3  -3 -10 903.726 138.771   1
   3   3  11 259.236 78.6620   3
   3   3  11 183.963 54.2581   4
   3   3  12 724.915 110.176   3
   3   3  12 420.424 127.185   2
   3   3  12 632.645 95.8222   4
   3   3  13 508.679 98.3245   3
   3   3  13 546.635 156.657   2
   3   3  14 250.222 146.590   2
   3   3  15 731.365 183.044   2
  -3  -4   9 175.626 87.5525   2
  -3  -4   8 93.6380 80.6499   2
  -3  -4   7 1467.41 162.578   2
  -3  -4   6 3286.11 228.727   2
  -3  -4   5 15106.4 480.962   2
  -3  -4   5 16021.0 366.424   1
  -3  -4   4 33966.5 740.428   2
  -3  -4   4 34753.0 634.821   1
  -3  -4   3 129.445 38.8719   1
  -3  -4   3-255.214 109.132   2
  -3  -4   2 19656.1 516.514   2
   3   4  -2 19584.9 575.677   3
  -3  -4   2 20099.6 569.124   3
  -3  -4   2 20567.0 482.253   1
  -3  -4   1 10817.5 372.026   2
   3   4  -1 10798.3 405.603   3
  -3  -4   1 10928.8 394.561   3
  -3  -4   1 11112.7 349.014   1
  -3  -4   0 7853.76 327.253   2
   3   4   0 8157.52 274.874   2
   3   4   0 7602.19 330.740   3
  -3  -4   0 7926.76 328.974   3
  -3  -4   0 8004.50 299.134   1
  -3  -4  -1 4551.30 253.954   2
   3   4   1 4133.19 209.192   1
   3   4   1 4358.76 242.788   3
  -3  -4  -1 4216.41 237.819   3
  -3  -4  -1 4369.18 228.619   1
  -3  -4  -2 27007.5 639.350   1
  -3  -4  -2 27435.8 565.979   4
   3   4   2 26608.4 614.568   1
   3   4   2 26248.5 642.593   3
  -3  -4  -3 8406.80 342.348   1
  -3  -4  -3 8422.61 260.721   4
   3   4   3 8173.32 328.183   1
   3   4   3 8410.44 336.910   3
   3   4   4 161.055 58.3327   3
  -3  -4  -4 228.188 42.0165   4
   3   4   4 331.401 70.0394   1
  -3  -4  -4 258.173 72.4985   1
   3   4   5 81017.9 1038.39   5
  -3  -4  -5 79122.8 1097.80   4
   3   4   5 81408.4 1385.59   1
   3   4   5 79431.5 1338.93   3
   3   4   6 24.1153 42.4237   1
   3   4   6 57.2027 54.4477   3
  -3  -4  -6 22.0565 20.5483   4
   3   4   7 533.156 97.1960   3
   3   4   7 560.662 46.8128   4
  -3  -4  -7 589.275 107.940   1
   3   4   8 277.061 77.1324   3
  -3  -4  -8 337.792 94.2987   1
   3   4   8 284.412 34.6676   4
  -3  -4  -9 339.223 107.099   1
   3   4   9 247.891 82.3151   3
   3   4   9 218.977 34.3265   4
  -3  -4 -10 2834.56 251.204   1
   3   4  10 2953.05 136.437   4
   3   4  10 2833.15 225.508   3
   3   4  11 4932.05 201.069   4
   3   4  11 4866.76 299.053   3
   3   4  12 1091.22 151.028   3
   3   4  13 1609.13 245.953   2
   3   4  13 1582.28 182.681   3
   3   4  14 188.653 76.8926   3
   3   4  14 185.400 110.942   2
   3   4  15-81.0154 110.479   2
  -3  -5   8 843.226 154.624   2
  -3  -5   7 154.176 88.4642   2
  -3  -5   6 2237.42 204.440   2
  -3  -5   5 125.868 75.7410   2
  -3  -5   4 9062.11 272.022   1
  -3  -5   4 8961.28 381.769   2
  -3  -5   3 220.147 54.6341   1
  -3  -5   3 7.24110 82.7736   2
  -3  -5   2 10166.4 338.365   1
  -3  -5   2 10408.1 397.729   2
   3   5  -2 10446.9 425.839   3
  -3  -5   1 3951.83 213.244   1
  -3  -5   1 4062.12 251.436   2
   3   5  -1 3962.45 256.371   3
  -3  -5   0 3366.06 202.116   1
  -3  -5   0 3364.58 239.337   2
   3   5   0 3115.03 224.345   3
   3   5   1 758.691 115.229   3
  -3  -5  -1 1050.35 121.332   1
  -3  -5  -1 1055.99 116.699   4
   3   5   1 835.395 100.314   1
  -3  -5  -1 1080.79 153.109   2
   3   5   2 511.592 92.7629   3
  -3  -5  -2 603.210 97.1312   1
   3   5   2 594.905 91.1117   1
  -3  -5  -2 367.676 87.0898   2
  -3  -5  -3 26266.6 677.524   1
  -3  -5  -3 26262.3 438.624   5
   3   5   3 25403.5 652.721   1
   3   5   3 25489.2 677.846   3
  -3  -5  -4 3881.29 248.333   1
  -3  -5  -4 4114.83 196.861   4
   3   5   4 3803.59 244.600   1
   3   5   4 3846.69 248.413   3
  -3  -5  -5 16434.9 415.577   4
  -3  -5  -5 16140.4 549.248   1
   3   5   5 16047.6 537.217   3
  -3  -5  -6 11982.9 349.355   4
  -3  -5  -6 12240.8 481.079   1
   3   5   6 12303.0 468.896   3
   3   5   7 1228.06 152.216   3
   3   5   7 1180.89 109.665   5
   3   5   7 1274.61 92.8573   4
  -3  -5  -7 1224.47 162.633   1
  -3  -5  -7 1060.03 98.7327   4
   3   5   8 10231.7 358.956   5
   3   5   8 10536.6 272.384   4
  -3  -5  -8 10285.9 473.763   1
   3   5   8 11012.5 462.014   3
   3   5   9 7172.06 218.551   4
  -3  -5  -9 7152.87 403.661   1
   3   5   9 7498.78 383.882   3
   3   5  10 124.236 76.5698   3
   3   5  10 186.413 41.4339   4
   3   5  11 8120.07 258.759   4
   3   5  11 9107.00 441.566   3
   3   5  12 833.244 144.785   3
   3   5  13-22.0284 82.1298   3
   3   5  14 1226.90 178.401   3
   3   5  14 1043.10 216.202   2
   3   5  15-60.6267 140.349   2
  -3  -6   7 357.866 111.128   2
  -3  -6   6-49.2317 91.8162   2
  -3  -6   5-6.73925 87.1265   2
  -3  -6   4 3220.28 248.913   2
  -3  -6   3 2003.28 203.565   2
  -3  -6   3 2345.44 147.348   1
  -3  -6   2 509.185 80.6473   1
  -3  -6   2 463.843 117.032   2
   3   6  -2 546.430 116.105   3
  -3  -6   1 21959.7 678.524   2
  -3  -6   1 22782.8 576.215   1
   3   6  -1 21943.0 678.865   3
  -3  -6   0 2455.71 185.901   1
   3   6   0 2268.63 168.761   1
  -3  -6   0 2260.36 223.284   2
   3   6   0 2658.15 225.417   3
  -3  -6  -1 29839.0 723.809   1
  -3  -6  -1 28911.0 796.186   2
   3   6   1 28414.8 680.206   1
   3   6   1 28834.4 771.326   3
  -3  -6  -2 38623.7 941.647   2
  -3  -6  -2 38729.2 871.996   1
   3   6   2 38040.3 842.204   1
   3   6   2 38284.6 906.883   3
  -3  -6  -3 22436.2 462.222   5
  -3  -6  -3 23028.5 593.043   4
  -3  -6  -3 22411.5 654.345   1
   3   6   3 23308.6 686.107   3
   3   6   4 1141.45 150.291   3
  -3  -6  -4 978.249 140.197   1
  -3  -6  -4 974.584 111.265   4
  -3  -6  -5 16848.4 586.738   1
   3   6   5 17307.6 591.515   3
  -3  -6  -6 24509.2 594.262   4
  -3  -6  -6 24812.0 743.833   1
   3   6   6 24766.7 741.126   3
   3   6   7 3959.51 198.348   4
  -3  -6  -7 4078.46 227.903   4
   3   6   7 4026.81 287.507   3
  -3  -6  -7 4540.64 316.799   1
   3   6   8 6207.25 240.372   4
  -3  -6  -8 5963.56 373.911   1
  -3  -6  -8 6133.49 278.929   4
   3   6   8 6051.26 263.227   5
   3   6   8 6287.14 368.904   3
   3   6   9 20483.1 463.161   4
  -3  -6  -9 21511.7 751.519   1
   3   6   9 20934.8 712.773   3
   3   6  10 2390.86 144.118   4
   3   6  10 2406.97 244.428   3
   3   6  11 3278.16 170.550   4
   3   6  11 3755.90 304.222   3
   3   6  12 643.881 141.478   3
   3   6  13 578.867 144.066   3
   3   6  14 300.462 111.442   3
   3   6  15 273.301 121.343   3
   3   6  15 102.505 123.877   2
  -3  -7   6 75.3663 103.513   2
  -3  -7   5 182.276 107.985   2
  -3  -7   4 701.568 153.076   2
  -3  -7   3 2131.18 233.379   2
  -3  -7   2 244.769 105.875   2
   3   7  -2 475.713 114.860   3
  -3  -7   1 1610.92 206.729   2
   3   7  -1 1174.82 163.431   3
  -3  -7   0 10131.6 489.294   2
  -3  -7   0 10276.9 401.852   1
   3   7   0 9617.97 364.928   1
   3   7   0 10146.7 469.305   3
  -3  -7  -1 35166.1 958.713   2
   3   7   1 35925.5 926.247   3
  -3  -7  -1 36814.9 855.427   1
  -3  -7  -2 33053.6 830.420   1
  -3  -7  -2 32970.8 918.544   2
   3   7   2 32885.7 883.209   3
  -3  -7  -3 23831.5 711.183   1
  -3  -7  -3 24497.6 542.323   5
   3   7   3 24382.8 750.042   3
  -3  -7  -4 2770.62 238.440   1
   3   7   4 2641.07 241.645   3
  -3  -7  -5 12104.6 516.728   1
  -3  -7  -5 12847.0 459.207   4
   3   7   5 12943.0 541.023   3
  -3  -7  -6 21826.8 616.745   4
  -3  -7  -6 22279.9 737.479   1
   3   7   6 23057.6 754.036   3
   3   7   7 1496.17 202.838   3
   3   7   7 1600.03 145.769   4
  -3  -7  -7 1485.99 154.940   4
  -3  -7  -7 1369.80 195.849   1
   3   7   8 5153.81 251.099   4
   3   7   8 5453.39 367.794   3
   3   7   9 8576.15 317.761   4
   3   7   9 8453.52 468.234   3
   3   7  10 1336.88 197.555   3
   3   7  10 1608.52 134.068   4
   3   7  11 699.393 152.333   3
   3   7  12 45.5848 86.5700   3
   3   7  13 261.301 122.784   3
   3   7  14 50.1894 95.4238   3
   3   7  15 442.014 151.861   3
  -3  -8   4 209.591 123.261   2
  -3  -8   3 123.003 124.543   2
  -3  -8   2 7041.33 453.679   2
   3   8  -2 7009.51 417.602   3
  -3  -8   1 598.786 163.021   2
   3   8  -1 356.593 122.308   3
  -3  -8   0 11396.0 557.259   2
   3   8   0 10630.4 509.329   3
  -3  -8  -1 2248.34 263.191   2
   3   8   1 2322.87 237.573   3
   3   8   2 7.60173 76.7420   3
  -3  -8  -2-145.187 137.793   2
  -3  -8  -3 15115.4 452.921   5
   3   8   3 14978.4 609.012   3
   3   8   4 464.318 119.770   3
  -3  -8  -4 482.686 84.3658   5
   3   8   5 15354.8 631.261   3
   3   8   6 835.614 162.361   3
   3   8   7 121.477 95.2446   3
   3   8   8 420.783 130.597   3
   3   8   8 454.904 88.4503   4
   3   8   9 1363.18 143.041   4
   3   8   9 1911.46 244.039   3
   3   8  10 345.209 125.632   3
   3   8  10 264.893 72.5423   4
   3   8  11 2025.95 260.145   3
   3   8  12 161.277 107.976   3
   3   8  13 706.337 178.808   3
   3   8  14 19.8272 98.1653   3
   3   8  15 39.1376 102.616   3
  -3  -9   2 3467.53 349.708   2
   3   9  -2 2846.32 282.421   3
  -3  -9   1 509.678 195.948   2
   3   9  -1 186.203 101.001   3
   3   9   0 1323.93 197.450   3
  -3  -9   0 1404.77 228.622   2
   3   9   1 324.711 112.796   3
  -3  -9  -1 264.226 131.157   2
   3   9   2 788.515 151.647   3
  -3  -9  -2 831.057 129.244   5
   3   9   3 1067.68 177.768   3
  -3  -9  -3 796.731 123.950   5
   3   9   4 1801.96 233.102   3
  -3  -9  -4 1560.10 156.640   5
   3   9   5 7707.23 471.756   3
   3   9   6 756.408 169.512   3
   3   9   7 38.6426 95.2126   3
   3   9   8 4178.71 366.679   3
   3   9   9 2070.12 192.934   4
   3   9   9 2508.28 293.631   3
   3   9  10 0.40071 113.214   3
   3   9  11 85.7019 91.5216   3
   3   9  12 963.205 189.527   3
   3   9  13-5.32407 114.714   3
   3  10  -1 209.483 111.913   3
   3  10   0 841.637 174.505   3
   3  10   1 1027.46 184.926   3
  -3 -10  -1 667.643 185.967   2
   3  10   2 54.2834 76.6695   3
   3  10   3 145.014 98.6424   3
   3  10   4 17.9667 102.399   3
   3  10   5 203.105 114.367   3
   3  10   6 1959.82 263.664   3
   3  10   7 252.968 126.790   3
   3  10   8 4192.08 386.991   3
   3  10   9 875.683 203.863   3
   3  10  10-184.223 131.724   3
   3  10  11 76.7875 116.085   3
   3  11   1 1337.92 225.296   3
   3  11   2 223.756 121.980   3
   3  11   3 287.254 131.291   3
   3  11   4 2106.80 284.827   3
   3  11   5 546.140 155.696   3
   3  11   6 1104.51 217.009   3
  -4  11   3 104.308 100.125   3
   4 -10  -4-59.6797 155.850   5
   4 -10  -3 551.175 192.851   5
   4 -10  -2 669.943 205.902   5
  -4  10   1 261.354 96.7372   3
   4 -10  -1 480.918 185.067   5
  -4   9   8-130.583 116.088   4
  -4   9   7 337.013 132.392   4
  -4   9   6 291.846 133.524   4
  -4   9   5 221.173 123.054   4
   4  -9  -4 3190.71 349.277   5
  -4   9   4 3468.54 332.597   4
   4  -9  -3 231.670 137.202   5
  -4   9   3 310.082 126.760   4
   4  -9  -2 195.287 139.928   5
  -4   9   2 92.0002 85.6684   4
  -4   9   1 3216.17 315.507   4
   4  -9  -1 3335.29 349.702   5
   4  -9   0 236.466 132.102   5
  -4   9   0 119.120 72.3547   3
  -4   9   0 281.931 122.723   4
  -4   9  -1 59.8496 94.5336   4
   4  -9   1 64.4455 88.9513   2
  -4   9  -2 191.255 116.306   4
   4  -9   2 337.934 123.836   2
  -4   9  -3 112.531 100.319   4
   4  -9   3 89.4103 94.1834   2
   4  -9   4-72.6458 86.3030   2
   4  -9   5 22.1963 86.6057   2
  -4   8  10 401.786 154.525   4
  -4   8   9 348.341 130.010   4
  -4   8   8 795.215 189.900   4
  -4   8   7 2485.07 290.825   4
  -4   8   6 2244.45 274.261   4
  -4   8   5 17.0129 88.0710   4
   4  -8  -4 7376.75 503.402   5
  -4   8   4 6916.82 450.068   4
   4  -8  -3 116.605 125.499   5
  -4   8   3 492.523 148.167   4
   4  -8  -2 43.7014 104.379   5
  -4   8   2 119.298 90.0297   4
   4  -8  -1 3590.45 345.020   5
  -4   8   1 3357.35 306.557   4
  -4   8   0 1056.32 182.060   4
   4  -8   0 1365.88 233.899   5
   4  -8   0 1128.14 144.264   2
  -4   8  -1 383.691 111.439   4
   4  -8   1 702.099 131.024   2
  -4   8  -2-38.8785 53.6272   3
  -4   8  -2 39.0148 79.7298   4
   4  -8   2 87.9102 76.1782   2
  -4   8  -3 34.6413 79.1928   4
   4  -8   3 84.4348 67.5573   2
   4  -8   4 6.60309 66.4295   2
   4  -8   5 2581.16 219.052   2
   4  -8   6-65.3039 85.8196   2
   4  -8   7 164.480 84.0764   2
  -4   7  11 86.9042 117.931   4
  -4   7  10 58.8354 120.802   4
  -4   7   9 20.1465 94.2582   4
  -4   7   8 995.003 197.405   4
  -4   7   7-14.9111 83.6453   4
  -4   7   6-17.9357 81.1562   4
  -4   7   5-4.37690 75.1671   4
   4  -7  -4-211.980 154.579   5
  -4   7   4 19.3669 83.1430   4
   4  -7  -3 5.91345 110.988   5
  -4   7   3 194.653 103.369   4
   4  -7  -2 1714.33 233.064   5
  -4   7   2 1628.51 202.178   4
   4  -7  -1 8709.82 491.344   5
  -4   7   1 8702.59 462.266   4
  -4   7   0 21.5687 76.1401   4
   4  -7   0-36.3039 60.2969   2
  -4   7  -1 254.833 102.112   4
   4  -7   1 263.666 88.8663   2
  -4   7  -2 6505.67 399.593   4
   4  -7   2 6019.36 286.519   2
  -4   7  -3 3607.82 305.797   4
   4  -7   3 3640.58 217.600   2
  -4   7  -3 3749.69 229.757   3
  -4   7  -4 244.507 102.661   4
   4  -7   4 160.512 69.0957   2
   4  -7   5 3541.93 230.953   2
   4  -7   6 341.185 90.6789   2
   4  -7   7 25.5203 59.5295   2
   4  -7   8 465.489 111.282   2
  -4   6  11 26.9106 104.800   4
  -4   6  10-52.0765 121.281   4
  -4   6   9-49.7461 87.4866   4
  -4   6   8 495.506 156.077   4
  -4   6   7 36.7241 35.6428   2
  -4   6   7 13.0054 110.071   4
  -4   6   6 151.838 41.4420   2
  -4   6   6 256.132 121.186   4
  -4   6   5 48.9672 85.0951   4
  -4   6   4 4705.56 348.421   4
  -4   6   4 4444.03 140.852   2
   4  -6  -3 14167.6 618.972   5
  -4   6   3 14487.2 600.417   4
  -4   6   3 15120.1 307.702   2
  -4   6   2 158.036 35.9344   2
  -4   6   2 162.173 78.5993   4
   4  -6  -2 284.306 114.223   5
   4  -6  -1 21197.8 740.693   5
  -4   6   1 20558.1 691.417   4
  -4   6   1 21250.0 457.819   2
   4  -6   0 2634.23 260.539   5
   4  -6   0 2443.66 161.403   2
  -4   6   0 2389.41 227.907   4
  -4   6   0 2281.53 149.698   2
   4  -6   1 8230.74 295.217   2
  -4   6  -1 8404.35 421.576   4
  -4   6  -1 8961.09 333.000   2
  -4   6  -2 31193.0 861.885   4
   4  -6   2 31759.3 639.063   2
  -4   6  -2 31469.9 741.766   2
  -4   6  -3 4744.35 322.557   4
   4  -6   3 4746.97 221.906   2
  -4   6  -4 85.9485 46.2124   3
  -4   6  -4 73.7461 59.8365   4
   4  -6   4 213.313 65.8981   2
   4  -6   5 6443.27 291.599   2
   4  -6   6 668.534 102.005   2
   4  -6   7 482.996 98.4594   2
   4  -6   8-13.3801 59.5809   2
   4  -6   9 991.208 148.049   2
  -4   5  12-211.230 148.351   4
  -4   5  11 1123.24 226.553   4
  -4   5  10 240.000 139.182   4
  -4   5   9 432.984 141.724   4
  -4   5   8 1358.99 123.586   2
  -4   5   8 1458.13 231.350   4
  -4   5   7 362.494 65.8038   2
  -4   5   7 380.818 143.395   4
  -4   5   6 3982.05 166.743   2
  -4   5   6 3576.04 321.409   4
  -4   5   6 3552.55 161.375   2
  -4   5   5 23515.5 802.459   4
  -4   5   5 22577.4 428.804   2
  -4   5   5 22964.4 383.021   2
  -4   5   4 3805.16 306.090   4
  -4   5   4 3848.29 107.072   2
   4  -5  -3 22180.7 735.608   5
  -4   5   3 21876.3 720.630   4
  -4   5   3 22001.7 336.973   2
   4  -5  -2 11667.7 517.887   5
  -4   5   2 13048.5 522.669   4
  -4   5   2 12063.6 244.763   2
   4  -5  -1 2053.55 225.290   5
  -4   5   1 1726.47 187.051   4
  -4   5   1 1797.32 98.7796   2
   4  -5   0 29698.9 815.458   5
   4  -5   0 27148.4 534.422   2
  -4   5   0 27421.4 760.441   4
  -4   5   0 28895.5 544.387   2
   4  -5   1 18560.3 405.213   2
  -4   5  -1 18915.1 603.727   4
  -4   5  -1 18685.7 463.364   2
  -4   5  -2 3689.86 259.986   4
  -4   5  -2 3867.05 218.897   2
   4  -5   2 4071.89 176.415   2
  -4   5  -3 15229.9 545.217   4
   4  -5   3 15190.9 385.262   2
  -4   5  -3 16046.4 505.067   2
  -4   5  -4 364.746 98.8860   4
   4  -5   4 380.541 66.2403   2
  -4   5  -5 362.593 47.5224   3
  -4   5  -5 387.737 97.7376   4
   4  -5   5 380.646 76.1197   2
   4  -5   6 92.6848 50.5795   2
   4  -5   7 1573.46 155.972   2
   4  -5   8 106.482 60.6411   2
   4  -5   9 52.3584 63.2214   2
   4  -5  10-78.7734 92.3998   2
  -4   4  12 110.397 126.268   4
  -4   4  11 2336.20 330.943   4
  -4   4  10 147.389 65.6811   2
  -4   4  10 139.579 127.895   4
  -4   4   9 2149.88 160.017   2
  -4   4   9 1956.30 287.497   4
  -4   4   8 5215.93 434.485   4
  -4   4   8 4588.70 217.693   2
  -4   4   7 520.572 68.0976   2
  -4   4   7 444.150 146.435   4
  -4   4   6 26690.0 913.362   4
  -4   4   6 25358.2 482.031   2
  -4   4   5 25635.0 448.757   2
  -4   4   5 26130.2 865.934   4
  -4   4   5 25917.0 437.071   2
  -4   4   4 14047.8 225.202   2
  -4   4   4 14550.0 244.276   2
  -4   4   3 11759.3 509.985   4
   4  -4  -2 3070.75 272.117   5
  -4   4   2 3488.25 279.697   4
   4  -4  -1 3721.72 270.474   5
  -4   4   1 3388.83 247.864   4
  -4   4   1 3206.88 100.838   2
   4  -4   0 8473.09 393.275   5
   4  -4   0 8570.22 215.071   2
  -4   4   0 8008.06 364.782   4
  -4   4   0 7672.07 215.059   2
   4  -4   1 3581.14 131.429   2
  -4   4  -1 3402.59 233.205   4
  -4   4  -1 3502.02 166.740   2
  -4   4  -2 32.9701 29.5895   2
  -4   4  -2 81.9365 55.1608   4
   4  -4   2 94.1897 33.3640   2
  -4   4  -3 1709.42 161.758   4
   4  -4   3 1707.78 111.783   2
  -4   4  -3 1776.12 150.592   2
  -4   4  -4 4483.65 263.689   4
   4  -4   4 3983.01 187.492   2
  -4   4  -4 3873.45 243.773   2
  -4   4  -5 40208.1 914.386   4
   4  -4   5 37893.5 751.996   2
   4  -4   6 2220.10 172.611   2
   4  -4   7 104.331 59.7174   2
  -4   4  -7 69.6637 47.5980   1
   4  -4   8 645.054 117.606   2
   4  -4   9 52.0910 64.6041   2
   4  -4  10 548.547 124.177   2
   4  -4  11 42.8094 90.8518   2
  -4   3  12 591.307 203.721   4
  -4   3  11 744.678 115.891   2
  -4   3  11 698.190 211.092   4
  -4   3  10 368.344 87.0896   2
  -4   3  10 688.876 194.148   4
  -4   3   9 2014.86 156.683   2
  -4   3   9 1865.62 285.820   4
  -4   3   8 1532.65 126.076   2
  -4   3   8 1413.33 237.995   4
  -4   3   7 1953.31 129.126   2
  -4   3   7 2285.42 281.688   4
  -4   3   6 10400.6 551.696   4
  -4   3   6 10109.2 272.229   2
  -4   3   5 112.586 26.7477   2
  -4   3   5 70.0098 80.1408   4
  -4   3   4 14299.1 589.364   4
  -4   3   4 13675.5 228.667   2
  -4   3   3 2932.35 252.140   4
   4  -3  -2 44.3705 88.3276   5
  -4   3   2 137.771 74.3379   4
   4  -3  -1 11869.7 447.749   5
  -4   3   1 12013.2 458.837   4
   4  -3  -1 12684.2 514.542   4
   4  -3   0 3194.94 226.097   5
  -4   3   0 3303.22 221.151   4
   4  -3   0 3137.67 240.317   4
   4  -3   0 3011.24 83.4439   2
   4  -3   1 7405.41 164.627   2
   4  -3   1 7851.31 379.331   4
  -4   3  -1 6810.98 311.988   4
   4  -3   2 309.117 40.3440   2
  -4   3  -2 323.062 74.9827   4
   4  -3   2 324.312 80.0926   4
   4  -3   3 11277.8 431.050   4
   4  -3   3 10304.0 279.250   2
  -4   3  -3 10235.0 369.124   4
  -4   3  -4 1621.27 145.124   4
   4  -3   4 1574.86 158.267   4
   4  -3   4 1369.26 113.536   2
   4  -3   5 1582.13 161.737   4
   4  -3   5 1540.79 131.741   2
  -4   3  -5 1458.00 142.395   4
  -4   3  -5 1532.63 84.5795   3
   4  -3   6 179.747 67.2072   2
   4  -3   7 6.37396 46.2198   2
   4  -3   8 192.050 73.6471   2
  -4   3  -8 258.605 62.5768   1
   4  -3   9 2843.63 231.022   2
   4  -3  10 999.889 150.675   2
   4  -3  11 72.7497 77.6244   2
   4  -3  12 23.8147 75.1244   2
  -4   2  12 281.137 148.550   4
  -4   2  11 51.5276 60.9628   2
  -4   2  11 76.8342 135.484   4
  -4   2  10 341.467 85.1811   2
  -4   2  10 72.9938 110.887   4
  -4   2   9 33.0470 55.1010   2
  -4   2   9-87.9243 122.043   4
  -4   2   8 37.7865 41.7710   2
  -4   2   8-113.257 125.921   4
  -4   2   7-15.8801 28.5798   2
  -4   2   7-128.877 126.138   4
  -4   2   6 725.838 75.5277   2
  -4   2   6 777.011 153.556   4
  -4   2   5 1110.40 78.4201   2
  -4   2   5 1105.22 178.330   4
  -4   2   4 2183.22 86.9069   2
  -4   2   4 2005.13 221.807   4
  -4   2   3 39653.0 871.339   5
  -4   2   3 37498.2 472.472   2
  -4   2   3 37921.3 969.931   4
  -4   2   2 6323.62 300.882   5
  -4   2   2 5965.51 336.594   4
   4  -2  -1 5873.75 291.649   5
  -4   2   1 5977.00 316.392   4
   4  -2  -1 5644.57 322.844   4
   4  -2   0 4048.33 234.536   5
  -4   2   0 3755.99 232.468   4
   4  -2   0 4063.45 262.074   4
  -4   2  -1 11963.8 398.213   4
   4  -2   1 11946.9 443.008   4
   4  -2   1 12079.7 207.472   2
  -4   2  -2 26645.3 610.320   4
   4  -2   2 27212.5 689.297   4
   4  -2   2 28380.3 462.818   2
  -4   2  -3 21813.8 519.886   4
   4  -2   3 23309.1 600.523   4
   4  -2   3 21945.5 450.636   2
  -4   2  -4 4326.43 211.019   4
   4  -2   4 4359.58 237.891   4
   4  -2   4 4026.99 193.924   2
  -4   2  -4 4593.52 179.427   3
   4  -2   5 650.755 87.0924   2
  -4   2  -5 777.542 93.8558   4
   4  -2   5 713.331 102.088   4
  -4   2  -5 773.481 61.9748   3
   4  -2   6 12448.1 423.540   2
   4  -2   6 13326.2 428.873   4
  -4   2  -6 12621.0 213.181   3
   4  -2   7 920.945 116.462   2
   4  -2   7 906.450 113.487   4
   4  -2   8 12787.7 445.875   4
   4  -2   8 11866.5 468.216   2
   4  -2   9 9883.85 446.306   2
   4  -2  10 1521.29 190.062   2
   4  -2  11 76.4297 66.9893   2
   4  -2  12 274.041 118.077   2
   4  -2  13 134.601 102.009   2
  -4   1  12 667.466 120.638   2
  -4   1  11 252.569 81.9230   2
  -4   1  11 194.681 150.438   4
  -4   1  10-1.74418 61.3493   2
  -4   1  10-62.3699 120.543   4
  -4   1   9 15.1334 52.1803   2
  -4   1   9 118.270 105.122   4
  -4   1   8-13.8812 44.5043   2
  -4   1   8-48.2302 94.7255   4
  -4   1   7 3349.31 180.545   2
  -4   1   7 3598.84 350.553   4
  -4   1   6 180.743 40.0224   2
  -4   1   6 200.016 89.2811   4
  -4   1   5 3305.87 146.621   2
  -4   1   5 3059.80 293.793   4
  -4   1   4 21181.5 382.282   2
  -4   1   4 21183.0 742.726   4
  -4   1   3 1104.59 62.1415   2
   4  -1  -3 1045.52 76.7862   2
  -4   1   3 1086.71 134.494   5
  -4   1   3 923.120 147.643   4
  -4   1   2 900.078 55.0239   2
   4  -1  -2 917.479 58.8058   2
  -4   1   2 789.708 126.798   4
  -4   1   2 996.023 125.260   5
  -4   1   1 367.276 83.0031   4
  -4   1   1 427.071 84.7372   5
   4  -1   0 50323.8 909.654   5
  -4   1   0 50642.7 995.086   4
   4  -1   1 73192.4 1144.51   5
  -4   1  -1 72890.7 1200.93   4
   4  -1   1 72024.0 1247.75   4
   4  -1   1 72112.7 933.365   2
  -4   1  -2 7021.04 266.762   4
   4  -1   2 6837.91 293.218   4
   4  -1   2 7298.35 216.153   2
  -4   1  -3 37089.7 678.911   4
   4  -1   3 38155.3 763.115   4
   4  -1   3 37483.8 672.996   2
  -4   1  -3 38965.2 688.026   3
  -4   1  -4 142.430 39.4304   3
   4  -1   4 204.559 57.5868   2
  -4   1  -4 129.405 43.6234   4
   4  -1   4 109.468 42.1285   4
   4  -1   5 412.833 79.7373   2
  -4   1  -5 512.307 66.8251   4
   4  -1   5 450.578 68.4868   4
  -4   1  -5 535.036 57.1988   3
   4  -1   6 611.771 97.6384   2
   4  -1   6 588.000 79.4337   4
  -4   1  -6 537.156 50.6728   3
   4  -1   7 56.1729 37.3556   4
   4  -1   7 51.5965 54.7695   2
   4  -1   8 634.087 117.607   2
   4  -1   8 595.129 85.8159   4
   4  -1   9 289.649 98.1027   2
   4  -1   9 439.320 79.9607   4
  -4   1 -10 32.4511 41.6729   1
   4  -1  10-19.6666 76.0253   2
   4  -1  11-77.2829 80.9073   2
  -4   1 -11 47.1744 49.0860   1
   4  -1  12 114.991 70.5453   2
   4  -1  13-2.50589 88.3912   2
  -4   0  12 73.6031 75.3834   2
  -4   0  11 44.2203 58.5552   2
  -4   0  10 2416.77 200.536   2
  -4   0   9 527.206 96.2526   2
  -4   0   8-44.4964 53.5238   2
  -4   0   7 8339.55 306.296   2
   4   0  -6 769.133 110.284   2
  -4   0   6 802.763 88.3250   2
  -4   0   5 1365.39 102.301   2
  -4   0   4 6777.57 215.717   2
   4   0  -4 7217.95 272.226   2
  -4   0   3 2824.03 122.334   2
   4   0  -3 2611.42 140.810   2
  -4   0   2 12265.7 405.455   5
  -4   0   2 12191.4 270.287   2
   4   0  -2 11414.3 272.990   2
  -4   0   1 45666.9 814.145   5
  -4   0   1 43278.4 658.376   2
  -4   0   1 41913.9 954.334   4
   4   0  -1 43709.3 609.688   2
  -4   0   0 13790.1 460.729   4
   4   0   0 13653.2 241.326   2
   4   0   1 3472.96 172.359   5
   4   0   1 3420.76 130.965   2
  -4   0  -1 3292.28 198.641   4
  -4   0  -2 1420.65 117.771   4
  -4   0  -2 1857.21 133.774   3
  -4   0  -3 906.097 85.0266   4
   4   0   3 949.222 91.7368   4
  -4   0  -3 1080.89 101.719   3
  -4   0  -4 3077.34 131.099   4
   4   0   4 2953.37 154.105   4
  -4   0  -4 2655.60 146.365   3
  -4   0  -5 45384.6 672.244   4
   4   0   5 45933.4 742.233   4
  -4   0  -5 44230.5 740.515   3
  -4   0  -6 377.385 53.6478   3
   4   0   6 318.996 76.4094   2
   4   0   6 455.785 56.9681   4
   4   0   7 11.5466 54.3130   2
   4   0   7 31.7368 26.9685   4
   4   0   8 6110.35 224.185   4
   4   0   8 5688.45 338.881   2
  -4   0  -8 6026.39 299.591   1
  -4   0  -9 3508.74 229.952   1
   4   0   9 3251.98 169.981   4
   4   0   9 3092.53 263.644   2
  -4   0 -10 2489.27 202.295   1
   4   0  10 2481.36 157.593   4
   4   0  10 2377.67 240.226   2
  -4   0 -11 2037.04 187.470   1
   4   0  11 2086.88 239.977   2
   4   0  12 1768.18 242.724   2
   4   0  13 1000.57 194.392   2
   4   0  14 363.443 122.948   2
  -4  -1  12 81.4197 75.3571   2
  -4  -1  11-21.5843 64.8563   2
  -4  -1  10 1970.38 188.864   2
  -4  -1   9 1126.71 135.363   2
  -4  -1   8 53.6928 50.0426   2
  -4  -1   7 6261.21 281.121   2
  -4  -1   6 1197.31 115.462   2
  -4  -1   5 1119.02 104.827   2
   4   1  -5 1002.01 122.272   2
  -4  -1   4 393.587 61.0474   2
   4   1  -3 376.770 62.0303   2
  -4  -1   3 617.574 75.2085   2
   4   1  -2 221.348 46.2369   2
  -4  -1   2 157.945 38.8617   2
  -4  -1   2 264.815 69.4403   3
  -4  -1   1 44617.1 805.685   5
  -4  -1   1 43890.7 731.807   2
   4   1  -1 44175.5 668.038   2
  -4  -1   0 1057.04 91.8540   5
   4   1   0 990.951 66.3402   2
  -4  -1   0 842.018 80.1668   2
   4   1   1 3745.58 148.909   2
   4   1   2 15781.2 335.704   5
  -4  -1  -2 16543.6 426.460   4
   4   1   2 15245.0 369.164   2
  -4  -1  -3 18759.7 400.205   4
  -4  -1  -3 18783.9 463.624   3
  -4  -1  -4 1629.22 79.2421   4
   4   1   4 1558.23 124.248   3
  -4  -1  -4 1534.46 117.272   3
  -4  -1  -5 1475.86 56.9979   4
   4   1   5 1539.53 120.342   3
  -4  -1  -5 1711.05 123.842   3
   4   1   6 3541.85 178.355   3
  -4  -1  -6 3331.85 216.624   1
  -4  -1  -6 3731.51 183.757   3
   4   1   7 11636.3 227.049   4
   4   1   7 12602.0 412.374   1
   4   1   7 12195.6 340.282   3
  -4  -1  -7 12676.0 442.393   1
  -4  -1  -8 2010.22 181.710   1
   4   1   8 1965.14 90.3455   4
   4   1   8 1983.71 165.196   1
   4   1   8 2007.02 202.164   2
   4   1   8 1937.65 128.425   3
   4   1   9 254.630 54.1251   3
  -4  -1  -9 180.581 61.6599   1
   4   1   9 255.141 87.9247   2
   4   1   9 259.786 40.7343   4
  -4  -1 -10 1922.42 187.156   1
   4   1  10 1941.55 114.998   4
   4   1  10 1760.52 220.624   2
   4   1  10 1867.73 121.210   3
   4   1  11 57.7196 72.6115   2
  -4  -1 -11 119.104 57.8670   1
   4   1  11 142.186 40.4076   3
   4   1  12-155.967 121.201   2
  -4  -1 -12-29.3352 59.0159   1
   4   1  13-29.7052 85.9247   2
   4   1  14 420.483 146.448   2
  -4  -2  11 23.5207 69.7661   2
  -4  -2  10-66.1678 77.0680   2
  -4  -2   9-13.6374 57.7084   2
  -4  -2   8 156.837 70.4944   2
  -4  -2   7 1542.68 151.220   2
  -4  -2   6-17.0990 48.6783   2
  -4  -2   5 78.8574 52.3697   2
  -4  -2   4 1039.45 108.288   2
   4   2  -3 428.375 71.2037   2
  -4  -2   3 40.3062 53.5889   2
  -4  -2   2 301.600 73.4624   3
  -4  -2   2 88.2800 47.9502   2
  -4  -2   1 621.901 97.7334   3
   4   2  -1 697.119 71.3367   2
  -4  -2   1 626.291 91.6135   1
  -4  -2   1 716.932 95.0507   2
  -4  -2   0 12277.8 364.921   2
   4   2   0 12259.4 296.086   2
  -4  -2   0 12069.4 383.479   1
   4   2   1 25283.5 478.669   2
  -4  -2  -1 24018.0 411.869   5
  -4  -2  -1 24600.8 583.158   1
   4   2   2 4454.21 201.211   2
   4   2   2 4099.36 223.934   3
   4   2   3 24041.0 362.933   5
   4   2   3 25034.7 552.492   2
   4   2   3 24045.1 584.024   3
  -4  -2  -4 37482.4 565.317   4
   4   2   4 37079.1 750.302   3
   4   2   5 125.787 50.4948   3
   4   2   5 95.2990 45.3598   1
   4   2   6 629.208 84.9772   3
  -4  -2  -6 560.370 80.5760   3
  -4  -2  -6 626.835 107.229   1
   4   2   6 552.296 90.6478   1
   4   2   7 12015.6 427.838   1
   4   2   7 11923.6 370.152   3
  -4  -2  -7 12274.7 463.049   1
  -4  -2  -8 3053.47 230.060   1
   4   2   8 2777.63 170.972   3
   4   2   9 244.188 61.0550   3
  -4  -2  -9 195.354 71.0950   1
   4   2  10 264.279 60.4959   3
   4   2  10 231.745 26.3568   4
   4   2  10 289.974 33.4734   4
   4   2  10 249.810 89.7321   2
  -4  -2 -10 164.098 68.0139   1
   4   2  11 837.559 100.860   3
   4   2  11 814.442 76.3966   4
   4   2  11 680.337 154.027   2
  -4  -2 -11 1047.71 150.561   1
   4   2  12 100.304 39.8055   3
  -4  -2 -12 286.051 99.6097   1
   4   2  12 63.3410 96.8525   2
   4   2  13 485.538 136.311   2
   4   2  14 842.207 184.682   2
  -4  -3  10 37.3938 64.8982   2
  -4  -3   9 94.2922 68.7839   2
  -4  -3   8 21.1902 61.3719   2
  -4  -3   7 172.635 76.6203   2
  -4  -3   6 11156.3 405.526   2
  -4  -3   6 11225.1 367.356   1
  -4  -3   5 3422.53 209.819   2
  -4  -3   5 3221.38 193.463   1
  -4  -3   4 1191.80 118.281   1
  -4  -3   4 1150.14 116.418   2
  -4  -3   3 6822.38 286.498   2
  -4  -3   3 7144.28 288.358   1
   4   3  -2 921.804 99.5514   2
  -4  -3   2 631.608 88.6079   1
  -4  -3   2 675.288 93.5525   2
  -4  -3   1 25249.6 604.384   2
   4   3  -1 27355.7 555.993   2
  -4  -3   1 25807.7 608.750   1
  -4  -3   0 10090.5 373.425   2
   4   3   0 10771.8 304.118   2
  -4  -3   0 10389.6 365.858   1
   4   3   0 10262.4 398.280   3
  -4  -3   0 10710.2 393.502   3
  -4  -3  -1 11614.2 396.991   2
  -4  -3  -1 11491.9 392.074   1
   4   3   1 11249.4 412.641   3
  -4  -3  -2 68878.3 1192.62   1
   4   3   2 68605.0 1208.06   3
   4   3   3 7485.23 310.697   1
   4   3   3 7779.34 328.568   3
  -4  -3  -3 7537.31 328.521   1
  -4  -3  -4 1333.80 76.9258   4
   4   3   4 1318.92 134.337   1
   4   3   4 1159.73 126.531   3
  -4  -3  -4 1619.39 145.556   3
  -4  -3  -5 15804.6 253.528   4
   4   3   5 16848.6 506.668   1
   4   3   5 16853.6 481.943   3
  -4  -3  -5 17423.5 499.956   3
   4   3   6 9645.06 362.871   3
  -4  -3  -6 10006.5 375.952   3
  -4  -3  -7 1750.00 181.142   1
   4   3   7 1644.63 150.701   3
  -4  -3  -8 2114.44 205.130   1
   4   3   8 1922.85 163.540   3
   4   3   9 79.7240 52.4907   3
  -4  -3  -9 24.8858 66.6692   1
  -4  -3 -10 4722.86 316.562   1
   4   3  10 5064.19 269.544   3
   4   3  11 33.7170 45.3983   3
  -4  -3 -11 239.162 98.2361   1
   4   3  12 327.993 77.6828   3
  -4  -3 -12 375.301 112.793   1
   4   3  13-167.033 129.702   2
   4   3  14 109.658 97.8349   2
   4   3  15 32.8378 100.955   2
  -4  -4   9 383.554 112.297   2
  -4  -4   8 255.498 100.909   2
  -4  -4   7 2181.96 205.138   2
  -4  -4   6 1080.00 142.048   2
  -4  -4   5 2290.49 192.045   2
  -4  -4   5 2606.82 169.899   1
  -4  -4   4 2523.22 194.770   2
  -4  -4   4 2548.15 173.401   1
  -4  -4   3 1746.66 163.493   2
  -4  -4   3 1843.38 149.759   1
  -4  -4   2-63.7120 84.3892   2
  -4  -4   2 83.8020 47.5977   1
  -4  -4   1 18062.7 539.372   2
  -4  -4   1 17764.4 504.910   1
  -4  -4   0 3174.98 230.260   2
   4   4   0 3196.70 233.263   3
  -4  -4   0 3758.45 222.850   1
   4   4   1 16203.6 411.829   2
  -4  -4  -1 14863.2 499.679   2
   4   4   1 15295.2 517.966   3
  -4  -4  -1 15176.2 480.614   1
   4   4   2 18901.6 470.491   2
   4   4   2 17741.6 557.300   3
  -4  -4  -2 17945.7 537.042   1
  -4  -4  -3 5639.36 225.162   4
   4   4   3 6053.98 271.762   2
   4   4   3 6216.01 296.580   1
   4   4   3 6139.40 308.463   3
  -4  -4  -3 5857.89 300.025   1
   4   4   4 32923.7 751.328   2
  -4  -4  -4 32751.7 579.897   4
   4   4   4 33066.7 771.454   1
   4   4   4 33806.1 781.178   3
  -4  -4  -4 33705.2 811.556   1
  -4  -4  -5 19275.5 605.256   1
  -4  -4  -5 19591.2 374.588   4
   4   4   5 18791.0 563.275   3
  -4  -4  -6 5219.17 310.437   1
   4   4   6 5040.91 152.676   5
  -4  -4  -6 5127.00 145.616   4
   4   4   6 5264.59 283.331   3
  -4  -4  -7 1497.84 173.847   1
   4   4   7 1393.07 150.507   3
   4   4   8 427.260 91.2508   3
  -4  -4  -8 611.810 124.815   1
   4   4   9 9.24974 49.5762   3
  -4  -4  -9 105.279 66.2513   1
  -4  -4 -10 3168.38 277.488   1
   4   4  10 3564.30 247.371   3
  -4  -4 -11 4176.16 322.961   1
   4   4  11 4195.98 271.402   3
   4   4  12 803.079 129.522   3
  -4  -4 -12 1139.03 182.427   1
   4   4  13 201.721 90.5992   3
   4   4  13 142.678 111.632   2
   4   4  14-166.683 142.008   2
   4   4  15-185.542 151.330   2
  -4  -5   8-208.697 104.878   2
  -4  -5   7-157.920 110.742   2
  -4  -5   6 86.3913 80.8025   2
  -4  -5   5-13.8253 84.6897   2
  -4  -5   4 1075.99 112.032   1
  -4  -5   4 804.348 127.637   2
  -4  -5   3-2.23743 37.4909   1
  -4  -5   3 106.740 71.7195   2
  -4  -5   2 6074.91 331.191   2
  -4  -5   2 6116.62 287.971   1
  -4  -5   1 40468.9 931.773   2
   4   5  -1 38554.7 956.124   3
  -4  -5   1 40544.4 854.753   1
  -4  -5   0 2039.53 210.319   2
   4   5   0 1868.79 192.199   3
  -4  -5   0 2016.62 172.668   1
   4   5   1 279.813 87.0500   3
  -4  -5  -1 242.602 66.3702   1
  -4  -5  -1 129.137 101.506   2
  -4  -5  -2 4716.73 277.523   1
  -4  -5  -2 4746.64 243.415   4
   4   5   2 4345.51 251.458   1
   4   5   2 4301.42 278.373   3
   4   5   3 867.752 126.680   3
  -4  -5  -3 897.876 124.985   1
  -4  -5  -4 3429.08 249.799   1
  -4  -5  -4 3212.57 173.266   4
   4   5   4 3415.96 245.361   3
   4   5   5 1347.39 158.787   3
  -4  -5  -5 1342.06 165.933   1
  -4  -5  -5 1274.06 102.787   4
   4   5   6 260.920 81.6802   3
  -4  -5  -6 158.908 70.3877   1
  -4  -5  -6 200.674 44.6801   4
   4   5   7 1332.19 90.1770   5
  -4  -5  -7 1267.97 89.6022   4
  -4  -5  -7 1159.93 164.342   1
   4   5   7 1293.76 159.097   3
   4   5   8 15730.2 407.232   5
  -4  -5  -8 16092.8 617.376   1
   4   5   8 16423.1 571.387   3
   4   5   9-17.1513 59.6258   3
  -4  -5  -9 104.790 65.7421   1
  -4  -5 -10 2714.29 263.864   1
   4   5  10 2316.00 219.796   3
   4   5  11-68.4666 79.0912   3
  -4  -5 -11-51.0120 64.7547   1
  -4  -5 -12 82.5316 96.7712   1
   4   5  12 55.5982 70.9308   3
   4   5  13 162.806 81.9495   3
   4   5  14-6.33248 59.9539   3
  -4  -6   6 8.89338 86.3750   2
  -4  -6   5 806.858 150.170   2
  -4  -6   4 520.291 130.886   2
  -4  -6   3 844.881 106.727   1
  -4  -6   3 705.974 144.178   2
  -4  -6   2-39.6641 51.8316   1
  -4  -6   2 31.6047 92.6198   2
  -4  -6   1 755.928 112.416   1
  -4  -6   1 971.322 170.407   2
   4   6  -1 753.495 133.369   3
  -4  -6   0 7917.28 358.135   1
  -4  -6   0 9011.21 444.525   2
   4   6   0 7804.79 411.633   3
   4   6   1-72.0116 68.3963   3
  -4  -6  -1-2.00437 57.6112   1
  -4  -6  -1-23.1829 115.247   2
  -4  -6  -2 3249.82 242.634   1
   4   6   2 3487.14 266.639   3
  -4  -6  -3 1440.83 166.253   1
  -4  -6  -3 1704.67 150.447   4
   4   6   3 1710.43 187.232   3
  -4  -6  -4 5891.22 342.043   1
  -4  -6  -4 6019.02 272.860   4
   4   6   4 6001.75 350.854   3
  -4  -6  -5 12948.6 532.934   1
   4   6   5 13492.5 529.539   3
  -4  -6  -6 7279.84 403.694   1
  -4  -6  -6 7364.21 287.069   4
   4   6   6 7446.15 391.676   3
   4   6   7-45.8539 58.5621   3
  -4  -6  -7 54.0578 37.1004   4
  -4  -6  -7 38.1011 64.1350   1
  -4  -6  -8 10400.8 513.848   1
  -4  -6  -8 10406.7 325.191   4
   4   6   8 10236.4 481.962   3
   4   6   9 2130.77 154.861   5
  -4  -6  -9 2224.26 242.108   1
   4   6   9 2298.23 231.327   3
   4   6  10 412.121 107.726   3
  -4  -6 -10 444.980 128.632   1
   4   6  11-1.74547 71.8462   3
  -4  -6 -11 88.5966 102.873   1
   4   6  12 194.566 94.9813   3
   4   6  13 116.216 98.4984   3
   4   6  14 876.810 160.055   3
  -4  -7   5 26.6905 97.4158   2
  -4  -7   4 872.727 174.592   2
  -4  -7   3 698.553 166.384   2
  -4  -7   2 1055.67 185.971   2
  -4  -7   1 3335.25 232.000   1
  -4  -7   1 3314.40 297.640   2
   4   7  -1 2708.08 262.653   3
  -4  -7   0 3038.72 230.644   1
  -4  -7   0 2748.39 272.365   2
   4   7   0 2583.80 255.549   3
   4   7   1 176.134 101.226   3
  -4  -7  -1 194.616 105.935   2
  -4  -7  -1 131.268 70.8564   1
  -4  -7  -2 32288.4 854.144   1
   4   7   2 32245.8 921.566   3
   4   7   3 1225.59 176.865   3
  -4  -7  -3 1163.02 88.4903   5
  -4  -7  -3 1266.64 167.955   1
  -4  -7  -4 2509.96 243.353   1
   4   7   4 2650.22 249.087   3
   4   7   5 1571.53 196.037   3
  -4  -7  -5 1514.97 195.386   1
  -4  -7  -5 1576.70 153.513   4
   4   7   6 30.7630 85.9571   3
  -4  -7  -6-74.6318 87.4216   1
  -4  -7  -6-6.05404 45.4562   4
  -4  -7  -7 5607.21 376.581   1
   4   7   7 6223.96 391.242   3
   4   7   8 391.810 105.816   3
  -4  -7  -8 613.503 140.147   1
   4   7   9 523.120 132.018   3
  -4  -7  -9 412.719 126.384   1
  -4  -7 -10 155.336 97.5812   1
   4   7  10 61.2534 81.8017   3
   4   7  11 400.526 124.348   3
   4   7  12 1206.53 193.728   3
   4   7  13-29.0035 88.7493   3
   4   7  14 128.068 90.5479   3
   4   7  15 51.8907 92.3907   3
  -4  -8   3 2952.25 318.184   2
  -4  -8   2 4782.98 395.653   2
  -4  -8   1 288.573 142.592   2
   4   8  -1 152.192 91.6836   3
  -4  -8   0 3209.12 246.316   1
   4   8   0 2853.62 284.750   3
  -4  -8   0 2944.25 306.564   2
   4   8   1 415.192 124.404   3
  -4  -8  -1 806.936 131.388   1
  -4  -8  -1 723.566 153.009   2
   4   8   2-38.4162 75.5729   3
  -4  -8  -2 61.6920 63.8534   1
   4   8   3 34.9659 74.7990   3
  -4  -8  -3-61.7155 72.1317   1
  -4  -8  -4 5083.15 346.366   1
   4   8   4 4960.85 362.191   3
   4   8   5 528.367 131.842   3
  -4  -8  -5 850.694 165.562   1
  -4  -8  -6 5029.62 366.047   1
   4   8   6 5444.96 387.389   3
  -4  -8  -7 3010.69 293.953   1
   4   8   7 3113.97 297.194   3
   4   8   8 1341.96 201.872   3
  -4  -8  -8 1351.52 206.958   1
   4   8   9 1009.68 189.506   3
   4   8  10 195.430 114.277   3
   4   8  11 55.4507 86.0150   3
   4   8  12 751.151 172.539   3
   4   8  13 107.378 96.7806   3
   4   8  14 139.628 113.975   3
   4   8  15 212.109 131.791   3
  -4  -9   1 840.114 197.096   2
   4   9  -1 870.302 168.546   3
  -4  -9   0-264.541 154.997   2
   4   9   0 74.2298 77.1029   3
   4   9   1 1392.28 211.367   3
  -4  -9  -1 911.021 195.852   2
   4   9   2 300.464 108.977   3
   4   9   3 1584.97 222.406   3
   4   9   4 187.795 101.614   3
   4   9   5 2265.17 264.496   3
   4   9   6 4022.81 350.384   3
   4   9   7 503.265 144.669   3
   4   9   8 168.444 89.1341   3
   4   9   9 984.203 192.973   3
   4   9  10-0.40275 95.4574   3
   4   9  11 136.785 110.120   3
   4   9  12 38.6912 100.125   3
   4   9  13-14.5876 88.2821   3
   4  10  -1-34.9362 108.421   3
   4  10   0-0.81409 107.634   3
   4  10   1 433.720 144.507   3
   4  10   2 178.751 118.162   3
   4  10   3 240.110 134.399   3
   4  10   4 1024.68 198.662   3
   4  10   5 185.258 100.742   3
   4  10   6 74.7534 108.766   3
   4  10   7 1285.93 219.398   3
   4  10   8-8.12455 91.4397   3
   4  10   9 423.304 160.445   3
   4  10  10 106.004 98.3822   3
  -5   9   5 235.279 132.422   4
  -5   9   4-129.918 99.3644   4
   5  -9  -3-239.737 162.777   5
  -5   9   3 125.581 102.424   4
   5  -9  -2-14.8006 133.826   5
  -5   9   2 92.4215 105.983   4
  -5   9   1 171.588 109.798   4
   5  -9  -1 309.502 169.625   5
   5  -9   0 331.414 187.119   5
  -5   9   0 90.8314 88.9064   4
   5  -9   1 298.966 175.760   5
  -5   9  -1 22.7745 77.0499   4
  -5   8   8-32.5749 97.1982   4
  -5   8   7 21.9927 103.010   4
  -5   8   6-33.1799 101.626   4
  -5   8   5 655.343 168.933   4
  -5   8   4-113.244 110.270   4
   5  -8  -3 517.640 168.825   5
  -5   8   3 765.864 159.230   4
   5  -8  -2-63.3971 150.338   5
  -5   8   2-13.9244 70.6893   4
   5  -8  -1 75.5865 116.375   5
  -5   8   1 55.0861 73.5018   4
  -5   8   0 908.500 177.645   4
   5  -8   0 1358.62 239.714   5
   5  -8   1 695.527 184.772   5
  -5   8  -1 659.724 149.290   4
  -5   8  -2 317.901 113.699   4
  -5   8  -3 83.2667 86.7766   4
  -5   8  -4 132.497 80.9937   4
  -5   7   9 647.565 179.998   4
  -5   7   8 188.601 124.546   4
  -5   7   7 297.624 114.480   4
  -5   7   6 13.8871 99.7776   4
  -5   7   5 1142.75 199.564   4
  -5   7   4 719.466 163.538   4
   5  -7  -3-41.1502 120.558   5
  -5   7   3 191.968 99.0685   4
   5  -7  -2 143.534 144.929   5
  -5   7   2 188.740 88.1519   4
   5  -7  -1 4637.06 384.194   5
  -5   7   1 4756.83 358.204   4
   5  -7   0 577.037 172.197   5
  -5   7   0 314.153 102.288   4
   5  -7   1 340.446 145.634   5
  -5   7  -1 293.828 107.038   4
   5  -7   1 179.011 74.4653   2
  -5   7  -2 517.065 130.319   4
   5  -7   2 458.303 93.5348   2
  -5   7  -3 137.379 91.6070   4
   5  -7   3 8.40995 49.7118   2
  -5   7  -4-128.275 102.892   4
   5  -7   4 5.74129 51.0097   2
  -5   7  -5-89.2397 99.3099   4
   5  -7   5 30.2665 57.3362   2
   5  -7   6 362.585 87.5566   2
   5  -7   7 71.0665 58.0807   2
   5  -7   8 381.487 99.6840   2
  -5   6  10-26.8794 111.940   4
  -5   6   9 442.596 159.068   4
  -5   6   8 2157.86 302.283   4
  -5   6   7 2164.25 285.404   4
  -5   6   6 239.506 121.955   4
  -5   6   5 1155.55 197.179   4
  -5   6   4 67.0956 92.5264   4
   5  -6  -3 468.611 141.963   5
  -5   6   3 459.771 122.159   4
   5  -6  -2 720.214 168.848   5
  -5   6   2 404.620 120.900   4
   5  -6  -1 1031.23 189.640   5
  -5   6   1 802.696 156.246   4
  -5   6   0 467.732 115.967   4
   5  -6   0 810.824 171.449   5
   5  -6   1 284.816 141.284   5
  -5   6  -1 106.438 82.3902   4
   5  -6   1 162.857 60.2342   2
  -5   6  -2 692.752 133.318   4
   5  -6   2 827.862 93.3051   2
  -5   6  -3 3746.03 291.698   4
   5  -6   3 3278.36 181.401   2
  -5   6  -4 1911.10 214.389   4
   5  -6   4 1552.50 133.454   2
  -5   6  -5 353.992 109.931   4
   5  -6   5 513.381 90.2623   2
   5  -6   6 49.4577 50.4203   2
   5  -6   7 23.9796 52.3143   2
   5  -6   8-2.76542 60.0082   2
   5  -6   9 302.897 95.4142   2
  -5   5  10-94.1491 144.360   4
  -5   5   9 21.8474 114.376   4
  -5   5   8 4316.45 421.089   4
  -5   5   7 70.9655 118.985   4
  -5   5   6 9216.90 562.915   4
  -5   5   5 3996.69 353.043   4
  -5   5   4 238.380 105.777   4
  -5   5   3 1010.41 168.203   4
  -5   5   2 89.4182 67.4228   4
   5  -5  -2-3.01464 100.803   5
   5  -5  -1 1557.44 215.414   5
  -5   5   1 1478.92 183.046   4
   5  -5   0 6404.96 389.793   5
  -5   5   0 6226.30 360.713   4
  -5   5  -1 480.100 110.562   4
   5  -5   1 405.656 60.0592   2
  -5   5  -2 5478.42 329.626   4
   5  -5   2 5554.21 197.009   2
  -5   5  -3 1610.86 180.847   4
   5  -5   3 1521.62 109.380   2
  -5   5  -4 2162.15 211.520   4
   5  -5   4 1803.68 130.869   2
  -5   5  -5-63.2605 61.2235   4
   5  -5   5-41.0220 49.1552   2
   5  -5   6 210.532 54.3405   2
  -5   5  -6 288.626 90.0274   4
  -5   5  -6 219.370 68.0127   1
   5  -5   7 326.534 79.2141   2
   5  -5   8 103.056 59.6596   2
   5  -5   9 127.569 62.3700   2
   5  -5  10 152.622 73.2746   2
  -5   4  10 72.2319 121.353   4
  -5   4   9 572.599 183.397   4
  -5   4   8 3215.69 365.752   4
  -5   4   7 13.3875 97.9835   4
  -5   4   6 2696.72 308.311   4
  -5   4   5 2147.33 264.028   4
  -5   4   4 239.933 102.370   4
  -5   4   3 45.7249 64.5055   4
   5  -4  -2 3302.19 277.784   5
  -5   4   2 3610.97 290.779   4
   5  -4  -1-22.6761 93.2693   5
  -5   4   1 194.687 88.8775   4
  -5   4   0 162.892 69.9793   4
   5  -4   0 385.731 117.400   5
   5  -4   1 1576.00 196.889   5
   5  -4   1 1221.63 71.3404   2
  -5   4  -1 1144.79 147.323   4
  -5   4  -2 70.4674 60.8093   4
   5  -4   2 136.297 33.5107   2
  -5   4  -3 198.374 69.5097   4
   5  -4   3 165.811 37.7407   2
   5  -4   4 445.408 60.7688   2
  -5   4  -4 419.107 86.7359   4
  -5   4  -5 2346.56 203.043   4
   5  -4   5 2679.17 165.383   2
  -5   4  -5 2679.94 145.132   3
  -5   4  -6 3620.28 263.033   4
   5  -4   6 3818.37 220.506   2
  -5   4  -6 4475.09 256.474   1
   5  -4   7 462.426 94.1393   2
  -5   4  -7 454.511 89.0832   1
   5  -4   8 929.937 129.901   2
   5  -4   9 135.149 82.2715   2
   5  -4  10 88.6755 80.9035   2
   5  -4  11 223.679 98.0553   2
  -5   3  11 601.876 203.287   4
  -5   3  10 842.785 233.535   4
  -5   3   9 462.113 174.634   4
  -5   3   8 795.209 204.796   4
  -5   3   7 425.737 53.3905   2
  -5   3   7 579.683 171.248   4
  -5   3   6 652.151 54.2072   2
  -5   3   6 692.423 190.158   4
  -5   3   5 751.287 42.1412   2
  -5   3   5 1145.72 202.503   4
  -5   3   4 4684.49 365.345   4
  -5   3   3 2258.49 241.520   4
  -5   3   2 730.145 128.843   4
   5  -3  -1 7222.28 375.730   5
  -5   3   1 7435.16 388.344   4
   5  -3   0 642.139 134.287   5
  -5   3   0 501.346 105.420   4
   5  -3   1 3356.31 87.7977   2
  -5   3  -1 2975.16 225.259   4
   5  -3   2 298.264 35.2857   2
  -5   3  -2 378.192 83.7802   4
   5  -3   2 346.747 96.3315   4
   5  -3   3 704.582 69.6748   2
  -5   3  -3 767.003 110.872   4
   5  -3   3 732.439 126.410   4
   5  -3   4 256.520 59.4638   2
  -5   3  -4 255.136 72.8946   4
   5  -3   4 259.954 88.0742   4
   5  -3   5 130.040 46.1580   2
  -5   3  -5 127.540 56.2413   4
  -5   3  -5 130.318 41.5513   3
  -5   3  -6 429.373 46.1157   3
   5  -3   6 376.053 74.9120   2
  -5   3  -6 349.077 83.8699   4
  -5   3  -6 372.649 79.8098   1
   5  -3   7 4125.97 246.901   2
  -5   3  -7 4534.74 257.544   1
   5  -3   8 1083.15 140.003   2
  -5   3  -8 1120.24 130.033   1
   5  -3   9 2.00940 62.3546   2
  -5   3  -9-67.3761 45.9589   1
   5  -3  10 46.8510 67.5402   2
   5  -3  11 30.6308 65.6752   2
   5  -3  12 136.247 85.8047   2
  -5   2  10 1236.52 266.008   4
  -5   2   9 203.903 135.645   4
  -5   2   8 139.636 116.347   4
  -5   2   8 30.0460 38.3229   2
  -5   2   7-93.6779 113.482   4
  -5   2   7 68.2707 36.1743   2
  -5   2   6 20.3562 85.2304   4
  -5   2   6-11.0112 26.8236   2
  -5   2   5-0.74865 95.2981   4
  -5   2   5 81.0278 30.1553   2
  -5   2   4 138.417 84.5031   4
  -5   2   4 163.381 24.5548   2
  -5   2   3 61.7646 79.5691   4
  -5   2   2 1298.57 179.002   4
  -5   2   1 7476.19 395.102   4
   5  -2   0-54.5278 84.2359   5
  -5   2   0 5.46345 53.0943   4
   5  -2   0-0.75016 50.3763   4
   5  -2   1 1812.07 180.492   5
   5  -2   1 1579.60 61.4104   2
  -5   2  -1 1870.68 172.517   4
   5  -2   1 1642.29 50.3144   2
   5  -2   1 1686.73 184.787   4
   5  -2   2 86.3281 24.2602   2
  -5   2  -2 58.1780 46.5048   4
   5  -2   2 33.9489 44.4808   4
  -5   2  -3 5551.31 266.498   4
   5  -2   3 5524.99 310.957   4
   5  -2   3 5033.34 191.725   2
   5  -2   4 619.940 75.3519   2
  -5   2  -4 748.719 96.4181   4
   5  -2   4 973.993 128.067   4
  -5   2  -4 892.436 95.5714   3
  -5   2  -5 111.412 42.0096   3
   5  -2   5-0.79387 50.3619   2
  -5   2  -5 76.4766 40.2505   4
  -5   2  -5 85.2963 60.2370   1
   5  -2   5 61.9202 44.1937   4
  -5   2  -6 286.725 46.9168   3
   5  -2   6 196.016 62.8229   2
  -5   2  -6 187.809 55.3276   4
  -5   2  -6 315.797 77.6602   1
   5  -2   6 295.463 77.6604   4
   5  -2   7 494.065 89.1682   2
   5  -2   7 494.582 88.6947   4
  -5   2  -7 720.287 107.554   1
  -5   2  -7 527.352 42.2194   3
   5  -2   8 1274.02 153.022   2
   5  -2   8 1529.86 156.960   4
  -5   2  -8 1636.66 158.386   1
  -5   2  -9-8.42115 44.5513   1
   5  -2   9 25.2296 60.9916   2
  -5   2 -10 1422.69 149.778   1
   5  -2  10 1218.91 173.590   2
   5  -2  11 599.342 139.985   2
   5  -2  12 177.695 105.364   2
   5  -2  13 80.4701 96.2327   2
  -5   1  10-51.6134 108.335   4
  -5   1   9 364.322 161.587   4
  -5   1   9 425.669 82.1772   2
  -5   1   8 618.880 178.049   4
  -5   1   8 845.015 101.867   2
  -5   1   7 1355.66 111.138   2
  -5   1   7 1426.32 249.862   4
  -5   1   6 372.776 136.355   4
  -5   1   6 582.829 70.5641   2
  -5   1   5 4214.02 164.361   2
  -5   1   5 4024.02 363.732   4
  -5   1   4 5231.33 169.929   2
  -5   1   4 5180.29 387.507   4
  -5   1   3 729.019 64.9815   2
  -5   1   3 600.240 132.893   4
   5  -1  -2 195.033 28.0478   2
  -5   1   2 222.066 89.6220   4
  -5   1   1 3339.65 258.912   4
   5  -1  -1 2910.13 80.3873   2
   5  -1   0 35.4761 9.52827   2
  -5   1   0 32.2670 43.9426   4
   5  -1   1 2703.83 191.779   5
   5  -1   1 3048.68 100.229   2
  -5   1  -1 2939.45 212.512   4
   5  -1   2 1487.23 145.942   5
  -5   1  -2 1330.85 132.275   4
   5  -1   2 1422.86 150.141   4
   5  -1   2 1217.51 85.8543   2
  -5   1  -3 10197.4 344.212   4
   5  -1   3 10604.5 402.956   4
   5  -1   3 10474.9 307.921   2
  -5   1  -4 2397.86 150.694   4
   5  -1   4 2470.78 182.871   4
   5  -1   4 2608.38 164.332   2
  -5   1  -4 2401.01 156.088   3
  -5   1  -5 1347.51 110.461   4
   5  -1   5 1461.14 140.175   4
   5  -1   5 1387.51 132.318   2
  -5   1  -5 1535.94 149.070   1
  -5   1  -5 1389.54 111.205   3
  -5   1  -6 2655.87 155.406   4
   5  -1   6 2893.72 189.665   4
   5  -1   6 2734.42 202.469   2
  -5   1  -6 2932.79 207.310   1
  -5   1  -6 2657.51 144.796   3
   5  -1   7 2149.58 162.330   4
   5  -1   7 2085.28 185.591   2
  -5   1  -7 2101.65 182.905   1
  -5   1  -7 2123.77 116.773   3
  -5   1  -8 780.563 111.726   1
   5  -1   8 643.581 113.101   2
   5  -1   8 589.539 88.0566   4
   5  -1   9 1693.25 148.409   4
   5  -1   9 1822.00 200.737   2
  -5   1  -9 1732.66 173.089   1
  -5   1 -10 1216.88 148.207   1
   5  -1  10 1702.32 201.329   2
   5  -1  11-113.640 109.361   2
  -5   1 -11 116.118 59.9510   1
   5  -1  12 344.907 110.487   2
   5  -1  13 549.949 141.501   2
  -5   0  10 175.088 121.569   4
  -5   0  10 360.429 84.9161   2
  -5   0   9 138.732 119.876   4
  -5   0   9 80.2975 59.5547   2
  -5   0   8 1703.71 146.987   2
  -5   0   7 2746.08 175.202   2
  -5   0   6 500.686 73.0588   2
  -5   0   5 992.202 92.8435   2
  -5   0   4 2194.62 123.823   2
   5   0  -4 2153.16 150.083   2
  -5   0   3 1492.90 104.003   2
   5   0  -3 1328.34 104.703   2
  -5   0   3 1419.87 159.471   5
  -5   0   3 1237.68 188.472   4
  -5   0   2 1819.82 120.356   2
  -5   0   2 1705.19 166.471   5
  -5   0   2 1548.15 197.482   4
   5   0  -2 1665.50 101.888   2
  -5   0   1 5490.28 264.409   5
  -5   0   1 5096.48 325.761   4
   5   0  -1 5225.95 157.612   2
   5   0   0 13396.8 252.328   2
  -5   0   0 12520.4 484.916   4
   5   0   1 2477.48 164.833   5
   5   0   1 2502.05 108.030   2
  -5   0  -1 2683.13 200.331   4
  -5   0  -1 2884.14 201.847   3
   5   0   2 580.988 87.9821   5
   5   0   2 458.789 59.7410   2
  -5   0  -2 498.697 85.8893   4
  -5   0  -2 394.971 74.3515   3
  -5   0  -3 942.071 97.6620   4
  -5   0  -4 2324.29 136.377   4
  -5   0  -4 2471.98 189.774   1
  -5   0  -5 240.356 55.2546   3
  -5   0  -5 210.031 40.9972   4
  -5   0  -5 130.034 67.0114   1
   5   0   5 117.316 43.5472   4
  -5   0  -6 7264.38 215.394   4
   5   0   6 6758.00 249.979   4
   5   0   6 6770.45 333.085   2
  -5   0  -6 7182.58 337.663   1
  -5   0  -6 6876.80 259.617   3
   5   0   7 1007.44 91.7128   4
   5   0   7 1000.36 141.668   2
  -5   0  -7 1063.47 141.421   1
  -5   0  -7 1028.61 98.8837   3
  -5   0  -8 1099.85 146.494   1
   5   0   8 1130.33 99.9701   4
   5   0   8 1108.62 157.246   2
   5   0   9 4344.00 196.997   4
   5   0   9 4239.14 315.190   2
  -5   0  -9 4286.83 278.795   1
  -5   0 -10 1363.78 169.582   1
   5   0  10 1486.48 203.957   2
  -5   0 -11 2590.85 225.540   1
   5   0  11 2503.27 269.486   2
  -5   0 -12 756.091 129.694   1
   5   0  12 681.820 159.038   2
   5   0  13 250.751 130.829   2
   5   0  14 201.423 100.735   2
  -5  -1  10 51.8731 68.6052   2
  -5  -1   9 17.8807 51.7380   2
  -5  -1   8 206.404 78.6015   2
  -5  -1   7 434.057 86.1031   2
  -5  -1   6 45.7521 44.9008   2
  -5  -1   5 270.358 68.0020   2
   5   1  -4 485.973 84.7526   2
  -5  -1   4 200.991 45.0698   2
  -5  -1   3 5860.25 234.978   2
  -5  -1   2 13644.0 454.134   5
  -5  -1   2 13176.2 372.080   2
   5   1  -2 12897.7 336.908   2
   5   1  -1 46.0424 23.7824   2
  -5  -1   1 117.020 55.6213   5
  -5  -1   1 126.921 58.6590   2
  -5  -1   0 2019.98 145.138   5
   5   1   0 1834.33 97.7792   2
   5   1   1 12145.8 287.666   2
  -5  -1  -1 12099.4 448.889   4
  -5  -1  -2 224.567 65.9025   3
  -5  -1  -2 160.978 55.4430   4
   5   1   2 151.221 54.3144   2
  -5  -1  -3 236.412 59.3687   3
   5   1   3 259.780 57.0138   5
  -5  -1  -3 175.140 47.0417   4
  -5  -1  -4 3493.05 160.612   4
  -5  -1  -5 4865.86 151.178   4
  -5  -1  -5 4829.49 277.069   1
  -5  -1  -6 7600.93 356.400   1
  -5  -1  -7 320.761 86.4231   1
  -5  -1  -7 314.076 62.6952   3
   5   1   7 284.913 62.9304   3
   5   1   8 5977.99 256.001   3
  -5  -1  -8 6755.54 355.992   1
  -5  -1  -9 6597.18 361.042   1
   5   1   9 6695.23 403.947   2
   5   1   9 6363.36 256.858   3
   5   1  10 935.186 172.402   2
  -5  -1 -10 923.589 137.899   1
  -5  -1 -11 66.4185 59.5925   1
   5   1  11-4.25318 96.3318   2
   5   1  12 313.098 129.759   2
  -5  -1 -12 221.503 81.0074   1
  -5  -1 -13 97.8462 70.1097   1
   5   1  13 118.290 109.710   2
   5   1  14 518.621 149.587   2
  -5  -2  10-68.1074 72.2216   2
  -5  -2   9 935.205 138.657   2
  -5  -2   8 804.079 121.088   2
  -5  -2   7 584.691 100.966   2
  -5  -2   6 642.198 103.051   2
  -5  -2   5 282.581 64.6760   2
  -5  -2   4 352.497 70.8384   2
  -5  -2   3 2424.24 166.650   2
   5   2  -3 2498.70 171.455   2
   5   2  -2 184.553 51.5406   2
  -5  -2   2 113.201 77.8664   2
  -5  -2   1 1662.08 139.524   5
  -5  -2   1 1893.40 159.131   2
  -5  -2   1 1575.30 154.340   1
  -5  -2   0 6952.34 252.576   5
  -5  -2   0 6608.21 285.247   2
  -5  -2   0 6901.72 319.333   1
   5   2   1 7493.50 236.697   2
  -5  -2  -1 6798.46 317.172   1
   5   2   2 63565.0 999.078   2
  -5  -2  -2 62927.6 1170.36   1
  -5  -2  -2 64419.8 1161.69   3
  -5  -2  -3 8510.53 319.800   4
  -5  -2  -3 9749.80 367.174   3
   5   2   4 20935.5 384.003   5
  -5  -2  -4 20322.5 449.634   4
   5   2   4 20568.8 570.572   3
  -5  -2  -4 22030.1 574.144   3
  -5  -2  -5 421.131 77.9766   3
  -5  -2  -5 362.666 36.8972   4
  -5  -2  -5 363.497 90.8329   1
   5   2   5 325.004 76.1753   3
  -5  -2  -6 649.948 114.705   1
  -5  -2  -6 520.955 88.6121   3
   5   2   6 339.506 74.4398   3
   5   2   7 2638.93 186.590   3
  -5  -2  -7 2679.72 222.606   1
  -5  -2  -7 2577.71 183.614   3
   5   2   8 3779.31 220.037   3
  -5  -2  -8 3612.47 266.329   1
  -5  -2  -9 2542.41 230.103   1
   5   2   9 2345.22 172.894   3
  -5  -2 -10 2469.95 234.436   1
   5   2  10 2201.84 168.019   3
   5   2  11 66.9467 48.4075   3
  -5  -2 -11 35.8484 62.6366   1
   5   2  11 4.89496 99.6569   2
  -5  -2 -12 376.908 108.861   1
   5   2  12 235.652 101.117   2
  -5  -2 -13 139.321 78.0782   1
   5   2  13 325.571 149.069   2
   5   2  14 23.8389 113.144   2
  -5  -3   9 221.606 93.0245   2
  -5  -3   8 137.759 87.0818   2
  -5  -3   7 1049.21 140.025   2
  -5  -3   6 517.888 93.1635   1
  -5  -3   6 329.211 82.9642   2
  -5  -3   5 93.5367 57.3543   1
  -5  -3   5 17.8737 59.0705   2
  -5  -3   4 646.235 102.226   1
  -5  -3   4 515.349 89.9726   2
  -5  -3   3 5074.00 268.481   2
  -5  -3   3 4952.70 271.622   1
  -5  -3   2 148.401 59.2700   1
  -5  -3   2 294.230 102.518   2
  -5  -3   1 10.1567 43.4985   1
  -5  -3   1 183.890 96.4498   2
  -5  -3   0 10536.5 315.210   5
  -5  -3   0 10494.9 400.118   2
   5   3   0 10588.0 319.411   2
  -5  -3   0 10254.7 400.741   1
  -5  -3  -1 4101.22 150.687   5
   5   3   1 4344.82 193.548   2
  -5  -3  -1 3880.43 249.167   1
   5   3   2 1517.67 121.117   2
  -5  -3  -2 1357.89 150.005   1
   5   3   2 1390.73 154.667   3
   5   3   3 7510.28 306.851   2
  -5  -3  -3 7580.86 358.402   1
   5   3   3 6805.34 338.558   3
   5   3   4 7161.23 338.189   3
  -5  -3  -4 6639.11 341.820   1
   5   3   4 6796.48 309.683   2
  -5  -3  -5 1060.15 141.480   1
  -5  -3  -5 1221.91 67.6447   4
  -5  -3  -5 1215.56 82.8077   4
   5   3   5 1147.42 138.886   3
   5   3   6 12087.6 440.886   3
  -5  -3  -6 12754.7 500.618   1
   5   3   7 35.8511 56.1293   3
  -5  -3  -7 39.6926 56.8180   1
   5   3   8 517.634 99.8178   3
  -5  -3  -8 419.335 108.194   1
  -5  -3  -9 3112.48 266.739   1
   5   3   9 3082.98 215.299   3
   5   3  10-43.1169 50.4717   3
  -5  -3 -10-3.05673 67.1297   1
   5   3  11 1069.58 129.805   3
  -5  -3 -11 955.349 157.411   1
   5   3  12 709.106 111.839   3
   5   3  12 688.103 167.561   2
  -5  -3 -12 660.873 143.865   1
  -5  -3 -13 36.9460 71.1198   1
   5   3  13 7.88574 117.454   2
   5   3  14-116.294 143.113   2
  -5  -4   8 50.6753 82.4393   2
  -5  -4   7-93.2952 91.5701   2
  -5  -4   6 1174.63 157.555   2
  -5  -4   5 24.9061 72.9038   2
  -5  -4   5 173.759 65.6406   1
  -5  -4   4 195.142 87.4759   2
  -5  -4   4 80.2165 56.9451   1
  -5  -4   3 2464.06 212.750   2
  -5  -4   3 2304.02 188.707   1
  -5  -4   2 1236.80 161.495   2
  -5  -4   2 1352.74 150.160   1
  -5  -4   1 745.669 141.506   2
  -5  -4   1 500.320 96.3714   1
  -5  -4   0 2494.08 222.737   2
  -5  -4   0 2637.57 206.806   1
  -5  -4  -1 4374.48 153.804   5
   5   4   1 4505.67 294.173   3
  -5  -4  -1 4385.49 274.586   1
   5   4   2 2540.21 221.107   3
  -5  -4  -2 2431.06 203.823   1
   5   4   3 2686.72 226.327   3
  -5  -4  -3 2672.62 220.150   1
  -5  -4  -4 9457.56 289.157   4
   5   4   4 9446.37 420.563   3
  -5  -4  -4 9907.08 431.089   1
  -5  -4  -5 6231.70 195.786   4
   5   4   5 6601.71 341.369   3
  -5  -4  -5 6110.36 347.999   1
  -5  -4  -6 2644.17 93.7544   4
   5   4   6 2700.42 215.921   3
  -5  -4  -6 2616.43 233.986   1
   5   4   7 89.5287 50.1703   3
  -5  -4  -7 166.612 69.8239   1
  -5  -4  -8 2858.12 256.293   1
   5   4   8 2686.80 216.189   3
  -5  -4  -9 4209.71 316.653   1
   5   4   9 4001.06 262.919   3
   5   4  10 1186.14 149.470   3
  -5  -4 -10 1163.06 179.005   1
   5   4  11 779.843 127.079   3
  -5  -4 -11 842.303 160.574   1
   5   4  12-16.7687 60.3766   3
  -5  -4 -12 4.35069 72.5128   1
   5   4  13 18.8752 61.0715   3
  -5  -4 -13-28.4985 71.7678   1
   5   4  14-39.7292 116.532   2
  -5  -5   7-96.3993 108.835   2
  -5  -5   6 131.538 100.255   2
  -5  -5   5 1347.68 185.707   2
  -5  -5   4-34.5727 94.1901   2
  -5  -5   3 78.8276 51.5998   1
  -5  -5   3-0.74020 75.4635   2
  -5  -5   2 1029.66 133.500   1
  -5  -5   2 954.553 161.568   2
  -5  -5   1 361.666 87.7275   1
  -5  -5   1 677.101 140.625   2
   5   5   0 8892.00 450.836   3
  -5  -5   0 9489.41 448.541   2
  -5  -5   0 9657.74 417.294   1
  -5  -5  -1 2007.36 207.928   2
   5   5   1 2516.49 233.259   3
  -5  -5  -1 2133.27 196.595   1
  -5  -5  -2 309.591 92.1134   1
   5   5   2 334.043 101.381   3
   5   5   3 83.8424 68.7790   3
  -5  -5  -3 111.659 73.1407   1
  -5  -5  -3 7.37913 31.7051   4
   5   5   4 346.460 90.3653   3
  -5  -5  -4 308.661 99.0798   1
  -5  -5  -5 4893.85 324.504   1
  -5  -5  -5 4925.00 206.197   4
   5   5   5 4749.72 306.809   3
  -5  -5  -6 1507.41 99.7657   4
  -5  -5  -6 1067.89 155.882   1
   5   5   6 1453.62 174.793   3
  -5  -5  -7 2176.59 225.542   1
  -5  -5  -7 2035.81 93.0865   4
   5   5   7 2443.25 223.058   3
   5   5   8 363.142 98.9395   3
  -5  -5  -8 228.897 91.3008   1
   5   5   8 276.427 43.2819   5
  -5  -5  -9 7733.71 448.737   1
   5   5   9 8040.81 407.825   3
   5   5  10 1348.14 171.959   3
  -5  -5 -10 1455.49 204.881   1
   5   5  11 6.92027 59.4921   3
  -5  -5 -11 64.3010 68.9192   1
   5   5  12 52.0250 68.3245   3
  -5  -5 -12-10.0682 88.6195   1
   5   5  13 61.3077 83.0678   3
  -5  -5 -13 94.1885 94.9988   1
   5   5  14 217.703 101.957   3
  -5  -6   6 90.9486 115.713   2
  -5  -6   5 192.551 111.673   2
  -5  -6   4 62.2052 120.993   2
  -5  -6   3 119.997 109.052   2
  -5  -6   2 599.310 106.039   1
  -5  -6   2 940.837 185.867   2
  -5  -6   1 1757.79 180.785   1
  -5  -6   1 1918.52 233.230   2
  -5  -6   0 881.957 138.533   1
  -5  -6   0 737.833 152.100   2
   5   6   0 847.759 155.879   3
  -5  -6  -1 3555.27 267.467   1
  -5  -6  -1 3016.22 268.719   2
   5   6   1 2870.05 267.492   3
  -5  -6  -2 1080.01 151.697   1
   5   6   2 1201.18 176.016   3
   5   6   3 1350.70 186.790   3
  -5  -6  -3 1114.41 162.273   1
   5   6   4 706.166 137.303   3
  -5  -6  -4 701.677 96.3478   4
  -5  -6  -4 645.532 135.148   1
   5   6   5 52.1383 82.0111   3
  -5  -6  -5 45.6701 67.5673   1
  -5  -6  -6 6634.53 398.639   1
  -5  -6  -6 6213.68 256.058   4
   5   6   6 6481.09 387.024   3
   5   6   7 31.3073 66.8504   3
  -5  -6  -7 14.5941 72.9180   1
  -5  -6  -7 44.5310 29.2038   4
  -5  -6  -8 3341.03 300.167   1
   5   6   8 3468.64 284.207   3
   5   6   9 1315.54 185.779   3
  -5  -6  -9 1034.03 181.920   1
   5   6  10 956.219 161.874   3
  -5  -6 -10 953.207 173.708   1
   5   6  11 445.519 125.180   3
  -5  -6 -11 471.371 138.509   1
   5   6  12 121.455 90.0109   3
  -5  -6 -12 42.3357 73.0758   1
  -5  -6 -13 860.026 179.812   1
   5   6  13 986.488 169.458   3
   5   6  14-66.8448 91.9575   3
  -5  -7   4 253.296 151.673   2
  -5  -7   3 1141.03 209.865   2
  -5  -7   2 112.655 120.888   2
  -5  -7   1 253.227 87.3064   1
  -5  -7   1 397.212 151.503   2
  -5  -7   0 1010.74 147.434   1
  -5  -7   0 695.726 155.308   2
   5   7   0 836.205 158.555   3
  -5  -7  -1 27.6198 128.405   2
  -5  -7  -1 123.094 73.5539   1
   5   7   1 43.6813 75.4641   3
  -5  -7  -2 1822.25 201.679   1
   5   7   2 1630.10 211.730   3
   5   7   3 775.647 157.270   3
  -5  -7  -3 840.099 144.643   1
  -5  -7  -4 2954.70 268.577   1
   5   7   4 3076.11 284.278   3
  -5  -7  -5 2266.47 242.448   1
   5   7   5 1958.79 229.310   3
  -5  -7  -6 3259.39 294.703   1
   5   7   6 3571.46 302.185   3
   5   7   7 665.256 152.877   3
  -5  -7  -7 443.556 130.948   1
  -5  -7  -8 1366.19 207.670   1
   5   7   8 1049.03 174.639   3
   5   7   9 90.3984 80.7683   3
  -5  -7  -9 146.599 89.7609   1
   5   7  10 157.903 103.470   3
  -5  -7 -10 60.3611 86.6369   1
   5   7  11-5.74342 98.2633   3
  -5  -7 -11 49.5085 82.8611   1
   5   7  12 6.93729 75.6331   3
  -5  -7 -12 72.1191 108.997   1
   5   7  13 1360.08 213.630   3
   5   7  14 257.641 122.344   3
   5   7  15 330.036 132.943   3
  -5  -8   2 52.0759 119.992   2
  -5  -8   1-56.4533 133.387   2
  -5  -8   0 572.458 118.525   1
  -5  -8   0 795.527 193.511   2
   5   8   0 766.413 171.233   3
  -5  -8  -1 99.2517 74.9725   1
  -5  -8  -1-114.350 154.027   2
   5   8   1 48.5684 73.6541   3
   5   8   2 229.814 107.859   3
  -5  -8  -2 77.2500 76.4618   1
   5   8   3 40.2330 75.6429   3
  -5  -8  -3 34.1746 74.1920   1
   5   8   4 164.552 103.872   3
  -5  -8  -4 63.1317 79.7029   1
  -5  -8  -5 2969.14 283.637   1
   5   8   5 2953.91 294.592   3
   5   8   6 51.1626 79.1028   3
  -5  -8  -6 89.8296 89.1604   1
   5   8   7 290.818 118.495   3
  -5  -8  -7 327.097 122.419   1
   5   8   8 294.435 127.495   3
  -5  -8  -8 209.739 99.8638   1
   5   8   9 38.4158 91.2995   3
  -5  -8  -9-55.1971 92.1981   1
  -5  -8 -10 2635.81 300.149   1
   5   8  10 2595.81 287.668   3
   5   8  11 195.120 112.207   3
  -5  -8 -11 116.485 98.7991   1
   5   8  12 139.121 108.190   3
   5   8  13 950.016 194.183   3
   5   8  14 226.884 126.436   3
  -5  -9   0-104.901 154.676   2
   5   9   0 20.1332 90.3377   3
   5   9   1 390.063 136.595   3
  -5  -9  -2 400.736 110.692   1
   5   9   2 302.867 127.113   3
   5   9   3-8.31757 91.0361   3
  -5  -9  -3 10.6657 72.0692   1
   5   9   4 218.138 114.708   3
  -5  -9  -4 101.912 84.7819   1
   5   9   5 97.4586 96.1556   3
  -5  -9  -5 143.951 96.0828   1
   5   9   6 68.0833 90.2572   3
  -5  -9  -6-104.607 82.7142   1
  -5  -9  -7 3158.27 320.770   1
   5   9   7 3530.85 343.022   3
   5   9   8 1254.54 217.538   3
  -5  -9  -8 1047.31 192.728   1
   5   9   9 435.383 149.588   3
  -5  -9  -9 516.973 162.056   1
   5   9  10 635.425 170.583   3
   5   9  11 307.992 135.978   3
   5   9  12 175.308 111.227   3
   5  10   2 25.2085 100.740   3
   5  10   3 1061.00 213.142   3
   5  10   4 235.802 127.080   3
   5  10   5 487.310 159.029   3
   5  10   6 369.467 154.662   3
   5  10   7-18.4168 108.408   3
   5  10   8 32.0173 92.8206   3
  -6   8   5 582.999 173.039   4
  -6   8   4 114.636 98.4660   4
   6  -8  -3 138.731 181.838   5
  -6   8   3 795.958 185.143   4
   6  -8  -2 1092.91 223.214   5
  -6   8   2 982.638 187.283   4
   6  -8  -1 344.772 173.519   5
  -6   8   1 385.310 131.852   4
  -6   8   0 35.6081 74.9621   4
   6  -8   0 40.6100 127.231   5
   6  -8   1 2839.24 351.751   5
  -6   8  -1 3222.89 319.356   4
   6  -8   2 833.641 209.203   5
  -6   8  -2 594.958 149.630   4
  -6   8  -3 87.3444 84.1099   4
  -6   8  -4 564.069 153.055   4
  -6   7   7 321.895 151.516   4
  -6   7   6-53.3906 96.6174   4
  -6   7   5-28.5785 108.451   4
  -6   7   4 859.922 189.228   4
  -6   7   3-95.1218 99.3268   4
   6  -7  -2 192.647 140.605   5
  -6   7   2 537.750 149.391   4
   6  -7  -1 812.851 191.015   5
  -6   7   1 1306.14 202.497   4
   6  -7   0 1041.25 204.978   5
  -6   7   0 745.613 163.058   4
   6  -7   1 444.787 157.452   5
  -6   7  -1 343.104 123.003   4
   6  -7   2 149.578 139.070   5
  -6   7  -2 142.564 85.8241   4
  -6   7  -3 1051.77 182.688   4
  -6   7  -4 116.146 85.2316   4
  -6   7  -5 15.2517 78.8648   4
  -6   6   8 339.692 160.366   4
  -6   6   7 1063.61 232.572   4
  -6   6   6 387.281 145.944   4
  -6   6   5 85.3750 100.389   4
  -6   6   4 394.628 149.413   4
  -6   6   3 430.813 135.401   4
   6  -6  -2 290.106 132.502   5
  -6   6   2 394.607 113.036   4
   6  -6  -1 264.255 137.416   5
  -6   6   1 309.757 115.851   4
   6  -6   0-103.973 113.590   5
  -6   6   0 54.3373 68.1599   4
   6  -6   1 210.539 138.970   5
  -6   6  -1 44.7648 61.0018   4
   6  -6   2 2203.29 272.968   5
  -6   6  -2 1977.59 223.589   4
  -6   6  -3 385.160 114.751   4
  -6   6  -4 3117.65 278.164   4
   6  -6   4 3150.37 177.154   2
  -6   6  -5 23.1516 63.7257   4
   6  -6   5 25.6199 45.1520   2
  -6   6  -6 214.157 98.4740   4
   6  -6   6 63.4479 56.2673   2
   6  -6   7 133.834 69.8307   2
   6  -6   8-2.86304 57.4912   2
   6  -6   9-17.7241 63.0197   2
  -6   5   9 129.034 129.405   4
  -6   5   8 19.9765 120.437   4
  -6   5   7 2693.03 338.043   4
  -6   5   6 173.227 117.531   4
  -6   5   5 63.4001 96.4084   4
  -6   5   4 128.678 95.1121   4
  -6   5   3-46.7028 82.0794   4
   6  -5  -2-110.603 121.968   5
  -6   5   2 125.174 89.0982   4
   6  -5  -1-52.1078 106.362   5
  -6   5   1-38.6595 75.0550   4
   6  -5   0 368.834 140.119   5
  -6   5   0 363.942 111.036   4
   6  -5   1 1894.64 239.241   5
  -6   5  -1 1705.70 200.908   4
   6  -5   2 1753.37 230.851   5
   6  -5   2 1427.58 94.7051   2
  -6   5  -2 1607.21 188.581   4
  -6   5  -3 141.042 80.6431   4
   6  -5   3 88.5359 40.3492   2
  -6   5  -4 51.3542 67.1211   4
   6  -5   4 65.9984 37.8657   2
  -6   5  -5 247.884 85.9203   4
   6  -5   5 184.799 51.4276   2
  -6   5  -6 116.633 82.0540   1
  -6   5  -6 112.957 71.9057   4
   6  -5   6 136.499 53.4913   2
   6  -5   7 2118.17 172.816   2
   6  -5   8-62.3102 66.1997   2
   6  -5   9-120.460 78.7020   2
   6  -5  10 132.160 70.7504   2
  -6   4   9-187.096 185.895   4
  -6   4   8 274.108 160.315   4
  -6   4   7 47.0945 117.468   4
  -6   4   6 865.150 198.128   4
  -6   4   5-22.3250 78.3507   4
  -6   4   4 354.279 132.598   4
  -6   4   3 819.282 162.917   4
  -6   4   2 175.825 91.4319   4
   6  -4  -1 81.4747 98.8578   5
  -6   4   1 33.3798 66.0383   4
   6  -4   0 0.85511 102.199   5
  -6   4   0-17.5432 73.0208   4
   6  -4   1 782.400 163.778   5
  -6   4  -1 405.397 97.3230   4
  -6   4  -2 282.635 90.0553   4
   6  -4   2 163.055 24.9240   2
  -6   4  -3 106.641 67.2665   4
   6  -4   3 75.7222 29.2094   2
  -6   4  -4 3013.34 236.945   4
   6  -4   4 2986.58 152.124   2
  -6   4  -5 2297.16 211.371   4
   6  -4   5 2354.67 148.973   2
   6  -4   6 769.785 98.5238   2
  -6   4  -6 689.287 122.074   1
  -6   4  -6 550.579 113.501   4
   6  -4   7 2357.26 181.234   2
  -6   4  -7 2227.01 199.716   1
   6  -4   8 80.3286 66.2805   2
  -6   4  -8 9.69530 50.4810   1
   6  -4   9 150.131 77.5812   2
   6  -4  10 1499.27 177.588   2
   6  -4  11 199.900 91.8827   2
  -6   3   9 110.377 116.965   4
  -6   3   8-59.0486 130.311   4
  -6   3   7-40.9320 96.7460   4
  -6   3   6 1322.68 244.937   4
  -6   3   5 66.5034 85.3931   4
  -6   3   4 4075.67 368.839   4
  -6   3   3 2143.56 258.875   4
  -6   3   2 2123.82 240.133   4
   6  -3  -1 134.881 94.4737   5
  -6   3   1 318.246 103.567   4
   6  -3   0-17.5492 88.9604   5
  -6   3   0 298.485 100.085   4
   6  -3   1 1006.51 162.866   5
  -6   3  -1 988.666 145.320   4
   6  -3   2 367.833 127.523   5
  -6   3  -2 220.278 75.7319   4
   6  -3   2 278.087 29.1490   2
   6  -3   3 427.544 51.6543   2
  -6   3  -3 633.807 113.974   4
   6  -3   4 128.694 40.8664   2
  -6   3  -4 185.986 70.0380   4
  -6   3  -4 82.8164 39.1301   3
   6  -3   5 410.081 69.8058   2
  -6   3  -5 471.737 94.0661   4
  -6   3  -6 1456.14 155.104   4
  -6   3  -6 1216.75 153.752   1
   6  -3   6 1167.63 125.880   2
   6  -3   7-15.1312 43.8363   2
  -6   3  -7 98.2135 66.3349   4
  -6   3  -7 33.6230 49.0166   1
   6  -3   8 857.506 124.399   2
  -6   3  -8 1104.71 149.645   1
  -6   3  -9 151.394 69.8158   1
   6  -3   9 124.023 61.2927   2
   6  -3  10 49.2567 69.7192   2
   6  -3  11 97.4107 81.0934   2
   6  -3  12-33.2989 75.9233   2
  -6   2   9 403.583 174.991   4
  -6   2   8 80.8029 121.867   4
  -6   2   7 124.958 130.990   4
  -6   2   6 427.569 164.976   4
  -6   2   5 736.158 181.273   4
  -6   2   4 188.372 113.127   4
  -6   2   3 4035.40 351.967   4
  -6   2   2 310.761 120.370   4
  -6   2   1 1080.11 160.115   4
   6  -2   0-44.7722 102.057   5
  -6   2   0 253.059 84.2223   4
   6  -2   1 163.797 93.8095   5
  -6   2  -1 194.461 75.2112   4
   6  -2   2 3479.50 259.236   5
  -6   2  -2 3298.64 234.154   4
   6  -2   2 3561.37 112.259   2
   6  -2   3 458.484 54.7661   2
  -6   2  -3 520.169 93.7527   4
   6  -2   3 660.515 123.710   4
  -6   2  -3 524.640 93.9827   3
   6  -2   4-18.2149 34.7404   2
  -6   2  -4 73.4085 46.6442   4
   6  -2   4 46.0603 58.2987   4
  -6   2  -4 7.32694 38.5055   3
  -6   2  -5 3551.60 215.401   4
   6  -2   5 3718.07 266.939   4
   6  -2   5 3243.77 189.856   2
  -6   2  -5 3861.68 261.881   1
  -6   2  -6 529.603 75.8013   3
   6  -2   6 384.657 72.2746   2
  -6   2  -6 485.255 86.4706   4
  -6   2  -6 549.566 107.686   1
   6  -2   6 559.764 108.926   4
   6  -2   7 319.549 68.4524   2
  -6   2  -7 445.906 78.2780   4
   6  -2   7 438.702 94.9266   4
  -6   2  -7 552.866 105.306   1
   6  -2   8 134.837 52.4666   2
  -6   2  -8 128.272 72.6091   1
  -6   2  -9 113.337 70.9661   1
   6  -2   9 31.6624 70.6341   2
   6  -2  10 335.879 100.270   2
  -6   2 -10 418.289 101.012   1
   6  -2  11 30.3258 71.7728   2
   6  -2  12 23.8569 75.7954   2
  -6   1   9 139.959 142.245   4
  -6   1   8 439.599 183.928   4
  -6   1   7 173.731 134.714   4
  -6   1   6 45.4907 113.640   4
  -6   1   6-73.4633 50.6312   2
  -6   1   5 469.719 155.245   4
  -6   1   5 505.742 73.2140   2
  -6   1   4 1368.69 103.148   2
  -6   1   4 1278.33 214.659   4
  -6   1   3 1853.97 250.189   4
  -6   1   2 2033.92 240.286   4
  -6   1   1 9883.57 491.642   4
  -6   1   0 62.4390 66.1508   4
   6  -1   1 5422.05 295.355   5
   6  -1   1 5366.18 119.916   2
  -6   1  -1 5649.37 324.555   4
   6  -1   1 5498.05 152.897   2
   6  -1   2 758.202 122.987   5
   6  -1   2 836.318 73.5132   2
  -6   1  -2 667.792 107.916   4
   6  -1   2 784.364 68.2072   2
   6  -1   3 1639.91 165.751   5
  -6   1  -3 1573.97 149.311   4
   6  -1   3 1545.03 113.474   2
  -6   1  -3 1687.46 158.163   3
  -6   1  -4 267.461 69.3184   3
   6  -1   4 286.782 59.8257   2
  -6   1  -4 292.279 64.7131   4
   6  -1   4 347.219 85.8103   4
   6  -1   5 377.340 78.6016   2
  -6   1  -5 460.995 100.704   1
  -6   1  -5 401.428 75.2558   4
   6  -1   5 276.413 74.2824   4
  -6   1  -6 1980.19 140.514   4
   6  -1   6 2012.41 174.561   4
   6  -1   6 2005.11 175.727   2
  -6   1  -6 1925.01 186.306   1
  -6   1  -7 635.543 78.1121   3
   6  -1   7 881.369 128.013   2
  -6   1  -7 649.718 83.5276   4
   6  -1   7 644.155 101.296   4
  -6   1  -7 547.505 114.450   1
   6  -1   8 7318.42 379.255   2
  -6   1  -8 7276.37 377.646   1
  -6   1  -9 252.552 87.9321   1
   6  -1   9 358.412 104.790   2
  -6   1 -10 1419.91 175.992   1
   6  -1  10 1710.68 209.984   2
  -6   1 -11 3896.99 286.390   1
   6  -1  11 3543.07 309.234   2
   6  -1  12 43.7503 79.7284   2
   6  -1  13 367.967 134.902   2
  -6   0   9-56.6682 106.522   4
  -6   0   8-184.246 171.126   4
  -6   0   7 306.121 150.471   4
  -6   0   7 265.123 65.9356   2
  -6   0   6 324.821 145.938   4
  -6   0   6 231.343 56.3492   2
  -6   0   5 292.513 129.570   4
  -6   0   5 252.905 58.5953   2
  -6   0   4 624.282 148.930   4
  -6   0   4 598.193 85.0840   2
   6   0  -3 1432.29 115.238   2
  -6   0   3 1468.76 219.947   4
   6   0  -2 1220.90 92.7021   2
  -6   0   2 1519.80 217.492   4
   6   0  -1 1296.43 79.9157   2
  -6   0   1 1215.08 177.022   4
   6   0   0 39080.5 569.811   2
  -6   0   0 38879.1 1001.11   4
   6   0   1 3141.23 116.250   2
  -6   0  -1 3087.75 245.137   4
   6   0   2 8079.76 330.523   5
   6   0   2 8358.51 247.971   2
  -6   0  -2 8520.00 377.899   4
   6   0   3 17302.1 487.226   5
  -6   0  -3 16805.8 499.603   4
  -6   0  -3 18350.5 586.744   1
  -6   0  -4 346.196 69.3000   3
  -6   0  -4 379.816 102.308   1
  -6   0  -4 392.791 74.1684   4
  -6   0  -5 22053.9 489.217   4
  -6   0  -5 24243.4 690.041   1
  -6   0  -5 22829.5 582.849   3
  -6   0  -6 17531.6 391.864   4
   6   0   6 16569.6 551.501   2
  -6   0  -6 18536.0 606.046   1
   6   0   7 645.477 122.502   2
   6   0   7 557.510 78.3375   4
  -6   0  -7 665.085 121.615   1
   6   0   8 27606.1 580.666   4
   6   0   8 26719.7 799.475   2
  -6   0  -8 26681.0 783.757   1
  -6   0  -8 26113.9 594.913   3
   6   0   9 1774.80 210.270   2
  -6   0  -9 1821.97 200.415   1
   6   0  10 855.701 161.176   2
  -6   0 -10 1045.76 159.936   1
  -6   0 -11 2402.28 241.165   1
   6   0  11 2930.25 290.585   2
  -6   0 -12 899.043 152.163   1
   6   0  12 885.039 182.929   2
   6   0  13 272.629 126.547   2
  -6  -1   8 139.310 64.4216   2
  -6  -1   7-31.7000 68.8899   2
  -6  -1   6 1345.75 136.544   2
  -6  -1   5 264.506 73.1489   2
  -6  -1   4 83.7000 64.9798   2
  -6  -1   3 3321.11 205.751   2
  -6  -1   2 7243.61 346.113   5
  -6  -1   2 6367.52 273.986   2
   6   1  -1 88.1380 35.7730   2
  -6  -1   1 41.8596 78.5360   4
   6   1   0 15956.9 347.643   2
  -6  -1   0 15695.0 614.172   4
   6   1   1 7029.55 212.446   2
  -6  -1  -1 7169.54 378.208   4
   6   1   2 44088.3 732.694   2
  -6  -1  -2 42246.2 951.734   4
  -6  -1  -2 44023.9 981.591   1
   6   1   3 2359.54 155.791   5
   6   1   3 2726.89 169.089   2
  -6  -1  -3 2845.30 197.460   4
  -6  -1  -3 3034.47 235.057   1
   6   1   4 16668.7 425.403   5
  -6  -1  -4 15596.6 432.163   4
  -6  -1  -4 16917.9 570.549   1
  -6  -1  -5 14339.3 350.438   4
  -6  -1  -5 14194.9 529.764   1
  -6  -1  -5 14601.8 470.301   3
  -6  -1  -6 8057.26 207.303   4
  -6  -1  -6 7959.33 399.347   1
  -6  -1  -6 7796.60 332.359   3
  -6  -1  -7 471.363 82.2410   3
  -6  -1  -7 508.446 118.352   1
  -6  -1  -8 7235.11 394.466   1
  -6  -1  -8 7269.54 311.772   3
  -6  -1  -9 279.723 101.077   1
   6   1   9 535.145 126.928   2
   6   1  10 161.672 93.0423   2
  -6  -1 -10 174.199 90.1040   1
   6   1  11-96.7037 108.306   2
  -6  -1 -11 89.1137 78.1075   1
  -6  -1 -12 1271.34 182.848   1
   6   1  12 1470.10 231.383   2
   6   1  13-40.2983 85.0385   2
  -6  -1 -13 188.156 112.993   1
   6   1  14 114.088 119.546   2
  -6  -2   8 1074.32 151.210   2
  -6  -2   7-61.5155 74.4451   2
  -6  -2   6 1043.83 133.370   2
  -6  -2   5 154.611 68.8829   2
  -6  -2   4 142.191 74.1072   2
  -6  -2   3 2307.47 185.615   2
  -6  -2   2 12046.2 447.532   5
  -6  -2   2 11536.6 421.553   2
   6   2  -2 10965.9 356.831   2
   6   2  -1 119.342 44.0807   2
  -6  -2   1 210.817 74.9830   5
  -6  -2   1 62.8410 61.4026   1
  -6  -2   1 11.4687 78.7209   2
  -6  -2   0 9345.16 321.456   5
  -6  -2   0 9424.54 413.467   1
  -6  -2  -1 2094.27 196.637   1
  -6  -2  -2 11.1995 53.5284   1
  -6  -2  -2-78.0842 88.2692   4
  -6  -2  -3 4180.51 246.483   4
  -6  -2  -3 4283.51 284.449   1
   6   2   4 12451.9 418.716   2
  -6  -2  -4 11358.3 372.193   4
  -6  -2  -4 12660.2 498.717   1
   6   2   5 497.177 69.0399   5
  -6  -2  -5 399.691 57.9668   4
  -6  -2  -5 410.261 99.7475   1
  -6  -2  -6 413.983 31.0157   4
  -6  -2  -6 453.566 111.295   1
  -6  -2  -7 150.451 79.9996   1
   6   2   7 87.3425 60.9599   3
  -6  -2  -8 594.879 125.134   1
   6   2   8 475.710 94.5309   3
  -6  -2  -9 916.391 159.997   1
   6   2   9 1043.19 128.795   3
  -6  -2 -10 112.920 74.8752   1
   6   2  10 99.0874 53.8960   3
   6   2  11 278.035 123.655   2
   6   2  11 501.685 90.2550   3
  -6  -2 -11 472.988 123.286   1
  -6  -2 -12 99.5798 92.6910   1
   6   2  12 169.217 110.938   2
   6   2  13 196.499 101.848   2
  -6  -2 -13 166.409 101.916   1
   6   2  14 626.528 183.015   2
  -6  -2 -14 471.067 133.191   1
  -6  -3   8 960.502 154.220   2
  -6  -3   7 302.047 103.473   2
  -6  -3   6 290.949 95.6561   2
  -6  -3   5 1603.55 176.315   1
  -6  -3   5 1701.65 182.224   2
  -6  -3   4 392.260 92.3376   1
  -6  -3   4 716.162 129.183   2
  -6  -3   3 189.236 82.8124   1
  -6  -3   3 327.317 109.625   2
  -6  -3   2 12278.1 470.079   2
  -6  -3   2 11480.3 464.924   1
  -6  -3   1 2214.93 170.389   5
  -6  -3   1 2193.48 202.111   2
  -6  -3   1 2428.60 212.883   1
  -6  -3   0 1524.86 126.685   5
  -6  -3   0 1451.58 167.414   1
  -6  -3  -1 400.721 101.299   1
   6   3   2 1645.37 126.156   2
  -6  -3  -2 1470.63 170.433   1
   6   3   3 43.7285 60.7067   2
  -6  -3  -3 158.087 79.2383   1
  -6  -3  -4-23.4966 48.3539   4
  -6  -3  -4 53.8839 67.4329   1
   6   3   4 120.008 74.7216   3
  -6  -3  -5 61.3097 59.2614   1
  -6  -3  -5 84.6058 31.8450   4
   6   3   5 100.624 70.4929   3
   6   3   6 2402.43 103.104   5
  -6  -3  -6 2005.66 63.6084   4
  -6  -3  -6 2097.83 69.1384   4
   6   3   6 2441.84 208.728   3
  -6  -3  -6 2406.17 225.838   1
   6   3   7 19729.6 619.667   3
  -6  -3  -7 20079.3 694.823   1
   6   3   8 5223.08 308.824   3
  -6  -3  -8 5139.13 353.782   1
  -6  -3  -9 566.733 124.504   1
   6   3   9 801.920 125.108   3
  -6  -3 -10-14.0107 87.1002   1
   6   3  10 88.4080 65.9361   3
  -6  -3 -11 699.518 150.550   1
   6   3  11 539.540 107.419   3
  -6  -3 -12 1583.28 221.410   1
   6   3  12 1690.57 173.974   3
  -6  -3 -13 276.862 105.130   1
   6   3  13 43.2293 107.146   2
   6   3  14 46.3133 129.105   2
  -6  -3 -14 269.705 113.729   1
  -6  -3 -15 282.314 122.017   1
  -6  -4   8 102.963 104.592   2
  -6  -4   7 25.0546 96.8662   2
  -6  -4   6-43.1488 87.5043   2
  -6  -4   5 192.776 110.130   2
  -6  -4   4 1169.37 168.497   2
  -6  -4   4 870.326 130.417   1
  -6  -4   3 801.711 150.725   2
  -6  -4   3 522.831 110.107   1
  -6  -4   2 1980.20 213.721   2
  -6  -4   2 1265.20 163.215   1
  -6  -4   1 1231.45 172.498   2
  -6  -4   1 1332.42 163.781   1
  -6  -4   0 1430.37 115.700   5
  -6  -4   0 1067.98 152.353   2
  -6  -4   0 1271.81 160.016   1
  -6  -4  -1 8232.56 408.188   1
  -6  -4  -2 1117.36 153.615   1
  -6  -4  -3 743.355 131.126   1
   6   4   3 797.705 139.444   3
   6   4   4 3488.15 270.441   3
  -6  -4  -4 3635.04 282.077   1
  -6  -4  -5 2284.72 129.196   4
   6   4   5 2359.52 223.553   3
  -6  -4  -5 2347.67 232.035   1
  -6  -4  -6 3115.70 114.871   4
  -6  -4  -6 3159.97 139.580   4
   6   4   6 3400.98 261.444   3
  -6  -4  -6 2602.41 252.970   1
   6   4   7 18571.4 630.243   3
  -6  -4  -7 17764.0 676.517   1
  -6  -4  -8 4109.65 324.086   1
   6   4   8 3669.20 274.198   3
   6   4   9 80.5762 69.8993   3
  -6  -4  -9 112.068 79.0245   1
   6   4  10 1079.37 154.567   3
  -6  -4 -10 1140.75 186.028   1
   6   4  11 384.268 105.619   3
  -6  -4 -11 322.224 110.978   1
   6   4  12 256.592 96.1237   3
  -6  -4 -12 204.255 104.399   1
  -6  -4 -13-25.8052 78.1809   1
  -6  -4 -14-77.6629 113.082   1
   6   4  14-90.8516 153.497   2
  -6  -4 -15 79.4485 85.9794   1
  -6  -5   6 39.2614 102.010   2
  -6  -5   5 203.686 129.882   2
  -6  -5   4 426.075 138.047   2
  -6  -5   3 773.320 124.726   1
  -6  -5   3 828.604 168.485   2
  -6  -5   2 3772.48 307.882   2
  -6  -5   2 3660.14 271.052   1
  -6  -5   1 2641.52 255.699   2
  -6  -5   1 2275.62 217.685   1
  -6  -5   0 1016.77 149.555   1
  -6  -5   0 848.308 159.448   2
  -6  -5  -1 9498.14 451.194   1
   6   5   2 2109.33 229.497   3
  -6  -5  -2 2056.11 216.111   1
  -6  -5  -3 3504.84 221.937   4
   6   5   3 3990.95 310.621   3
  -6  -5  -3 3952.04 297.325   1
   6   5   4 22074.2 749.896   3
  -6  -5  -4 22586.8 745.855   1
  -6  -5  -5 1120.84 101.987   4
  -6  -5  -5 1050.35 167.960   1
   6   5   5 1273.43 179.517   3
  -6  -5  -6 4508.39 177.733   4
   6   5   6 4947.76 338.466   3
  -6  -5  -6 4522.47 340.107   1
   6   5   7-36.9758 68.0846   3
  -6  -5  -7 63.6620 64.0729   1
  -6  -5  -7 65.0243 17.8064   4
   6   5   8 95.8726 74.2581   3
  -6  -5  -8-36.5467 76.0565   1
   6   5   9 816.853 147.215   3
  -6  -5  -9 873.155 168.206   1
   6   5  10 419.119 115.779   3
  -6  -5 -10 568.715 141.460   1
  -6  -5 -11 2450.38 280.592   1
   6   5  11 2605.94 251.751   3
   6   5  12 1350.06 187.614   3
  -6  -5 -12 1209.72 210.226   1
   6   5  13 81.2414 88.9189   3
  -6  -5 -13 68.9886 76.0050   1
  -6  -5 -14 142.842 95.9363   1
  -6  -6   5 356.663 151.589   2
  -6  -6   4 368.099 151.857   2
  -6  -6   3 54.4342 116.038   2
  -6  -6   2 1503.85 176.727   1
  -6  -6   2 1385.68 221.686   2
  -6  -6   1 486.946 112.215   1
  -6  -6   1 545.217 159.632   2
  -6  -6   0 1668.14 218.431   2
  -6  -6   0 2279.16 225.362   1
   6   6   1 1810.68 227.881   3
  -6  -6  -1 1696.55 198.786   1
  -6  -6  -2 47.8325 70.9987   1
   6   6   2 171.358 108.397   3
  -6  -6  -3 1337.18 185.393   1
   6   6   3 1303.46 196.926   3
  -6  -6  -4-50.1146 81.5856   1
   6   6   4-39.3555 68.2210   3
   6   6   5 487.797 126.576   3
  -6  -6  -5 567.795 130.903   1
   6   6   6 612.704 141.087   3
  -6  -6  -6 451.858 123.768   1
   6   6   7 113.000 95.5232   3
  -6  -6  -7 56.1893 75.8965   1
   6   6   8 1540.14 202.341   3
  -6  -6  -8 1693.10 227.882   1
   6   6   9 269.182 110.730   3
  -6  -6  -9 248.838 100.529   1
   6   6  10 522.359 132.598   3
  -6  -6 -10 315.306 124.376   1
   6   6  11 1188.72 185.720   3
  -6  -6 -11 1323.60 219.692   1
   6   6  12 704.353 145.269   3
  -6  -6 -12 423.011 147.037   1
   6   6  13 153.293 93.3848   3
  -6  -6 -13 226.679 125.063   1
   6   6  14 18.3806 74.4387   3
  -6  -6 -14 130.361 96.0694   1
  -6  -7   3 385.090 167.232   2
  -6  -7   2 334.143 145.996   2
  -6  -7   1 600.602 174.258   2
  -6  -7   0-59.4326 135.089   2
  -6  -7   0 258.217 97.1647   1
  -6  -7  -1 559.340 120.700   1
   6   7   1 539.111 149.137   3
  -6  -7  -2 655.208 139.997   1
   6   7   2 513.570 148.769   3
  -6  -7  -3-33.8704 62.8673   1
   6   7   3-14.0825 78.9463   3
   6   7   4 7.62911 76.3531   3
  -6  -7  -4-4.12939 77.8383   1
  -6  -7  -5 3510.70 315.241   1
   6   7   5 4040.44 345.417   3
   6   7   6 826.572 168.299   3
  -6  -7  -6 684.883 154.591   1
   6   7   7 1824.71 234.904   3
  -6  -7  -7 1501.47 211.861   1
   6   7   8 221.152 95.6641   3
  -6  -7  -8 337.716 119.412   1
   6   7   9 161.219 100.313   3
  -6  -7  -9-59.7989 112.350   1
  -6  -7 -10 14.5686 90.1497   1
   6   7  10-52.8811 91.4797   3
   6   7  11-129.546 102.736   3
  -6  -7 -11-30.4695 84.7296   1
  -6  -7 -12-67.6926 100.190   1
   6   7  12-60.9869 105.483   3
   6   7  13 148.703 100.914   3
  -6  -7 -13 569.764 173.865   1
   6   7  14 139.715 102.027   3
  -6  -8   1 564.963 172.679   2
  -6  -8   0-325.442 184.175   2
  -6  -8  -1 957.961 158.232   1
   6   8   1 961.953 198.816   3
  -6  -8  -2 103.543 72.1292   1
   6   8   2 140.309 114.909   3
  -6  -8  -3 46.5023 83.0220   1
   6   8   3 19.2563 93.1999   3
   6   8   4-33.7147 100.681   3
  -6  -8  -4 11.3507 79.2534   1
   6   8   5 57.7855 106.075   3
  -6  -8  -5 46.6591 75.6558   1
   6   8   6 1161.44 209.644   3
  -6  -8  -6 1608.91 224.116   1
   6   8   7 577.860 164.689   3
  -6  -8  -7 834.102 177.880   1
   6   8   8 226.254 136.292   3
  -6  -8  -8 183.280 87.2046   1
   6   8   9 81.6580 85.5821   3
  -6  -8  -9 235.105 135.366   1
   6   8  10 71.6435 91.0601   3
  -6  -8 -10 157.340 120.954   1
   6   8  11 43.8074 96.5550   3
  -6  -8 -11 105.209 109.666   1
   6   8  12-12.1878 94.8997   3
  -6  -8 -12-31.5662 92.4694   1
   6   8  13 1832.48 262.762   3
   6   8  14 97.9247 92.8387   3
   6   9   1 602.250 177.972   3
  -6  -9  -2 654.738 141.105   1
   6   9   2 952.559 195.845   3
  -6  -9  -3 645.593 154.867   1
   6   9   3 411.869 149.040   3
   6   9   4 261.451 132.088   3
  -6  -9  -4 145.661 107.774   1
   6   9   5 278.143 131.043   3
  -6  -9  -5 232.825 115.539   1
   6   9   6 59.3700 108.220   3
  -6  -9  -6 129.994 102.523   1
   6   9   7 891.909 192.151   3
  -6  -9  -7 1136.35 208.111   1
   6   9   8 144.561 90.4117   3
  -6  -9  -8 8.16667 96.6422   1
   6   9   9 445.580 154.843   3
  -6  -9  -9-57.1245 79.7187   1
  -6  -9 -10 2205.44 299.785   1
   6   9  10 2255.28 291.685   3
  -6 -10  -4 25.9094 80.9109   1
  -6 -10  -5 1835.36 254.906   1
  -6 -10  -6-19.6759 92.7833   1
  -6 -10  -7-7.15049 81.0511   1
  -6 -10  -8 212.194 129.420   1
  -7   7   4 276.605 138.606   4
  -7   7   3-4.28947 84.9920   4
   7  -7  -2 1900.04 290.187   5
  -7   7   2 2265.32 293.000   4
   7  -7  -1 1072.50 233.940   5
  -7   7   1 1157.46 199.109   4
   7  -7   0 1093.43 226.006   5
  -7   7   0 1039.23 196.301   4
   7  -7   1 1954.80 286.213   5
  -7   7  -1 1573.19 227.836   4
   7  -7   2 113.637 143.944   5
  -7   7  -2 442.158 136.158   4
   7  -7   3 116.229 143.397   5
  -7   7  -3 29.4026 97.6181   4
  -7   7  -4 472.426 134.790   4
  -7   7  -5 44.8113 79.9381   4
  -7   7  -6-55.2110 93.7326   4
  -7   6   6-130.654 126.914   4
  -7   6   5 362.256 147.236   4
  -7   6   4 123.810 113.410   4
  -7   6   3 207.644 112.528   4
  -7   6   2 697.481 150.345   4
   7  -6  -1 1130.59 217.190   5
  -7   6   1 1347.37 212.981   4
   7  -6   0 237.594 122.544   5
  -7   6   0 218.384 102.260   4
   7  -6   1-37.1569 135.231   5
  -7   6  -1 28.3387 70.2277   4
   7  -6   2 975.582 201.828   5
  -7   6  -2 755.501 153.074   4
   7  -6   3 1855.74 269.892   5
  -7   6  -3 1524.50 207.334   4
  -7   6  -4 47.8451 78.9214   4
  -7   6  -5 1087.93 178.199   4
  -7   6  -6 161.327 90.2776   4
  -7   5   7 151.466 113.914   4
  -7   5   6 1092.91 229.636   4
  -7   5   5 14.5371 102.350   4
  -7   5   4 340.650 143.619   4
  -7   5   3 44.2445 92.5920   4
  -7   5   2 327.222 126.623   4
   7  -5  -1-51.4753 128.260   5
  -7   5   1 38.1173 75.5056   4
   7  -5   0 724.943 164.230   5
  -7   5   0 1033.83 172.401   4
   7  -5   1 121.977 109.846   5
  -7   5  -1-11.0936 72.7540   4
   7  -5   2 401.396 147.414   5
  -7   5  -2 112.568 83.2604   4
   7  -5   3 193.883 141.725   5
  -7   5  -3 21.1627 67.8309   4
  -7   5  -4 500.868 117.126   4
  -7   5  -5 489.989 115.002   4
  -7   5  -6 364.272 108.014   1
  -7   5  -6 275.248 100.402   4
  -7   5  -7 61.8338 69.4641   4
  -7   4   7 211.865 143.979   4
  -7   4   6 137.022 129.993   4
  -7   4   5 658.782 181.829   4
  -7   4   4 614.491 167.601   4
  -7   4   3 572.648 159.125   4
  -7   4   2 994.660 182.695   4
  -7   4   1 440.470 131.796   4
   7  -4   0 97.9244 105.969   5
  -7   4   0 90.3895 68.8400   4
   7  -4   1 453.842 133.962   5
  -7   4  -1 385.583 104.371   4
   7  -4   2 219.027 119.833   5
  -7   4  -2 184.557 83.1461   4
   7  -4   3 732.068 165.175   5
  -7   4  -3 472.256 105.199   4
  -7   4  -4 552.125 111.936   4
   7  -4   5 15.3709 33.2134   2
  -7   4  -5 146.242 73.2369   4
   7  -4   6-17.2279 45.9487   2
  -7   4  -6 46.1528 68.6241   1
  -7   4  -6 28.7174 52.8979   4
   7  -4   7 290.508 73.5675   2
  -7   4  -7 231.308 84.3041   4
  -7   4  -7 179.474 70.0563   1
   7  -4   8 105.923 65.2238   2
   7  -4   9 116.550 79.5655   2
   7  -4  10 316.231 98.3348   2
  -7   3   7 427.517 187.435   4
  -7   3   6-4.30561 113.452   4
  -7   3   5 262.292 133.322   4
  -7   3   4 1302.90 232.965   4
  -7   3   3 980.781 192.426   4
  -7   3   2 228.071 112.456   4
  -7   3   1 613.434 138.705   4
   7  -3   0 3305.96 290.702   5
  -7   3   0 3332.66 292.293   4
   7  -3   1 85.5512 92.6568   5
  -7   3  -1 260.357 94.2488   4
   7  -3   2 3365.63 287.306   5
  -7   3  -2 3387.49 267.373   4
   7  -3   3 4737.88 337.582   5
  -7   3  -3 4052.24 275.275   4
   7  -3   3 4342.43 132.829   2
   7  -3   4 899.050 77.4000   2
  -7   3  -4 687.286 121.676   4
  -7   3  -5 2059.56 191.027   4
   7  -3   5 1940.44 133.369   2
   7  -3   6 681.437 94.7412   2
  -7   3  -6 872.517 149.062   1
  -7   3  -6 515.161 101.795   4
   7  -3   7 949.258 122.449   2
  -7   3  -7 794.157 121.933   4
  -7   3  -7 986.043 151.866   1
   7  -3   8 97.1520 60.2498   2
  -7   3  -8 198.305 88.4766   1
   7  -3   9 11.5850 58.4716   2
  -7   3  -9 55.4820 69.0671   1
   7  -3  10 180.833 81.5915   2
   7  -3  11 123.699 83.4833   2
   7  -3  12 101.279 85.7306   2
  -7   2   7 357.158 182.573   4
  -7   2   6 288.693 147.111   4
  -7   2   5 291.036 147.542   4
  -7   2   4 494.333 165.338   4
  -7   2   3 5922.70 457.269   4
  -7   2   2 3385.73 329.428   4
  -7   2   1 1517.57 210.894   4
  -7   2   0 5602.00 375.903   4
   7  -2   1 1433.62 179.744   5
  -7   2  -1 1622.82 197.657   4
   7  -2   2 2498.72 239.080   5
  -7   2  -2 2458.72 220.754   4
   7  -2   3 52.6624 22.7363   2
   7  -2   3 100.181 95.6638   5
  -7   2  -3 103.635 65.3247   4
   7  -2   4 857.796 83.9236   2
  -7   2  -4 909.585 132.801   4
  -7   2  -5 1270.17 141.280   4
  -7   2  -5 1318.06 175.746   1
   7  -2   5 1395.32 124.445   2
  -7   2  -6 1573.52 153.660   4
   7  -2   6 1591.05 144.233   2
  -7   2  -6 1909.43 207.088   1
   7  -2   7-48.2846 60.7787   2
  -7   2  -7 18.3594 39.8829   4
  -7   2  -7 18.3848 61.6121   1
   7  -2   8-13.9604 67.8264   2
  -7   2  -8 3.57310 60.4203   1
  -7   2  -9 95.1525 78.1849   1
   7  -2   9 170.309 72.6063   2
   7  -2  10 71.9812 70.4025   2
  -7   2 -10 83.9489 75.5281   1
   7  -2  11-1.76643 73.8725   2
   7  -2  12-11.9956 77.9916   2
  -7   1   7-19.0414 103.893   4
  -7   1   6 1915.23 310.840   4
  -7   1   5 527.096 175.630   4
  -7   1   4 672.480 183.633   4
  -7   1   3 3776.32 368.232   4
  -7   1   2 761.850 173.460   4
  -7   1   1 1200.67 194.649   4
  -7   1   0-39.9570 64.2018   4
   7  -1   1 6.78577 9.04069   2
  -7   1  -1 1.07296 67.0892   4
   7  -1   2 115.148 87.3652   5
   7  -1   2 87.0587 27.5904   2
  -7   1  -2 57.4778 55.8467   4
   7  -1   2 69.0198 19.9249   2
   7  -1   3 1653.58 179.351   5
   7  -1   3 1433.32 107.025   2
  -7   1  -3 1418.81 157.592   4
   7  -1   3 1341.58 104.198   2
   7  -1   4 140.963 86.3260   5
   7  -1   4-0.24566 33.9843   2
  -7   1  -4 54.5437 66.1419   1
  -7   1  -4-14.1967 50.8021   4
  -7   1  -5 3198.78 200.891   4
   7  -1   5 3133.06 201.169   2
  -7   1  -5 3390.18 277.645   1
  -7   1  -6 6324.80 272.925   4
   7  -1   6 5950.43 331.471   4
   7  -1   6 6292.77 310.122   2
  -7   1  -6 6666.55 382.710   1
  -7   1  -7 2122.82 153.223   4
   7  -1   7 2165.51 198.119   2
  -7   1  -7 2090.19 218.237   1
   7  -1   8 1883.46 198.173   2
  -7   1  -8 2158.73 225.692   1
  -7   1  -9 201.889 91.3555   1
   7  -1   9 78.2163 78.3125   2
  -7   1 -10 829.916 150.524   1
   7  -1  10 868.310 160.416   2
   7  -1  11 445.188 124.208   2
  -7   1 -11 538.925 129.938   1
   7  -1  12 248.501 103.357   2
   7  -1  13 601.601 161.464   2
  -7   0   7 54.3111 108.061   4
  -7   0   6 951.661 225.883   4
  -7   0   5 162.147 142.039   4
  -7   0   4 253.004 142.670   4
  -7   0   3 698.639 179.751   4
  -7   0   2 670.730 160.176   4
  -7   0   1 2592.58 281.837   4
   7   0  -1 2593.08 122.230   2
  -7   0   0 11987.6 561.926   4
   7   0   0 10276.1 239.236   2
   7   0   1 12521.1 263.751   2
  -7   0  -1 13067.9 553.022   4
  -7   0  -2 621.843 116.658   4
   7   0   2 484.687 52.8599   2
   7   0   3 6132.54 308.752   5
   7   0   3 6513.86 246.013   2
  -7   0  -3 6463.17 332.964   4
  -7   0  -3 7297.06 394.787   1
   7   0   4 3998.69 247.257   5
  -7   0  -4 3818.68 228.027   4
  -7   0  -4 4168.45 303.803   1
  -7   0  -5 11698.8 373.866   4
  -7   0  -5 12889.1 535.794   1
  -7   0  -6 3126.65 169.672   4
   7   0   6 3001.47 229.450   2
  -7   0  -6 3153.63 267.394   1
  -7   0  -7 3464.88 166.171   4
   7   0   7 3345.59 259.337   2
  -7   0  -7 4146.49 311.236   1
   7   0   8 5638.98 359.825   2
  -7   0  -8 5978.80 382.198   1
  -7   0  -9 263.075 96.2142   1
   7   0   9 498.893 127.739   2
  -7   0 -10 349.556 110.124   1
   7   0  10 272.203 114.465   2
  -7   0 -11 1883.37 229.479   1
   7   0  11 1690.04 228.099   2
   7   0  12 103.117 99.2206   2
  -7   0 -12 113.530 89.4490   1
   7   0  13 428.062 149.358   2
  -7  -1   7-99.1460 141.506   4
  -7  -1   6 59.6219 110.031   4
  -7  -1   5 100.271 136.574   4
  -7  -1   4 95.0084 73.9909   2
  -7  -1   4 94.4793 138.145   4
  -7  -1   3 6746.66 305.186   2
  -7  -1   3 6814.56 512.442   4
  -7  -1   2 1935.23 262.141   4
  -7  -1   1 4348.15 363.777   4
   7   1   0 7961.80 241.142   2
  -7  -1   0 7883.97 464.577   4
   7   1   1 1921.65 112.475   2
  -7  -1  -1 1893.85 216.755   4
  -7  -1  -1 2306.45 226.943   1
   7   1   2 6941.62 225.880   2
  -7  -1  -2 6922.36 378.123   4
  -7  -1  -2 6850.95 389.709   1
  -7  -1  -3 32475.3 821.214   4
  -7  -1  -3 33790.5 915.539   1
   7   1   4 2862.82 190.114   5
   7   1   4 2701.48 184.560   2
  -7  -1  -4 2749.79 195.023   4
  -7  -1  -4 3265.92 267.048   1
   7   1   5 14528.4 439.400   5
  -7  -1  -5 14542.0 406.493   4
  -7  -1  -5 15640.8 601.048   1
  -7  -1  -6 8485.88 252.672   4
  -7  -1  -6 7972.44 433.362   1
  -7  -1  -7 125.446 25.6126   4
  -7  -1  -7 220.223 95.8692   1
  -7  -1  -8 623.537 134.568   1
  -7  -1  -9 1108.53 178.110   1
   7   1   9 747.399 147.572   2
  -7  -1 -10 578.023 136.933   1
   7   1  10 499.227 130.236   2
   7   1  11 1744.91 241.456   2
  -7  -1 -11 1818.47 227.235   1
   7   1  12 9.21049 78.6055   2
  -7  -1 -12 59.4099 70.5144   1
  -7  -1 -13-95.4154 98.4348   1
   7   1  13 45.7442 83.7885   2
  -7  -2   6 698.169 138.219   1
  -7  -2   5 1596.07 202.397   1
  -7  -2   5 1608.98 183.843   2
  -7  -2   4 234.714 102.151   1
  -7  -2   4 298.013 111.143   2
  -7  -2   3 13902.8 500.839   2
  -7  -2   3 13838.6 569.467   1
  -7  -2   2 1859.74 179.979   2
  -7  -2   2 2372.83 231.482   1
  -7  -2   1 5443.54 353.406   1
   7   2   0 24378.1 523.203   2
  -7  -2   0 23727.6 850.769   4
  -7  -2   0 26031.1 782.221   1
   7   2   1 19918.9 452.223   2
  -7  -2  -1 19676.7 720.851   4
  -7  -2  -1 21351.0 700.699   1
  -7  -2  -2 347.890 109.065   1
  -7  -2  -2 194.487 83.0030   4
   7   2   2 383.437 65.4165   2
   7   2   3 17488.0 458.575   2
  -7  -2  -3 17017.3 577.642   4
  -7  -2  -3 18474.0 649.601   1
   7   2   4 17785.1 510.137   2
  -7  -2  -4 16854.8 519.661   4
  -7  -2  -4 18269.0 656.356   1
   7   2   5 19415.1 443.215   5
  -7  -2  -5 18199.5 468.302   4
  -7  -2  -5 20156.0 699.438   1
   7   2   6 499.608 78.9039   5
  -7  -2  -6 492.841 53.7862   4
  -7  -2  -6 509.421 127.570   1
  -7  -2  -7 8569.51 462.474   1
  -7  -2  -8 1.81976 68.9150   1
  -7  -2  -9 1822.22 224.749   1
  -7  -2 -10 1120.88 178.758   1
   7   2  11-122.774 126.078   2
  -7  -2 -11 84.6959 81.4639   1
  -7  -2 -12 85.9443 96.5153   1
   7   2  12-111.315 120.474   2
   7   2  13-197.543 139.742   2
  -7  -2 -13-24.0653 88.9653   1
  -7  -2 -14 245.112 106.667   1
  -7  -3   6 267.851 117.425   2
  -7  -3   5 4324.11 316.902   2
  -7  -3   5 4695.76 325.854   1
  -7  -3   4 105.860 82.3289   1
  -7  -3   4 120.480 107.846   2
  -7  -3   3 9220.29 440.136   2
  -7  -3   3 9429.97 467.690   1
  -7  -3   2 4357.99 297.629   2
  -7  -3   2 3950.69 296.257   1
  -7  -3   1 715.155 127.308   1
  -7  -3   0 1593.60 190.788   1
  -7  -3  -1 2620.34 247.710   1
  -7  -3  -2 1940.67 212.222   1
  -7  -3  -3 7122.92 380.381   4
  -7  -3  -3 7515.57 417.613   1
  -7  -3  -4 1857.19 172.835   4
  -7  -3  -4 1911.48 212.554   1
  -7  -3  -5 86.3117 48.0983   4
  -7  -3  -5 86.7432 87.2478   1
  -7  -3  -6 6515.32 202.642   4
  -7  -3  -6 7437.35 432.646   1
   7   3   7 1923.79 110.270   5
   7   3   7 1848.69 201.056   3
  -7  -3  -7 2134.95 239.666   1
   7   3   8 1792.83 193.666   3
  -7  -3  -8 2003.18 237.255   1
  -7  -3  -9-1.67801 80.5768   1
   7   3   9-56.9352 67.0620   3
  -7  -3 -10-94.5098 94.8470   1
   7   3  10 35.8761 68.3543   3
  -7  -3 -11 403.728 124.709   1
   7   3  11 330.164 95.0820   3
  -7  -3 -12-61.5743 86.3985   1
   7   3  13-276.587 164.620   2
  -7  -3 -13 26.6028 82.2871   1
  -7  -3 -14 383.041 136.361   1
  -7  -3 -15 78.3716 99.3377   1
  -7  -4   6 84.6552 130.725   2
  -7  -4   5 1553.60 220.160   2
  -7  -4   4 36.6850 95.7084   2
  -7  -4   4-89.3332 73.6539   1
  -7  -4   3 1010.11 188.489   2
  -7  -4   3 949.219 151.960   1
  -7  -4   2 82.6880 101.846   2
  -7  -4   2 119.656 77.5942   1
  -7  -4   1-185.742 122.989   2
  -7  -4   1 101.448 70.3433   1
  -7  -4   0 1146.42 168.256   1
  -7  -4  -1 1715.00 205.011   1
  -7  -4  -2 556.461 125.743   1
  -7  -4  -3 6178.84 387.096   1
  -7  -4  -4 2651.78 254.974   1
  -7  -4  -5 3392.27 217.377   4
   7   4   5 3516.17 289.017   3
  -7  -4  -5 3469.59 300.992   1
  -7  -4  -6 1748.52 119.257   4
   7   4   6 1904.05 217.423   3
  -7  -4  -6 1828.77 222.151   1
  -7  -4  -7 277.726 117.088   1
   7   4   7 359.750 145.423   3
   7   4   8 4947.01 337.214   3
  -7  -4  -8 5417.87 396.122   1
  -7  -4  -9 201.296 119.827   1
   7   4   9 69.7974 65.8771   3
  -7  -4 -10 4234.39 364.486   1
   7   4  10 3697.41 290.529   3
  -7  -4 -11 386.993 130.126   1
   7   4  11 482.396 117.269   3
  -7  -4 -12 191.995 95.8759   1
   7   4  12 303.903 102.497   3
  -7  -4 -13 238.595 118.853   1
  -7  -4 -14-114.731 95.1902   1
  -7  -4 -15 320.320 149.843   1
  -7  -5   5-56.9626 115.346   2
  -7  -5   4 31.0363 123.584   2
  -7  -5   3-5.00665 106.703   2
  -7  -5   2 1208.36 170.851   1
  -7  -5   2 1202.82 195.480   2
  -7  -5   1 1204.27 173.178   1
  -7  -5   1 614.563 143.107   2
  -7  -5   0 1491.70 190.536   1
  -7  -5  -1 64.9234 71.9780   1
  -7  -5  -2 661.019 140.623   1
  -7  -5  -3 923.301 165.188   1
  -7  -5  -4 83.8912 85.4108   1
   7   5   4 182.921 100.780   3
   7   5   5 3197.83 292.912   3
  -7  -5  -5 2875.61 285.691   1
  -7  -5  -6 476.161 137.643   1
  -7  -5  -6 299.363 64.3056   4
   7   5   6 481.121 125.911   3
  -7  -5  -7 988.011 175.514   1
   7   5   7 1012.13 171.957   3
  -7  -5  -8 110.736 87.1025   1
   7   5   8 7.02643 77.4385   3
  -7  -5  -9-53.0645 87.7484   1
   7   5   9 149.877 104.965   3
  -7  -5 -10 2314.27 276.502   1
   7   5  10 2491.79 260.095   3
   7   5  11 214.710 104.773   3
  -7  -5 -11 357.037 144.689   1
   7   5  12 408.960 122.400   3
  -7  -5 -12 240.526 119.354   1
   7   5  13 181.016 103.538   3
  -7  -5 -13 31.5828 87.8943   1
  -7  -5 -14 58.4710 97.3504   1
  -7  -6   4-92.9019 140.918   2
  -7  -6   3-102.691 132.682   2
  -7  -6   2 439.853 146.247   2
  -7  -6   1 22.2757 111.056   2
  -7  -6   1 13.8388 71.0422   1
  -7  -6   0-36.5461 69.0325   1
  -7  -6  -1 1087.90 170.016   1
  -7  -6  -2 592.098 142.262   1
  -7  -6  -3 288.215 108.864   1
   7   6   3 171.475 108.178   3
   7   6   4 2569.73 279.981   3
  -7  -6  -4 2626.75 278.327   1
  -7  -6  -5 63.3677 86.9386   1
   7   6   5-5.92000 84.8671   3
  -7  -6  -6-31.1897 92.0388   1
   7   6   6-2.42140 80.9726   3
  -7  -6  -7 2009.60 254.748   1
   7   6   7 2418.78 269.712   3
   7   6   8 399.417 124.608   3
  -7  -6  -8 533.681 152.218   1
   7   6   9 338.874 122.237   3
  -7  -6  -9 293.630 127.481   1
   7   6  10-11.7021 80.0921   3
  -7  -6 -10-7.80208 76.2148   1
   7   6  11 1053.16 180.123   3
  -7  -6 -11 920.020 196.399   1
   7   6  12 242.289 106.645   3
  -7  -6 -12 249.980 110.022   1
   7   6  13 552.114 140.844   3
  -7  -6 -13 500.874 159.487   1
  -7  -7   2 239.060 150.883   2
  -7  -7   1 1091.16 213.127   2
  -7  -7   0 260.785 102.862   1
  -7  -7  -1 272.352 103.171   1
  -7  -7  -2 357.685 113.685   1
  -7  -7  -3 43.8711 73.4882   1
   7   7   3 252.384 127.524   3
  -7  -7  -4 1713.98 230.428   1
   7   7   4 1679.32 246.092   3
  -7  -7  -5 1707.38 237.181   1
   7   7   5 1561.16 234.027   3
  -7  -7  -6 7.19632 77.8946   1
   7   7   6 113.156 106.596   3
   7   7   7 351.147 136.331   3
  -7  -7  -7 347.214 132.240   1
   7   7   8 244.398 125.136   3
  -7  -7  -8 209.360 115.540   1
   7   7   9 56.0592 88.7491   3
  -7  -7  -9-47.5464 89.4231   1
   7   7  10-51.5594 92.5245   3
  -7  -7 -10-64.3386 80.6805   1
   7   7  11 779.254 179.839   3
  -7  -7 -11 664.033 180.583   1
   7   7  12 506.973 151.972   3
  -7  -7 -12 464.890 163.683   1
   7   7  13-56.7811 86.2739   3
   7   7  14 27.6721 96.0766   3
  -7  -8  -2 171.791 98.8207   1
  -7  -8  -3 118.333 89.6766   1
   7   8   3 126.765 110.178   3
  -7  -8  -4 118.066 85.7769   1
   7   8   4 56.6719 92.5842   3
  -7  -8  -5 9.44833 78.3883   1
   7   8   5 86.9223 94.6885   3
  -7  -8  -6 524.705 147.491   1
   7   8   6 624.214 171.856   3
   7   8   7 293.632 136.551   3
  -7  -8  -7 177.845 119.437   1
   7   8   8 819.648 191.035   3
  -7  -8  -8 853.563 191.852   1
   7   8   9 38.7732 86.5441   3
  -7  -8  -9-35.5849 97.2417   1
   7   8  10 370.012 131.709   3
  -7  -8 -10 319.415 149.524   1
   7   8  11 117.265 105.989   3
   7   8  12 475.538 156.550   3
  -7  -9  -3 503.160 141.446   1
  -7  -9  -4 1322.68 214.917   1
  -7  -9  -5 175.934 119.908   1
  -7  -9  -6-100.479 98.6762   1
  -7  -9  -7 95.6483 95.5061   1
  -7  -9  -8 116.808 117.523   1
  -7 -10  -5 195.031 107.859   1
  -8   7   0 314.602 124.852   4
  -8   7  -1 151.096 118.734   4
  -8   7  -2 127.168 110.904   4
  -8   7  -3 42.4499 83.6810   4
  -8   6   3-19.1587 86.2313   4
  -8   6   2 261.659 118.721   4
  -8   6   1 78.1053 102.953   4
   8  -6   0-119.237 160.460   5
  -8   6   0-32.3799 80.9892   4
   8  -6   1 97.7219 137.256   5
  -8   6  -1 214.426 99.3008   4
   8  -6   2 325.365 145.210   5
  -8   6  -2 350.082 116.865   4
   8  -6   3 218.731 154.744   5
  -8   6  -3 199.831 101.940   4
   8  -6   4 944.538 218.919   5
  -8   6  -4 861.214 165.934   4
  -8   6  -5 53.4558 77.2480   4
  -8   6  -6-62.9795 87.0880   4
  -8   5   4 244.196 144.478   4
  -8   5   3 12.1947 88.1375   4
  -8   5   2 358.033 142.479   4
  -8   5   1 14.9433 76.2476   4
   8  -5   0-77.8335 129.657   5
  -8   5   0 4.75722 71.9577   4
   8  -5   1 307.874 137.798   5
  -8   5  -1 498.561 132.708   4
   8  -5   2-51.1964 106.559   5
  -8   5  -2 73.8312 85.0101   4
   8  -5   3 219.028 139.742   5
  -8   5  -3 56.0073 79.6819   4
   8  -5   4 267.878 171.890   5
  -8   5  -4 114.967 91.2755   4
  -8   5  -5 63.3026 78.5516   4
  -8   5  -6 77.0320 91.7491   1
  -8   5  -6 256.663 104.982   4
  -8   4   5 354.773 165.449   4
  -8   4   4 239.409 135.435   4
  -8   4   3 28.4260 95.9770   4
  -8   4   2 443.652 146.389   4
  -8   4   1-55.6271 86.8725   4
   8  -4   0-8.33530 124.106   5
  -8   4   0 277.487 112.249   4
   8  -4   1 88.1148 113.783   5
  -8   4  -1 7.88583 73.4464   4
   8  -4   2 185.138 114.242   5
  -8   4  -2 49.8015 68.7047   4
   8  -4   3 434.003 161.854   5
  -8   4  -3 278.935 95.6882   4
   8  -4   4 94.5878 119.168   5
  -8   4  -4 135.323 80.0784   4
  -8   4  -5 67.6590 64.9340   4
  -8   4  -6 61.6613 83.3104   1
  -8   4  -6 71.7682 66.6786   4
  -8   4  -7 76.8575 77.1551   1
  -8   3   6 57.9220 122.112   4
  -8   3   5 330.276 154.824   4
  -8   3   4 43.6946 107.438   4
  -8   3   3 93.5765 97.9123   4
  -8   3   2 207.905 122.896   4
  -8   3   1 177.734 98.4030   4
  -8   3   0 56.8052 72.8875   4
   8  -3   1 1069.05 185.771   5
  -8   3  -1 1609.75 210.834   4
   8  -3   2 1051.42 184.880   5
  -8   3  -2 912.173 154.448   4
   8  -3   3 56.3266 92.7359   5
  -8   3  -3-60.2603 64.2718   4
   8  -3   4 2749.47 278.769   5
  -8   3  -4 2522.08 226.350   4
  -8   3  -5 363.798 93.4779   4
  -8   3  -5 303.925 105.865   1
  -8   3  -6 204.957 97.2841   1
  -8   3  -6 100.706 67.2037   4
  -8   3  -7 42.0658 79.9159   1
  -8   3  -8 18.4559 71.1786   1
  -8   3  -9-44.8891 71.5369   1
  -8   2   6 367.825 181.659   4
  -8   2   5 102.221 119.631   4
  -8   2   4 22.3482 98.7470   4
  -8   2   3 14.7760 94.4257   4
  -8   2   2 1597.17 241.491   4
  -8   2   1 174.038 98.4328   4
  -8   2   0-23.9589 76.1392   4
  -8   2  -1 413.760 120.044   4
   8  -2   2-67.6040 101.683   5
  -8   2  -2 101.605 80.2336   4
   8  -2   3 224.095 118.417   5
  -8   2  -3 64.8208 56.4607   4
   8  -2   4 496.637 130.903   5
  -8   2  -4 161.105 70.3963   4
   8  -2   5 676.823 150.337   5
  -8   2  -5 372.215 112.380   1
  -8   2  -5 490.541 103.136   4
   8  -2   6 11.2820 43.4568   2
  -8   2  -6 62.1046 57.4999   4
  -8   2  -6-25.1638 81.2797   1
   8  -2   7-52.5208 63.6695   2
  -8   2  -7 78.6063 75.0965   1
   8  -2   8 127.252 65.5174   2
  -8   2  -8 242.104 100.868   1
   8  -2   9 211.407 79.0877   2
  -8   2  -9 275.276 102.042   1
  -8   2 -10 3.03428 75.4651   1
   8  -2  10 10.8282 65.4678   2
   8  -2  11-37.8868 74.4517   2
  -8   1   6 72.5779 107.718   4
  -8   1   5 128.196 118.919   4
  -8   1   4 1184.28 244.407   4
  -8   1   3 218.204 137.791   4
  -8   1   2 354.089 140.100   4
  -8   1   1 540.465 149.362   4
  -8   1   0-22.9375 83.2035   4
  -8   1  -1 1227.79 182.859   4
  -8   1  -2 739.588 139.696   4
   8  -1   3-75.2143 101.088   5
  -8   1  -3 34.6404 51.2077   4
   8  -1   4 75.0889 78.1563   5
   8  -1   4 74.4496 38.1846   2
  -8   1  -4 183.370 100.393   1
  -8   1  -4 36.0788 46.5352   4
   8  -1   5 13.9015 38.3044   2
  -8   1  -5 96.4731 84.9520   1
  -8   1  -5-32.7620 41.1588   4
   8  -1   6 531.079 93.0246   2
  -8   1  -6 421.345 82.1885   4
  -8   1  -6 406.235 114.641   1
   8  -1   7 668.064 112.304   2
  -8   1  -7 603.851 139.997   1
   8  -1   8 278.907 88.5975   2
  -8   1  -8 274.783 105.781   1
   8  -1   9 40.9386 64.2473   2
  -8   1  -9 32.6871 84.8950   1
  -8   1 -10-58.2043 79.2495   1
   8  -1  10 112.523 78.3026   2
   8  -1  11-171.836 134.455   2
  -8   1 -11 30.1134 71.6222   1
   8  -1  12-85.1101 102.641   2
  -8   0   6 196.483 149.125   4
  -8   0   5 388.131 180.786   4
  -8   0   4 1184.59 250.218   4
  -8   0   3 146.028 115.522   4
  -8   0   2 944.923 200.008   4
  -8   0   1 1248.51 210.566   4
  -8   0   0 3221.55 316.688   4
  -8   0  -1 826.013 155.822   4
  -8   0  -2 1690.42 203.443   4
  -8   0  -3 609.700 147.146   1
  -8   0  -3 565.709 117.856   4
   8   0   4-74.2227 78.8872   5
  -8   0  -4 110.547 87.7086   1
  -8   0  -4 121.003 58.2433   4
   8   0   5 362.056 100.226   5
   8   0   5 284.435 73.4885   2
  -8   0  -5 436.950 121.417   1
  -8   0  -5 420.242 83.9608   4
   8   0   6 791.991 141.314   5
   8   0   6 539.375 101.560   2
  -8   0  -6 682.506 89.9921   4
  -8   0  -6 502.250 132.268   1
   8   0   7 55.3886 54.0740   2
  -8   0  -7 60.4091 75.2299   1
   8   0   8 487.634 116.509   2
  -8   0  -8 754.015 158.760   1
  -8   0  -9 79.8253 96.4889   1
   8   0   9 105.766 84.1506   2
  -8   0 -10 203.362 119.507   1
   8   0  10 294.674 110.326   2
   8   0  11 60.4734 102.425   2
  -8   0 -11-74.9114 87.3657   1
   8   0  12 231.970 103.558   2
  -8   0 -12 313.551 121.152   1
   8   0  13 194.184 118.095   2
  -8  -1   5 1357.78 277.089   4
  -8  -1   4-9.69228 108.992   4
  -8  -1   3 761.208 197.563   4
  -8  -1   2 510.533 149.824   4
  -8  -1   1 32.7261 78.7159   4
  -8  -1   0 429.585 131.228   1
  -8  -1   0 116.061 90.7431   4
  -8  -1  -1 2141.48 244.466   4
  -8  -1  -1 2540.60 261.944   1
  -8  -1  -2 196.001 96.6419   1
  -8  -1  -2 225.260 89.2510   4
  -8  -1  -3 1917.67 203.095   4
  -8  -1  -3 2163.33 238.948   1
  -8  -1  -4 2630.46 211.339   4
  -8  -1  -4 3260.05 291.078   1
   8   1   5 43.7425 61.1928   5
  -8  -1  -5-3.65644 40.4481   4
  -8  -1  -5-15.1738 69.0072   1
   8   1   6 156.863 70.6852   5
  -8  -1  -6 73.3711 37.4448   4
  -8  -1  -6 121.292 86.8369   1
  -8  -1  -7 135.392 80.8697   1
   8   1   8 71.6025 61.9605   2
  -8  -1  -8 151.379 96.9401   1
  -8  -1  -9-37.6102 82.1628   1
   8   1   9-73.7246 96.3779   2
  -8  -1 -10 105.922 92.2361   1
   8   1  10 149.406 99.3873   2
   8   1  11 68.8713 89.7455   2
  -8  -1 -11 1.91404 90.5553   1
   8   1  12 359.502 137.637   2
  -8  -1 -12 69.7233 90.2284   1
  -8  -1 -13 145.100 106.890   1
   8   1  13 132.491 114.111   2
  -8  -2   5 1768.69 221.013   1
  -8  -2   5 1747.74 306.104   4
  -8  -2   4 195.624 101.309   1
  -8  -2   4-93.8973 127.925   4
  -8  -2   3 1215.78 188.655   1
  -8  -2   3 1579.42 279.216   4
  -8  -2   2 18.5060 77.9056   1
  -8  -2   2 0.49205 86.6952   4
  -8  -2   1 162.070 102.317   1
  -8  -2   1-59.7219 98.9961   4
  -8  -2   0 1514.85 216.362   1
  -8  -2   0 1229.87 211.055   4
  -8  -2  -1 9.25435 72.1085   1
  -8  -2  -1 166.002 95.4670   4
  -8  -2  -2 2275.30 242.270   4
  -8  -2  -2 2627.34 263.254   1
  -8  -2  -3 793.168 157.938   1
  -8  -2  -3 624.495 128.273   4
  -8  -2  -4 2518.40 215.127   4
  -8  -2  -4 3138.34 288.981   1
  -8  -2  -5-47.2705 46.3180   4
  -8  -2  -5 38.6036 80.0799   1
   8   2   6-86.2375 51.6326   5
  -8  -2  -6 46.2545 74.8843   1
   8   2   7 65.8311 56.6686   5
  -8  -2  -7 89.6723 94.4691   1
  -8  -2  -8 1209.48 197.344   1
  -8  -2  -9 43.5279 83.3642   1
  -8  -2 -10 58.2513 90.8810   1
   8   2  11-9.95829 98.4675   2
  -8  -2 -11-7.56823 79.1624   1
   8   2  12-167.222 128.635   2
  -8  -2 -12-258.392 118.298   1
  -8  -2 -13-11.3497 90.1525   1
   8   2  13 11.1267 102.925   2
  -8  -2 -14 2.16576 91.1329   1
  -8  -3   4 325.743 126.242   1
  -8  -3   3 95.7101 83.1975   1
  -8  -3   2-90.8610 88.1961   1
  -8  -3   1 760.888 152.622   1
  -8  -3   0-4.44216 76.0547   1
  -8  -3  -1 453.210 119.468   1
  -8  -3  -1 315.662 117.647   4
  -8  -3  -2 23.5055 67.7485   1
  -8  -3  -2-41.0568 88.0824   4
  -8  -3  -3 217.855 87.2997   4
  -8  -3  -3 106.886 82.5570   1
  -8  -3  -4 49.1249 55.0740   4
  -8  -3  -4-133.278 105.111   1
  -8  -3  -5 333.569 84.1750   4
  -8  -3  -5 385.408 124.878   1
  -8  -3  -6-28.8044 82.7600   1
  -8  -3  -7 1031.72 183.718   1
  -8  -3  -8 1458.93 216.825   1
  -8  -3  -9-31.2879 90.9925   1
  -8  -3 -10 308.238 117.457   1
  -8  -3 -11 104.502 100.600   1
   8   3  12-37.4901 134.598   2
  -8  -3 -12 194.794 123.971   1
  -8  -3 -13 46.2515 91.5801   1
   8   3  13 16.6256 140.427   2
  -8  -3 -14-97.6461 98.9257   1
  -8  -4   3 97.2875 104.243   2
  -8  -4   3 206.899 95.7166   1
  -8  -4   2-81.3113 84.6321   1
  -8  -4   1 337.055 109.196   1
  -8  -4   0 114.968 83.8404   1
  -8  -4  -1 319.479 108.365   1
  -8  -4  -2 185.850 95.0702   1
  -8  -4  -3 560.074 130.004   4
  -8  -4  -3 693.922 153.227   1
  -8  -4  -4 268.659 119.307   1
  -8  -4  -4 90.1125 61.8290   4
  -8  -4  -5 195.157 99.9651   1
  -8  -4  -5 173.605 70.1966   4
  -8  -4  -6 407.433 137.798   1
  -8  -4  -7 142.871 96.2230   1
  -8  -4  -8 762.894 172.782   1
  -8  -4  -9 8.34357 77.8153   1
   8   4   9 92.6557 71.4089   3
  -8  -4 -10-127.679 119.426   1
   8   4  10 16.8054 69.5646   3
   8   4  11 77.4391 71.1179   3
  -8  -4 -11 44.0560 96.4656   1
  -8  -4 -12 310.806 146.188   1
  -8  -4 -13 9.23072 94.5495   1
  -8  -5   3-482.813 183.859   2
  -8  -5   2 114.418 81.9061   1
  -8  -5   1 20.9397 83.5037   1
  -8  -5   0 122.550 80.4788   1
  -8  -5  -1 300.231 111.897   1
  -8  -5  -2 2195.82 255.621   1
  -8  -5  -3 739.340 153.070   1
  -8  -5  -4 345.607 128.841   1
  -8  -5  -5 537.119 143.241   1
  -8  -5  -6-53.0741 84.3074   1
  -8  -5  -7 16.7456 93.6156   1
   8   5   7-2.79529 82.4170   3
  -8  -5  -8 23.8297 74.7581   1
   8   5   8-54.2709 79.4924   3
  -8  -5  -9 85.3671 105.168   1
   8   5   9 177.911 102.549   3
  -8  -5 -10 33.1890 90.9492   1
   8   5  10-20.1645 84.8471   3
   8   5  11 463.112 129.854   3
  -8  -5 -11 422.338 150.194   1
  -8  -5 -12 32.0458 77.4541   1
   8   5  12 26.8543 83.9348   3
  -8  -6   0 42.6082 70.2036   1
  -8  -6  -1 157.036 97.2673   1
  -8  -6  -2 175.553 105.065   1
  -8  -6  -3 171.258 87.9180   1
  -8  -6  -4 549.276 144.079   1
  -8  -6  -5 338.282 140.160   1
   8   6   5 270.112 111.736   3
  -8  -6  -6 105.138 98.6654   1
   8   6   6 159.837 119.940   3
  -8  -6  -7 354.314 134.470   1
   8   6   7 82.5672 94.9506   3
  -8  -6  -8 263.153 136.684   1
   8   6   8 316.446 118.692   3
  -8  -6  -9-65.5562 103.281   1
   8   6   9 45.9726 80.8409   3
  -8  -6 -10 55.5324 92.9536   1
   8   6  10-42.5414 82.8189   3
  -8  -6 -11 261.010 126.685   1
   8   6  11 397.690 141.930   3
   8   6  12 138.506 96.3881   3
   8   6  13 310.376 135.358   3
  -8  -7  -1 100.756 74.2646   1
  -8  -7  -2 421.025 122.044   1
  -8  -7  -3 55.1277 86.0268   1
  -8  -7  -4 77.4685 84.4171   1
  -8  -7  -5 522.481 145.447   1
   8   7   5 539.100 161.910   3
  -8  -7  -6 152.130 115.379   1
   8   7   6 105.131 105.102   3
  -8  -7  -7 231.957 115.590   1
   8   7   7 27.3099 92.2444   3
  -8  -7  -8 179.617 106.993   1
   8   7   8 97.5592 110.907   3
  -8  -7  -9 256.682 133.464   1
   8   7   9 140.316 93.3508   3
   8   7  10 386.513 144.109   3
   8   7  11 1225.64 222.274   3
   8   7  12 711.010 182.476   3
   8   7  13 233.371 125.734   3
  -8  -8  -2 408.722 134.103   1
  -8  -8  -3-78.0095 107.046   1
  -8  -8  -4-45.1172 87.9704   1
  -8  -8  -5 89.0287 92.9875   1
  -8  -8  -6-2.24256 85.8748   1
  -8  -8  -7 84.4511 99.9279   1
  -9   6  -1-35.9952 81.2991   4
  -9   6  -2 302.367 134.942   4
  -9   6  -3 971.259 187.097   4
  -9   5   1 169.941 123.876   4
  -9   5   0 64.6905 87.5915   4
   9  -5   1-98.6185 162.697   5
  -9   5  -1-7.83268 83.0338   4
   9  -5   2-60.4745 144.781   5
  -9   5  -2-59.1276 79.7012   4
   9  -5   3 134.282 145.687   5
  -9   5  -3 73.6158 82.8298   4
   9  -5   4 260.417 157.392   5
  -9   5  -4 157.543 110.931   4
  -9   5  -5 171.108 98.4814   4
  -9   5  -5 402.071 144.472   1
  -9   5  -6 156.937 118.431   1
  -9   4   3-188.924 127.030   4
  -9   4   2 69.0546 101.398   4
  -9   4   1 227.257 131.044   4
  -9   4   0 2.83230 89.6840   4
   9  -4   1-265.854 152.677   5
  -9   4  -1-129.479 87.6286   4
   9  -4   2 56.9067 122.094   5
  -9   4  -2-73.9918 83.4423   4
   9  -4   3 271.738 145.025   5
  -9   4  -3 228.529 106.436   4
   9  -4   4 136.377 126.014   5
  -9   4  -4 252.680 108.943   4
   9  -4   5 394.142 158.783   5
  -9   4  -5 411.958 111.229   4
  -9   4  -5 531.428 146.525   1
   9  -4   6 75.3966 152.292   5
  -9   4  -6 51.5973 100.317   1
  -9   4  -7 111.630 83.4908   1
  -9   3   3 55.5215 101.623   4
  -9   3   2 46.0298 100.698   4
  -9   3   1 57.6865 96.1942   4
  -9   3   0 191.498 114.168   4
  -9   3  -1-12.5971 71.7931   4
   9  -3   2 323.227 114.233   5
  -9   3  -2 531.980 127.027   4
   9  -3   3 178.268 117.587   5
  -9   3  -3 175.312 92.2488   4
   9  -3   4 121.643 107.366   5
  -9   3  -4 137.779 76.5682   4
   9  -3   5 1127.30 207.881   5
  -9   3  -5 878.208 181.292   1
  -9   3  -5 692.251 132.413   4
   9  -3   6 548.783 170.253   5
  -9   3  -6 720.148 172.476   1
  -9   3  -7 129.262 81.8507   1
  -9   3  -8 69.0873 79.2640   1
  -9   2   4 193.130 148.668   4
  -9   2   3 36.8805 110.631   4
  -9   2   2 1106.73 221.577   4
  -9   2   1 272.038 126.593   4
  -9   2   0 485.029 139.492   4
  -9   2  -1 508.707 142.885   4
  -9   2  -2 483.695 128.629   4
   9  -2   3 413.963 105.173   5
  -9   2  -3 508.950 128.486   4
   9  -2   4 1291.89 201.351   5
  -9   2  -4 1673.22 187.711   4
  -9   2  -4 1812.67 243.233   1
   9  -2   5 22.4924 88.0881   5
  -9   2  -5 155.122 116.321   1
  -9   2  -5 95.8215 69.1204   4
   9  -2   6 908.620 173.787   5
  -9   2  -6 1179.76 195.915   1
  -9   2  -7 174.601 100.765   1
  -9   2  -8 262.986 113.540   1
  -9   2  -9-6.24024 79.9418   1
  -9   2 -10 618.210 154.061   1
  -9   1   4 77.8609 123.637   4
  -9   1   3 135.552 134.733   4
  -9   1   2 1335.46 238.813   4
  -9   1   1-65.9165 102.288   4
  -9   1   0 126.659 93.7481   4
  -9   1  -1 261.705 107.942   4
  -9   1  -2 545.179 129.835   4
  -9   1  -3 221.600 105.845   1
  -9   1  -3 356.596 104.740   4
   9  -1   4 1084.03 167.464   5
  -9   1  -4 1404.44 171.256   4
  -9   1  -4 1421.37 214.016   1
   9  -1   5 42.6840 96.1579   5
  -9   1  -5 309.812 117.526   1
  -9   1  -5 175.492 71.5926   4
   9  -1   6 565.577 143.948   5
  -9   1  -6 495.718 154.965   1
   9  -1   7 186.905 109.681   5
  -9   1  -7 61.0634 88.9654   1
  -9   1  -8-70.2778 98.3316   1
  -9   1  -9 19.6780 78.9595   1
  -9   1 -10 256.820 106.269   1
  -9   1 -11 353.484 138.457   1
  -9   0   4-74.7760 134.045   4
  -9   0   3 325.141 155.355   4
  -9   0   2 447.935 161.567   4
  -9   0   1 297.605 143.675   4
  -9   0   0 906.168 193.627   4
  -9   0  -1-32.2809 87.0285   4
  -9   0  -2 880.595 174.037   1
  -9   0  -2 1263.90 193.588   4
  -9   0  -3 361.506 129.896   1
  -9   0  -3 235.506 97.0142   4
  -9   0  -4 182.276 97.6259   1
  -9   0  -4 200.239 80.5590   4
   9   0   5 438.558 102.744   5
  -9   0  -5 669.483 161.746   1
   9   0   6 186.414 94.3403   5
  -9   0  -6 121.988 104.433   1
   9   0   7 301.709 104.473   5
  -9   0  -7 125.572 99.9719   1
  -9   0  -8 247.051 104.177   1
  -9   0  -9 266.910 107.457   1
   9   0   9 253.777 99.6785   2
  -9   0 -10-158.571 106.318   1
   9   0  10 158.066 101.246   2
   9   0  11 226.935 103.981   2
  -9   0 -11 1.26361 92.7482   1
  -9  -1   5-19.8533 86.3337   1
  -9  -1   4 635.771 164.973   1
  -9  -1   4 224.936 164.720   4
  -9  -1   3-2.68450 86.0086   1
  -9  -1   3 27.9469 129.698   4
  -9  -1   2 81.1271 100.282   1
  -9  -1   2 240.650 153.696   4
  -9  -1   1 404.955 146.556   1
  -9  -1   1 202.648 120.216   4
  -9  -1   0 741.960 165.620   1
  -9  -1   0 677.487 186.371   4
  -9  -1  -1 176.352 112.352   1
  -9  -1  -1-43.2242 76.3511   4
  -9  -1  -2 1.44230 78.7909   1
  -9  -1  -2-115.442 110.451   4
  -9  -1  -3 1209.41 201.778   1
  -9  -1  -3 1334.86 182.362   4
  -9  -1  -4 16.6044 86.2768   1
  -9  -1  -4-45.8788 57.2442   4
  -9  -1  -5 1824.40 240.911   1
  -9  -1  -6-112.327 106.182   1
  -9  -1  -7-3.82829 90.1892   1
   9   1   8-80.9124 99.5857   2
  -9  -1  -8 97.8221 90.4400   1
  -9  -1  -9 382.086 134.121   1
   9   1   9 93.9430 85.4617   2
  -9  -1 -10 77.7407 97.3756   1
   9   1  10 74.0708 75.3711   2
  -9  -1 -11 57.0000 86.4114   1
   9   1  11 54.3530 96.0464   2
   9   1  12 107.912 93.2866   2
  -9  -1 -12-114.865 105.174   1
  -9  -2   4 292.692 121.580   1
  -9  -2   3 121.170 96.2718   1
  -9  -2   3 12.2474 122.466   4
  -9  -2   2 159.837 114.956   1
  -9  -2   2 93.0542 113.013   4
  -9  -2   1 206.906 97.7977   1
  -9  -2   1 42.6381 110.944   4
  -9  -2   0 1052.38 186.714   1
  -9  -2   0 778.355 184.885   4
  -9  -2  -1 292.671 130.057   1
  -9  -2  -1 208.518 113.962   4
  -9  -2  -2 75.4124 97.1414   1
  -9  -2  -2 91.0679 97.8248   4
  -9  -2  -3 1883.51 221.128   4
  -9  -2  -3 2242.04 270.704   1
  -9  -2  -4 168.033 80.5839   4
  -9  -2  -4 233.543 123.592   1
  -9  -2  -5 1047.95 194.053   1
  -9  -2  -6 312.412 115.287   1
  -9  -2  -7 296.878 115.220   1
  -9  -2  -8 120.365 109.588   1
  -9  -2  -9 1116.36 209.961   1
  -9  -2 -10 302.527 135.539   1
   9   2  10 152.520 97.1329   2
  -9  -2 -11 59.1039 95.3716   1
   9   2  11 27.7059 91.7177   2
   9   2  12-8.61588 102.671   2
  -9  -2 -12 20.4324 92.6343   1
  -9  -3   3 117.825 91.3711   1
  -9  -3   3 299.258 171.581   4
  -9  -3   2 295.691 117.188   1
  -9  -3   2 230.020 132.505   4
  -9  -3   1 181.039 103.998   1
  -9  -3   1-82.4873 113.223   4
  -9  -3   0 274.006 126.668   1
  -9  -3   0 3.82430 92.6377   4
  -9  -3  -1 307.189 117.591   1
  -9  -3  -1 149.504 89.9435   4
  -9  -3  -2 862.619 175.346   1
  -9  -3  -2 506.481 136.640   4
  -9  -3  -3 450.161 121.364   4
  -9  -3  -3 431.761 133.243   1
  -9  -3  -4 104.984 92.4700   1
  -9  -3  -5 248.013 117.750   1
  -9  -3  -6 157.984 101.877   1
  -9  -3  -7 1694.86 245.776   1
  -9  -3  -8 291.856 124.207   1
  -9  -3  -9 440.689 151.748   1
  -9  -3 -10 607.928 166.453   1
  -9  -3 -11 207.220 123.451   1
   9   3  12-53.8136 133.578   2
  -9  -4   2 62.8615 80.6410   1
  -9  -4   1 42.7061 84.7583   1
  -9  -4   0 7.70283 91.9871   4
  -9  -4   0-208.379 124.369   1
  -9  -4  -1-89.8006 112.200   4
  -9  -4  -1 322.356 126.828   1
  -9  -4  -2 334.853 117.934   4
  -9  -4  -2 357.524 131.540   1
  -9  -4  -3 343.411 123.340   4
  -9  -4  -3 337.920 142.384   1
  -9  -4  -4 540.129 152.170   1
  -9  -4  -5 158.110 100.026   1
  -9  -4  -6 101.782 107.920   1
  -9  -4  -7 1161.72 210.465   1
  -9  -4  -8 355.637 144.269   1
  -9  -4  -9-154.996 112.898   1
  -9  -4 -10 153.486 123.670   1
  -9  -4 -11 136.448 120.201   1
  -9  -5   1 66.2931 80.2781   1
  -9  -5   0 184.798 102.205   1
  -9  -5  -1 601.799 156.269   1
  -9  -5  -2 223.365 117.738   1
  -9  -5  -3 69.4109 92.2189   1
  -9  -5  -4 906.757 194.743   1
  -9  -5  -5 361.756 126.553   1
  -9  -5  -6 132.196 95.1762   1
  -9  -5  -7-94.3635 109.113   1
  -9  -5  -8 392.701 151.444   1
  -9  -5  -9 77.4458 102.719   1
  -9  -6   0 791.257 177.415   1
  -9  -6  -1 243.493 112.887   1
  -9  -6  -2 359.669 140.135   1
  -9  -6  -3 41.9086 91.5768   1
  -9  -6  -4 33.4549 80.2418   1
  -9  -6  -5 21.7639 86.8520   1
  -9  -6  -6 674.958 174.789   1
  -9  -6  -7-36.7437 100.133   1
  -9  -6  -8-330.262 156.021   1
   9   6   9 1061.09 213.990   3
   9   6  10 282.739 137.138   3
   9   6  11 901.952 193.614   3
   9   6  12 0.42028 101.511   3
  -9  -7  -2 52.4394 89.4146   1
  -9  -7  -3 151.136 106.471   1
  -9  -7  -4 403.593 154.919   1
  -9  -7  -5 347.137 148.814   1
 -10   4   0 2170.92 285.417   4
 -10   4  -1 566.956 147.797   4
 -10   4  -2 641.281 156.319   4
  10  -4   3 1967.97 287.883   5
 -10   4  -3 1444.15 211.526   4
  10  -4   4-123.594 154.877   5
  10  -4   5 282.139 156.828   5
 -10   3   1-18.6177 99.0388   4
 -10   3   0 479.284 134.440   4
 -10   3  -1 99.5332 95.2994   4
 -10   3  -2 105.530 93.2673   4
  10  -3   3-243.641 156.622   5
 -10   3  -3-20.7374 71.3717   4
  10  -3   4 94.6307 117.799   5
  10  -3   5-222.655 140.165   5
  10  -3   6 229.947 151.989   5
 -10   2   2 82.1698 109.966   4
 -10   2   1 328.124 136.431   4
 -10   2   0 47.2678 104.387   4
 -10   2  -1 100.817 97.4547   4
 -10   2  -2 117.710 89.9775   4
 -10   2  -3 1134.15 215.591   1
 -10   2  -3 950.704 170.892   4
  10  -2   4 18.7452 108.541   5
 -10   2  -4 132.932 107.424   1
  10  -2   5 243.504 128.004   5
 -10   2  -5 498.597 153.505   1
 -10   2  -6 789.315 192.166   1
 -10   2  -7 201.959 118.913   1
 -10   1   2-37.9310 116.455   4
 -10   1   1 127.926 103.391   4
 -10   1   0 355.592 134.479   4
 -10   1  -1 976.244 189.339   4
 -10   1  -2 250.528 145.743   1
 -10   1  -2 180.860 102.158   4
 -10   1  -3 2262.36 246.937   4
 -10   1  -3 3150.73 335.250   1
 -10   1  -4 634.050 170.355   1
 -10   1  -5-46.4726 118.136   1
 -10   1  -6 730.558 169.310   1
 -10   1  -7 678.861 159.419   1
 -10   1  -8 17.8064 88.6192   1
 -10   0   2 1100.76 245.726   4
 -10   0   1 568.694 172.440   4
 -10   0   0 384.247 155.628   1
 -10   0   0 141.103 93.7818   4
 -10   0  -1 3029.38 328.135   4
 -10   0  -1 3725.39 363.978   1
 -10   0  -2 289.195 144.442   1
 -10   0  -2 295.317 116.894   4
 -10   0  -3 1933.70 271.818   1
 -10   0  -4 1275.87 237.235   1
 -10   0  -5 234.316 118.280   1
 -10   0  -6 52.6874 109.038   1
 -10   0  -7 994.907 201.737   1
 -10   0  -8 207.411 113.184   1
 -10  -1   2 890.914 232.964   4
 -10  -1   1 114.772 117.318   4
 -10  -1   0 531.293 166.516   1
 -10  -1   0 422.736 152.945   4
 -10  -1  -1 2530.33 299.280   1
 -10  -1  -1 1856.10 258.513   4
 -10  -1  -2 20.4298 92.6320   1
 -10  -1  -2-0.38316 101.030   4
 -10  -1  -3 84.8665 95.4721   1
 -10  -1  -4 100.267 95.2394   1
 -10  -1  -5 91.4453 98.1031   1
 -10  -1  -6 265.283 113.584   1
 -10  -1  -7 562.887 161.338   1
 -10  -1  -8 105.073 110.325   1
 -10  -2   1 168.411 116.420   4
 -10  -2   0 61.2716 98.5209   1
 -10  -2   0 32.2132 117.930   4
 -10  -2  -1-12.1472 85.5755   1
 -10  -2  -1-83.9530 97.6199   4
 -10  -2  -2 100.597 114.989   1
 -10  -2  -3 65.1262 90.6946   1
 -10  -2  -4-45.9688 92.2341   1
 -10  -2  -5 540.999 156.342   1
 -10  -2  -6-125.127 115.809   1
 -10  -2  -7 327.835 156.073   1
 -10  -2  -8-1.83665 85.9775   1
 -10  -3   1 316.321 145.375   4
 -10  -3   0-13.8650 102.185   4
 -10  -3  -1 56.3978 90.9632   4
 -10  -3  -1 63.3904 95.5909   1
 -10  -3  -2 798.304 175.258   1
 -10  -3  -3-50.4466 116.316   1
 -10  -3  -4-39.2815 90.8180   1
 -10  -3  -5 956.574 200.781   1
 -10  -3  -6 95.7846 86.6851   1
 -10  -3  -7 78.5866 107.103   1
 -10  -4  -2 1083.08 219.213   1
 -10  -4  -3 260.970 125.709   1
 -10  -4  -4 18.3022 88.1338   1
 -10  -4  -5 327.441 141.853   1
   0   0   0    0.00    0.00   0
TITL mo415 in P-1
REM P-1 (#2 in standard setting)
CELL 0.71073   7.925059   8.593029  11.646769  69.9618  74.2206  85.6526
ZERR    3.00   0.000422   0.000463   0.000753   0.0054   0.0051   0.0044
LATT  1
SFAC C H N O
UNIT 33.00 30.00 3.00 3.00
TREF
HKLF 4
END
;
_shelx_hkl_checksum              82345
loop_
_space_group_symop_operation_xyz
'x, y, z'
'-x, -y, -z'
loop_
_atom_site_label
_atom_site_type_symbol
_atom_site_fract_x
_atom_site_fract_y
_atom_site_fract_z
_atom_site_U_iso_or_equiv
_atom_site_adp_type
_atom_site_occupancy
_atom_site_site_symmetry_order
_atom_site_calc_flag
_atom_site_refinement_flags_posn
_atom_site_refinement_flags_adp
O1 O 0.7253(4) 0.8350(3) 0.8144(4) 0.1429(14) Uani 1 1 d . .
O2 O 0.6039(3) 0.6024(3) 0.8656(2) 0.0869(7) Uani 1 1 d . .
N1 N 0.7441(3) 0.4419(2) 0.67026(19) 0.0516(5) Uani 1 1 d . .
N2 N 0.6303(3) 0.3341(2) 0.6652(2) 0.0624(6) Uani 1 1 d . .
N3 N 0.7714(4) 0.0307(4) 1.0394(4) 0.0959(10) Uani 1 1 d . .
N4 N 0.7305(3) 0.6879(3) 0.8396(2) 0.0619(6) Uani 1 1 d . .
C1 C 0.6255(4) 0.2018(3) 0.7666(3) 0.0614(7) Uani 1 1 d . .
H1 H 0.5583 0.1068 0.7882 0.074 Uiso 1 1 calc R U
C2 C 0.7343(3) 0.2225(3) 0.8373(2) 0.0548(6) Uani 1 1 d . .
C3 C 0.8082(3) 0.3800(3) 0.7729(2) 0.0484(5) Uani 1 1 d . .
C4 C 0.7618(3) 0.1012(3) 0.9612(3) 0.0523(6) Uani 1 1 d . .
C5 C 0.9348(3) 0.4655(3) 0.8040(2) 0.0461(5) Uani 1 1 d . .
C6 C 0.9032(3) 0.6117(3) 0.8321(2) 0.0464(5) Uani 1 1 d . .
C7 C 1.0280(3) 0.6903(3) 0.8563(2) 0.0546(6) Uani 1 1 d . .
H7 H 1.0025 0.7885 0.8739 0.066 Uiso 1 1 calc R U
C8 C 1.1916(3) 0.6212(3) 0.8539(2) 0.0625(7) Uani 1 1 d . .
H8 H 1.2778 0.6733 0.8692 0.075 Uiso 1 1 calc R U
C9 C 1.2262(3) 0.4762(4) 0.8290(3) 0.0674(7) Uani 1 1 d . .
H9 H 1.3358 0.4289 0.8290 0.081 Uiso 1 1 calc R U
C10 C 1.1003(3) 0.3983(3) 0.8038(2) 0.0594(6) Uani 1 1 d . .
H10 H 1.1268 0.3000 0.7865 0.071 Uiso 1 1 calc R U
C11 C 0.7671(3) 0.6047(3) 0.5772(2) 0.0538(6) Uani 1 1 d . .
C12 C 0.6229(4) 0.6785(3) 0.5360(3) 0.0684(7) Uani 1 1 d . .
H12 H 0.5155 0.6222 0.5664 0.082 Uiso 1 1 calc R U
C13 C 0.6411(5) 0.8362(4) 0.4492(3) 0.0867(10) Uani 1 1 d . .
H13 H 0.5450 0.8872 0.4213 0.104 Uiso 1 1 calc R U
C14 C 0.7995(6) 0.9193(4) 0.4036(3) 0.0933(11) Uani 1 1 d . .
H14 H 0.8100 1.0266 0.3459 0.112 Uiso 1 1 calc R U
C15 C 0.9443(5) 0.8431(4) 0.4436(3) 0.0770(9) Uani 1 1 d . .
H15 H 1.0519 0.8992 0.4119 0.092 Uiso 1 1 calc R U
C16 C 0.9291(4) 0.6843(3) 0.5302(2) 0.0602(7) Uani 1 1 d . .
H16 H 1.0259 0.6321 0.5563 0.072 Uiso 1 1 calc R U
loop_
_atom_site_aniso_label
_atom_site_aniso_U_11
_atom_site_aniso_U_22
_atom_site_aniso_U_33
_atom_site_aniso_U_23
_atom_site_aniso_U_13
_atom_site_aniso_U_12
O1 0.108(2) 0.0644(14) 0.285(4) -0.080(2) -0.081(3) 0.0374(14)
O2 0.0468(11) 0.0920(15) 0.132(2) -0.0574(14) -0.0145(11) 0.0054(10)
N1 0.0588(12) 0.0399(9) 0.0559(11) -0.0143(8) -0.0151(9) -0.0064(8)
N2 0.0671(13) 0.0483(11) 0.0765(14) -0.0212(10) -0.0232(11) -0.0086(9)
N3 0.0802(19) 0.0643(18) 0.140(3) -0.0334(19) -0.022(2) -0.0089(15)
N4 0.0592(13) 0.0515(12) 0.0851(15) -0.0310(11) -0.0275(11) 0.0111(10)
C1 0.0619(15) 0.0428(12) 0.0794(17) -0.0206(12) -0.0166(13) -0.0061(10)
C2 0.0588(14) 0.0386(11) 0.0627(14) -0.0138(10) -0.0120(11) -0.0031(10)
C3 0.0521(12) 0.0380(10) 0.0528(12) -0.0146(9) -0.0103(10) -0.0006(9)
C4 0.0595(14) 0.0356(12) 0.0560(14) -0.0099(10) -0.0098(12) -0.0112(10)
C5 0.0482(12) 0.0390(10) 0.0451(11) -0.0087(9) -0.0086(9) -0.0033(9)
C6 0.0467(12) 0.0389(10) 0.0491(12) -0.0098(9) -0.0113(9) -0.0006(9)
C7 0.0613(14) 0.0438(12) 0.0576(14) -0.0130(10) -0.0169(11) -0.0066(10)
C8 0.0542(14) 0.0664(16) 0.0631(15) -0.0136(13) -0.0157(12) -0.0134(12)
C9 0.0449(13) 0.0787(18) 0.0737(17) -0.0208(14) -0.0151(12) 0.0045(12)
C10 0.0546(14) 0.0545(13) 0.0656(15) -0.0202(12) -0.0118(11) 0.0073(11)
C11 0.0710(16) 0.0440(12) 0.0466(12) -0.0159(10) -0.0131(11) -0.0053(11)
C12 0.0807(19) 0.0585(15) 0.0671(16) -0.0141(13) -0.0292(14) -0.0015(13)
C13 0.118(3) 0.0632(18) 0.080(2) -0.0100(16) -0.045(2) 0.0061(18)
C14 0.150(4) 0.0516(16) 0.0671(19) -0.0004(14) -0.033(2) -0.009(2)
C15 0.104(2) 0.0605(16) 0.0563(16) -0.0164(13) -0.0023(15) -0.0254(16)
C16 0.0722(16) 0.0547(14) 0.0511(13) -0.0209(11) -0.0048(11) -0.0106(12)
loop_
_atom_type_symbol
_atom_type_description
_atom_type_scat_dispersion_real
_atom_type_scat_dispersion_imag
_atom_type_scat_source
C C 0.0033 0.0016 'International Tables Vol C Tables 4.2.6.8 and 6.1.1.4'
H H 0.0000 0.0000 'International Tables Vol C Tables 4.2.6.8 and 6.1.1.4'
N N 0.0061 0.0033 'International Tables Vol C Tables 4.2.6.8 and 6.1.1.4'
O O 0.0106 0.0060 'International Tables Vol C Tables 4.2.6.8 and 6.1.1.4'
loop_
_geom_angle_atom_site_label_1
_geom_angle_atom_site_label_2
_geom_angle_atom_site_label_3
_geom_angle
C3 N1 N2 112.46(18)
C3 N1 C11 129.06(19)
N2 N1 C11 118.21(19)
C1 N2 N1 104.7(2)
O1 N4 O2 123.4(3)
O1 N4 C6 117.4(2)
O2 N4 C6 119.1(2)
N2 C1 C2 111.6(2)
N2 C1 H1 124.2
C2 C1 H1 124.2
C3 C2 C1 105.4(2)
C3 C2 C4 126.8(2)
C1 C2 C4 127.7(2)
N1 C3 C2 105.9(2)
N1 C3 C5 125.34(19)
C2 C3 C5 128.8(2)
N3 C4 C2 175.8(4)
C10 C5 C6 116.6(2)
C10 C5 C3 118.4(2)
C6 C5 C3 124.9(2)
C7 C6 C5 122.9(2)
C7 C6 N4 116.7(2)
C5 C6 N4 120.5(2)
C6 C7 C8 119.0(2)
C6 C7 H7 120.5
C8 C7 H7 120.5
C9 C8 C7 119.7(2)
C9 C8 H8 120.1
C7 C8 H8 120.1
C8 C9 C10 121.0(2)
C8 C9 H9 119.5
C10 C9 H9 119.5
C9 C10 C5 120.8(2)
C9 C10 H10 119.6
C5 C10 H10 119.6
C16 C11 C12 121.4(2)
C16 C11 N1 120.6(2)
C12 C11 N1 118.0(2)
C13 C12 C11 118.9(3)
C13 C12 H12 120.5
C11 C12 H12 120.5
C14 C13 C12 120.7(3)
C14 C13 H13 119.6
C12 C13 H13 119.6
C13 C14 C15 119.9(3)
C13 C14 H14 120.0
C15 C14 H14 120.0
C16 C15 C14 120.3(3)
C16 C15 H15 119.9
C14 C15 H15 119.9
C15 C16 C11 118.7(3)
C15 C16 H16 120.6
C11 C16 H16 120.6
loop_
_geom_bond_atom_site_label_1
_geom_bond_atom_site_label_2
_geom_bond_distance
O1 N4 1.195(3)
O2 N4 1.197(3)
N1 C3 1.351(3)
N1 N2 1.366(3)
N1 C11 1.434(3)
N2 C1 1.323(3)
N3 C4 0.925(4)
N4 C6 1.466(3)
C1 C2 1.402(4)
C1 H1 0.9300
C2 C3 1.387(3)
C2 C4 1.523(4)
C3 C5 1.473(3)
C5 C10 1.392(3)
C5 C6 1.392(3)
C6 C7 1.377(3)
C7 C8 1.382(4)
C7 H7 0.9300
C8 C9 1.366(4)
C8 H8 0.9300
C9 C10 1.388(4)
C9 H9 0.9300
C10 H10 0.9300
C11 C16 1.382(4)
C11 C12 1.385(4)
C12 C13 1.375(4)
C12 H12 0.9300
C13 C14 1.372(5)
C13 H13 0.9300
C14 C15 1.389(5)
C14 H14 0.9300
C15 C16 1.382(4)
C15 H15 0.9300
C16 H16 0.9300
loop_
_geom_torsion_atom_site_label_1
_geom_torsion_atom_site_label_2
_geom_torsion_atom_site_label_3
_geom_torsion_atom_site_label_4
_geom_torsion
C3 N1 N2 C1 -0.6(3)
C11 N1 N2 C1 -175.2(2)
N1 N2 C1 C2 0.1(3)
N2 C1 C2 C3 0.4(3)
N2 C1 C2 C4 178.5(2)
N2 N1 C3 C2 0.9(3)
C11 N1 C3 C2 174.7(2)
N2 N1 C3 C5 179.3(2)
C11 N1 C3 C5 -7.0(4)
C1 C2 C3 N1 -0.8(3)
C4 C2 C3 N1 -178.8(2)
C1 C2 C3 C5 -179.1(2)
C4 C2 C3 C5 2.9(4)
N1 C3 C5 C10 -114.9(3)
C2 C3 C5 C10 63.1(3)
N1 C3 C5 C6 64.1(3)
C2 C3 C5 C6 -117.9(3)
C10 C5 C6 C7 1.3(3)
C3 C5 C6 C7 -177.7(2)
C10 C5 C6 N4 -177.5(2)
C3 C5 C6 N4 3.5(3)
O1 N4 C6 C7 29.8(4)
O2 N4 C6 C7 -153.0(2)
O1 N4 C6 C5 -151.3(3)
O2 N4 C6 C5 25.9(4)
C5 C6 C7 C8 -0.7(4)
N4 C6 C7 C8 178.2(2)
C6 C7 C8 C9 -0.6(4)
C7 C8 C9 C10 1.2(4)
C8 C9 C10 C5 -0.4(4)
C6 C5 C10 C9 -0.8(3)
C3 C5 C10 C9 178.3(2)
C3 N1 C11 C16 41.9(4)
N2 N1 C11 C16 -144.6(2)
C3 N1 C11 C12 -138.4(3)
N2 N1 C11 C12 35.1(3)
C16 C11 C12 C13 -2.0(4)
N1 C11 C12 C13 178.3(3)
C11 C12 C13 C14 0.3(5)
C12 C13 C14 C15 0.9(5)
C13 C14 C15 C16 -0.6(5)
C14 C15 C16 C11 -1.0(4)
C12 C11 C16 C15 2.3(4)
N1 C11 C16 C15 -178.0(2)
