#------------------------------------------------------------------------------
#$Date: 2020-01-11 03:01:16 +0200 (Sat, 11 Jan 2020) $
#$Revision: 246711 $
#$URL: file:///home/coder/svn-repositories/cod/cif/4/03/77/4037795.cif $
#------------------------------------------------------------------------------
#
# This file is available in the Crystallography Open Database (COD),
# http://www.crystallography.net/
#
# All data on this site have been placed in the public domain by the
# contributors.
#
data_4037795
loop_
_publ_author_name
'Leas, Derek Andrew'
'Dong, Yuxiang'
'Garrison, Jered C.'
'Wang, Xiaofang'
'Ezell, Edward L.'
'Stack, Douglas Edward'
'Vennerstrom, Jonathan L.'
_publ_section_title
;
 Tricyclic Imidazolidin-4-ones by Witkop Oxidation of
 Tetrahydro-\b-carbolines.
;
_journal_name_full               'The Journal of organic chemistry'
_journal_paper_doi               10.1021/acs.joc.9b03402
_journal_year                    2020
_chemical_formula_moiety         'C18 H15 N3 O4'
_chemical_formula_sum            'C18 H15 N3 O4'
_chemical_formula_weight         337.33
_space_group_crystal_system      triclinic
_space_group_IT_number           2
_space_group_name_Hall           '-P 1'
_space_group_name_H-M_alt        'P -1'
_atom_sites_solution_hydrogens   geom
_audit_creation_date             2018-12-13
_audit_creation_method
;
Olex2 1.2
(compiled 2015.09.30 svn.r3233 for OlexSys, GUI svn.r5103)
;
_cell_angle_alpha                82.823(5)
_cell_angle_beta                 86.862(5)
_cell_angle_gamma                89.820(5)
_cell_formula_units_Z            2
_cell_length_a                   8.3364(6)
_cell_length_b                   8.4830(5)
_cell_length_c                   10.7484(7)
_cell_measurement_reflns_used    2582
_cell_measurement_temperature    100
_cell_measurement_theta_max      75.5560
_cell_measurement_theta_min      4.1270
_cell_volume                     753.01(9)
_computing_cell_refinement
;
CrysAlisPro, Agilent Technologies,
Version 1.171.37.35 (release 13-08-2014 CrysAlis171 .NET)
(compiled Aug 13 2014,18:06:01)
;
_computing_data_collection
;
CrysAlisPro, Agilent Technologies,
Version 1.171.37.35 (release 13-08-2014 CrysAlis171 .NET)
(compiled Aug 13 2014,18:06:01)
;
_computing_data_reduction
;
CrysAlisPro, Agilent Technologies,
Version 1.171.37.35 (release 13-08-2014 CrysAlis171 .NET)
(compiled Aug 13 2014,18:06:01)
;
_computing_molecular_graphics    'Olex2 (Dolomanov et al., 2009)'
_computing_publication_material  'Olex2 (Dolomanov et al., 2009)'
_computing_structure_refinement  'ShelXL (Sheldrick, 2015)'
_computing_structure_solution    'ShelXS (Sheldrick, 2008)'
_diffrn_ambient_temperature      100
_diffrn_detector                 'CCD plate'
_diffrn_detector_area_resol_mean 8.2603
_diffrn_detector_type            Onyx
_diffrn_measured_fraction_theta_full 0.992
_diffrn_measured_fraction_theta_max 0.947
_diffrn_measurement_details
;
#__ type_ start__ end____ width___ exp.time_
  1 omega  -68.00   25.00   1.0000    2.3650
omega____ theta____ kappa____ phi______ frames
    -      -44.0566   57.0000  150.0000 93

#__ type_ start__ end____ width___ exp.time_
  2 omega -112.00  -22.00   1.0000    2.3650
omega____ theta____ kappa____ phi______ frames
    -      -44.0566  -57.0000    0.0000 90

#__ type_ start__ end____ width___ exp.time_
  3 omega  -17.00   63.00   1.0000    2.3650
omega____ theta____ kappa____ phi______ frames
    -       44.0566  -57.0000 -150.0000 80

#__ type_ start__ end____ width___ exp.time_
  4 omega   35.00   69.00   1.0000    9.4600
omega____ theta____ kappa____ phi______ frames
    -      108.0049  -30.0000 -120.0000 34

#__ type_ start__ end____ width___ exp.time_
  5 omega   43.00   69.00   1.0000    9.4600
omega____ theta____ kappa____ phi______ frames
    -      108.0049  -30.0000 -150.0000 26

#__ type_ start__ end____ width___ exp.time_
  6 omega   49.00   75.00   1.0000    9.4600
omega____ theta____ kappa____ phi______ frames
    -      108.0049  -45.0000 -180.0000 26

#__ type_ start__ end____ width___ exp.time_
  7 omega   40.00  136.00   1.0000    9.4600
omega____ theta____ kappa____ phi______ frames
    -      108.0049  -77.0000 -150.0000 96

#__ type_ start__ end____ width___ exp.time_
  8 omega   91.00  117.00   1.0000    9.4600
omega____ theta____ kappa____ phi______ frames
    -      108.0049 -125.0000  -30.0000 26

#__ type_ start__ end____ width___ exp.time_
  9 omega   97.00  126.00   1.0000    2.3650
omega____ theta____ kappa____ phi______ frames
    -       44.0566 -178.0000  -30.0000 29

#__ type_ start__ end____ width___ exp.time_
 10 omega   45.00  107.00   1.0000    9.4600
omega____ theta____ kappa____ phi______ frames
    -      108.0049  -95.0000   30.0000 62

#__ type_ start__ end____ width___ exp.time_
 11 omega   50.00  106.00   1.0000    9.4600
omega____ theta____ kappa____ phi______ frames
    -      108.0049  -95.0000  150.0000 56

#__ type_ start__ end____ width___ exp.time_
 12 omega   40.00   69.00   1.0000    9.4600
omega____ theta____ kappa____ phi______ frames
    -      108.0049  -30.0000   60.0000 29

#__ type_ start__ end____ width___ exp.time_
 13 omega   44.00   70.00   1.0000    9.4600
omega____ theta____ kappa____ phi______ frames
    -      108.0049  -45.0000   30.0000 26

#__ type_ start__ end____ width___ exp.time_
 14 omega   37.00   65.00   1.0000    9.4600
omega____ theta____ kappa____ phi______ frames
    -      108.0049  -30.0000   90.0000 28

#__ type_ start__ end____ width___ exp.time_
 15 omega   39.00   65.00   1.0000    9.4600
omega____ theta____ kappa____ phi______ frames
    -      108.0049  -45.0000   60.0000 26

#__ type_ start__ end____ width___ exp.time_
 16 omega   35.00   68.00   1.0000    9.4600
omega____ theta____ kappa____ phi______ frames
    -      108.0049  -30.0000  120.0000 33

#__ type_ start__ end____ width___ exp.time_
 17 omega   37.00   63.00   1.0000    9.4600
omega____ theta____ kappa____ phi______ frames
    -      108.0049  -30.0000  150.0000 26

#__ type_ start__ end____ width___ exp.time_
 18 omega   85.00  172.00   1.0000    9.4600
omega____ theta____ kappa____ phi______ frames
    -      108.0049   30.0000   60.0000 87

#__ type_ start__ end____ width___ exp.time_
 19 omega   35.00   60.00   1.0000    9.4600
omega____ theta____ kappa____ phi______ frames
    -      108.0049  -30.0000    0.0000 25

#__ type_ start__ end____ width___ exp.time_
 20 omega   36.00   68.00   1.0000    9.4600
omega____ theta____ kappa____ phi______ frames
    -      108.0049  -30.0000  -60.0000 32

#__ type_ start__ end____ width___ exp.time_
 21 omega   35.00   69.00   1.0000    9.4600
omega____ theta____ kappa____ phi______ frames
    -      108.0049  -30.0000  -90.0000 34
;
_diffrn_measurement_device       'four-circle diffractometer'
_diffrn_measurement_device_type  'Xcalibur, Onyx, Ultra'
_diffrn_measurement_method       '\w scans'
_diffrn_orient_matrix_UB_11      0.1819671000
_diffrn_orient_matrix_UB_12      -0.0211399000
_diffrn_orient_matrix_UB_13      -0.0254658000
_diffrn_orient_matrix_UB_21      0.0114034000
_diffrn_orient_matrix_UB_22      -0.0908557000
_diffrn_orient_matrix_UB_23      0.1325665000
_diffrn_orient_matrix_UB_31      -0.0318062000
_diffrn_orient_matrix_UB_32      -0.1574884000
_diffrn_orient_matrix_UB_33      -0.0520504000
_diffrn_radiation_monochromator  mirror
_diffrn_radiation_probe          x-ray
_diffrn_radiation_type           CuK\a
_diffrn_radiation_wavelength     1.54184
_diffrn_reflns_av_R_equivalents  0.0496
_diffrn_reflns_av_unetI/netI     0.0569
_diffrn_reflns_Laue_measured_fraction_full 0.992
_diffrn_reflns_Laue_measured_fraction_max 0.947
_diffrn_reflns_limit_h_max       9
_diffrn_reflns_limit_h_min       -10
_diffrn_reflns_limit_k_max       7
_diffrn_reflns_limit_k_min       -10
_diffrn_reflns_limit_l_max       11
_diffrn_reflns_limit_l_min       -13
_diffrn_reflns_number            5034
_diffrn_reflns_point_group_measured_fraction_full 0.992
_diffrn_reflns_point_group_measured_fraction_max 0.947
_diffrn_reflns_theta_full        67.684
_diffrn_reflns_theta_max         75.583
_diffrn_reflns_theta_min         4.152
_diffrn_source                   'sealed X-ray tube'
_diffrn_source_type              'Enhance Ultra (Cu) X-ray Source'
_exptl_absorpt_coefficient_mu    0.893
_exptl_absorpt_correction_T_max  1.00000
_exptl_absorpt_correction_T_min  0.88386
_exptl_absorpt_correction_type   multi-scan
_exptl_absorpt_process_details
;
CrysAlisPro, Agilent Technologies,
Version 1.171.37.35 (release 13-08-2014 CrysAlis171 .NET)
(compiled Aug 13 2014,18:06:01)
Empirical absorption correction using spherical harmonics,
 implemented in SCALE3 ABSPACK scaling algorithm.
Empirical absorption correction using spherical harmonics,
 implemented in SCALE3 ABSPACK scaling algorithm.
;
_exptl_crystal_colour            'clear light yellow'
_exptl_crystal_colour_lustre     clear
_exptl_crystal_colour_modifier   light
_exptl_crystal_colour_primary    yellow
_exptl_crystal_density_diffrn    1.488
_exptl_crystal_description       irregular
_exptl_crystal_F_000             352
_exptl_crystal_size_max          0.3
_exptl_crystal_size_mid          0.1
_exptl_crystal_size_min          0.05
_refine_diff_density_max         0.231
_refine_diff_density_min         -0.244
_refine_diff_density_rms         0.061
_refine_ls_extinction_method     none
_refine_ls_goodness_of_fit_ref   1.086
_refine_ls_hydrogen_treatment    constr
_refine_ls_matrix_type           full
_refine_ls_number_parameters     226
_refine_ls_number_reflns         2974
_refine_ls_number_restraints     0
_refine_ls_restrained_S_all      1.086
_refine_ls_R_factor_all          0.0645
_refine_ls_R_factor_gt           0.0476
_refine_ls_shift/su_max          0.000
_refine_ls_shift/su_mean         0.000
_refine_ls_structure_factor_coef Fsqd
_refine_ls_weighting_details
'w=1/[\s^2^(Fo^2^)+(0.0526P)^2^+0.4070P] where P=(Fo^2^+2Fc^2^)/3'
_refine_ls_weighting_scheme      calc
_refine_ls_wR_factor_gt          0.1260
_refine_ls_wR_factor_ref         0.1439
_reflns_Friedel_coverage         0.000
_reflns_number_gt                2332
_reflns_number_total             2974
_reflns_threshold_expression     'I > 2\s(I)'
_cod_data_source_file            jo9b03402_si_002.cif
_cod_data_source_block           jv-dl4-151a
_cod_database_code               4037795
_shelxl_version_number           2013-4
_chemical_oxdiff_formula         'C15 H20 N3 O4'
_shelx_space_group_comment
;
The symmetry employed for this shelxl refinement is uniquely defined
by the following loop, which should always be used as a source of
symmetry information in preference to the above space-group names.
They are only intended as comments.
;
_reflns_odcompleteness_completeness 99.26
_reflns_odcompleteness_iscentric 1
_reflns_odcompleteness_theta     66.97
_olex2_refinement_description
;
1. Fixed Uiso
 At 1.2 times of:
  All C(H) groups, All C(H,H) groups
2.a Ternary CH refined with riding coordinates:
 C7(H7)
2.b Secondary CH2 refined with riding coordinates:
 C16(H16A,H16B), C18(H18A,H18B), C17(H17A,H17B)
2.c Aromatic/amide H refined with riding coordinates:
 C13(H13), C10(H10), C11(H11), C1(H1), C2(H2), C12(H12), C5(H5), C4(H4)
;
_shelx_res_file
;
TITL JV-DL4-151A in P-1 #2
REM reset to P-1 #2
CELL 1.54184 8.336431 8.48297 10.748448 82.8234 86.8621 89.8198
ZERR 2 0.000591 0.000525 0.000676 0.0052 0.0054 0.0054
LATT 1
SFAC C H N O
UNIT 36 30 6 8

L.S. 10
PLAN  2
TEMP -173.15
BOND
MORE -1
BOND $H
CONF
fmap 2
ACTA
REM <olex2.extras>
REM <HklSrc "%.\\JV-DL4-151A.hkl">
REM </olex2.extras>

WGHT    0.052600    0.407000
FVAR       9.10642
O3    4    0.267600    0.307366    0.100410    11.00000    0.02781    0.03485 =
         0.01982   -0.00559   -0.00322    0.00196
O1    4   -0.213750    0.055234    0.726403    11.00000    0.03788    0.04500 =
         0.02500   -0.00522    0.00338    0.00393
O4    4    0.834427    0.581244    0.186011    11.00000    0.03567    0.02932 =
         0.02803   -0.00891   -0.00296   -0.01059
N2    3    0.470397    0.286082    0.239700    11.00000    0.02265    0.02280 =
         0.01816   -0.00366   -0.00036    0.00163
O2    4   -0.339869    0.020370    0.561002    11.00000    0.03642    0.04645 =
         0.04051   -0.00508   -0.00499   -0.00978
N3    3    0.390296    0.483163    0.361734    11.00000    0.03157    0.02456 =
         0.02281   -0.00744   -0.00148    0.00308
N1    3   -0.228042    0.074278    0.612687    11.00000    0.02860    0.03039 =
         0.03034   -0.00547    0.00061    0.00663
C13   1    0.841284    0.318217    0.034782    11.00000    0.02283    0.02874 =
         0.02464   -0.00269   -0.00206   -0.00515
AFIX  43
H13   2    0.923559    0.393835    0.007277    11.00000   -1.20000
AFIX   0
C6    1    0.125744    0.341141    0.382093    11.00000    0.02573    0.02705 =
         0.02429   -0.00806   -0.00256    0.01118
C9    1    0.597715    0.243940    0.156640    11.00000    0.02139    0.02175 =
         0.01907   -0.00225   -0.00404    0.00171
C10   1    0.604810    0.093687    0.118137    11.00000    0.02444    0.02119 =
         0.02584   -0.00815   -0.00118   -0.00062
AFIX  43
H10   2    0.525231    0.016258    0.148272    11.00000   -1.20000
AFIX   0
C11   1    0.729066    0.057548    0.035295    11.00000    0.02811    0.02247 =
         0.02923   -0.01074   -0.00221    0.00129
AFIX  43
H11   2    0.732900   -0.043913    0.006545    11.00000   -1.20000
AFIX   0
C14   1    0.715765    0.358233    0.115148    11.00000    0.02393    0.02084 =
         0.01976   -0.00216   -0.00418   -0.00067
C15   1    0.710860    0.521741    0.157594    11.00000    0.03500    0.02258 =
         0.01785   -0.00403   -0.00009   -0.00368
C1    1    0.122924    0.338237    0.512051    11.00000    0.03008    0.02921 =
         0.02175   -0.00942   -0.00405    0.00491
AFIX  43
H1    2    0.200873    0.396997    0.548462    11.00000   -1.20000
AFIX   0
C7    1    0.250758    0.435801    0.295816    11.00000    0.02830    0.02563 =
         0.02171   -0.00505   -0.00247    0.00608
AFIX  13
H7    2    0.199797    0.532545    0.251874    11.00000   -1.20000
AFIX   0
C2    1    0.007914    0.250766    0.588721    11.00000    0.03185    0.02822 =
         0.02141   -0.00883   -0.00057    0.00789
AFIX  43
H2    2    0.006784    0.247512    0.677434    11.00000   -1.20000
AFIX   0
C12   1    0.848146    0.169694   -0.005781    11.00000    0.02481    0.02641 =
         0.02458   -0.00828   -0.00021    0.00192
AFIX  43
H12   2    0.933984    0.144287   -0.061575    11.00000   -1.20000
AFIX   0
C3    1   -0.105213    0.168296    0.533043    11.00000    0.02275    0.02774 =
         0.02683   -0.00644    0.00063    0.00737
C5    1    0.009790    0.255547    0.329177    11.00000    0.02337    0.04292 =
         0.02179   -0.00753   -0.00219    0.00900
AFIX  43
H5    2    0.011554    0.256487    0.240638    11.00000   -1.20000
AFIX   0
C16   1    0.554200    0.613881    0.161182    11.00000    0.03740    0.01705 =
         0.02538   -0.00412    0.00009    0.00059
AFIX  23
H16A  2    0.477050    0.564107    0.110953    11.00000   -1.20000
H16B  2    0.574988    0.723304    0.119624    11.00000   -1.20000
AFIX   0
C8    1    0.324119    0.333443    0.197433    11.00000    0.02400    0.02308 =
         0.01968   -0.00256    0.00158    0.00213
C18   1    0.494331    0.344646    0.361062    11.00000    0.02812    0.02253 =
         0.01959   -0.00649   -0.00041    0.00152
AFIX  23
H18A  2    0.463247    0.262505    0.431952    11.00000   -1.20000
H18B  2    0.608015    0.374614    0.367321    11.00000   -1.20000
AFIX   0
C17   1    0.472861    0.624409    0.294116    11.00000    0.04149    0.02249 =
         0.02636   -0.01054   -0.00008    0.00301
AFIX  23
H17A  2    0.556602    0.656045    0.348073    11.00000   -1.20000
H17B  2    0.393659    0.711777    0.285729    11.00000   -1.20000
AFIX   0
C4    1   -0.107534    0.169464    0.404376    11.00000    0.02153    0.04138 =
         0.02680   -0.01000   -0.00412    0.00883
AFIX  43
H4    2   -0.187601    0.112639    0.368571    11.00000   -1.20000
AFIX   0
HKLF 4

REM  JV-DL4-151A in P-1 #2
REM R1 =  0.0476 for    2332 Fo > 4sig(Fo)  and  0.0645 for all    2974 data
REM    226 parameters refined using      0 restraints

END

WGHT      0.0525      0.4080

REM Highest difference peak  0.231,  deepest hole -0.244,  1-sigma level  0.061
Q1    1   0.1219  0.3677  0.4393  11.00000  0.05    0.23
Q2    1   0.5943  0.7208  0.1547  11.00000  0.05    0.22
;
_shelx_res_checksum              31051
_shelx_hkl_file
;
   0   0   1 8823.34 326.783   1
   0   0  -1 9563.76 449.754   3
   0   0   2 3511.87 289.414   1
   0   0  -2 3386.46 384.503   3
   0   0  -3 263.988 150.237   3
   0   0   3 361.223 126.239   1
   0   0  -4 63460.5 2381.25   3
   0   0   4 57600.6 1639.04   1
   0   0  -5 15032.5 1357.46   3
   0   0   5 14333.7 910.013   1
   0   0  -6 5209.95 911.610   3
   0   0  -7 13774.8 1675.93   3
   0   0  -8 9600.53 1595.09   3
   0   0  -8 9480.41 806.669  18
   0   0  -9 4008.11 570.907  18
   0   0 -10 2472.55 471.287  18
   0   0 -10 2767.94 474.418   5
   0   0 -11 2435.38 446.598  18
   0   0 -11 2575.12 432.308   5
   0   0 -12 790.318 229.969   5
   0   0 -13 180.142 106.270   4
   0   1 -13 47.3664 68.7331   4
   0   1 -12 1244.15 256.529   5
   0   1 -11 178.641 185.411   5
   0   1 -11 379.856 227.986  18
   0   1 -10 5236.30 617.957   5
   0   1 -10 5009.53 647.202  18
   0   1  -9 8017.11 796.957  18
   0   1  -8 3732.48 924.166   3
   0   1  -8 2954.46 452.302  18
   0   1  -7 286.181 129.258  18
   0   1  -7 42.1790 102.189   3
   0   1  -6 8262.06 1140.69   3
   0  -1   6 7578.33 891.849   1
   0   1  -5 6718.01 879.952   3
   0  -1   5 6405.33 777.083   1
   0   1  -4 129232. 3297.33   3
   0  -1   4 125089. 3028.90   1
   0  -1   3 77572.0 2125.71   1
   0   1  -3 82324.3 2192.15   3
   0   1  -2 322663. 3436.18   3
   0  -1   2 328878. 3870.44   1
   0   1  -1 59920.9 963.337   3
   0  -1   1 65036.2 1500.29   1
   0  -1   0 85693.8 1517.16   1
   0  -1   0 93465.8 1665.53   9
   0  -1  -1 224971. 2540.13   3
   0  -1  -1 222960. 2132.29   1
   0   1   2 58999.0 1203.17   2
   0  -1  -2 55885.7 1647.54   3
   0  -1  -3 21.1274 107.508   3
   0   1   3 86.7702 60.9684   2
   0  -1  -4 104.296 179.767   3
   0   1   4 114.273 56.2280   1
   0  -1  -5 25496.4 1795.57   3
   0  -1  -6 145572. 4892.44   3
   0  -1  -7 79021.3 4068.64   3
   0  -1  -8 12066.1 1807.67   3
   0  -1  -8 11238.9 871.087  18
   0  -1  -8 9562.22 755.638   7
   0  -1  -9 103.315 95.4239  18
   0  -1  -9-47.4767 86.7910   7
   0  -1  -9 106.975 93.1173   5
   0  -1 -10 12544.8 954.338   5
   0  -1 -10 12276.9 986.769  18
   0  -1 -11 2125.74 395.175   5
   0  -1 -12 1056.48 271.365   4
   0  -1 -12 1057.64 262.113   5
   0  -1 -13 80.9622 106.245   4
   0   2 -12 12856.2 678.151   5
   0   2 -11 123.164 157.067  18
   0   2 -11 35.6232 135.419   5
   0   2 -10 1103.44 331.231  18
   0   2 -10 1094.09 317.300   5
   0   2  -9 16583.2 1138.61  18
   0   2  -9 16242.5 1059.22   5
   0   2  -8 1430.02 326.287  18
   0   2  -7 35465.4 1497.74  18
   0  -2   6 647.182 290.353   1
   0   2  -6 820.986 346.764   3
   0   2  -5 6108.27 810.203   3
   0  -2   5 6187.34 889.045   1
   0   2  -4 15232.5 1089.34   3
   0  -2   4 20014.0 1465.49   1
   0   2  -3 5582.43 543.074   3
   0  -2   3 6676.98 787.452   1
   0  -2   2 17867.5 1166.17   1
   0   2  -2 17464.5 696.550   3
   0  -2   1 39359.3 1581.84   1
   0  -2   0 15587.8 926.749   1
   0  -2  -1 16893.5 1012.70   9
   0  -2  -1 16945.2 815.494   3
   0  -2  -1 17292.8 914.258   1
   0  -2  -2 119564. 2668.47   3
   0   2   2 118455. 2319.56   2
   0  -2  -2 117992. 2827.40   9
   0  -2  -2 119587. 2249.07   1
   0   2   3 21786.2 1002.38   2
   0  -2  -3 21101.4 1323.02   3
   0   2   4 14639.2 801.819   2
   0  -2  -4 20800.5 1507.71   3
   0  -2  -5 11272.4 1263.72   3
   0  -2  -6 10292.6 1361.24   3
   0  -2  -7 2744.50 406.637   6
   0  -2  -7 3656.91 885.960   3
   0  -2  -8 21328.2 1161.52   7
   0  -2  -8 18302.9 1121.87  18
   0  -2  -8 20068.0 1117.10   5
   0  -2  -8 22504.3 2468.05   3
   0  -2  -9 430.992 204.986  18
   0  -2  -9 724.444 247.568   7
   0  -2  -9 596.703 240.706   5
   0  -2 -10 3854.81 542.602   5
   0  -2 -10 3896.33 520.876   7
   0  -2 -11 20400.0 1120.62   5
   0  -2 -11 20029.7 1076.35   7
   0  -2 -12 431.863 162.141   5
   0  -2 -12 373.464 168.614   4
   0  -2 -12 447.851 213.689   7
   0  -2 -13 2396.64 260.802   4
   0   3 -12 652.737 153.501   4
   0   3 -11 4957.04 518.469  18
   0   3 -11 3200.87 361.272   5
   0   3 -10 8520.10 687.881   5
   0   3 -10 9197.18 798.694  18
   0   3  -9 151.577 195.420  18
   0   3  -9 198.886 207.851   5
   0   3  -8 413.486 225.838  18
   0  -3   7 9361.98 749.409  13
   0   3  -7 11101.0 862.160  18
   0  -3   6 7488.88 662.206  19
   0  -3   6 8241.60 1220.66   1
   0   3  -6 7447.61 660.149  18
   0  -3   5 2790.59 665.885   1
   0  -3   4 20888.0 1752.60   1
   0  -3   3 10855.4 1182.99   1
   0  -3   2 17253.0 1379.63   1
   0  -3   1 90032.9 2952.49   1
   0  -3   0 200816. 4141.81   1
   0  -3  -1 154117. 3807.82   9
   0  -3  -1 155419. 3469.84   1
   0  -3  -2 1499.63 342.135   1
   0  -3  -2 1672.71 402.839   9
   0  -3  -2 1687.04 358.681   3
   0   3   3 48686.3 1875.23   2
   0  -3  -3 50629.6 2221.64   3
   0  -3  -3 49110.7 2300.99   9
   0   3   4 22632.1 1242.78   2
   0  -3  -4 26286.4 1791.90   9
   0  -3  -4 26975.0 1838.49   3
   0  -3  -5 11591.1 1349.64   3
   0  -3  -5 12340.7 1322.06   9
   0  -3  -6 12737.6 1586.64   3
   0  -3  -6 12540.2 1447.78   9
   0  -3  -7-375.770 143.139   5
   0  -3  -7 35.9482 267.766   9
   0  -3  -7-56.4234 109.021   6
   0  -3  -7 62.0922 109.793   7
   0  -3  -7-497.691 371.778   3
   0  -3  -8 2180.15 375.850   5
   0  -3  -8 2478.98 414.603   7
   0  -3  -9 1.94382 164.596   7
   0  -3  -9-220.436 188.949   5
   0  -3 -10 3379.64 482.383   4
   0  -3 -10 3826.93 506.036   5
   0  -3 -10 3371.49 508.312   7
   0  -3 -11 6924.37 629.504   5
   0  -3 -11 7136.64 667.343   7
   0  -3 -11 6718.25 618.406   4
   0  -3 -12 4575.11 430.457   4
   0  -3 -12 5576.70 517.500   7
   0   4 -11 148.272 87.0361   4
   0   4 -10 2576.13 400.681  18
   0   4  -9 5481.74 625.954  18
   0   4  -8 16020.6 1082.70  18
   0  -4   8 15195.8 971.298  13
   0   4  -7 9926.63 835.362  18
   0  -4   7 7894.32 730.603  13
   0   4  -6 2781.11 413.188  18
   0  -4   6 2125.54 735.880   1
   0   4  -5 351.258 149.328  18
   0  -4   5 314.513 156.236  19
   0  -4   5 405.107 399.969   1
   0  -4   4 916.388 425.151   1
   0  -4   3 16878.6 1685.68   1
   0  -4   2 99594.5 3863.05   1
   0  -4   1 3548.20 707.010   1
   0  -4   0 2742.81 608.795   1
   0  -4  -1 60476.3 2609.95   1
   0  -4  -2 211277. 5429.66   9
   0  -4  -2 225161. 4878.10   1
   0  -4  -3 6990.40 1009.53   9
   0   4   3 7090.76 869.499   2
   0   4   4 1011.35 335.958   2
   0  -4  -4 1257.92 460.329   9
   0  -4  -5 3982.00 831.967   9
   0  -4  -6 27689.1 1272.37   7
   0  -4  -6 29370.1 2409.08   9
   0  -4  -6 27849.7 1287.34  11
   0  -4  -7 1613.52 579.537   9
   0  -4  -7 1266.55 296.352   7
   0  -4  -8 1187.63 306.013   7
   0  -4  -9 823.848 309.030   7
   0  -4  -9 866.288 250.149   5
   0  -4 -10 34455.6 1544.85   7
   0  -4 -11 6678.07 638.284   7
   0  -4 -12 696.036 272.980   7
   0  -5  10 697.617 181.682  15
   0   5  -9 1210.19 280.199  18
   0   5  -8 16655.0 1032.35  18
   0  -5   8 17537.8 1035.19  13
   0   5  -7 52730.4 1866.49  18
   0  -5   7 56343.8 1982.00  13
   0   5  -6 703.350 244.307  18
   0  -5   6 7.66492 252.823   1
   0  -5   6 701.547 271.969  13
   0   5  -5 2143.74 348.642  18
   0  -5   5 2712.50 438.789  19
   0  -5   5 3183.11 927.606   1
   0  -5   4 31529.2 2758.56   1
   0  -5   4 32509.0 1449.40  19
   0  -5   3 28906.6 2514.99   1
   0  -5   3 25928.9 1239.70  19
   0  -5   2 3822.52 879.924   1
   0  -5   1 27671.9 2255.53   1
   0  -5   0 10146.3 1313.00   1
   0  -5  -1 1275.49 465.711   1
   0  -5  -2 1499.13 514.140   1
   0   5   3 3623.63 758.544   2
   0  -5  -4 1477.04 553.382   9
   0  -5  -5 158.628 114.170   7
   0  -5  -5-51.8149 109.176   9
   0  -5  -5 110.798 123.184  11
   0  -5  -6 30192.0 1395.19  11
   0  -5  -6 33074.4 1453.11   7
   0  -5  -7 1524.13 336.290   7
   0  -5  -8 8375.13 794.880   7
   0  -5  -9 9299.60 838.638   7
   0  -5 -11 2919.72 433.615   7
   0  -5 -12 8159.02 563.298   7
   0  -6   9 2365.64 322.724  15
   0  -6   8 3459.18 438.819  13
   0  -6   7 2736.37 438.642  13
   0  -6   6 4541.62 593.352  13
   0  -6   5 1579.62 379.589  13
   0  -6   5 414.297 464.954   1
   0  -6   4 411.189 204.904  19
   0  -6   4 357.667 411.452   1
   0  -6   3 3518.16 481.595  19
   0  -6   3 2594.24 406.359  10
   0  -6   3 3338.95 1016.46   1
   0  -6   2 42327.3 1637.55  19
   0  -6   2 40919.4 1611.01  10
   0  -6   1 33880.1 1452.66  10
   0  -6   1 40002.7 3095.61   1
   0  -6   0 4759.31 581.449   8
   0  -6   0 4046.55 960.281   1
   0  -6   0 3775.52 483.125  10
   0  -6  -1 7033.38 1225.19   1
   0  -6  -1 6381.05 629.788  10
   0  -6  -1 6038.81 618.816   8
   0  -6  -2 12231.4 1577.67   1
   0   6   2 10082.3 1459.18   2
   0  -6  -2 13118.6 909.235  10
   0  -6  -2 12619.6 901.938   8
   0  -6  -3 1022.95 265.251   8
   0   6   3 1317.69 517.535   2
   0  -6  -3 1483.08 315.203  10
   0  -6  -4 3519.01 491.509  10
   0  -6  -5 7805.05 713.465  10
   0  -6  -5 7505.85 694.146   7
   0  -6  -5 7703.02 701.660  11
   0  -6  -6 3223.95 482.301   7
   0  -6  -6 2575.46 430.978  11
   0  -6  -7 15983.2 1068.90   7
   0  -6  -8 6883.70 716.751   7
   0  -6  -9-386.712 373.065   7
   0  -6 -10-262.243 319.490   7
   0  -6 -11 5292.17 506.428   7
   0  -7   8 1339.13 252.960  15
   0  -7   7-25.4933 143.198  13
   0  -7   6 6466.61 647.122  13
   0  -7   5 71.4935 170.691  13
   0  -7   4 14314.6 1042.39  13
   0  -7   3-465.418 626.094   1
   0  -7   3-44.9990 135.747  10
   0  -7   3-93.1846 202.312  13
   0  -7   2 1223.92 330.589  10
   0  -7   2 1661.11 770.931   1
   0  -7   2 1041.83 348.052  13
   0  -7   1 4987.06 1194.11   1
   0  -7   1 6446.74 676.379  13
   0  -7   1 6422.67 689.984  10
   0  -7   0 5813.99 610.956  13
   0  -7   0 6585.15 700.864  10
   0  -7   0 6923.33 1410.76   1
   0  -7  -1 338.607 337.280   1
   0  -7  -1 1535.01 333.909  10
   0   7   1 560.543 406.190   2
   0  -7  -2 852.944 345.513   8
   0   7   2 852.926 485.980   2
   0  -7  -2 133.447 172.283  10
   0  -7  -3 10932.4 905.393  10
   0  -7  -3 11290.2 914.128   8
   0  -7  -4 7523.85 760.835  10
   0  -7  -4 7076.29 748.758   8
   0  -7  -5-611.644 321.732   8
   0  -7  -5 468.925 267.474  10
   0  -7  -6 36367.6 1536.14  10
   0  -7  -6 32880.6 1452.13   7
   0  -7  -7 3377.85 495.393   7
   0  -7  -8 22918.1 1175.79   7
   0  -7  -9 21827.2 1079.95   7
   0  -7 -10 900.243 298.725   7
   0  -7 -11 3903.21 345.866   7
   0  -7 -11 3838.33 328.080   8
   0  -8   7-14.4982 67.6729  12
   0  -8   7 208.506 120.656  15
   0  -8   6 749.621 224.810  15
   0  -8   6 770.645 218.685  13
   0  -8   5 1234.07 292.783  13
   0  -8   4 3952.06 515.775  13
   0  -8   3 10328.6 773.452  10
   0  -8   3 10490.3 842.452  13
   0  -8   2 3325.07 497.451  13
   0  -8   2 3222.20 494.471  10
   0  -8   1 14137.2 973.017  13
   0  -8   1 14481.6 1031.85  10
   0  -8   0 1812.17 356.219  13
   0  -8   0 1677.31 400.559  10
   0  -8  -1 890.203 325.948  10
   0  -8  -2 1564.32 414.281  10
   0  -8  -2 9304.25 868.400   8
   0  -8  -3 244.674 239.302  10
   0  -8  -3 4899.17 646.610   8
   0  -8  -4 18443.2 1143.15   8
   0  -8  -4 17562.7 1140.86  10
   0  -8  -5 6399.49 673.571  10
   0  -8  -5 6166.69 672.701   8
   0  -8  -6 2828.15 414.013  10
   0  -8  -6 2995.27 474.923   8
   0  -8  -7 4564.65 542.022   8
   0  -8  -8 516.870 165.174   7
   0  -8  -8 2493.89 389.364   8
   0  -8  -9 669.831 217.655   8
   0  -8  -9 152.791 84.5437   7
   0  -9   5 6292.06 424.613  15
   0  -9   4 1971.57 280.170  15
   0  -9   4 2370.07 325.461  13
   0  -9   3 818.546 218.496  13
   0  -9   3 87.5617 110.325  15
   0  -9   2 414.297 199.817  10
   0  -9   2 376.913 176.888  13
   0  -9   1 103.008 125.442  13
   0  -9   1 132.105 161.244  10
   0  -9   0 2305.20 407.544  10
   0  -9  -1 357.492 249.987  10
   0  -9  -2 1232.34 336.768  10
   0  -9  -3 1238.28 328.454  10
   0  -9  -4 775.519 288.492  10
   0  -9  -5 4682.08 503.799  10
   0  -9  -5 11849.6 781.489   8
   0  -9  -6 3109.32 366.696  10
   0  -9  -6 9937.96 690.285   8
   0  -9  -7 10693.7 638.986   8
   0  -9  -8 4937.46 385.191   8
   0 -10   1 5578.21 418.785  10
   0 -10   0 4595.56 427.731  10
   0 -10  -1 23.5394 116.249  10
   0 -10  -2 854.384 214.464  10
   0 -10  -3 1418.30 251.064  10
   0 -10  -4 312.629 147.266  10
   0 -10  -5 57.9455 81.0464  10
   1 -10  -5 500.834 130.434  10
   1 -10  -4 56.1149 99.5241  10
   1 -10  -3 665.922 199.082  10
   1 -10  -2 1503.17 273.062  10
   1 -10  -1 783.360 200.587  10
   1 -10   0 15.3522 109.432  10
   1 -10   1 54.7941 93.1271  10
   1  -9  -6 15256.0 774.783   8
   1  -9  -6 8285.56 575.810  10
   1  -9  -5 86.7392 154.453  10
   1  -9  -4 82.8475 189.846  10
   1  -9  -3 6351.81 650.486  10
   1  -9  -2 461.735 229.290  10
   1  -9  -1 944.177 296.663  10
   1  -9   0 143.771 176.293  10
   1  -9   1 388.628 171.651  13
   1  -9   1 54.9999 178.119  10
   1  -9   2-239.319 140.143  10
   1  -9   2 195.476 152.776  13
   1  -9   3-90.4062 101.684  15
   1  -9   3 32.4837 122.573  13
   1  -9   4 631.104 173.380  15
   1  -9   4 1187.38 239.144  13
   1  -9   5 2046.51 243.508  15
   1  -9   5 3004.53 309.967  13
   1  -8  -9 12933.6 636.650   8
   1  -8  -9 425.407 122.014   7
   1  -8  -8 50.6709 198.007   8
   1  -8  -8-68.9477 111.932   7
   1  -8  -7 917.800 283.902   8
   1  -8  -6 191.811 249.770   8
   1  -8  -6-232.181 199.601  10
   1  -8  -5 5190.10 605.907  10
   1  -8  -5 5825.82 663.769   8
   1  -8  -4 2358.44 447.179  10
   1  -8  -4 4665.75 632.392   8
   1  -8  -3 1519.12 389.175  10
   1  -8  -3 6291.87 728.296   8
   1  -8  -2 1719.19 407.432  10
   1  -8  -1 2407.47 438.088  10
   1  -8   0 15987.8 1103.73  10
   1  -8   0 14121.3 939.634  13
   1  -8   1 19903.8 1151.41  13
   1  -8   1 19941.1 1193.03  10
   1  -8   2 216.292 202.604  10
   1  -8   2 14.6315 150.981  13
   1  -8   3 2453.78 386.948  10
   1  -8   3 3037.71 470.194  13
   1  -8   4 788.815 270.851  13
   1  -8   5 17605.1 978.108  13
   1  -8   6 21366.7 963.748  13
   1  -8   7 4255.70 364.504  13
   1  -8   7 4259.01 377.008  15
   1  -7 -10 2958.68 349.897   8
   1  -7 -10 4836.36 481.728   7
   1  -7  -9 3545.69 498.928   7
   1  -7  -9 1939.43 354.779   8
   1  -7  -8 8318.16 737.259   7
   1  -7  -7 3140.64 509.813   7
   1  -7  -6 1695.99 367.489  10
   1  -7  -6 1499.77 383.418   8
   1  -7  -6 1609.40 408.437   7
   1  -7  -5 1047.02 318.989  10
   1  -7  -5 323.669 318.543   8
   1  -7  -4 4451.56 595.067  10
   1  -7  -4 4198.91 577.164   8
   1  -7  -3 3425.01 534.799   8
   1  -7  -3 3681.32 550.401  10
   1  -7  -2 102.403 122.805  10
   1  -7  -2 842.198 423.685   8
  -1   7   2 391.755 375.533   2
   1  -7  -1 1791.88 375.200  10
  -1   7   1 752.485 576.570   2
  -1   7   0 4703.81 1193.63   2
   1  -7   0 4559.75 579.948  10
   1  -7   1 86.1493 136.062  10
   1  -7   1 137.160 149.315  19
  -1   7  -1-52.6233 353.535   2
   1  -7   2 17245.5 2328.64   1
   1  -7   2 12980.4 951.290  10
   1  -7   2 17487.5 1109.25  19
   1  -7   3 257.734 217.532  19
   1  -7   3 288.808 174.173  10
   1  -7   4 59114.6 2074.16  19
   1  -7   5 2053.20 420.425  13
   1  -7   6 31889.5 1408.01  13
   1  -7   7 9911.64 715.123  13
   1  -7   8 4481.60 398.557  13
   1  -6 -11 3304.11 423.030   7
   1  -6 -10 385.465 291.299   7
   1  -6  -9 628.598 303.144   7
   1  -6  -8-33.2835 351.581   7
   1  -6  -7 6019.52 695.991   7
   1  -6  -6 9890.78 835.762   7
   1  -6  -6 9679.60 789.603  10
   1  -6  -5 854.451 261.635  10
   1  -6  -5 185.686 228.345   7
   1  -6  -4 1065.56 269.458  10
  -1   6   3 431.535 352.338   2
   1  -6  -3 579.124 219.532  10
   1  -6  -2 43408.0 1660.52   8
   1  -6  -2 43525.5 1664.63  10
  -1   6   2 45636.5 3189.40   2
   1  -6  -1 25.2042 115.926  10
   1  -6  -1 68.6185 182.271   8
   1  -6   0 27350.7 1305.34  10
   1  -6   0 29016.4 1287.40   8
   1  -6   0 31092.7 2679.17   1
   1  -6   1 4731.26 545.738  10
   1  -6   1 4302.07 507.385  19
   1  -6   1 4539.14 1028.58   1
   1  -6   2 1768.46 699.881   1
   1  -6   2 1096.12 260.686  19
   1  -6   2 1226.87 307.426  10
   1  -6   3 15064.3 963.571  10
   1  -6   3 17378.4 2209.59   1
   1  -6   3 17964.9 1122.54  19
   1  -6   4 17174.4 1126.64  19
   1  -6   4 16132.5 2212.71   1
   1  -6   5 2757.36 1007.24   1
  -1   6  -5 1482.79 326.081  18
   1  -6   5 2064.27 429.822  19
  -1   6  -6-201.248 131.535  18
   1  -6   7 2891.12 450.196  13
  -1   6  -7 2577.01 394.170  18
   1  -6   8 9712.56 710.187  13
  -1   6  -8 7179.83 585.910  18
  -1   6  -9 528.801 130.250  18
   1  -5 -12 2739.35 351.454   7
   1  -5 -11 297.726 305.470   7
   1  -5 -10 4606.48 586.591   7
   1  -5  -9 18500.9 1170.48   7
   1  -5  -8 57569.1 2070.39   7
   1  -5  -7-221.253 183.821   7
   1  -5  -6 128.324 104.924   7
   1  -5  -5 7710.88 672.258  10
   1  -5  -5 9364.38 756.625   7
  -1   5   4 1512.52 558.047   2
  -1   5   3-149.784 211.547   2
  -1   5   2 1192.69 441.687   2
   1  -5  -1 5445.68 959.945   1
   1  -5   0 989.715 415.113   1
   1  -5   1 6680.47 1135.38   1
   1  -5   2-10.9725 137.977   1
   1  -5   3 100.734 105.184  19
   1  -5   3 171.361 330.444   1
   1  -5   4 323.107 308.752   1
  -1   5  -4 162.930 103.374  18
   1  -5   4-45.2896 94.8387  19
  -1   5  -5 1544.24 315.864  18
   1  -5   5 2436.51 902.405   1
   1  -5   5 2410.28 421.386  19
  -1   5  -6 1699.48 361.932  18
   1  -5   6 2331.25 441.451  19
   1  -5   6 1746.59 778.088   1
  -1   5  -7 719.311 259.161  18
   1  -5   7 696.974 275.602  13
   1  -5   8 12545.3 879.207  13
  -1   5  -8 12538.5 913.023  18
   1  -5   9 4613.51 390.066  13
  -1   5  -9 6589.44 611.760  18
  -1   5 -10 252.880 136.485  18
   1  -4 -12 9724.76 641.106   7
   1  -4 -11 251.882 289.270   7
   1  -4 -11 104.637 147.303   4
   1  -4 -10 23929.1 1180.34   4
   1  -4 -10 23320.6 1268.62   7
   1  -4  -9 14452.3 957.267   4
   1  -4  -9 14412.0 1036.64   7
   1  -4  -8 4750.87 602.705   7
   1  -4  -8 4150.37 521.882   4
   1  -4  -7 41644.2 1670.86   7
   1  -4  -6 3686.32 769.032   9
   1  -4  -6 3883.81 483.742   7
   1  -4  -5 4275.49 806.405   9
  -1   4   4 4834.90 830.992   2
  -1   4   3 1538.84 458.310   2
  -1   4   2 1530.88 470.946   2
   1  -4  -1 18257.4 1527.49   1
   1  -4   0 32939.7 2090.25   1
   1  -4   1 18598.5 1620.28   1
   1  -4   2-104.926 151.531   1
   1  -4   3 1078.84 465.297   1
   1  -4   4 6329.37 1097.40   1
   1  -4   5 10787.1 819.224  19
   1  -4   5 10572.2 1474.95   1
  -1   4  -5 9306.38 725.117  18
   1  -4   6 2548.15 417.310  19
  -1   4  -6 2570.48 407.098  18
   1  -4   6 1973.32 725.030   1
   1  -4   7 4069.84 545.114  19
  -1   4  -7 4113.85 556.361  18
  -1   4  -8 3087.22 499.337  18
   1  -4   8 3162.19 463.595  13
  -1   4  -9 8321.52 769.828  18
  -1   4  -9 6144.18 572.206   5
  -1   4 -10 1682.65 337.020  18
  -1   4 -10 1295.81 245.642   5
  -1   4 -11 185.740 132.364  18
   1  -3 -12 6297.62 515.156   7
   1  -3 -12 7575.39 557.717   4
   1  -3 -11 172.960 257.298   7
   1  -3 -11 19.3851 149.049   4
   1  -3 -10 2843.12 454.059   5
   1  -3 -10 2272.04 437.610   7
   1  -3 -10 2640.48 433.632   4
   1  -3  -9 36464.8 1641.72   7
   1  -3  -9 38178.0 1593.93   5
   1  -3  -9 37874.4 1595.65   4
   1  -3  -8 19818.6 1129.09   4
   1  -3  -8 19581.8 1114.54   5
   1  -3  -8 19074.5 1149.12   7
   1  -3  -7 17615.4 1010.52   5
   1  -3  -7 20286.9 1120.42   7
   1  -3  -6 51839.4 2603.50   9
  -1   3   5 4009.95 662.770   2
   1  -3  -5 4224.59 707.719   9
  -1   3   4 820.336 311.564   2
   1  -3  -4 1015.66 329.809   9
  -1   3   3 5271.02 745.093   2
   1  -3  -3 6009.19 767.259   9
  -1   3   2 4620.07 667.891   2
   1  -3  -1 21695.5 1407.46   1
   1  -3   0 126150. 3459.49   1
   1  -3   1 7345.41 876.686   1
   1  -3   2 2495.29 530.667   1
  -1   3  -2 3252.21 402.010   3
  -1   3  -3 7690.50 724.196   3
   1  -3   3 8774.07 1063.10   1
   1  -3   4-211.176 169.345   1
  -1   3  -4 110.478 93.8918   3
   1  -3   5 11863.7 1396.79   1
  -1   3  -6 31250.6 1354.84  18
   1  -3   6 33548.7 1410.79  19
   1  -3   6 33624.0 2493.21   1
  -1   3  -7 108.418 117.445  18
   1  -3   7 92.5283 109.926  19
  -1   3  -8-354.777 194.495  18
  -1   3  -9 32.6840 167.538  18
  -1   3 -10-120.967 169.622  18
  -1   3 -10-84.7508 138.068   5
  -1   3 -11 792.770 253.314  18
  -1   3 -11 623.438 186.659   5
   1  -2 -13 1591.96 216.113   4
   1  -2 -12 677.233 215.991   4
   1  -2 -11 341.499 209.514   5
   1  -2 -11 462.708 206.910   4
   1  -2 -11 404.951 249.487   7
   1  -2 -10 16235.8 1046.64   7
   1  -2 -10 14924.7 1018.00   5
   1  -2 -10 15635.0 1047.03   4
   1  -2  -9 6450.99 673.828   7
   1  -2  -9 6390.94 672.559   5
   1  -2  -8 28092.6 1333.52   5
   1  -2  -8 27744.5 1342.28   7
   1  -2  -7 410.969 153.379   5
   1  -2  -7 782.999 248.957   7
   1  -2  -6 56619.0 2454.80   9
   1  -2  -5 2159.32 609.917   3
   1  -2  -5 1736.84 398.125   9
  -1   2   5 1708.82 382.389   2
  -1   2   4 86747.7 2697.87   2
   1  -2  -4 82409.6 2485.53   9
   1  -2  -4 83565.3 3159.83   3
  -1   2   3 4342.43 588.373   2
   1  -2  -3 4038.92 508.253   9
  -1   2   2 256549. 4199.18   2
   1  -2  -2 254151. 3840.39   9
  -1   2   1 227870. 3831.12   2
   1  -2   0 936200. 7801.59   1
   1  -2   1 56916.8 2000.63   1
   1  -2   2 691.426 257.876   1
  -1   2  -2 919.613 222.354   3
  -1   2  -3 12719.9 964.671   3
   1  -2   3 12486.9 1066.81   1
  -1   2  -4-190.019 145.970   3
   1  -2   4-25.4284 75.1779   1
   1  -2   5 27734.0 1824.80   1
  -1   2  -5 29107.4 1866.44   3
   1  -2   6 10986.7 1222.52   1
  -1   2  -6 11721.4 1339.45   3
  -1   2  -7 544.190 194.751   6
   1  -2   7 872.755 228.163  19
  -1   2  -7 1052.42 249.505  18
  -1   2  -8 17108.1 1107.84  18
  -1   2  -9 58.8996 196.024  18
  -1   2 -10 6171.20 697.940  18
  -1   2 -11 1977.78 346.070   5
  -1   2 -11 2070.27 390.863  18
  -1   2 -12 546.251 166.315   5
   1  -1 -13 3647.86 331.369   4
   1  -1 -12 1133.02 264.943   4
   1  -1 -11 476.725 223.845   5
   1  -1 -11 399.760 226.323   4
   1  -1 -10 1064.32 310.556   5
   1  -1 -10 1222.71 293.086   7
   1  -1  -9 2001.34 413.264  18
   1  -1  -9 1559.38 334.056   7
   1  -1  -9 1652.70 369.567   5
   1  -1  -8 378.212 181.274   5
   1  -1  -8 71.9987 99.9737   7
   1  -1  -8 258.009 136.560  18
   1  -1  -7 20830.1 1132.63  18
   1  -1  -7 20409.9 1066.80   5
   1  -1  -6 2913.83 698.301   3
  -1   1   5 3350.19 505.486   1
   1  -1  -5 5139.97 847.542   3
  -1   1   5 4307.28 614.998   2
   1  -1  -4 356772. 6246.28   3
  -1   1   4 366469. 5220.80   2
  -1   1   3 550.187 212.587   2
   1  -1  -3 546.369 225.985   3
   1  -1  -2 46140.1 1151.35   9
  -1   1   2 48671.1 1610.53   2
  -1   1   1 11098.4 712.161   2
  -1   1   0 16923.0 836.689   2
   1  -1   1 167857. 2705.56   1
  -1   1  -2 259403. 3695.85   3
   1  -1   2 265893. 3654.32   1
  -1   1  -3 7427.82 742.139   3
   1  -1   3 7983.15 694.908   1
   1  -1   4 112992. 2810.68   1
  -1   1  -4 112024. 3299.95   3
   1  -1   5 19380.2 1247.61   1
  -1   1  -5 26913.0 1838.94   3
  -1   1  -6 13038.6 1431.24   3
  -1   1  -7 18068.7 1025.72   6
  -1   1  -7 18393.4 1044.86  18
  -1   1  -8 33.7553 93.1825  18
  -1   1  -8 102.756 100.610   6
  -1   1  -9 6188.35 1351.18   3
  -1   1  -9 9343.05 850.130  18
  -1   1 -10 8142.94 798.984  18
  -1   1 -11 13036.2 952.947  18
  -1   1 -11 13005.5 897.311   5
  -1   1 -12 114.865 121.349   5
  -1   1 -13 46.3320 81.7387   4
   1   0 -13 4996.84 376.324   4
   1   0 -12 5759.56 531.132   4
   1   0 -11 146.241 173.185   5
   1   0 -10 787.942 302.936   5
   1   0 -10 993.974 302.041  18
   1   0  -9 9624.59 888.964  18
   1   0  -9 9384.32 819.022   5
   1   0  -8 16275.5 1081.00  18
   1   0  -8 17546.0 1052.54   5
   1   0  -7 28705.4 1329.56  18
  -1   0   6 5520.70 749.137   1
   1   0  -6 6615.37 1053.43   3
  -1   0   5 65258.9 2397.02   1
   1   0  -5 70440.8 3038.39   3
  -1   0   4 106176. 2824.81   1
   1   0  -4 100915. 3204.85   3
   1   0  -3 4877.48 608.082   3
  -1   0   3 5161.28 581.545   2
  -1   0   2 32649.9 1290.94   2
  -1   0   1 2188.62 305.420   2
  -1   0   0 24781.1 845.878   2
  -1   0  -1 222977. 2183.83   2
  -1   0  -2 999999. 7230.24   3
   1   0   3 74206.0 1435.99   1
  -1   0  -3 83160.5 2486.26   3
   1   0   4 3313.79 334.247   1
  -1   0  -4 5412.38 736.352   3
  -1   0  -5 5676.05 856.839   3
  -1   0  -6 5556.55 955.954   3
  -1   0  -7 22211.4 2126.94   3
  -1   0  -8 2579.83 829.017   3
  -1   0  -8 2152.16 387.078   6
  -1   0  -8 1907.82 363.829  18
  -1   0  -9 1617.87 360.300   6
  -1   0  -9 2142.40 788.246   3
  -1   0  -9 1370.34 341.359  18
  -1   0 -10 36683.7 1678.95  18
  -1   0 -11 8830.77 761.274   5
  -1   0 -11 9805.69 834.660  18
  -1   0 -12-14.0521 127.189   5
  -1   0 -13 1501.10 218.730   5
  -1   0 -13 1157.72 207.047   4
   1   1 -13 2022.22 222.646   4
   1   1 -12 292.438 154.412   4
   1   1 -11 1160.77 292.409   5
   1   1 -10 10613.7 914.622  18
   1   1 -10 10109.5 842.431   5
   1   1  -9 4952.80 605.761   5
   1   1  -9 4975.30 640.256  18
   1   1  -8 44314.0 1785.49  18
   1   1  -8 43003.1 1668.90   5
   1   1  -7 34969.3 1480.51  18
  -1  -1   6 2019.52 517.468   1
  -1  -1   5 223.806 162.145   1
   1   1  -4 5644.96 735.309   3
  -1  -1   4 5009.47 693.558   1
  -1  -1   3 96522.8 2746.61   1
  -1  -1   2 835.375 245.937   1
  -1  -1   1 48.2197 104.175   1
  -1  -1   0 86839.1 1822.90   1
  -1  -1  -1-11.3294 63.6942   3
  -1  -1  -1-3.17576 50.7592   1
  -1  -1  -2 11575.1 820.396   3
  -1  -1  -2 9443.02 305.026   1
  -1  -1  -3 147799. 3422.21   3
  -1  -1  -4 3845.35 617.744   3
  -1  -1  -5 8173.37 1045.21   3
  -1  -1  -6 15381.7 1603.63   3
  -1  -1  -7 900.025 486.232   3
  -1  -1  -8 565.599 203.311  18
  -1  -1  -8 1043.18 279.932   6
  -1  -1  -8 1079.43 548.154   3
  -1  -1  -8 662.051 234.977   7
  -1  -1  -9 140.400 140.119   6
  -1  -1  -9 91.6444 121.898  18
  -1  -1  -9 3.45229 89.6675   7
  -1  -1  -9-363.417 474.187   3
  -1  -1 -10 1727.58 409.722  18
  -1  -1 -10 1576.02 344.245   7
  -1  -1 -11 2094.24 417.537  18
  -1  -1 -11 1957.60 390.030   5
  -1  -1 -12 234.058 166.160   5
  -1  -1 -13 72.2113 92.9146   5
  -1  -1 -13 174.685 111.337   4
   1   2 -12 15.8008 101.623   4
   1   2 -11 1968.31 328.112   5
   1   2 -10 1161.53 303.551   5
   1   2 -10 1445.11 377.558  18
   1   2  -9 7366.34 770.982  18
   1   2  -9 7600.04 725.184   5
   1   2  -8 188.947 137.891   5
   1   2  -8 83.3540 132.476  18
   1   2  -7 6994.43 637.118   5
   1   2  -7 7531.74 705.411  18
  -1  -2   7 7729.16 1243.30   1
  -1  -2   6 2615.45 647.117   1
  -1  -2   5 16302.1 1493.54   1
  -1  -2   4 635.213 280.930   1
  -1  -2   3 58773.7 2413.13   1
  -1  -2   2 523398. 6594.05   1
  -1  -2   1 17706.1 1117.01   1
  -1  -2   0 217191. 3779.04   9
  -1  -2   0 218878. 3543.90   1
  -1  -2  -1 9583.14 828.668   9
  -1  -2  -1 8722.53 640.184   1
  -1  -2  -1 9818.64 648.138   3
  -1  -2  -2 39889.4 1586.67   3
  -1  -2  -2 37491.0 1166.12   1
   1   2   3 25845.4 666.892   2
  -1  -2  -3 39780.4 1846.81   3
  -1  -2  -4 36106.4 2008.04   3
  -1  -2  -5 256.193 165.573   3
  -1  -2  -6 5562.00 995.336   3
  -1  -2  -7 3678.29 473.239   6
  -1  -2  -7 3778.52 469.337   7
  -1  -2  -8 2434.58 411.407   7
  -1  -2  -8 2746.83 432.733   6
  -1  -2  -8 1682.83 324.459  18
  -1  -2  -8 1944.86 750.883   3
  -1  -2  -9 9966.44 866.106   6
  -1  -2  -9 9070.19 790.087   7
  -1  -2  -9 8964.99 1675.11   3
  -1  -2  -9 8301.97 773.014  18
  -1  -2 -10 6112.08 643.398   7
  -1  -2 -10 6030.96 660.030   5
  -1  -2 -11 16074.3 1003.83   5
  -1  -2 -11 15849.8 960.936   7
  -1  -2 -12 504.095 187.210   5
  -1  -2 -12 283.684 158.738   4
  -1  -2 -12 175.932 158.716   7
  -1  -2 -13 1382.45 181.792   4
   1   3 -11 9835.70 634.630   4
  -1  -3  11 7108.49 511.477  12
   1   3 -10 943.151 305.841  18
   1   3 -10 858.182 226.557   5
   1   3  -9 11608.7 848.824   5
   1   3  -9 11927.2 956.829  18
   1   3  -8 40178.1 1739.24  18
   1   3  -8 36464.9 1502.37   5
  -1  -3   8 37389.1 1489.39  13
   1   3  -7 19327.9 1148.82  18
  -1  -3   7 17936.5 2010.72   1
   1   3  -7 16049.6 975.006   5
  -1  -3   6 25647.7 2302.64   1
  -1  -3   6 24779.4 1179.61  13
   1   3  -6 23361.8 1185.03  18
  -1  -3   5 4528.23 893.006   1
  -1  -3   4 91380.8 3769.85   1
  -1  -3   3 19127.9 1587.07   1
  -1  -3   2 23442.6 1617.73   1
  -1  -3   1 42487.4 2063.43   1
  -1  -3   0 15098.6 1240.73   9
  -1  -3   0 14426.2 1131.58   1
  -1  -3  -1 41440.1 1797.30   1
  -1  -3  -1 37831.4 1277.85   3
  -1  -3  -1 40987.3 2040.19   9
  -1  -3  -2 33068.9 1512.98   3
  -1  -3  -2 33302.8 1490.24   1
  -1  -3  -2 32713.3 1906.25   9
  -1  -3  -3 24883.2 1140.06   1
  -1  -3  -3 29514.9 1675.87   3
  -1  -3  -4 45242.4 2349.55   3
  -1  -3  -5 29121.1 2126.17   3
  -1  -3  -6 5973.33 1084.76   3
  -1  -3  -7 4553.45 535.117   7
  -1  -3  -7 4446.02 551.795  11
  -1  -3  -7 4250.93 511.080   6
  -1  -3  -7 4934.20 1083.75   3
  -1  -3  -8 1941.73 736.003   3
  -1  -3  -8 1025.00 277.272   6
  -1  -3  -8 1129.08 274.518   7
  -1  -3  -9 13037.1 980.111   7
  -1  -3  -9 15596.9 2284.23   3
  -1  -3  -9 13587.8 949.429   5
  -1  -3 -10 2950.35 454.139   5
  -1  -3 -10 2462.04 437.335   7
  -1  -3 -11 2635.73 416.486   7
  -1  -3 -11 2535.21 385.568   4
  -1  -3 -11 2785.26 409.597   5
  -1  -3 -12-10.4216 238.505   7
  -1  -3 -12 45.5896 125.144   5
  -1  -4  11 15.2599 76.3399  12
   1   4 -10-98.3415 119.168   4
  -1  -4  10 240.663 131.498  15
   1   4  -9 3494.64 497.121  18
  -1  -4   8 13272.3 910.692  13
   1   4  -8 13262.5 971.374  18
  -1  -4   7 15713.1 2064.54   1
   1   4  -7 15428.6 1036.71  18
   1   4  -6 250.867 141.738  18
  -1  -4   6 167.993 125.740  13
  -1  -4   6 6.84004 212.745   1
  -1  -4   5 295.552 162.419  13
  -1  -4   5 714.970 413.633   1
  -1  -4   4 1686.67 609.135   1
  -1  -4   3 68550.6 3491.08   1
  -1  -4   2 76512.3 3452.69   1
  -1  -4   1 504.062 303.055   1
  -1  -4   0 21573.7 1657.62   1
  -1  -4  -1 2188.67 524.874   1
  -1  -4  -1 2338.41 576.870   9
  -1  -4  -2 32388.4 2184.47   9
  -1  -4  -2 28971.6 1497.20   3
  -1  -4  -2 30570.9 1765.69   1
  -1  -4  -3 5342.93 757.405   3
  -1  -4  -3 5915.56 980.417   9
  -1  -4  -3 5326.46 688.156   1
  -1  -4  -4 6585.38 982.621   3
  -1  -4  -4 6110.14 1040.57   9
  -1  -4  -5 13697.6 1562.45   3
  -1  -4  -5 12671.5 1587.06   9
  -1  -4  -6 3171.78 437.274   7
  -1  -4  -6 3461.86 924.940   3
  -1  -4  -6 4234.64 949.610   9
  -1  -4  -6 3606.55 479.085  11
  -1  -4  -7 4412.08 567.112  11
  -1  -4  -7 3729.96 978.404   9
  -1  -4  -7 3566.24 461.324   6
  -1  -4  -7 4187.00 538.376   7
  -1  -4  -7 4034.93 1009.98   3
  -1  -4  -8 2105.56 389.110   7
  -1  -4  -8 2537.52 899.600   3
  -1  -4  -8 2203.43 777.261   9
  -1  -4  -9 6063.56 688.918   7
  -1  -4 -10 1541.77 375.281   7
  -1  -4 -11 3548.44 471.909   7
  -1  -4 -12 20861.7 932.708   7
  -1  -5  10 867.045 179.947  15
  -1  -5   9 3729.23 456.280  15
  -1  -5   8 42.6767 158.964  13
   1   5  -8 46.6687 119.774  18
  -1  -5   7 2454.80 444.220  13
   1   5  -7 1631.61 324.150  18
  -1  -5   6 22791.0 2591.04   1
  -1  -5   6 22748.8 1284.07  13
  -1  -5   5 14093.4 1960.85   1
  -1  -5   5 12624.2 941.785  13
  -1  -5   4 5254.46 594.180  13
  -1  -5   4 5323.94 1138.80   1
  -1  -5   3 394.301 355.355   1
  -1  -5   2 2295.46 714.497   1
  -1  -5   1 52709.8 3160.31   1
  -1  -5   0 11286.8 1400.17   1
  -1  -5  -1 19411.5 1748.98   1
  -1  -5  -2 754.939 355.195   1
  -1  -5  -3-68.7816 176.551   1
  -1  -5  -3 611.789 374.024   9
  -1  -5  -4 3678.81 935.512   9
  -1  -5  -5 495.774 372.817   9
  -1  -5  -5 682.630 202.127   7
  -1  -5  -5 558.464 212.093  11
  -1  -5  -6 655.125 471.121   9
  -1  -5  -6 680.944 233.744  11
  -1  -5  -6 1210.42 291.126   7
  -1  -5  -7 69307.7 2240.18  11
  -1  -5  -7 67039.2 2169.01   7
  -1  -5  -8 28933.4 1460.43   7
  -1  -5  -9 9811.18 849.530   7
  -1  -5 -10 5443.56 609.368   7
  -1  -5 -11 244.422 296.619   7
  -1  -5 -12 40.5028 185.374   7
  -1  -6   9 1331.92 254.664  15
  -1  -6   8 121.512 132.450  15
  -1  -6   7 9883.17 794.247  13
  -1  -6   6 63.1614 156.218  13
  -1  -6   5 4440.96 1228.74   1
  -1  -6   5 5694.26 658.194  13
  -1  -6   4 5133.40 642.305  13
  -1  -6   4 4726.84 1163.61   1
  -1  -6   3 2549.28 985.565   1
  -1  -6   3 2226.79 370.921  10
  -1  -6   3 3046.06 469.834  13
  -1  -6   2 13763.9 956.226  10
  -1  -6   2 14645.1 992.787  13
  -1  -6   2 13741.6 1909.39   1
  -1  -6   1 40575.8 3137.75   1
  -1  -6   1 41078.3 1609.42  13
  -1  -6   1 40448.2 1622.59  10
  -1  -6   0 35927.2 2842.29   1
  -1  -6   0 34902.3 1424.14   8
  -1  -6   0 33704.8 1465.15  10
  -1  -6  -1 1831.10 605.886   1
  -1  -6  -1 1750.77 401.736   8
  -1  -6  -1 1122.23 253.641  11
  -1  -6  -1 1569.77 333.862  10
  -1  -6  -2 170.562 150.920  11
  -1  -6  -2-146.786 147.295  10
  -1  -6  -2 190.649 328.376   1
  -1  -6  -3 5320.37 584.693  11
  -1  -6  -3 5508.90 625.703   8
  -1  -6  -3 6591.81 661.645  10
  -1  -6  -4 19804.8 1138.95  11
  -1  -6  -4 20691.7 1156.88  10
  -1  -6  -5 7921.29 741.776  11
  -1  -6  -5 7359.72 700.826  10
  -1  -6  -5 7298.99 678.939   7
  -1  -6  -6 3621.02 512.276   7
  -1  -6  -6 3491.42 520.155  11
  -1  -6  -6 3469.23 1018.89   9
  -1  -6  -7 4990.62 609.807   7
  -1  -6  -7 5545.30 654.539  11
  -1  -6  -8 20139.9 1202.27   7
  -1  -6  -9 235.427 216.267   7
  -1  -6 -10-52.7156 334.966   7
  -1  -6 -11-194.333 256.118   7
  -1  -7   8 41.7340 102.438  15
  -1  -7   7 69.8892 146.996  15
  -1  -7   6 1354.65 313.324  13
  -1  -7   5 7439.55 729.831  13
  -1  -7   4 546.811 248.185  13
  -1  -7   3 35134.0 1605.25  13
  -1  -7   3 26453.3 1327.66  10
  -1  -7   2 24017.1 1323.54  10
  -1  -7   2 25057.0 1349.45  13
  -1  -7   1 365.827 249.820  10
  -1  -7   1-60.6900 278.698   1
  -1  -7   1 553.061 253.173  13
  -1  -7   0 2328.28 401.824  13
  -1  -7   0 2809.62 479.978  10
  -1  -7   0 2649.21 413.268  11
  -1  -7   0 2367.93 886.902   1
  -1  -7  -1 1621.41 338.878  11
  -1  -7  -1 928.966 528.107   1
  -1  -7  -1 2093.50 433.537  10
  -1  -7  -2 3037.35 465.927  11
  -1  -7  -2 3333.23 509.598  10
  -1  -7  -3 1271.23 347.247   8
  -1  -7  -3 1111.11 331.953  10
  -1  -7  -3 1059.90 285.887  11
  -1  -7  -4 1601.15 379.080  11
  -1  -7  -4 1644.34 375.603   8
  -1  -7  -4 2323.39 449.513  10
  -1  -7  -5 207.063 189.934  10
  -1  -7  -5-207.292 207.743  11
  -1  -7  -6 22279.5 1204.30  10
  -1  -7  -6 24844.2 1295.03  11
  -1  -7  -6 22259.1 1186.38   7
  -1  -7  -7 11101.5 859.426  11
  -1  -7  -7 11243.8 846.527   7
  -1  -7  -8 11817.6 857.485   7
  -1  -7 -10 18322.4 865.604   7
  -1  -7 -10 19264.0 915.648   8
  -1  -7 -11 482.671 154.148   8
  -1  -7 -11 1312.66 227.851   7
  -1  -8   7 91.6465 99.6523  15
  -1  -8   7 51.5668 74.2383  12
  -1  -8   6 996.174 214.687  12
  -1  -8   6 1522.31 281.418  15
  -1  -8   5 21.4287 145.870  13
  -1  -8   5 249.527 167.941  15
  -1  -8   4 2347.65 413.773  15
  -1  -8   4 2120.77 374.417  13
  -1  -8   3 9566.37 808.824  15
  -1  -8   3 8759.03 763.673  13
  -1  -8   3 8990.28 727.187  10
  -1  -8   2 5.34778 190.780  13
  -1  -8   2 120.220 202.844  10
  -1  -8   2-57.0067 150.888  15
  -1  -8   1 13734.4 949.687  15
  -1  -8   1 14505.9 1047.77  10
  -1  -8   1 15444.8 1010.70  13
  -1  -8   0 1638.12 400.296  10
  -1  -8   0 1436.40 338.877  13
  -1  -8  -1 988.031 332.864  10
  -1  -8  -2 6912.14 752.137  10
  -1  -8  -3 569.497 264.843  10
  -1  -8  -3 4272.54 721.571   8
  -1  -8  -4 1045.40 309.399  11
  -1  -8  -4 1597.23 384.443  10
  -1  -8  -5 3722.74 477.414  11
  -1  -8  -5 4261.02 552.845  10
  -1  -8  -5 4837.05 603.746   8
  -1  -8  -6 7728.59 654.209  11
  -1  -8  -6 7824.71 668.348  10
  -1  -8  -6 8414.88 764.487   8
  -1  -8  -7 10070.1 785.103   8
  -1  -8  -8-114.328 69.0029   7
  -1  -8  -8 4.88822 223.645   8
  -1  -8  -9-9.77516 50.4255   7
  -1  -8  -9 73.8703 179.493   8
  -1  -8 -10 1558.09 222.919   8
  -1  -9   5 1253.88 196.007  15
  -1  -9   4 134.538 122.220  15
  -1  -9   3 5137.09 468.392  15
  -1  -9   2 672.856 218.331  10
  -1  -9   1 3398.90 462.556  10
  -1  -9   0 550.158 235.770  10
  -1  -9  -1 233.450 229.567  10
  -1  -9  -2 8407.53 755.405  10
  -1  -9  -3 357.653 217.455  10
  -1  -9  -4 1210.62 301.794  10
  -1  -9  -5 11513.4 794.659   8
  -1  -9  -5 3100.71 410.388  10
  -1  -9  -6 7583.30 627.512   8
  -1  -9  -6-119.250 106.487  10
  -1  -9  -7 6763.33 532.433   8
  -1  -9  -8 7269.94 460.977   8
  -1 -10   0 11809.9 663.670  10
  -1 -10  -1 4328.82 427.396  10
  -1 -10  -2 235.144 149.885  10
  -1 -10  -3 5259.95 459.628  10
  -1 -10  -4 1204.72 221.652  10
   2 -10  -4 696.394 176.648  10
   2 -10  -3 1634.09 257.781  10
   2 -10  -2 35.5612 107.261  10
   2 -10  -1 30.6224 109.308  10
   2 -10   0 6503.06 455.221  10
   2  -9  -6-69.1455 110.793  10
   2  -9  -5-119.087 144.354  10
   2  -9  -4 16.1264 163.561  10
   2  -9  -3 3414.19 460.805  10
   2  -9  -2 802.433 256.856  10
   2  -9  -1 126.691 190.722  10
   2  -9   0 15.4884 167.749  10
   2  -9   1 200.663 174.543  10
   2  -9   1 6.41012 126.732  13
   2  -9   2 15600.3 827.511  13
   2  -9   2 14159.3 755.842  10
   2  -9   3 970.546 232.661  13
   2  -9   4-71.6486 102.229  13
   2  -9   5 630.878 145.473  13
   2  -8  -8 3739.66 367.407   8
   2  -8  -8-59.6121 62.6545   7
   2  -8  -7 2662.24 383.667   8
   2  -8  -6 2169.72 360.591  10
   2  -8  -6 4008.39 494.485   8
   2  -8  -5 5962.25 617.584   8
   2  -8  -5 3742.48 510.479  10
   2  -8  -4 4964.14 613.766   8
   2  -8  -4 1606.81 378.841  10
   2  -8  -3 20998.4 1234.31  10
   2  -8  -2 277.980 236.035  10
   2  -8  -1 1597.31 385.044  10
   2  -8   0 13820.2 1005.74  10
   2  -8   1 105.058 140.672  19
   2  -8   1-47.5549 169.622  10
   2  -8   2 22564.2 1175.75  10
   2  -8   2 23552.0 1195.70  19
   2  -8   3 526.189 228.839  19
   2  -8   4-20.8880 152.584  13
   2  -8   5 13954.2 852.172  13
   2  -8   6 7.08420 121.876  13
   2  -8   7 404.373 125.617  13
   2  -7 -10 1003.95 271.440   7
   2  -7  -9 1111.58 366.427   7
   2  -7  -8 7787.00 711.708   7
   2  -7  -8 5575.24 564.437   8
   2  -7  -7 2592.24 520.153   7
   2  -7  -7 719.852 268.064   8
   2  -7  -6 5251.96 637.262   7
   2  -7  -6 4356.69 555.743  10
   2  -7  -6 3403.96 507.559   8
   2  -7  -5 1834.21 433.618   7
   2  -7  -5 1260.45 358.397  10
   2  -7  -5 793.758 345.068   8
   2  -7  -4 15252.2 1075.91  10
   2  -7  -4 11137.9 887.079   8
   2  -7  -3 1701.29 408.953  10
   2  -7  -3 1004.03 335.188   8
  -2   7   3 1516.64 694.178   2
   2  -7  -2 2324.81 500.025   8
  -2   7   2 1561.30 697.810   2
   2  -7  -2 1427.81 358.896  10
  -2   7   1 15555.5 2133.53   2
   2  -7  -1 17093.0 1134.88  10
   2  -7   0 9452.72 843.904  10
  -2   7   0 9638.45 1669.95   2
   2  -7   1 2199.84 405.432  19
  -2   7  -1 1656.13 738.826   2
   2  -7   1 1977.47 400.906  10
   2  -7   2-5.43799 128.590  10
  -2   7  -2-397.853 557.879   2
   2  -7   2-62.0260 167.052  19
   2  -7   3 30.6069 134.168  10
   2  -7   3-40.2540 172.857  19
   2  -7   4 1385.22 346.398  19
   2  -7   5 177.286 193.148  19
   2  -7   6 7289.36 670.787  13
   2  -7   7 6739.09 576.170  13
   2  -7   8 14052.1 664.958  13
   2  -6 -11 1009.57 290.176   7
   2  -6 -10 1315.65 390.699   7
   2  -6  -9 2745.50 520.262   7
   2  -6  -8 1135.14 405.693   7
   2  -6  -7 219.233 313.725   7
   2  -6  -6 280.997 218.266  10
   2  -6  -6 154.284 294.468   7
   2  -6  -5 832.800 261.898  10
   2  -6  -5 658.360 299.879   7
   2  -6  -4 168.520 134.073  10
   2  -6  -4 388.535 245.355   7
  -2   6   4 653.270 566.197   2
  -2   6   3-310.609 287.621   2
  -2   6   2 4312.92 1016.42   2
   2  -6  -2 3132.36 447.175   8
  -2   6   1 17165.7 2060.19   2
   2  -6  -1 13469.4 885.004   8
   2  -6  -1 16064.5 1027.83  10
   2  -6   0 1392.58 312.295  10
  -2   6   0 2042.35 700.973   2
   2  -6   1 3634.94 497.601  10
  -2   6  -1 2655.69 891.434   2
  -2   6  -2 1684.43 733.157   2
   2  -6   2 1483.89 316.796  19
   2  -6   2 929.590 256.550  10
  -2   6  -3 29046.1 2893.55   2
   2  -6   3 30619.6 1471.20  19
  -2   6  -3 25376.3 1238.86  18
  -2   6  -4 2115.47 821.513   2
   2  -6   4 2475.83 444.058  19
  -2   6  -4 2548.01 390.211  18
   2  -6   5 424.838 265.404  19
  -2   6  -5 309.949 170.278  18
   2  -6   6 294.121 223.154  19
  -2   6  -6 314.518 195.511  18
   2  -6   7 5806.64 618.770  13
  -2   6  -7 5343.10 562.606  18
  -2   6  -8 700.224 209.771  18
   2  -6   8 1068.10 262.546  13
  -2   6  -9 3194.86 329.495  18
   2  -6   9 2723.02 285.601  13
   2  -5 -12 397.139 177.109   7
   2  -5 -11 1804.70 381.375   7
   2  -5 -10 1570.41 443.239   7
   2  -5  -9 2323.93 485.517   7
   2  -5  -8 13421.0 1028.39   7
   2  -5  -7 19096.1 1196.14   7
   2  -5  -6 32571.0 1498.91   7
   2  -5  -5 12427.9 904.596   7
   2  -5  -4 808.652 258.285   7
  -2   5   4 1395.29 566.666   2
  -2   5   3 3095.56 771.199   2
  -2   5   2 138.896 195.075   2
  -2   5   1 2.64591 156.046   2
  -2   5   0 24569.2 2206.23   2
  -2   5  -1 99988.6 4535.89   2
   2  -5   2 26527.5 2423.78   1
   2  -5   3 8660.32 1474.93   1
  -2   5  -3 7462.74 660.171  18
   2  -5   4 15349.9 2004.82   1
  -2   5  -4 13157.8 900.711  18
   2  -5   4 16002.9 1044.45  19
  -2   5  -5 897.338 236.599  18
   2  -5   5 855.489 255.678  19
  -2   5  -6 1746.22 376.729  18
   2  -5   6 2370.41 460.131  19
   2  -5   7 889.129 307.504  19
  -2   5  -7 858.625 280.921  18
  -2   5  -8 5120.25 592.995  18
   2  -5   8 4907.53 556.338  13
  -2   5  -9 4391.91 502.190  18
   2  -5   9 3943.17 414.799  13
  -2   5 -10 75.5020 103.086  18
   2  -4 -12 3106.67 366.902   7
   2  -4 -11 3289.80 498.555   7
   2  -4 -11 2619.51 360.667   4
   2  -4 -10 5912.61 572.502  21
   2  -4 -10 5626.64 589.388   4
   2  -4 -10 6774.69 716.533   7
   2  -4  -9 77.7309 246.559   7
   2  -4  -9-171.090 190.220   4
   2  -4  -8 18441.8 1121.03   4
   2  -4  -8 17528.5 1152.33   7
   2  -4  -7 17726.8 1072.76   4
   2  -4  -7 19885.5 1197.63   7
   2  -4  -6 402.528 166.587   7
   2  -4  -6 782.670 228.570   4
  -2   4   5-281.297 338.125   2
   2  -4  -5 19.2436 230.484   7
  -2   4   4 11525.1 1403.83   2
  -2   4   3 1116.63 424.323   2
  -2   4   2 310441. 6923.33   2
  -2   4   1 89416.3 3660.71   2
  -2   4   0 22402.5 1841.32   2
   2  -4   1 2770.22 661.845   1
   2  -4   2 27036.7 2157.84   1
   2  -4   3 1169.88 502.086   1
   2  -4   4 825.473 463.701   1
  -2   4  -5 1871.07 332.815  18
   2  -4   5 2195.37 374.155  19
   2  -4   5 1205.78 554.702   1
   2  -4   6 5522.51 632.549  19
  -2   4  -6 5704.41 625.970  18
   2  -4   7 14370.0 1027.84  19
  -2   4  -7 12633.4 965.771  18
  -2   4  -8 2984.79 487.482  18
  -2   4  -9 17237.2 1088.03  18
  -2   4 -10 92.7731 129.755   5
  -2   4 -10 301.062 170.686  18
  -2   4 -11 2972.54 347.089  18
   2  -3 -12 1233.29 251.446   7
   2  -3 -12 2231.17 308.951   4
   2  -3 -11 2921.68 418.132   4
   2  -3 -11 3111.46 474.623   7
   2  -3 -10 744.328 336.305   7
   2  -3 -10 681.779 249.925   4
   2  -3  -9 1469.30 381.704   7
   2  -3  -9 1443.07 341.778   4
   2  -3  -8 142.188 225.189   7
   2  -3  -8 338.765 201.794   4
   2  -3  -7 3236.79 447.617   4
   2  -3  -7 3099.80 460.381   7
   2  -3  -7 2976.62 437.498   5
  -2   3   6 16385.2 1572.23   2
   2  -3  -6 16955.3 1002.34   7
  -2   3   5 23199.4 1868.12   2
  -2   3   4 81926.7 3396.64   2
  -2   3   3 15812.4 1439.78   2
  -2   3   2 47150.6 2388.55   2
  -2   3   1-380.853 217.602   2
  -2   3   0 293.627 186.193   2
   2  -3   1 4096.82 708.223   1
   2  -3   2 74.8118 164.298   1
  -2   3  -3 10510.5 1028.30   3
   2  -3   3 11970.8 1310.26   1
   2  -3   4 20248.8 1781.77   1
  -2   3  -4 19503.7 1537.73   3
   2  -3   5 43167.3 2726.59   1
  -2   3  -5 42123.2 2448.08   3
  -2   3  -6 25.0790 49.7449  18
   2  -3   6 192.168 130.133  19
  -2   3  -7 937.427 265.175  18
   2  -3   7 1058.91 290.225  19
  -2   3  -8 452.729 229.942  18
  -2   3  -9-9.00856 183.679  18
  -2   3 -10 1046.99 301.798  18
  -2   3 -11 275.366 137.569   5
  -2   3 -11 187.074 162.220  18
  -2   3 -12 1373.89 213.132  18
   2  -2 -12 5279.89 483.846   4
   2  -2 -11 626.004 238.624   4
   2  -2 -11 948.101 252.178   7
   2  -2 -10 210.876 223.916   4
   2  -2 -10 358.194 229.956   7
   2  -2  -9 34195.9 1552.47   7
   2  -2  -9 33425.0 1527.82   5
   2  -2  -9 33619.1 1537.82   4
   2  -2  -8 1524.64 358.169   7
   2  -2  -8 1593.20 349.966   4
   2  -2  -8 1654.86 337.628   5
   2  -2  -7 3646.18 474.919   5
   2  -2  -7 3515.74 476.315   7
  -2   2   6 27790.8 1966.66   2
  -2   2   5 370.637 241.255   2
  -2   2   4 14268.1 1323.84   2
  -2   2   3 89990.8 3134.14   2
  -2   2   2 15749.9 1252.29   2
  -2   2   1 55816.2 2248.04   2
  -2   2   0 485093. 6504.30   2
  -2   2  -1 561274. 6990.81   2
   2  -2   2 1358.18 381.419   1
  -2   2  -3 135.756 155.958   3
   2  -2   3 111.603 115.667   1
   2  -2   4 17210.7 1421.08   1
  -2   2  -4 17375.2 1459.76   3
   2  -2   5 42597.5 2331.28   1
  -2   2  -5 45293.9 2594.90   3
  -2   2  -6 23450.8 1149.65  18
  -2   2  -6 25176.8 2115.39   3
  -2   2  -7 6959.56 1216.74   3
   2  -2   7 6276.46 636.900  19
  -2   2  -7 6137.83 611.039   6
  -2   2  -7 8221.91 731.835  18
  -2   2  -8 141.817 129.456   6
  -2   2  -8-156.371 145.923  18
  -2   2  -9 2972.93 502.874  18
  -2   2 -10 2864.90 491.940  18
  -2   2 -11 4373.06 526.514  18
  -2   2 -11 3946.96 463.589   5
  -2   2 -12 132.239 119.757   5
  -2   2 -12-7.75254 108.611  18
   2  -1 -13 15.9432 72.0458   4
   2  -1 -12 6859.49 560.822   4
   2  -1 -11 14145.7 925.748   4
   2  -1 -10 580.737 254.950   4
   2  -1 -10 819.713 284.999   5
   2  -1 -10 781.375 242.797   7
   2  -1  -9 2348.33 399.582   7
   2  -1  -9 2267.50 429.583   5
   2  -1  -8 2131.43 366.309   7
   2  -1  -8 3577.18 493.390   5
   2  -1  -7 439.097 180.613   7
   2  -1  -7 450.890 161.254   5
  -2   1   6 681.569 292.295   1
  -2   1   5 31123.4 1972.15   2
  -2   1   4 5907.47 824.450   2
  -2   1   3 92287.8 3004.99   2
  -2   1   2 27895.7 1540.95   2
  -2   1   1 54540.5 2024.96   2
  -2   1   0 65733.3 2119.93   2
  -2   1  -1 3346.60 474.709   2
  -2   1  -2 219577. 3774.39   2
  -2   1  -3 279394. 4364.40   2
  -2   1  -3 278191. 5194.54   3
  -2   1  -4 134582. 3983.53   3
  -2   1  -5 49332.3 2745.28   3
  -2   1  -5 47618.2 1936.71   2
  -2   1  -6 20813.3 1932.48   3
  -2   1  -7 3261.49 839.535   3
  -2   1  -7 2565.35 399.423   6
  -2   1  -7 2512.90 382.048  18
  -2   1  -8 919.616 495.334   3
  -2   1  -8 569.429 198.658  18
  -2   1  -8 432.659 187.138   6
  -2   1  -9 2412.72 831.080   3
  -2   1  -9 2618.44 449.423   6
  -2   1  -9 3334.50 511.870  18
  -2   1 -10 3902.34 557.033  18
  -2   1 -11 33741.1 1476.88  18
  -2   1 -12 4391.97 441.851   5
  -2   1 -12 4495.43 460.318  18
  -2   1 -13-3.33472 49.8785   5
  -2   1 -13-16.0595 70.7860   4
   2   0 -12 569.308 188.590   4
   2   0 -11 6125.94 611.169   4
   2   0 -10 12190.9 915.990   4
   2   0 -10 11603.5 901.079   5
   2   0  -9 15784.5 1057.26   5
   2   0  -8 4224.97 566.648  18
   2   0  -8 4176.74 530.572   5
   2   0  -7 16667.8 1056.91  18
   2   0  -7 16797.7 995.925   5
  -2   0   6 9116.36 1133.67   1
  -2   0   5 13680.9 1314.15   1
  -2   0   4 1088.58 364.604   2
  -2   0   3 9009.73 930.934   2
  -2   0   2 7117.39 765.229   2
  -2   0   1 171424. 3441.54   2
  -2   0   0 47422.0 1674.35   2
  -2   0  -1 103297. 2280.61   2
  -2   0  -2 149917. 2607.53   2
  -2   0  -3 2431.26 316.086   2
  -2   0  -3 2721.04 515.229   3
  -2   0  -4 16186.4 759.207   2
  -2   0  -4 23279.9 1659.17   3
  -2   0  -5 43255.2 2546.94   3
  -2   0  -6 45061.8 2844.33   3
  -2   0  -7 90.0676 269.244   3
  -2   0  -7 60.5583 58.0010   6
  -2   0  -7 153.876 119.686  18
  -2   0  -8 2842.17 452.522  18
  -2   0  -8 3047.17 874.002   3
  -2   0  -8 2755.92 432.281   6
  -2   0  -9 3425.46 508.309   6
  -2   0  -9 3550.03 1087.54   3
  -2   0  -9 3677.53 533.447  18
  -2   0 -10 5543.71 661.625   6
  -2   0 -10 5270.15 638.288  18
  -2   0 -11 3806.41 521.789  18
  -2   0 -12 15196.9 855.440   5
  -2   0 -13 1375.46 206.817   5
  -2   0 -13 1108.72 183.016   4
   2   1 -12 449.488 165.579   4
   2   1 -11 136.705 168.762   4
   2   1 -10 119.033 181.996   5
   2   1  -9 38672.6 1627.63   5
   2   1  -9 38871.7 1761.68  18
   2   1  -8 15494.7 1017.01   5
   2   1  -8 15874.8 1098.37  18
  -2  -1   7 492.615 291.516   1
   2   1  -7 1214.77 314.082  18
   2   1  -7 1393.65 290.792   5
  -2  -1   6 25205.7 1994.59   1
  -2  -1   5 171.376 232.436   1
  -2  -1   4 9810.89 1108.46   1
  -2  -1   3 156527. 4097.45   1
  -2  -1   2 5637.52 701.312   2
  -2  -1   1 205346. 2860.48   9
  -2  -1   1 210053. 3900.56   2
  -2  -1   0 4139.76 508.159   2
  -2  -1  -1 5209.61 503.391   2
  -2  -1  -2 37277.9 1710.62   3
  -2  -1  -2 33086.2 1036.42   2
  -2  -1  -3 18418.9 678.523   1
  -2  -1  -3 28248.9 1633.73   3
  -2  -1  -4 319.086 265.551   3
  -2  -1  -5 6864.94 1019.16   3
  -2  -1  -6 31600.4 2412.36   3
  -2  -1  -7 1700.00 320.012   6
  -2  -1  -7 2032.94 678.967   3
  -2  -1  -8-234.840 188.503   7
  -2  -1  -8-21.8296 339.642   3
  -2  -1  -8 307.835 176.469   6
  -2  -1  -8 171.546 110.119  18
  -2  -1  -9 1121.44 282.406   7
  -2  -1  -9 1401.73 737.018   3
  -2  -1  -9 1256.05 341.465   6
  -2  -1  -9 1348.30 331.688  18
  -2  -1 -10 9736.67 781.307   7
  -2  -1 -10 10048.9 882.194   6
  -2  -1 -10 10130.5 870.097  18
  -2  -1 -11 56.2474 145.287  18
  -2  -1 -11 176.526 200.095   5
  -2  -1 -12 37.0409 105.889   5
  -2  -1 -13 107.974 73.5855   4
  -2  -1 -13-49.1959 79.6463   5
   2   2 -12 559.405 140.679   4
   2   2 -11 28845.9 1156.08   4
   2   2 -10 19095.8 1063.82   4
   2   2  -9 5432.87 604.028   5
   2   2  -9 4449.93 595.985  18
   2   2  -8 24249.1 1255.19   5
   2   2  -8 23730.3 1344.34  18
   2   2  -7 40883.7 1689.19  18
  -2  -2   7 39507.6 2904.28   1
   2   2  -7 36754.2 1498.85   5
   2   2  -6 10334.3 784.964  18
  -2  -2   6 11592.6 1501.06   1
  -2  -2   5 142.161 173.586   1
  -2  -2   4 26942.7 1968.95   1
  -2  -2   3 15884.6 1414.16   1
  -2  -2   2 204220. 4676.77   1
  -2  -2   1 29716.6 1663.37   1
  -2  -2   1 31041.2 1505.08   9
  -2  -2   0 96969.3 2778.24   1
  -2  -2   0 93752.4 2691.24   9
  -2  -2  -1 55562.1 1943.51   1
  -2  -2  -1 58094.0 1925.53   3
  -2  -2  -2 3861.09 453.750   1
  -2  -2  -2 4461.32 603.509   3
  -2  -2  -3 187.019 87.9754   1
  -2  -2  -3 392.712 236.071   3
  -2  -2  -4 45129.0 2416.79   3
  -2  -2  -5 22084.7 1865.72   3
  -2  -2  -6 37070.6 2683.77   3
  -2  -2  -7 2894.18 407.225   7
  -2  -2  -7 4037.27 978.908   3
  -2  -2  -7 3912.49 515.636  11
  -2  -2  -7 3422.95 465.919   6
  -2  -2  -8 1399.55 302.478   6
  -2  -2  -8 1483.99 695.775   3
  -2  -2  -8 918.130 277.014   7
  -2  -2  -9 11141.5 882.348   7
  -2  -2  -9 10411.1 902.509   6
  -2  -2  -9 9709.14 1819.23   3
  -2  -2 -10 12191.5 971.940   6
  -2  -2 -10 11516.6 884.971   7
  -2  -2 -11 1444.05 305.404   7
  -2  -2 -11 1380.76 316.287   5
  -2  -2 -12 169.678 151.930   5
  -2  -2 -12 22.7197 95.1397   4
   2   3 -11-86.9192 80.5976   4
   2   3 -10 27194.2 1149.32   4
  -2  -3   8 3401.19 492.220  15
   2   3  -8 3070.89 445.169   5
   2   3  -8 4438.35 595.164  18
  -2  -3   7 22583.7 1190.64  13
   2   3  -7 23041.8 1267.38  18
  -2  -3   7 20891.6 2280.14   1
   2   3  -6 49171.0 1755.31  18
  -2  -3   6 53973.8 1792.22  13
  -2  -3   5 12325.5 1577.10   1
  -2  -3   4 1325.31 479.679   1
  -2  -3   3 63350.1 3086.78   1
  -2  -3   2 173353. 4765.62   1
  -2  -3   1 21553.9 1571.77   1
  -2  -3   0 22200.7 1576.50   9
  -2  -3   0 18022.9 859.001   3
  -2  -3   0 22868.3 1519.03   1
  -2  -3  -1 16907.7 1040.32   3
  -2  -3  -1 16618.1 1205.11   1
  -2  -3  -1 16207.0 1387.85   9
  -2  -3  -2 105.589 109.389   3
  -2  -3  -2 203.306 143.098   1
  -2  -3  -2 166.715 187.816   9
  -2  -3  -3 1915.68 471.783   3
  -2  -3  -3 1362.50 270.564   1
  -2  -3  -4 5481.01 889.235   3
  -2  -3  -5 77615.9 3612.25   3
  -2  -3  -6 794.429 439.650   3
  -2  -3  -7 89208.2 2340.57   6
  -2  -3  -7 94234.0 2519.58  11
  -2  -3  -7 95655.3 2466.15   7
  -2  -3  -7 97252.0 4894.83   3
  -2  -3  -8 722.156 453.402   3
  -2  -3  -8 771.518 245.646   7
  -2  -3  -8 637.530 245.274   6
  -2  -3  -9 3845.91 1214.73   3
  -2  -3  -9 5502.08 656.858   6
  -2  -3  -9 5038.57 625.925   7
  -2  -3 -10 294.572 211.999   7
  -2  -3 -10 68.2610 173.745   5
  -2  -3 -11 8.73838 124.420   7
  -2  -3 -11 134.595 165.630   5
  -2  -3 -12 1294.44 260.885   7
  -2  -3 -12 1572.05 248.730   5
  -2  -4  10 988.768 231.881  12
  -2  -4   9 463.201 194.366  15
  -2  -4   8 119.487 208.063  15
   2   4  -8 289.106 182.006  18
  -2  -4   7 4053.78 1067.65   1
   2   4  -7 2967.80 450.961  18
  -2  -4   7 3610.07 506.022  13
  -2  -4   6 7360.22 1453.82   1
  -2  -4   6 7669.78 724.576  13
   2   4  -6 6041.39 634.944  18
  -2  -4   5 4978.35 1161.06   1
  -2  -4   5 5270.85 584.467  13
  -2  -4   4 449.432 415.743   1
  -2  -4   4 623.934 216.256  13
  -2  -4   3 56917.3 3303.83   1
  -2  -4   2 96945.3 4061.64   1
  -2  -4   1 28401.7 2088.34   1
  -2  -4   0 2440.25 593.223   1
  -2  -4  -1 6595.49 1023.31   9
  -2  -4  -1 6371.52 903.257   1
  -2  -4  -2 8142.81 966.654   1
  -2  -4  -2 6940.44 1084.59   9
  -2  -4  -2 6605.20 757.405   3
  -2  -4  -3 62562.4 2373.83   1
  -2  -4  -3 67962.3 2792.74   3
  -2  -4  -4 688.500 316.636   3
  -2  -4  -4 1219.49 545.255   9
  -2  -4  -5 4971.15 965.939   3
  -2  -4  -5 5867.73 1141.62   9
  -2  -4  -6 345.463 337.373   3
  -2  -4  -6-172.785 181.282   9
  -2  -4  -6 149.970 101.222   7
  -2  -4  -6 328.769 138.885  11
  -2  -4  -7 8513.19 784.253  11
  -2  -4  -7 8441.27 770.714   7
  -2  -4  -7 7285.35 684.182   6
  -2  -4  -7 9085.11 1629.16   9
  -2  -4  -7 8768.25 1547.32   3
  -2  -4  -8 25440.8 1371.43   7
  -2  -4  -8 26442.1 1347.55   6
  -2  -4  -8 27243.7 1460.80  11
  -2  -4  -8 21943.0 2567.80   3
  -2  -4  -8 22360.5 2631.87   9
  -2  -4  -9 3948.56 552.178   7
  -2  -4  -9 4423.91 581.765   6
  -2  -4 -10 10011.6 831.241   7
  -2  -4 -11 231.290 202.755   7
  -2  -4 -12 10149.2 636.102   7
  -2  -5  10-43.9564 90.4950  12
  -2  -5   9 516.473 198.717  15
  -2  -5   8 944.155 273.366  15
  -2  -5   6 1502.58 359.693  13
  -2  -5   6 2146.64 859.662   1
  -2  -5   5 12443.2 937.410  13
  -2  -5   5 12667.8 1927.74   1
  -2  -5   4 5172.42 1167.20   1
  -2  -5   4 5573.74 614.924  13
  -2  -5   3 373.394 155.469  13
  -2  -5   3 454.607 165.381  10
  -2  -5   2 2954.01 425.975  13
  -2  -5   2 3133.20 438.953  10
  -2  -5   2 3468.46 893.597   1
  -2  -5   1 13101.1 1654.87   1
  -2  -5   0 352.874 294.964   1
  -2  -5  -1 32727.0 2336.66   1
  -2  -5  -2 9520.10 1443.20   9
  -2  -5  -2 9110.48 1172.05   1
  -2  -5  -3 19185.7 2087.24   9
  -2  -5  -4 17925.9 1070.93  11
  -2  -5  -4 17065.2 2046.28   9
  -2  -5  -5 11504.2 843.960   7
  -2  -5  -5 11899.5 902.235  11
  -2  -5  -5 11067.9 1494.50   3
  -2  -5  -5 11605.5 1763.67   9
  -2  -5  -6-317.234 369.620   9
  -2  -5  -6-16.7008 79.3514  11
  -2  -5  -6 276.569 369.706   3
  -2  -5  -6-17.5314 65.6105   7
  -2  -5  -7 4187.02 564.294   7
  -2  -5  -7 3885.27 1044.20   3
  -2  -5  -7 4417.83 593.659  11
  -2  -5  -7 3296.52 1040.59   9
  -2  -5  -8 22063.5 1275.03   7
  -2  -5  -8 22764.4 1353.13  11
  -2  -5  -9 33036.4 1533.22   7
  -2  -5 -10 4856.70 565.980   7
  -2  -5 -11 501.244 198.431   7
  -2  -5 -12 6.92671 203.510   7
  -2  -6   9 8269.99 542.628  12
  -2  -6   9 7810.12 502.040  15
  -2  -6   8 536.935 204.060  15
  -2  -6   7 2196.71 402.694  15
  -2  -6   6-113.510 189.287  15
  -2  -6   6-53.0727 155.977  13
  -2  -6   5 523.495 251.524  13
  -2  -6   4 3964.60 1118.43   1
  -2  -6   4 3298.42 506.391  13
  -2  -6   3 2182.45 415.562  13
  -2  -6   3 1247.60 305.364  10
  -2  -6   3 1378.31 639.060   1
  -2  -6   2 11922.7 1826.65   1
  -2  -6   2 12376.4 918.742  13
  -2  -6   2 11903.1 906.229  10
  -2  -6   1 20321.1 1143.08  13
  -2  -6   1 21698.6 1219.67  10
  -2  -6   1 22129.6 1231.59  15
  -2  -6   1 22148.2 2392.34   1
  -2  -6   0 13219.9 931.989  15
  -2  -6   0 12878.9 890.979  13
  -2  -6   0 16827.2 1066.66  10
  -2  -6   0 15818.4 1924.56   1
  -2  -6  -1 1614.75 646.682   1
  -2  -6  -1 1655.19 355.162  10
  -2  -6  -1 2312.76 463.851   8
  -2  -6  -2 82.0333 138.337  10
  -2  -6  -2 336.719 177.371  11
  -2  -6  -2 241.636 405.487   1
  -2  -6  -2-267.334 343.175   8
  -2  -6  -3 7957.33 749.487  11
  -2  -6  -3 8647.32 776.908  10
  -2  -6  -3 6499.52 697.611   8
  -2  -6  -4 778.872 251.639  10
  -2  -6  -4 591.279 226.533  11
  -2  -6  -4 1023.17 578.647   9
  -2  -6  -5 60.6964 72.7545   7
  -2  -6  -5-25.1246 138.923  11
  -2  -6  -5 89.1657 139.853  10
  -2  -6  -6 734.550 271.812   7
  -2  -6  -6 700.163 279.598  11
  -2  -6  -6 1143.79 848.970   9
  -2  -6  -7 304.373 201.134   7
  -2  -6  -7 125.040 226.027  11
  -2  -6  -8 3556.22 508.021   7
  -2  -6  -8 3598.42 544.117  11
  -2  -6  -9 345.077 214.470   7
  -2  -6 -10 7102.32 612.125   7
  -2  -6 -11-76.1663 250.111   7
  -2  -7   8 3241.10 331.621  12
  -2  -7   8 3495.65 346.241  15
  -2  -7   7 547.218 184.065  12
  -2  -7   7 449.114 200.373  15
  -2  -7   6 515.270 233.210  15
  -2  -7   5 2061.25 403.797  13
  -2  -7   5 2153.23 445.319  15
  -2  -7   4-26.6352 196.400  15
  -2  -7   4-37.3545 189.524  13
  -2  -7   3 2926.81 503.469  15
  -2  -7   3 3227.12 507.048  13
  -2  -7   3 2939.28 458.968  10
  -2  -7   2 10287.7 874.501  10
  -2  -7   2 7613.82 1619.61   1
  -2  -7   2 10639.6 916.624  15
  -2  -7   2 10107.7 860.122  13
  -2  -7   1 1907.51 418.075  15
  -2  -7   1 1704.39 359.606  13
  -2  -7   1 2262.58 947.596   1
  -2  -7   1 2020.07 431.755  10
  -2  -7   0 25134.7 1313.98  15
  -2  -7   0 25257.6 1286.37  13
  -2  -7   0 27206.8 1445.98  10
  -2  -7  -1 22051.1 1271.82  11
  -2  -7  -1 23285.7 1340.61  10
  -2  -7  -2 8412.99 796.593  11
  -2  -7  -2 8900.67 854.394  10
  -2  -7  -3 1069.31 333.647  11
  -2  -7  -3 922.161 333.995  10
  -2  -7  -3 1346.39 403.851   8
  -2  -7  -4-493.252 318.325   8
  -2  -7  -4 170.334 235.501  11
  -2  -7  -4 203.759 216.984  10
  -2  -7  -5 7430.44 753.845  11
  -2  -7  -5 6846.23 694.369  10
  -2  -7  -5 6803.77 723.577   8
  -2  -7  -6-2.46580 121.137   7
  -2  -7  -6 181.115 204.552  11
  -2  -7  -7 107.444 155.741   7
  -2  -7  -7 442.994 243.321  11
  -2  -7  -7-165.935 343.673   8
  -2  -7  -8 1585.40 328.771   7
  -2  -7  -8 1156.18 333.768   8
  -2  -7 -10 117.950 234.865   7
  -2  -7 -10 223.826 168.660   8
  -2  -8   7 2786.60 267.753  15
  -2  -8   6 27.5910 110.089  12
  -2  -8   6 44.6738 113.821  15
  -2  -8   5 312.136 168.428  15
  -2  -8   5 444.712 162.973  12
  -2  -8   4 1217.71 299.056  15
  -2  -8   4 811.621 250.127  12
  -2  -8   3-14.7638 165.416  15
  -2  -8   2 15189.0 1009.08  15
  -2  -8   2 13371.6 908.974  11
  -2  -8   2 14643.7 978.353  10
  -2  -8   1 2235.83 401.361  15
  -2  -8   1 1842.28 376.342  11
  -2  -8   1 2292.97 427.086  10
  -2  -8   0 38186.6 1577.82  11
  -2  -8   0 40163.3 1725.71  10
  -2  -8  -1 966.793 290.811  11
  -2  -8  -1 1449.37 385.666  10
  -2  -8  -2 6729.60 689.563  11
  -2  -8  -2 7122.04 754.675  10
  -2  -8  -3 12959.1 939.624  11
  -2  -8  -3 13462.1 1005.19  10
  -2  -8  -4 3830.73 538.007  10
  -2  -8  -4 3764.51 521.645  11
  -2  -8  -5 7311.38 686.131  11
  -2  -8  -5 7549.82 699.688  10
  -2  -8  -5 9175.83 811.098   8
  -2  -8  -6 280.847 194.758  11
  -2  -8  -6 80.6103 137.368  10
  -2  -8  -7 2380.38 403.635   8
  -2  -8  -8 2827.65 391.176   8
  -2  -8  -9 888.606 235.573   8
  -2  -9   4-212.194 117.943  15
  -2  -9   3 848.542 198.586  15
  -2  -9   1 319.626 189.982  10
  -2  -9   0 2069.07 365.025  10
  -2  -9  -1 721.549 252.377  10
  -2  -9  -2 257.431 147.384  11
  -2  -9  -2 1384.57 328.277  10
  -2  -9  -3-5.48357 123.490  11
  -2  -9  -3 35.0457 159.738  10
  -2  -9  -4 152.815 116.581  11
  -2  -9  -4 8860.63 697.606  10
  -2  -9  -5 121.395 116.844  11
  -2  -9  -5 8700.10 626.435  10
  -2  -9  -7 8014.72 531.486   8
   3 -10  -3 173.599 96.1449  10
   3 -10  -2 1220.82 204.041  10
   3 -10  -1 1291.42 203.785  10
   3  -9  -6 134.069 104.825  10
   3  -9  -5 10254.1 642.800  10
   3  -9  -4 8310.97 633.439  10
   3  -9  -3 1142.32 279.350  10
   3  -9  -2 2026.43 349.812  10
   3  -9  -1 650.409 226.589  10
   3  -9   0 5053.38 515.371  10
   3  -9   1 1634.22 284.893  10
   3  -9   1-46.3093 89.2409  13
   3  -9   2-16.2403 90.4332  13
   3  -9   3 3202.99 344.688  13
   3  -9   4 7670.05 474.240  13
   3  -8  -7 264.172 120.230  10
   3  -8  -6 2921.57 392.541  10
   3  -8  -5 6045.08 610.628  10
   3  -8  -4 1615.28 359.669  10
   3  -8  -3 442.066 248.584  10
   3  -8  -2 6510.56 694.761  10
   3  -8  -1 14149.8 995.508  10
   3  -8   0 2968.94 476.049  10
   3  -8   1 4.20402 138.418  10
   3  -8   1-150.040 159.733  19
   3  -8   2 35.4318 181.840  10
   3  -8   2-3.14242 124.071  19
   3  -8   3 186.622 165.372  19
   3  -8   4 795.805 253.090  19
   3  -8   5 150.990 133.832  13
   3  -8   6 2908.99 329.377  13
   3  -7 -10-78.3374 174.011   7
   3  -7  -9 337.053 230.168   7
   3  -7  -8 5653.97 585.431   7
   3  -7  -7 486.277 357.061   7
   3  -7  -7-56.3378 130.263  10
   3  -7  -6 155.469 187.932  10
   3  -7  -6 651.415 392.117   7
   3  -7  -5 8220.79 768.887  10
   3  -7  -5 6277.94 602.751   8
   3  -7  -5 6866.56 694.941   7
   3  -7  -4 3395.61 533.522  10
   3  -7  -4 3996.68 523.189   8
   3  -7  -3 6941.62 736.287  10
   3  -7  -2-12.0432 170.733  10
  -3   7   2-875.828 535.250   2
   3  -7  -1 4003.72 577.836  10
  -3   7   1 2415.64 973.214   2
   3  -7   0 815.804 292.338  10
  -3   7   0 2858.75 1007.78   2
   3  -7   1 15366.2 1023.13  19
   3  -7   1 15679.1 1051.39  10
   3  -7   2 264.117 191.271  10
   3  -7   2 27.6899 167.753  19
   3  -7   3 11634.2 922.244  19
  -3   7  -3 9830.52 752.055  18
   3  -7   4 611.124 258.716  19
  -3   7  -4 580.596 195.687  18
  -3   7  -5 667.133 221.277  18
   3  -7   5 1069.13 292.728  19
  -3   7  -6 80.7969 105.749  18
   3  -7   7 1379.54 270.808  13
  -3   7  -7 704.824 170.911  18
   3  -7   8 183.263 98.5834  13
   3  -6 -11 2900.00 292.399   7
   3  -6 -10 1263.24 331.338   7
   3  -6  -9 722.873 369.654   7
   3  -6  -8 9649.15 846.307   7
   3  -6  -7 1410.33 457.507   7
   3  -6  -7 186.537 198.481  10
   3  -6  -6 3469.88 607.530   7
   3  -6  -6 1933.48 400.690  10
   3  -6  -5 32078.5 1507.43   7
   3  -6  -5 27578.8 1322.61   8
  -3   6   4 7346.98 1410.59   2
   3  -6  -4 10423.9 858.511   7
   3  -6  -3 2903.76 435.845  20
  -3   6   3 3274.19 967.966   2
  -3   6   2 29623.3 2879.23   2
   3  -6  -2 27662.2 1343.01  20
   3  -6  -1 25800.0 1314.28  20
  -3   6   1 24869.3 2617.92   2
  -3   6   0 4065.75 1072.12   2
   3  -6   1 4634.95 554.217  10
  -3   6  -1 5047.13 1215.46   2
  -3   6  -1 2563.63 411.156  18
  -3   6  -2 1205.36 273.011  18
   3  -6   2 906.424 247.599  10
  -3   6  -3 39034.1 1607.93  18
  -3   6  -3 51092.0 3902.74   2
   3  -6   4 85.0035 176.617  19
  -3   6  -4-0.91474 125.798  18
  -3   6  -4-376.576 388.505   2
   3  -6   5 4620.90 593.259  19
  -3   6  -5 3795.54 517.568  18
   3  -6   6 29.2278 164.898  19
  -3   6  -6 147.443 184.438  18
  -3   6  -7 1670.76 329.158  18
   3  -6   7 1839.57 368.253  19
   3  -6   8 695.506 198.571  13
  -3   6  -8 673.674 199.270  18
  -3   6  -9 1262.13 201.307  18
   3  -5 -11 3616.13 417.839   7
   3  -5 -10 627.431 347.559   7
   3  -5  -9 3889.20 590.783   7
   3  -5  -9 2616.70 380.237  21
   3  -5  -8 1569.87 335.400  21
   3  -5  -8 2258.10 523.294   7
   3  -5  -7 7165.46 708.810  21
   3  -5  -7 8305.79 832.906   7
   3  -5  -6 115914. 2764.43  21
   3  -5  -6 119999. 2945.20   7
  -3   5   5 26521.4 2579.41   2
   3  -5  -5 27338.9 1338.80  21
   3  -5  -5 32546.0 1492.41   7
  -3   5   4 3095.30 899.322   2
   3  -5  -4 3738.01 524.203   7
   3  -5  -4 2872.35 422.542  21
   3  -5  -3 46905.8 1692.89  21
   3  -5  -3 49573.4 1714.40  20
   3  -5  -3 46183.2 1671.14   7
   3  -5  -2 36132.4 1461.13  21
   3  -5  -2 39603.4 1522.72  20
   3  -5  -1 27441.3 1277.77  20
  -3   5   1 31886.4 2702.01   2
   3  -5   0 175.599 105.841  20
  -3   5   0-295.657 379.167   2
   3  -5   1 3547.85 489.475  20
  -3   5  -1 3666.91 982.152   2
  -3   5  -2 603.400 385.791   2
  -3   5  -2 1141.74 257.545  18
  -3   5  -3 4912.24 1114.76   2
  -3   5  -3 5552.60 593.441  18
  -3   5  -4 27340.2 2692.36   2
  -3   5  -4 29775.9 1429.84  18
   3  -5   5 2652.58 475.341  19
  -3   5  -5 2301.08 850.299   2
  -3   5  -5 2525.53 443.297  18
   3  -5   6-88.6586 205.033  19
  -3   5  -6 66.7491 151.686  18
   3  -5   7 308.066 219.431  19
  -3   5  -7 58.1637 164.460  18
  -3   5  -8 7505.21 698.128  18
   3  -5   9 4965.99 426.772  13
  -3   5  -9 7060.91 602.038  18
  -3   5 -10 5565.46 442.911  18
   3  -4 -11-77.1655 92.6188  21
   3  -4 -11 5691.35 553.154   7
   3  -4 -10 232.504 173.084  21
   3  -4 -10 48.1120 146.079   4
   3  -4  -9 4820.65 587.884   4
   3  -4  -9 5468.79 681.931   7
   3  -4  -9 5075.80 581.935  21
   3  -4  -8 1132.12 408.966   7
   3  -4  -8 481.911 220.969   4
   3  -4  -8 850.048 308.020  21
   3  -4  -7 20539.6 1207.72   4
   3  -4  -7 19321.3 1214.91   7
   3  -4  -7 20252.0 1182.73  21
   3  -4  -6 48847.6 1816.18   4
   3  -4  -6 49964.3 1863.11   7
   3  -4  -6 49230.7 1796.15  21
  -3   4   5 6615.11 1216.53   2
   3  -4  -5 7880.25 714.667   4
   3  -4  -5 8409.27 723.614  21
   3  -4  -5 8158.52 736.464   7
  -3   4   4 2668.06 747.153   2
   3  -4  -4 2551.89 402.973   7
  -3   4   3 28142.0 2368.91   2
  -3   4   2 1430.98 541.455   2
  -3   4   1 61231.9 3345.00   2
  -3   4   0 271453. 6981.11   2
  -3   4  -1 137170. 5038.47   2
  -3   4  -2 13052.4 1589.22   2
  -3   4  -3 10807.1 789.313  18
  -3   4  -3 13318.4 1633.87   2
  -3   4  -4 4614.81 982.625   2
  -3   4  -4 3106.56 445.192  18
  -3   4  -5 8160.99 1358.90   2
  -3   4  -5 10871.9 861.434  18
   3  -4   6 1246.61 309.119  19
  -3   4  -6 968.643 287.934  18
   3  -4   7 890.955 302.134  19
  -3   4  -7 885.773 304.699  18
   3  -4   8-82.4815 192.903  19
  -3   4  -8 54.8117 187.917  18
  -3   4  -9 36607.0 1529.25  18
  -3   4 -10 71.3985 128.537  18
  -3   4 -10 36.2571 69.8813   5
  -3   4 -11 916.492 189.631  18
   3  -3 -12-2.04409 39.6863  21
   3  -3 -11 1021.26 300.219   7
   3  -3 -11 471.617 189.792   4
   3  -3 -11 663.951 209.594  21
   3  -3 -10 18538.0 1081.06   4
   3  -3 -10 18531.1 1095.06   7
   3  -3  -9 596.346 343.894   7
   3  -3  -9 120.031 198.180   4
   3  -3  -8 1543.66 367.895   4
   3  -3  -8 2236.76 470.885   7
   3  -3  -7 914.080 249.037   4
   3  -3  -7 999.901 315.067   7
  -3   3   6 27.5586 82.2576   2
   3  -3  -6 629.658 267.353   7
   3  -3  -6 401.314 185.270   4
   3  -3  -5 4884.66 546.716   7
  -3   3   5 6043.85 1090.20   2
  -3   3   4 1399.23 555.667   2
  -3   3   3 12235.3 1439.96   2
  -3   3   2 1998.47 591.927   2
  -3   3   1 18914.4 1682.48   2
  -3   3   0 2610.14 617.534   2
  -3   3  -1 93236.8 3688.90   2
  -3   3  -2 66865.2 3177.00   2
  -3   3  -3 8868.81 1134.50   3
  -3   3  -3 10404.3 1249.97   2
  -3   3  -4 10691.8 1310.53   3
  -3   3  -4 11370.4 1412.95   2
  -3   3  -5 15793.9 1738.08   3
  -3   3  -5 16484.1 1739.76   2
  -3   3  -5 16511.6 1003.84  18
   3  -3   6 1449.42 302.784  19
  -3   3  -6 1355.71 308.064  18
   3  -3   7 3940.91 509.643  19
  -3   3  -7 4618.21 577.505  18
   3  -3   8 594.660 226.608  19
  -3   3  -8 600.682 266.653  18
  -3   3  -9 4497.75 581.721  18
  -3   3 -10 1091.41 297.329  18
  -3   3 -11 3413.09 363.351   5
  -3   3 -11 3773.09 422.649  18
   3  -2 -12 848.337 200.682   4
   3  -2 -12 807.711 190.687  21
   3  -2 -11-25.0641 143.464   7
   3  -2 -11-36.0641 142.946   4
   3  -2 -10 2282.04 411.384   7
   3  -2 -10 2368.41 423.376   4
   3  -2  -9 14502.1 1022.78   4
   3  -2  -9 15549.0 1053.56   7
   3  -2  -8 729.026 295.644   7
   3  -2  -8 772.061 272.586   4
   3  -2  -7 18244.9 1093.45   4
   3  -2  -7 17811.5 1099.50   7
  -3   2   6 4701.30 930.270   2
   3  -2  -6 3499.23 478.792   7
   3  -2  -6 3470.06 464.861   4
  -3   2   5 17603.4 1769.54   2
  -3   2   4-205.389 261.756   2
  -3   2   3 126518. 4311.03   2
  -3   2   2 129314. 4134.62   2
  -3   2   1 14259.9 1331.01   2
  -3   2   0 479.876 278.661   2
  -3   2  -1 1775.39 443.302   2
  -3   2  -2 35946.6 2066.81   2
  -3   2  -3 4955.45 851.736   3
  -3   2  -3 4730.62 769.613   2
  -3   2  -4 94693.9 3841.29   3
  -3   2  -4 92425.4 3450.20   2
  -3   2  -5 29379.1 2356.81   3
  -3   2  -5 26015.7 1882.67   2
  -3   2  -6 722.056 413.143   3
  -3   2  -6 847.872 229.550  18
   3  -2   7 4229.75 491.076  19
  -3   2  -7 4518.37 1027.86   3
  -3   2  -7 2812.62 433.465   6
  -3   2  -7 4285.47 544.070  18
  -3   2  -8 213.172 196.287  18
  -3   2  -8 190.862 140.663   6
  -3   2  -9 8005.52 735.381   6
  -3   2  -9 7487.71 758.733  18
  -3   2 -10 1770.56 372.929  18
  -3   2 -11 2595.94 391.864  18
  -3   2 -12 3211.06 317.847   5
  -3   2 -12 3050.61 325.865  18
   3  -1 -12 2521.79 325.243   4
   3  -1 -11 7104.07 631.372   4
   3  -1 -10 191.045 138.854   7
   3  -1 -10 26.6648 166.811   4
   3  -1  -9-33.6893 96.8955   7
   3  -1  -9 100.863 187.123   4
   3  -1  -8 421.126 204.138   7
   3  -1  -8 262.459 202.473   4
   3  -1  -7 1309.99 299.147   7
   3  -1  -7 1644.17 333.790   5
   3  -1  -7 1055.58 281.660   4
   3  -1  -6 10374.4 770.485   4
  -3   1   6 11207.0 1440.46   1
   3  -1  -6 10888.8 786.216   5
  -3   1   6 12154.2 1476.07   2
  -3   1   5 93551.7 3964.59   2
  -3   1   4 8466.79 1133.76   2
  -3   1   3 972.381 386.665   2
  -3   1   2 10258.9 1112.93   2
  -3   1   1 192777. 4588.87   2
  -3   1   0 3093.44 564.604   2
  -3   1  -1 11388.9 1064.22   2
  -3   1  -2 7753.33 873.422   2
  -3   1  -3 2814.08 596.209   3
  -3   1  -3 2839.37 530.231   2
  -3   1  -4 5334.00 897.167   3
  -3   1  -4 5552.65 706.935   2
  -3   1  -5 12130.2 1494.88   3
  -3   1  -6 8417.14 1363.14   3
  -3   1  -6 7252.17 634.998  17
  -3   1  -6 7310.30 651.870  18
  -3   1  -7 11804.5 872.606  18
  -3   1  -7 11721.5 1731.16   3
  -3   1  -8 3562.19 503.092   6
  -3   1  -8 3478.38 971.942   3
  -3   1  -8 3600.67 505.139  18
  -3   1  -9 1437.66 336.479   6
  -3   1  -9 1425.88 372.159  18
  -3   1 -10 10869.3 856.147   6
  -3   1 -10 9604.23 827.811  18
  -3   1 -11 50.1757 145.031  18
  -3   1 -12 316.793 150.975   5
  -3   1 -12 227.675 123.911  18
   3   0 -12 986.759 204.713   4
   3   0 -11 5412.82 546.030   4
   3   0 -10 264.316 202.041   4
   3   0  -9 41138.2 1696.15   4
   3   0  -8 32982.9 1506.03   4
   3   0  -8 33684.4 1523.75   5
   3   0  -7 13070.4 906.097   4
   3   0  -7 13079.0 911.244   5
  -3   0   7 10385.7 1438.31   1
   3   0  -6 2656.95 375.797   5
  -3   0   6 2380.71 656.607   1
  -3   0   5 353.939 336.325   1
  -3   0   4 39629.5 2431.29   2
  -3   0   3 20662.8 1644.34   2
  -3   0   2 3242.71 605.412   2
  -3   0   1 29150.5 1737.69   2
  -3   0   0 39777.7 1934.65   2
  -3   0  -1 25184.1 1460.47   2
  -3   0  -2 39015.4 1724.23   2
  -3   0  -3 8419.88 1032.86   3
  -3   0  -3 7384.36 706.506   2
  -3   0  -4 65558.4 3099.69   3
  -3   0  -5 21209.0 1959.65   3
  -3   0  -6 27208.6 2423.95   3
  -3   0  -7 2563.90 410.042  17
  -3   0  -7 2052.00 342.656   7
  -3   0  -7 2583.46 391.519  18
  -3   0  -7 2187.48 736.640   3
  -3   0  -8 311.301 141.366   7
  -3   0  -8 305.726 158.270  18
  -3   0  -8 647.196 221.801   6
  -3   0  -9 682.413 269.410   6
  -3   0  -9 272.864 185.331  18
  -3   0 -10 2355.79 416.050  18
  -3   0 -10 2407.97 443.581   6
  -3   0 -11 460.516 205.311  18
  -3   0 -12-18.4365 100.349   5
  -3   0 -12 37.5165 91.0837  18
  -3   0 -13-30.3772 55.5606   5
   3   1 -12 59.5857 81.9260   4
   3   1 -11 2649.31 369.708   4
   3   1 -10-106.428 167.843   4
   3   1  -9 1484.31 331.096   4
   3   1  -8 33188.0 1506.90   4
   3   1  -8 32926.9 1499.30   5
  -3  -1   8 32356.6 1407.27  12
   3   1  -7 77800.4 2209.81   5
  -3  -1   7 72644.3 3959.95   1
   3   1  -6 12231.5 834.182   5
  -3  -1   6 14834.4 1757.47   1
  -3  -1   5-209.529 261.325   1
  -3  -1   4 889.432 407.967   1
  -3  -1   3 67367.1 3043.04   2
  -3  -1   3 68025.3 3100.41   1
  -3  -1   2 202252. 4901.17   2
  -3  -1   1-24.1214 138.405   2
  -3  -1   1-106.895 105.880   9
  -3  -1   0 42368.0 1968.46   2
  -3  -1  -1 14384.0 1068.21   2
  -3  -1  -2 38919.2 1585.19   2
  -3  -1  -3 55.4033 80.2853   2
  -3  -1  -3 103.185 179.615   3
  -3  -1  -4 2341.21 591.375   3
  -3  -1  -5 4895.75 955.384   3
  -3  -1  -6 22201.0 2177.56   3
  -3  -1  -7 38052.0 1511.96   7
  -3  -1  -7 40238.6 1559.03  17
  -3  -1  -7 41258.9 3237.38   3
  -3  -1  -8 2442.74 403.226   7
  -3  -1  -8 2434.13 821.313   3
  -3  -1  -8 2538.17 439.131   6
  -3  -1  -8 1621.99 322.433  18
  -3  -1  -9 9967.46 823.799   7
  -3  -1  -9 13549.6 1018.85   6
  -3  -1  -9 10800.1 1870.55   3
  -3  -1  -9 11941.8 899.882  18
  -3  -1 -10 414.044 201.203   7
  -3  -1 -10 287.267 242.073   6
  -3  -1 -10 107.974 148.268  18
  -3  -1 -11 491.378 178.117   7
  -3  -1 -11 466.203 202.799  18
  -3  -1 -12 1495.12 273.313   5
  -3  -1 -13 719.702 136.215   5
   3   2 -11 3057.14 350.905   4
   3   2 -10 5649.40 559.368   4
  -3  -2  10 5145.67 482.040  12
  -3  -2   9 32632.5 1399.92  12
   3   2  -9 32199.2 1419.95   4
   3   2  -8 23183.9 1236.74   4
  -3  -2   7 745.365 215.318  15
  -3  -2   7 1155.41 575.439   1
  -3  -2   6 17586.8 1036.29  15
   3   2  -6 17275.4 993.613   5
  -3  -2   5 556.402 481.168   1
  -3  -2   4 6436.00 1066.67   1
  -3  -2   3 4699.64 866.757   1
  -3  -2   2 87657.1 3497.18   1
  -3  -2   1 35516.1 2100.04   1
  -3  -2   1 31911.6 1623.69   9
  -3  -2   0 23053.0 1599.80   1
  -3  -2   0 23391.2 1483.39   9
  -3  -2  -1 63.2256 111.837   1
  -3  -2  -2 119844. 3654.59   3
  -3  -2  -2 115698. 3063.07   1
  -3  -2  -3 146555. 2973.29   1
  -3  -2  -3 172505. 4727.33   3
  -3  -2  -4 10431.1 1282.18   3
  -3  -2  -5 23746.1 2116.05   3
  -3  -2  -6 6831.46 1240.75   3
  -3  -2  -7 32.4040 50.7033  17
  -3  -2  -7 170.714 213.617   3
  -3  -2  -7 268.167 154.603   7
  -3  -2  -7-63.8988 103.142  11
  -3  -2  -8 9776.61 829.793   6
  -3  -2  -8 9038.63 800.218   7
  -3  -2  -8 10070.4 1713.06   3
  -3  -2  -9 8426.87 788.762   7
  -3  -2  -9 8445.60 812.333   6
  -3  -2 -10 15640.7 1020.14   7
  -3  -2 -10 15631.0 1083.07   6
  -3  -2 -11 1417.78 297.261   7
  -3  -2 -11 1485.90 315.276   5
  -3  -2 -12-39.0091 187.559   7
  -3  -2 -12 133.967 118.626   5
  -3  -3  10 13614.5 772.263  12
   3   3 -10 15822.9 778.267   4
   3   3  -9 12401.3 810.834   4
  -3  -3   9 14084.4 928.407  12
   3   3  -8 322.898 174.998   4
  -3  -3   8 425.562 212.939  15
  -3  -3   7 535.954 230.764  15
   3   3  -7 713.807 225.471   4
  -3  -3   6 170.784 333.283   1
  -3  -3   6-29.4094 89.2762  15
  -3  -3   5 3339.64 875.471   1
  -3  -3   5 3841.89 509.950  15
  -3  -3   4 3074.72 851.242   1
  -3  -3   3 18245.9 1819.41   1
  -3  -3   2 3585.28 755.971   1
  -3  -3   1 26095.7 1967.98   1
  -3  -3   0 27002.2 1458.94   3
  -3  -3   0 30350.2 2000.81   1
  -3  -3   0 30151.5 1951.62   9
  -3  -3  -1 20723.7 1397.76   3
  -3  -3  -1 20753.0 1700.22   9
  -3  -3  -1 20430.7 1529.55   1
  -3  -3  -2 8915.36 1016.40   3
  -3  -3  -2 8561.81 922.209   1
  -3  -3  -3-262.467 242.216   3
  -3  -3  -4 29578.8 2206.92   3
  -3  -3  -5 16278.2 1789.16   3
  -3  -3  -6 18832.6 1073.86   7
  -3  -3  -6 18189.7 1090.94  11
  -3  -3  -6 20518.6 2177.75   3
  -3  -3  -7 33279.1 1501.68   7
  -3  -3  -7 34213.0 1560.79  11
  -3  -3  -7 34899.8 3060.08   3
  -3  -3  -8 64162.2 2171.24   7
  -3  -3  -8 67579.7 2180.20   6
  -3  -3  -8 63287.9 4353.74   3
  -3  -3  -9 74355.8 2347.78   7
  -3  -3  -9 77186.6 2376.80   6
  -3  -3 -10 2884.75 465.805   7
  -3  -3 -10 3117.40 502.196   6
  -3  -3 -10 2882.32 427.316   5
  -3  -3 -11 6780.99 614.963   7
  -3  -3 -11 5380.95 503.890   5
  -3  -4  10 507.641 162.638  12
  -3  -4   9 349.091 164.083  15
  -3  -4   9 131.345 154.086  12
  -3  -4   8 3136.73 454.100  15
  -3  -4   7 1879.95 400.013  15
  -3  -4   6 2187.47 427.396  15
  -3  -4   6 1795.20 725.798   1
  -3  -4   5 986.212 278.892  15
  -3  -4   5 1515.91 687.108   1
  -3  -4   4 19896.3 1158.87  15
  -3  -4   4 19706.2 1112.86  13
  -3  -4   4 18175.0 2119.99   1
  -3  -4   3 258.007 129.628  15
  -3  -4   3 124.930 298.491   1
  -3  -4   3 64.4430 98.8202  13
  -3  -4   2 1677.23 567.039   1
  -3  -4   1-176.833 279.982   1
  -3  -4   0 5456.05 977.465   9
  -3  -4   0 5959.66 981.505   1
  -3  -4  -1 401.404 296.145   1
  -3  -4  -1 723.196 351.353   9
  -3  -4  -2 1860.63 492.445   1
  -3  -4  -2 1519.92 535.720   9
  -3  -4  -3 187.921 216.590   3
  -3  -4  -3 149.211 211.450   9
  -3  -4  -4 41590.1 2668.28   3
  -3  -4  -4 43126.0 3169.54   9
  -3  -4  -5 4963.53 551.419   7
  -3  -4  -5 5197.96 1059.52   3
  -3  -4  -5 6031.66 1276.48   9
  -3  -4  -5 4855.82 567.986  11
  -3  -4  -6 10646.7 839.561   7
  -3  -4  -6 10479.0 857.706  11
  -3  -4  -6 9981.15 1535.11   3
  -3  -4  -7 2109.08 772.840   3
  -3  -4  -7 2790.00 458.490   7
  -3  -4  -7 2320.25 439.448  11
  -3  -4  -7 2349.01 381.707   6
  -3  -4  -7 3171.19 1026.08   9
  -3  -4  -8 4634.58 614.779   7
  -3  -4  -8 3439.53 1128.64   3
  -3  -4  -8 5184.78 619.744   6
  -3  -4  -8 5449.65 676.896  11
  -3  -4  -8 4662.07 1317.25   9
  -3  -4  -9 6224.46 694.106   7
  -3  -4  -9 6581.53 688.898   6
  -3  -4 -10 203.231 182.639   7
  -3  -4 -11 2714.35 392.239   7
  -3  -4 -12 5227.93 434.705   7
  -3  -5  10 2066.15 224.229  12
  -3  -5   9 285.093 120.274  15
  -3  -5   9 324.180 159.434  12
  -3  -5   8 6.04432 134.213  15
  -3  -5   8 242.890 201.563  12
  -3  -5   7 1205.81 326.317  15
  -3  -5   6 177.267 223.375  15
  -3  -5   5 3933.22 586.575  15
  -3  -5   5 2872.73 984.586   1
  -3  -5   4 12745.8 1927.89   1
  -3  -5   4 13643.6 1023.28  15
  -3  -5   4 13180.3 970.664  13
  -3  -5   3 233.694 186.907  15
  -3  -5   3 277.371 157.334  13
  -3  -5   3-84.4124 458.761   1
  -3  -5   2 430.636 190.736  15
  -3  -5   2 432.916 181.903  13
  -3  -5   2 672.165 426.223   1
  -3  -5   2 307.083 171.131  10
  -3  -5   1 1159.40 284.975  15
  -3  -5   1 730.939 209.916  13
  -3  -5   1 1060.61 264.734  12
  -3  -5   1 1572.18 592.171   1
  -3  -5   1 1114.93 267.125  10
  -3  -5   0 10846.3 810.006  10
  -3  -5   0 11793.0 1566.65   1
  -3  -5   0 10443.6 806.713  15
  -3  -5  -1 1342.35 570.156   1
  -3  -5  -1 1249.64 291.403  10
  -3  -5  -2 1310.14 291.606  11
  -3  -5  -2 1439.25 307.022  10
  -3  -5  -2 1198.79 587.422   9
  -3  -5  -2 500.081 366.556   1
  -3  -5  -3 15476.3 1021.30  11
  -3  -5  -3 15376.7 968.672  10
  -3  -5  -3 11937.4 875.758   8
  -3  -5  -3 16362.8 2058.05   9
  -3  -5  -4 17494.0 1022.38   7
  -3  -5  -4 21661.6 1227.63  11
  -3  -5  -4 18680.2 1067.87  10
  -3  -5  -4 21653.5 2436.13   9
  -3  -5  -5 1097.33 271.034   7
  -3  -5  -5 1055.53 307.797  11
  -3  -5  -6 1518.00 341.131   7
  -3  -5  -6 1508.98 359.831  11
  -3  -5  -6 1661.14 787.119   9
  -3  -5  -7 3705.50 553.504   7
  -3  -5  -7 3687.17 552.882  11
  -3  -5  -8 9231.20 866.120  11
  -3  -5  -8 9829.05 863.182   7
  -3  -5  -9 294.181 202.632   7
  -3  -5 -10 1913.80 363.301   7
  -3  -5 -11 17518.0 876.043   7
  -3  -5 -12 1508.55 215.321   7
  -3  -6   9 4777.10 359.472  12
  -3  -6   8 341.350 162.945  15
  -3  -6   8 315.741 156.733  12
  -3  -6   7 1616.77 331.596  15
  -3  -6   7 1614.89 330.920  12
  -3  -6   6 4530.57 588.962  15
  -3  -6   5 487.957 265.293  15
  -3  -6   4 438.991 245.475  15
  -3  -6   3 16660.6 1150.71  15
  -3  -6   3 16266.6 1101.82  13
  -3  -6   3 14803.2 2163.51   1
  -3  -6   2 5633.51 672.074  15
  -3  -6   2 6201.00 679.853  13
  -3  -6   2 5484.91 613.554  12
  -3  -6   2 5619.77 633.447  10
  -3  -6   2 5465.18 1292.70   1
  -3  -6   1 16406.6 1099.14  15
  -3  -6   1 13124.0 918.619  12
  -3  -6   1 15676.8 1064.26  10
  -3  -6   1 14137.8 2004.30   1
  -3  -6   0 14053.2 987.354  15
  -3  -6   0 15152.7 1035.54  10
  -3  -6   0 13469.8 1841.96   1
  -3  -6  -1 41832.6 1662.16  15
  -3  -6  -1 43672.5 1650.91   8
  -3  -6  -1 40964.2 3101.79   1
  -3  -6  -2 31530.1 1524.54  11
  -3  -6  -2 33551.4 1542.72  10
  -3  -6  -2 28398.5 1374.15   8
  -3  -6  -3 5409.28 1315.45   9
  -3  -6  -3 5907.39 675.620  11
  -3  -6  -3 6272.13 668.363  10
  -3  -6  -3 5131.69 628.461   8
  -3  -6  -4 1080.10 296.426  11
  -3  -6  -4 1278.51 314.493  10
  -3  -6  -4 1629.29 711.703   9
  -3  -6  -4 314.400 311.132   8
  -3  -6  -5 14246.0 2205.39   9
  -3  -6  -5 16502.8 1118.16   8
  -3  -6  -5 16978.3 1162.88  11
  -3  -6  -5 15553.2 1007.41  10
  -3  -6  -5 14830.4 989.949   7
  -3  -6  -6 1376.46 342.603   7
  -3  -6  -6 1191.67 348.299  11
  -3  -6  -7 2517.05 436.286   7
  -3  -6  -7 2497.07 475.852  11
  -3  -6  -8 36039.8 1531.15   7
  -3  -6  -8 36936.1 1627.83  11
  -3  -6  -9 3228.79 455.175   7
  -3  -6 -10 483.127 194.123   7
  -3  -6 -11 138.840 223.149   7
  -3  -6 -11-418.034 176.309   8
  -3  -7   8 2274.78 231.141  12
  -3  -7   7 303.383 141.193  12
  -3  -7   7 325.202 152.573  15
  -3  -7   6 238.747 169.574  15
  -3  -7   6 43.9384 119.784  12
  -3  -7   5 1358.42 331.861  15
  -3  -7   5 1271.73 317.831  12
  -3  -7   4 6073.80 683.340  15
  -3  -7   4 5675.71 616.204  12
  -3  -7   3 628.113 296.533  15
  -3  -7   3 530.211 224.709  12
  -3  -7   2 812.731 306.540  15
  -3  -7   2 402.463 221.289  12
  -3  -7   1 26456.9 1405.84  15
  -3  -7   1 22431.1 1299.82  10
  -3  -7   0-225.426 381.659   1
  -3  -7   0 529.958 234.464  15
  -3  -7   0 322.705 228.646  10
  -3  -7  -1 808.783 305.217  11
  -3  -7  -1 799.519 322.845  10
  -3  -7  -2 5377.94 672.418  11
  -3  -7  -2 5258.02 655.888  10
  -3  -7  -3 9926.30 894.726  11
  -3  -7  -3 9896.58 871.510  10
  -3  -7  -3 12346.3 973.710   8
  -3  -7  -4 1300.83 364.085  11
  -3  -7  -4 1369.02 355.259  10
  -3  -7  -4 1530.04 409.657   8
  -3  -7  -5 12157.7 978.911  11
  -3  -7  -5 11551.4 879.662  10
  -3  -7  -5 11783.4 916.022   8
  -3  -7  -6 1104.42 279.147   7
  -3  -7  -6 1831.71 408.486  11
  -3  -7  -6 1530.72 336.146   8
  -3  -7  -7 6278.48 586.077   7
  -3  -7  -7 6215.95 662.581  11
  -3  -7  -7 5875.70 614.462   8
  -3  -7  -8 702.054 236.368   7
  -3  -7  -8-1.52901 245.680   8
  -3  -7  -9 297.185 156.332   7
  -3  -7  -9-369.068 222.082   8
  -3  -7 -10 739.326 186.346   7
  -3  -7 -10 807.484 199.931   8
  -3  -8   6-14.3675 54.8430  12
  -3  -8   5 383.608 168.785  15
  -3  -8   5 399.472 145.269  12
  -3  -8   4 1482.38 255.248  12
  -3  -8   4 2086.38 362.560  15
  -3  -8   3 4252.19 516.347  15
  -3  -8   2 1996.28 386.441  15
  -3  -8   2 2017.50 377.066  11
  -3  -8   1 1470.96 325.675  15
  -3  -8   1 1654.50 383.451  11
  -3  -8   0 13563.3 965.332  11
  -3  -8   0 13436.3 969.550  10
  -3  -8  -1 23211.4 1265.07  11
  -3  -8  -1 24998.8 1334.12  10
  -3  -8  -2 18027.1 1122.35  11
  -3  -8  -2 18580.1 1158.52  10
  -3  -8  -3 1632.87 379.000  11
  -3  -8  -3 1660.90 381.711  10
  -3  -8  -4 9024.87 784.421  11
  -3  -8  -4 10559.1 833.028  10
  -3  -8  -5 13056.9 908.089  11
  -3  -8  -5 11770.8 813.311  10
  -3  -8  -6 5.35265 143.365  11
  -3  -8  -6 3973.56 510.734   8
  -3  -8  -7 290.153 161.254  11
  -3  -8  -7 2815.66 430.337   8
  -3  -8  -8 3425.65 401.009   8
  -3  -8  -9 3493.34 305.361   8
  -3  -9   2-22.9024 102.831  11
  -3  -9   1 535.849 179.483  11
  -3  -9   0-186.155 149.222  11
  -3  -9  -1 1836.62 321.772  11
  -3  -9  -2 2082.43 335.144  11
  -3  -9  -3 329.912 177.882  11
  -3  -9  -4 397.343 168.767  11
  -3  -9  -5 5137.73 452.338  11
   4  -9  -5 2030.71 250.268  10
   4  -9  -4 107.837 107.342  10
   4  -9  -3 1191.84 244.128  10
   4  -9  -2 743.959 214.741  10
   4  -9  -1 3499.39 397.955  10
   4  -9   0 1740.65 277.784  10
   4  -9   1 9068.98 532.744  10
   4  -9   2 619.152 146.323  13
   4  -9   3 782.103 149.968  13
   4  -8  -6-9.49301 129.177  10
   4  -8  -5 468.268 187.965  10
   4  -8  -4 548.200 226.763  10
   4  -8  -3 1138.12 302.637  10
   4  -8  -2 469.140 219.943  10
   4  -8  -1 7519.18 697.458  10
   4  -8   0 5543.67 520.785  19
   4  -8   0 6279.35 621.401  10
   4  -8   1 1267.88 287.999  10
   4  -8   1 1406.32 287.569  19
   4  -8   2 4473.64 447.841  10
   4  -8   2 6229.19 573.677  19
   4  -8   3 6098.43 556.268  19
   4  -8   4-4.75016 92.2927  19
   4  -8   5 199.750 140.245  13
   4  -8   6 251.644 102.602  13
   4  -7  -8 797.511 230.706   7
   4  -7  -7 397.005 276.407   7
   4  -7  -7 705.441 207.277  10
   4  -7  -6 9095.65 718.313  10
   4  -7  -6 8091.78 691.052   7
   4  -7  -5 2434.19 422.400   7
   4  -7  -5 3843.31 534.580  10
   4  -7  -4 4128.00 575.199  10
   4  -7  -3 2908.20 438.029  20
   4  -7  -3 2728.96 478.572  10
   4  -7  -2 12274.3 954.711  10
  -4   7   1 7505.59 683.242  18
   4  -7  -1 8250.76 786.143  10
   4  -7   0 181.294 198.973  10
  -4   7   0 251.321 148.758  18
   4  -7   1 1718.22 365.267  10
  -4   7  -1 1335.16 317.749  18
   4  -7   2-242.047 177.800  10
   4  -7   2-70.7754 170.026  19
  -4   7  -2 136.424 145.882  18
   4  -7   3 768.963 246.537  19
  -4   7  -3 753.096 223.958  18
   4  -7   4-118.833 178.582  19
  -4   7  -4 131.455 140.419  18
   4  -7   5 677.079 238.537  19
  -4   7  -5 619.673 184.364  18
   4  -7   6 681.420 217.363  19
  -4   7  -6 487.136 159.628  18
  -4   7  -7 563.124 124.662  18
   4  -7   7 909.901 192.498  13
   4  -6 -10 2994.15 327.266   7
   4  -6  -9 1420.82 332.522   7
   4  -6  -8 179.069 296.244   7
   4  -6  -7 3589.51 451.751  21
   4  -6  -7 3430.35 441.332  10
   4  -6  -7 4112.12 580.074   7
   4  -6  -6 2877.90 447.568  21
   4  -6  -6 3136.58 568.331   7
   4  -6  -5 2316.52 496.780   7
   4  -6  -5 2068.17 383.561  21
   4  -6  -5 2132.62 376.814  20
  -4   6   4 1004.85 553.223   2
   4  -6  -4 1752.33 428.748   7
   4  -6  -4 2133.59 388.363  20
   4  -6  -3 21861.2 1228.11  20
  -4   6   3 20337.9 2467.27   2
   4  -6  -3 19021.2 1140.92   7
   4  -6  -2 56713.7 1994.59  20
  -4   6   2 46598.9 3808.15   2
   4  -6  -1 26713.9 1397.97  20
  -4   6   1 21609.4 2536.97   2
  -4   6   0 42751.3 3624.89   2
   4  -6   0 48342.1 1905.86  20
  -4   6  -1 3344.70 492.173  18
  -4   6  -1 4672.54 1229.71   2
   4  -6   2 4841.42 570.256  10
  -4   6  -2 4675.54 585.798  18
  -4   6  -2 4238.05 1146.09   2
  -4   6  -3 280.738 195.542  18
   4  -6   4 1547.03 367.634  19
  -4   6  -4 1508.38 353.279  18
   4  -6   5 32058.2 1499.31  19
  -4   6  -5 29493.1 1387.69  18
   4  -6   6 232.251 192.103  19
  -4   6  -6-131.883 165.962  18
  -4   6  -7 285.478 166.391  18
   4  -6   7 320.980 215.219  19
   4  -6   8 452.278 147.538  13
  -4   6  -8 373.763 146.735  18
   4  -5 -10 44.7983 63.6755  21
   4  -5 -10 16414.5 867.226   7
   4  -5  -9 1844.86 430.541   7
   4  -5  -9 1912.18 310.713  21
   4  -5  -8 1204.86 416.128   7
   4  -5  -8 877.890 256.682  21
   4  -5  -7 427.637 236.487  21
   4  -5  -7 790.107 392.039   7
   4  -5  -6 79.6571 194.511  21
   4  -5  -6 432.293 342.150   7
   4  -5  -5 34968.6 1617.26   7
   4  -5  -5 35134.6 1577.71  21
   4  -5  -4 67729.2 2171.42  21
  -4   5   4 64651.8 4263.68   2
   4  -5  -4 68004.6 2210.17   7
   4  -5  -3 3360.61 486.321  21
   4  -5  -3 3741.77 498.321  20
   4  -5  -3 2929.63 467.498   7
  -4   5   3 3374.92 1010.12   2
   4  -5  -2 1630.06 324.060   7
   4  -5  -2 2419.32 401.242  20
  -4   5   2 1873.42 774.538   2
   4  -5  -1 1029.43 277.662  20
  -4   5   1 865.629 483.313   2
   4  -5   0 1139.46 282.748  20
  -4   5   0 584.433 417.550   2
   4  -5   1 8552.58 786.399  20
  -4   5  -1 8562.31 1544.18   2
  -4   5  -2 3005.29 455.991  18
  -4   5  -2 2742.75 936.274   2
  -4   5  -3 138.804 224.190   2
  -4   5  -3 1181.82 295.473  18
  -4   5  -4 2957.33 953.980   2
  -4   5  -4 3405.23 515.779  18
  -4   5  -5 2531.49 449.298  18
   4  -5   6 3892.50 537.360  19
  -4   5  -6 3968.80 556.049  18
   4  -5   7 2774.26 441.208  19
  -4   5  -7 2766.21 444.636  18
  -4   5  -8 2512.66 399.046  18
  -4   5  -9 16599.1 844.138  18
  -4   5 -10 2304.10 249.752  18
   4  -4 -11 2669.14 273.778  21
   4  -4 -11 3206.92 350.865   7
   4  -4 -10 7493.89 589.593  21
   4  -4 -10 6688.64 623.308   7
   4  -4  -9 7024.72 656.478  21
   4  -4  -9 6887.64 716.892   7
   4  -4  -8 1256.90 352.798   4
   4  -4  -8 1464.05 346.379  21
   4  -4  -8 1803.52 447.778   7
   4  -4  -7 251.525 216.997   4
   4  -4  -7 157.548 197.235  21
  -4   4   6 6496.86 1283.70   2
   4  -4  -6 9147.29 838.690  21
   4  -4  -6 8442.04 823.018   7
  -4   4   5 2288.57 841.493   2
   4  -4  -5 3685.37 521.578  21
   4  -4  -5 4080.81 568.787   7
  -4   4   4 3760.57 1040.09   2
   4  -4  -4 5052.08 586.134  21
   4  -4  -4 5336.90 621.969   7
   4  -4  -3 6186.54 636.090  21
  -4   4   3 6321.00 1252.76   2
   4  -4  -3 6037.91 625.889   7
   4  -4  -2 10869.5 819.117  21
  -4   4   2 11929.2 1661.10   2
   4  -4  -2 9904.19 765.491   7
   4  -4  -1 3415.13 458.132  21
   4  -4  -1 4105.43 492.861  20
  -4   4   1 4068.28 942.016   2
  -4   4   0 38760.6 2949.29   2
   4  -4   0 34166.9 1421.42  20
   4  -4   1-0.83063 33.3623  20
  -4   4  -1-21.3840 123.944   2
   4  -4   2 9259.45 771.312  20
  -4   4  -2 12215.1 1692.57   2
  -4   4  -3 1091.55 258.891  18
  -4   4  -3 1005.90 478.235   3
  -4   4  -3 454.303 380.653   2
  -4   4  -4-120.170 292.105   2
  -4   4  -4 472.190 202.526  18
  -4   4  -5 232.871 158.003  18
   4  -4   6 1990.87 388.061  19
  -4   4  -6 1583.70 393.622  18
   4  -4   7 1860.49 398.049  19
  -4   4  -7 1571.59 375.564  18
   4  -4   8 5493.91 583.598  19
  -4   4  -8 5239.59 601.988  18
  -4   4  -9 106.962 170.421  18
  -4   4 -10 7589.24 567.897  18
   4  -3 -11 1158.53 231.188  21
   4  -3 -11 624.978 201.875   7
   4  -3 -10 323.709 198.284  21
   4  -3 -10 61.3031 217.564   7
   4  -3 -10 79.8572 144.512   4
   4  -3  -9 4898.19 584.286   4
   4  -3  -9 4952.21 589.349  21
   4  -3  -9 5048.86 619.480   7
   4  -3  -8 7413.18 771.731   7
   4  -3  -8 7636.19 769.782   4
   4  -3  -7 1102.40 364.433   7
   4  -3  -7 879.728 312.323   4
   4  -3  -6 8519.67 777.881   4
   4  -3  -6 8342.07 794.000   7
   4  -3  -5 22272.4 1221.04   4
  -4   3   5 23198.7 2371.87   2
   4  -3  -5 21495.9 1192.33  21
   4  -3  -5 21889.9 1221.64   7
   4  -3  -4 875.678 232.115   7
   4  -3  -4 388.393 186.607   4
   4  -3  -4 540.336 191.146  21
  -4   3   3 50921.2 3317.97   2
  -4   3   2 8777.27 1324.60   2
  -4   3   1 9744.70 1368.98   2
  -4   3   0 19348.2 1916.19   2
  -4   3  -1 24132.8 2117.98   2
  -4   3  -2 5948.68 1083.07   2
  -4   3  -3 12850.9 1602.20   3
  -4   3  -3 12034.4 1539.33   2
  -4   3  -4 370.478 338.278   3
  -4   3  -4-79.1254 363.818   2
  -4   3  -4-149.797 99.6555  18
  -4   3  -5-62.4292 89.0891  17
  -4   3  -5 127.279 297.486   3
  -4   3  -5 36.3877 136.134  18
  -4   3  -6 23655.9 1303.33  18
   4  -3   7 618.149 218.133  19
  -4   3  -7 1126.41 325.661  18
   4  -3   8 26750.9 1275.02  19
  -4   3  -8 26372.4 1380.23  18
  -4   3  -9 2642.79 442.547  18
  -4   3 -10 403.804 189.976  18
  -4   3 -11 2952.32 303.452   5
  -4   3 -11 3411.78 353.304  18
   4  -2 -12 86.1462 68.8612  21
   4  -2 -11 468.571 199.496   4
   4  -2 -11 534.954 183.826  21
   4  -2 -10 1499.61 312.927   7
   4  -2 -10 1728.40 345.331   4
   4  -2  -9 41037.7 1685.97   4
   4  -2  -9 41639.6 1675.46   7
   4  -2  -8 279.604 215.074   7
   4  -2  -8 87.4949 173.608   4
   4  -2  -7 1417.64 317.336   7
   4  -2  -7 894.289 294.740   4
   4  -2  -6 1615.15 363.110   7
  -4   2   6 1806.22 671.223   2
   4  -2  -6 1564.99 346.285   4
  -4   2   5 2099.66 793.152   2
   4  -2  -5 1712.36 338.466   7
   4  -2  -5 1761.11 348.704   4
  -4   2   4 347.590 344.172   2
  -4   2   3 839.063 427.806   2
  -4   2   2 1624.65 558.128   2
  -4   2   1 41947.9 2631.20   2
  -4   2   0 7045.43 1060.70   2
  -4   2  -1 3985.40 804.026   2
  -4   2  -2-93.3482 175.787   2
  -4   2  -3 6022.81 1003.74   2
  -4   2  -4 17663.6 1912.76   3
  -4   2  -4 17139.8 1671.76   2
  -4   2  -5 1445.82 282.870  17
  -4   2  -5 1561.70 307.386  18
  -4   2  -5 1675.06 612.862   3
  -4   2  -6 29960.7 1376.70  17
  -4   2  -6 30136.3 1429.07  18
   4  -2   7 58404.1 1881.00  19
  -4   2  -7 53110.1 3866.80   3
  -4   2  -8 17727.7 1078.77   6
  -4   2  -8 22536.4 1289.07  18
  -4   2  -9 3848.40 498.339   6
  -4   2  -9 4098.93 560.847  18
  -4   2 -10 1084.38 289.114  18
  -4   2 -11 177.337 133.273  18
  -4   2 -12 293.358 94.5685   5
   4  -1 -12 4855.38 358.949  21
   4  -1 -11 27.6815 122.171   4
   4  -1 -10 2765.58 423.241   4
   4  -1  -9 12698.0 942.734   4
   4  -1  -9 12900.1 906.352   7
   4  -1  -8 21404.8 1246.04   4
   4  -1  -8 16419.5 1080.14   7
   4  -1  -7 23222.1 1268.39   4
   4  -1  -7 18419.2 1135.63   7
   4  -1  -6 1407.38 328.310   7
  -4   1   6 1490.30 619.459   2
  -4   1   6 2072.92 700.312   1
   4  -1  -6 1513.79 338.031   4
   4  -1  -5 2180.45 378.684   4
   4  -1  -5 2140.17 360.565   7
  -4   1   5 1717.83 605.324   2
  -4   1   4 3486.57 853.305   2
  -4   1   3 112485. 4465.45   2
  -4   1   2 11154.5 1362.01   2
  -4   1   1 378.018 289.939   2
  -4   1   0 384.677 270.066   2
  -4   1  -1 12680.6 1321.25   2
  -4   1  -2 21549.4 1667.33   2
  -4   1  -3 133.366 192.053   2
  -4   1  -4 16519.1 1824.48   3
  -4   1  -5 26013.2 1196.34  17
  -4   1  -5 31066.2 2621.61   3
  -4   1  -6 7976.20 700.471  17
  -4   1  -6 8459.54 1478.01   3
  -4   1  -6 8267.32 722.582  18
  -4   1  -7 110.241 149.581  17
  -4   1  -7 43.0936 361.548   3
  -4   1  -7 218.034 129.709  18
  -4   1  -8 9331.04 1708.20   3
  -4   1  -8 11653.4 921.350   6
  -4   1  -8 11729.0 923.287  18
  -4   1  -9 7087.72 711.955   6
  -4   1  -9 6076.35 676.824  18
  -4   1 -10 74.2515 172.613   6
  -4   1 -10-13.4591 145.991  18
  -4   1 -11 1545.75 297.026  18
  -4   1 -12 814.070 177.116   5
  -4   1 -12 684.502 128.313  18
   4   0 -12 1215.69 179.488  21
   4   0 -11 1013.59 239.361   4
   4   0 -10 142.511 172.368   4
   4   0  -9 1237.55 308.611   4
   4   0  -8 6088.50 673.102   4
   4   0  -7 33669.0 1514.11   4
  -4   0   7 27787.5 2671.06   1
   4   0  -7 29709.7 1408.43   7
  -4   0   6 8321.20 1432.34   1
   4   0  -6 10044.2 805.836   4
   4   0  -6 9292.73 773.955   7
  -4   0   5 34939.5 2769.96   1
   4   0  -5 30730.2 1331.74   4
  -4   0   5 34498.9 2746.95   2
  -4   0   4 33076.6 2531.57   2
  -4   0   3 71207.2 3511.25   2
  -4   0   2 7099.79 1055.08   2
  -4   0   1 9781.33 1181.15   2
  -4   0   0 5891.54 892.432   2
  -4   0  -1 8148.54 1003.23   2
  -4   0  -2 209747. 4907.88   2
  -4   0  -3 9173.90 1230.18   3
  -4   0  -3 8414.03 918.125   2
  -4   0  -4 16164.8 1757.86   3
  -4   0  -5 14013.1 1751.23   3
  -4   0  -6 16029.9 974.287  17
  -4   0  -6 16742.3 2080.06   3
  -4   0  -6 12882.7 863.572  18
  -4   0  -7 13378.1 944.198  17
  -4   0  -7 11726.3 861.507  18
  -4   0  -7 13193.0 1943.06   3
  -4   0  -8 698.103 502.367   3
  -4   0  -8 1310.74 302.888   7
  -4   0  -8 1260.70 322.601  18
  -4   0  -9 4739.90 540.840   7
  -4   0  -9 5770.75 675.998   6
  -4   0  -9 5449.90 623.447  18
  -4   0 -10 408.878 228.490   6
  -4   0 -10 409.370 197.276  18
  -4   0 -11 309.769 142.036  18
  -4   0 -12 204.462 105.569   5
   4   1 -11 945.172 214.793   4
   4   1 -10 136.762 178.411   4
   4   1  -9 76.6359 153.915   4
   4   1  -8 29668.5 1421.10   4
  -4  -1   8 27599.5 1293.79  12
   4   1  -7 11566.0 887.296   4
  -4  -1   7 11077.9 846.503  12
  -4  -1   6 20633.9 1137.99  12
   4   1  -6 21535.8 1164.02   4
  -4  -1   5 20794.4 1098.30  12
   4   1  -5 19295.2 1048.75   4
  -4  -1   4 10124.9 1468.75   1
  -4  -1   3 879.894 430.154   2
  -4  -1   2 1365.13 475.772   2
  -4  -1   1 18049.6 1619.42   2
  -4  -1   0 6316.86 918.409   2
  -4  -1  -1 6759.95 898.362   2
  -4  -1  -2 1433.31 402.157   2
  -4  -1  -3 13.7757 191.353   3
  -4  -1  -4 5749.46 1033.75   3
  -4  -1  -5 13441.9 1756.88   3
  -4  -1  -6 43121.0 3349.33   3
  -4  -1  -6 36876.3 1468.15  17
  -4  -1  -7 23157.4 1244.22  17
  -4  -1  -7 25484.2 2713.73   3
  -4  -1  -8 83676.5 2406.60   7
  -4  -1  -8 75682.7 4906.53   3
  -4  -1  -9 26571.2 1339.44   7
  -4  -1  -9 26001.2 1393.05   6
  -4  -1 -10 11679.4 822.682   7
  -4  -1 -10 12352.1 934.912   6
  -4  -1 -11 572.722 237.826   6
  -4  -1 -12 434.974 149.401   5
   4   2 -10 2360.72 328.113   4
  -4  -2   9 14426.2 872.602  12
   4   2  -9 14588.7 896.664   4
   4   2  -8 3216.13 468.057   4
  -4  -2   8 3010.69 465.399  12
   4   2  -7 14037.2 939.028   4
  -4  -2   7 15800.4 1046.10  12
   4   2  -6 4423.30 521.571   4
  -4  -2   6 4684.47 543.969  15
  -4  -2   6 7732.81 731.509  12
  -4  -2   6 7092.35 1397.41   1
  -4  -2   5 9938.37 792.235  15
  -4  -2   5 10320.0 813.521  12
  -4  -2   5 11844.7 1728.61   1
  -4  -2   4 4527.81 525.947  12
  -4  -2   4 5234.21 1116.47   1
  -4  -2   3 366.770 334.182   1
  -4  -2   2 859.186 442.962   1
  -4  -2   1 22572.3 1458.15   9
  -4  -2   1 27259.5 2144.78   1
  -4  -2   0 10605.1 1266.92   1
  -4  -2   0 9324.77 1044.86   9
  -4  -2  -1 63829.5 2945.80   1
  -4  -2  -2 70313.5 3265.25   3
  -4  -2  -2 66681.3 2817.75   1
  -4  -2  -3 3926.65 849.584   3
  -4  -2  -3 2764.17 514.741   1
  -4  -2  -4 88799.8 4180.82   3
  -4  -2  -5 21431.2 2229.18   3
  -4  -2  -6 195.947 146.735  17
  -4  -2  -6-71.4581 264.483   3
  -4  -2  -6 175.343 137.811  11
  -4  -2  -7 1479.87 312.471  17
  -4  -2  -7 2108.01 778.255   3
  -4  -2  -7 1441.31 329.519  11
  -4  -2  -8 2948.58 478.286   7
  -4  -2  -8 4323.17 1220.59   3
  -4  -2  -9 16764.2 1100.11   7
  -4  -2  -9 17209.1 1131.01   6
  -4  -2 -10 927.479 292.744   7
  -4  -2 -10 729.618 277.037   6
  -4  -2 -11 136.209 133.465   7
  -4  -2 -11 101.614 148.123   6
  -4  -2 -12 1753.95 238.375   5
  -4  -3  10 101.260 85.2758  12
  -4  -3   9 118.169 166.074  12
  -4  -3   8 8391.01 753.931  12
  -4  -3   7 16538.4 1054.21  15
  -4  -3   7 16121.6 1084.49  12
  -4  -3   6 14367.6 1011.78  15
  -4  -3   6 17422.1 1123.44  12
  -4  -3   6 14628.1 2059.82   1
  -4  -3   5 1104.15 534.452   1
  -4  -3   5 511.390 216.382  15
  -4  -3   5 629.188 223.621  12
  -4  -3   4 60373.8 2006.47  15
  -4  -3   4 60243.4 1966.19  12
  -4  -3   4 57600.5 3746.14   1
  -4  -3   3 8932.28 751.539  15
  -4  -3   3 8590.97 722.007  12
  -4  -3   3 8623.76 1416.47   1
  -4  -3   2 9945.74 1443.16   1
  -4  -3   1 10054.0 1405.62   1
  -4  -3   0 56307.5 2888.28   9
  -4  -3   0 54780.0 2577.06   3
  -4  -3   0 60252.1 3195.15   1
  -4  -3  -1 25577.5 1849.05   3
  -4  -3  -1 26445.0 2019.20   1
  -4  -3  -1 26449.5 2078.77   9
  -4  -3  -2 654.026 323.121   3
  -4  -3  -2 1063.23 388.117   1
  -4  -3  -3 11574.6 1450.78   3
  -4  -3  -4 1694.98 591.840   3
  -4  -3  -5 1287.52 261.796  17
  -4  -3  -5 2104.38 691.120   3
  -4  -3  -5 2118.69 369.034  11
  -4  -3  -6 806.970 215.169  17
  -4  -3  -6 532.365 369.701   3
  -4  -3  -6 669.042 265.502  11
  -4  -3  -7 27855.1 1311.57  17
  -4  -3  -7 31215.0 1505.55   7
  -4  -3  -7 32881.2 1544.86  11
  -4  -3  -7 31420.3 3067.07   3
  -4  -3  -8 11254.5 941.964   7
  -4  -3  -8 11610.8 929.410   6
  -4  -3  -9 15507.7 1067.61   7
  -4  -3  -9 15754.2 1064.23   6
  -4  -3 -10 84.3174 159.480   7
  -4  -3 -10 69.0438 160.973   6
  -4  -3 -11 8308.05 636.736   7
  -4  -3 -12-25.8578 66.9867   7
  -4  -4   9 2179.42 326.123  12
  -4  -4   8 682.715 200.589  15
  -4  -4   8 711.084 251.602  12
  -4  -4   7 1156.67 323.363  15
  -4  -4   7 1207.01 330.483  12
  -4  -4   6 3198.38 512.949  15
  -4  -4   6 3232.04 516.958  12
  -4  -4   5 964.587 286.983  15
  -4  -4   5 869.791 510.668   1
  -4  -4   5 583.233 253.972  12
  -4  -4   4 14717.8 1045.23  15
  -4  -4   4 14037.3 1007.41  12
  -4  -4   4 13135.1 1948.29   1
  -4  -4   3 11996.7 921.144  15
  -4  -4   3 11820.2 902.172  12
  -4  -4   3 10641.2 1664.04   1
  -4  -4   2 2725.72 861.732   1
  -4  -4   2 2524.92 420.029  15
  -4  -4   2 2213.06 386.096  12
  -4  -4   1 3060.15 811.349   1
  -4  -4   1 3804.18 482.520  12
  -4  -4   1 3444.26 468.219  15
  -4  -4   0 3206.92 796.831   1
  -4  -4   0 2863.12 429.741  15
  -4  -4  -1 4628.14 936.034   1
  -4  -4  -1 4725.92 527.673  10
  -4  -4  -1 4172.44 966.852   9
  -4  -4  -2 9291.80 1180.30   1
  -4  -4  -2 8869.50 744.088  11
  -4  -4  -2 8756.91 716.102  10
  -4  -4  -2 11069.5 1553.55   9
  -4  -4  -3 11059.4 1401.64   3
  -4  -4  -3 11062.0 845.787  11
  -4  -4  -3 12100.2 1708.26   9
  -4  -4  -4 392.966 366.588   3
  -4  -4  -4 302.442 168.838  11
  -4  -4  -4 554.255 402.942   9
  -4  -4  -5-584.393 373.623   3
  -4  -4  -5 305.006 153.385  11
  -4  -4  -5-129.704 433.336   9
  -4  -4  -6 1689.79 678.258   3
  -4  -4  -6 1795.86 362.785   7
  -4  -4  -6 2095.54 406.915  11
  -4  -4  -6 2402.29 894.451   9
  -4  -4  -7 9592.99 860.419   7
  -4  -4  -7 6660.54 1445.63   3
  -4  -4  -7 9289.91 859.874  11
  -4  -4  -7 7902.48 1708.50   9
  -4  -4  -8 11318.5 940.197   7
  -4  -4  -8 12246.7 988.977  11
  -4  -4  -8 12532.5 930.586   6
  -4  -4  -9 2845.38 472.344   7
  -4  -4  -9 3195.60 480.698   6
  -4  -4 -10 5489.46 593.862   7
  -4  -4 -10 5130.21 538.330   6
  -4  -4 -11 3035.72 376.227   7
  -4  -4 -12 3932.34 323.354   7
  -4  -5   9 223.698 130.990  12
  -4  -5   8 182.933 166.100  12
  -4  -5   7 826.196 269.390  15
  -4  -5   7 766.138 269.981  12
  -4  -5   6 6431.11 696.456  15
  -4  -5   6 6565.62 695.380  12
  -4  -5   5 1592.92 394.315  15
  -4  -5   5 1666.31 394.082  12
  -4  -5   4 41.2378 199.348  15
  -4  -5   4 73.1464 176.368  12
  -4  -5   3 239.508 200.704  15
  -4  -5   3 227.770 175.829  12
  -4  -5   3 547.715 635.505   1
  -4  -5   2 301.740 166.143  15
  -4  -5   2 652.765 519.335   1
  -4  -5   2 201.372 166.032  12
  -4  -5   1 8459.74 794.097  15
  -4  -5   1 7235.00 706.810  12
  -4  -5   1 8143.31 1445.68   1
  -4  -5   0 4984.64 601.849  15
  -4  -5   0 3779.60 483.847  12
  -4  -5   0 4589.69 1102.11   1
  -4  -5   0 5495.75 607.375  10
  -4  -5  -1 965.265 454.055   1
  -4  -5  -1 970.659 288.035  10
  -4  -5  -2 2084.26 402.186  11
  -4  -5  -2 2205.42 370.689  10
  -4  -5  -2 1392.45 639.787   9
  -4  -5  -3 26280.5 1378.87  11
  -4  -5  -3 28276.8 1348.26  10
  -4  -5  -3 28092.4 2830.39   9
  -4  -5  -4 20274.4 1141.91   7
  -4  -5  -4 22496.1 1297.85  11
  -4  -5  -4 22017.2 2593.97   9
  -4  -5  -4 17467.0 1060.25   8
  -4  -5  -5 1176.56 299.103   7
  -4  -5  -5 1269.56 345.314  11
  -4  -5  -5 1139.06 854.375   9
  -4  -5  -6 186.773 228.467   7
  -4  -5  -6 240.651 254.783  11
  -4  -5  -6-469.497 457.083   9
  -4  -5  -7 22552.3 1297.17   7
  -4  -5  -7 21905.4 1304.60  11
  -4  -5  -8 10804.4 886.940   7
  -4  -5  -8 9401.05 753.644   6
  -4  -5  -8 9716.35 869.448  11
  -4  -5  -9 4668.86 553.151   7
  -4  -5  -9 3416.08 406.907   6
  -4  -5 -10 366.122 185.241   7
  -4  -5 -11 2749.88 327.435   7
  -4  -6   8 1681.32 243.836  12
  -4  -6   7 2197.35 332.642  15
  -4  -6   7 2035.03 331.518  12
  -4  -6   6 9504.50 768.709  15
  -4  -6   6 9089.01 746.142  12
  -4  -6   5 641.712 256.323  15
  -4  -6   5 447.985 211.393  12
  -4  -6   4 16144.3 1120.05  15
  -4  -6   4 16134.7 1076.70  12
  -4  -6   3 5664.24 693.366  15
  -4  -6   3 5244.55 636.908  12
  -4  -6   2 2929.56 517.850  15
  -4  -6   2 3295.92 511.222  12
  -4  -6   2 2592.90 1038.02   1
  -4  -6   1 13277.8 1028.81  15
  -4  -6   1 10354.0 850.745  12
  -4  -6   1 10265.1 1745.08   1
  -4  -6   0 9893.40 865.588  15
  -4  -6   0 9420.06 844.598  10
  -4  -6  -1 78200.3 2480.53  11
  -4  -6  -1 78480.5 2406.49  10
  -4  -6  -2 1406.97 372.021  11
  -4  -6  -2 1457.50 364.696  10
  -4  -6  -3 67639.8 2297.99  11
  -4  -6  -3 73709.8 2287.75  10
  -4  -6  -3 56582.3 1884.65   8
  -4  -6  -3 63233.3 4544.92   9
  -4  -6  -4 21901.1 1320.87  11
  -4  -6  -4 16338.1 2361.79   9
  -4  -6  -4 18963.5 1115.88   8
  -4  -6  -5 20981.0 1174.44   7
  -4  -6  -5 22546.6 1351.65  11
  -4  -6  -5 19301.9 1134.57   8
  -4  -6  -6 519.405 246.418   7
  -4  -6  -6 282.674 221.829  11
  -4  -6  -7 491.084 252.390   7
  -4  -6  -7 273.486 217.119  11
  -4  -6  -8 83.8224 173.594   7
  -4  -6  -8-138.729 200.415  11
  -4  -6  -9-0.69330 135.909   7
  -4  -6 -10 10244.0 629.001   7
  -4  -6 -10 152.043 69.0675   8
  -4  -7   7 191.684 103.364  12
  -4  -7   6 13864.6 739.762  12
  -4  -7   5 2888.62 416.301  15
  -4  -7   5 2802.25 398.444  12
  -4  -7   4 443.495 238.833  15
  -4  -7   4 323.785 165.099  12
  -4  -7   3 9728.53 838.644  15
  -4  -7   3 8289.16 711.384  12
  -4  -7   2 962.041 321.018  15
  -4  -7   2 823.593 257.396  12
  -4  -7   0 3421.60 542.029  11
  -4  -7  -1 25790.3 1427.34  11
  -4  -7  -2 1031.12 343.402  11
  -4  -7  -2 1273.22 345.590  10
  -4  -7  -3 6094.77 711.475  11
  -4  -7  -4 296.172 254.601  11
  -4  -7  -4 4609.89 617.298   8
  -4  -7  -5 11059.0 917.963  11
  -4  -7  -5 12104.0 863.639   8
  -4  -7  -6 1223.18 258.904   7
  -4  -7  -6 1505.89 362.520  11
  -4  -7  -6 2003.77 396.659   8
  -4  -7  -7 2126.06 336.283   7
  -4  -7  -7 2813.92 445.390  11
  -4  -7  -7 2589.66 397.966   8
  -4  -7  -8 675.873 209.008   7
  -4  -7  -8 658.439 234.810   8
  -4  -7  -9 1028.23 196.184   7
  -4  -7  -9 144.969 93.9481   8
  -4  -8   5 2458.33 274.645  11
  -4  -8   4-73.5384 86.1769  12
  -4  -8   4 636.124 232.689  11
  -4  -8   3 4700.76 497.890  11
  -4  -8   2 209.221 210.023  11
  -4  -8   1 2366.95 414.533  11
  -4  -8   0 8384.14 747.521  11
  -4  -8  -1 4642.94 571.511  11
  -4  -8  -2 228.873 187.948  11
  -4  -8  -3 11012.0 855.960  11
  -4  -8  -4 2857.78 449.245  11
  -4  -8  -5 4970.29 547.029  11
  -4  -8  -6 531.870 218.022  11
  -4  -8  -7 183.679 144.324  11
  -4  -9   2 1839.72 239.603  11
  -4  -9   1-49.2776 111.358  11
  -4  -9   0 1935.74 300.076  11
  -4  -9  -1 1617.39 284.385  11
  -4  -9  -2 6157.42 524.894  11
  -4  -9  -3 1900.47 305.773  11
  -4  -9  -4 5819.93 482.569  11
  -4  -9  -5 4495.03 396.116  11
   5  -9  -4 1697.98 210.010  10
   5  -9  -3 108.593 95.9875  10
   5  -9  -2 3060.50 307.057  10
   5  -9  -1 1663.17 235.394  10
   5  -9   0 453.217 119.725  10
   5  -8  -6 143.617 91.1351  10
   5  -8  -5 5008.31 444.754  10
   5  -8  -4 198.753 141.812  10
   5  -8  -3 2504.00 367.594  10
   5  -8  -2 5009.67 522.425  10
   5  -8  -1 8214.35 656.082  10
   5  -8   0 18467.8 935.476  10
   5  -8   0 49.5946 105.183  19
   5  -8   1 64.4091 106.762  19
   5  -8   1 126.937 122.715  10
   5  -8   2-96.2833 124.259  19
   5  -8   3 899.318 213.597  19
   5  -8   4 765.737 173.956  19
   5  -8   5 479.778 121.729  13
   5  -7  -7 56.6099 86.6390  10
   5  -7  -6 4632.62 461.633  10
   5  -7  -5 3499.03 453.709  10
   5  -7  -5 166.562 122.724  20
   5  -7  -4 6074.72 576.993  20
   5  -7  -4 6394.48 640.844  10
   5  -7  -3 35.7945 185.293  10
   5  -7  -3 287.400 192.885  20
   5  -7  -2 14702.3 1001.44  10
   5  -7  -1 34454.7 1521.60  10
  -5   7   1 34117.5 1420.99  18
   5  -7   0 559.215 253.047  10
  -5   7   0 570.030 217.941  18
   5  -7   1 4752.95 540.091  10
  -5   7  -1 4745.48 537.797  18
   5  -7   2 584.230 205.559  10
  -5   7  -2 561.261 240.455  18
   5  -7   3 2490.28 404.836  19
  -5   7  -3 2685.61 391.555  18
   5  -7   4 1257.29 285.925  19
  -5   7  -4 1167.17 251.008  18
   5  -7   5 1147.29 261.195  19
  -5   7  -5 720.572 186.605  18
   5  -7   6 188.359 133.421  19
  -5   7  -6 7.63461 78.5764  18
   5  -6  -7 302.573 304.256   7
   5  -6  -7 715.716 200.933  10
   5  -6  -7-163.753 88.0609  20
   5  -6  -6 713.119 295.648   7
   5  -6  -6 1676.42 307.538  20
   5  -6  -5 116.319 345.270   7
   5  -6  -5 839.063 261.143  20
   5  -6  -4 16042.8 1033.81  20
   5  -6  -3 10544.3 876.776  20
   5  -6  -2 5199.25 649.577  20
   5  -6  -1 211.331 214.147  20
   5  -6   0 125361. 3106.27  20
  -5   6  -1 6680.33 706.045  18
   5  -6   2 319.623 198.951  10
  -5   6  -2 244.978 202.289  18
  -5   6  -3 824.693 280.972  18
  -5   6  -4-91.7958 166.283  18
   5  -6   5 2592.98 427.325  19
  -5   6  -5 1840.79 364.814  18
   5  -6   6 122.464 145.676  19
  -5   6  -6 145.136 141.818  18
   5  -6   7 435.081 168.367  19
  -5   6  -7 390.921 164.197  18
  -5   6  -8 2493.69 273.138  18
   5  -5  -9 2968.79 412.528   7
   5  -5  -9 3895.07 391.339  21
   5  -5  -8-42.2693 108.844  20
   5  -5  -8 99.0601 333.602  21
   5  -5  -7 630.287 314.816   7
   5  -5  -7 1080.55 278.431  20
   5  -5  -7 879.050 275.250  21
   5  -5  -6 451.629 314.206   7
   5  -5  -6 987.463 301.411  21
   5  -5  -5 5447.39 649.626  21
   5  -5  -5 6082.88 664.463  20
   5  -5  -5 5561.93 684.293   7
   5  -5  -4 1688.60 394.463   7
   5  -5  -4 1752.81 376.674  20
   5  -5  -4 2216.84 426.373  21
   5  -5  -3 51173.2 1950.51  21
   5  -5  -3 52206.6 1937.44  20
   5  -5  -3 51970.1 1959.31   7
  -5   5   2 20965.0 2555.03   2
   5  -5  -2 23015.5 1296.85  20
  -5   5   1 11762.3 1845.33   2
   5  -5  -1 10489.4 881.008  20
   5  -5   0 1122.26 307.110  20
  -5   5   0 590.391 446.856   2
   5  -5   1 2790.88 512.848  20
  -5   5  -1 1695.26 775.778   2
  -5   5  -2 495.901 243.616  18
  -5   5  -2 1977.67 775.807   2
  -5   5  -3 55.2014 214.312   2
  -5   5  -3 469.761 243.856  18
  -5   5  -4 168.644 201.258  18
  -5   5  -5 18932.5 1169.24  18
   5  -5   6 371.095 215.726  19
  -5   5  -6 366.492 208.506  18
   5  -5   7 4156.66 497.062  19
  -5   5  -7 3540.86 472.205  18
  -5   5  -8 4593.65 470.323  18
  -5   5  -9 1753.98 246.874  18
   5  -4 -10 6089.81 461.634  21
   5  -4 -10 111.014 61.6045  20
   5  -4  -9 16359.9 902.537  21
   5  -4  -9 14122.5 894.907   7
   5  -4  -8 1345.42 382.978   7
   5  -4  -8 2236.50 405.915  21
   5  -4  -7 13350.5 976.986  21
   5  -4  -7 13574.3 1029.71   7
   5  -4  -6 164.591 218.293   7
   5  -4  -6 236.085 242.516  21
   5  -4  -5 1833.30 418.635   7
   5  -4  -5 2222.64 440.880  21
  -5   4   4 3737.73 941.666   2
   5  -4  -4 3313.72 499.930  21
   5  -4  -4 3203.83 507.881   7
  -5   4   3 205.519 279.810   2
   5  -4  -3 428.014 208.780   7
   5  -4  -3 920.803 265.033  21
  -5   4   2-98.8066 257.187   2
   5  -4  -2 144.724 134.963  21
   5  -4  -2 307.157 164.156  20
   5  -4  -2-415.700 208.259   7
   5  -4  -1 5015.62 586.954  20
  -5   4   1 4119.46 1029.65   2
  -5   4   0 12797.0 1873.00   2
   5  -4   0 14711.9 996.023  20
   5  -4   1 24154.3 1289.29  20
  -5   4  -1 22765.9 2470.37   2
   5  -4   2 2993.63 477.189  20
  -5   4  -2 3328.11 944.279   2
  -5   4  -3 720.772 230.595  18
  -5   4  -3 985.031 542.583   3
  -5   4  -3 699.832 452.133   2
  -5   4  -4 11382.1 926.609  18
  -5   4  -5 39.0937 187.385  18
  -5   4  -6 2128.81 430.198  18
   5  -4   7 250.813 194.151  19
  -5   4  -7 245.352 211.568  18
   5  -4   8 407.309 185.872  19
  -5   4  -8 432.243 223.725  18
  -5   4  -9 376.204 175.651  18
  -5   4 -10-81.0020 90.8014  18
   5  -3 -11 936.798 165.249  21
   5  -3 -10 6791.01 548.207  21
   5  -3  -9 1283.52 298.715  21
   5  -3  -9 1051.05 280.747   7
   5  -3  -8 7058.13 704.069  21
   5  -3  -8 6708.67 714.929   7
   5  -3  -7 36985.7 1643.36  21
   5  -3  -7 35044.0 1656.62   7
   5  -3  -6 1154.75 343.422   7
  -5   3   6 1001.23 537.555   2
   5  -3  -6 1435.61 361.082  21
   5  -3  -5 452.383 215.169   7
  -5   3   5 758.819 556.321   2
   5  -3  -5 672.611 238.595  21
  -5   3   4 25900.8 2711.78   2
   5  -3  -4 24552.2 1313.86  21
   5  -3  -4 26319.0 1393.16   7
  -5   3   3 16629.6 2113.90   2
   5  -3  -3 18606.0 1113.66  21
   5  -3  -3 18097.7 1132.78   7
  -5   3   2 4443.53 1036.27   2
   5  -3  -2 4261.28 521.868  21
   5  -3  -2 3875.66 514.396   7
  -5   3   1 13.1349 207.919   2
   5  -3  -1 118.529 124.166  21
  -5   3   0 73477.1 4172.40   2
   5  -3   0 65873.0 1992.16  20
   5  -3   1 7466.98 687.647  20
  -5   3  -1 8781.88 1439.21   2
   5  -3   2-124.908 155.799  20
  -5   3  -2 275.915 326.617   2
  -5   3  -3-8.99980 85.4853  17
   5  -3   3 104.666 107.055  20
  -5   3  -4 1419.26 284.607  17
  -5   3  -4 1572.67 687.632   3
  -5   3  -4 2753.07 435.186  18
  -5   3  -5 546.099 224.575  17
  -5   3  -5 574.825 239.583  18
  -5   3  -6 87.5440 198.002  18
   5  -3   7 4567.76 539.604  19
  -5   3  -7 4972.63 613.607  18
   5  -3   8 7343.31 631.626  19
  -5   3  -8 8870.56 771.480  18
  -5   3  -9 10888.5 787.726  18
  -5   3 -10 277.851 143.566  18
   5  -2 -11 15458.7 687.763  21
   5  -2 -10 1517.52 298.958  21
   5  -2  -9 2173.52 391.511   4
   5  -2  -9 2356.00 410.530  21
   5  -2  -9 1748.81 342.797   7
   5  -2  -8 53427.6 1950.45   4
   5  -2  -8 54536.5 1967.67  21
   5  -2  -8 55511.8 1976.27   7
   5  -2  -7 9856.07 876.413   4
   5  -2  -7 9408.68 851.839  21
   5  -2  -7 9210.16 862.170   7
   5  -2  -6-327.814 221.021   7
  -5   2   6 438.237 397.851   2
   5  -2  -6 1.98823 170.084   4
   5  -2  -6 7.88674 153.219  21
   5  -2  -5 492.745 209.152   7
   5  -2  -5 454.338 207.202  21
   5  -2  -5 269.168 170.238   4
  -5   2   4 8148.66 1450.90   2
   5  -2  -4 8070.39 723.717  21
   5  -2  -4 8907.46 800.753   7
   5  -2  -3 27792.3 1309.84  21
  -5   2   3 26571.1 2553.27   2
   5  -2  -3 27992.9 1363.07   7
  -5   2   2 22647.2 2289.91   2
   5  -2  -2 21798.3 1133.95  21
   5  -2  -2 21022.4 1165.69   7
  -5   2   1 41113.0 2987.66   2
  -5   2   0 4880.82 1016.93   2
  -5   2  -1 2205.48 679.201   2
  -5   2  -2 20082.1 2024.89   2
  -5   2  -3 7796.35 651.548  16
   5  -2   3 8661.15 729.838  20
  -5   2  -4-8.83787 76.2189  17
  -5   2  -4-144.988 127.121  18
  -5   2  -5 1285.75 288.725  17
  -5   2  -5 590.709 401.308   3
  -5   2  -5 1425.33 320.412  18
  -5   2  -6 2148.18 397.568  17
  -5   2  -6 2481.61 945.852   3
  -5   2  -6 2609.00 455.079  18
   5  -2   7 10732.9 803.849  19
  -5   2  -7 12637.5 955.210  18
  -5   2  -8 2431.84 412.272   6
  -5   2  -8 1942.54 396.302  18
  -5   2  -9 10775.5 763.554   6
  -5   2  -9 11184.3 832.254  18
  -5   2 -10 22546.3 1036.56  18
  -5   2 -11 3095.29 307.305  18
   5  -1 -11-67.4484 88.6560  21
   5  -1 -10 627.393 207.369   4
   5  -1 -10 732.464 222.715  21
   5  -1  -9 173.192 198.758   4
   5  -1  -8 13282.5 982.685   4
   5  -1  -8 13525.5 963.213   7
   5  -1  -7 19764.5 1220.15   4
   5  -1  -7 20084.5 1232.65   7
   5  -1  -6 9040.78 818.638   4
   5  -1  -6 9856.27 832.959   7
   5  -1  -5 27745.6 1386.32   4
  -5   1   5 27016.1 2680.74   2
   5  -1  -5 28432.1 1440.50   7
  -5   1   4 5808.95 1196.55   2
   5  -1  -4 6363.69 647.989   4
   5  -1  -4 6031.19 643.617   7
  -5   1   3 6185.31 1224.60   2
   5  -1  -3 5109.48 557.166  21
   5  -1  -3 5386.61 587.856   7
  -5   1   2 13702.2 1738.78   2
  -5   1   1 44871.9 3011.15   2
  -5   1   0 38055.2 2715.87   2
  -5   1  -1 4419.22 906.423   2
  -5   1  -2 565.023 341.796   2
  -5   1  -3 903.988 404.826   2
  -5   1  -4 2276.62 359.435  16
  -5   1  -4 2560.62 781.073   3
  -5   1  -4 1904.09 358.322  18
  -5   1  -5 36.5789 107.033  17
  -5   1  -5 126.039 98.2622  18
  -5   1  -6 33956.4 1508.00  17
  -5   1  -6 38172.2 3440.78   3
  -5   1  -6 35205.4 1534.14  18
  -5   1  -7 97216.9 2631.84  17
  -5   1  -7 102292. 2628.10  18
  -5   1  -7 93712.5 5508.95   3
  -5   1  -8 2941.60 474.798  18
  -5   1  -9 3905.42 525.111   6
  -5   1  -9 3629.94 489.681  18
  -5   1 -10 1039.06 273.051   6
  -5   1 -10 914.132 240.835  18
  -5   1 -11 90.6487 72.2747  18
   5   0 -11 1448.98 224.652  21
   5   0 -10 1848.76 316.419   4
   5   0 -10 2055.57 340.357  21
   5   0  -9 2703.06 425.893   4
   5   0  -8 828.824 306.930   4
   5   0  -7 0.96866 177.751   4
  -5   0   6-171.098 132.337  12
  -5   0   6-213.317 316.723   1
   5   0  -6 19.9325 107.858   4
  -5   0   5 2400.37 383.703  12
  -5   0   5 3556.34 1021.97   1
   5   0  -5 3318.42 480.450   4
   5   0  -5 2849.70 461.516   7
  -5   0   4 3711.71 981.465   2
  -5   0   4 3706.71 465.430  12
   5   0  -4 4115.13 520.060   4
  -5   0   3-273.370 356.483   2
  -5   0   2 15828.3 1812.84   2
  -5   0   1 17043.7 1798.10   2
  -5   0   0 2212.19 648.367   2
  -5   0  -1 11660.8 1403.64   2
  -5   0  -2 18633.6 1712.19   2
  -5   0  -3 42940.5 3088.61   3
  -5   0  -4 33762.0 1385.01  16
  -5   0  -4 39365.2 3091.46   3
  -5   0  -5 717.371 217.317  17
  -5   0  -5 595.414 207.293  16
  -5   0  -5 834.904 540.412   3
  -5   0  -5 389.361 152.738  18
  -5   0  -6 2541.75 412.746  17
  -5   0  -6 3254.05 991.998   3
  -5   0  -6 1855.34 331.967  18
  -5   0  -7 8868.11 800.782  17
  -5   0  -7 6843.82 1480.53   3
  -5   0  -7 7590.35 702.153  18
  -5   0  -8 23.8810 121.371   7
  -5   0  -8 125.359 138.640  18
  -5   0  -9 386.666 175.711   7
  -5   0  -9 584.435 262.770   6
  -5   0  -9 316.822 170.332  18
  -5   0 -10-29.9758 152.052   6
  -5   0 -10-277.346 141.012  18
  -5   0 -12 1789.58 212.233   5
   5   1 -11 901.599 152.363  21
   5   1  -9 37.5159 142.828   4
  -5  -1   8 10.1691 129.098  12
   5   1  -8 344.541 238.919   4
  -5  -1   7 2252.74 398.666  12
   5   1  -7 2376.16 435.806   4
  -5  -1   6 2221.49 388.190  12
   5   1  -6 2527.78 436.555   4
  -5  -1   6 2323.48 841.930   1
  -5  -1   5 34635.1 1497.70  12
  -5  -1   5 35935.3 3188.45   1
  -5  -1   4 1827.17 355.778  12
  -5  -1   4 1954.94 702.667   1
   5   1  -4 1604.06 334.853   4
  -5  -1   3 15172.7 1917.02   1
  -5  -1   3 13328.8 891.240  12
  -5  -1   2 9429.04 1432.60   2
  -5  -1   1 24141.2 2153.06   2
  -5  -1   0-487.905 292.145   2
  -5  -1  -1 7938.86 1123.16   2
  -5  -1  -2 27019.3 1951.52   2
  -5  -1  -3 1795.59 614.480   3
  -5  -1  -4 7628.40 669.415  16
  -5  -1  -4 9106.30 1485.79   3
  -5  -1  -5 3818.29 482.996  16
  -5  -1  -5 4092.41 1074.08   3
  -5  -1  -6 4612.49 564.573  17
  -5  -1  -6 5887.47 1311.47   3
  -5  -1  -7 3531.79 517.975  17
  -5  -1  -7 3908.60 1163.54   3
  -5  -1  -8 5156.71 621.091  17
  -5  -1  -8 5012.43 618.122   7
  -5  -1  -9 27784.5 1341.13   7
  -5  -1  -9 27810.1 1398.79   6
  -5  -1 -10 10806.9 738.919   7
  -5  -1 -10 11720.4 856.138   6
  -5  -1 -11 4328.61 453.611   6
  -5  -2  10 1604.39 203.522  14
   5   2 -10 2849.74 304.309  21
  -5  -2   9 2108.04 308.566  12
   5   2  -9 2333.11 321.367   4
   5   2  -8 128.558 124.450   4
  -5  -2   8 207.540 158.185  12
  -5  -2   7 10248.5 837.689  12
   5   2  -7 7392.23 678.311   4
  -5  -2   6 14269.5 1005.14  12
   5   2  -6 12423.1 901.289   4
  -5  -2   5 27309.1 1379.07  12
  -5  -2   5 29392.8 2934.36   1
  -5  -2   4 4596.34 558.560  12
  -5  -2   4 4860.97 1170.00   1
  -5  -2   3 2340.25 392.517  12
  -5  -2   3 2077.02 766.960   1
  -5  -2   2 561.983 199.936  12
  -5  -2   2 460.316 382.202   1
  -5  -2   1 852.937 465.400   1
  -5  -2   0 3952.63 899.051   1
  -5  -2  -1 5952.83 1024.91   1
  -5  -2  -2 23642.7 2182.17   3
  -5  -2  -2 19442.4 1797.63   1
  -5  -2  -3 11268.5 811.513  16
  -5  -2  -3 12598.7 1656.53   3
  -5  -2  -4 2289.16 383.469  16
  -5  -2  -4 2143.56 716.808   3
  -5  -2  -5 4175.44 514.935  16
  -5  -2  -5 3924.01 490.454  11
  -5  -2  -6 12321.3 900.133  17
  -5  -2  -6 13699.2 2073.77   3
  -5  -2  -7 3995.80 533.520  17
  -5  -2  -7 3827.05 1239.77   3
  -5  -2  -8 28433.9 1447.07   7
  -5  -2  -9 73.6808 173.101   7
  -5  -2  -9 54.9677 198.470   6
  -5  -2 -10 551.804 229.154   7
  -5  -2 -10 506.074 232.358   6
  -5  -2 -11 399.118 148.739   7
  -5  -2 -11 757.256 209.086   6
  -5  -2 -11 706.925 173.625   5
  -5  -3   9 52.6513 70.3958  12
  -5  -3   8 4835.02 532.681  12
  -5  -3   7 931.418 301.245  12
  -5  -3   6 3370.70 518.846  12
  -5  -3   5 8769.99 802.231  15
  -5  -3   5 8249.13 792.424  12
  -5  -3   5 8282.74 1588.41   1
  -5  -3   4 20354.4 1223.13  15
  -5  -3   4 19595.2 1192.24  12
  -5  -3   4 20454.2 2447.68   1
  -5  -3   3 547.294 218.521  15
  -5  -3   3 168.234 147.942  12
  -5  -3   3-146.034 437.553   1
  -5  -3   2 1361.91 303.198  12
  -5  -3   2 989.859 525.919   1
  -5  -3   1 260.204 178.551  12
  -5  -3   1 566.357 363.750   1
  -5  -3   0 343.755 143.094  14
  -5  -3   0 161.851 118.318  12
  -5  -3  -1 4137.93 498.907  14
  -5  -3  -1 3849.73 865.799   3
  -5  -3  -1 4076.74 911.643   1
  -5  -3  -1 3632.04 810.606   9
  -5  -3  -2 527.754 181.199  14
  -5  -3  -2 1097.50 468.432   3
  -5  -3  -2 563.964 203.347  11
  -5  -3  -2 593.465 403.455   9
  -5  -3  -2 169.010 313.414   1
  -5  -3  -3 282.202 137.906  16
  -5  -3  -3-6.03490 162.632   3
  -5  -3  -3 416.082 188.617  11
  -5  -3  -4 93.5736 131.983  16
  -5  -3  -4 292.774 172.253  11
  -5  -3  -5-112.356 97.1833  17
  -5  -3  -5-236.565 147.789  16
  -5  -3  -5-219.577 263.711   3
  -5  -3  -5 53.3542 121.471  11
  -5  -3  -6 114.614 139.384  17
  -5  -3  -6-209.693 412.292   3
  -5  -3  -6-81.1950 140.530  11
  -5  -3  -7 17901.4 1081.84  17
  -5  -3  -7 16815.1 1134.54   7
  -5  -3  -7 17886.4 1153.34  11
  -5  -3  -8 126.729 191.279   7
  -5  -3  -9 6462.52 673.664   7
  -5  -3  -9 6121.10 649.207   6
  -5  -3 -10 537.056 205.346   7
  -5  -3 -10 786.300 244.717   6
  -5  -3 -11 3417.90 369.549   7
  -5  -4   9 6927.91 453.445  12
  -5  -4   8 928.497 233.972  12
  -5  -4   7 215.482 160.531  12
  -5  -4   6 3603.83 526.040  12
  -5  -4   5 277.872 196.006  15
  -5  -4   5 213.461 227.181  12
  -5  -4   4 1087.91 318.361  15
  -5  -4   4 2090.97 847.121   1
  -5  -4   4 1268.69 345.321  12
  -5  -4   3 5647.89 1353.62   1
  -5  -4   3 6256.89 708.820  15
  -5  -4   3 6293.80 703.643  12
  -5  -4   2 4975.81 622.153  15
  -5  -4   2 4436.61 580.553  12
  -5  -4   2 3494.54 1024.83   1
  -5  -4   1 54229.5 1912.20  12
  -5  -4   1 56848.0 3791.65   1
  -5  -4   0 19447.8 1112.06  14
  -5  -4   0 20154.2 1148.70  12
  -5  -4   0 20381.1 2202.46   1
  -5  -4  -1 204.306 293.249   1
  -5  -4  -1 672.714 214.853  14
  -5  -4  -1 305.970 291.627   9
  -5  -4  -2 3892.71 478.464  14
  -5  -4  -2 5263.73 614.555  11
  -5  -4  -2 5745.86 1535.69   9
  -5  -4  -3 22646.8 1160.61  16
  -5  -4  -3 27635.4 1405.21  11
  -5  -4  -3 25578.4 2665.37   9
  -5  -4  -4 16.8603 59.4622  16
  -5  -4  -4 177.608 145.832  11
  -5  -4  -5 192.771 298.916   3
  -5  -4  -5 946.858 301.678  11
  -5  -4  -5 559.880 420.680   9
  -5  -4  -6 5854.42 664.647   7
  -5  -4  -6 6803.03 735.925  11
  -5  -4  -6 6151.35 1558.19   9
  -5  -4  -7 709.644 289.585   7
  -5  -4  -7 545.687 275.278  11
  -5  -4  -8 3932.11 548.778   7
  -5  -4  -8 4117.42 562.626  11
  -5  -4  -8 3736.06 506.537   6
  -5  -4  -9 1862.90 367.176   7
  -5  -4  -9 1691.06 332.763   6
  -5  -4 -10 43.6788 135.371   7
  -5  -4 -10 81.5284 142.406   6
  -5  -4 -11-57.8095 97.2799   7
  -5  -5   8 367.764 149.196  12
  -5  -5   7-12.0670 121.241  12
  -5  -5   6 6543.71 646.153  12
  -5  -5   5 8010.16 762.250  12
  -5  -5   4 69.3685 191.321  15
  -5  -5   4 83.4210 169.259  12
  -5  -5   3 1334.63 355.516  15
  -5  -5   3 1597.12 389.357  12
  -5  -5   2-21.0530 359.616   1
  -5  -5   2 0.98475 157.958  12
  -5  -5   1 23742.5 1258.96  14
  -5  -5   1 21771.1 2530.64   1
  -5  -5   1 24603.8 1314.61  12
  -5  -5   0 854.406 255.780  14
  -5  -5   0 692.025 498.851   1
  -5  -5   0 819.629 257.665  12
  -5  -5  -1 9167.51 751.672  14
  -5  -5  -2 29.9327 95.2695  11
  -5  -5  -2 379.812 435.413   9
  -5  -5  -3 200.392 194.468  11
  -5  -5  -3-321.913 468.856   9
  -5  -5  -4 3553.30 511.487   7
  -5  -5  -4 3606.76 568.386  11
  -5  -5  -4 2949.56 978.728   9
  -5  -5  -5 93692.9 2561.19   7
  -5  -5  -5 85567.6 2594.78  11
  -5  -5  -6 695.601 279.802   7
  -5  -5  -6 545.587 273.978  11
  -5  -5  -7 1998.28 409.522   7
  -5  -5  -7 2184.49 444.690  11
  -5  -5  -8-5.23070 152.850   7
  -5  -5  -8-25.0707 176.452  11
  -5  -5  -8 205.111 138.100   6
  -5  -5  -9 31.4342 138.129   7
  -5  -5  -9-298.956 124.072   6
  -5  -5 -10 249.014 142.355   7
  -5  -5 -11 1596.39 205.587   7
  -5  -6   7 86.9682 104.134  14
  -5  -6   7 29.8641 90.3671  12
  -5  -6   6 3947.77 436.658  12
  -5  -6   5 264.769 174.578  12
  -5  -6   4 19593.1 1116.06  12
  -5  -6   3 10379.5 840.581  12
  -5  -6   2 206.396 171.403  14
  -5  -6   2 265.363 234.357  12
  -5  -6   1 640.450 246.495  14
  -5  -6   1 847.197 285.243  12
  -5  -6   0 14846.7 941.051  14
  -5  -6  -1 42632.2 1841.64  11
  -5  -6  -2 2342.41 475.822  11
  -5  -6  -3 22767.6 1347.43  11
  -5  -6  -4 6550.30 740.204  11
  -5  -6  -5 18139.6 1064.49   7
  -5  -6  -5 18560.2 1199.34  11
  -5  -6  -6 1225.79 287.293   7
  -5  -6  -6 1180.56 353.193  11
  -5  -6  -7 579.688 221.973   7
  -5  -6  -7 493.762 242.244  11
  -5  -6  -8 1163.81 274.976   7
  -5  -6  -8 869.879 270.509  11
  -5  -6  -9 466.058 174.229   7
  -5  -6 -10 1255.95 188.198   7
  -5  -7   5 229.986 108.964  14
  -5  -7   5 338.284 145.580  12
  -5  -7   4 2948.07 351.139  14
  -5  -7   4 4386.97 456.476  12
  -5  -7   3 1288.62 267.435  14
  -5  -7   3 1644.79 321.744  12
  -5  -7   2-134.525 153.280  12
  -5  -7   1 67.9715 200.549  11
  -5  -7   0 669.818 286.754  11
  -5  -7  -1 424.368 238.285  11
  -5  -7  -2 5687.23 667.338  11
  -5  -7  -3 1335.65 362.592  11
  -5  -7  -4 391.081 258.058  11
  -5  -7  -5 122.711 188.822  11
  -5  -7  -6 901.413 284.751  11
  -5  -7  -7 5.91579 56.2611   7
  -5  -7  -7 7008.01 611.625  11
  -5  -7  -8-47.4980 68.4757   7
  -5  -8   4-61.5874 86.4286  11
  -5  -8   3 402.808 173.612  11
  -5  -8   2 3038.97 394.291  11
  -5  -8   1 4480.42 496.157  11
  -5  -8   0 541.423 230.157  11
  -5  -8  -1 10361.7 772.604  11
  -5  -8  -2 6176.93 612.120  11
  -5  -8  -3 558.045 237.290  11
  -5  -8  -4 3939.51 471.222  11
  -5  -8  -5 23.7326 138.764  11
  -5  -8  -6 20.3739 127.592  11
  -5  -9   1 5163.24 359.627  11
  -5  -9   0 2.80570 84.1925  11
  -5  -9  -1 1134.59 210.927  11
  -5  -9  -2 94.5600 109.141  11
  -5  -9  -3 77.1615 83.0020  11
  -5  -9  -4 578.293 143.778  11
   6  -8  -4 3726.97 337.098  10
   6  -8  -3 4462.04 396.376  10
   6  -8  -2 5177.90 441.605  10
   6  -8  -1 5259.46 441.243  10
   6  -8   0 5749.40 433.931  10
   6  -8   1 8194.10 473.756  19
   6  -8   2 662.162 149.088  19
   6  -8   3 31.1479 63.3901  19
   6  -7  -6 472.799 140.453  10
   6  -7  -5 4416.58 431.906  10
   6  -7  -4 858.678 209.578  20
   6  -7  -4 788.686 232.072  10
   6  -7  -3 452.214 213.419  10
  -6   7   2 32.6789 124.061  18
   6  -7  -2-15.4348 146.026  10
   6  -7  -1 186.739 165.767  10
  -6   7   1 178.603 160.303  18
   6  -7   0 1065.12 273.211  10
  -6   7   0 1138.89 272.724  18
   6  -7   1 10773.0 700.112  10
  -6   7  -1 14444.4 847.556  18
   6  -7   2 11894.2 775.666  19
  -6   7  -2 10511.5 708.272  18
   6  -7   3 380.085 173.454  19
  -6   7  -3 363.750 156.683  18
   6  -7   4 2628.12 339.343  19
  -6   7  -4 2219.04 290.040  18
   6  -7   5 7190.80 482.800  19
  -6   7  -5 6008.37 400.649  18
   6  -6  -7 83.9421 72.7447  10
   6  -6  -7 55.7754 67.6374  20
   6  -6  -6-50.1522 115.379  20
   6  -6  -5 275.350 182.854  20
   6  -6  -4-84.5563 188.117  20
   6  -6  -3 345.904 232.710  20
   6  -6  -2 1914.49 383.224  20
   6  -6  -1 13514.6 993.780  20
  -6   6  -1 14646.0 995.103  18
   6  -6   2 1457.66 299.684  10
  -6   6  -2 2078.78 402.834  18
  -6   6  -3-64.0848 137.679  18
  -6   6  -4 2640.40 403.093  18
   6  -6   5 828.358 237.028  19
  -6   6  -5 744.468 217.804  18
   6  -6   6 659.470 171.058  19
  -6   6  -6 485.262 160.183  18
  -6   6  -7 309.211 106.482  18
   6  -5  -8 187.269 114.416  20
   6  -5  -7 7540.27 627.508  21
   6  -5  -7 7084.51 580.579  20
   6  -5  -6 1631.24 346.138  21
   6  -5  -6 1697.03 343.665  20
   6  -5  -5 599.757 266.745  21
   6  -5  -5 782.645 278.298  20
   6  -5  -4 22044.2 1233.71  20
   6  -5  -3 2727.04 468.580  20
   6  -5  -2 20804.7 1243.77  20
   6  -5  -1 3703.72 546.891  20
   6  -5   0 15.5134 227.801  20
   6  -5   1 8549.12 831.667  20
  -6   5  -2 490.689 234.680  18
  -6   5  -3 400.175 240.562  18
  -6   5  -4 86.4732 199.853  18
  -6   5  -5 59.4664 162.716  18
   6  -5   6-67.2539 149.014  19
  -6   5  -6 94.7441 156.019  18
   6  -5   7 5397.77 474.028  19
  -6   5  -7 5625.60 506.243  18
  -6   5  -8 41.3779 88.9556  18
   6  -4  -9 5229.84 441.147  21
   6  -4  -9 3885.77 354.110  20
   6  -4  -8 23814.1 1081.40  21
   6  -4  -7 3474.22 482.995  21
   6  -4  -6 8305.47 761.895  21
   6  -4  -5-306.598 218.904  21
   6  -4  -4 1794.22 393.800  21
  -6   4   3 2131.90 837.766   2
   6  -4  -3 1739.81 398.684  21
   6  -4  -3 1852.52 397.616  20
  -6   4   2 1645.02 716.301   2
   6  -4  -2 1382.98 348.747  20
  -6   4   1 1645.26 779.429   2
   6  -4  -1 1729.57 398.679  20
  -6   4   0 19508.3 2533.23   2
   6  -4   0 21899.3 1284.19  20
  -6   4  -1 8906.78 1680.62   2
   6  -4   1 10129.3 887.729  20
  -6   4  -2 2223.01 831.286   2
  -6   4  -2 1974.83 803.959   3
   6  -4   2 1984.82 412.737  20
  -6   4  -3 4590.96 612.913  18
  -6   4  -4 2762.90 483.356  18
  -6   4  -5 867.639 291.954  18
  -6   4  -6 4254.75 547.610  18
   6  -4   7 2781.84 392.307  19
  -6   4  -7 2621.70 409.245  18
   6  -4   8 73.2572 67.7301  19
  -6   4  -8 338.470 163.397  18
  -6   4  -9 548.205 147.184  18
   6  -3 -10 131.468 91.6417  21
   6  -3  -9 2238.06 333.309  21
   6  -3  -8 7722.47 674.655  21
   6  -3  -7 7457.78 718.530  21
   6  -3  -6 10882.9 895.030  21
   6  -3  -5 12326.7 966.450  21
  -6   3   4 7389.92 1504.84   2
   6  -3  -4 8640.78 822.052  21
  -6   3   3 4741.34 1239.61   2
   6  -3  -3 5336.66 641.358  21
  -6   3   2 2821.17 933.557   2
   6  -3  -2 2793.37 450.731  21
  -6   3   1 5916.97 1290.04   2
   6  -3  -1 5591.76 635.990  21
   6  -3  -1 5543.81 625.190  20
  -6   3   0 5919.34 1320.01   2
   6  -3   0 5873.60 640.402  20
  -6   3  -1 2653.47 853.617   2
   6  -3   1 2637.40 422.827  20
  -6   3  -2 6526.29 1330.97   2
   6  -3   2 6942.33 710.082  20
  -6   3  -3 2707.38 416.202  17
  -6   3  -3 2906.61 966.009   3
  -6   3  -3 3195.16 502.917  18
  -6   3  -4 1131.57 273.113  17
  -6   3  -4 1237.55 711.845   3
  -6   3  -4 1508.97 363.523  18
  -6   3  -5 3051.69 447.875  17
  -6   3  -5 3105.06 497.272  18
  -6   3  -6 8005.57 772.897  18
   6  -3   7 29404.3 1254.04  19
  -6   3  -7 29492.3 1368.24  18
  -6   3  -8-30.5267 137.703  18
  -6   3  -9 78.7393 134.469  18
  -6   3 -10 5937.30 383.278  18
   6  -2 -10 141.929 105.381  21
   6  -2  -9 6289.72 556.869  21
   6  -2  -8 875.953 261.357  21
   6  -2  -7 1295.20 328.815  21
   6  -2  -6 12773.9 975.140  21
  -6   2   5 1056.14 743.859   2
   6  -2  -5 1186.08 342.038  21
  -6   2   4 2133.75 883.424   2
   6  -2  -4 1843.89 384.713  21
  -6   2   3 28182.0 2883.01   2
   6  -2  -3 27785.4 1401.19  21
  -6   2   2 11393.6 1801.84   2
   6  -2  -2 10861.1 860.161  21
  -6   2   1 6466.80 594.086  16
  -6   2   1 7471.91 1459.53   2
   6  -2  -1 9042.37 795.035  21
  -6   2   0 43.1014 336.553   2
  -6   2   0 238.374 119.644  16
   6  -2   0 335.236 176.596  20
  -6   2  -1 20419.0 1092.88  16
  -6   2  -1 25716.7 2579.67   2
   6  -2   1 24411.1 1244.44  20
  -6   2  -2 7193.01 658.122  16
  -6   2  -2 6876.62 1341.36   2
   6  -2   2 8253.26 732.052  20
  -6   2  -3 61132.6 1937.36  16
  -6   2  -3 65886.9 4443.25   3
  -6   2  -4 1687.88 351.059  17
  -6   2  -4 2125.36 801.910   3
  -6   2  -4 2032.44 374.991  18
  -6   2  -5 1221.10 303.529  17
  -6   2  -5 640.969 615.207   3
  -6   2  -5 1686.96 379.614  18
  -6   2  -6 5883.82 646.693  17
  -6   2  -6 6356.68 689.815  18
  -6   2  -7 180.422 190.299  18
  -6   2  -8 3415.91 433.259   6
  -6   2  -8 3716.45 486.065  18
  -6   2  -9 12418.3 707.718   6
  -6   2  -9 14611.3 827.927  18
  -6   2 -10 207.052 100.077  18
   6  -1 -10 46.2550 107.185  21
   6  -1  -9 702.581 219.761  21
   6  -1  -8 2613.17 419.059  21
   6  -1  -7 179.104 195.808  21
   6  -1  -6 853.169 294.548  21
  -6   1   5 454.142 589.131   2
   6  -1  -5 635.916 278.764  21
  -6   1   4 1436.63 288.720  14
  -6   1   4 1247.90 681.111   2
   6  -1  -4 1826.88 358.790  21
  -6   1   3 10746.2 781.314  14
   6  -1  -3 14477.8 989.392  21
  -6   1   3 12027.2 1873.99   2
  -6   1   2 2687.20 842.083   2
  -6   1   2 2664.38 397.680  14
   6  -1  -2 2960.48 440.188  21
  -6   1   1-73.1285 136.215   2
  -6   1   1-10.6108 97.1891  14
   6  -1  -1 30.5529 56.5642  21
  -6   1   0 16833.0 2047.58   2
   6  -1   0 14653.1 949.660  21
  -6   1  -1 5742.25 591.839  16
  -6   1  -1 6149.23 1249.25   2
   6  -1   1 4716.62 534.017  20
  -6   1  -2 15447.9 970.351  16
  -6   1  -2 14886.6 1789.48   2
   6  -1   2 12488.3 835.598  20
  -6   1  -3 2218.98 372.219  16
  -6   1  -3 2453.36 845.295   3
  -6   1  -4 58.2842 122.176  16
  -6   1  -4 223.188 137.495  18
  -6   1  -5 16353.1 1076.23  17
  -6   1  -5 13810.4 2149.14   3
  -6   1  -5 17143.6 1077.56  18
  -6   1  -6 725.906 302.342  17
  -6   1  -6 806.584 268.670  18
  -6   1  -7 40884.3 1691.11  17
  -6   1  -7 41470.8 1612.52  18
  -6   1  -8 24757.5 1190.92  18
  -6   1  -9 34493.7 1338.26   6
  -6   1  -9 28538.8 1156.73  18
  -6   1 -10-58.2847 99.3338   6
   6   0 -10 371.271 128.583  21
   6   0  -9 6295.55 543.466  21
   6   0  -8 68.4707 139.341  21
  -6   0   7 123.663 141.868  14
   6   0  -7 48.4380 165.454  21
  -6   0   6 2438.46 385.328  14
   6   0  -6 2646.74 447.426  21
  -6   0   5 6052.34 615.283  14
  -6   0   5 7753.94 1631.78   1
   6   0  -5 9196.00 800.304  21
  -6   0   4 6273.76 618.684  14
  -6   0   4 8520.36 1664.90   1
   6   0  -4 8756.55 762.699  21
  -6   0   4 9752.27 1654.53   2
  -6   0   3 4275.87 502.261  14
  -6   0   3 4523.32 1187.16   2
   6   0  -3 2864.15 433.596  21
  -6   0   2 1969.23 361.431  14
  -6   0   2 2399.25 780.537   2
   6   0  -2 2212.32 364.816  21
  -6   0   1 302.934 302.345   2
  -6   0   1-21.4401 77.2877  14
   6   0  -1 235.860 128.949  21
  -6   0   0 1218.10 575.694   2
  -6   0   0 768.339 219.079  14
  -6   0  -1 4290.75 967.716   2
  -6   0  -2 62.6988 88.1514  16
  -6   0  -2 10.8250 165.766   2
  -6   0  -3 165.130 138.206  16
  -6   0  -3-315.400 324.972   3
  -6   0  -4 7603.74 706.532  16
  -6   0  -4 7401.73 1530.61   3
  -6   0  -5 29133.7 1414.14  17
  -6   0  -5 30546.8 3116.63   3
  -6   0  -5 28741.3 1391.32  16
  -6   0  -6 516.785 235.610  17
  -6   0  -6-563.240 499.696   3
  -6   0  -7 5231.60 618.535  17
  -6   0  -8 21624.6 1150.30   7
  -6   0  -9 593.950 191.173   7
  -6   0  -9 775.354 253.952   6
  -6   0 -10 110.252 129.866   6
   6   1  -9-10.6178 98.6503  21
  -6  -1   8 460.556 190.492  14
   6   1  -8 573.874 216.763  21
  -6  -1   7 27.1209 119.243  14
   6   1  -7 481.161 237.359  21
   6   1  -6 4628.43 551.968  21
  -6  -1   5 2691.16 453.711  12
  -6  -1   5 1664.69 920.735   1
   6   1  -5 1888.77 358.507  21
  -6  -1   4 1747.85 366.007  12
  -6  -1   4 2216.14 827.403   1
   6   1  -4 1456.40 299.147  21
  -6  -1   3 20795.7 1148.78  14
  -6  -1   3 21398.1 2489.40   1
   6   1  -3 17745.2 1036.03  21
  -6  -1   2 33363.8 1443.42  14
  -6  -1   2 36338.9 3175.77   1
  -6  -1   1 739.542 234.463  14
  -6  -1   1 1157.50 552.844   2
  -6  -1   0 811.416 264.971  14
  -6  -1   0 101.738 238.828   2
  -6  -1  -1 2968.05 429.880  14
  -6  -1  -1 2920.35 789.161   2
  -6  -1  -2 14853.8 972.763  16
  -6  -1  -2 16224.3 2040.81   3
  -6  -1  -3 1588.71 333.410  16
  -6  -1  -3 1737.09 705.226   3
  -6  -1  -4 8528.52 760.410  16
  -6  -1  -4 9613.14 1656.89   3
  -6  -1  -5 27072.3 2956.45   3
  -6  -1  -5 26964.2 1347.29  16
  -6  -1  -6 17565.8 2400.01   3
  -6  -1  -6 17608.1 1128.35  17
  -6  -1  -7 437.951 238.263  17
  -6  -1  -8 4001.56 531.869  17
  -6  -1  -8 4019.98 543.159   7
  -6  -1  -9 519.277 221.681   7
  -6  -1  -9 240.878 184.328   6
  -6  -1 -10 208.367 138.477   7
  -6  -1 -10 465.473 201.061   6
  -6  -1 -11 146.726 103.379   6
  -6  -2   9 435.674 118.103  14
  -6  -2   8 130.413 135.529  14
   6   2  -8 67.3769 101.421  21
  -6  -2   7 571.140 229.122  12
   6   2  -7 483.283 188.037  21
  -6  -2   6 12111.3 905.454  12
   6   2  -6 10940.7 783.872  21
  -6  -2   5 9949.86 853.873  12
  -6  -2   4 5145.02 613.113  12
  -6  -2   4 5992.62 1422.23   1
  -6  -2   3 15317.2 1046.51  12
  -6  -2   3 14743.5 2096.11   1
  -6  -2   2 1330.85 294.827  14
  -6  -2   2 1020.01 288.102  12
  -6  -2   2 441.484 670.873   1
  -6  -2   1 30080.0 1390.45  14
  -6  -2   1 29927.3 2853.65   1
  -6  -2   0 13769.4 932.802  14
  -6  -2   0 15438.3 1993.70   1
  -6  -2  -1 13787.8 1821.01   3
  -6  -2  -1 12453.3 876.955  14
  -6  -2  -1 13459.2 1837.81   1
  -6  -2  -2 511.062 208.487  16
  -6  -2  -2 546.326 223.332  14
  -6  -2  -2 783.061 542.387   3
  -6  -2  -3 9367.21 806.013  16
  -6  -2  -3 10780.9 1710.93   3
  -6  -2  -4 1853.12 366.506  16
  -6  -2  -4 1010.39 616.510   3
  -6  -2  -5 9948.16 832.088  16
  -6  -2  -5 9855.66 1740.55   3
  -6  -2  -6 676.745 254.502  17
  -6  -2  -7 12286.0 923.896  17
  -6  -2  -8 2439.90 426.719   7
  -6  -2  -9 1829.12 349.429   7
  -6  -2  -9 1687.90 349.693   6
  -6  -2 -10 7096.86 555.716   7
  -6  -2 -10 7248.33 592.258   6
  -6  -3   9 45.5219 67.3357  14
  -6  -3   8 157.968 135.251  14
  -6  -3   7-67.4613 143.842  12
  -6  -3   6 882.446 278.803  12
  -6  -3   5 5344.26 631.138  12
  -6  -3   4 4271.65 577.466  12
  -6  -3   3 2426.01 447.805  12
  -6  -3   3 1498.06 727.579   1
  -6  -3   2 132.690 152.069  14
  -6  -3   2 49.7237 155.364  12
  -6  -3   2 132.338 345.820   1
  -6  -3   1 61450.8 2045.35  14
  -6  -3   1 62265.7 4254.35   1
  -6  -3   0 18420.3 1118.05  14
  -6  -3   0 19257.2 2289.25   1
  -6  -3  -1 776.459 240.880  14
  -6  -3  -1 838.930 237.486  11
  -6  -3  -1 97.5193 483.141   1
  -6  -3  -2 3190.51 461.365  16
  -6  -3  -2 2809.94 434.793  14
  -6  -3  -2 2941.86 889.656   3
  -6  -3  -2 2156.63 377.848  11
  -6  -3  -3 2596.13 431.561  16
  -6  -3  -3 1842.66 721.469   3
  -6  -3  -3 2152.74 371.312  11
  -6  -3  -3 2100.25 781.024   9
  -6  -3  -4 191.266 166.861  16
  -6  -3  -4-128.424 105.825  11
  -6  -3  -5 2048.54 388.810  17
  -6  -3  -5 1809.55 376.355  16
  -6  -3  -5 1043.31 660.342   3
  -6  -3  -5 1484.92 355.167  11
  -6  -3  -6 5392.57 604.191  17
  -6  -3  -6 4748.71 576.055  11
  -6  -3  -7 300.744 195.642  17
  -6  -3  -7-100.833 190.131   7
  -6  -3  -7-164.452 205.579  11
  -6  -3  -8 3324.57 500.237   7
  -6  -3  -9 8920.49 723.455   7
  -6  -3  -9 9617.42 727.886   6
  -6  -3 -10 428.574 177.058   7
  -6  -3 -10 309.164 162.785   6
  -6  -4   8 7343.41 483.052  14
  -6  -4   7 3033.73 391.296  12
  -6  -4   6 378.913 211.482  12
  -6  -4   5 3768.10 523.954  12
  -6  -4   4 213.462 215.120  12
  -6  -4   3 3026.57 499.748  12
  -6  -4   2 2504.74 926.868   1
  -6  -4   2 3231.42 505.748  14
  -6  -4   2 3392.33 525.426  12
  -6  -4   1 739.083 282.692  14
  -6  -4   1 378.716 352.485   1
  -6  -4   0 25590.1 1329.48  14
  -6  -4   0 20331.1 2395.45   1
  -6  -4  -1 68689.9 2124.15  14
  -6  -4  -1 67940.0 2219.06  11
  -6  -4  -2 21557.2 1204.09  16
  -6  -4  -2 22010.0 1196.58  14
  -6  -4  -2 22258.5 1273.69  11
  -6  -4  -3 3597.37 488.414  16
  -6  -4  -3 3645.06 542.030  11
  -6  -4  -4 662.047 233.030  16
  -6  -4  -4 817.417 300.945  11
  -6  -4  -4 210.616 453.612   9
  -6  -4  -5 281.872 162.589  17
  -6  -4  -5 63.1357 183.560  16
  -6  -4  -5 452.703 245.445  11
  -6  -4  -6 47298.0 1637.62  17
  -6  -4  -6 51261.5 1960.33   7
  -6  -4  -7 2564.37 452.245   7
  -6  -4  -7 3004.37 461.523  11
  -6  -4  -8 182.821 183.668   7
  -6  -4  -8 78.6816 155.643   6
  -6  -4  -9 2359.06 363.200   7
  -6  -4  -9 2691.03 362.710   6
  -6  -4 -10 11450.5 644.583   7
  -6  -4 -10 9422.13 538.261   6
  -6  -5   7 580.804 160.818  14
  -6  -5   6 5980.77 525.413  14
  -6  -5   6 6449.28 556.971  12
  -6  -5   5 623.272 235.047  14
  -6  -5   5 571.896 235.054  12
  -6  -5   4-17.2995 159.850  14
  -6  -5   4-76.7524 165.230  12
  -6  -5   3 3768.32 518.768  14
  -6  -5   3 3556.24 520.782  12
  -6  -5   2 531.659 232.746  14
  -6  -5   2 324.902 193.945  12
  -6  -5   1 281.564 197.815  14
  -6  -5   0 8841.02 770.642  14
  -6  -5  -1 5189.31 593.615  16
  -6  -5  -1 5571.22 601.622  14
  -6  -5  -1 6291.44 705.810  11
  -6  -5  -2 4283.28 533.142  16
  -6  -5  -2 4027.27 569.596  11
  -6  -5  -3 530.523 307.976  11
  -6  -5  -4 5834.87 630.692   7
  -6  -5  -4 5869.11 680.603  11
  -6  -5  -5 1070.43 319.329   7
  -6  -5  -5 1528.00 375.628  11
  -6  -5  -6 68.7324 179.450   7
  -6  -5  -6 78.3376 161.491  11
  -6  -5  -7 55879.5 1826.68   7
  -6  -5  -7 54081.0 1784.42  11
  -6  -5  -8 5747.43 556.374   7
  -6  -5  -9 6152.16 503.931   7
  -6  -5 -10 845.139 161.943   7
  -6  -6   6 69.7959 72.1320  14
  -6  -6   5 196.939 130.836  14
  -6  -6   4 23.6626 104.955  14
  -6  -6   3 4053.89 470.470  14
  -6  -6   2 2845.53 414.661  14
  -6  -6   1 126.839 164.025  14
  -6  -6   1 85.6631 194.029  11
  -6  -6   0-39.3596 129.534  14
  -6  -6   0 156.130 183.218  11
  -6  -6  -1 523.971 281.170  11
  -6  -6  -2 98.0897 189.284  11
  -6  -6  -3 582.479 285.564  11
  -6  -6  -4 786.094 303.490  11
  -6  -6  -5 16081.1 912.261   7
  -6  -6  -5 16832.5 1054.22  11
  -6  -6  -6 10507.7 726.637   7
  -6  -6  -6 10381.8 785.991  11
  -6  -6  -7 5066.04 476.465   7
  -6  -6  -7 4622.85 495.535  11
  -6  -6  -8 865.736 199.728   7
  -6  -6  -9 1475.22 201.896   7
  -6  -7   5 127.970 75.3261  11
  -6  -7   4 0.30209 26.8769  14
  -6  -7   4 531.962 170.148  11
  -6  -7   3 63.1472 66.0803  14
  -6  -7   3 1415.77 291.892  11
  -6  -7   2 144.105 160.367  11
  -6  -7   1 370.046 218.863  11
  -6  -7   0 1713.99 361.228  11
  -6  -7  -1 168.243 183.811  11
  -6  -7  -2 725.589 263.519  11
  -6  -7  -3 383.914 215.224  11
  -6  -7  -4 2047.21 362.444  11
  -6  -7  -5 1192.20 280.821  11
  -6  -7  -6 1027.91 247.263  11
  -6  -8   2 296.819 128.794  11
  -6  -8   1 2724.72 328.131  11
  -6  -8   0 366.872 165.634  11
  -6  -8  -1 771.055 224.641  11
  -6  -8  -2 7365.98 566.075  11
  -6  -8  -3 2899.59 357.316  11
  -6  -8  -4 58.8962 117.958  11
  -6  -8  -5 211.732 124.905  11
  -6  -8  -6 423.110 124.436  11
   7  -7  -4 1165.27 203.043  10
   7  -7  -3 914.040 205.876  10
  -7   7   3 803.195 163.137  18
   7  -7  -2 7061.79 517.654  10
  -7   7   2 6473.86 464.064  18
   7  -7  -1 4778.15 428.934  10
  -7   7   1 4163.71 392.105  18
   7  -7   0 2645.35 311.919  10
  -7   7   0 2683.52 316.872  18
   7  -7   1 1489.83 241.921  19
  -7   7  -1 1259.47 224.003  18
   7  -7   2 517.346 149.504  19
  -7   7  -2 467.184 139.113  18
   7  -7   3 3362.12 320.122  19
  -7   7  -3 3201.29 292.958  18
   7  -7   4 2318.85 234.353  19
   7  -6  -6 2378.98 258.385  10
   7  -6  -6 2546.26 268.731  20
   7  -6  -5-53.2777 86.8401  20
   7  -6  -4 3223.55 399.636  20
   7  -6  -3 331.194 191.588  20
   7  -6  -2 1513.49 315.663  20
  -7   6   0 1067.40 281.829  18
   7  -6   1 4849.58 477.403  10
  -7   6  -1 7085.49 626.974  18
  -7   6  -2 6220.01 575.343  18
  -7   6  -3 2001.80 319.164  18
   7  -6   4 462.023 167.247  19
  -7   6  -4 415.886 167.811  18
   7  -6   5 93.8232 90.7612  19
  -7   6  -5-15.1092 90.6054  18
   7  -5  -7 4082.54 359.514  20
   7  -5  -6 1976.10 305.299  20
   7  -5  -5 706.217 230.194  20
   7  -5  -4 205.835 186.100  20
   7  -5  -3 13082.6 918.360  20
   7  -5  -2 1647.42 372.629  20
   7  -5  -1 202.106 223.880  20
   7  -5   0 669.086 260.543  20
  -7   5  -1 5097.94 603.061  18
  -7   5  -2 49.1642 161.367  18
  -7   5  -3 5586.10 601.736  18
  -7   5  -4 47.8298 155.942  18
   7  -5   5 2782.07 381.925  19
  -7   5  -5 2458.77 368.070  18
   7  -5   6 198.089 125.248  19
  -7   5  -6 151.036 137.372  18
  -7   5  -7 3843.98 329.297  18
   7  -4  -8 4018.08 346.394  20
   7  -4  -7 1755.13 305.475  21
   7  -4  -7 1554.67 282.050  20
   7  -4  -6-84.9011 183.863  21
   7  -4  -6 93.2819 149.801  20
   7  -4  -5 28.3216 180.871  21
   7  -4  -5 121.512 186.398  20
   7  -4  -4 6297.00 658.059  20
   7  -4  -3 1622.53 375.777  20
   7  -4  -2 11813.8 927.763  20
   7  -4  -1 3222.78 513.736  20
   7  -4   0 83.7019 201.933  20
   7  -4   1 5669.77 669.482  20
  -7   4  -2 11063.4 907.717  18
  -7   4  -3 26413.2 1361.59  18
  -7   4  -4 2698.11 444.078  18
  -7   4  -5 207.215 176.508  18
   7  -4   6 1101.23 245.227  19
  -7   4  -6 1332.92 283.255  18
   7  -4   7 621.768 156.216  19
  -7   4  -7 1410.87 261.594  18
  -7   4  -8 185.414 99.7050  18
   7  -3  -9 607.519 142.443  21
   7  -3  -9 682.567 132.811  20
   7  -3  -8 5974.32 492.426  21
   7  -3  -7 5431.08 538.193  21
   7  -3  -6 1704.68 356.115  21
   7  -3  -5 2959.58 476.957  21
   7  -3  -4 9962.46 851.379  21
   7  -3  -3 23027.1 1305.04  21
   7  -3  -3 21485.8 1250.25  20
   7  -3  -2 14906.9 1047.72  20
  -7   3   1 14214.8 2201.66   2
   7  -3  -1 15949.7 1081.08  20
  -7   3   0-115.597 597.087   2
   7  -3   0-82.8564 194.752  20
  -7   3  -1 3293.68 1035.13   2
   7  -3   1 4316.64 572.507  20
   7  -3   2 6687.79 722.130  20
  -7   3  -3 291.854 180.019  17
  -7   3  -3 495.473 248.711  18
  -7   3  -4 1454.24 333.770  17
  -7   3  -4 1434.74 349.175  18
  -7   3  -5 203.709 162.917  17
  -7   3  -5 390.286 212.105  18
  -7   3  -6 69.5443 144.417  18
   7  -3   7 28271.1 1025.00  19
  -7   3  -7 36180.7 1312.20  18
  -7   3  -8 13043.2 691.155  18
   7  -2  -9 4040.67 347.673  21
   7  -2  -8-42.1071 115.939  21
   7  -2  -7 1507.68 321.480  21
   7  -2  -6 3979.93 526.109  21
   7  -2  -5 34.5313 162.501  21
   7  -2  -4 2613.05 454.895  21
   7  -2  -3 9055.75 833.281  21
  -7   2   2 9987.59 773.726  16
  -7   2   2 9794.56 1740.58   2
   7  -2  -2 11859.6 935.006  21
  -7   2   1 16962.6 1015.31  16
  -7   2   1 15267.2 2248.51   2
   7  -2  -1 18835.8 1159.43  20
  -7   2   0 535.699 202.972  16
  -7   2   0 407.109 405.676   2
   7  -2   0 495.392 219.616  20
  -7   2  -1 10343.5 805.365  16
  -7   2  -1 11717.2 1830.89   2
   7  -2   1 14522.7 1001.51  20
  -7   2  -2 74.3897 143.044  16
   7  -2   2 312.108 172.059  20
  -7   2  -3 9386.74 779.651  16
  -7   2  -3 11098.5 899.936  18
  -7   2  -4 6008.01 646.327  17
  -7   2  -4 6409.75 686.551  18
  -7   2  -5 21423.8 1172.22  17
  -7   2  -5 21745.7 1209.28  18
  -7   2  -6 3949.27 510.752  17
  -7   2  -6 3621.76 483.370  18
  -7   2  -7 1112.29 278.306  18
  -7   2  -8 3328.72 365.174   6
  -7   2  -8 3665.67 396.154  18
  -7   2  -9 30.9263 37.1432  18
   7  -1  -9 2403.40 274.149  21
   7  -1  -8 523.203 172.494  21
   7  -1  -7 205.512 163.843  21
   7  -1  -6 3154.45 470.521  21
   7  -1  -5 3085.79 478.496  21
  -7   1   4 1468.60 303.329  14
   7  -1  -4 1946.18 406.443  21
  -7   1   3 127.961 98.1167  14
  -7   1   3 406.387 543.372   2
   7  -1  -3 146.694 152.337  21
  -7   1   2 1150.38 656.824   2
   7  -1  -2 1898.12 386.075  21
  -7   1   1 420.332 417.630   2
  -7   1   0 350.905 179.208  16
  -7   1   0-15.8409 380.229   2
   7  -1   0 361.695 181.618  20
  -7   1  -1 410.703 199.059  16
   7  -1   1 518.509 182.031  20
  -7   1  -2 279.194 178.438  16
   7  -1   2 266.399 152.386  20
  -7   1  -3 1172.80 309.003  16
  -7   1  -3 1384.58 723.443   3
  -7   1  -3 848.436 254.969  18
  -7   1  -4 7500.45 734.439  16
  -7   1  -4 7048.96 688.913  18
  -7   1  -5 11420.7 898.465  17
  -7   1  -5 11553.4 862.488  18
  -7   1  -6 166.023 187.488  17
  -7   1  -6 342.451 191.297  18
  -7   1  -7 1901.33 372.281  17
  -7   1  -7 1930.11 332.199  18
  -7   1  -8 3062.81 405.901   6
  -7   1  -9 1735.17 265.669   6
   7   0  -9 356.874 101.171  21
   7   0  -8 96.2505 112.707  21
   7   0  -7 497.839 201.706  21
  -7   0   6 3315.39 407.092  14
   7   0  -6 3437.97 471.053  21
  -7   0   5 2375.33 377.711  14
   7   0  -5 2666.10 442.817  21
  -7   0   4 4312.89 513.636  14
   7   0  -4 4679.90 565.976  21
  -7   0   3 7107.65 680.697  14
  -7   0   3 5977.34 1403.44   1
   7   0  -3 5222.47 601.971  21
  -7   0   2 10204.5 820.441  14
  -7   0   2 8294.66 1652.81   2
   7   0  -2 9866.21 798.619  21
  -7   0   1 21443.2 1181.04  14
  -7   0   1 19253.9 2438.95   2
  -7   0   0 15747.5 2049.68   2
  -7   0  -1 13490.3 968.973  16
  -7   0  -1 10248.0 1651.92   2
  -7   0  -2 1498.93 344.179  16
  -7   0  -2 1761.78 758.012   3
  -7   0  -3 81.9911 165.634  16
  -7   0  -3 223.696 276.842   3
  -7   0  -4 337.882 208.338  16
  -7   0  -4 409.241 576.559   3
  -7   0  -5 1352.99 361.917  17
  -7   0  -6 11962.1 914.782  17
  -7   0  -7 1878.66 384.848  17
  -7   0  -8 73.6218 134.609   7
  -7   0  -9-106.777 107.699   7
  -7   0  -9 47.2451 125.061   6
  -7   0 -10 1133.20 198.525   6
   7   1  -8 1308.73 209.678  21
  -7  -1   7 985.002 215.759  14
   7   1  -7 1439.10 266.978  21
  -7  -1   6 301.882 200.141  14
   7   1  -6 479.610 186.103  21
  -7  -1   5 6208.74 625.737  14
   7   1  -5 5741.07 572.580  21
  -7  -1   4 17576.0 1072.86  14
   7   1  -4 17157.5 1008.20  21
  -7  -1   3 55319.8 1920.23  14
  -7  -1   3 53762.1 4233.75   1
  -7  -1   2 17577.0 1099.06  14
  -7  -1   2 15472.6 2272.29   1
  -7  -1   1 20319.8 1177.91  14
  -7  -1   1 23431.1 2656.52   1
  -7  -1   0 38131.7 1609.30  14
  -7  -1   0 35591.0 3307.07   1
  -7  -1  -1 3305.16 491.955  16
  -7  -1  -1 3083.02 934.549   1
  -7  -1  -2 2095.64 420.495  16
  -7  -1  -2 3007.99 964.248   3
  -7  -1  -3 3176.21 501.565  16
  -7  -1  -3 2959.52 1007.15   3
  -7  -1  -4-59.7935 222.716  16
  -7  -1  -5 1978.00 416.281  17
  -7  -1  -5 1991.91 400.629  16
  -7  -1  -6 1237.46 341.230  17
  -7  -1  -7 1117.15 313.456  17
  -7  -1  -8 226.224 188.901   7
  -7  -1  -9 1163.33 235.642   7
  -7  -1  -9 1347.12 277.946   6
  -7  -1 -10 85.3170 117.633   6
  -7  -2   8 691.930 146.509  14
  -7  -2   7 465.311 175.334  14
  -7  -2   6 2716.48 398.413  14
  -7  -2   5 17450.5 1033.94  14
  -7  -2   4 180.159 205.262  14
  -7  -2   3 2369.25 425.421  14
  -7  -2   2 13742.6 983.048  14
  -7  -2   2 11125.9 1928.60   1
  -7  -2   1 2615.28 458.031  14
  -7  -2   1 1307.69 631.161   1
  -7  -2   0 31874.4 1483.28  14
  -7  -2   0 27575.0 2928.27   1
  -7  -2  -1 20324.5 1219.53  16
  -7  -2  -1 19085.5 1152.95  14
  -7  -2  -2 8938.30 816.714  16
  -7  -2  -2 7091.59 1464.18   3
  -7  -2  -3 14959.4 2145.93   3
  -7  -2  -3 20337.6 1212.19  16
  -7  -2  -4 4165.66 565.470  16
  -7  -2  -5 2136.88 404.945  17
  -7  -2  -5 2172.58 398.305  16
  -7  -2  -6 8293.40 744.692  17
  -7  -2  -7 7241.91 677.238  17
  -7  -2  -8 3089.48 434.440   7
  -7  -2  -9-9.32127 109.003   7
  -7  -2  -9 80.7958 116.393   6
  -7  -2 -10 2033.10 235.917   7
  -7  -2 -10 2548.41 286.284   6
  -7  -3   7 664.032 178.615  14
  -7  -3   6 1770.14 312.588  14
  -7  -3   5 508.036 226.007  14
  -7  -3   4 43.7641 145.248  14
  -7  -3   3 56.3185 159.400  14
  -7  -3   2 9419.80 818.026  14
  -7  -3   1 326.191 234.771  14
  -7  -3   0-80.9577 194.992  14
  -7  -3   0-62.5321 140.981  11
  -7  -3  -1 6116.67 692.660  16
  -7  -3  -1 5973.30 660.617  14
  -7  -3  -2 9684.34 850.941  16
  -7  -3  -3 2131.26 420.715  16
  -7  -3  -4 1281.79 353.744  16
  -7  -3  -5 31539.7 1406.23  17
  -7  -3  -5 31869.5 1422.37  16
  -7  -3  -6 231.190 179.035  17
  -7  -3  -7 144.863 168.627  17
  -7  -3  -7-95.7286 168.838   7
  -7  -3  -8 1164.52 275.889   7
  -7  -3  -8 1299.00 282.542   6
  -7  -3  -9 1766.44 283.276   7
  -7  -3  -9 1601.41 267.085   6
  -7  -3 -10 345.486 109.870   7
  -7  -3 -10 352.273 106.987   6
  -7  -4   7 546.600 139.466  14
  -7  -4   6 878.920 204.152  14
  -7  -4   5 1414.25 288.613  14
  -7  -4   4 4381.13 518.847  14
  -7  -4   3 310.343 205.612  14
  -7  -4   2 8642.81 767.386  14
  -7  -4   1 1011.72 313.051  14
  -7  -4   1 768.373 271.686  11
  -7  -4   0 113.713 188.067  14
  -7  -4   0 84.2297 164.651  11
  -7  -4  -1 16022.5 1057.14  16
  -7  -4  -1 14798.8 999.814  14
  -7  -4  -1 14781.1 997.821  11
  -7  -4  -2 567.670 235.042  16
  -7  -4  -2 270.450 193.365  11
  -7  -4  -3 3457.37 485.366  16
  -7  -4  -3 3526.03 487.748  11
  -7  -4  -4 6.15633 100.873  17
  -7  -4  -4 162.378 167.081  16
  -7  -4  -4 299.661 208.664  11
  -7  -4  -5 535.797 211.194  17
  -7  -4  -5 866.040 260.580  11
  -7  -4  -6 82.0274 134.004  17
  -7  -4  -6 363.725 220.353   7
  -7  -4  -6 279.651 175.032  11
  -7  -4  -7 2751.38 411.884   7
  -7  -4  -8 14705.6 828.572   7
  -7  -4  -8 13411.5 730.344   6
  -7  -4  -9 4597.31 401.359   7
  -7  -4  -9 2975.35 288.661   6
  -7  -5   6 177.376 97.8177  14
  -7  -5   5 783.260 196.007  14
  -7  -5   4 3375.96 408.060  14
  -7  -5   3 899.757 273.845  14
  -7  -5   2 20208.5 1065.31  14
  -7  -5   2 20728.6 1118.11  11
  -7  -5   1 2819.43 421.485  14
  -7  -5   1 3099.72 460.522  11
  -7  -5   0 1905.71 354.840  16
  -7  -5   0 1856.79 351.652  14
  -7  -5   0 2029.40 398.728  11
  -7  -5  -1 1582.14 318.638  16
  -7  -5  -1 2014.55 392.418  11
  -7  -5  -2 3987.67 482.937  16
  -7  -5  -2 4811.23 572.317  11
  -7  -5  -3 1572.91 300.692  16
  -7  -5  -3 1988.07 380.771  11
  -7  -5  -4 5007.00 544.255   7
  -7  -5  -4 5253.29 568.473  11
  -7  -5  -5 697.149 239.040   7
  -7  -5  -5 453.891 212.829  11
  -7  -5  -6 1016.98 262.198   7
  -7  -5  -6 1014.33 258.252  11
  -7  -5  -7 1472.07 275.508   7
  -7  -5  -8 741.391 180.843   7
  -7  -6   4-42.4920 76.2120  14
  -7  -6   4 12.9216 108.790  11
  -7  -6   3 1413.51 248.588  14
  -7  -6   3 1292.53 263.867  11
  -7  -6   2 210.249 103.367  16
  -7  -6   2 374.060 153.817  14
  -7  -6   2 351.433 192.359  11
  -7  -6   1 2135.48 313.529  14
  -7  -6   1 2670.74 398.588  11
  -7  -6   0-26.3011 164.182  11
  -7  -6  -1 824.497 266.443  11
  -7  -6  -2 1828.07 350.106  11
  -7  -6  -3 1051.79 283.083  11
  -7  -6  -4 16485.7 924.780  11
  -7  -6  -5 2934.34 387.539  11
  -7  -6  -6 107.637 60.5844   7
  -7  -6  -6 1965.31 293.247  11
  -7  -6  -7 144.005 63.4231   7
  -7  -7   2 3244.93 334.651  11
  -7  -7   1-74.0211 115.616  11
  -7  -7   0 3258.94 372.908  11
  -7  -7  -1 594.456 202.816  11
  -7  -7  -2 1223.53 259.778  11
  -7  -7  -3-114.754 133.032  11
  -7  -7  -4 501.741 170.862  11
  -7  -7  -5 2005.76 264.087  11
   8  -6  -4 4148.87 324.781  10
  -8   6   4 3627.29 297.030  18
  -8   6   3 1547.74 224.176  18
  -8   6   2-120.437 98.9831  18
   8  -6  -1 836.935 183.732  10
  -8   6   1 736.472 191.795  18
   8  -6   0-4.75688 109.811  10
  -8   6   0 298.499 143.128  18
  -8   6  -1 14598.7 709.198  18
  -8   6  -2 107.916 99.2681  18
   8  -6   3-55.8653 69.9948  19
  -8   6  -3 24.9513 71.3713  18
   8  -5  -6 7476.78 407.227  20
   8  -5  -5 209.983 110.779  20
   8  -5  -4-122.797 116.877  20
   8  -5  -3 7276.65 583.908  20
   8  -5  -2 2062.61 342.466  20
   8  -5  -1 27.6348 150.895  20
  -8   5   0 93.3953 170.042  18
  -8   5  -1 244.133 164.017  18
  -8   5  -2 111.213 112.827  18
  -8   5  -3 235.829 145.298  18
  -8   5  -4 2615.35 315.509  18
   8  -5   5 910.291 161.634  19
  -8   5  -5 1060.80 183.934  18
   8  -4  -7 2352.23 230.185  20
   8  -4  -6 127.930 116.177  20
   8  -4  -5 1469.74 271.862  20
   8  -4  -4 52.3329 127.910  20
   8  -4  -3 223.812 171.826  20
   8  -4  -2 3172.02 447.988  20
   8  -4  -1 1081.92 289.054  20
   8  -4   0 1407.87 332.768  20
  -8   4  -1 300.879 198.930  18
  -8   4  -2 193.519 172.007  18
  -8   4  -3 3850.99 463.786  18
  -8   4  -4 3366.79 413.600  18
  -8   4  -5 227.641 135.011  18
   8  -4   6 136.047 81.9944  19
  -8   4  -6 15.8961 76.2948  18
   8  -3  -7 65.8055 83.1672  20
   8  -3  -6 2049.57 304.684  20
   8  -3  -5 998.192 257.432  20
   8  -3  -4 34.4413 167.791  20
   8  -3  -3-73.6033 164.381  20
   8  -3  -2-75.4858 249.546  20
   8  -3  -1 16682.0 1040.95  20
   8  -3   0 3400.22 492.692  20
   8  -3   1 2581.05 430.973  20
  -8   3  -2 6196.17 561.094  17
  -8   3  -2 7367.19 690.979  18
  -8   3  -3 317.565 158.570  17
  -8   3  -3 692.319 255.028  18
  -8   3  -4 81.3433 129.708  17
  -8   3  -4 153.517 159.472  18
  -8   3  -5 3892.06 445.618  18
   8  -3   6 1363.10 222.394  19
  -8   3  -6 2334.17 314.877  18
  -8   3  -7 457.327 116.446  18
   8  -2  -8 49.0426 65.5507  20
   8  -2  -7 881.045 189.592  20
   8  -2  -6-46.9337 139.462  21
   8  -2  -5 646.410 235.897  21
   8  -2  -4 239.084 171.681  20
   8  -2  -3 358.774 205.255  20
  -8   2   2 2071.35 330.828  16
   8  -2  -2 2719.54 451.594  20
  -8   2   1-33.3446 89.7601  16
   8  -2  -1 53.3729 148.880  20
  -8   2   0 582.183 220.836  16
   8  -2   0 673.331 242.693  20
  -8   2  -1 3091.34 425.045  16
   8  -2   1 3540.78 491.676  20
  -8   2  -2 293.633 197.778  18
  -8   2  -2 223.751 195.686  16
  -8   2  -3 220.440 157.284  17
  -8   2  -3 477.697 196.393  18
  -8   2  -4 491.783 207.503  17
  -8   2  -4 374.979 194.142  18
  -8   2  -5 4750.58 514.188  17
  -8   2  -5 4448.53 485.884  18
  -8   2  -6 5316.84 498.626  17
  -8   2  -6 4016.63 405.498  18
  -8   2  -7 146.826 102.950   6
  -8   2  -7 21.0247 33.3683  18
   8  -1  -8 2126.40 222.395  20
   8  -1  -7 2856.47 310.813  21
   8  -1  -6 350.439 156.222  21
  -8   1   5 879.025 207.674  16
   8  -1  -5 1549.81 314.909  21
  -8   1   4 9407.87 691.013  16
   8  -1  -4 10164.2 772.256  21
  -8   1   3 12275.1 827.361  16
  -8   1   2 6206.27 615.754  16
   8  -1  -2 6423.91 638.961  20
  -8   1   1 13142.3 909.437  16
   8  -1  -1 12913.8 897.323  20
  -8   1   0 617.196 245.891  16
   8  -1   0 635.791 238.255  20
  -8   1  -1 525.261 230.161  16
   8  -1   1 318.160 186.602  20
  -8   1  -2 3156.15 478.379  16
  -8   1  -2 2470.26 416.664  18
  -8   1  -3 566.925 239.747  16
  -8   1  -3 544.805 218.740  18
  -8   1  -4 592.014 238.917  17
  -8   1  -4 528.405 205.417  18
  -8   1  -5 433.785 214.881  17
  -8   1  -6 1465.17 311.064  17
  -8   1  -7 533.783 153.918   7
  -8   1  -8 4644.71 379.803   6
   8   0  -6 115.476 118.800  21
   8   0  -5 5011.06 486.906  21
   8   0  -4 29.6340 114.815  21
   8   0  -2 27.9793 109.484  20
  -8   0   1 56062.7 1940.25  16
  -8   0   0 22171.4 1232.42  16
  -8   0  -1 1663.63 372.336  16
  -8   0  -2 11706.3 903.339  16
  -8   0  -3 10305.6 837.848  16
  -8   0  -4 13361.5 928.158  16
  -8   0  -5 225.433 212.121  17
  -8   0  -6 1557.99 322.164  17
  -8   0  -7 51.5784 131.164  17
  -8   0  -8 9108.89 532.645   7
  -8   0  -8 13230.0 704.337   6
  -8   0  -9 1224.43 178.864   6
  -8  -1   6 2888.03 317.258  14
  -8  -1   5-64.2901 120.247  14
  -8  -1   4 2443.00 380.910  14
  -8  -1   3 7798.21 688.222  14
  -8  -1   2 3521.04 485.048  14
  -8  -1   0 685.182 264.722  16
  -8  -1  -1 12553.3 961.525  16
  -8  -1  -2 1581.82 381.134  16
  -8  -1  -3 1462.80 349.749  16
  -8  -1  -4-61.7646 191.195  16
  -8  -1  -5 28901.5 1338.56  17
  -8  -1  -6 448.131 217.628  17
  -8  -1  -7 960.785 250.124  17
  -8  -1  -7 1035.38 252.794   7
  -8  -1  -8 297.582 137.504   7
  -8  -1  -8 2.13218 98.4420   6
  -8  -1  -9 1506.57 214.908   6
  -8  -2   6 2522.29 292.102  14
  -8  -2   5 241.925 145.108  14
  -8  -2   4-87.3037 142.265  14
  -8  -2   3 377.121 217.969  14
  -8  -2   2 454.838 235.606  14
  -8  -2   1 1542.76 350.587  14
  -8  -2   0 7357.29 733.263  16
  -8  -2  -1 23940.2 1295.10  16
  -8  -2  -2 3390.26 511.043  16
  -8  -2  -3 6942.28 699.799  16
  -8  -2  -4 1066.86 295.923  16
  -8  -2  -5 2788.45 427.433  17
  -8  -2  -6 646.384 222.952  17
  -8  -2  -7 89.9064 144.849  17
  -8  -2  -7 9.29226 120.638   7
  -8  -2  -8 169.162 117.521   7
  -8  -2  -8-73.9916 109.314   6
  -8  -2  -9 83.8801 73.3374   6
  -8  -3   6 2027.67 243.026  14
  -8  -3   5 10119.5 626.541  14
  -8  -3   4 6785.37 570.592  14
  -8  -3   3 560.025 221.993  14
  -8  -3   2 17279.3 1004.79  14
  -8  -3   1 43.2117 154.589  14
  -8  -3   0 3226.74 498.240  16
  -8  -3  -1 1543.98 355.528  16
  -8  -3  -2 672.819 267.303  16
  -8  -3  -3 1327.14 320.808  16
  -8  -3  -4 279.678 204.413  17
  -8  -3  -4 238.413 187.340  16
  -8  -3  -5 1263.62 289.597  17
  -8  -3  -6 1347.64 266.630  17
  -8  -3  -7 4209.68 451.650   7
  -8  -3  -8 1273.93 226.051   7
  -8  -3  -8 1268.22 218.104   6
  -8  -4   5 615.371 159.747  14
  -8  -4   4 6429.93 502.450  14
  -8  -4   3-94.3852 137.325  14
  -8  -4   2 1181.95 267.663  14
  -8  -4   1 1485.65 313.483  16
  -8  -4   1 1169.62 276.494  14
  -8  -4   0 5109.15 556.758  16
  -8  -4  -1 3075.64 438.070  16
  -8  -4  -2 1196.30 291.178  16
  -8  -4  -3 5585.93 545.385  16
  -8  -4  -4 8354.48 613.436  17
  -8  -4  -4 9869.03 686.968  16
  -8  -4  -5 332.885 138.173  17
  -8  -4  -5 4756.70 500.339   7
  -8  -4  -6 1907.78 319.128   7
  -8  -4  -7 131.197 114.481   7
  -8  -4  -7 302.330 116.376   6
  -8  -4  -8 748.976 149.080   7
  -8  -5   4 2781.16 265.337  16
  -8  -5   4 4014.98 326.699  14
  -8  -5   3 2245.29 276.125  16
  -8  -5   3 2380.96 294.233  14
  -8  -5   2 3288.44 358.286  16
  -8  -5   2 3037.19 352.529  14
  -8  -5   1 442.204 165.225  16
  -8  -5   1 379.767 150.461  11
  -8  -5   0 8452.61 599.690  16
  -8  -5   0 7025.29 531.336  11
  -8  -5  -1 1781.93 287.763  16
  -8  -5  -1 1677.44 278.711  11
  -8  -5  -2 2489.64 316.781  16
  -8  -5  -2 2938.24 354.189  11
  -8  -5  -3 140.110 80.5063  16
  -8  -5  -3 2007.21 280.091  11
  -8  -5  -4 32.4768 79.3285   7
  -8  -5  -5 1952.92 277.107   7
  -8  -5  -6 165.294 99.9143   7
  -8  -6   1 751.632 161.599  11
  -8  -6   0 12.6507 82.8981  11
  -8  -6  -1 174.176 119.674  11
  -8  -6  -2 1677.45 234.620  11
  -8  -6  -3 975.927 173.918  11
  -9   5   2 4365.77 328.963  18
  -9   5   1 1596.77 214.536  18
  -9   5   0 4637.20 357.759  18
  -9   5  -1 580.615 140.272  18
  -9   5  -2 683.770 131.969  18
   9  -4  -4 47.9145 74.3437  20
   9  -4  -3 4127.12 373.683  20
   9  -4  -2 3055.02 337.196  20
  -9   4   1 5184.59 445.969  18
  -9   4   0 210.070 137.772  18
  -9   4  -1 1534.17 256.830  18
  -9   4  -2 1451.88 242.516  18
  -9   4  -3-80.5269 81.3693  18
  -9   4  -4-7.95315 38.1382  18
   9  -3  -5 58.9910 86.8609  20
   9  -3  -4 4632.87 396.883  20
   9  -3  -3 276.133 144.509  20
   9  -3  -2 8665.97 605.148  20
   9  -3  -1 1329.49 254.456  20
  -9   3   0 258.352 141.354  18
  -9   3  -1 3973.25 428.490  18
  -9   3  -2 306.359 148.341  18
  -9   3  -3 1019.79 215.003  18
  -9   3  -4 382.577 134.403  18
   9  -2  -5 118.030 94.2011  20
   9  -2  -4 756.733 177.576  20
   9  -2  -3 1098.14 229.294  20
   9  -2  -2 703.798 207.419  20
   9  -2  -1 950.955 223.561  20
   9  -2   0 4813.46 463.621  20
  -9   2   0 4697.10 474.122  18
  -9   2  -1 2415.28 346.752  18
  -9   2  -2 113.915 137.559  17
  -9   2  -2 218.738 130.852  18
  -9   2  -3 67.5614 127.124  17
  -9   2  -3 63.0380 108.194  18
  -9   2  -4 4743.15 425.582  17
  -9   2  -4 64.7968 68.3760  18
   9  -1  -5 256.742 109.128  20
   9  -1  -4 5816.94 443.806  20
  -9   1   3 4051.27 377.624  16
   9  -1  -3 4184.06 407.002  20
  -9   1   2 163.028 110.835  16
   9  -1  -2 139.790 121.719  20
  -9   1   1 9415.19 654.717  16
   9  -1  -1 8514.40 597.194  20
  -9   1   0 21202.0 1009.24  16
  -9   1  -1 6428.64 573.132  16
  -9   1  -2 7713.83 617.966  16
  -9   1  -3 11616.4 762.999  17
  -9   1  -4 3013.87 381.980  17
  -9   1  -5 590.668 184.177  17
  -9   1  -6 103.067 65.4047   7
  -9   0   5 86.3393 81.2492  16
  -9   0   4 2863.10 325.601  16
  -9   0   3 108.420 123.530  16
  -9   0   2 215.250 167.111  16
  -9   0   1 7270.11 621.713  16
  -9   0   0 132.388 185.425  16
  -9   0  -1 64215.7 1861.80  16
  -9   0  -2 31.6617 147.683  16
  -9   0  -3 409.394 203.593  16
  -9   0  -4 542.166 207.401  17
  -9   0  -5 4341.06 443.702  17
  -9   0  -6 143.333 116.555  17
  -9   0  -7 1999.87 232.128   6
  -9  -1   5 530.063 135.907  16
  -9  -1   4 1997.60 294.116  16
  -9  -1   3 141.215 154.479  16
  -9  -1   2 636.469 210.145  16
  -9  -1   1 7176.50 627.928  16
  -9  -1   0 3.72952 149.458  16
  -9  -1  -1 1794.57 343.759  16
  -9  -1  -2 2151.37 365.540  16
  -9  -1  -3 7130.18 618.845  16
  -9  -1  -4 1497.43 294.751  17
  -9  -1  -5 2058.79 319.790  17
  -9  -1  -6 4137.56 398.818  17
  -9  -1  -7 44.9968 73.9184   7
  -9  -1  -7-12.9908 73.2748   6
  -9  -2   5 508.968 134.837  16
  -9  -2   4 902.459 195.010  16
  -9  -2   3 3696.09 405.473  16
  -9  -2   2 445.696 194.071  16
  -9  -2   1 258.921 181.146  16
  -9  -2   0 45.4884 149.857  16
  -9  -2  -1 5073.66 524.587  16
  -9  -2  -2 1901.34 337.013  16
  -9  -2  -3 1172.62 275.022  16
  -9  -2  -4 133.542 139.517  17
  -9  -2  -5 46.8106 105.204  17
  -9  -2  -6 93.2660 105.348  17
  -9  -2  -6-96.6693 111.081   7
  -9  -2  -7 466.422 129.265   7
  -9  -2  -7 314.555 105.984   6
  -9  -3   4 896.425 165.054  16
  -9  -3   3 1243.36 236.254  16
  -9  -3   2 1772.28 284.315  16
  -9  -3   1 1575.12 285.132  16
  -9  -3   0 2238.68 345.644  16
  -9  -3  -1 463.775 185.649  16
  -9  -3  -2 2412.99 350.586  16
  -9  -3  -3 672.923 192.531  17
  -9  -3  -3 652.316 197.149  16
  -9  -3  -4 2129.93 293.171  17
  -9  -3  -5 2519.63 295.248  17
  -9  -3  -5 2793.73 333.799   7
  -9  -3  -6 1047.14 193.745   7
  -9  -4   3 836.760 152.987  16
  -9  -4   2 135.626 102.331  16
  -9  -4   1 1998.63 269.956  16
  -9  -4   0 349.697 153.722  16
  -9  -4  -1 1312.56 252.249  16
  -9  -4  -2-45.1378 66.5079  17
  -9  -4  -2 24.3687 94.8452  16
  -9  -4  -3 17.6076 39.8145  17
  -9  -4  -3 5172.31 390.800   7
  -9  -4  -4 2245.87 266.428   7
  -9  -4  -5-2.79990 61.1495   7
 -10   1  -1 561.410 141.196  17
 -10   1  -2 1219.54 192.092  17
 -10   1  -3 125.701 84.2631  17
 -10   0   1 529.128 134.431  16
 -10   0   0 1621.95 229.460  16
 -10   0  -2 858.894 185.080  17
 -10   0  -3 1887.93 242.683  17
 -10   0  -4 3523.38 304.853  17
 -10  -1   2 3751.16 298.680  16
 -10  -1   1 2898.69 294.282  16
 -10  -1   0 134.903 105.760  16
 -10  -1  -1 870.052 193.398  16
 -10  -1  -2 82.1825 88.8262  17
 -10  -1  -3 2422.10 273.590  17
 -10  -1  -4 15.2456 65.9157  17
 -10  -2   2 574.240 117.862  16
 -10  -2   1 959.942 170.196  16
 -10  -2   0 216.046 111.765  16
 -10  -2  -1 307.666 129.170  16
 -10  -2  -2 4.54467 80.3071  17
 -10  -2  -3 175.581 85.7841  17
 -10  -2  -4 27.6535 62.6601   7
 -10  -3   0 1051.90 155.957  16
 -10  -3  -1 992.352 155.881  16
   0   0   0    0.00    0.00   0
TITL JV-DL4-151A in P-1
REM P-1 (#2 in standard setting)
CELL 1.54184   8.336431   8.482970  10.748448  82.8234  86.8621  89.8198
ZERR    2.00   0.000591   0.000525   0.000676   0.0052   0.0054   0.0054
LATT  1
SFAC C H N O
UNIT 30.00 40.00 6.00 8.00
TREF
HKLF 4
END
;
_shelx_hkl_checksum              62174
_olex2_date_sample_data_collection 2018-11-29
_olex2_exptl_crystal_mounting_method 'Mounted on a Kryoloop in paratone oil.'
_olex2_submission_special_instructions 'No special instructions were received'
loop_
_space_group_symop_operation_xyz
'x, y, z'
'-x, -y, -z'
loop_
_atom_site_label
_atom_site_type_symbol
_atom_site_fract_x
_atom_site_fract_y
_atom_site_fract_z
_atom_site_U_iso_or_equiv
_atom_site_adp_type
_atom_site_occupancy
_atom_site_site_symmetry_order
_atom_site_calc_flag
_atom_site_refinement_flags_posn
O3 O 0.26760(19) 0.3074(2) 0.10041(14) 0.0272(4) Uani 1 1 d .
O1 O -0.2137(2) 0.0552(2) 0.72640(16) 0.0361(4) Uani 1 1 d .
O4 O 0.8344(2) 0.5812(2) 0.18601(15) 0.0305(4) Uani 1 1 d .
N2 N 0.4704(2) 0.2861(2) 0.23970(16) 0.0211(4) Uani 1 1 d .
O2 O -0.3399(2) 0.0204(2) 0.56100(18) 0.0410(5) Uani 1 1 d .
N3 N 0.3903(2) 0.4832(2) 0.36173(17) 0.0259(4) Uani 1 1 d .
N1 N -0.2280(2) 0.0743(2) 0.61269(19) 0.0297(4) Uani 1 1 d .
C13 C 0.8413(3) 0.3182(3) 0.0348(2) 0.0254(5) Uani 1 1 d .
H13 H 0.9236 0.3938 0.0073 0.031 Uiso 1 1 calc R
C6 C 0.1257(3) 0.3411(3) 0.3821(2) 0.0253(5) Uani 1 1 d .
C9 C 0.5977(3) 0.2439(3) 0.15664(19) 0.0207(4) Uani 1 1 d .
C10 C 0.6048(3) 0.0937(3) 0.1181(2) 0.0234(4) Uani 1 1 d .
H10 H 0.5252 0.0163 0.1483 0.028 Uiso 1 1 calc R
C11 C 0.7291(3) 0.0575(3) 0.0353(2) 0.0259(5) Uani 1 1 d .
H11 H 0.7329 -0.0439 0.0065 0.031 Uiso 1 1 calc R
C14 C 0.7158(3) 0.3582(3) 0.11515(19) 0.0214(4) Uani 1 1 d .
C15 C 0.7109(3) 0.5217(3) 0.15759(19) 0.0251(5) Uani 1 1 d .
C1 C 0.1229(3) 0.3382(3) 0.5121(2) 0.0264(5) Uani 1 1 d .
H1 H 0.2009 0.3970 0.5485 0.032 Uiso 1 1 calc R
C7 C 0.2508(3) 0.4358(3) 0.2958(2) 0.0250(5) Uani 1 1 d .
H7 H 0.1998 0.5325 0.2519 0.030 Uiso 1 1 calc R
C2 C 0.0079(3) 0.2508(3) 0.5887(2) 0.0267(5) Uani 1 1 d .
H2 H 0.0068 0.2475 0.6774 0.032 Uiso 1 1 calc R
C12 C 0.8481(3) 0.1697(3) -0.0058(2) 0.0249(5) Uani 1 1 d .
H12 H 0.9340 0.1443 -0.0616 0.030 Uiso 1 1 calc R
C3 C -0.1052(3) 0.1683(3) 0.5330(2) 0.0256(5) Uani 1 1 d .
C5 C 0.0098(3) 0.2555(3) 0.3292(2) 0.0290(5) Uani 1 1 d .
H5 H 0.0116 0.2565 0.2406 0.035 Uiso 1 1 calc R
C16 C 0.5542(3) 0.6139(3) 0.1612(2) 0.0266(5) Uani 1 1 d .
H16A H 0.4770 0.5641 0.1110 0.032 Uiso 1 1 calc R
H16B H 0.5750 0.7233 0.1196 0.032 Uiso 1 1 calc R
C8 C 0.3241(3) 0.3334(3) 0.19743(19) 0.0224(4) Uani 1 1 d .
C18 C 0.4943(3) 0.3446(3) 0.3611(2) 0.0231(4) Uani 1 1 d .
H18A H 0.4632 0.2625 0.4320 0.028 Uiso 1 1 calc R
H18B H 0.6080 0.3746 0.3673 0.028 Uiso 1 1 calc R
C17 C 0.4729(3) 0.6244(3) 0.2941(2) 0.0296(5) Uani 1 1 d .
H17A H 0.5566 0.6560 0.3481 0.035 Uiso 1 1 calc R
H17B H 0.3937 0.7118 0.2857 0.035 Uiso 1 1 calc R
C4 C -0.1075(3) 0.1695(3) 0.4044(2) 0.0293(5) Uani 1 1 d .
H4 H -0.1876 0.1126 0.3686 0.035 Uiso 1 1 calc R
loop_
_atom_site_aniso_label
_atom_site_aniso_U_11
_atom_site_aniso_U_22
_atom_site_aniso_U_33
_atom_site_aniso_U_23
_atom_site_aniso_U_13
_atom_site_aniso_U_12
O3 0.0278(8) 0.0348(9) 0.0198(7) -0.0056(6) -0.0032(6) 0.0020(7)
O1 0.0379(10) 0.0450(11) 0.0250(8) -0.0052(7) 0.0034(7) 0.0039(8)
O4 0.0357(9) 0.0293(9) 0.0280(8) -0.0089(7) -0.0030(7) -0.0106(7)
N2 0.0226(9) 0.0228(9) 0.0182(8) -0.0037(7) -0.0004(7) 0.0016(7)
O2 0.0364(10) 0.0464(11) 0.0405(10) -0.0051(8) -0.0050(8) -0.0098(8)
N3 0.0316(10) 0.0246(10) 0.0228(9) -0.0074(7) -0.0015(7) 0.0031(8)
N1 0.0286(10) 0.0304(11) 0.0303(10) -0.0055(8) 0.0006(8) 0.0066(8)
C13 0.0228(10) 0.0287(12) 0.0246(10) -0.0027(9) -0.0021(8) -0.0052(9)
C6 0.0257(11) 0.0271(11) 0.0243(11) -0.0081(9) -0.0026(8) 0.0112(9)
C9 0.0214(10) 0.0217(10) 0.0191(9) -0.0023(8) -0.0040(8) 0.0017(8)
C10 0.0244(10) 0.0212(11) 0.0258(11) -0.0082(8) -0.0012(8) -0.0006(8)
C11 0.0281(11) 0.0225(11) 0.0292(11) -0.0107(9) -0.0022(9) 0.0013(9)
C14 0.0239(10) 0.0208(11) 0.0198(10) -0.0022(8) -0.0042(8) -0.0007(8)
C15 0.0350(12) 0.0226(11) 0.0178(10) -0.0040(8) -0.0001(8) -0.0037(9)
C1 0.0301(12) 0.0292(12) 0.0217(10) -0.0094(9) -0.0041(8) 0.0049(9)
C7 0.0283(11) 0.0256(11) 0.0217(10) -0.0051(9) -0.0025(8) 0.0061(9)
C2 0.0319(12) 0.0282(12) 0.0214(10) -0.0088(9) -0.0006(9) 0.0079(9)
C12 0.0248(11) 0.0264(11) 0.0246(10) -0.0083(9) -0.0002(8) 0.0019(9)
C3 0.0227(11) 0.0277(11) 0.0268(11) -0.0064(9) 0.0006(8) 0.0074(8)
C5 0.0234(11) 0.0429(14) 0.0218(10) -0.0075(10) -0.0022(8) 0.0090(10)
C16 0.0374(13) 0.0171(10) 0.0254(11) -0.0041(8) 0.0001(9) 0.0006(9)
C8 0.0240(10) 0.0231(11) 0.0197(10) -0.0026(8) 0.0016(8) 0.0021(8)
C18 0.0281(11) 0.0225(11) 0.0196(10) -0.0065(8) -0.0004(8) 0.0015(8)
C17 0.0415(13) 0.0225(11) 0.0264(11) -0.0105(9) -0.0001(10) 0.0030(10)
C4 0.0215(11) 0.0414(14) 0.0268(11) -0.0100(10) -0.0041(9) 0.0088(9)
loop_
_atom_type_symbol
_atom_type_description
_atom_type_scat_dispersion_real
_atom_type_scat_dispersion_imag
_atom_type_scat_source
C C 0.0181 0.0091 'International Tables Vol C Tables 4.2.6.8 and 6.1.1.4'
H H 0.0000 0.0000 'International Tables Vol C Tables 4.2.6.8 and 6.1.1.4'
N N 0.0311 0.0180 'International Tables Vol C Tables 4.2.6.8 and 6.1.1.4'
O O 0.0492 0.0322 'International Tables Vol C Tables 4.2.6.8 and 6.1.1.4'
loop_
_geom_angle_atom_site_label_1
_geom_angle_atom_site_label_2
_geom_angle_atom_site_label_3
_geom_angle
C9 N2 C18 124.06(17)
C8 N2 C9 121.67(17)
C8 N2 C18 110.09(17)
C18 N3 C7 102.25(17)
C18 N3 C17 109.98(18)
C17 N3 C7 112.21(18)
O1 N1 O2 123.9(2)
O1 N1 C3 118.3(2)
O2 N1 C3 117.80(19)
C14 C13 H13 119.6
C12 C13 H13 119.6
C12 C13 C14 120.9(2)
C1 C6 C7 121.9(2)
C1 C6 C5 119.3(2)
C5 C6 C7 118.9(2)
C10 C9 N2 120.99(19)
C10 C9 C14 121.0(2)
C14 C9 N2 118.04(19)
C9 C10 H10 120.3
C11 C10 C9 119.5(2)
C11 C10 H10 120.3
C10 C11 H11 119.9
C10 C11 C12 120.1(2)
C12 C11 H11 119.9
C13 C14 C9 118.6(2)
C13 C14 C15 119.8(2)
C9 C14 C15 121.6(2)
O4 C15 C14 119.5(2)
O4 C15 C16 120.0(2)
C14 C15 C16 120.49(19)
C6 C1 H1 119.6
C2 C1 C6 120.8(2)
C2 C1 H1 119.6
N3 C7 C6 113.34(18)
N3 C7 H7 109.6
N3 C7 C8 104.23(17)
C6 C7 H7 109.6
C6 C7 C8 110.47(18)
C8 C7 H7 109.6
C1 C2 H2 120.8
C3 C2 C1 118.3(2)
C3 C2 H2 120.8
C13 C12 C11 119.9(2)
C13 C12 H12 120.0
C11 C12 H12 120.0
C2 C3 N1 119.2(2)
C2 C3 C4 122.7(2)
C4 C3 N1 118.1(2)
C6 C5 H5 119.7
C4 C5 C6 120.7(2)
C4 C5 H5 119.7
C15 C16 H16A 108.3
C15 C16 H16B 108.3
C15 C16 C17 116.12(19)
H16A C16 H16B 107.4
C17 C16 H16A 108.3
C17 C16 H16B 108.3
O3 C8 N2 127.2(2)
O3 C8 C7 127.4(2)
N2 C8 C7 105.29(17)
N2 C18 H18A 110.8
N2 C18 H18B 110.8
N3 C18 N2 104.79(17)
N3 C18 H18A 110.8
N3 C18 H18B 110.8
H18A C18 H18B 108.9
N3 C17 C16 118.98(18)
N3 C17 H17A 107.6
N3 C17 H17B 107.6
C16 C17 H17A 107.6
C16 C17 H17B 107.6
H17A C17 H17B 107.0
C3 C4 C5 118.3(2)
C3 C4 H4 120.9
C5 C4 H4 120.9
loop_
_geom_bond_atom_site_label_1
_geom_bond_atom_site_label_2
_geom_bond_distance
O3 C8 1.213(3)
O1 N1 1.225(3)
O4 C15 1.219(3)
N2 C9 1.423(3)
N2 C8 1.366(3)
N2 C18 1.476(3)
O2 N1 1.229(3)
N3 C7 1.477(3)
N3 C18 1.459(3)
N3 C17 1.473(3)
N1 C3 1.468(3)
C13 H13 0.9500
C13 C14 1.389(3)
C13 C12 1.384(3)
C6 C1 1.393(3)
C6 C7 1.518(3)
C6 C5 1.397(3)
C9 C10 1.389(3)
C9 C14 1.399(3)
C10 H10 0.9500
C10 C11 1.387(3)
C11 H11 0.9500
C11 C12 1.392(3)
C14 C15 1.513(3)
C15 C16 1.521(3)
C1 H1 0.9500
C1 C2 1.384(3)
C7 H7 1.0000
C7 C8 1.550(3)
C2 H2 0.9500
C2 C3 1.381(3)
C12 H12 0.9500
C3 C4 1.383(3)
C5 H5 0.9500
C5 C4 1.383(4)
C16 H16A 0.9900
C16 H16B 0.9900
C16 C17 1.560(3)
C18 H18A 0.9900
C18 H18B 0.9900
C17 H17A 0.9900
C17 H17B 0.9900
C4 H4 0.9500
loop_
_geom_torsion_atom_site_label_1
_geom_torsion_atom_site_label_2
_geom_torsion_atom_site_label_3
_geom_torsion_atom_site_label_4
_geom_torsion
O1 N1 C3 C2 -9.4(3)
O1 N1 C3 C4 170.2(2)
O4 C15 C16 C17 -75.8(3)
N2 C9 C10 C11 178.84(19)
N2 C9 C14 C13 179.54(19)
N2 C9 C14 C15 0.7(3)
O2 N1 C3 C2 170.1(2)
O2 N1 C3 C4 -10.3(3)
N3 C7 C8 O3 -156.7(2)
N3 C7 C8 N2 19.9(2)
N1 C3 C4 C5 -178.8(2)
C13 C14 C15 O4 -41.4(3)
C13 C14 C15 C16 136.8(2)
C6 C1 C2 C3 -0.9(3)
C6 C7 C8 O3 81.2(3)
C6 C7 C8 N2 -102.1(2)
C6 C5 C4 C3 -1.1(4)
C9 N2 C8 O3 21.2(3)
C9 N2 C8 C7 -155.50(19)
C9 N2 C18 N3 133.0(2)
C9 C10 C11 C12 1.9(3)
C9 C14 C15 O4 137.5(2)
C9 C14 C15 C16 -44.4(3)
C10 C9 C14 C13 -0.3(3)
C10 C9 C14 C15 -179.2(2)
C10 C11 C12 C13 -0.9(3)
C14 C13 C12 C11 -0.8(3)
C14 C9 C10 C11 -1.3(3)
C14 C15 C16 C17 106.1(2)
C15 C16 C17 N3 -74.4(3)
C1 C6 C7 N3 16.5(3)
C1 C6 C7 C8 133.0(2)
C1 C6 C5 C4 0.4(3)
C1 C2 C3 N1 179.8(2)
C1 C2 C3 C4 0.2(3)
C7 N3 C18 N2 35.5(2)
C7 N3 C17 C16 -63.8(3)
C7 C6 C1 C2 -179.9(2)
C7 C6 C5 C4 -179.1(2)
C2 C3 C4 C5 0.8(4)
C12 C13 C14 C9 1.4(3)
C12 C13 C14 C15 -179.7(2)
C5 C6 C1 C2 0.6(3)
C5 C6 C7 N3 -164.0(2)
C5 C6 C7 C8 -47.4(3)
C8 N2 C9 C10 -81.7(3)
C8 N2 C9 C14 98.4(2)
C8 N2 C18 N3 -24.2(2)
C18 N2 C9 C10 123.6(2)
C18 N2 C9 C14 -56.3(3)
C18 N2 C8 O3 179.1(2)
C18 N2 C8 C7 2.4(2)
C18 N3 C7 C6 86.3(2)
C18 N3 C7 C8 -33.9(2)
C18 N3 C17 C16 49.3(3)
C17 N3 C7 C6 -155.96(18)
C17 N3 C7 C8 83.9(2)
C17 N3 C18 N2 -83.8(2)
