#------------------------------------------------------------------------------
#$Date: 2019-12-28 02:21:44 +0200 (Sat, 28 Dec 2019) $
#$Revision: 246282 $
#$URL: file:///home/coder/svn-repositories/cod/cif/4/03/77/4037747.cif $
#------------------------------------------------------------------------------
#
# This file is available in the Crystallography Open Database (COD),
# http://www.crystallography.net/
#
# All data on this site have been placed in the public domain by the
# contributors.
#
data_4037747
loop_
_publ_author_name
'Wang, Pengzhi'
'Lu, Futai'
'Lindsey, Jonathan S.'
_publ_section_title
;
 Use of the Nascent Isocyclic Ring to Anchor Assembly of the Full Skeleton
 of Model Chlorophylls
;
_journal_name_full               'The Journal of Organic Chemistry'
_journal_paper_doi               10.1021/acs.joc.9b02770
_journal_year                    2019
_chemical_formula_moiety         'C14 H14 N2 O4'
_chemical_formula_sum            'C14 H14 N2 O4'
_chemical_formula_weight         274.27
_chemical_name_common            'Bc Half'
_space_group_crystal_system      triclinic
_space_group_IT_number           2
_space_group_name_Hall           '-P 1'
_space_group_name_H-M_alt        'P -1'
_atom_sites_solution_hydrogens   mixed
_cell_angle_alpha                81.472(3)
_cell_angle_beta                 79.362(3)
_cell_angle_gamma                74.830(3)
_cell_formula_units_Z            2
_cell_length_a                   7.3347(7)
_cell_length_b                   9.2667(9)
_cell_length_c                   10.0931(9)
_cell_measurement_reflns_used    68
_cell_measurement_temperature    100.(2)
_cell_measurement_theta_max      22.2089
_cell_measurement_theta_min      3.4925
_cell_volume                     647.10(11)
_computing_cell_refinement       'APEX3 v2017.3-0 (Bruker AXS)'
_computing_data_collection       'Bruker Instrument Service v2013.12.0.0'
_computing_data_reduction        'SAINT V8.38A (Bruker AXS Inc., 2017)'
_computing_molecular_graphics    'shelXle (C.B. Huebschle, rev 833)'
_computing_structure_refinement  'SHELXL-2016/6 (Sheldrick, 2016)'
_computing_structure_solution    'XT, VERSION 2014/5'
_diffrn_ambient_temperature      100.(2)
_diffrn_detector_area_resol_mean 8.3333
_diffrn_measured_fraction_theta_full 0.989
_diffrn_measured_fraction_theta_max 0.989
_diffrn_measurement_device_type  'Bruker-Nonius X8 Kappa APEX II'
_diffrn_measurement_method       'phi and omega scans'
_diffrn_radiation_monochromator  graphite
_diffrn_radiation_type           MoK\a
_diffrn_radiation_wavelength     0.71073
_diffrn_reflns_av_R_equivalents  0.0492
_diffrn_reflns_av_unetI/netI     0.0343
_diffrn_reflns_limit_h_max       8
_diffrn_reflns_limit_h_min       -8
_diffrn_reflns_limit_k_max       11
_diffrn_reflns_limit_k_min       -10
_diffrn_reflns_limit_l_max       11
_diffrn_reflns_limit_l_min       0
_diffrn_reflns_number            2257
_diffrn_reflns_theta_full        25.03
_diffrn_reflns_theta_max         25.03
_diffrn_reflns_theta_min         2.06
_diffrn_source                   'fine-focus sealed tube'
_exptl_absorpt_coefficient_mu    0.105
_exptl_absorpt_correction_T_max  0.745
_exptl_absorpt_correction_T_min  0.685
_exptl_absorpt_correction_type   multi-scan
_exptl_absorpt_process_details
;
TWINABS - Bruker AXS scaling for twinned crystals - Version 2012/1'
 N(1) and Rint(1) refer to singles and composites that include domain 1.

 Rint = 0.0492  for all   28660  observations and
 Rint = 0.0334  for all   13834  observations with I > 3sigma(I)

 Rint is based on agreement between observed single and composite intensities
 and those calculated from refined unique intensities and twin fractions.

    2258 Corrected reflections written to file rds729_0m_4.hkl
 Reflections merged according to point-group -1    
 Minimum and maximum apparent transmission:  0.685757  0.745157
 Additional spherical absorption correction applied with mu*r =  0.2000


 HKLF 5 dataset constructed from all observations involving domain 1
    2801 Corrected reflections written to file rds729_0m_5.hkl
 Reflections merged according to point-group -1    
 Single reflections that also occur in composites omitted
 Minimum and maximum apparent transmission:  0.684645  0.745157
 Additional spherical absorption correction applied with mu*r =  0.2000
;
_exptl_crystal_colour            colourless
_exptl_crystal_density_diffrn    1.408
_exptl_crystal_density_method    'not measured'
_exptl_crystal_description       plate
_exptl_crystal_F_000             288
_exptl_crystal_size_max          0.278
_exptl_crystal_size_mid          0.121
_exptl_crystal_size_min          0.055
_refine_diff_density_max         0.269
_refine_diff_density_min         -0.243
_refine_ls_extinction_method     none
_refine_ls_goodness_of_fit_ref   1.071
_refine_ls_hydrogen_treatment    mixed
_refine_ls_matrix_type           full
_refine_ls_number_parameters     191
_refine_ls_number_reflns         2257
_refine_ls_number_restraints     0
_refine_ls_restrained_S_all      1.071
_refine_ls_R_factor_all          0.0654
_refine_ls_R_factor_gt           0.0420
_refine_ls_shift/su_max          0.000
_refine_ls_shift/su_mean         0.000
_refine_ls_structure_factor_coef Fsqd
_refine_ls_weighting_details
'w=1/[\s^2^(Fo^2^)+(0.0352P)^2^+0.3969P] where P=(Fo^2^+2Fc^2^)/3'
_refine_ls_weighting_scheme      calc
_refine_ls_wR_factor_gt          0.0906
_refine_ls_wR_factor_ref         0.1011
_reflns_number_gt                1768
_reflns_number_total             2257
_reflns_threshold_expression     'I > 2\s(I)'
_cod_data_source_file            jo9b02770_si_002.cif
_cod_data_source_block           rds729
_cod_depositor_comments
;
The following automatic conversions were performed:

data item '_exptl_absorpt_correction_type' value 'Multi-Scan' was
changed to 'multi-scan' in accordance with the
/home/data/users/saulius/crontab/automatic-downloads/rss-feeds/ACS/lib/dictionaries/cif_core.dic
dictionary named 'cif_core.dic' version 2.4.2 last updated on
2011-04-26.

Automatic conversion script
Id: cif_fix_values 7556 2019-12-06 15:28:31Z antanas 
;
_cod_database_code               4037747
_shelx_res_file
;

TITL rds729_0m_4 in P-1
    rds729_0m_5.res
    created by SHELXL-2016/6 at 16:10:10 on 19-Dec-2017
CELL 0.71073 7.3347 9.2667 10.0931 81.4723 79.362 74.8301
ZERR 2 0.0007 0.0009 0.0009 0.003 0.0029 0.003
LATT 1
SFAC C H N O
UNIT 28 28 4 8
EQIV $1 1+X,+Y,+Z
EQIV $2 -X,-Y,1-Z

L.S. 10
PLAN  10
TEMP -173.11
MPLA 5 N1 C1 C2 C3 C4
MPLA 5 N2 C6 C7 C8 C9
HTAB N1 O3_$1
HTAB N2 O4_$2
LIST 4
BOND $h
conf
htab
fmap 2
acta

WGHT    0.035200    0.396900
BASF   0.28828
FVAR       1.05687
O1    4   -0.438995    0.379276   -0.300751    11.00000    0.02329    0.04943 =
         0.02749    0.00082   -0.00718   -0.01841
O2    4   -0.157939    0.426017   -0.402449    11.00000    0.02122    0.03205 =
         0.02182    0.00121   -0.00446   -0.00958
O3    4   -0.331868    0.276065   -0.011711    11.00000    0.01432    0.04449 =
         0.02856    0.00990   -0.00694   -0.01373
O4    4    0.018035    0.071170    0.662969    11.00000    0.02755    0.03461 =
         0.02412    0.00059   -0.00383   -0.01580
N1    3    0.291919    0.270503   -0.031507    11.00000    0.00963    0.02563 =
         0.02081   -0.00224   -0.00287   -0.00647
H1    2    0.401829    0.287710   -0.050568    11.00000    0.02606
N2    3    0.237899    0.086629    0.392965    11.00000    0.01621    0.02264 =
         0.02060   -0.00034   -0.00500   -0.00706
H2    2    0.149498    0.036822    0.391429    11.00000    0.02408
C1    1    0.142405    0.348396   -0.092470    11.00000    0.01371    0.02031 =
         0.01700   -0.00217   -0.00422   -0.00417
AFIX  43
H1A   2    0.143461    0.429259   -0.162283    11.00000   -1.20000
AFIX   0
C2    1   -0.013790    0.289987   -0.035553    11.00000    0.01363    0.02282 =
         0.01530   -0.00235   -0.00178   -0.00477
C3    1    0.050799    0.170726    0.064934    11.00000    0.01544    0.02624 =
         0.01607    0.00145   -0.00239   -0.00793
AFIX  43
H3    2   -0.024046    0.109006    0.121020    11.00000   -1.20000
AFIX   0
C4    1    0.238898    0.161613    0.065708    11.00000    0.01630    0.02053 =
         0.01341   -0.00211   -0.00271   -0.00403
C5    1    0.378068    0.060297    0.151115    11.00000    0.01527    0.02394 =
         0.01962   -0.00100   -0.00504   -0.00232
AFIX  23
H5A   2    0.352018   -0.040929    0.166723    11.00000   -1.20000
H5B   2    0.508866    0.050694    0.100079    11.00000   -1.20000
AFIX   0
C6    1    0.371618    0.113025    0.285683    11.00000    0.01318    0.02030 =
         0.01886    0.00268   -0.00609    0.00039
C7    1    0.486371    0.188618    0.327058    11.00000    0.01735    0.02490 =
         0.02335    0.00450   -0.00649   -0.00793
AFIX  43
H7    2    0.590496    0.222325    0.272519    11.00000   -1.20000
AFIX   0
C8    1    0.420927    0.206550    0.464593    11.00000    0.02221    0.02086 =
         0.02413    0.00088   -0.00942   -0.00633
AFIX  43
H8    2    0.473177    0.254431    0.520307    11.00000   -1.20000
AFIX   0
C9    1    0.267135    0.142261    0.504566    11.00000    0.02022    0.01931 =
         0.02007   -0.00074   -0.00828   -0.00478
C10   1    0.156439    0.127829    0.634081    11.00000    0.02403    0.02295 =
         0.02270   -0.00151   -0.00811   -0.00610
AFIX  43
H10   2    0.192237    0.165393    0.705540    11.00000   -1.20000
AFIX   0
C11   1   -0.204807    0.337876   -0.068439    11.00000    0.01288    0.02544 =
         0.01767   -0.00235   -0.00253   -0.00543
C12   1   -0.253692    0.470578   -0.174977    11.00000    0.01787    0.02367 =
         0.02494    0.00246   -0.00765   -0.00572
AFIX  23
H12A  2   -0.365897    0.546102   -0.136352    11.00000   -1.20000
H12B  2   -0.144727    0.518586   -0.201495    11.00000   -1.20000
AFIX   0
C13   1   -0.296968    0.420344   -0.297309    11.00000    0.01678    0.02392 =
         0.02355    0.00660   -0.00612   -0.00484
C14   1   -0.185560    0.379299   -0.526833    11.00000    0.02866    0.03902 =
         0.02189    0.00035   -0.00585   -0.01056
AFIX 137
H14A  2   -0.198799    0.275353   -0.510292    11.00000   -1.50000
H14B  2   -0.075076    0.385768   -0.596784    11.00000   -1.50000
H14C  2   -0.301461    0.445224   -0.557428    11.00000   -1.50000
AFIX   0
HKLF 5




REM  rds729_0m_4 in P-1
REM R1 =  0.0420 for    1768 Fo > 4sig(Fo)  and  0.0654 for all    2257 data
REM    191 parameters refined using      0 restraints

END

WGHT      0.0352      0.3969

REM Instructions for potential hydrogen bonds
HTAB N1 O3_$1
HTAB N2 O4_$2
HTAB C3 O4_$2
EQIV $3 x+1, y, z+1
HTAB C8 O1_$3
EQIV $4 -x-1, -y+1, -z-1
HTAB C14 O1_$4

REM Highest difference peak  0.269,  deepest hole -0.243,  1-sigma level  0.051
Q1    1   0.0803  0.2725 -0.1067  11.00000  0.05    0.27
Q2    1  -0.0951  0.3223 -0.0481  11.00000  0.05    0.24
Q3    1   0.2864  0.1099  0.1157  11.00000  0.05    0.21
Q4    1  -0.2182  0.4065 -0.1153  11.00000  0.05    0.20
Q5    1   0.1506  0.2142  0.0977  11.00000  0.05    0.20
Q6    1   0.0117  0.2276  0.0017  11.00000  0.05    0.19
Q7    1  -0.3452  0.3603  0.0168  11.00000  0.05    0.18
Q8    1   0.4409  0.2971  0.0878  11.00000  0.05    0.18
Q9    1   0.4674  0.2377  0.5635  11.00000  0.05    0.18
Q10   1   0.0246  0.3426 -0.0263  11.00000  0.05    0.18
;
_shelx_res_checksum              81270
_shelx_hkl_file
;
   1   0   0 0.63771 0.35444   1
   2   0   0 715.671 3.25900   1
   3   0   0 13.4132 0.74438   1
   4   0   0 160.984 1.83288   1
   5   0   0 112.941 1.70981   1
   6   4   3 90.3902 2.41094  -2
   6   0   0 90.3902 2.41094   1
   7   0   0 68.8785 4.22158   1
   8   5   4 30.7899 11.9958  -2
   8   0   0 30.7899 11.9958   1
   8   6   4 212.357 18.1389  -2
  -8   1   0 212.357 18.1389   1
  -7   1   0 244.837 7.33675   1
   6   5   3 7.96776 7.89509  -2
  -6   1   0 7.96776 7.89509   1
   6   5   3 298.864 13.9282  -2
   6   5   2 298.864 13.9282  -2
  -6   1   0 298.864 13.9282   1
   6  -1   1 298.864 13.9282   1
  -5   1   0 190.164 2.14243   1
  -4   1   0 73.0654 1.35225   1
  -3   1   0 378.880 2.25193   1
  -2   1   0 342.798 1.78771   1
  -1   1   0 272.267 1.41637   1
   0   1   0 18.6349 0.57071  -2
   0   1   0 18.6349 0.57071   1
   1   1   0 379.621 2.05408   1
   2   1   0 330.900 1.86415   1
   3   1   0 417.790 2.47144   1
   4   1   0 19.7584 0.77125   1
   5   1   0 10.2570 1.08878   1
   6   3   3 105.136 2.55796  -2
   6   1   0 105.136 2.55796   1
   7   1   0 -1.6916 1.69105   1
   8   4   4 107.765 22.6179  -2
   8   1   0 107.765 22.6179   1
  -7   2   0 4.45175 4.53312   1
   6   6   3 72.7585 3.36780  -2
  -6   2   0 72.7585 3.36780   1
  -5   2   0 205.935 2.48805   1
  -4   2   0 169.041 2.09555   1
  -3   2   0 57.0641 1.04191   1
  -2   2   0 90.0002 1.01650   1
  -1   2   0 6739.08 31.3075   1
   0   2   0 404.215 2.68852  -2
   0   2   0 404.215 2.68852   1
   1   2   0 4371.40 21.7935   1
   2   2   0 11.5154 0.80055   1
   3   2   0 29.2015 0.90458   1
   4   2   0 60.6549 1.40164   1
   5   2   0 42.7109 1.29583   1
   6   2   3 132.969 3.14234  -2
   6   2   0 132.969 3.14234   1
   7   2   0 16.8125 2.41367   1
   8   3   4 26.6325 22.4321  -2
   8   2   0 26.6325 22.4321   1
  -7   3   0 7.31288 4.53237   1
   6   7   3 431.881 6.99130  -2
  -6   3   0 431.881 6.99130   1
  -5   3   0 2.06175 1.17221   1
  -4   3   0 -0.2418 0.77318   1
  -3   3   0 20.7055 0.89141   1
  -2   3   0 2.37805 0.71223   1
  -1   3   0 25.2995 0.88750   1
   0   3   0 69.5770 1.52588  -2
   0   3   0 69.5770 1.52588   1
   1   3   0 38.4806 1.01672   1
   2   3   0 78.5552 1.57251   1
   3   3   0 2.49302 0.84113   1
   4   3   0 440.946 3.04973   1
   5   3   0 154.511 2.42928   1
   6   1   3 135.409 3.44174  -2
   6   3   0 135.409 3.44174   1
   7   3   0 59.3503 2.92328   1
   8   2   4 19.0548 6.35799  -2
   8   3   0 19.0548 6.35799   1
   6   8   3 6.05024 4.55229  -2
  -6   4   0 6.05024 4.55229   1
  -5   4   0 161.597 3.39630   1
  -4   4   0 9.76241 1.35651   1
  -3   4   0 132.805 1.77958   1
  -2   4   0 48.9796 1.16684   1
  -1   4   0 4.08344 0.85330   1
   0   4   0 901.173 5.70828  -2
   0   4   0 901.173 5.70828   1
   1   4   0 457.937 3.39512   1
   2   4   0 8.18621 1.04212   1
   3   4   0 666.955 4.50703   1
   4   4   0 0.75447 1.04549   1
   5   4   0 10.5600 1.16292   1
   6   0   3 45.4293 3.27869  -2
   6   4   0 45.4293 3.27869   1
   7   4   0 18.1566 2.55377   1
   8   1   4 97.8524 8.22389  -2
   8   4   0 97.8524 8.22389   1
   6   9   3 14.1139 5.32682  -2
  -6   5   0 14.1139 5.32682   1
  -5   5   0 0.91562 2.40390   1
  -4   5   0 46.5088 2.42469   1
  -3   5   0 102.276 2.00381   1
  -2   5   0 0.33600 1.02168   1
  -1   5   0 399.054 3.35290   1
   0   5   0 59.1370 2.10455  -2
   0   5   0 59.1370 2.10455   1
   1   5   0 5.97207 1.52367   1
   2   5   0 396.133 5.01710   1
   3   5   0 781.266 5.48430   1
   4   5   0 3.58152 1.12798   1
   5   5   0 84.3642 1.96341   1
   6  -1   3 93.4219 3.61828  -2
   6   5   0 93.4219 3.61828   1
   7   5   0 -1.7165 2.54252   1
   8   0   4 32.6197 8.85188  -2
   8   5   0 32.6197 8.85188   1
  -5   6   0 -1.7155 2.62525   1
  -4   6   0 44.1266 2.69031   1
  -3   6   0 25.4334 1.78660   1
  -2   6   0 0.17411 1.14101   1
  -1   6   0 0.26416 1.09980   1
   0   6   0 100.664 2.92168  -2
   0   6   0 100.664 2.92168   1
   1   6   0 37.0076 2.25356   1
   2   6   0 9.35525 1.99137   1
   3   6   0 291.421 4.16424   1
   4   6   0 10.8461 1.38178   1
   5   6   0 1.74506 1.51113   1
   6  -2   3 75.1380 4.57197  -2
   6   6   0 75.1380 4.57197   1
   7   6   0 54.4696 3.34100   1
   8   6   0 7.87847 4.93232   1
  -5   7   0 29.8360 5.45066   1
  -4   7   0 0.04539 2.43263   1
  -3   7   0 145.452 3.66886   1
  -2   7   0 57.9062 2.41964   1
  -1   7   0 3.40217 2.12045   1
   0   7   0 15.9048 2.34995  -2
   0   7   0 15.9048 2.34995   1
   1   7   0 23.8785 1.77561   1
   2   7   0 161.145 4.18324   1
   3   7   0 6.17921 2.59800   1
   4   7   0 5.75377 1.66602   1
   5   7   0 162.780 4.06792   1
   6  -3   3 60.8056 4.68583  -2
   6   7   0 60.8056 4.68583   1
   7   7   0 2.52210 2.94546   1
  -4   8   0 4.03566 3.80974   1
  -3   8   0 74.2631 3.03581   1
   2   9   1 21.2150 13.0201  -2
  -2   8   0 21.2150 13.0201   1
  -1   8   0 7.50818 2.14015   1
   0   8   0 27.5008 3.30273  -2
   0   8   0 27.5008 3.30273   1
   1   8   0 4.79230 2.18418   1
   2   8   0 85.0572 3.55789   1
   3   8   0 39.1766 3.34955   1
   4   8   0 54.0934 3.36029   1
   5   8   0 108.989 4.41679   1
   6  -4   3 7.52014 6.86853  -2
   6   8   0 7.52014 6.86853   1
   7   8   0 46.0913 4.21186   1
   2  10   1 -14.662 16.3704  -2
  -2   9   0 -14.662 16.3704   1
  -1   9   0 2.06617 2.32133   1
   0   9   0 49.5984 4.41330  -2
   0   9   0 49.5984 4.41330   1
   1   9   0 3.80772 2.56145   1
   2  -8   1 72.9432 17.9042  -2
   2   9   0 72.9432 17.9042   1
   3   9   0 49.8097 3.90724   1
   4   9   0 121.847 5.58778   1
   5   9   0 95.2557 4.56039   1
   6  -5   3 58.6518 7.72588  -2
   6   9   0 58.6518 7.72588   1
  -1  10   0 31.2271 3.70406   1
   0  10   0 7.53820 5.27747  -2
   0  10   0 7.53820 5.27747   1
   1  10   0 5.32004 3.55064   1
   2  -9   1 95.5934 14.6129  -2
   2  10   0 95.5934 14.6129   1
   3  10   0 -2.8989 3.69915   1
   4  10   0 29.0932 4.70172   1
   5  10   0 22.8972 6.06871   1
  -4 -10   1 -4.0595 4.32778   1
  -3 -10   1 99.5390 5.65812   1
  -2 -10   1 38.5647 4.58167   1
  -1 -10   1 37.3262 4.00519   1
   0 -10   1 82.1231 5.77203  -2
   0 -10   1 82.1231 5.77203   1
   1 -10   1 8.98276 4.03228   1
  -5  -9   1 6.07790 3.61543   1
  -4  -9   1 7.51693 3.49695   1
  -3  -9   1 47.7417 4.04793   1
   2  -8   2 114.415 18.9208  -2
  -2  -9   1 114.415 18.9208   1
  -1  -9   1 38.7054 3.31508   1
   0  -9   1 158.154 5.01287  -2
   0  -9   1 158.154 5.01287   1
   1  -9   1 13.6467 2.51097   1
   2  -9   1 0.03581 2.42489   1
   6  -4   4 1.46622 6.60574  -2
  -6  -8   1 1.46622 6.60574   1
  -5  -8   1 58.4211 3.89900   1
  -4  -8   1 60.1331 2.99446   1
  -3  -8   1 26.2150 3.76447   1
  -2  -8   1 10.6549 2.20922   1
  -1  -8   1 85.6622 3.01461   1
   0  -8   1 15.9201 3.31279  -2
   0  -8   1 15.9201 3.31279   1
   1  -8   1 159.916 4.45825   1
   2   9   0 65.7597 13.5061  -2
   2  -8   1 65.7597 13.5061   1
   3  -8   1 37.7607 2.98285   1
   4  -8   1 2.09254 4.72378   1
  -7  -7   1 52.9101 3.66114   1
   6  -3   4 13.3992 4.72780  -2
  -6  -7   1 13.3992 4.72780   1
  -5  -7   1 7.80849 2.46750   1
  -4  -7   1 106.189 3.37932   1
  -3  -7   1 36.4343 2.13227   1
  -2  -7   1 271.511 4.36308   1
  -1  -7   1 29.2011 1.96766   1
   0  -7   1 81.4654 3.23526  -2
   0  -7   1 81.4654 3.23526   1
   1  -7   1 19.0969 2.28014   1
   2   8   0 123.309 12.4949  -2
   2  -7   1 123.309 12.4949   1
   3  -7   1 52.3568 2.46229   1
   4  -7   1 37.1359 2.87377   1
   5  -7   1 -7.7278 5.62709   1
  -7  -6   1 5.00856 2.85905   1
   6  -2   4 4.90042 4.54420  -2
  -6  -6   1 4.90042 4.54420   1
  -5  -6   1 235.817 4.60764   1
  -4  -6   1 32.3204 1.56686   1
  -3  -6   1 142.125 3.38208   1
  -2  -6   1 55.2723 2.81559   1
  -1  -6   1 -0.4177 1.46715   1
   0  -6   1 334.890 3.99749  -2
   0  -6   1 334.890 3.99749   1
   1  -6   1 578.654 5.75394   1
   2  -6   1 43.7699 1.47516   1
   3  -6   1 105.121 2.66936   1
   4  -6   1 23.9143 2.46240   1
   5  -6   1 18.4382 2.89661   1
  -8  -5   1 16.0658 5.41305   1
  -7  -5   1 21.4409 2.95746   1
   6  -1   4 167.744 5.01496  -2
  -6  -5   1 167.744 5.01496   1
  -5  -5   1 109.403 2.22873   1
  -4  -5   1 29.0609 1.45925   1
  -3  -5   1 4.47267 1.12024   1
  -2  -5   1 13.1634 1.38636   1
  -1  -5   1 1.65338 1.27392   1
   0  -5   1 633.615 5.13806  -2
   0  -5   1 633.615 5.13806   1
   1  -5   1 9.88923 1.15100   1
   2   6   0 30.1010 8.57011  -2
   2  -5   1 30.1010 8.57011   1
   3  -5   1 218.248 2.45949   1
   4  -5   1 30.0221 2.25416   1
   5  -5   1 11.5639 2.46863   1
   6   9   2 19.7595 5.03944  -2
   6  -5   1 19.7595 5.03944   1
   8   1   5 23.5513 7.31842  -2
  -8  -4   1 23.5513 7.31842   1
  -7  -4   1 151.638 4.45686   1
   6   0   4 98.3818 4.17301  -2
  -6  -4   1 98.3818 4.17301   1
  -5  -4   1 79.7796 1.91274   1
  -4  -4   1 7.76372 1.16042   1
  -3  -4   1 -1.2490 1.02441   1
  -2  -4   1 33.2565 1.26717   1
  -1  -4   1 1.21998 0.93562   1
   0  -4   1 855.046 5.08822  -2
   0  -4   1 855.046 5.08822   1
   1  -4   1 279.988 2.32458   1
   2  -4   1 2388.59 11.9715   1
   3  -4   1 193.076 2.12730   1
   4  -4   1 35.1319 1.64544   1
   5  -4   1 2.00434 1.64236   1
   6   8   2 114.221 4.84542  -2
   6  -4   1 114.221 4.84542   1
   8   2   5 33.3263 6.84470  -2
  -8  -3   1 33.3263 6.84470   1
  -7  -3   1 83.9949 3.70705   1
   6   1   4 12.0549 4.05383  -2
  -6  -3   1 12.0549 4.05383   1
  -5  -3   1 97.0436 1.84426   1
  -4  -3   1 90.8573 1.79399   1
  -3  -3   1 24.9973 1.02611   1
  -2  -3   1 182.894 1.97820   1
  -1  -3   1 878.733 5.43617   1
   0  -3   1 38.9926 1.09277  -2
   0  -3   1 38.9926 1.09277   1
   1  -3   1 25.2298 0.83937   1
   2  -3   1 114.084 1.32871   1
   3  -3   1 262.245 2.30743   1
   4  -3   1 109.920 1.55388   1
   5  -3   1 18.3019 1.25165   1
   6   7   2 15.2910 3.26142  -2
   6  -3   1 15.2910 3.26142   1
   7  -3   1 1.45312 4.46052   1
   8   3   5 241.417 16.8345  -2
  -8  -2   1 241.417 16.8345   1
  -7  -2   1 56.5077 3.37585   1
   6   2   4 692.103 7.73174  -2
  -6  -2   1 692.103 7.73174   1
  -5  -2   1 36.6756 1.57255   1
  -4  -2   1 374.450 2.58216   1
  -3  -2   1 735.860 4.00304   1
  -2  -2   1 123.599 1.56116   1
  -1  -2   1 9.48570 0.98614   1
   0  -2   1 261.401 1.88590  -2
   0  -2   1 261.401 1.88590   1
   1  -2   1 8475.82 38.4045   1
   2  -2   1 2.69886 0.50412   1
   3  -2   1 157.813 1.48886   1
   4  -2   1 27.2106 1.04201   1
   5  -2   1 83.4722 1.55996   1
   6   6   2 12.8783 5.81506  -2
   6  -2   1 12.8783 5.81506   1
   7  -2   1 -3.2294 3.47301   1
   8   4   5 113.784 23.9678  -2
  -8  -1   1 113.784 23.9678   1
  -7  -1   1 276.380 5.32388   1
   6   3   4 92.9559 3.59540  -2
  -6  -1   1 92.9559 3.59540   1
  -5  -1   1 31.0908 1.10289   1
  -4  -1   1 36.9217 1.10753   1
  -3  -1   1 1.55419 0.64640   1
  -2  -1   1 248.685 1.80108   1
  -1  -1   1 717.158 4.00723   1
   0  -1   1 666.986 3.78007  -2
   0  -1   1 666.986 3.78007   1
   1  -1   1 134.907 1.06060   1
   2  -1   1 1327.76 5.45889   1
   3  -1   1 26.2485 0.86633   1
   4  -1   1 86.5594 3.00837   1
   5  -1   1 17.3061 2.41894   1
   6   5   2 253.109 9.22772  -2
   6  -1   1 253.109 9.22772   1
   6   5   3 298.864 13.9282  -2
   6   5   2 298.864 13.9282  -2
  -6   1   0 298.864 13.9282   1
   6  -1   1 298.864 13.9282   1
   7  -1   1 33.3691 5.82315   1
   8   6   3 127.960 17.1242  -2
   8  -1   1 127.960 17.1242   1
   8   5   5 56.1531 12.5348  -2
  -8   0   1 56.1531 12.5348   1
  -7   0   1 78.8434 2.91366   1
   6   4   4 120.842 3.74491  -2
  -6   0   1 120.842 3.74491   1
  -5   0   1 6.41802 1.26248   1
  -4   0   1 30.3208 0.92338   1
  -3   0   1 820.920 4.27780   1
  -2   0   1 1032.96 4.52901   1
  -1   0   1 2421.65 11.2470   1
   0   0   1 19.4736 0.53698  -2
   0   0   1 19.4736 0.53698   1
   1   0   1 1097.49 5.11340   1
   2   0   1 597.100 3.21820   1
   3   0   1 940.532 4.89500   1
   4   0   1 52.8799 2.56018   1
   5   0   1 167.265 4.92543   1
   6   4   2 58.5768 10.8170  -2
   6   0   1 58.5768 10.8170   1
   7   0   1 2.08386 3.64904   1
   8   5   3 67.3561 12.3249  -2
   8   0   1 67.3561 12.3249   1
  -7   1   1 -8.0753 3.45717   1
   6   5   4 72.6681 3.87236  -2
  -6   1   1 72.6681 3.87236   1
  -5   1   1 24.7870 1.24194   1
  -4   1   1 48.3105 1.14115   1
  -3   1   1 27.9155 0.83702   1
  -2   1   1 58.4678 0.91858   1
  -1   1   1 11.5645 0.59918   1
   0   1   1 16.2871 0.89551  -2
   0   1   1 16.2871 0.89551   1
   1   1   1 438.474 2.43213   1
   2   1   1 67.1353 1.01340   1
   3   1   1 130.085 1.28253   1
   4   1   1 186.709 1.99741   1
   5   1   1 62.2736 1.39217   1
   6   3   2 10.1863 3.20294  -2
   6   1   1 10.1863 3.20294   1
   7   1   1 249.117 7.69630   1
   8   4   3 215.226 23.4117  -2
   8   1   1 215.226 23.4117   1
  -7   2   1 27.3456 4.15477   1
   6   6   4 132.982 4.65903  -2
  -6   2   1 132.982 4.65903   1
  -5   2   1 5.25207 1.19555   1
  -4   2   1 19.6185 0.93509   1
  -3   2   1 215.231 2.00313   1
  -2   2   1 22.7385 0.72613   1
  -1   2   1 14.2561 0.69753   1
   0   2   1 9999.99 49.8815  -2
   0   2   1 9999.99 49.8815   1
   1   2   1 93.6882 1.18546   1
   2   2   1 1460.56 7.22244   1
   3   2   1 10.9129 0.75103   1
   4   2   1 262.594 2.18861   1
   5   2   1 5.09034 0.83572   1
   6   2   2 201.067 3.05155  -2
   6   2   1 201.067 3.05155   1
   7   2   1 18.5315 2.05156   1
   8   3   3 71.4070 24.6135  -2
   8   2   1 71.4070 24.6135   1
  -7   3   1 324.291 8.42315   1
   6   7   4 85.7329 4.99595  -2
  -6   3   1 85.7329 4.99595   1
  -5   3   1 188.267 3.46633   1
  -4   3   1 65.8441 1.88265   1
  -3   3   1 69.1189 1.39036   1
  -2   3   1 6.35143 0.75721   1
  -1   3   1 8.24069 0.84142   1
   0   3   1 2202.68 11.5995  -2
   0   3   1 2202.68 11.5995   1
   1   3   1 -0.1449 0.86617   1
   2   3   1 124.367 1.51656   1
   3   3   1 953.915 5.19253   1
   4   3   1 249.005 2.08613   1
   5   3   1 140.348 2.44808   1
   6   1   2 127.798 2.76286  -2
   6   3   1 127.798 2.76286   1
   7   3   1 45.6188 2.73156   1
   8   2   3 28.2915 14.0994  -2
   8   3   1 28.2915 14.0994   1
   6   8   4 9.46792 4.73403  -2
  -6   4   1 9.46792 4.73403   1
  -5   4   1 41.1929 2.25466   1
  -4   4   1 47.0526 1.61886   1
  -3   4   1 77.2474 1.59646   1
  -2   4   1 23.2014 1.04999   1
  -1   4   1 113.154 1.71800   1
   0   4   1 804.680 4.84658  -2
   0   4   1 804.680 4.84658   1
   1   4   1 488.226 3.43663   1
   2   4   1 34.9763 1.07750   1
   3   4   1 145.086 1.92262   1
   4   4   1 189.987 2.34008   1
   5   4   1 23.6388 1.25291   1
   6   0   2 436.765 6.25164  -2
   6   4   1 436.765 6.25164   1
   7   4   1 108.818 3.41439   1
   8   1   3 70.4462 7.71852  -2
   8   4   1 70.4462 7.71852   1
   6   9   4 147.417 6.13633  -2
  -6   5   1 147.417 6.13633   1
  -5   5   1 21.6485 2.64268   1
  -4   5   1 42.9714 2.37464   1
  -3   5   1 31.6370 1.36407   1
  -2   5   1 3.02365 1.07197   1
  -1   5   1 195.674 2.43506   1
   0   5   1 242.700 2.83093  -2
   0   5   1 242.700 2.83093   1
   1   5   1 142.662 1.94709   1
   2   5   1 5.96692 1.17898   1
   3   5   1 67.4110 1.57112   1
   4   5   1 373.068 3.50862   1
   5   5   1 4.20728 1.30279   1
   6  -1   2 197.354 4.02226  -2
   6   5   1 197.354 4.02226   1
   7   5   1 132.492 4.05568   1
   8   0   3 -10.326 7.57303  -2
   8   5   1 -10.326 7.57303   1
  -5   6   1 84.4333 4.32296   1
  -4   6   1 3.49429 2.21125   1
  -3   6   1 27.3980 1.81195   1
   2   7   2 30.4955 10.3714  -2
  -2   6   1 30.4955 10.3714   1
  -1   6   1 126.811 2.27122   1
   0   6   1 139.679 2.78935  -2
   0   6   1 139.679 2.78935   1
   1   6   1 116.128 2.46888   1
   2   6   1 11.7832 1.96009   1
   3   6   1 27.9202 1.60623   1
   4   6   1 6.76077 1.43899   1
   5   6   1 72.8416 2.24586   1
   6  -2   2 139.351 4.52063  -2
   6   6   1 139.351 4.52063   1
   7   6   1 21.5863 2.95459   1
   8  -1   3 18.3190 9.74088  -2
   8   6   1 18.3190 9.74088   1
  -4   7   1 134.698 4.70648   1
  -3   7   1 131.642 3.40721   1
   2   8   2 27.1798 12.3551  -2
  -2   7   1 27.1798 12.3551   1
  -1   7   1 -1.4019 1.21305   1
   0   7   1 13.1099 2.26436  -2
   0   7   1 13.1099 2.26436   1
   1   7   1 1.32123 1.32576   1
   2   7   1 30.0212 2.48593   1
   3   7   1 190.000 4.67208   1
   4   7   1 6.70288 1.72254   1
   5   7   1 82.2640 2.93655   1
   6  -3   2 66.1939 4.26980  -2
   6   7   1 66.1939 4.26980   1
   7   7   1 23.0667 3.65071   1
  -4   8   1 11.6566 8.72643   1
  -3   8   1 -4.9230 2.44362   1
   2   9   2 27.9354 14.8043  -2
  -2   8   1 27.9354 14.8043   1
  -1   8   1 9.53284 2.09893   1
   0   8   1 -0.0236 3.57303  -2
   0   8   1 -0.0236 3.57303   1
   1   8   1 63.2587 3.00657   1
   2   8   1 12.2915 2.62760   1
   3   8   1 16.4875 3.07484   1
   4   8   1 0.55008 2.91664   1
   5   8   1 313.076 6.19840   1
   6  -4   2 2.47264 6.68385  -2
   6   8   1 2.47264 6.68385   1
   7   8   1 43.8988 4.11975   1
   2  10   2 52.0239 17.1321  -2
  -2   9   1 52.0239 17.1321   1
  -1   9   1 3.85429 2.45170   1
   0   9   1 18.6745 4.38952  -2
   0   9   1 18.6745 4.38952   1
   1   9   1 5.17665 2.70648   1
   2   9   1 -1.4379 2.83684   1
   3   9   1 184.043 5.91558   1
   4   9   1 3.73699 3.45452   1
   5   9   1 -1.4765 3.48224   1
   6  -5   2 39.3625 7.56138  -2
   6   9   1 39.3625 7.56138   1
  -1  10   1 2.31410 3.24119   1
   0  10   1 20.8424 4.84867  -2
   0  10   1 20.8424 4.84867   1
   1  10   1 19.5108 3.26728   1
  -2   9   0 -5.6463 13.5341  -2
   2  10   1 -5.6463 13.5341   1
   3  10   1 6.25852 3.67972   1
   4  10   1 -0.3832 3.73893   1
   5  10   1 3.34447 3.86098   1
  -4 -10   2 -12.761 5.81035   1
  -3 -10   2 8.54227 5.07643   1
   2  -9   3 30.0277 19.5373  -2
  -2 -10   2 30.0277 19.5373   1
  -1 -10   2 6.15972 3.70070   1
   0 -10   2 2.16021 5.93481  -2
   0 -10   2 2.16021 5.93481   1
  -5  -9   2 -0.4488 3.64132   1
  -4  -9   2 3.08521 3.41834   1
  -3  -9   2 120.622 5.57382   1
   2  -8   3 8.41262 17.8116  -2
  -2  -9   2 8.41262 17.8116   1
  -1  -9   2 105.184 4.17545   1
   0  -9   2 65.4934 5.68930  -2
   0  -9   2 65.4934 5.68930   1
   1  -9   2 -0.0966 2.65365   1
   2  -9   2 33.2712 2.87663   1
   6  -4   5 61.8531 7.20699  -2
  -6  -8   2 61.8531 7.20699   1
  -5  -8   2 128.014 4.36260   1
  -4  -8   2 2.72055 3.14263   1
  -3  -8   2 30.0813 3.97152   1
  -2  -8   2 40.4156 3.96518   1
  -1  -8   2 1.73330 2.04901   1
   0  -8   2 193.122 4.56159  -2
   0  -8   2 193.122 4.56159   1
   1  -8   2 5.84528 2.44904   1
   2  -8   2 232.389 4.57469   1
   3  -8   2 25.8929 2.94143   1
  -7  -7   2 6.28026 3.64780   1
   6  -3   5 93.5649 5.39512  -2
  -6  -7   2 93.5649 5.39512   1
  -5  -7   2 34.6926 2.95589   1
  -4  -7   2 -1.4701 2.80099   1
  -3  -7   2 229.104 4.47936   1
  -2  -7   2 2.80464 2.98238   1
  -1  -7   2 2.17955 1.78603   1
   0  -7   2 76.8749 2.97590  -2
   0  -7   2 76.8749 2.97590   1
   1  -7   2 44.2096 2.60835   1
   2  -7   2 3.23444 1.81782   1
   3  -7   2 159.725 3.85323   1
   4  -7   2 43.3530 2.99824   1
  -7  -6   2 23.0262 3.33783   1
   6  -2   5 79.1041 5.02479  -2
  -6  -6   2 79.1041 5.02479   1
  -5  -6   2 213.039 4.74856   1
  -4  -6   2 44.5180 2.68955   1
  -3  -6   2 74.2227 2.48139   1
  -2  -6   2 226.590 3.80863   1
  -1  -6   2 241.161 3.47825   1
   0  -6   2 60.5431 2.57367  -2
   0  -6   2 60.5431 2.57367   1
   1  -6   2 139.260 3.15113   1
   2  -6   2 55.4328 1.74884   1
   3  -6   2 918.704 7.43363   1
   4  -6   2 7.37092 2.26472   1
   5  -6   2 4.95586 2.77229   1
  -7  -5   2 49.2589 3.38268   1
   6  -1   5 147.565 5.85074  -2
  -6  -5   2 147.565 5.85074   1
  -5  -5   2 238.233 3.89533   1
  -4  -5   2 36.7170 2.31383   1
  -3  -5   2 80.4116 2.47722   1
  -2  -5   2 66.6450 2.98570   1
  -1  -5   2 27.7898 1.41814   1
   0  -5   2 4.92728 2.00575  -2
   0  -5   2 4.92728 2.00575   1
   1  -5   2 80.8498 2.01433   1
   2  -5   2 33.3270 1.34037   1
   3  -5   2 24.8483 1.15993   1
   4  -5   2 326.033 4.88155   1
   5  -5   2 31.7840 2.78804   1
   6   9   1 17.5523 4.98769  -2
   6  -5   2 17.5523 4.98769   1
  -7  -4   2 0.48079 2.68591   1
   6   0   5 57.7924 3.56934  -2
  -6  -4   2 57.7924 3.56934   1
  -5  -4   2 22.0176 1.70884   1
  -4  -4   2 4.32033 1.37048   1
  -3  -4   2 770.284 6.36389   1
  -2  -4   2 224.565 3.00177   1
  -1  -4   2 125.515 2.30488   1
   0  -4   2 8.06457 1.34305  -2
   0  -4   2 8.06457 1.34305   1
   1  -4   2 1571.25 8.58167   1
   2  -4   2 1493.92 7.94218   1
   3  -4   2 229.677 2.19408   1
   4  -4   2 66.8408 2.00317   1
   5  -4   2 63.8924 2.33436   1
   6   8   1 8.10571 4.17557  -2
   6  -4   2 8.10571 4.17557   1
   8   2   6 1.33701 8.34649  -2
  -8  -3   2 1.33701 8.34649   1
  -7  -3   2 37.1090 3.27499   1
   6   1   5 905.628 10.4506  -2
  -6  -3   2 905.628 10.4506   1
  -5  -3   2 18.0048 1.32939   1
  -4  -3   2 153.917 2.59806   1
  -3  -3   2 112.289 2.24716   1
  -2  -3   2 26.8576 1.27252   1
  -1  -3   2 24.4157 1.29283   1
   0  -3   2 1685.33 8.89488  -2
   0  -3   2 1685.33 8.89488   1
   1  -3   2 167.215 1.71521   1
   2  -3   2 135.412 1.43344   1
   3  -3   2 39.2828 1.05509   1
   4  -3   2 2.40820 0.78456   1
   5  -3   2 61.5401 1.83651   1
   6   7   1 95.7929 3.31259  -2
   6  -3   2 95.7929 3.31259   1
   7  -3   2 14.2175 5.29699   1
   8   3   6 48.9486 7.44201  -2
  -8  -2   2 48.9486 7.44201   1
  -7  -2   2 59.4122 3.80297   1
   6   2   5 23.0493 4.27444  -2
  -6  -2   2 23.0493 4.27444   1
  -5  -2   2 24.6127 1.45343   1
  -4  -2   2 -0.7200 0.95583   1
  -3  -2   2 4.22999 0.97469   1
  -2  -2   2 428.921 3.11408   1
  -1  -2   2 313.088 3.03708   1
   0  -2   2 1433.07 7.83846  -2
   0  -2   2 1433.07 7.83846   1
   1  -2   2 1807.59 8.35749   1
   2  -2   2 1418.06 6.17096   1
   3  -2   2 977.761 5.11828   1
   4  -2   2 65.4068 1.47457   1
   5  -2   2 56.1605 1.37725   1
   6   6   1 131.789 6.39678  -2
   6  -2   2 131.789 6.39678   1
   7  -2   2 4.87560 3.96360   1
  -7  -1   2 296.188 5.87109   1
   6   3   5 53.8771 3.65666  -2
  -6  -1   2 53.8771 3.65666   1
  -5  -1   2 755.611 5.87315   1
  -4  -1   2 33.5245 1.02627   1
  -3  -1   2 468.994 2.86152   1
  -2  -1   2 194.948 2.03924   1
  -1  -1   2 7.82521 0.93152   1
   0  -1   2 93.9678 1.84314  -2
   0  -1   2 93.9678 1.84314   1
   1  -1   2 0.55478 0.62246   1
   2  -1   2 185.865 1.60088   1
   3  -1   2 238.046 1.72792   1
   4  -1   2 71.1094 1.40761   1
   5  -1   2 353.440 6.81291   1
   6   5   1 372.591 10.9113  -2
   6  -1   2 372.591 10.9113   1
   7  -1   2 31.7931 4.99316   1
   8   6   2 72.7637 12.2374  -2
   8  -1   2 72.7637 12.2374   1
  -7   0   2 6.44035 2.33835   1
   6   4   5 295.099 5.37925  -2
  -6   0   2 295.099 5.37925   1
  -5   0   2 17.5471 1.60299   1
  -4   0   2 222.012 2.38701   1
  -3   0   2 0.85166 0.71057   1
  -2   0   2 428.999 2.53439   1
  -1   0   2 462.100 2.90702   1
   0   0   2 2154.64 12.5286  -2
   0   0   2 2154.64 12.5286   1
   1   0   2 481.760 2.93928   1
   2   0   2 964.919 4.57974   1
   3   0   2 52.8828 1.03431   1
   4   0   2 11.1604 1.90068   1
   5   0   2 9.95968 2.85974   1
   6   4   1 288.875 8.64419  -2
   6   0   2 288.875 8.64419   1
   7   0   2 7.44981 4.22694   1
   8   5   2 14.7255 9.82859  -2
   8   0   2 14.7255 9.82859   1
  -7   1   2 0.82591 2.30104   1
   6   5   5 436.313 5.98833  -2
  -6   1   2 436.313 5.98833   1
  -5   1   2 2.04910 1.15013   1
  -4   1   2 113.352 1.75821   1
  -3   1   2 95.8043 1.24322   1
  -2   1   2 147.171 1.53512   1
  -1   1   2 43.5036 0.91735   1
   0   1   2 16.2539 1.20718  -2
   0   1   2 16.2539 1.20718   1
   1   1   2 1436.36 6.95719   1
   2   1   2 190.963 1.45730   1
   3   1   2 463.073 2.38551   1
   4   1   2 250.063 2.33239   1
   5   1   2 354.762 4.37257   1
   6   3   1 52.0171 2.80415  -2
   6   1   2 52.0171 2.80415   1
   7   1   2 4.85309 4.74886   1
   8   4   2 257.609 17.4922  -2
   8   1   2 257.609 17.4922   1
  -7   2   2 32.3894 2.87797   1
   6   6   5 24.9460 4.34127  -2
  -6   2   2 24.9460 4.34127   1
  -5   2   2 1.28009 1.16555   1
  -4   2   2 18.5692 1.18714   1
  -3   2   2 811.447 4.31623   1
  -2   2   2 106.803 1.40719   1
  -1   2   2 296.922 2.18796   1
   0   2   2 6344.88 35.7080  -2
   0   2   2 6344.88 35.7080   1
   1   2   2 1897.72 9.64436   1
   2   2   2 38.9776 0.88398   1
   3   2   2 497.012 2.99742   1
   4   2   2 83.7598 1.35056   1
   5   2   2 121.074 1.96771   1
   6   2   1 172.774 3.18118  -2
   6   2   2 172.774 3.18118   1
   7   2   2 6.29926 3.77910   1
   8   3   2 47.5568 14.7357  -2
   8   2   2 47.5568 14.7357   1
  -7   3   2 21.6540 4.37113   1
   6   7   5 64.4642 5.59780  -2
  -6   3   2 64.4642 5.59780   1
  -5   3   2 -2.0347 1.72570   1
  -4   3   2 18.1609 1.38096   1
  -3   3   2 73.2061 1.46195   1
  -2   3   2 852.578 4.36760   1
  -1   3   2 45.8247 1.21002   1
   0   3   2 486.984 3.37399  -2
   0   3   2 486.984 3.37399   1
   1   3   2 182.101 2.10547   1
   2   3   2 100.750 1.50998   1
   3   3   2 8.86874 0.80260   1
   4   3   2 19.3192 0.90453   1
   5   3   2 29.3506 1.24177   1
   6   1   1 4.47052 1.48834  -2
   6   3   2 4.47052 1.48834   1
   7   3   2 261.228 5.28210   1
   8   2   2 160.167 14.9308  -2
   8   3   2 160.167 14.9308   1
   6   8   5 49.4949 5.55179  -2
  -6   4   2 49.4949 5.55179   1
  -5   4   2 41.3069 2.57315   1
  -4   4   2 81.7993 2.24468   1
  -3   4   2 32.9233 1.24513   1
  -2   4   2 26.3410 1.20512   1
  -1   4   2 142.979 1.93571   1
   0   4   2 616.338 4.41804  -2
   0   4   2 616.338 4.41804   1
   1   4   2 36.1792 1.33731   1
   2   4   2 163.734 2.04649   1
   3   4   2 34.9216 1.33085   1
   4   4   2 3.12336 1.00870   1
   5   4   2 11.5768 1.14495   1
   6   0   1 187.104 4.68748  -2
   6   4   2 187.104 4.68748   1
   7   4   2 107.087 3.80759   1
   8   1   2 118.357 7.43191  -2
   8   4   2 118.357 7.43191   1
   6   9   5 39.6325 5.78612  -2
  -6   5   2 39.6325 5.78612   1
  -5   5   2 13.6294 2.51619   1
  -4   5   2 4.15547 2.15352   1
  -3   5   2 111.613 2.35593   1
  -2   5   2 28.5901 1.37472   1
  -1   5   2 8.97165 1.10982   1
   0   5   2 103.622 2.64288  -2
   0   5   2 103.622 2.64288   1
   1   5   2 81.2370 2.81092   1
   2   5   2 14.2519 1.38775   1
   3   5   2 123.770 2.50247   1
   4   5   2 9.80642 1.35130   1
   5   5   2 10.9987 1.34428   1
   6  -1   1 392.869 5.01205  -2
   6   5   2 392.869 5.01205   1
   7   5   2 10.0340 2.65432   1
   8   0   2 34.6180 7.58774  -2
   8   5   2 34.6180 7.58774   1
  -5   6   2 3.29095 3.26347   1
  -4   6   2 17.9908 2.80669   1
  -3   6   2 28.7881 1.85191   1
  -2   6   2 9.12378 1.42014   1
  -1   6   2 290.181 3.65075   1
   0   6   2 32.0562 2.69141  -2
   0   6   2 32.0562 2.69141   1
   1   6   2 25.7059 2.05635   1
   2   6   2 1.37654 1.45912   1
   3   6   2 232.918 3.75531   1
   4   6   2 5.43235 1.87599   1
   5   6   2 2.20006 1.52655   1
   6  -2   1 6.12506 4.57244  -2
   6   6   2 6.12506 4.57244   1
   7   6   2 6.78013 2.80989   1
   8  -1   2 14.9070 8.11769  -2
   8   6   2 14.9070 8.11769   1
  -4   7   2 14.1189 3.06873   1
  -3   7   2 0.03276 1.94809   1
  -2   7   2 25.6344 2.06416   1
  -1   7   2 6.41963 1.53225   1
   0   7   2 176.027 3.90364  -2
   0   7   2 176.027 3.90364   1
   1   7   2 5.56552 1.45339   1
   2   7   2 0.90736 1.52587   1
   3   7   2 0.08459 1.73600   1
   4   7   2 86.6568 2.96447   1
   5   7   2 22.9441 2.86532   1
   6  -3   1 18.2365 5.11345  -2
   6   7   2 18.2365 5.11345   1
   7   7   2 113.172 4.36554   1
  -3   8   2 1.08553 2.58100   1
   2   9   3 76.4106 14.9366  -2
  -2   8   2 76.4106 14.9366   1
  -1   8   2 16.8703 2.09831   1
   0   8   2 151.246 5.03227  -2
   0   8   2 151.246 5.03227   1
   1   8   2 23.8226 2.62166   1
  -2   7   1 17.8189 15.8710  -2
   2   8   2 17.8189 15.8710   1
   3   8   2 310.365 5.42417   1
   4   8   2 20.9111 3.00257   1
   5   8   2 55.8280 3.21221   1
   6  -4   1 242.793 6.92383  -2
   6   8   2 242.793 6.92383   1
   7   8   2 3.53394 3.53794   1
   2  10   3 16.8846 17.4604  -2
  -2   9   2 16.8846 17.4604   1
  -1   9   2 -0.1015 2.80680   1
   0   9   2 16.5247 4.31378  -2
   0   9   2 16.5247 4.31378   1
   1   9   2 12.1009 3.19729   1
  -2   8   1 -2.5852 11.4969  -2
   2   9   2 -2.5852 11.4969   1
   3   9   2 -1.1946 2.91120   1
   4   9   2 7.08454 3.36896   1
   5   9   2 3.61459 3.27943   1
   6  -5   1 48.1629 7.29912  -2
   6   9   2 48.1629 7.29912   1
  -1  10   2 16.4097 3.45246   1
   0  10   2 38.0981 5.05063  -2
   0  10   2 38.0981 5.05063   1
   1  10   2 33.8836 3.41413   1
  -2   9   1 87.3401 13.9267  -2
   2  10   2 87.3401 13.9267   1
   3  10   2 16.5450 3.53214   1
   4  10   2 27.2829 4.00588   1
   5  10   2 246.362 7.10028   1
   2  11   2 3.05607 9.71561   1
  -2 -10   3 37.6490 6.44068   1
  -1 -10   3 0.13996 5.52167   1
  -5  -9   3 58.9231 7.26705   1
  -4  -9   3 85.4593 5.52506   1
  -3  -9   3 36.2725 4.73860   1
   2  -8   4 33.2604 17.4084  -2
  -2  -9   3 33.2604 17.4084   1
  -1  -9   3 5.23519 3.86955   1
   0  -9   3 50.8091 5.16082  -2
   0  -9   3 50.8091 5.16082   1
   1  -9   3 15.1977 3.27399   1
   2  -9   3 -2.7385 2.72393   1
  -5  -8   3 6.29672 3.49063   1
  -4  -8   3 2.80165 3.19366   1
  -3  -8   3 57.2011 3.66922   1
   2  -7   4 1.59204 22.8348  -2
  -2  -8   3 1.59204 22.8348   1
  -1  -8   3 71.7420 4.38632   1
   0  -8   3 -1.7951 3.95517  -2
   0  -8   3 -1.7951 3.95517   1
   1  -8   3 -0.1771 2.37361   1
   2  -8   3 5.25552 2.33241   1
   3  -8   3 18.1017 2.87276   1
   6  -3   6 41.0141 5.55490  -2
  -6  -7   3 41.0141 5.55490   1
  -5  -7   3 124.774 4.70735   1
  -4  -7   3 182.120 5.36417   1
  -3  -7   3 168.101 4.90150   1
  -2  -7   3 16.3361 3.42969   1
  -1  -7   3 2.73630 3.07482   1
   0  -7   3 146.166 4.32299  -2
   0  -7   3 146.166 4.32299   1
   1  -7   3 6.99366 2.18282   1
   2  -7   3 113.228 3.18268   1
   3  -7   3 10.1202 2.11979   1
   4  -7   3 22.5632 2.82221   1
  -7  -6   3 75.8513 4.00742   1
   6  -2   6 27.3715 5.68871  -2
  -6  -6   3 27.3715 5.68871   1
  -5  -6   3 214.856 5.03147   1
  -4  -6   3 74.8639 3.45520   1
  -3  -6   3 29.2307 2.02222   1
  -2  -6   3 -2.0492 2.83871   1
  -1  -6   3 0.91276 2.63584   1
   0  -6   3 4.32960 3.05691  -2
   0  -6   3 4.32960 3.05691   1
   1  -6   3 81.0554 2.57521   1
   2  -6   3 262.840 3.31644   1
   3  -6   3 56.1557 2.13867   1
   4  -6   3 26.2770 2.54808   1
   5  -6   3 5.05007 2.76522   1
  -7  -5   3 -6.5778 3.30627   1
   6  -1   6 4.94949 5.32749  -2
  -6  -5   3 4.94949 5.32749   1
  -5  -5   3 478.278 5.94428   1
  -4  -5   3 4.71437 1.92130   1
  -3  -5   3 -0.6548 1.88325   1
  -2  -5   3 2.50605 1.75868   1
  -1  -5   3 44.6453 2.90884   1
   0  -5   3 91.6864 2.45704  -2
   0  -5   3 91.6864 2.45704   1
   1  -5   3 135.099 2.22405   1
   2  -5   3 3.53735 1.05821   1
   3  -5   3 431.794 3.69072   1
   4  -5   3 5.27183 2.04112   1
   5  -5   3 41.8268 2.98710   1
   6   9   0 56.4869 7.33131  -2
   6  -5   3 56.4869 7.33131   1
  -7  -4   3 1.21187 3.16173   1
   6   0   6 74.5783 4.32087  -2
  -6  -4   3 74.5783 4.32087   1
  -5  -4   3 240.932 3.59462   1
  -4  -4   3 38.1371 2.32949   1
  -3  -4   3 163.364 3.44352   1
  -2  -4   3 209.823 3.58624   1
  -1  -4   3 0.18666 1.65279   1
   0  -4   3 428.477 3.70426  -2
   0  -4   3 428.477 3.70426   1
   1  -4   3 7.94963 1.00564   1
   2  -4   3 2.76151 0.93524   1
   3  -4   3 148.078 1.93543   1
   4  -4   3 3.30490 1.38634   1
   5  -4   3 9.68780 1.93844   1
   6   8   0 33.8726 4.77988  -2
   6  -4   3 33.8726 4.77988   1
  -7  -3   3 14.5228 3.16585   1
   6   1   6 469.346 7.57904  -2
  -6  -3   3 469.346 7.57904   1
  -5  -3   3 46.9557 1.74977   1
  -4  -3   3 343.928 3.56962   1
  -3  -3   3 264.926 3.06390   1
  -2  -3   3 288.582 3.28536   1
  -1  -3   3 297.751 2.76759   1
   0  -3   3 498.335 3.71278  -2
   0  -3   3 498.335 3.71278   1
   1  -3   3 0.33336 0.81851   1
   2  -3   3 0.31422 0.73164   1
   3  -3   3 623.527 4.28374   1
   4  -3   3 315.062 3.08739   1
   5  -3   3 4.59813 1.64534   1
   6   7   0 54.1105 3.82153  -2
   6  -3   3 54.1105 3.82153   1
   7  -3   3 51.8351 4.78667   1
  -7  -2   3 23.4782 3.25052   1
   6   2   6 99.8875 5.15675  -2
  -6  -2   3 99.8875 5.15675   1
  -5  -2   3 7.74677 1.28403   1
  -4  -2   3 4.18082 1.15885   1
  -3  -2   3 867.950 6.08899   1
  -2  -2   3 2.35565 0.91865   1
  -1  -2   3 386.942 3.80807   1
   0  -2   3 2.88930 1.53454  -2
   0  -2   3 2.88930 1.53454   1
   1  -2   3 1359.19 7.02185   1
   2  -2   3 5.82026 0.71983   1
   3  -2   3 19.3357 0.92337   1
   4  -2   3 26.1571 0.88464   1
   5  -2   3 209.102 2.48023   1
   6   6   0 31.7672 8.54259  -2
   6  -2   3 31.7672 8.54259   1
   7  -2   3 113.467 6.00768   1
  -7  -1   3 64.1266 3.59770   1
   6   3   6 133.092 4.53814  -2
  -6  -1   3 133.092 4.53814   1
  -5  -1   3 173.882 3.07576   1
  -4  -1   3 339.376 3.02118   1
  -3  -1   3 -0.5441 0.97233   1
  -2  -1   3 272.506 2.60057   1
  -1  -1   3 740.447 5.08001   1
   0  -1   3 10.0440 1.43678  -2
   0  -1   3 10.0440 1.43678   1
   1  -1   3 4.77209 0.72585   1
   2  -1   3 658.433 3.40685   1
   3  -1   3 59.2445 1.23031   1
   4  -1   3 150.651 2.20221   1
   5  -1   3 16.3589 1.54982   1
   6   5   0 10.1167 7.28642  -2
   6  -1   3 10.1167 7.28642   1
   7  -1   3 0.29986 4.01324   1
   8   6   1 5.18776 11.9471  -2
   8  -1   3 5.18776 11.9471   1
  -7   0   3 1.95882 2.63422   1
   6   4   6 498.751 7.33333  -2
  -6   0   3 498.751 7.33333   1
  -5   0   3 14.6248 1.61698   1
  -4   0   3 16.5602 1.04235   1
  -3   0   3 31.6412 1.01273   1
  -2   0   3 636.852 4.13567   1
  -1   0   3 178.499 2.05669   1
   0   0   3 2351.40 13.6326  -2
   0   0   3 2351.40 13.6326   1
   1   0   3 7.59464 0.96781   1
   2   0   3 17.8755 0.78463   1
   3   0   3 483.670 2.94436   1
   4   0   3 207.376 2.43596   1
   5   0   3 159.385 4.54412   1
   6   4   0 -1.8744 5.07784  -2
   6   0   3 -1.8744 5.07784   1
   7   0   3 -0.6379 4.01063   1
   8   5   1 -37.648 21.1182  -2
   8   0   3 -37.648 21.1182   1
  -7   1   3 8.14164 2.83320   1
   6   5   6 209.510 5.04285  -2
  -6   1   3 209.510 5.04285   1
  -5   1   3 173.041 2.75215   1
  -4   1   3 3.04747 0.84706   1
  -3   1   3 309.416 2.47038   1
  -2   1   3 39.8681 1.05573   1
  -1   1   3 1119.84 5.59654   1
   0   1   3 308.048 2.45646  -2
   0   1   3 308.048 2.45646   1
   1   1   3 453.501 2.81922   1
   2   1   3 403.036 2.29175   1
   3   1   3 26.5100 0.87504   1
   4   1   3 6.39238 0.67790   1
   5   1   3 95.4879 1.58232   1
   6   3   0 250.238 4.14035  -2
   6   1   3 250.238 4.14035   1
   7   1   3 0.52475 4.44553   1
   8   4   1 30.6216 15.4148  -2
   8   1   3 30.6216 15.4148   1
  -7   2   3 56.1356 3.66904   1
   6   6   6 98.7961 5.19986  -2
  -6   2   3 98.7961 5.19986   1
  -5   2   3 18.9107 2.05170   1
  -4   2   3 86.4274 1.80384   1
  -3   2   3 37.3016 1.15620   1
  -2   2   3 576.268 3.38088   1
  -1   2   3 0.69317 0.84849   1
   0   2   3 2798.36 15.7925  -2
   0   2   3 2798.36 15.7925   1
   1   2   3 451.023 3.00159   1
   2   2   3 193.282 1.78438   1
   3   2   3 92.2628 1.34421   1
   4   2   3 15.0337 0.96870   1
   5   2   3 61.6090 1.35840   1
   6   2   0 58.6245 2.09620  -2
   6   2   3 58.6245 2.09620   1
   7   2   3 -0.8248 3.55032   1
   8   3   1 10.0492 15.2162  -2
   8   2   3 10.0492 15.2162   1
   6   7   6 96.4210 6.03404  -2
  -6   3   3 96.4210 6.03404   1
  -5   3   3 5.62983 1.98391   1
  -4   3   3 25.0792 1.30405   1
  -3   3   3 2.67280 0.95342   1
  -2   3   3 6.60762 0.91629   1
  -1   3   3 1.58163 0.83170   1
   0   3   3 3.68497 1.74336  -2
   0   3   3 3.68497 1.74336   1
   1   3   3 113.891 1.65613   1
   2   3   3 6.89617 0.97505   1
   3   3   3 71.5892 1.34131   1
   4   3   3 130.436 1.81351   1
   5   3   3 160.918 2.63651   1
   6   1   0 233.341 2.66115  -2
   6   3   3 233.341 2.66115   1
   7   3   3 23.8141 2.54741   1
   8   2   1 60.5282 25.1724  -2
   8   3   3 60.5282 25.1724   1
   6   8   6 28.1348 6.43630  -2
  -6   4   3 28.1348 6.43630   1
  -5   4   3 53.2374 2.89418   1
  -4   4   3 19.5407 1.42529   1
  -3   4   3 446.685 3.53897   1
  -2   4   3 45.0979 1.77039   1
  -1   4   3 54.5021 1.64806   1
   0   4   3 80.0712 2.27869  -2
   0   4   3 80.0712 2.27869   1
   1   4   3 25.7272 1.05881   1
   2   4   3 13.0113 0.93461   1
   3   4   3 35.8948 1.23590   1
   4   4   3 139.313 2.08410   1
   5   4   3 6.60194 1.36404   1
   6   0   0 157.085 4.05061  -2
   6   4   3 157.085 4.05061   1
   7   4   3 4.76213 2.59959   1
   8   1   1 231.987 7.58154  -2
   8   4   3 231.987 7.58154   1
  -5   5   3 4.63567 2.51866   1
  -4   5   3 60.6868 2.43936   1
  -3   5   3 18.3507 1.60362   1
  -2   5   3 36.0100 1.75962   1
  -1   5   3 13.7549 1.64052   1
   0   5   3 57.2114 2.72039  -2
   0   5   3 57.2114 2.72039   1
   1   5   3 52.8032 2.32834   1
   2   5   3 9.48237 1.51266   1
   3   5   3 24.9283 1.47294   1
   4   5   3 31.5893 1.59695   1
   5   5   3 294.957 3.18655   1
  -6   1   0 23.3404 3.94308  -2
   6   5   3 23.3404 3.94308   1
   7   5   3 10.5384 2.62541   1
   8   0   1 122.304 7.88214  -2
   8   5   3 122.304 7.88214   1
  -5   6   3 15.1405 3.37454   1
  -4   6   3 43.3682 3.04396   1
  -3   6   3 183.856 3.71052   1
  -2   6   3 12.9497 2.02570   1
  -1   6   3 8.28650 1.38771   1
   0   6   3 669.111 6.41927  -2
   0   6   3 669.111 6.41927   1
   1   6   3 4.48362 2.09460   1
   2   6   3 4.18503 1.65166   1
   3   6   3 27.9099 2.02916   1
   4   6   3 250.519 4.15711   1
   5   6   3 63.5021 2.00260   1
  -6   2   0 117.934 5.07453  -2
   6   6   3 117.934 5.07453   1
   7   6   3 434.347 6.90930   1
   8  -1   1 90.3547 8.57145  -2
   8   6   3 90.3547 8.57145   1
  -4   7   3 12.6572 3.19457   1
  -3   7   3 -1.3769 2.40889   1
  -2   7   3 1.63422 2.33530   1
  -1   7   3 21.1638 1.81644   1
   0   7   3 42.0239 2.40389  -2
   0   7   3 42.0239 2.40389   1
   1   7   3 -1.4781 2.00353   1
   2   7   3 164.068 3.38710   1
   3   7   3 45.6976 2.27677   1
   4   7   3 51.3930 2.63182   1
   5   7   3 7.87160 2.16837   1
  -6   3   0 272.280 6.28440  -2
   6   7   3 272.280 6.28440   1
   7   7   3 0.81120 3.04654   1
  -3   8   3 9.63833 2.82118   1
  -2   8   3 2.29781 2.60967   1
  -1   8   3 333.785 7.20314   1
   0   8   3 17.4563 4.30385  -2
   0   8   3 17.4563 4.30385   1
   1   8   3 21.5082 2.62033   1
   2   8   3 -2.4183 1.82169   1
   3   8   3 12.4800 2.11703   1
   4   8   3 104.011 3.39958   1
   5   8   3 5.25218 2.49144   1
  -6   4   0 9.92307 5.22936  -2
   6   8   3 9.92307 5.22936   1
   7   8   3 39.1791 3.80307   1
   2  10   4 27.9152 17.5972  -2
  -2   9   3 27.9152 17.5972   1
  -1   9   3 1.68335 2.87747   1
   0   9   3 1.71084 4.81851  -2
   0   9   3 1.71084 4.81851   1
   1   9   3 14.7374 3.24861   1
  -2   8   2 57.1064 12.0046  -2
   2   9   3 57.1064 12.0046   1
   3   9   3 1.35735 2.88911   1
   4   9   3 2.49230 3.17034   1
   5   9   3 16.7033 3.41864   1
  -6   5   0 2.78157 6.13483  -2
   6   9   3 2.78157 6.13483   1
  -1  10   3 18.5015 5.22420   1
   0  10   3 157.185 5.79622  -2
   0  10   3 157.185 5.79622   1
   1  10   3 28.3011 3.85181   1
  -2   9   2 22.2049 13.7903  -2
   2  10   3 22.2049 13.7903   1
   3  10   3 122.058 4.68791   1
   4  10   3 15.5064 3.88590   1
   5  10   3 123.916 4.88633   1
  -4  -9   4 -0.5256 5.66990   1
  -3  -9   4 150.329 8.02030   1
   2  -8   5 12.6362 17.0374  -2
  -2  -9   4 12.6362 17.0374   1
  -1  -9   4 24.9027 4.41850   1
   0  -9   4 2.32067 6.32292  -2
   0  -9   4 2.32067 6.32292   1
   1  -9   4 -6.0048 3.51761   1
  -5  -8   4 9.68789 4.62840   1
  -4  -8   4 6.32554 4.33002   1
  -3  -8   4 5.60657 4.04493   1
  -2  -8   4 66.9840 4.84363   1
  -1  -8   4 -0.1657 3.69069   1
   0  -8   4 132.223 6.01574  -2
   0  -8   4 132.223 6.01574   1
   1  -8   4 2.71813 2.82172   1
   2  -8   4 29.7103 2.98992   1
   3  -8   4 113.464 5.08344   1
   6  -3   7 64.8193 8.05681  -2
  -6  -7   4 64.8193 8.05681   1
  -5  -7   4 20.4159 4.30262   1
  -4  -7   4 518.060 8.74253   1
  -3  -7   4 204.777 5.31388   1
  -2  -7   4 88.8401 3.75247   1
  -1  -7   4 0.94396 3.27782   1
   0  -7   4 390.559 7.54297  -2
   0  -7   4 390.559 7.54297   1
   1  -7   4 9.39311 2.98068   1
   2  -7   4 3.12325 2.08740   1
   3  -7   4 16.8085 2.47947   1
   4  -7   4 31.3900 3.29418   1
   6  -2   7 97.6985 5.50948  -2
  -6  -6   4 97.6985 5.50948   1
  -5  -6   4 35.5336 3.34522   1
  -4  -6   4 14.0960 2.83924   1
  -3  -6   4 0.22042 2.41241   1
  -2  -6   4 45.4108 2.71674   1
  -1  -6   4 266.050 6.34988   1
   0  -6   4 47.5300 2.76362  -2
   0  -6   4 47.5300 2.76362   1
   1  -6   4 -0.5469 1.66250   1
   2  -6   4 2.18261 1.61310   1
   3  -6   4 14.9171 2.14992   1
   4  -6   4 66.7769 3.39030   1
   5  -6   4 48.4638 3.68290   1
  -7  -5   4 -0.4959 4.12821   1
   6  -1   7 26.1506 5.96950  -2
  -6  -5   4 26.1506 5.96950   1
  -5  -5   4 358.287 5.88573   1
  -4  -5   4 39.2709 2.90428   1
  -3  -5   4 698.055 7.58441   1
  -2  -5   4 195.858 4.07893   1
  -1  -5   4 70.7341 3.51117   1
   0  -5   4 30.1170 3.72907  -2
   0  -5   4 30.1170 3.72907   1
   1  -5   4 24.1396 1.54367   1
   2  -5   4 19.3553 1.39288   1
   3  -5   4 135.557 2.78416   1
   4  -5   4 114.814 3.60190   1
   5  -5   4 16.5809 2.91442   1
   6  -5   4 20.5153 7.84074   1
  -7  -4   4 33.1950 3.92500   1
   6   0   7 24.9763 4.61565  -2
  -6  -4   4 24.9763 4.61565   1
  -5  -4   4 237.557 4.64423   1
  -4  -4   4 93.2115 3.48450   1
  -3  -4   4 25.8620 1.91640   1
  -2  -4   4 73.6441 2.66063   1
  -1  -4   4 73.7631 2.83213   1
   0  -4   4 379.418 4.45697  -2
   0  -4   4 379.418 4.45697   1
   1  -4   4 34.5674 1.15629   1
   2  -4   4 123.615 2.00549   1
   3  -4   4 2.22270 0.97158   1
   4  -4   4 109.396 3.20507   1
   5  -4   4 5.83398 2.44999   1
  -6  -8   1 6.10810 4.36461  -2
   6  -4   4 6.10810 4.36461   1
  -7  -3   4 2.88912 3.32175   1
   6   1   7 47.1154 5.45798  -2
  -6  -3   4 47.1154 5.45798   1
  -5  -3   4 17.4443 1.83428   1
  -4  -3   4 248.719 3.83796   1
  -3  -3   4 14.3588 1.69945   1
  -2  -3   4 63.5227 3.03662   1
  -1  -3   4 69.7264 2.65664   1
   0  -3   4 1.24455 1.54981  -2
   0  -3   4 1.24455 1.54981   1
   1  -3   4 15.1616 0.99303   1
   2  -3   4 37.5589 1.14664   1
   3  -3   4 17.7873 0.97423   1
   4  -3   4 109.114 2.85203   1
   5  -3   4 42.1329 2.45786   1
  -6  -7   1 25.4980 4.02841  -2
   6  -3   4 25.4980 4.02841   1
   7  -3   4 -2.6726 3.89263   1
  -7  -2   4 43.0276 3.64224   1
   6   2   7 86.5386 4.77761  -2
  -6  -2   4 86.5386 4.77761   1
  -5  -2   4 53.6325 2.07620   1
  -4  -2   4 2.39909 1.26313   1
  -3  -2   4 185.296 2.67516   1
  -2  -2   4 38.5529 1.51930   1
  -1  -2   4 239.055 3.11795   1
   0  -2   4 40.1576 1.61963  -2
   0  -2   4 40.1576 1.61963   1
   1  -2   4 7.75029 0.90965   1
   2  -2   4 5.66000 0.78407   1
   3  -2   4 157.051 1.74419   1
   4  -2   4 19.9036 1.26467   1
   5  -2   4 -1.4300 1.23731   1
  -6  -6   1 -0.8332 2.56505  -2
   6  -2   4 -0.8332 2.56505   1
   7  -2   4 16.9046 4.42402   1
  -7  -1   4 32.2609 3.44712   1
   6   3   7 208.636 5.27885  -2
  -6  -1   4 208.636 5.27885   1
  -5  -1   4 238.671 3.37346   1
  -4  -1   4 9.52641 1.26347   1
  -3  -1   4 89.2392 1.82890   1
  -2  -1   4 137.473 1.94659   1
  -1  -1   4 14.9243 1.14680   1
   0  -1   4 1523.62 9.56932  -2
   0  -1   4 1523.62 9.56932   1
   1  -1   4 49.6247 1.18391   1
   2  -1   4 174.424 1.71950   1
   3  -1   4 79.2708 1.43855   1
   4  -1   4 32.1000 1.02578   1
   5  -1   4 0.04108 1.06223   1
  -6  -5   1 81.2871 5.74741  -2
   6  -1   4 81.2871 5.74741   1
   7  -1   4 67.9124 5.04241   1
  -7   0   4 48.2723 3.37131   1
   6   4   7 19.4519 4.49016  -2
  -6   0   4 19.4519 4.49016   1
  -5   0   4 6.17426 1.52486   1
  -4   0   4 7.56133 1.14097   1
  -3   0   4 368.900 3.21708   1
  -2   0   4 101.587 2.06091   1
  -1   0   4 308.722 2.81687   1
   0   0   4 2.70729 1.58861  -2
   0   0   4 2.70729 1.58861   1
   1   0   4 589.899 4.39309   1
   2   0   4 2.52112 0.90402   1
   3   0   4 400.185 2.53949   1
   4   0   4 7.71713 0.83491   1
   5   0   4 195.137 2.89481   1
  -6  -4   1 82.4401 5.62195  -2
   6   0   4 82.4401 5.62195   1
   7   0   4 22.4728 4.23278   1
   8   5   0 -19.175 10.0469  -2
   8   0   4 -19.175 10.0469   1
  -7   1   4 1.62340 3.01481   1
   6   5   7 44.1266 4.64117  -2
  -6   1   4 44.1266 4.64117   1
  -5   1   4 17.6454 1.91396   1
  -4   1   4 10.6309 1.31721   1
  -3   1   4 41.0921 1.33609   1
  -2   1   4 11.3332 1.00241   1
  -1   1   4 68.3600 1.33915   1
   0   1   4 105.926 1.61076  -2
   0   1   4 105.926 1.61076   1
   1   1   4 88.9785 1.38295   1
   2   1   4 186.348 1.84441   1
   3   1   4 75.5781 1.36027   1
   4   1   4 122.388 1.85712   1
   5   1   4 0.89166 1.02773   1
  -6  -3   1 19.2475 1.90326  -2
   6   1   4 19.2475 1.90326   1
   7   1   4 518.768 10.8597   1
   8   4   0 55.8218 9.40443  -2
   8   1   4 55.8218 9.40443   1
   6   6   7 96.2449 5.95614  -2
  -6   2   4 96.2449 5.95614   1
  -5   2   4 18.3178 2.23205   1
  -4   2   4 2.60485 1.15224   1
  -3   2   4 22.6136 1.20128   1
  -2   2   4 96.0977 1.81294   1
  -1   2   4 5.91773 1.01193   1
   0   2   4 5178.14 26.6034  -2
   0   2   4 5178.14 26.6034   1
   1   2   4 428.053 3.16694   1
   2   2   4 877.631 4.62557   1
   3   2   4 188.502 1.77094   1
   4   2   4 94.0111 1.63768   1
   5   2   4 14.8959 0.98484   1
  -6  -2   1 369.021 4.05392  -2
   6   2   4 369.021 4.05392   1
   7   2   4 1.20653 1.71344   1
   8   3   0 -11.339 22.8497  -2
   8   2   4 -11.339 22.8497   1
   6   7   7 31.8834 6.23314  -2
  -6   3   4 31.8834 6.23314   1
  -5   3   4 10.1612 2.27025   1
  -4   3   4 2.09205 1.27771   1
  -3   3   4 9.19785 1.12403   1
  -2   3   4 25.5991 1.12742   1
  -1   3   4 4.78473 0.92096   1
   0   3   4 87.1307 1.94603  -2
   0   3   4 87.1307 1.94603   1
   1   3   4 57.6094 1.33323   1
   2   3   4 117.203 1.57413   1
   3   3   4 15.6434 1.05457   1
   4   3   4 255.140 2.42573   1
   5   3   4 53.2024 1.75688   1
  -6  -1   1 70.0274 3.53758  -2
   6   3   4 70.0274 3.53758   1
   7   3   4 28.3533 2.66009   1
   8   2   0 26.6795 25.2380  -2
   8   3   4 26.6795 25.2380   1
   6   8   7 31.5975 6.50920  -2
  -6   4   4 31.5975 6.50920   1
  -5   4   4 2.39046 2.53168   1
  -4   4   4 98.6349 2.61710   1
  -3   4   4 3.53416 1.11894   1
  -2   4   4 30.4015 1.28249   1
  -1   4   4 45.8648 1.82139   1
   0   4   4 2040.87 16.4727  -2
   0   4   4 2040.87 16.4727   1
   1   4   4 2547.17 18.1886   1
   2   4   4 61.9285 1.63542   1
   3   4   4 0.46163 0.98318   1
   4   4   4 10.1663 1.15428   1
   5   4   4 161.764 2.91261   1
  -6   0   1 256.040 4.92046  -2
   6   4   4 256.040 4.92046   1
   7   4   4 4.02033 2.55293   1
   8   1   0 84.5186 6.96686  -2
   8   4   4 84.5186 6.96686   1
  -5   5   4 16.6490 2.84502   1
  -4   5   4 7.77721 2.04541   1
  -3   5   4 32.1917 1.97755   1
  -2   5   4 127.049 3.18492   1
  -1   5   4 30.9790 1.92481   1
   0   5   4 63.4555 2.90790  -2
   0   5   4 63.4555 2.90790   1
   1   5   4 31.5527 1.78324   1
   2   5   4 81.3959 2.34434   1
   3   5   4 255.072 2.81717   1
   4   5   4 304.458 3.20664   1
   5   5   4 7.65990 1.27215   1
  -6   1   1 43.4745 4.13296  -2
   6   5   4 43.4745 4.13296   1
   7   5   4 33.7242 2.75287   1
   8   0   0 26.8268 9.71875  -2
   8   5   4 26.8268 9.71875   1
  -5   6   4 158.310 8.59275   1
  -4   6   4 5.76542 2.78119   1
  -3   6   4 8.63186 2.06167   1
  -2   6   4 6.92604 2.27404   1
  -1   6   4 1.18534 1.67364   1
   0   6   4 135.103 3.30118  -2
   0   6   4 135.103 3.30118   1
   1   6   4 1.39135 1.50975   1
   2   6   4 64.4372 2.25433   1
   3   6   4 40.0047 1.89056   1
   4   6   4 2.72488 2.08023   1
   5   6   4 98.6362 2.47322   1
  -6   2   1 352.394 6.62378  -2
   6   6   4 352.394 6.62378   1
   7   6   4 2.86564 2.64623   1
  -8   1   0 129.896 12.6057  -2
   8   6   4 129.896 12.6057   1
  -4   7   4 3.81935 2.98763   1
  -3   7   4 50.5818 2.95689   1
  -2   7   4 2.16038 2.28531   1
  -1   7   4 33.3909 2.60829   1
   0   7   4 8.49394 4.05587  -2
   0   7   4 8.49394 4.05587   1
   1   7   4 33.7339 2.85713   1
   2   7   4 4.87179 1.70170   1
   3   7   4 261.597 3.80562   1
   4   7   4 19.2743 2.43544   1
   5   7   4 11.7560 2.22825   1
  -6   3   1 34.9476 5.10415  -2
   6   7   4 34.9476 5.10415   1
   7   7   4 0.39642 2.78206   1
  -3   8   4 40.2267 3.34372   1
   2   9   5 7.45656 10.9584  -2
  -2   8   4 7.45656 10.9584   1
  -1   8   4 5.98426 3.05599   1
   0   8   4 34.5217 4.67902  -2
   0   8   4 34.5217 4.67902   1
   1   8   4 96.6529 3.63138   1
   2   8   4 9.31188 2.08471   1
   3   8   4 67.2867 2.77866   1
   4   8   4 80.0254 3.20871   1
   5   8   4 16.5707 2.68731   1
  -6   4   1 9.73530 4.84071  -2
   6   8   4 9.73530 4.84071   1
   7   8   4 17.3282 3.58988   1
   2  10   5 11.0756 9.30733  -2
  -2   9   4 11.0756 9.30733   1
  -1   9   4 4.13419 3.34511   1
   0   9   4 44.6313 5.34768  -2
   0   9   4 44.6313 5.34768   1
   1   9   4 19.4789 3.54848   1
  -2   8   3 240.343 18.9808  -2
   2   9   4 240.343 18.9808   1
   3   9   4 12.8178 3.03501   1
   4   9   4 255.683 6.32778   1
   5   9   4 16.7024 3.44988   1
  -6   5   1 83.9013 5.53758  -2
   6   9   4 83.9013 5.53758   1
   0  10   4 5.02420 5.67719  -2
   0  10   4 5.02420 5.67719   1
   1  10   4 1.78211 3.62855   1
  -2   9   3 23.7173 19.9868  -2
   2  10   4 23.7173 19.9868   1
   3  10   4 33.7897 3.99170   1
   4  10   4 10.5526 3.63175   1
   5  10   4 14.9921 3.74040   1
  -2  -9   5 24.0793 4.89718   1
  -1  -9   5 84.0265 5.37160   1
   0  -9   5 19.4661 11.1511  -2
   0  -9   5 19.4661 11.1511   1
  -4  -8   5 0.28710 4.54052   1
  -3  -8   5 14.4657 4.67729   1
   2  -7   6 -13.595 28.5851  -2
  -2  -8   5 -13.595 28.5851   1
  -1  -8   5 2.09397 3.93407   1
   0  -8   5 35.3777 5.59932  -2
   0  -8   5 35.3777 5.59932   1
   1  -8   5 7.06478 3.39695   1
   2  -8   5 -1.0073 2.96029   1
  -5  -7   5 13.5301 4.60356   1
  -4  -7   5 31.2313 4.65568   1
  -3  -7   5 1.20984 4.01800   1
  -2  -7   5 59.2581 4.65560   1
  -1  -7   5 146.122 5.95864   1
   0  -7   5 52.0578 5.34674  -2
   0  -7   5 52.0578 5.34674   1
   1  -7   5 19.2798 2.95332   1
   2  -7   5 1.65610 2.60756   1
   3  -7   5 0.52314 3.13179   1
   6  -2   8 20.5660 13.8525  -2
  -6  -6   5 20.5660 13.8525   1
  -5  -6   5 8.76661 4.08648   1
  -4  -6   5 3.64270 3.88284   1
  -3  -6   5 121.873 4.37442   1
  -2  -6   5 241.342 4.75973   1
  -1  -6   5 -0.8854 3.16415   1
   0  -6   5 81.0497 5.01169  -2
   0  -6   5 81.0497 5.01169   1
   1  -6   5 0.89200 1.72311   1
   2  -6   5 9.79605 1.88946   1
   3  -6   5 131.794 3.49525   1
   4  -6   5 5.92873 3.01439   1
   6  -1   8 106.709 6.64335  -2
  -6  -5   5 106.709 6.64335   1
  -5  -5   5 24.2514 3.68061   1
  -4  -5   5 56.1337 4.16076   1
  -3  -5   5 0.59186 3.23233   1
  -2  -5   5 8.68237 3.18852   1
  -1  -5   5 58.9877 3.68768   1
   0  -5   5 481.159 6.13944  -2
   0  -5   5 481.159 6.13944   1
   1  -5   5 63.2033 2.00011   1
   2  -5   5 75.2509 2.26459   1
   3  -5   5 33.7401 1.94227   1
   4  -5   5 1.18432 2.24114   1
   5  -5   5 2.13357 3.31517   1
   6   0   8 9.43377 5.09870  -2
  -6  -4   5 9.43377 5.09870   1
  -5  -4   5 148.598 5.11513   1
  -4  -4   5 66.0319 4.09966   1
  -3  -4   5 137.404 3.56311   1
  -2  -4   5 18.6386 2.96465   1
  -1  -4   5 336.395 4.69822   1
   0  -4   5 64.1316 2.48337  -2
   0  -4   5 64.1316 2.48337   1
   1  -4   5 90.1388 2.05139   1
   2  -4   5 75.4578 1.82346   1
   3  -4   5 18.1272 1.24162   1
   4  -4   5 12.6296 2.18531   1
   5  -4   5 0.64465 2.53814   1
  -6  -8   2 69.4359 6.42910  -2
   6  -4   5 69.4359 6.42910   1
  -7  -3   5 7.77468 4.26550   1
   6   1   8 45.2784 5.96632  -2
  -6  -3   5 45.2784 5.96632   1
  -5  -3   5 62.9793 2.55999   1
  -4  -3   5 152.635 3.55083   1
  -3  -3   5 158.492 3.75539   1
  -2  -3   5 73.7865 3.19159   1
  -1  -3   5 41.2814 2.54301   1
   0  -3   5 340.375 4.33333  -2
   0  -3   5 340.375 4.33333   1
   1  -3   5 158.627 2.47127   1
   2  -3   5 21.0514 1.11862   1
   3  -3   5 399.270 3.21007   1
   4  -3   5 98.3617 2.44663   1
   5  -3   5 1.25754 2.01876   1
  -6  -7   2 57.0463 4.29929  -2
   6  -3   5 57.0463 4.29929   1
  -7  -2   5 23.0847 4.11074   1
   6   2   8 65.9333 5.03322  -2
  -6  -2   5 65.9333 5.03322   1
  -5  -2   5 236.143 4.07855   1
  -4  -2   5 36.3852 1.92974   1
  -3  -2   5 125.963 2.38995   1
  -2  -2   5 141.085 3.05561   1
  -1  -2   5 136.603 3.90176   1
   0  -2   5 623.180 5.81001  -2
   0  -2   5 623.180 5.81001   1
   1  -2   5 309.326 3.45035   1
   2  -2   5 142.319 2.20655   1
   3  -2   5 132.108 1.91628   1
   4  -2   5 0.10940 1.28997   1
   5  -2   5 3.33785 2.17522   1
  -6  -6   2 37.5425 4.23938  -2
   6  -2   5 37.5425 4.23938   1
   7  -2   5 13.9983 4.68301   1
  -7  -1   5 5.48372 3.73812   1
   6   3   8 34.5697 4.96858  -2
  -6  -1   5 34.5697 4.96858   1
  -5  -1   5 16.6816 2.07999   1
  -4  -1   5 9.74661 1.43836   1
  -3  -1   5 11.8182 1.30389   1
  -2  -1   5 20.2389 1.44030   1
  -1  -1   5 154.268 3.90824   1
   0  -1   5 45.7790 2.09478  -2
   0  -1   5 45.7790 2.09478   1
   1  -1   5 126.690 1.93757   1
   2  -1   5 38.6641 1.38436   1
   3  -1   5 193.220 2.15174   1
   4  -1   5 145.034 2.56043   1
   5  -1   5 42.3043 1.43569   1
  -6  -5   2 128.195 3.99791  -2
   6  -1   5 128.195 3.99791   1
   7  -1   5 2.25666 4.35850   1
  -7   0   5 4.99436 5.34746   1
   6   4   8 129.667 5.51173  -2
  -6   0   5 129.667 5.51173   1
  -5   0   5 -0.5933 1.82331   1
  -4   0   5 4.19690 1.35679   1
  -3   0   5 91.8450 2.34008   1
   2   1   6 78.8438 11.4295  -2
  -2   0   5 78.8438 11.4295   1
  -1   0   5 126.055 2.34196   1
   0   0   5 242.149 2.84528  -2
   0   0   5 242.149 2.84528   1
   1   0   5 141.155 2.01257   1
   2   0   5 657.278 4.86903   1
   3   0   5 19.1401 1.02623   1
   4   0   5 12.8733 1.13450   1
   5   0   5 44.2722 1.20767   1
  -6  -4   2 34.6724 5.31047  -2
   6   0   5 34.6724 5.31047   1
   7   0   5 38.2932 3.86461   1
   6   5   8 22.1349 5.10775  -2
  -6   1   5 22.1349 5.10775   1
  -5   1   5 4.27952 1.89121   1
  -4   1   5 0.26842 1.40471   1
  -3   1   5 43.7258 1.73555   1
   2   2   6 175.745 15.2237  -2
  -2   1   5 175.745 15.2237   1
  -1   1   5 112.129 2.17818   1
   0   1   5 12.5580 1.24425  -2
   0   1   5 12.5580 1.24425   1
   1   1   5 142.558 1.99792   1
   2   1   5 203.044 2.33763   1
   3   1   5 28.9940 1.03100   1
   4   1   5 97.6953 1.94987   1
   5   1   5 284.608 2.71535   1
  -6  -3   2 393.639 5.88869  -2
   6   1   5 393.639 5.88869   1
   7   1   5 8.60431 3.22202   1
  -8  -4   1 113.612 25.3122  -2
   8   1   5 113.612 25.3122   1
   6   6   8 138.949 6.65705  -2
  -6   2   5 138.949 6.65705   1
  -5   2   5 114.239 3.91409   1
  -4   2   5 1.33624 1.46345   1
  -3   2   5 414.664 3.84989   1
  -2   2   5 118.605 2.16753   1
  -1   2   5 374.697 3.50580   1
   0   2   5 151.923 2.55018  -2
   0   2   5 151.923 2.55018   1
   1   2   5 16.5658 1.11967   1
   2   2   5 874.263 6.51168   1
   3   2   5 509.232 3.53261   1
   4   2   5 12.5093 0.99521   1
   5   2   5 170.460 2.91761   1
  -6  -2   2 8.92499 3.19813  -2
   6   2   5 8.92499 3.19813   1
   7   2   5 53.3768 2.87708   1
  -8  -3   1 74.0424 23.3057  -2
   8   2   5 74.0424 23.3057   1
   6   7   8 52.7054 7.00489  -2
  -6   3   5 52.7054 7.00489   1
  -5   3   5 6.93934 2.38044   1
  -4   3   5 9.58565 1.75445   1
  -3   3   5 2.12702 1.23229   1
  -2   3   5 26.1629 1.28193   1
  -1   3   5 266.160 3.48423   1
   0   3   5 231.628 2.89140  -2
   0   3   5 231.628 2.89140   1
   1   3   5 162.014 2.33255   1
   2   3   5 109.790 1.79108   1
   3   3   5 282.119 2.57495   1
   4   3   5 9.76679 1.12252   1
   5   3   5 136.665 2.53532   1
  -6  -1   2 75.0596 3.94857  -2
   6   3   5 75.0596 3.94857   1
   7   3   5 182.568 4.73918   1
  -8  -2   1 235.360 15.4244  -2
   8   3   5 235.360 15.4244   1
  -5   4   5 49.4124 3.16748   1
  -4   4   5 30.9278 2.29080   1
  -3   4   5 26.2281 1.54157   1
  -2   4   5 47.2434 1.74733   1
  -1   4   5 21.4886 1.60486   1
   0   4   5 1970.99 15.3987  -2
   0   4   5 1970.99 15.3987   1
   1   4   5 52.6368 2.18072   1
   2   4   5 521.510 5.01458   1
   3   4   5 192.393 2.44103   1
   4   4   5 137.019 2.22794   1
   5   4   5 0.10110 1.33433   1
  -6   0   2 179.536 4.57416  -2
   6   4   5 179.536 4.57416   1
   7   4   5 36.2915 3.11434   1
  -8  -1   1 37.8120 6.08443  -2
   8   4   5 37.8120 6.08443   1
  -5   5   5 47.4016 3.42341   1
  -4   5   5 15.5120 2.34867   1
  -3   5   5 7.04424 2.06536   1
  -2   5   5 27.8009 2.20513   1
  -1   5   5 52.6193 2.00367   1
   0   5   5 59.5964 2.88594  -2
   0   5   5 59.5964 2.88594   1
   1   5   5 1.35154 2.01208   1
   2   5   5 13.7571 1.58074   1
   3   5   5 95.7736 2.55770   1
   4   5   5 517.822 4.38780   1
   5   5   5 51.8159 1.67775   1
  -6   1   2 240.693 5.20000  -2
   6   5   5 240.693 5.20000   1
   7   5   5 97.1210 3.58279   1
  -8   0   1 16.5315 7.07857  -2
   8   5   5 16.5315 7.07857   1
  -4   6   5 26.7772 3.20338   1
  -3   6   5 5.71483 2.24288   1
  -2   6   5 2.26761 2.40631   1
  -1   6   5 26.2768 2.18931   1
   0   6   5 277.360 4.39278  -2
   0   6   5 277.360 4.39278   1
   1   6   5 427.443 5.92751   1
   2   6   5 99.9091 2.52273   1
   3   6   5 22.2393 1.80450   1
   4   6   5 7.13781 1.57952   1
   5   6   5 64.8632 2.49204   1
  -6   2   2 48.6302 4.67427  -2
   6   6   5 48.6302 4.67427   1
   7   6   5 12.2759 2.77390   1
   8   6   5 47.1474 5.25476   1
  -3   7   5 24.5740 2.81931   1
  -2   7   5 43.5512 3.05159   1
  -1   7   5 -1.9166 2.41556   1
   0   7   5 65.7394 3.87591  -2
   0   7   5 65.7394 3.87591   1
   1   7   5 14.3954 1.99193   1
   2   7   5 76.3920 3.37726   1
   3   7   5 208.696 3.55419   1
   4   7   5 224.922 4.75340   1
   5   7   5 394.409 5.43944   1
  -6   3   2 131.474 4.86142  -2
   6   7   5 131.474 4.86142   1
   7   7   5 16.3326 3.03686   1
  -3   8   5 127.661 7.39822   1
   2   9   6 8.35566 16.0506  -2
  -2   8   5 8.35566 16.0506   1
  -1   8   5 11.2049 3.28090   1
   0   8   5 0.63768 4.69153  -2
   0   8   5 0.63768 4.69153   1
   1   8   5 -0.2842 2.90740   1
   2   8   5 98.2264 4.05745   1
   3   8   5 18.1007 2.62805   1
   4   8   5 35.5907 3.02221   1
   5   8   5 12.8923 2.52375   1
  -6   4   2 96.9229 4.99244  -2
   6   8   5 96.9229 4.99244   1
   7   8   5 58.8409 4.81531   1
  -1   9   5 -5.4992 3.40302   1
   0   9   5 5.65045 5.31592  -2
   0   9   5 5.65045 5.31592   1
   1   9   5 4.08500 3.35816   1
  -2   8   4 67.0842 17.3117  -2
   2   9   5 67.0842 17.3117   1
   3   9   5 92.3958 3.91626   1
   4   9   5 158.684 5.71634   1
   5   9   5 108.589 4.61090   1
  -6   5   2 37.2842 5.50592  -2
   6   9   5 37.2842 5.50592   1
   1  10   5 92.0883 5.46230   1
  -2   9   4 16.0908 12.9359  -2
   2  10   5 16.0908 12.9359   1
   3  10   5 21.0430 3.82935   1
   4  10   5 4.81116 3.64542   1
  -3  -8   6 0.89831 4.65293   1
  -2  -8   6 107.445 7.78586   1
  -1  -8   6 18.3014 4.55719   1
   0  -8   6 19.5812 5.03633  -2
   0  -8   6 19.5812 5.03633   1
   1  -8   6 7.44489 3.80647   1
  -4  -7   6 7.80130 4.75739   1
  -3  -7   6 58.6706 5.15820   1
  -2  -7   6 66.3068 5.16962   1
  -1  -7   6 1.61290 3.89758   1
   0  -7   6 10.8032 4.55178  -2
   0  -7   6 10.8032 4.55178   1
   1  -7   6 26.7028 3.59956   1
   2  -7   6 70.0773 4.88021   1
   3  -7   6 -1.1774 3.96052   1
  -5  -6   6 11.2208 4.10742   1
  -4  -6   6 -7.1930 4.09679   1
  -3  -6   6 14.7559 4.27249   1
  -2  -6   6 1.56104 3.71885   1
  -1  -6   6 -2.1900 3.49592   1
   0  -6   6 4.12365 4.13532  -2
   0  -6   6 4.12365 4.13532   1
   1  -6   6 44.5442 2.64476   1
   2  -6   6 13.7080 2.28504   1
   3  -6   6 2.12192 2.49973   1
   4  -6   6 -0.7288 3.68140   1
  -5  -5   6 17.2050 3.85953   1
  -4  -5   6 3.18171 4.03395   1
  -3  -5   6 381.094 9.73860   1
  -2  -5   6 1.90066 3.44841   1
  -1  -5   6 26.4783 3.65239   1
   0  -5   6 140.009 4.50043  -2
   0  -5   6 140.009 4.50043   1
   1  -5   6 28.8814 2.36553   1
   2  -5   6 -1.9718 2.00524   1
   3  -5   6 7.37060 1.96677   1
   4  -5   6 6.41290 2.73783   1
   5  -5   6 24.9298 3.27087   1
   6   0   9 96.6161 7.53059  -2
  -6  -4   6 96.6161 7.53059   1
  -5  -4   6 77.0291 3.85814   1
  -4  -4   6 52.6323 3.83504   1
  -3  -4   6 2.43277 2.68525   1
  -2  -4   6 89.0373 4.00024   1
  -1  -4   6 0.64870 1.69354   1
   0  -4   6 3.58316 2.08434  -2
   0  -4   6 3.58316 2.08434   1
   1  -4   6 3.04204 1.54431   1
   2  -4   6 -0.2036 1.31115   1
   3  -4   6 241.316 3.65074   1
   4  -4   6 -0.4228 2.35793   1
   5  -4   6 86.6584 3.86103   1
   6  -4   6 29.5421 8.14555   1
   6   1   9 69.2192 6.76024  -2
  -6  -3   6 69.2192 6.76024   1
  -5  -3   6 3.46601 2.89423   1
  -4  -3   6 2.21494 2.03776   1
  -3  -3   6 158.015 4.19586   1
  -2  -3   6 6.17108 2.57445   1
  -1  -3   6 18.7909 2.24971   1
   0  -3   6 49.8884 2.34344  -2
   0  -3   6 49.8884 2.34344   1
   1  -3   6 5.81110 1.47894   1
   2  -3   6 4.78174 1.20916   1
   3  -3   6 323.674 3.17350   1
   4  -3   6 169.586 3.97905   1
   5  -3   6 4.38491 2.56884   1
  -6  -7   3 20.3462 4.82056  -2
   6  -3   6 20.3462 4.82056   1
   6   2   9 20.6884 6.36019  -2
  -6  -2   6 20.6884 6.36019   1
  -5  -2   6 96.5381 3.15945   1
  -4  -2   6 31.9596 2.43969   1
  -3  -2   6 42.2539 1.78727   1
  -2  -2   6 -0.1647 1.50265   1
  -1  -2   6 398.791 4.99275   1
   0  -2   6 7.61909 1.99028  -2
   0  -2   6 7.61909 1.99028   1
   1  -2   6 412.440 4.74048   1
   2  -2   6 213.419 3.39237   1
   3  -2   6 43.4463 1.63058   1
   4  -2   6 286.279 3.52412   1
   5  -2   6 27.4327 2.18317   1
  -6  -6   3 57.8162 4.84673  -2
   6  -2   6 57.8162 4.84673   1
   7  -2   6 5.31649 4.64354   1
   6   3   9 0.34930 5.19728  -2
  -6  -1   6 0.34930 5.19728   1
  -5  -1   6 39.2300 2.67103   1
  -4  -1   6 31.9235 2.43509   1
  -3  -1   6 66.6253 2.52195   1
  -2  -1   6 3.69773 1.45763   1
  -1  -1   6 40.5033 2.46187   1
   0  -1   6 75.1166 3.47766  -2
   0  -1   6 75.1166 3.47766   1
   1  -1   6 37.6381 1.36399   1
   2  -1   6 182.750 2.68950   1
   3  -1   6 4.02921 1.08000   1
   4  -1   6 112.427 2.60870   1
   5  -1   6 124.257 3.49017   1
  -6  -5   3 9.86673 4.11500  -2
   6  -1   6 9.86673 4.11500   1
   7  -1   6 2.98465 4.32816   1
   6   4   9 128.106 5.90513  -2
  -6   0   6 128.106 5.90513   1
  -5   0   6 -1.6971 2.16546   1
  -4   0   6 24.6253 2.22703   1
  -3   0   6 12.9002 1.98414   1
   2   1   7 620.758 22.9820  -2
  -2   0   6 620.758 22.9820   1
  -1   0   6 86.5670 2.30847   1
   0   0   6 211.850 3.32643  -2
   0   0   6 211.850 3.32643   1
   1   0   6 247.462 2.94592   1
   2   0   6 290.677 3.29974   1
   3   0   6 899.260 6.32821   1
   4   0   6 59.4122 2.00032   1
   5   0   6 45.2605 2.19236   1
  -6  -4   3 55.5705 6.54606  -2
   6   0   6 55.5705 6.54606   1
   7   0   6 2.40003 4.31841   1
   6   5   9 39.9809 5.81690  -2
  -6   1   6 39.9809 5.81690   1
  -5   1   6 208.716 4.32007   1
  -4   1   6 46.0749 2.35623   1
  -3   1   6 6.50522 1.84738   1
   2   2   7 34.7459 14.5257  -2
  -2   1   6 34.7459 14.5257   1
  -1   1   6 0.77268 1.42780   1
   0   1   6 580.992 4.67681  -2
   0   1   6 580.992 4.67681   1
   1   1   6 148.693 2.49380   1
   2   1   6 130.747 2.23353   1
   3   1   6 96.3104 2.19427   1
   4   1   6 132.200 1.77208   1
   5   1   6 41.5075 1.70044   1
  -6  -3   3 658.566 7.96467  -2
   6   1   6 658.566 7.96467   1
   7   1   6 56.5945 2.83068   1
   6   6   9 168.881 10.2713  -2
  -6   2   6 168.881 10.2713   1
  -5   2   6 -0.6294 2.82387   1
  -4   2   6 80.8038 2.78193   1
  -3   2   6 26.7733 1.99172   1
  -2   2   6 25.8899 1.79283   1
  -1   2   6 8.92994 1.37322   1
   0   2   6 1.23046 2.59513  -2
   0   2   6 1.23046 2.59513   1
   1   2   6 109.667 2.35931   1
   2   2   6 419.984 3.85332   1
   3   2   6 7.39350 1.28892   1
   4   2   6 46.9424 1.42887   1
   5   2   6 21.1470 1.47503   1
  -6  -2   3 66.5178 4.08459  -2
   6   2   6 66.5178 4.08459   1
   7   2   6 46.0085 3.19126   1
  -5   3   6 13.8030 3.07700   1
  -4   3   6 114.614 3.08715   1
  -3   3   6 79.4286 2.35890   1
  -2   3   6 66.4069 2.18449   1
  -1   3   6 103.831 2.58167   1
   0   3   6 137.762 3.61051  -2
   0   3   6 137.762 3.61051   1
   1   3   6 19.0593 1.47860   1
   2   3   6 1.02866 1.29815   1
   3   3   6 29.9743 1.64844   1
   4   3   6 199.576 2.56032   1
   5   3   6 743.297 5.18310   1
  -6  -1   3 56.6591 4.39522  -2
   6   3   6 56.6591 4.39522   1
   7   3   6 291.143 6.51760   1
  -8  -2   2 58.5496 14.1577  -2
   8   3   6 58.5496 14.1577   1
  -5   4   6 0.60448 3.27545   1
  -4   4   6 33.1309 2.46263   1
  -3   4   6 217.317 4.04983   1
  -2   4   6 106.942 2.22379   1
  -1   4   6 0.07040 1.53342   1
   0   4   6 356.854 4.35847  -2
   0   4   6 356.854 4.35847   1
   1   4   6 66.5682 2.02214   1
   2   4   6 6.19611 1.07118   1
   3   4   6 27.3136 1.59426   1
   4   4   6 1.57563 1.41018   1
   5   4   6 48.7611 1.85270   1
  -6   0   3 216.078 5.69040  -2
   6   4   6 216.078 5.69040   1
   7   4   6 16.7192 2.96408   1
  -8  -1   2 9.89863 7.75176  -2
   8   4   6 9.89863 7.75176   1
  -4   5   6 0.52823 2.46148   1
  -3   5   6 27.5943 2.53715   1
   2   6   7 116.539 13.6182  -2
  -2   5   6 116.539 13.6182   1
  -1   5   6 40.5710 2.00857   1
   0   5   6 4.92813 3.55958  -2
   0   5   6 4.92813 3.55958   1
   1   5   6 108.138 3.57921   1
   2   5   6 39.0537 2.63172   1
   3   5   6 163.958 2.92619   1
   4   5   6 14.0059 1.68387   1
   5   5   6 136.898 3.17929   1
  -6   1   3 174.891 5.07824  -2
   6   5   6 174.891 5.07824   1
   7   5   6 6.74730 3.02030   1
   8   5   6 65.2706 5.36022   1
  -4   6   6 26.4686 3.40464   1
  -3   6   6 33.5743 2.90557   1
   2   7   7 98.5556 10.7059  -2
  -2   6   6 98.5556 10.7059   1
  -1   6   6 3.48703 2.49200   1
   0   6   6 251.426 4.90432  -2
   0   6   6 251.426 4.90432   1
   1   6   6 144.749 4.14780   1
   2   6   6 32.5413 2.79121   1
   3   6   6 113.046 3.04773   1
   4   6   6 45.5982 2.39736   1
   5   6   6 59.0700 2.66041   1
  -6   2   3 157.839 5.35132  -2
   6   6   6 157.839 5.35132   1
   7   6   6 11.6059 2.97675   1
  -3   7   6 17.4055 2.95118   1
   2   8   7 88.9220 15.9029  -2
  -2   7   6 88.9220 15.9029   1
  -1   7   6 44.6616 3.13068   1
   0   7   6 5.65771 3.90000  -2
   0   7   6 5.65771 3.90000   1
   1   7   6 2.22221 2.14489   1
   2   7   6 1.14756 2.68096   1
   3   7   6 113.218 3.67687   1
   4   7   6 92.6403 3.18113   1
   5   7   6 29.6290 2.58709   1
  -6   3   3 122.100 4.92362  -2
   6   7   6 122.100 4.92362   1
   7   7   6 -0.3404 3.05900   1
   2   9   7 25.2070 9.47556  -2
  -2   8   6 25.2070 9.47556   1
  -1   8   6 23.6293 3.61227   1
   0   8   6 -5.7958 5.11964  -2
   0   8   6 -5.7958 5.11964   1
   1   8   6 31.8943 3.49220   1
   2   8   6 60.5924 3.86944   1
   3   8   6 2.95018 2.63310   1
   4   8   6 -0.0427 2.79615   1
   5   8   6 -1.4446 2.48718   1
  -6   4   3 56.9923 4.98995  -2
   6   8   6 56.9923 4.98995   1
  -1   9   6 -0.9516 4.14610   1
   0   9   6 36.7118 5.76774  -2
   0   9   6 36.7118 5.76774   1
   1   9   6 9.27645 3.66922   1
  -2   8   5 -8.9057 17.5924  -2
   2   9   6 -8.9057 17.5924   1
   3   9   6 30.8033 3.46002   1
   4   9   6 1.91806 2.85924   1
   5   9   6 63.6856 3.27179   1
   1  10   6 5.37805 6.17707   1
   2  10   6 1.16255 3.84143   1
   3  10   6 25.6772 3.96224   1
   4  10   6 7.98583 5.24426   1
  -3  -7   7 0.62155 4.84083   1
  -2  -7   7 15.8820 4.57484   1
  -1  -7   7 15.7911 4.44006   1
   0  -7   7 39.3852 5.10512  -2
   0  -7   7 39.3852 5.10512   1
   1  -7   7 5.39986 3.44328   1
   2  -7   7 1.35652 3.93368   1
  -4  -6   7 2.74185 4.62958   1
  -3  -6   7 22.2636 4.72496   1
   2  -5   8 81.2317 13.6820  -2
  -2  -6   7 81.2317 13.6820   1
  -1  -6   7 -0.0644 3.83237   1
   0  -6   7 21.4817 4.49863  -2
   0  -6   7 21.4817 4.49863   1
   1  -6   7 16.9526 2.61490   1
   2  -6   7 0.96747 3.65898   1
   3  -6   7 -3.2836 3.86157   1
  -5  -5   7 24.4045 4.46129   1
  -4  -5   7 -1.2148 4.33919   1
  -3  -5   7 60.6559 4.88683   1
  -2  -5   7 16.1740 3.52604   1
  -1  -5   7 4.81749 2.69654   1
   0  -5   7 124.798 4.79177  -2
   0  -5   7 124.798 4.79177   1
   1  -5   7 -1.5265 2.77975   1
   2  -5   7 101.052 3.67334   1
   3  -5   7 28.2285 2.69670   1
   4  -5   7 7.65285 3.07001   1
  -5  -4   7 34.8144 4.21170   1
  -4  -4   7 6.18980 3.30780   1
  -3  -4   7 6.89877 3.91736   1
  -2  -4   7 121.708 4.74133   1
  -1  -4   7 8.86401 2.37673   1
   0  -4   7 63.4578 3.71743  -2
   0  -4   7 63.4578 3.71743   1
   1  -4   7 104.989 4.25726   1
   2  -4   7 179.002 4.32611   1
   3  -4   7 2.75354 1.92739   1
   4  -4   7 -2.2399 2.71311   1
   5  -4   7 4.17507 2.85251   1
  -5  -3   7 5.20578 3.60971   1
  -4  -3   7 11.8849 3.16268   1
  -3  -3   7 5.17323 2.27802   1
  -2  -3   7 18.2689 2.00282   1
  -1  -3   7 1.02355 1.99745   1
   0  -3   7 63.4400 2.81240  -2
   0  -3   7 63.4400 2.81240   1
   1  -3   7 10.3879 1.80892   1
   2  -3   7 144.563 3.24676   1
   3  -3   7 11.0505 1.92498   1
   4  -3   7 15.7879 2.71578   1
   5  -3   7 17.9181 2.94631   1
  -6  -7   4 162.157 6.49836  -2
   6  -3   7 162.157 6.49836   1
  -5  -2   7 31.8795 3.25215   1
  -4  -2   7 38.8699 2.75288   1
  -3  -2   7 161.492 4.69773   1
   2  -1   8 73.7022 12.0153  -2
  -2  -2   7 73.7022 12.0153   1
  -1  -2   7 101.992 4.07642   1
   0  -2   7 47.9174 2.33533  -2
   0  -2   7 47.9174 2.33533   1
   1  -2   7 124.975 2.91240   1
   2  -2   7 17.9553 2.29606   1
   3  -2   7 274.577 3.47239   1
   4  -2   7 4.17532 1.73615   1
   5  -2   7 88.4442 3.69356   1
  -6  -6   4 89.0817 5.59139  -2
   6  -2   7 89.0817 5.59139   1
  -5  -1   7 -3.4770 2.62245   1
  -4  -1   7 169.357 4.36334   1
  -3  -1   7 75.7545 3.29441   1
  -2  -1   7 22.1984 1.81305   1
  -1  -1   7 -2.2027 1.41351   1
   0  -1   7 221.234 5.00256  -2
   0  -1   7 221.234 5.00256   1
   1  -1   7 154.628 2.22643   1
   2  -1   7 0.21711 1.50180   1
   3  -1   7 486.292 4.40890   1
   4  -1   7 271.381 3.71538   1
   5  -1   7 118.346 4.73125   1
  -6  -5   4 40.9013 5.21476  -2
   6  -1   7 40.9013 5.21476   1
   7  -1   7 252.802 9.19849   1
  -5   0   7 -2.4289 2.46760   1
  -4   0   7 103.705 3.24320   1
  -3   0   7 311.403 4.94359   1
  -2   0   7 43.3897 2.22797   1
  -1   0   7 340.272 4.10968   1
   0   0   7 3.02325 2.45087  -2
   0   0   7 3.02325 2.45087   1
   1   0   7 336.293 3.92169   1
   2   0   7 122.179 2.58159   1
   3   0   7 0.52776 1.37117   1
   4   0   7 141.542 2.47514   1
   5   0   7 51.3602 2.97872   1
  -6  -4   4 20.4844 6.60995  -2
   6   0   7 20.4844 6.60995   1
   7   0   7 7.53487 4.68161   1
  -5   1   7 37.7243 2.84546   1
  -4   1   7 43.7950 2.57840   1
  -3   1   7 205.985 4.37909   1
  -2   1   7 1.43190 1.87979   1
  -1   1   7 166.055 3.23832   1
   0   1   7 36.9553 2.04419  -2
   0   1   7 36.9553 2.04419   1
   1   1   7 82.1954 2.26714   1
   2   1   7 29.4825 1.50461   1
   3   1   7 152.940 2.60937   1
   4   1   7 92.0191 2.20443   1
   5   1   7 285.289 5.45622   1
  -6  -3   4 69.4559 6.74484  -2
   6   1   7 69.4559 6.74484   1
   7   1   7 19.0681 2.75810   1
  -5   2   7 7.21074 3.11397   1
  -4   2   7 5.41688 2.40678   1
  -3   2   7 39.5288 3.24886   1
   2   3   8 533.944 27.8285  -2
  -2   2   7 533.944 27.8285   1
  -1   2   7 52.7287 2.59656   1
   0   2   7 72.6556 3.38208  -2
   0   2   7 72.6556 3.38208   1
   1   2   7 247.125 3.25332   1
   2   2   7 49.6773 1.81889   1
   3   2   7 172.051 3.12733   1
   4   2   7 43.4336 1.76350   1
   5   2   7 190.334 3.63323   1
  -6  -2   4 92.5374 4.89123  -2
   6   2   7 92.5374 4.89123   1
   7   2   7 19.7157 2.90448   1
  -5   3   7 69.4027 4.26562   1
  -4   3   7 84.1261 3.47601   1
  -3   3   7 72.4164 2.84586   1
  -2   3   7 -1.4753 1.87174   1
  -1   3   7 98.8732 3.45606   1
   0   3   7 58.4372 3.52169  -2
   0   3   7 58.4372 3.52169   1
   1   3   7 2.92625 1.47787   1
   2   3   7 179.362 2.97977   1
   3   3   7 1.73102 1.63053   1
   4   3   7 117.442 2.50372   1
   5   3   7 92.0965 2.50785   1
  -6  -1   4 518.496 7.80770  -2
   6   3   7 518.496 7.80770   1
   7   3   7 6.85321 3.09050   1
  -4   4   7 32.1526 3.25177   1
  -3   4   7 32.5154 2.50222   1
  -2   4   7 8.98361 2.17873   1
  -1   4   7 365.006 4.76350   1
   0   4   7 748.749 7.14426  -2
   0   4   7 748.749 7.14426   1
   1   4   7 2.09256 1.55374   1
   2   4   7 17.1368 1.72789   1
   3   4   7 26.6730 1.84308   1
   4   4   7 199.882 3.03903   1
   5   4   7 5.56862 1.72927   1
  -6   0   4 7.20583 4.94525  -2
   6   4   7 7.20583 4.94525   1
   7   4   7 28.4034 3.73111   1
  -4   5   7 30.8805 3.51628   1
  -3   5   7 2.53376 2.88276   1
   2   6   8 95.9172 14.9249  -2
  -2   5   7 95.9172 14.9249   1
  -1   5   7 96.7899 3.39558   1
   0   5   7 166.627 4.77870  -2
   0   5   7 166.627 4.77870   1
   1   5   7 -1.0455 2.46370   1
   2   5   7 13.0487 2.54104   1
   3   5   7 33.2253 1.88210   1
   4   5   7 100.745 2.89320   1
   5   5   7 264.289 4.27989   1
  -6   1   4 89.8174 5.80318  -2
   6   5   7 89.8174 5.80318   1
   7   5   7 296.204 6.41312   1
  -3   6   7 42.4387 3.83474   1
   2   7   8 174.953 11.8204  -2
  -2   6   7 174.953 11.8204   1
  -1   6   7 190.866 5.40241   1
   0   6   7 779.726 9.30982  -2
   0   6   7 779.726 9.30982   1
   1   6   7 124.572 4.13056   1
   2   6   7 1.66680 2.66933   1
   3   6   7 33.4701 2.19583   1
   4   6   7 4.31868 2.00653   1
   5   6   7 -1.4653 2.11342   1
  -6   2   4 29.0260 4.78987  -2
   6   6   7 29.0260 4.78987   1
   7   6   7 -3.0054 2.93116   1
   2   8   8 -8.9591 8.84017  -2
  -2   7   7 -8.9591 8.84017   1
  -1   7   7 10.5261 3.02912   1
   0   7   7 11.4696 4.99529  -2
   0   7   7 11.4696 4.99529   1
   1   7   7 85.5758 3.91553   1
   2   7   7 2.79221 3.00529   1
   3   7   7 16.8721 3.09502   1
   4   7   7 19.4598 2.34275   1
   5   7   7 0.70400 2.35054   1
  -6   3   4 20.2416 6.32161  -2
   6   7   7 20.2416 6.32161   1
   7   7   7 14.9837 6.05213   1
  -1   8   7 53.9021 4.16063   1
   0   8   7 -2.1783 5.35030  -2
   0   8   7 -2.1783 5.35030   1
   1   8   7 17.3173 3.43574   1
  -2   7   6 109.560 32.0004  -2
   2   8   7 109.560 32.0004   1
   3   8   7 6.66381 3.25046   1
   4   8   7 8.08003 2.92692   1
   5   8   7 9.99018 3.13046   1
  -6   4   4 17.0599 5.67327  -2
   6   8   7 17.0599 5.67327   1
   0   9   7 -3.6571 6.35657  -2
   0   9   7 -3.6571 6.35657   1
   1   9   7 11.0702 3.69016   1
  -2   8   6 13.3874 10.0212  -2
   2   9   7 13.3874 10.0212   1
   3   9   7 2.83080 3.00321   1
   4   9   7 4.40746 3.01030   1
   5   9   7 6.95618 5.34486   1
  -3  -6   8 34.4266 5.61744   1
   2  -5   9 50.6323 13.8081  -2
  -2  -6   8 50.6323 13.8081   1
  -1  -6   8 5.72194 3.95329   1
   0  -6   8 58.0851 5.78880  -2
   0  -6   8 58.0851 5.78880   1
   1  -6   8 43.5607 3.93245   1
   2  -6   8 8.88067 4.10981   1
  -4  -5   8 3.80517 4.36811   1
  -3  -5   8 -3.9433 4.34602   1
   2  -4   9 100.311 17.9575  -2
  -2  -5   8 100.311 17.9575   1
  -1  -5   8 6.90274 3.69185   1
   0  -5   8 196.071 5.30992  -2
   0  -5   8 196.071 5.30992   1
   1  -5   8 12.2984 3.07481   1
   2  -5   8 12.2798 2.45995   1
   3  -5   8 22.1192 2.73036   1
   4  -5   8 5.70220 6.71796   1
  -4  -4   8 28.1315 3.84466   1
  -3  -4   8 19.7847 4.57091   1
  -2  -4   8 6.33566 4.07742   1
  -1  -4   8 175.669 6.14436   1
   0  -4   8 336.244 5.91162  -2
   0  -4   8 336.244 5.91162   1
   1  -4   8 34.0191 3.20937   1
   2  -4   8 51.5773 2.94216   1
   3  -4   8 4.38420 2.46558   1
   4  -4   8 120.127 4.49000   1
  -5  -3   8 -5.8291 3.99656   1
  -4  -3   8 0.99644 3.29899   1
  -3  -3   8 406.853 7.35063   1
  -2  -3   8 94.3291 4.48717   1
  -1  -3   8 74.4423 4.14501   1
   0  -3   8 206.118 4.59386  -2
   0  -3   8 206.118 4.59386   1
   1  -3   8 34.6863 2.96387   1
  -2  -4   7 62.7577 24.2234  -2
   2  -3   8 62.7577 24.2234   1
   3  -3   8 27.5299 2.30079   1
   4  -3   8 51.9627 3.41470   1
   5  -3   8 7.75824 3.00450   1
  -5  -2   8 266.846 7.39586   1
  -4  -2   8 0.58542 3.16489   1
  -3  -2   8 6.30504 3.04292   1
   2  -1   9 75.1049 14.1595  -2
  -2  -2   8 75.1049 14.1595   1
  -1  -2   8 168.084 5.47899   1
   0  -2   8 383.258 5.71148  -2
   0  -2   8 383.258 5.71148   1
   1  -2   8 53.1148 2.94904   1
   2  -2   8 29.3217 2.73390   1
   3  -2   8 5.84492 1.98045   1
   4  -2   8 20.7271 2.33721   1
   5  -2   8 -4.0083 3.10730   1
  -6  -6   5 4.26137 5.69233  -2
   6  -2   8 4.26137 5.69233   1
  -5  -1   8 7.24453 2.87122   1
  -4  -1   8 22.2075 2.89037   1
  -3  -1   8 -0.3529 2.80429   1
   2   0   9 303.917 19.6898  -2
  -2  -1   8 303.917 19.6898   1
  -1  -1   8 6.84142 2.79092   1
   0  -1   8 6.72601 2.81931  -2
   0  -1   8 6.72601 2.81931   1
   1  -1   8 25.6890 1.71730   1
   2  -1   8 5.07940 1.66230   1
   3  -1   8 77.6046 2.79204   1
   4  -1   8 132.843 3.47701   1
   5  -1   8 5.04667 3.13042   1
  -6  -5   5 249.548 7.25935  -2
   6  -1   8 249.548 7.25935   1
  -5   0   8 49.2764 3.20565   1
  -4   0   8 78.9117 3.19831   1
  -3   0   8 7.94058 2.60054   1
   2   1   9 19.3650 20.7920  -2
  -2   0   8 19.3650 20.7920   1
  -1   0   8 227.171 3.93533   1
   0   0   8 94.1560 3.47722  -2
   0   0   8 94.1560 3.47722   1
   1   0   8 254.334 4.13017   1
   2   0   8 124.483 2.82736   1
   3   0   8 3.79379 1.55713   1
   4   0   8 39.9689 2.01333   1
   5   0   8 21.0509 2.47225   1
  -6  -4   5 11.5274 5.38882  -2
   6   0   8 11.5274 5.38882   1
   7   0   8 4.13585 3.82705   1
  -5   1   8 2.03942 3.28367   1
  -4   1   8 19.3670 2.60625   1
  -3   1   8 3.83486 2.55211   1
   2   2   9 95.5894 22.9234  -2
  -2   1   8 95.5894 22.9234   1
  -1   1   8 55.8660 2.36544   1
   0   1   8 335.388 5.24410  -2
   0   1   8 335.388 5.24410   1
   1   1   8 33.8346 1.83023   1
   2   1   8 7.12160 1.36630   1
   3   1   8 4.96275 1.57247   1
   4   1   8 73.8195 2.44361   1
   5   1   8 23.3314 2.61110   1
  -6  -3   5 51.2233 6.37313  -2
   6   1   8 51.2233 6.37313   1
   7   1   8 239.593 5.82024   1
  -4   2   8 3.77127 2.79872   1
  -3   2   8 134.782 5.05222   1
   2   3   9 33.6281 11.3711  -2
  -2   2   8 33.6281 11.3711   1
  -1   2   8 56.7501 3.12650   1
   0   2   8 322.319 5.32308  -2
   0   2   8 322.319 5.32308   1
   1   2   8 80.4635 2.53760   1
   2   2   8 84.6475 2.42433   1
   3   2   8 43.2128 2.32995   1
   4   2   8 3.78416 1.82541   1
   5   2   8 8.47351 1.86290   1
  -6  -2   5 25.1948 5.93298  -2
   6   2   8 25.1948 5.93298   1
   7   2   8 -2.6477 2.87882   1
  -4   3   8 0.68704 2.86511   1
  -3   3   8 9.04697 2.80084   1
   2   4   9 59.8858 9.61715  -2
  -2   3   8 59.8858 9.61715   1
  -1   3   8 88.3203 2.64774   1
   0   3   8 102.772 4.58785  -2
   0   3   8 102.772 4.58785   1
   1   3   8 125.368 3.49383   1
   2   3   8 5.50956 1.84464   1
   3   3   8 235.960 3.82576   1
   4   3   8 14.8976 2.00851   1
   5   3   8 89.7045 2.96422   1
  -6  -1   5 21.1809 5.09457  -2
   6   3   8 21.1809 5.09457   1
   7   3   8 58.2248 4.22399   1
  -4   4   8 3.87506 3.21873   1
  -3   4   8 22.7458 3.29504   1
   2   5   9 54.0913 10.0968  -2
  -2   4   8 54.0913 10.0968   1
  -1   4   8 75.5086 3.69810   1
   0   4   8 200.323 3.79646  -2
   0   4   8 200.323 3.79646   1
   1   4   8 12.9001 1.95340   1
   2   4   8 -1.5560 1.71731   1
   3   4   8 92.2229 2.65302   1
   4   4   8 -0.3322 2.09215   1
   5   4   8 103.540 3.08316   1
  -6   0   5 115.225 6.00626  -2
   6   4   8 115.225 6.00626   1
   7   4   8 4.36559 3.73280   1
  -3   5   8 15.3615 3.65629   1
   2   6   9 -3.2135 8.51125  -2
  -2   5   8 -3.2135 8.51125   1
  -1   5   8 5.29600 2.82390   1
   0   5   8 7.62197 4.53799  -2
   0   5   8 7.62197 4.53799   1
   1   5   8 52.5766 3.30910   1
   2   5   8 115.787 4.52461   1
   3   5   8 15.2417 2.66630   1
   4   5   8 61.1236 3.24423   1
   5   5   8 5.81391 2.43812   1
  -6   1   5 58.7611 5.99559  -2
   6   5   8 58.7611 5.99559   1
   7   5   8 25.9691 4.25052   1
   2   7   9 8.50544 7.27311  -2
  -2   6   8 8.50544 7.27311   1
  -1   6   8 177.050 6.35714   1
   0   6   8 101.641 4.78565  -2
   0   6   8 101.641 4.78565   1
   1   6   8 -2.4581 3.01827   1
   2   6   8 53.5056 3.55395   1
   3   6   8 31.2643 3.18517   1
   4   6   8 53.5220 3.40989   1
   5   6   8 3.63402 2.79038   1
  -6   2   5 54.4444 6.39351  -2
   6   6   8 54.4444 6.39351   1
  -2   7   8 2.86007 8.93079   1
  -1   7   8 6.88486 3.63131   1
   0   7   8 31.4761 5.34899  -2
   0   7   8 31.4761 5.34899   1
   1   7   8 -2.4669 3.19089   1
  -2   6   7 85.0741 10.8172  -2
   2   7   8 85.0741 10.8172   1
   3   7   8 4.32731 3.11545   1
   4   7   8 -0.0429 3.01122   1
   5   7   8 39.7556 3.88481   1
  -6   3   5 10.1206 6.47392  -2
   6   7   8 10.1206 6.47392   1
   0   8   8 214.773 7.08069  -2
   0   8   8 214.773 7.08069   1
   1   8   8 96.7061 4.94918   1
  -2   7   7 16.1392 9.36879  -2
   2   8   8 16.1392 9.36879   1
   3   8   8 12.3764 3.51765   1
   4   8   8 58.1487 3.53960   1
   5   8   8 -3.1328 3.61811   1
   2   9   8 8.02376 4.09641   1
   3   9   8 20.6669 4.31611   1
   4   9   8 55.3443 9.95696   1
  -2  -5   9 26.8920 7.23631   1
  -1  -5   9 67.6538 5.33173   1
   0  -5   9 15.1053 5.25209  -2
   0  -5   9 15.1053 5.25209   1
   1  -5   9 3.73379 4.05230   1
   2  -5   9 5.92459 3.50205   1
  -3  -4   9 5.76004 4.18791   1
   2  -3  10 100.592 18.1914  -2
  -2  -4   9 100.592 18.1914   1
  -1  -4   9 44.6014 4.40400   1
   0  -4   9 22.1651 5.44121  -2
   0  -4   9 22.1651 5.44121   1
   1  -4   9 133.788 5.77359   1
   2  -4   9 11.9134 2.64556   1
   3  -4   9 30.4640 2.98052   1
  -4  -3   9 7.55534 4.27875   1
  -3  -3   9 35.3598 3.80077   1
   2  -2  10 53.8247 13.0486  -2
  -2  -3   9 53.8247 13.0486   1
  -1  -3   9 24.5754 3.86992   1
   0  -3   9 350.871 7.55006  -2
   0  -3   9 350.871 7.55006   1
   1  -3   9 0.12720 2.75445   1
   2  -3   9 95.8635 4.03375   1
   3  -3   9 41.7022 2.99683   1
   4  -3   9 -0.1643 2.99728   1
  -4  -2   9 5.56333 3.49164   1
  -3  -2   9 30.7613 3.60425   1
   2  -1  10 102.512 8.93300  -2
  -2  -2   9 102.512 8.93300   1
  -1  -2   9 221.628 5.97461   1
   0  -2   9 461.090 8.18309  -2
   0  -2   9 461.090 8.18309   1
   1  -2   9 65.2185 4.37216   1
   2  -2   9 67.2374 4.27267   1
   3  -2   9 278.849 5.29401   1
   4  -2   9 14.2897 3.63987   1
   5  -2   9 3.40359 3.44142   1
  -4  -1   9 -0.4614 3.35352   1
  -3  -1   9 144.402 4.40321   1
   2   0  10 51.0196 7.20043  -2
  -2  -1   9 51.0196 7.20043   1
  -1  -1   9 75.0873 2.91288   1
   0  -1   9 6.75419 3.12361  -2
   0  -1   9 6.75419 3.12361   1
   1  -1   9 83.3392 4.00376   1
   2  -1   9 144.463 4.93866   1
   3  -1   9 50.1830 3.29262   1
   4  -1   9 26.2602 2.94974   1
   5  -1   9 5.14318 3.54260   1
   6  -1   9 -5.3908 6.88893   1
  -4   0   9 2.07739 3.11110   1
  -3   0   9 38.3215 3.65262   1
   2   1  10 96.8672 16.1753  -2
  -2   0   9 96.8672 16.1753   1
  -1   0   9 158.349 3.84803   1
   0   0   9 253.955 4.97027  -2
   0   0   9 253.955 4.97027   1
   1   0   9 113.676 4.39115   1
   2   0   9 349.858 4.83928   1
   3   0   9 41.4937 2.35160   1
   4   0   9 49.8010 2.53878   1
   5   0   9 1.69822 2.46110   1
  -6  -4   6 85.5359 6.72466  -2
   6   0   9 85.5359 6.72466   1
  -4   1   9 1.20768 3.23083   1
  -3   1   9 68.7180 3.91330   1
   2   2  10 41.4259 9.72597  -2
  -2   1   9 41.4259 9.72597   1
  -1   1   9 31.2795 2.97420   1
   0   1   9 2.45595 3.47487  -2
   0   1   9 2.45595 3.47487   1
   1   1   9 54.6149 2.87281   1
   2   1   9 18.6906 2.17381   1
   3   1   9 9.12604 2.11463   1
   4   1   9 423.520 5.12036   1
   5   1   9 26.5508 2.85771   1
  -6  -3   6 154.496 7.13392  -2
   6   1   9 154.496 7.13392   1
  -4   2   9 25.0883 4.21189   1
  -3   2   9 13.6881 3.49937   1
   2   3  10 69.9273 9.65499  -2
  -2   2   9 69.9273 9.65499   1
  -1   2   9 23.4804 3.14088   1
   0   2   9 166.315 4.76174  -2
   0   2   9 166.315 4.76174   1
   1   2   9 621.013 6.64453   1
   2   2   9 6.43224 2.50362   1
   3   2   9 92.5585 2.99202   1
   4   2   9 -0.6258 2.10880   1
   5   2   9 29.6493 2.86364   1
  -6  -2   6 16.4668 7.89206  -2
   6   2   9 16.4668 7.89206   1
  -3   3   9 -2.0098 2.98595   1
   2   4  10 26.1563 10.2154  -2
  -2   3   9 26.1563 10.2154   1
  -1   3   9 54.4248 3.58225   1
   0   3   9 24.7772 4.45758  -2
   0   3   9 24.7772 4.45758   1
   1   3   9 9.48024 2.27892   1
  -2   2   8 102.217 13.9352  -2
   2   3   9 102.217 13.9352   1
   3   3   9 -0.0820 2.39664   1
   4   3   9 59.7201 2.63427   1
   5   3   9 34.1779 2.61358   1
  -6  -1   6 31.7111 5.63689  -2
   6   3   9 31.7111 5.63689   1
  -3   4   9 22.1007 3.85408   1
   2   5  10 8.65027 10.5850  -2
  -2   4   9 8.65027 10.5850   1
  -1   4   9 -1.7814 3.08240   1
   0   4   9 164.529 5.31413  -2
   0   4   9 164.529 5.31413   1
   1   4   9 38.0793 2.43102   1
   2   4   9 94.1956 3.16847   1
   3   4   9 1.18679 2.04047   1
   4   4   9 25.1288 2.53494   1
   5   4   9 17.3964 2.59776   1
  -6   0   6 86.5093 6.17635  -2
   6   4   9 86.5093 6.17635   1
   2   6  10 -14.386 7.49059  -2
  -2   5   9 -14.386 7.49059   1
  -1   5   9 2.73327 3.31000   1
   0   5   9 11.0228 4.87096  -2
   0   5   9 11.0228 4.87096   1
   1   5   9 28.5876 3.38531   1
   2   5   9 7.36804 3.26609   1
   3   5   9 4.29110 2.63406   1
   4   5   9 -1.7112 2.83406   1
   5   5   9 17.5881 3.03912   1
  -6   1   6 13.6118 6.21593  -2
   6   5   9 13.6118 6.21593   1
  -1   6   9 10.3529 3.30663   1
   0   6   9 228.074 6.43753  -2
   0   6   9 228.074 6.43753   1
   1   6   9 59.0704 3.89348   1
  -2   5   8 -2.5750 10.4382  -2
   2   6   9 -2.5750 10.4382   1
   3   6   9 39.1453 3.40960   1
   4   6   9 8.66018 3.21240   1
   5   6   9 11.6317 3.60120   1
  -6   2   6 121.081 13.7434  -2
   6   6   9 121.081 13.7434   1
  -1   7   9 18.9007 9.10835   1
   0   7   9 81.6403 5.95384  -2
   0   7   9 81.6403 5.95384   1
   1   7   9 5.46595 3.56773   1
  -2   6   8 -1.9364 9.66411  -2
   2   7   9 -1.9364 9.66411   1
   3   7   9 1.04833 3.34943   1
   4   7   9 -0.7430 3.33520   1
   5   7   9 -0.9332 3.73660   1
   1   8   9 102.715 6.49927   1
   2   8   9 32.6282 5.95239   1
   3   8   9 2.03738 3.62827   1
   4   8   9 5.92092 4.85605   1
  -1  -4  10 5.47514 4.46313   1
   0  -4  10 102.883 7.63530  -2
   0  -4  10 102.883 7.63530   1
   1  -4  10 110.833 5.72344   1
   2  -4  10 42.3501 5.82716   1
   2  -2  11 -18.539 14.0066  -2
  -2  -3  10 -18.539 14.0066   1
  -1  -3  10 4.19359 3.97378   1
   0  -3  10 16.8757 6.16468  -2
   0  -3  10 16.8757 6.16468   1
   1  -3  10 18.2563 4.38231   1
   2  -3  10 7.15876 3.92584   1
   3  -3  10 36.0687 3.58330   1
  -3  -2  10 -0.0762 4.99264   1
   2  -1  11 24.0569 10.8227  -2
  -2  -2  10 24.0569 10.8227   1
  -1  -2  10 9.88928 3.91190   1
   0  -2  10 4.30915 5.23168  -2
   0  -2  10 4.30915 5.23168   1
   1  -2  10 16.6208 3.73940   1
  -2  -3   9 30.5423 27.8951  -2
   2  -2  10 30.5423 27.8951   1
   3  -2  10 103.203 5.25455   1
   4  -2  10 22.3842 4.11749   1
  -3  -1  10 55.4850 4.14932   1
   2   0  11 62.8954 10.3310  -2
  -2  -1  10 62.8954 10.3310   1
  -1  -1  10 -0.6008 3.42888   1
   0  -1  10 311.273 7.13816  -2
   0  -1  10 311.273 7.13816   1
   1  -1  10 11.9168 3.63813   1
  -2  -2   9 19.0769 14.1460  -2
   2  -1  10 19.0769 14.1460   1
   3  -1  10 74.9605 3.63672   1
   4  -1  10 9.19201 2.87680   1
   5  -1  10 29.2370 5.72753   1
  -3   0  10 1.53897 3.51840   1
   2   1  11 17.9572 9.61785  -2
  -2   0  10 17.9572 9.61785   1
  -1   0  10 81.7078 3.71782   1
   0   0  10 17.1342 5.20210  -2
   0   0  10 17.1342 5.20210   1
   1   0  10 0.60435 3.52087   1
   2   0  10 143.218 4.47801   1
   3   0  10 57.7244 3.40144   1
   4   0  10 2.54727 2.72811   1
   5   0  10 9.67582 3.47515   1
  -3   1  10 10.8455 3.63743   1
   2   2  11 15.0373 9.84867  -2
  -2   1  10 15.0373 9.84867   1
  -1   1  10 15.4328 3.24574   1
   0   1  10 -2.9827 5.10965  -2
   0   1  10 -2.9827 5.10965   1
   1   1  10 22.1304 3.74776   1
   2   1  10 54.4250 2.72008   1
   3   1  10 350.892 5.21600   1
   4   1  10 48.5395 2.85893   1
   5   1  10 4.99231 2.77591   1
  -3   2  10 -4.4197 3.92336   1
   2   3  11 39.6889 9.50881  -2
  -2   2  10 39.6889 9.50881   1
  -1   2  10 38.0333 3.59022   1
   0   2  10 62.8346 4.46372  -2
   0   2  10 62.8346 4.46372   1
   1   2  10 -1.0751 2.74718   1
   2   2  10 9.82795 2.83128   1
   3   2  10 19.7189 2.53761   1
   4   2  10 39.6373 3.03204   1
   5   2  10 2.15728 2.81245   1
   6   2  10 6.59680 6.98570   1
   2   4  11 23.4852 9.59767  -2
  -2   3  10 23.4852 9.59767   1
  -1   3  10 12.5997 3.42721   1
   0   3  10 -3.9314 4.72504  -2
   0   3  10 -3.9314 4.72504   1
   1   3  10 1.07825 2.61511   1
  -2   2   9 49.1284 14.9245  -2
   2   3  10 49.1284 14.9245   1
   3   3  10 7.57586 2.81301   1
   4   3  10 31.4433 2.72997   1
   5   3  10 1.76419 2.86178   1
   2   5  11 16.1753 9.73366  -2
  -2   4  10 16.1753 9.73366   1
  -1   4  10 14.5849 3.55948   1
   0   4  10 15.2763 4.80889  -2
   0   4  10 15.2763 4.80889   1
   1   4  10 -2.3492 2.98668   1
  -2   3   9 -36.636 13.4853  -2
   2   4  10 -36.636 13.4853   1
   3   4  10 7.66177 2.87290   1
   4   4  10 21.3615 2.69447   1
   5   4  10 28.1089 2.92492   1
   6   4  10 9.04565 7.00128   1
  -1   5  10 3.92003 3.61302   1
   0   5  10 42.2264 5.33444  -2
   0   5  10 42.2264 5.33444   1
   1   5  10 29.8722 3.62539   1
  -2   4   9 1.70983 11.2458  -2
   2   5  10 1.70983 11.2458   1
   3   5  10 4.19131 3.74428   1
   4   5  10 -0.6920 3.48323   1
   5   5  10 32.3326 3.43353   1
   0   6  10 26.4557 6.52321  -2
   0   6  10 26.4557 6.52321   1
   1   6  10 7.35795 3.65125   1
  -2   5   9 -5.4258 11.9543  -2
   2   6  10 -5.4258 11.9543   1
   3   6  10 -4.9466 3.77406   1
   4   6  10 23.5894 4.07293   1
   5   6  10 115.955 8.05296   1
   1   7  10 -3.7117 4.32829   1
   2   7  10 0.74884 4.07549   1
   3   7  10 9.92226 4.90057   1
   4   7  10 3.43247 8.45765   1
  -1  -2  11 13.2792 5.25707   1
   0  -2  11 -11.019 5.40419  -2
   0  -2  11 -11.019 5.40419   1
   1  -2  11 47.7270 4.52697   1
  -2  -3  10 -39.722 33.0817  -2
   2  -2  11 -39.722 33.0817   1
  -1  -1  11 0.14646 4.42443   1
   0  -1  11 65.0990 5.78483  -2
   0  -1  11 65.0990 5.78483   1
   1  -1  11 -2.8548 3.91865   1
  -2  -2  10 -4.4924 14.0588  -2
   2  -1  11 -4.4924 14.0588   1
   3  -1  11 7.19026 3.69801   1
  -1   0  11 10.8047 4.56382   1
   0   0  11 2.75358 5.77029  -2
   0   0  11 2.75358 5.77029   1
   1   0  11 2.68572 3.86601   1
  -2  -1  10 -0.7346 15.4143  -2
   2   0  11 -0.7346 15.4143   1
   3   0  11 50.9219 4.17096   1
   4   0  11 74.4977 5.26854   1
  -1   1  11 1.68330 4.39615   1
   0   1  11 19.7052 6.12027  -2
   0   1  11 19.7052 6.12027   1
   1   1  11 -5.8596 3.74884   1
   2   1  11 10.3887 3.28473   1
   3   1  11 -6.2163 2.99436   1
   4   1  11 25.9726 3.43750   1
  -1   2  11 6.67401 4.31346   1
   0   2  11 2.62034 5.95901  -2
   0   2  11 2.62034 5.95901   1
   1   2  11 5.36842 3.06035   1
   2   2  11 20.6750 3.42452   1
   3   2  11 -3.8579 3.02429   1
   4   2  11 37.6134 3.83388   1
  -1   3  11 6.81479 4.31275   1
   0   3  11 20.8613 6.11578  -2
   0   3  11 20.8613 6.11578   1
   1   3  11 27.4842 5.03491   1
  -2   2  10 28.4835 11.7375  -2
   2   3  11 28.4835 11.7375   1
   3   3  11 56.7358 3.64707   1
   4   3  11 51.9030 3.43229   1
   0   4  11 62.5264 6.54002  -2
   0   4  11 62.5264 6.54002   1
   1   4  11 24.0881 4.41461   1
  -2   3  10 11.5053 11.6099  -2
   2   4  11 11.5053 11.6099   1
   3   4  11 44.3552 5.03944   1
   4   4  11 3.77351 3.49995   1
   1   5  11 10.8683 5.05561   1
  -2   4  10 -4.2168 12.0345  -2
   2   5  11 -4.2168 12.0345   1
   3   5  11 25.1016 4.34061   1
   4   5  11 0.04957 6.34474   1
   0   0   0    0.00    0.00   0
;
_shelx_hkl_checksum              18039
loop_
_space_group_symop_operation_xyz
'x, y, z'
'-x, -y, -z'
loop_
_atom_site_type_symbol
_atom_site_label
_atom_site_fract_x
_atom_site_fract_y
_atom_site_fract_z
_atom_site_U_iso_or_equiv
_atom_site_adp_type
_atom_site_calc_flag
_atom_site_refinement_flags_adp
_atom_site_refinement_flags_posn
_atom_site_occupancy
O O1 -0.4390(2) 0.37928(19) -0.30075(16) 0.0316(4) Uani d . . 1
O O2 -0.1579(2) 0.42602(17) -0.40245(15) 0.0247(4) Uani d . . 1
O O3 -0.3319(2) 0.27606(19) -0.01171(15) 0.0288(4) Uani d . . 1
O O4 0.0180(2) 0.07117(18) 0.66297(15) 0.0276(4) Uani d . . 1
N N1 0.2919(3) 0.2705(2) -0.03151(18) 0.0182(4) Uani d . . 1
H H1 0.402(4) 0.288(3) -0.051(2) 0.026(7) Uiso d . . 1
N N2 0.2379(3) 0.0866(2) 0.39297(18) 0.0193(4) Uani d . . 1
H H2 0.149(3) 0.037(3) 0.391(2) 0.024(6) Uiso d . . 1
C C1 0.1424(3) 0.3484(2) -0.0925(2) 0.0167(5) Uani d . . 1
H H1A 0.143461 0.429259 -0.162283 0.02 Uiso calc U R 1
C C2 -0.0138(3) 0.2900(2) -0.0356(2) 0.0172(5) Uani d . . 1
C C3 0.0508(3) 0.1707(2) 0.0649(2) 0.0191(5) Uani d . . 1
H H3 -0.024046 0.109006 0.12102 0.023 Uiso calc U R 1
C C4 0.2389(3) 0.1616(2) 0.0657(2) 0.0167(5) Uani d . . 1
C C5 0.3781(3) 0.0603(2) 0.1511(2) 0.0199(5) Uani d . . 1
H H5A 0.352018 -0.040929 0.166723 0.024 Uiso calc U R 1
H H5B 0.508866 0.050694 0.100079 0.024 Uiso calc U R 1
C C6 0.3716(3) 0.1130(2) 0.2857(2) 0.0183(5) Uani d . . 1
C C7 0.4864(3) 0.1886(2) 0.3271(2) 0.0216(5) Uani d . . 1
H H7 0.590496 0.222325 0.272519 0.026 Uiso calc U R 1
C C8 0.4209(3) 0.2066(2) 0.4646(2) 0.0217(5) Uani d . . 1
H H8 0.473177 0.254431 0.520307 0.026 Uiso calc U R 1
C C9 0.2671(3) 0.1423(2) 0.5046(2) 0.0193(5) Uani d . . 1
C C10 0.1564(3) 0.1278(2) 0.6341(2) 0.0226(5) Uani d . . 1
H H10 0.192237 0.165393 0.70554 0.027 Uiso calc U R 1
C C11 -0.2048(3) 0.3379(2) -0.0684(2) 0.0185(5) Uani d . . 1
C C12 -0.2537(3) 0.4706(2) -0.1750(2) 0.0220(5) Uani d . . 1
H H12A -0.365897 0.546102 -0.136352 0.026 Uiso calc U R 1
H H12B -0.144727 0.518586 -0.201495 0.026 Uiso calc U R 1
C C13 -0.2970(3) 0.4203(2) -0.2973(2) 0.0220(5) Uani d . . 1
C C14 -0.1856(3) 0.3793(3) -0.5268(2) 0.0295(6) Uani d . . 1
H H14A -0.198799 0.275353 -0.510292 0.044 Uiso calc U R 1
H H14B -0.075076 0.385768 -0.596784 0.044 Uiso calc U R 1
H H14C -0.301461 0.445224 -0.557428 0.044 Uiso calc U R 1
loop_
_atom_site_aniso_label
_atom_site_aniso_U_11
_atom_site_aniso_U_22
_atom_site_aniso_U_33
_atom_site_aniso_U_12
_atom_site_aniso_U_13
_atom_site_aniso_U_23
O1 0.0233(9) 0.0494(11) 0.0275(9) -0.0184(8) -0.0072(7) 0.0008(8)
O2 0.0212(9) 0.0321(9) 0.0218(9) -0.0096(7) -0.0045(7) 0.0012(7)
O3 0.0143(9) 0.0445(11) 0.0286(9) -0.0137(7) -0.0069(7) 0.0099(8)
O4 0.0276(9) 0.0346(10) 0.0241(9) -0.0158(8) -0.0038(7) 0.0006(7)
N1 0.0096(10) 0.0256(11) 0.0208(10) -0.0065(8) -0.0029(8) -0.0022(8)
N2 0.0162(10) 0.0226(10) 0.0206(10) -0.0071(8) -0.0050(8) -0.0003(8)
C1 0.0137(11) 0.0203(11) 0.0170(11) -0.0042(9) -0.0042(8) -0.0022(9)
C2 0.0136(11) 0.0228(12) 0.0153(11) -0.0048(9) -0.0018(8) -0.0024(9)
C3 0.0154(12) 0.0262(12) 0.0161(11) -0.0079(9) -0.0024(9) 0.0014(9)
C4 0.0163(12) 0.0205(12) 0.0134(11) -0.0040(9) -0.0027(9) -0.0021(9)
C5 0.0153(11) 0.0239(12) 0.0196(12) -0.0023(9) -0.0050(9) -0.0010(9)
C6 0.0132(11) 0.0203(12) 0.0189(12) 0.0004(9) -0.0061(9) 0.0027(9)
C7 0.0173(12) 0.0249(12) 0.0233(12) -0.0079(9) -0.0065(9) 0.0045(10)
C8 0.0222(12) 0.0209(12) 0.0241(13) -0.0063(9) -0.0094(9) 0.0009(10)
C9 0.0202(12) 0.0193(12) 0.0201(12) -0.0048(9) -0.0083(9) -0.0007(9)
C10 0.0240(13) 0.0229(12) 0.0227(12) -0.0061(10) -0.0081(10) -0.0015(10)
C11 0.0129(11) 0.0254(12) 0.0177(11) -0.0054(9) -0.0025(9) -0.0024(9)
C12 0.0179(12) 0.0237(12) 0.0249(12) -0.0057(9) -0.0077(9) 0.0025(10)
C13 0.0168(12) 0.0239(12) 0.0236(13) -0.0048(10) -0.0061(9) 0.0066(9)
C14 0.0287(14) 0.0390(15) 0.0219(13) -0.0106(11) -0.0059(10) 0.0003(11)
loop_
_atom_type_symbol
_atom_type_description
_atom_type_scat_dispersion_real
_atom_type_scat_dispersion_imag
_atom_type_scat_source
C C 0.0033 0.0016 'International Tables Vol C Tables 4.2.6.8 and 6.1.1.4'
H H 0.0000 0.0000 'International Tables Vol C Tables 4.2.6.8 and 6.1.1.4'
N N 0.0061 0.0033 'International Tables Vol C Tables 4.2.6.8 and 6.1.1.4'
O O 0.0106 0.0060 'International Tables Vol C Tables 4.2.6.8 and 6.1.1.4'
loop_
_geom_angle_atom_site_label_1
_geom_angle_atom_site_label_2
_geom_angle_atom_site_label_3
_geom_angle
C13 O2 C14 115.92(17)
C1 N1 C4 110.43(18)
C1 N1 H1 123.8(17)
C4 N1 H1 125.7(17)
C6 N2 C9 109.25(18)
C6 N2 H2 124.8(15)
C9 N2 H2 125.9(15)
N1 C1 C2 107.99(18)
N1 C1 H1A 126.0
C2 C1 H1A 126.0
C1 C2 C3 106.47(18)
C1 C2 C11 127.85(19)
C3 C2 C11 125.68(19)
C4 C3 C2 107.65(19)
C4 C3 H3 126.2
C2 C3 H3 126.2
C3 C4 N1 107.46(18)
C3 C4 C5 131.1(2)
N1 C4 C5 121.45(18)
C6 C5 C4 114.37(17)
C6 C5 H5A 108.7
C4 C5 H5A 108.7
C6 C5 H5B 108.7
C4 C5 H5B 108.7
H5A C5 H5B 107.6
N2 C6 C7 108.30(19)
N2 C6 C5 120.97(19)
C7 C6 C5 130.7(2)
C6 C7 C8 107.28(19)
C6 C7 H7 126.4
C8 C7 H7 126.4
C9 C8 C7 107.79(19)
C9 C8 H8 126.1
C7 C8 H8 126.1
N2 C9 C8 107.37(19)
N2 C9 C10 123.40(19)
C8 C9 C10 129.2(2)
O4 C10 C9 126.1(2)
O4 C10 H10 116.9
C9 C10 H10 116.9
O3 C11 C2 122.03(19)
O3 C11 C12 118.39(18)
C2 C11 C12 119.57(18)
C13 C12 C11 110.71(18)
C13 C12 H12A 109.5
C11 C12 H12A 109.5
C13 C12 H12B 109.5
C11 C12 H12B 109.5
H12A C12 H12B 108.1
O1 C13 O2 124.2(2)
O1 C13 C12 124.5(2)
O2 C13 C12 111.37(18)
O2 C14 H14A 109.5
O2 C14 H14B 109.5
H14A C14 H14B 109.5
O2 C14 H14C 109.5
H14A C14 H14C 109.5
H14B C14 H14C 109.5
loop_
_geom_bond_atom_site_label_1
_geom_bond_atom_site_label_2
_geom_bond_distance
O1 C13 1.207(3)
O2 C13 1.334(3)
O2 C14 1.451(3)
O3 C11 1.229(2)
O4 C10 1.231(3)
N1 C1 1.344(3)
N1 C4 1.380(3)
N1 H1 0.84(3)
N2 C6 1.360(3)
N2 C9 1.378(3)
N2 H2 0.89(2)
C1 C2 1.387(3)
C1 H1A 0.95
C2 C3 1.430(3)
C2 C11 1.440(3)
C3 C4 1.361(3)
C3 H3 0.95
C4 C5 1.500(3)
C5 C6 1.499(3)
C5 H5A 0.99
C5 H5B 0.99
C6 C7 1.378(3)
C7 C8 1.402(3)
C7 H7 0.95
C8 C9 1.379(3)
C8 H8 0.95
C9 C10 1.414(3)
C10 H10 0.95
C11 C12 1.522(3)
C12 C13 1.495(3)
C12 H12A 0.99
C12 H12B 0.99
C14 H14A 0.98
C14 H14B 0.98
C14 H14C 0.98
loop_
_geom_hbond_atom_site_label_D
_geom_hbond_atom_site_label_H
_geom_hbond_atom_site_label_A
_geom_hbond_site_symmetry_A
_geom_hbond_distance_DH
_geom_hbond_distance_HA
_geom_hbond_distance_DA
_geom_hbond_angle_DHA
N1 H1 O3 1_655 0.84(3) 2.03(3) 2.817(2) 154.(2)
N2 H2 O4 2_556 0.89(2) 1.97(2) 2.838(2) 165.(2)
loop_
_geom_torsion_atom_site_label_1
_geom_torsion_atom_site_label_2
_geom_torsion_atom_site_label_3
_geom_torsion_atom_site_label_4
_geom_torsion
C4 N1 C1 C2 -0.4(2)
N1 C1 C2 C3 0.1(2)
N1 C1 C2 C11 179.8(2)
C1 C2 C3 C4 0.2(2)
C11 C2 C3 C4 -179.5(2)
C2 C3 C4 N1 -0.4(2)
C2 C3 C4 C5 178.8(2)
C1 N1 C4 C3 0.5(2)
C1 N1 C4 C5 -178.78(18)
C3 C4 C5 C6 -84.2(3)
N1 C4 C5 C6 94.9(2)
C9 N2 C6 C7 -1.1(2)
C9 N2 C6 C5 178.16(18)
C4 C5 C6 N2 81.7(2)
C4 C5 C6 C7 -99.3(3)
N2 C6 C7 C8 0.8(2)
C5 C6 C7 C8 -178.3(2)
C6 C7 C8 C9 -0.2(2)
C6 N2 C9 C8 0.9(2)
C6 N2 C9 C10 -177.6(2)
C7 C8 C9 N2 -0.4(2)
C7 C8 C9 C10 178.0(2)
N2 C9 C10 O4 -3.2(4)
C8 C9 C10 O4 178.7(2)
C1 C2 C11 O3 179.2(2)
C3 C2 C11 O3 -1.1(3)
C1 C2 C11 C12 -1.8(3)
C3 C2 C11 C12 177.9(2)
O3 C11 C12 C13 -67.9(3)
C2 C11 C12 C13 113.1(2)
C14 O2 C13 O1 0.2(3)
C14 O2 C13 C12 179.94(18)
C11 C12 C13 O1 71.0(3)
C11 C12 C13 O2 -108.7(2)
