#------------------------------------------------------------------------------
#$Date: 2020-02-07 02:20:20 +0200 (Fri, 07 Feb 2020) $
#$Revision: 247923 $
#$URL: file:///home/coder/svn-repositories/cod/cif/4/03/78/4037895.cif $
#------------------------------------------------------------------------------
#
# This file is available in the Crystallography Open Database (COD),
# http://www.crystallography.net/
#
# All data on this site have been placed in the public domain by the
# contributors.
#
data_4037895
loop_
_publ_author_name
'Yang, Xiang'
'Yang, Qi-Liang'
'Wang, Xiang-Yang'
'Xu, Haohan'
'Mei, Tian-Sheng'
'Huang, Yan'
'Fang, Ping'
_publ_section_title
;
 Copper-Catalyzed Electrochemical Selective Bromination Of
 8-Aminoquinoline Amide Using NH4Br as the Brominating Reagent.
;
_journal_name_full               'The Journal of organic chemistry'
_journal_paper_doi               10.1021/acs.joc.9b03223
_journal_year                    2019
_chemical_formula_moiety         'C18 H15 Br2 N3 O'
_chemical_formula_sum            'C18 H15 Br2 N3 O'
_chemical_formula_weight         449.15
_space_group_crystal_system      triclinic
_space_group_IT_number           2
_space_group_name_Hall           '-P 1'
_space_group_name_H-M_alt        'P -1'
_atom_sites_solution_hydrogens   geom
_atom_sites_solution_primary     dual
_audit_creation_date             2019-11-26
_audit_creation_method
;
Olex2 1.2
(compiled 2018.05.29 svn.r3508 for OlexSys, GUI svn.r5506)
;
_cell_angle_alpha                94.8160(10)
_cell_angle_beta                 96.6100(10)
_cell_angle_gamma                103.8270(10)
_cell_formula_units_Z            2
_cell_length_a                   8.1864(2)
_cell_length_b                   9.8229(3)
_cell_length_c                   10.8563(3)
_cell_measurement_reflns_used    6785
_cell_measurement_temperature    173(2)
_cell_measurement_theta_max      54.99
_cell_measurement_theta_min      5.10
_cell_volume                     836.43(4)
_computing_cell_refinement       'SAINT v8.37A (Bruker, 2015)'
_computing_data_reduction        'SAINT v8.37A (Bruker, 2015)'
_computing_molecular_graphics    'Olex2 (Dolomanov et al., 2009)'
_computing_publication_material  'Olex2 (Dolomanov et al., 2009)'
_computing_structure_refinement  'ShelXL (Sheldrick, 2015)'
_computing_structure_solution    'ShelXT (Sheldrick, 2015)'
_diffrn_ambient_temperature      172.93
_diffrn_measured_fraction_theta_full 0.974
_diffrn_measured_fraction_theta_max 0.971
_diffrn_measurement_device_type  'Bruker D8 Venture'
_diffrn_measurement_method       '\f and \w scans'
_diffrn_radiation_type           GaK\a
_diffrn_radiation_wavelength     1.34139
_diffrn_reflns_av_R_equivalents  0.0333
_diffrn_reflns_av_unetI/netI     0.0382
_diffrn_reflns_Laue_measured_fraction_full 0.974
_diffrn_reflns_Laue_measured_fraction_max 0.971
_diffrn_reflns_limit_h_max       9
_diffrn_reflns_limit_h_min       -9
_diffrn_reflns_limit_k_max       10
_diffrn_reflns_limit_k_min       -11
_diffrn_reflns_limit_l_max       13
_diffrn_reflns_limit_l_min       -13
_diffrn_reflns_number            7691
_diffrn_reflns_point_group_measured_fraction_full 0.974
_diffrn_reflns_point_group_measured_fraction_max 0.971
_diffrn_reflns_theta_full        53.594
_diffrn_reflns_theta_max         54.974
_diffrn_reflns_theta_min         5.102
_diffrn_standards_number         0
_exptl_absorpt_coefficient_mu    4.294
_exptl_absorpt_correction_T_max  0.7508
_exptl_absorpt_correction_T_min  0.5105
_exptl_absorpt_correction_type   multi-scan
_exptl_absorpt_process_details
'SADABS-2016/2 (Bruker,2016/2) was used for absorption correction. wR2(int) was 0.1098 before and 0.0486 after correction. The Ratio of minimum to maximum transmission is 0.6799. The \l/2 correction factor is Not present.'
_exptl_crystal_colour            colourless
_exptl_crystal_density_diffrn    1.783
_exptl_crystal_description       block
_exptl_crystal_F_000             444
_exptl_crystal_size_max          0.15
_exptl_crystal_size_mid          0.08
_exptl_crystal_size_min          0.06
_refine_diff_density_max         0.400
_refine_diff_density_min         -0.647
_refine_diff_density_rms         0.072
_refine_ls_extinction_method     none
_refine_ls_goodness_of_fit_ref   1.102
_refine_ls_hydrogen_treatment    constr
_refine_ls_matrix_type           full
_refine_ls_number_parameters     219
_refine_ls_number_reflns         3095
_refine_ls_number_restraints     0
_refine_ls_restrained_S_all      1.102
_refine_ls_R_factor_all          0.0307
_refine_ls_R_factor_gt           0.0298
_refine_ls_shift/su_max          0.001
_refine_ls_shift/su_mean         0.000
_refine_ls_structure_factor_coef Fsqd
_refine_ls_weighting_details
'w=1/[\s^2^(Fo^2^)+(0.0327P)^2^+0.5782P] where P=(Fo^2^+2Fc^2^)/3'
_refine_ls_weighting_scheme      calc
_refine_ls_wR_factor_gt          0.0796
_refine_ls_wR_factor_ref         0.0804
_reflns_Friedel_coverage         0.000
_reflns_number_gt                2975
_reflns_number_total             3095
_reflns_threshold_expression     'I > 2\s(I)'
_cod_data_source_file            jo9b03223_si_002.cif
_cod_data_source_block           mj19758_0m
_cod_database_code               4037895
_shelx_shelxl_version_number     2016/6
_shelx_space_group_comment
;
The symmetry employed for this shelxl refinement is uniquely defined
by the following loop, which should always be used as a source of
symmetry information in preference to the above space-group names.
They are only intended as comments.
;
_shelx_estimated_absorpt_t_max   0.783
_shelx_estimated_absorpt_t_min   0.565
_olex2_refinement_description
;
1. Fixed Uiso
 At 1.2 times of:
  All C(H) groups, All N(H) groups
 At 1.5 times of:
  All C(H,H,H) groups
2.a Aromatic/amide H refined with riding coordinates:
 N2(H2), C1(H1), C2(H2A), C3(H3), C6(H6), C7(H7), C12(H12), C13(H13), C16(H16)
2.b Idealised Me refined as rotating group:
 C17(H17A,H17B,H17C), C18(H18A,H18B,H18C)
;
_shelx_res_file
;
TITL mj19758_0m_a.res in P-1
    mj19758_0m.res
    created by SHELXL-2016/6 at 10:32:16 on 26-Nov-2019
REM Old TITL mj19758_0m in P-1
REM SHELXT solution in P-1
REM R1 0.135, Rweak 0.007, Alpha 0.053, Orientation as input
REM Formula found by SHELXT: C19 N2 O Br2
CELL 1.34139 8.1864 9.8229 10.8563 94.816 96.61 103.827
ZERR 2 0.0002 0.0003 0.0003 0.001 0.001 0.001
LATT 1
SFAC C H Br N O
DISP Br -0.9502 1.041 8191.5115
DISP C 0.0148 0.007 57.7477
DISP H -0 0 0.6481
DISP N 0.0253 0.0136 110.5121
DISP O 0.0412 0.025 193.9543
UNIT 36 30 4 6 2

L.S. 4
PLAN  20
SIZE 0.06 0.08 0.15
TEMP -100.22
BOND $H
list 4
fmap 2
ACTA
REM <olex2.extras>
REM <HklSrc "%.\\mj19758_0m.hkl">
REM </olex2.extras>

WGHT    0.032700    0.578200
FVAR       1.18829
BR1   3    0.865378    0.794307    0.076129    11.00000    0.03910    0.05292 =
         0.04477    0.02150    0.00989    0.00260
BR2   3    0.617245   -0.086054    0.806809    11.00000    0.03351    0.03971 =
         0.03814    0.01318   -0.00438    0.01115
O1    5    0.793469    0.338384    0.543379    11.00000    0.02240    0.04779 =
         0.04017    0.01517   -0.00212    0.00476
N1    4    0.358476    0.454780    0.254943    11.00000    0.02441    0.03232 =
         0.03486    0.00552    0.00092    0.00627
N2    4    0.565255    0.371836    0.420424    11.00000    0.02173    0.03403 =
         0.03316    0.01119    0.00049    0.00501
AFIX  43
H2    2    0.453462    0.347995    0.408137    11.00000   -1.20000
AFIX   0
N3    4    0.213795   -0.130777    0.728492    11.00000    0.02840    0.04080 =
         0.03765    0.01328    0.00678    0.00700
C1    1    0.251741    0.496282    0.175785    11.00000    0.02382    0.03856 =
         0.04174    0.00719   -0.00155    0.00685
AFIX  43
H1    2    0.133652    0.457485    0.175397    11.00000   -1.20000
AFIX   0
C2    1    0.300917    0.594061    0.091940    11.00000    0.03170    0.04579 =
         0.03951    0.01270   -0.00258    0.01223
AFIX  43
H2A   2    0.217891    0.620989    0.037366    11.00000   -1.20000
AFIX   0
C3    1    0.470120    0.650234    0.089722    11.00000    0.03706    0.03792 =
         0.03029    0.00993    0.00228    0.00891
AFIX  43
H3    2    0.506062    0.715877    0.032788    11.00000   -1.20000
AFIX   0
C4    1    0.591068    0.609766    0.172890    11.00000    0.02940    0.03051 =
         0.02610    0.00287    0.00249    0.00763
C5    1    0.770624    0.661137    0.182652    11.00000    0.02831    0.03378 =
         0.03216    0.00561    0.00595    0.00403
C6    1    0.877343    0.619970    0.268288    11.00000    0.02445    0.03806 =
         0.03781    0.00534    0.00451    0.00455
AFIX  43
H6    2    0.996452    0.657280    0.272879    11.00000   -1.20000
AFIX   0
C7    1    0.815214    0.523210    0.350370    11.00000    0.02430    0.03581 =
         0.03545    0.00810   -0.00144    0.00624
AFIX  43
H7    2    0.892184    0.495704    0.409734    11.00000   -1.20000
AFIX   0
C8    1    0.642788    0.468059    0.344985    11.00000    0.02670    0.02855 =
         0.02916    0.00437    0.00145    0.00661
C9    1    0.528262    0.511156    0.255271    11.00000    0.02424    0.02657 =
         0.02906    0.00266    0.00020    0.00672
C10   1    0.640366    0.309403    0.511338    11.00000    0.02562    0.03206 =
         0.02795    0.00442    0.00016    0.00759
C11   1    0.521838    0.200817    0.569298    11.00000    0.02472    0.03009 =
         0.02594    0.00262   -0.00028    0.00728
C12   1    0.345066    0.168545    0.544629    11.00000    0.02584    0.03600 =
         0.02927    0.00746    0.00123    0.01106
AFIX  43
H12   2    0.291813    0.219690    0.488977    11.00000   -1.20000
AFIX   0
C13   1    0.246890    0.063357    0.600062    11.00000    0.02128    0.03855 =
         0.03387    0.00865    0.00192    0.00921
AFIX  43
H13   2    0.126777    0.044768    0.581949    11.00000   -1.20000
AFIX   0
C14   1    0.316661   -0.018001    0.682509    11.00000    0.02774    0.03142 =
         0.02787    0.00499    0.00595    0.00902
C15   1    0.495155    0.018038    0.706805    11.00000    0.02908    0.03219 =
         0.02413    0.00379   -0.00154    0.01056
C16   1    0.594511    0.124247    0.652822    11.00000    0.02207    0.03185 =
         0.02822    0.00241   -0.00230    0.00611
AFIX  43
H16   2    0.714616    0.145680    0.672856    11.00000   -1.20000
AFIX   0
C17   1    0.230200   -0.144678    0.861618    11.00000    0.05471    0.06299 =
         0.04395    0.02579    0.01640    0.01490
AFIX 137
H17A  2    0.336748   -0.080906    0.903613    11.00000   -1.50000
H17B  2    0.230571   -0.242222    0.874277    11.00000   -1.50000
H17C  2    0.134315   -0.120254    0.896510    11.00000   -1.50000
AFIX   0
C18   1    0.038720   -0.183251    0.667176    11.00000    0.02510    0.04823 =
         0.05926    0.01913    0.00874    0.00597
AFIX 137
H18A  2   -0.028352   -0.118013    0.692388    11.00000   -1.50000
H18B  2   -0.009890   -0.276629    0.691569    11.00000   -1.50000
H18C  2    0.036912   -0.190327    0.576423    11.00000   -1.50000
AFIX   0
HKLF 4




REM  mj19758_0m_a.res in P-1
REM R1 =  0.0298 for    2975 Fo > 4sig(Fo)  and  0.0307 for all    3095 data
REM    219 parameters refined using      0 restraints

END

WGHT      0.0327      0.5781

REM Highest difference peak  0.400,  deepest hole -0.647,  1-sigma level  0.072
Q1    1   0.9210  0.7159  0.0811  11.00000  0.05    0.40
Q2    1   0.5326 -0.0227  0.7294  11.00000  0.05    0.32
Q3    1   0.5748  0.0299  0.7949  11.00000  0.05    0.31
Q4    1   0.6417 -0.0136  0.8849  11.00000  0.05    0.28
Q5    1   0.5357  0.0510  0.6653  11.00000  0.05    0.27
Q6    1   0.6894  0.7698  0.1234  11.00000  0.05    0.27
Q7    1   0.2864  0.0417  0.6561  11.00000  0.05    0.27
Q8    1   0.9169  0.8693  0.1612  11.00000  0.05    0.25
Q9    1   0.5962 -0.2215  0.7526  11.00000  0.05    0.25
Q10   1   0.8955  0.9364  0.1195  11.00000  0.05    0.25
Q11   1   0.6588 -0.1959  0.8206  11.00000  0.05    0.25
Q12   1   0.7858 -0.0669  0.7621  11.00000  0.05    0.25
Q13   1   0.6860  0.0456  0.8640  11.00000  0.05    0.24
Q14   1   0.5760  0.2597  0.5389  11.00000  0.05    0.24
Q15   1   0.7234  0.8046  0.0049  11.00000  0.05    0.24
Q16   1   0.8048  0.8996  0.0586  11.00000  0.05    0.24
Q17   1   0.8176  0.6834  0.1382  11.00000  0.05    0.24
Q18   1   0.9660  0.9364  0.0985  11.00000  0.05    0.23
Q19   1   0.8108  0.7849  0.2034  11.00000  0.05    0.23
Q20   1   0.6774  0.6454  0.1771  11.00000  0.05    0.23
;
_shelx_res_checksum              29812
_shelx_hkl_file
;
  -2   0   0 1010.20   52.39
  -2   0   0 1107.69   52.19
  -2   0   0 1034.10   52.39
  -3   0   0  702.93   35.10
  -3   0   0  696.53   35.10
  -3   0   0  681.03   35.00
  -4   0   0 5476.45  268.87
  -4   0   0 5399.66  269.27
  -5   0   0  900.91   45.60
  -5   0   0  911.11   45.70
  -5   0   0  871.91   45.30
  -6   0   0   29.70    3.40
  -6   0   0   31.50    2.50
   6   0   0   29.90    3.20
  -7   0   0   40.30    4.10
  -7   0   0   32.10    3.70
  -7   0   0   30.30    3.70
  -7   0   0   33.20    3.80
   7   0   0   33.90    3.50
  -8   0   0 1717.23   85.39
  -8   0   0 1634.14   85.09
  -9   0   0   25.20    3.40
  -9   1   0    5.90    2.10
  -9   1   0    1.40    1.10
  -8   1   0 1265.57   68.39
  -8   1   0 1409.66   68.59
   7  -1   0 1351.56   68.79
  -7   1   0 1353.26   68.69
  -7   1   0 1340.87   68.89
   6  -1   0  587.14   31.10
  -6   1   0  592.64   31.70
  -6   1   0  572.54   30.80
  -6   1   0  600.14   31.20
   5  -1   0 2012.80  104.29
  -5   1   0 2143.39  104.29
  -5   1   0 2085.69  104.09
   4  -1   0 1096.99   59.99
  -4   1   0 1251.47   60.09
  -4   1   0 1295.77   60.19
  -4   1   0 1121.39   59.39
   3  -1   0 5400.76  280.77
  -3   1   0 6119.19  280.77
  -3   1   0 5508.85  280.37
  -2   1   0 1772.12   88.39
  -2  -1   0  874.21   44.20
  -2  -1   0  827.02   44.10
  -2  -1   0  952.60   44.20
  -3  -1   0  779.52   38.50
  -3  -1   0  800.22   38.30
  -3  -1   0  759.62   38.60
  -3  -1   0  715.13   38.30
  -4  -1   0 1115.79   58.89
  -4  -1   0 1237.88   59.19
  -4  -1   0 1176.58   59.29
  -5  -1   0 5398.06  261.37
  -5  -1   0 5375.56  261.07
  -5  -1   0 5020.10  260.57
  -6  -1   0  165.48    9.90
  -6  -1   0  155.48    9.40
  -6  -1   0  154.78   10.00
  -6  -1   0  147.99    8.80
  -6  -1   0  160.78    9.90
  -7  -1   0  609.14   34.20
  -7  -1   0  699.43   35.10
  -7  -1   0  681.33   34.90
  -7  -1   0  625.14   35.00
   7   1   0  665.33   35.00
  -8  -1   0   41.90    4.40
  -8  -1   0   35.90    4.20
   8   1   0   33.10    4.00
  -9  -1   0  967.30   51.09
  -9   2   0    4.20    2.00
  -9   2   0    1.30    1.20
  -8   2   0   28.00    5.70
  -8   2   0   20.70    3.90
  -8   2   0   31.70    3.60
   7  -2   0 1488.35   89.89
  -7   2   0 1795.92   86.99
  -7   2   0 1863.41   87.59
   5  -2   0  403.96   22.30
  -5   2   0  412.36   22.10
  -5   2   0  413.66   22.10
  -5   2   0  449.56   22.60
   4  -2   0   20.90    2.20
  -4   2   0   26.10    2.30
  -4   2   0   27.80    2.60
   2  -2   0 3329.47  165.18
  -2   2   0 3347.47  165.48
  -1   2   0 1258.07   62.59
   0  -2   0  188.48    9.10
   0  -2   0  173.38    9.10
   0  -2   0  166.58    9.10
   0   2   0  167.08    9.00
  -2  -2   0 1074.59   51.19
  -2  -2   0  974.70   50.69
  -2  -2   0 1000.40   50.49
  -2  -2   0 1008.60   50.79
  -3  -2   0   40.20    2.90
  -3  -2   0   47.00    3.20
  -3  -2   0   43.80    2.80
  -3  -2   0   39.70    3.10
  -4  -2   0  313.67   16.30
  -4  -2   0  303.57   16.40
  -4  -2   0  344.17   17.60
  -4  -2   0  309.27   16.80
  -4  -2   0  293.17   16.50
  -5  -2   0 3054.79  150.58
  -5  -2   0 2858.61  149.99
  -5  -2   0 3203.48  151.38
  -5  -2   0 2945.61  149.99
  -6  -2   0  195.98   12.20
  -6  -2   0  170.78   12.50
  -6  -2   0  202.98   11.80
  -6  -2   0  188.98   11.60
  -7  -2   0   47.50    4.90
  -7  -2   0   50.49    5.10
  -7  -2   0   48.30    5.10
   7   2   0   48.10    5.10
  -8  -2   0   55.39    5.20
   8   2   0   54.79    5.20
  -9   3   0   89.89    7.40
  -9   3   0   92.19    6.60
  -8   3   0  211.98   15.20
  -8   3   0  180.78   11.70
   7  -3   0 1168.38   59.49
  -7   3   0 1215.68   60.29
  -7   3   0 1107.69   59.29
   6  -3   0 1939.41   98.69
  -6   3   0 2057.19   99.19
  -6   3   0 1883.61   98.19
  -5   3   0    4.70    1.50
   4  -3   0 1122.29   57.29
  -4   3   0 1086.99   56.89
  -4   3   0 1195.08   57.69
   3  -3   0 2281.87  110.59
  -3   3   0 2227.58  111.29
  -3   3   0 2160.48  110.19
  -2   3   0 4850.01  240.08
   1  -3   0  685.83   36.50
   1  -3   0  768.52   36.60
   1  -3   0  728.73   36.40
   0  -3   0 2758.62  136.39
  -1  -3   0 1793.92   89.69
  -1  -3   0 1903.01   89.49
  -1  -3   0 1716.93   89.59
  -3  -3   0  207.78   10.60
  -3  -3   0  203.98   11.80
  -3  -3   0  187.28   10.90
  -3  -3   0  188.48   10.80
  -4  -3   0  990.80   51.79
  -4  -3   0 1038.00   52.39
  -4  -3   0 1049.79   51.89
  -4  -3   0 1005.50   52.19
  -4  -3   0 1066.89   53.49
  -5  -3   0   37.40    3.80
  -5  -3   0   35.50    4.30
  -6  -3   0 2629.74  129.29
  -6  -3   0 2691.43  129.39
  -6  -3   0 2399.16  128.29
  -6  -3   0 2561.24  130.59
  -7  -3   0   61.89    6.20
  -7  -3   0   70.29    6.10
  -7  -3   0   71.89    6.00
  -8  -3   0  152.78    9.80
   8   3   0  139.19    9.90
  -9   4   0    0.50    1.90
  -8   4   0   37.60    3.80
  -8   4   0   39.40    5.00
  -7   4   0  112.79    8.30
  -7   4   0   97.49    6.80
   6  -4   0 5107.59  258.07
  -6   4   0 4942.51  257.57
  -6   4   0 5532.95  259.07
   5  -4   0  207.98   12.50
  -5   4   0  210.08   12.00
  -5   4   0  244.38   13.30
   4  -4   0  393.56   21.10
  -4   4   0  414.16   21.60
  -4   4   0  386.76   20.40
   3  -4   0  701.13   36.60
  -3   4   0  739.13   37.10
  -2   4   0 3768.62  186.98
   1  -4   0  487.25   23.70
   1  -4   0  517.45   24.10
   1  -4   0  475.65   23.90
   1  -4   0  416.46   23.40
  -1   4   0  437.76   23.70
   0  -4   0 1073.99   54.29
   0  -4   0 1155.18   54.59
   0  -4   0  959.30   53.79
   0  -4   0 1144.59   54.39
   0  -4   0 1073.39   53.89
  -1  -4   0 1889.61   91.59
  -1  -4   0 1810.22   91.09
  -1  -4   0 1707.13   90.89
  -1  -4   0 1900.71   90.79
  -2  -4   0 3880.01  194.58
  -2  -4   0 3966.10  194.68
  -3  -4   0  293.57   16.40
  -3  -4   0  328.97   18.40
  -3  -4   0  286.97   16.30
  -3  -4   0  308.07   16.00
  -4  -4   0   10.00    2.90
  -4  -4   0   10.00    2.00
  -4  -4   0    8.00    1.80
  -4  -4   0    6.90    1.70
  -5  -4   0 3397.06  180.38
  -5  -4   0 3791.52  181.18
  -5  -4   0 3616.44  180.88
  -5  -4   0 3601.74  182.38
  -5  -4   0 3700.73  180.08
  -6  -4   0  154.08    9.90
  -6  -4   0  146.49    9.90
  -6  -4   0  147.49   10.80
  -6  -4   0  143.99    9.20
  -7  -4   0  263.97   15.30
  -7  -4   0  242.38   15.20
  -8  -4   0   -0.50    1.30
   8   4   0   -1.10    2.10
  -9   5   0  429.86   24.80
  -8   5   0   85.39    7.70
  -7   5   0  872.61   46.50
   6  -5   0 1486.65   77.99
  -6   5   0 1600.54   79.29
   5  -5   0 2927.61  148.89
  -5   5   0 3036.50  149.79
   4  -5   0  755.92   39.70
  -4   5   0  792.32   40.50
   3  -5   0  973.10   50.29
  -3   5   0 1014.70   50.79
   2  -5   0   47.70    3.70
   2  -5   0   46.60    3.40
  -2   5   0   64.89    4.10
   1  -5   0 7575.34  382.86
  -1   5   0 7929.61  383.36
   0  -5   0   12.00    2.30
  -1  -5   0  136.09    8.30
  -1  -5   0  130.99    7.30
  -1  -5   0  122.79    7.50
  -1  -5   0  128.79    7.70
  -2  -5   0  318.57   18.10
  -2  -5   0  359.76   17.70
  -2  -5   0  355.06   19.60
  -2  -5   0  323.47   18.20
  -3  -5   0 2764.42  138.69
  -3  -5   0 2774.62  137.59
  -3  -5   0 2565.34  138.49
  -3  -5   0 2740.23  138.89
  -3  -5   0 2897.41  136.79
  -4  -5   0  268.47   17.80
  -4  -5   0  296.77   16.50
  -4  -5   0  284.97   16.10
  -4  -5   0  287.17   16.30
  -4  -5   0  292.77   15.60
  -5  -5   0 2060.29   97.79
  -5  -5   0 1960.90   97.59
  -5  -5   0 1807.62   99.19
  -5  -5   0 1931.31   96.59
  -5  -5   0 1873.61   97.09
  -6  -5   0   29.70    3.70
  -6  -5   0   30.60    6.20
  -6  -5   0   26.80    3.40
  -6  -5   0   27.50    3.90
  -7  -5   0  921.61   48.60
  -7  -5   0  935.61   48.40
   9  -6   0  800.22   42.30
  -9   6   0  760.12   42.10
  -8   6   0   82.29    7.70
  -7   6   0  723.53   39.50
   6  -6   0   49.40    4.70
  -6   6   0   58.99    6.10
   5  -6   0 2357.06  122.09
  -5   6   0 2515.55  123.39
   4  -6   0 1410.56   74.99
   4  -6   0 1530.85   74.89
  -4   6   0 1513.65   75.89
   3  -6   0  658.23   33.60
   3  -6   0  663.23   33.30
  -3   6   0  623.04   34.00
   2  -6   0 1138.59   55.29
   2  -6   0 1120.79   54.89
   2  -6   0 1063.89   55.19
  -2   6   0 1031.60   55.19
   1  -6   0 3052.99  145.19
   1  -6   0 2896.31  144.89
   1  -6   0 2591.84  144.09
   1  -6   0 3044.50  144.49
   1  -6   0 3030.50  144.99
  -1   6   0 2822.72  144.49
   0  -6   0   39.10    2.80
   0  -6   0   29.90    3.30
   0  -6   0   39.00    3.30
   0  -6   0   30.30    3.30
   0  -6   0   29.70    2.70
  -1  -6   0  105.09    6.80
  -1  -6   0  117.59    6.60
  -1  -6   0  102.89    7.60
  -1  -6   0  118.89    6.60
  -1  -6   0  112.79    7.10
  -2  -6   0 1631.94   83.19
  -2  -6   0 1633.74   81.99
  -2  -6   0 1611.14   81.19
  -2  -6   0 1575.64   81.79
  -2  -6   0 1664.83   81.79
  -3  -6   0 1347.67   67.99
  -3  -6   0 1316.47   67.99
  -3  -6   0 1378.16   68.09
  -3  -6   0 1370.66   67.29
  -3  -6   0 1263.67   69.59
  -4  -6   0 1159.28   68.49
  -4  -6   0 1392.76   67.09
  -4  -6   0 1281.27   66.69
  -4  -6   0 1363.76   66.89
  -4  -6   0 1329.67   65.99
  -5  -6   0   20.60    3.10
  -5  -6   0   19.70    3.20
  -5  -6   0   22.70    4.00
  -5  -6   0   23.30    3.50
  -5  -6   0   17.50    3.30
  -6  -6   0  411.56   23.90
  -6  -6   0  461.85   24.70
  -6  -6   0  467.95   24.90
  -7  -6   0  119.09    7.90
   9  -7   0   30.80    3.60
  -9   7   0   26.50    4.20
   8  -7   0  800.22   41.60
  -8   7   0  764.22   42.60
   7  -7   0   11.30    2.90
  -7   7   0    6.30    2.90
   6  -7   0  238.88   14.10
   6  -7   0  206.48   13.30
  -6   7   0  246.08   15.40
   5  -7   0   41.10    3.90
   5  -7   0   30.50    3.70
  -5   7   0   34.10    4.80
   4  -7   0  801.42   38.00
   4  -7   0  611.94   41.10
  -4   7   0  769.32   39.20
   3  -7   0   14.20    2.50
   3  -7   0   12.70    2.00
  -3   7   0   10.20    2.40
   2  -7   0  515.55   25.60
   2  -7   0  481.15   26.20
   2  -7   0  497.25   26.20
   2  -7   0  487.75   26.30
  -2   7   0  470.45   26.00
   1  -7   0   13.10    2.40
   1  -7   0   11.70    2.60
   1  -7   0    9.30    2.10
   1  -7   0   12.40    2.80
   1  -7   0   14.90    2.10
  -1   7   0   12.40    2.20
   0  -7   0 3962.00  194.08
   0  -7   0 3646.94  192.78
   0  -7   0 3837.92  193.48
   0  -7   0 4080.79  192.78
  -1  -7   0   17.10    2.60
  -2  -7   0  716.03   35.60
  -2  -7   0  698.43   37.10
  -2  -7   0  677.23   34.60
  -2  -7   0  666.73   35.30
  -2  -7   0  618.04   34.80
  -3  -7   0 1086.09   52.79
  -3  -7   0 1016.80   52.69
  -3  -7   0 1027.40   51.89
  -3  -7   0 1019.60   52.79
  -3  -7   0  951.60   54.69
  -4  -7   0  743.63   37.10
  -4  -7   0  712.73   36.80
  -4  -7   0  675.43   38.60
  -4  -7   0  638.14   38.80
  -5  -7   0   37.50    4.00
  -5  -7   0   26.70    3.60
  -5  -7   0   32.60    3.80
  -6  -7   0  204.78   12.20
  -6  -7   0  204.28   12.50
   8  -8   0  677.83   35.20
  -8   8   0  628.24   36.20
   7  -8   0  507.05   29.10
  -7   8   0  551.54   30.60
   6  -8   0  300.67   17.10
   6  -8   0  308.87   16.90
  -6   8   0  247.58   21.60
   5  -8   0  404.36   22.50
   5  -8   0  395.76   22.00
   5  -8   0  374.76   22.00
  -5   8   0  413.36   23.70
   4  -8   0  738.63   37.40
   4  -8   0  696.03   37.80
   4  -8   0  724.93   38.30
  -4   8   0  704.03   38.60
   3  -8   0  778.62   40.60
   3  -8   0  781.82   40.40
   3  -8   0  774.22   39.50
  -3   8   0  728.13   40.30
   2  -8   0   81.19    6.10
   2  -8   0   80.29    6.30
   2  -8   0   81.19    5.50
   2  -8   0   78.79    6.30
  -2   8   0   75.39    5.80
   1  -8   0 1913.41   98.39
   1  -8   0 1949.30   98.19
   1  -8   0 1959.50   97.29
   0  -8   0  172.28   10.80
   0  -8   0  165.68    9.90
   0  -8   0  171.38   11.20
  -1  -8   0  659.53   32.80
  -1  -8   0  622.44   34.80
  -1  -8   0  610.94   33.20
  -1  -8   0  644.54   33.90
  -2  -8   0    2.30    1.40
  -2  -8   0    3.20    1.60
  -2  -8   0    1.70    1.40
  -2  -8   0    4.00    2.60
  -3  -8   0   81.59    6.30
  -3  -8   0   81.39    6.30
  -3  -8   0   74.79    7.60
  -3  -8   0   74.69    5.50
  -4  -8   0  152.68    9.90
  -4  -8   0  156.78    9.90
  -4  -8   0  140.09    8.80
  -5  -8   0  166.28   10.70
  -5  -8   0  183.88   11.00
   8  -9   0    9.40    2.90
  -8   9   0    4.40    2.50
   7  -9   0  290.87   17.00
  -7   9   0  274.37   18.10
   6  -9   0   18.70    3.40
   6  -9   0   21.30    3.70
  -6   9   0   16.60    4.20
   5  -9   0  384.96   25.00
   5  -9   0  389.46   22.30
   5  -9   0  413.56   23.20
  -5   9   0  421.96   24.60
   4  -9   0    1.20    1.40
   4  -9   0    2.30    2.30
   4  -9   0    8.60    2.70
  -4   9   0    5.10    2.40
   3  -9   0  951.90   47.10
   3  -9   0  906.81   48.20
   3  -9   0  937.81   48.10
  -3   9   0  857.41   47.50
   2  -9   0  130.79    9.30
   2  -9   0  132.99    8.30
   1  -9   0  634.64   33.10
   1  -9   0  614.84   34.40
   1  -9   0  659.63   34.30
   0  -9   0  127.79    8.90
   0  -9   0  126.09    9.50
   0  -9   0  126.19    7.80
  -1  -9   0  655.53   37.70
  -1  -9   0  721.03   36.80
  -2  -9   0   98.59    7.40
  -2  -9   0  105.29    6.80
  -2  -9   0  116.09    8.00
  -2  -9   0  101.79    8.90
  -3  -9   0   96.09    6.60
  -3  -9   0  112.49    7.60
  -3  -9   0  102.79    7.60
  -4  -9   0  211.38   12.30
  -4  -9   0  199.28   12.30
   7 -10   0  241.28   14.50
  -7  10   0  237.48   15.70
   6 -10   0  147.09   12.10
   6 -10   0  170.28   10.70
  -6  10   0  164.78   14.60
   5 -10   0   39.90    4.30
   5 -10   0   37.90    4.70
  -5  10   0   46.80    5.70
   4 -10   0  243.98   15.90
   4 -10   0  269.57   15.00
   3 -10   0   83.79    7.10
   3 -10   0   78.59    5.90
   2 -10   0  670.83   36.00
   2 -10   0  642.54   35.90
   2 -10   0  678.33   34.60
   1 -10   0  423.66   22.70
   1 -10   0  427.86   24.10
   0 -10   0  574.84   30.70
   0 -10   0  549.65   31.40
   0 -10   0  561.34   29.30
  -1 -10   0  138.19    9.50
  -1 -10   0  137.39    8.40
  -2 -10   0   91.99    6.20
  -2 -10   0   98.99    7.30
  -3 -10   0   -0.30    1.20
   6 -11   0  105.29    8.10
   6 -11   0   93.19    7.00
   5 -11   0   33.90    4.10
   5 -11   0   31.20    3.80
   4 -11   0  550.14   29.30
   4 -11   0  553.04   30.60
   3 -11   0  174.58   10.50
   3 -11   0  175.58   11.90
   2 -11   0  752.42   40.20
   2 -11   0  745.63   38.60
   1 -11   0   93.29    6.40
   1 -11   0  109.19    7.80
   0 -11   0  121.29    8.40
   0 -11   0  113.99    7.10
  -1 -11   0   96.79    6.90
  -1 -11   0   86.29    5.80
  -1 -11   1    6.10    1.70
  -1 -11   1    3.70    1.40
   0 -11   1   78.89    6.60
   0 -11   1   79.09    6.70
   1 -11   1    4.40    1.80
   1 -11   1    1.30    1.30
   2 -11   1   94.09    7.60
   2 -11   1   94.99    6.40
   3 -11   1   49.00    4.30
   3 -11   1   51.29    5.40
   4 -11   1   84.89    6.30
   4 -11   1   84.39    7.10
   5 -11   1   51.79    5.10
   5 -11   1   49.70    5.60
  -3 -10   1   88.39    6.70
  -3 -10   1   89.19    6.10
  -2 -10   1  848.62   43.60
  -2 -10   1  801.92   42.20
  -1 -10   1  262.57   15.90
  -1 -10   1  262.77   14.60
   0 -10   1   -0.40    1.20
   0 -10   1    2.60    2.50
   0 -10   1    1.60    1.70
   1 -10   1  351.16   18.30
   1 -10   1  314.17   22.50
   1 -10   1  327.87   19.50
   2 -10   1  116.49    8.80
   2 -10   1  117.19    8.80
   2 -10   1  120.99    7.80
   3 -10   1  291.37   17.50
   3 -10   1  282.47   16.20
   4 -10   1    0.80    1.30
   4 -10   1    2.80    2.30
  -5  10  -1  199.68   13.90
   5 -10   1  205.88   13.40
   5 -10   1  232.98   13.30
   5 -10   1  196.88   12.70
  -6  10  -1  205.68   17.90
   6 -10   1  205.18   12.90
  -7  10  -1  591.64   33.50
   7 -10   1  609.74   32.40
  -4  -9   1   60.19    5.00
  -4  -9   1   50.79    4.10
  -3  -9   1   66.79    5.10
  -3  -9   1   72.39    6.00
  -2  -9   1  121.99    8.80
  -2  -9   1  126.19    7.80
  -1  -9   1 1126.69   62.79
  -1  -9   1 1264.27   62.29
   0  -9   1    8.60    3.00
   0  -9   1   11.30    2.20
   0  -9   1   12.30    2.90
   1  -9   1  124.29    8.50
   1  -9   1  108.69    8.50
   1  -9   1  112.29    7.40
   2  -9   1   51.39    5.50
   2  -9   1   52.49    5.60
   2  -9   1   51.79    4.40
   2  -9   1   53.29    5.20
   3  -9   1 1955.90   98.79
   3  -9   1 1919.21   99.89
   3  -9   1 2010.30   99.99
  -4   9  -1  197.78   13.20
   4  -9   1  204.18   13.00
   4  -9   1  211.28   12.40
   4  -9   1  206.58   13.20
  -5   9  -1  112.39    9.40
   5  -9   1  108.09    7.80
   5  -9   1  111.69    9.30
   5  -9   1  103.19    9.00
  -6   9  -1    8.60    2.90
   6  -9   1    7.70    2.70
   6  -9   1    5.60    2.70
  -7   9  -1  350.06   20.80
   7  -9   1  322.67   19.50
  -8   9  -1   58.49    6.20
   8  -9   1   67.89    5.60
  -5  -8   1  294.57   16.80
  -4  -8   1  882.11   45.10
  -4  -8   1  870.41   45.10
  -4  -8   1  828.52   44.10
  -3  -8   1  103.59    9.20
  -3  -8   1  116.99    8.10
  -3  -8   1  111.39    7.20
  -2  -8   1  154.88    9.30
  -2  -8   1  156.58    9.90
  -2  -8   1  156.38   10.30
  -1  -8   1 1430.16   77.99
  -1  -8   1 1530.65   77.09
  -1  -8   1 1570.04   76.09
   0  -8   1  562.24   29.00
   0  -8   1  555.74   29.90
   0  -8   1  549.54   30.50
   1  -8   1   35.00    3.80
   1  -8   1   36.00    4.30
   1  -8   1   32.90    3.90
   1  -8   1   30.00    3.10
  -2   8  -1 1157.58   59.39
   2  -8   1 1171.08   59.19
   2  -8   1 1109.39   59.19
   2  -8   1 1120.19   59.19
   2  -8   1 1185.78   58.39
  -3   8  -1  469.15   26.80
   3  -8   1  473.55   26.00
   3  -8   1  476.15   25.20
   3  -8   1  475.25   26.00
  -4   8  -1 1703.33   89.69
   4  -8   1 1757.22   88.69
   4  -8   1 1754.72   89.29
   4  -8   1 1803.02   89.39
  -5   8  -1   72.29    6.80
   5  -8   1   56.29    5.70
   5  -8   1   64.39    5.50
   5  -8   1   67.99    5.60
  -6   8  -1  182.68   13.20
   6  -8   1  175.48   11.60
   6  -8   1  178.68   11.60
  -7   8  -1   54.29    6.40
   7  -8   1   47.80    5.10
  -8   8  -1  489.15   28.00
   8  -8   1  491.05   26.90
  -6  -7   1  210.78   12.40
  -6  -7   1  202.78   12.20
  -5  -7   1    0.30    1.60
  -5  -7   1    2.30    1.50
  -5  -7   1    3.60    1.70
  -5  -7   1    6.10    1.90
  -4  -7   1  564.54   27.90
  -4  -7   1  447.66   29.60
  -4  -7   1  459.75   29.20
  -4  -7   1  523.15   30.50
  -4  -7   1  549.25   29.40
  -3  -7   1  336.97   22.10
  -3  -7   1  369.76   20.50
  -3  -7   1  371.06   19.60
  -3  -7   1  372.96   20.50
  -3  -7   1  373.76   20.20
  -2  -7   1  215.48   13.30
  -2  -7   1  189.08   10.90
  -2  -7   1  176.98   11.40
  -2  -7   1  190.08   11.70
  -1  -7   1  112.99    7.70
  -1  -7   1  120.99    7.00
  -1  -7   1  104.49    7.10
  -1  -7   1  118.69    8.50
   0  -7   1 2208.68  108.09
   0  -7   1 2261.47  108.89
   0  -7   1 2206.78  109.39
   0  -7   1 2131.79  108.69
   0  -7   1 2008.40  107.79
   1  -7   1  357.26   18.90
   1  -7   1  350.76   19.50
   1  -7   1  361.56   19.60
   1  -7   1  354.46   19.80
  -2   7  -1  316.77   18.20
   2  -7   1  352.36   18.10
   2  -7   1  345.47   18.80
  -3   7  -1  183.48   12.00
   3  -7   1  198.48   14.30
   3  -7   1  217.98   12.70
   3  -7   1  202.48   11.50
  -4   7  -1 1858.81   94.89
   4  -7   1 1855.21   94.39
   4  -7   1 1895.71   94.39
   4  -7   1 1853.61   93.89
  -5   7  -1  263.47   16.20
   5  -7   1  257.67   15.20
   5  -7   1  254.17   15.40
   5  -7   1  270.27   15.10
  -6   7  -1  206.38   13.50
   6  -7   1  191.88   12.50
   6  -7   1  201.58   12.50
  -7   7  -1   25.10    4.40
   7  -7   1   25.50    3.80
  -8   7  -1  821.42   44.00
   8  -7   1  799.42   42.80
  -9   7  -1  204.18   13.30
   9  -7   1  195.58   12.00
  -7  -6   1  110.49    7.60
  -6  -6   1   40.10    4.20
  -6  -6   1   46.80    4.50
  -6  -6   1   42.40    4.70
  -5  -6   1  288.57   17.60
  -5  -6   1  288.37   18.20
  -5  -6   1  306.07   20.30
  -5  -6   1  301.47   17.20
  -5  -6   1  279.07   18.80
  -4  -6   1 1559.94   78.09
  -4  -6   1 1646.04   79.29
  -4  -6   1 1410.46   80.69
  -4  -6   1 1546.25   78.79
  -4  -6   1 1584.04   78.89
  -3  -6   1 1667.73   81.39
  -3  -6   1 1600.84   81.19
  -3  -6   1 1543.25   82.89
  -3  -6   1 1571.24   81.19
  -3  -6   1 1630.44   80.49
  -2  -6   1   34.50    3.20
  -2  -6   1   43.50    3.20
  -2  -6   1   35.10    3.50
  -2  -6   1   37.70    4.30
  -2  -6   1   31.90    3.30
  -1  -6   1 1804.72   86.89
  -1  -6   1 1740.83   87.69
  -1  -6   1 1584.44   87.19
  -1  -6   1 1767.52   87.09
  -1  -6   1 1819.72   88.59
   0  -6   1 4175.08  216.88
   0  -6   1 4585.04  217.68
  -1   6  -1 4111.89  213.98
   1  -6   1 4290.97  214.58
   1  -6   1 4555.14  214.18
  -2   6  -1   82.09    5.60
   2  -6   1   83.19    5.40
   2  -6   1   83.29    5.70
   2  -6   1   88.39    5.90
   2  -6   1   90.89    5.90
  -3   6  -1 1805.32   95.79
   3  -6   1 1926.21   95.69
   3  -6   1 1964.50   95.29
   3  -6   1 1919.91   95.69
  -4   6  -1  371.86   20.40
   4  -6   1  358.16   19.40
   4  -6   1  351.56   19.80
  -5   6  -1 1549.24   78.39
   5  -6   1 1505.35   77.49
   5  -6   1 1527.95   78.89
  -6   6  -1   20.20    3.70
   6  -6   1   16.90    2.90
   6  -6   1   24.40    3.40
  -7   6  -1   16.40    4.00
   7  -6   1   18.90    3.30
  -8   6  -1   62.39    6.80
   8  -6   1   76.49    6.10
  -9   6  -1  118.99   12.00
   9  -6   1  144.39    8.70
  -7  -5   1  827.22   42.00
  -7  -5   1  763.02   42.30
  -6  -5   1   10.00    2.20
  -6  -5   1   23.20    4.50
  -6  -5   1   19.30    3.30
  -6  -5   1   15.40    2.70
  -5  -5   1  942.91   49.10
  -5  -5   1  994.50   49.40
  -5  -5   1  915.51   48.70
  -5  -5   1  958.90   48.30
  -5  -5   1  898.41   50.69
  -4  -5   1 2329.97  129.89
  -4  -5   1 2626.94  127.79
  -4  -5   1 2541.65  128.29
  -4  -5   1 2654.33  128.49
  -4  -5   1 2640.54  128.69
  -3  -5   1 3266.37  150.78
  -3  -5   1 3026.20  151.48
  -3  -5   1 3123.29  152.88
  -3  -5   1 3167.38  151.38
  -3  -5   1 2569.14  152.78
  -2  -5   1   71.19    4.70
  -2  -5   1   67.19    4.70
  -2  -5   1   66.19    4.30
  -2  -5   1   68.49    5.50
  -2  -5   1   63.59    4.60
  -1  -5   1  743.93   39.30
  -1  -5   1  800.02   38.90
  -1  -5   1  785.82   40.00
  -1  -5   1  776.12   38.90
  -1  -5   1  825.32   39.60
  -1  -5   1  689.03   39.10
   0  -5   1 2569.14  121.39
   0  -5   1 2647.34  121.89
   0  -5   1 2408.46  121.69
   0  -5   1 2147.59  121.19
  -1   5  -1 2698.83  152.98
   1  -5   1 3211.78  153.48
   1  -5   1 3353.66  153.18
  -2   5  -1 2745.93  149.29
   2  -5   1 3126.29  149.49
   2  -5   1 3138.19  149.09
  -3   5  -1 5079.99  252.27
  -4   5  -1 2885.51  145.59
   4  -5   1 2930.71  145.39
  -5   5  -1 1852.51   90.99
   5  -5   1 1730.23   90.59
  -6   5  -1  369.86   20.20
   6  -5   1  323.87   19.90
  -7   5  -1  415.66   23.80
   7  -5   1  415.26   23.00
  -8   5  -1 1044.00   55.09
  -9   5  -1  297.67   17.60
   9  -5   1  269.47   16.00
  -8  -4   1  144.49    9.50
  -7  -4   1  258.47   15.10
  -7  -4   1  281.87   16.30
  -6  -4   1 1166.68   58.89
  -6  -4   1 1092.99   59.99
  -6  -4   1 1205.28   59.09
  -6  -4   1 1085.79   58.09
  -5  -4   1  241.58   14.40
  -5  -4   1  227.78   14.00
  -5  -4   1  247.88   13.80
  -5  -4   1  247.98   15.70
  -5  -4   1  257.27   14.60
  -4  -4   1 3337.77  167.48
  -4  -4   1 3404.26  166.48
  -4  -4   1 3290.87  166.38
  -4  -4   1 3240.78  166.08
  -4  -4   1 3366.96  166.08
  -3  -4   1  779.82   41.80
  -3  -4   1  822.02   43.00
  -3  -4   1  821.72   42.10
  -3  -4   1  842.52   41.50
  -3  -4   1  829.62   41.90
  -2  -4   1 6522.05  320.97
  -2  -4   1 6448.45  321.07
  -1  -4   1   59.29    4.10
  -1  -4   1   60.49    4.00
  -1  -4   1   51.09    3.30
  -1  -4   1   48.40    3.60
  -1  -4   1   49.30    3.50
  -1  -4   1   56.49    3.40
   0  -4   1 1931.71   97.89
   0  -4   1 2173.28   98.09
   0  -4   1 2067.69   97.69
   0  -4   1 1697.93   97.49
  -1   4  -1  182.48   11.00
   1  -4   1  238.48   11.10
   1  -4   1  202.38   11.20
   1  -4   1  206.48   11.30
   1  -4   1  222.28   11.50
  -2   4  -1 6738.33  333.47
  -3   4  -1    8.40    1.80
   3  -4   1    7.70    1.50
  -4   4  -1 3363.66  160.98
  -4   4  -1 3028.90  159.78
   4  -4   1 3282.77  160.78
  -5   4  -1   87.19    5.60
  -5   4  -1  101.69    6.90
   5  -4   1   91.99    6.60
  -6   4  -1 1453.55   78.29
  -6   4  -1 1638.34   79.79
   6  -4   1 1590.04   79.49
  -7   4  -1  429.86   24.30
  -7   4  -1  481.75   25.80
   7  -4   1  466.65   25.20
  -8   4  -1  204.98   13.10
  -8   4  -1  209.88   13.50
  -9   4  -1  261.67   16.10
  -8  -3   1   34.20    4.20
  -7  -3   1   91.59    7.20
  -7  -3   1   93.29    7.30
  -7  -3   1   91.29    7.70
  -6  -3   1  698.03   37.90
  -6  -3   1  747.33   38.70
  -6  -3   1  758.32   39.90
  -6  -3   1  722.63   38.60
  -5  -3   1   72.19    6.80
  -5  -3   1   85.89    5.70
  -5  -3   1   88.19    6.30
  -5  -3   1   84.69    6.90
  -5  -3   1   91.09    6.30
  -4  -3   1  945.11   48.70
  -4  -3   1  949.01   48.90
  -4  -3   1  988.50   48.40
  -4  -3   1  946.41   49.10
  -3  -3   1 2153.28  108.59
  -3  -3   1 2285.07  109.59
  -3  -3   1 2233.48  108.29
  -3  -3   1 2041.60  108.59
  -1  -3   1 1105.19   62.19
  -1  -3   1 1199.18   62.29
  -1  -3   1 1295.77   62.69
  -1  -3   1 1237.18   62.19
  -1  -3   1 1396.96   62.49
  -1  -3   1 1252.97   62.09
   0  -3   1  825.82   41.50
   0  -3   1  889.71   41.60
   0  -3   1  723.63   42.60
   0  -3   1  868.41   41.30
  -2   3  -1 5983.80  296.07
  -3   3  -1 4564.44  225.18
   3  -3   1 4499.25  224.78
  -4   3  -1 1028.70   50.49
   4  -3   1  951.40   50.49
  -5   3  -1 2788.62  133.69
   5  -3   1 2549.94  133.69
  -6   3  -1 1129.59   56.29
  -6   3  -1 1039.20   55.29
   6  -3   1 1103.79   56.29
  -7   3  -1 2404.36  116.19
  -7   3  -1 2228.68  115.19
   7  -3   1 2258.87  115.89
  -8   3  -1  286.77   17.20
  -8   3  -1  299.67   17.60
  -9   3  -1  912.41   47.20
  -9   3  -1  873.81   46.10
  -9  -2   1   86.99    6.50
  -8  -2   1   15.00    3.00
   7   2  -1 2321.97  119.59
  -7  -2   1 2478.45  119.79
  -7  -2   1 2285.27  120.19
  -7  -2   1 2478.05  119.89
  -7  -2   1 2298.07  118.49
  -6  -2   1   22.50    2.90
  -6  -2   1   27.50    3.70
  -6  -2   1   30.80    3.60
  -6  -2   1   33.60    3.80
  -5  -2   1 2753.72  145.39
  -5  -2   1 2867.81  145.79
  -5  -2   1 3170.18  146.79
  -5  -2   1 2813.12  145.49
  -5  -2   1 3062.19  145.29
  -5  -2   1 2849.01  145.89
  -4  -2   1  195.88   11.70
  -4  -2   1  222.28   12.30
  -4  -2   1  199.68   11.50
  -4  -2   1  198.68   11.20
  -4  -2   1  201.48   11.40
  -4  -2   1  216.88   11.20
  -3  -2   1 2652.73  138.59
  -3  -2   1 2951.80  138.69
  -3  -2   1 2790.42  139.29
  -3  -2   1 2790.42  138.99
  -2  -2   1  235.68   12.40
  -2  -2   1  251.17   12.80
  -2  -2   1  238.48   12.20
  -2  -2   1  220.28   12.40
  -1  -2   1 1123.59   52.79
  -1  -2   1  984.60   52.99
  -1  -2   1 1032.30   52.99
  -1  -2   1 1111.79   52.99
   0  -2   1 2421.86  123.89
   0  -2   1 2584.24  123.79
  -2   2  -1  134.89    7.60
   2  -2   1  138.79    7.60
  -4   2  -1  138.29    7.90
  -4   2  -1  123.39    7.40
  -5   2  -1 3608.44  181.48
  -5   2  -1 3816.72  182.08
   5  -2   1 3536.25  182.18
  -6   2  -1 2461.25  122.29
  -6   2  -1 2413.16  121.79
   6  -2   1 2430.16  122.49
  -7   2  -1  413.36   22.50
  -7   2  -1  392.66   21.80
   7  -2   1  398.36   22.40
  -8   2  -1   30.30    4.00
  -8   2  -1   21.20    3.00
   8  -2   1   22.70    3.40
  -9   2  -1  297.07   17.40
  -9   2  -1  296.87   16.90
  -9  -1   1  402.36   22.90
  -8  -1   1   15.10    3.20
  -8  -1   1   17.90    3.40
   7   1  -1  580.24   32.20
  -7  -1   1  633.64   32.70
  -7  -1   1  585.34   32.00
  -7  -1   1  598.44   31.30
  -7  -1   1  623.44   34.00
  -7  -1   1  630.14   32.70
  -6  -1   1  832.82   43.10
  -6  -1   1  841.72   43.40
  -6  -1   1  809.82   42.20
  -6  -1   1  806.92   42.70
  -6  -1   1  855.81   43.20
  -5  -1   1 3650.03  185.58
  -5  -1   1 3922.91  185.98
  -5  -1   1 3619.24  184.98
  -5  -1   1 3722.73  185.28
  -5  -1   1 3716.83  185.48
  -4  -1   1 1305.77   65.69
  -4  -1   1 1395.16   66.29
  -4  -1   1 1355.26   65.49
  -4  -1   1 1220.78   65.49
  -4  -1   1 1268.57   65.89
  -3  -1   1 2619.74  134.09
  -3  -1   1 2678.53  133.99
  -3  -1   1 2614.14  133.99
  -3  -1   1 2888.91  133.89
   0   1  -1   41.80    2.40
   0  -1   1   41.20    2.40
  -3   1  -1  393.96   19.90
  -3   1  -1  405.86   20.20
   3  -1   1  364.96   20.40
  -4   1  -1 1583.94   76.49
  -4   1  -1 1531.25   76.09
   4  -1   1 1452.95   76.79
  -5   1  -1 1654.13   83.09
  -5   1  -1 1713.63   83.39
   5  -1   1 1599.54   83.69
  -6   1  -1 1657.63   82.29
  -6   1  -1 1640.64   82.09
   6  -1   1 1583.34   82.59
  -7   1  -1  133.89    8.80
  -7   1  -1  142.09    8.90
  -7   1  -1  131.99    8.90
   7  -1   1  128.99    9.10
  -8   1  -1   19.50    3.30
  -8   1  -1   29.20    3.70
  -8   1  -1   25.70    3.30
   8  -1   1   27.50    5.10
  -9   1  -1    0.70    1.00
  -9   1  -1    1.30    2.20
  -9   0   1   35.90    4.00
  -8   0   1  858.41   48.40
  -8   0   1 1001.80   48.70
   7   0  -1   17.00    2.80
  -7   0   1   17.00    2.90
  -7   0   1   17.80    3.10
  -7   0   1   18.90    2.90
   6   0  -1 1440.16   77.49
  -6   0   1 1586.54   77.79
  -6   0   1 1525.25   76.79
  -6   0   1 1553.14   77.69
  -6   0   1 1524.35   77.69
  -6   0   1 1580.64   77.79
  -5   0   1  861.71   44.60
  -5   0   1  873.41   44.00
  -5   0   1  884.51   44.60
  -5   0   1  862.41   44.60
  -4   0   1 1636.04   79.29
  -4   0   1 1654.13   78.99
  -4   0   1 1450.05   79.19
  -4   0   1 1587.24   79.29
  -3   0   1   27.20    2.20
  -3   0   1   25.30    2.30
  -3   0   1   25.30    2.00
  -3   0   1   31.10    2.10
  -1   0   1  112.39    5.70
  -3   0  -1 3842.62  190.28
  -4   0  -1 2810.62  148.19
  -4   0  -1 3061.09  148.79
  -4   0  -1 3112.89  148.99
  -5   0  -1   22.60    2.60
  -5   0  -1   22.50    1.80
  -5   0  -1   24.70    2.70
  -6   0  -1 1565.94   78.69
  -6   0  -1 1627.74   78.79
   6   0   1 1474.45   79.09
  -7   0  -1 2206.08  110.89
  -7   0  -1 2257.67  111.09
  -7   0  -1 2333.57  111.19
  -7   0  -1 2146.39  111.19
   7   0   1 2068.29  111.29
  -8   0  -1  195.98   11.80
  -8   0  -1  179.28   11.40
  -8   0  -1  177.78   12.90
   8   0   1  191.48   11.90
  -9   0  -1   21.40    3.20
  -9   1   1  339.27   18.60
  -9   1   1  312.27   18.70
  -8   1   1  668.33   35.60
  -8   1   1  696.53   35.20
  -8   1   1  590.24   34.40
  -7   1   1  166.48   10.80
  -7   1   1  202.18   11.40
  -7   1   1  159.18   10.60
   6  -1  -1  645.34   33.90
  -6   1   1  674.23   35.10
  -6   1   1  639.64   34.10
   5  -1  -1 2757.92  144.79
  -5   1   1 3042.40  145.29
  -5   1   1 2933.81  145.09
  -5   1   1 2873.41  144.89
  -5   1   1 2933.91  144.39
   4  -1  -1 9032.60  446.46
  -3   1   1 3462.95  181.98
  -3   1   1 3729.53  182.08
  -3   1   1 3657.83  181.78
  -3   1   1 3843.42  182.28
  -2   1   1  509.35   25.80
  -2   1   1  515.75   25.80
  -1  -1  -1 1365.76   67.69
  -2  -1  -1  170.48    9.10
  -2  -1  -1  169.98    9.00
  -2  -1  -1  185.58    9.30
  -4  -1  -1  193.18   11.00
  -4  -1  -1  213.38   11.50
  -4  -1  -1  220.38   11.60
  -5  -1  -1  780.92   38.50
  -5  -1  -1  690.73   38.10
  -5  -1  -1  780.02   38.70
  -6  -1  -1   23.60    2.70
  -6  -1  -1   18.40    2.80
  -6  -1  -1   20.90    3.00
  -7  -1  -1 1910.31   91.19
  -7  -1  -1 1717.33   90.49
  -7  -1  -1 1918.41   91.29
  -7  -1  -1 1655.23   91.19
   7   1   1 1776.72   91.49
  -8  -1  -1   75.49    6.20
  -8  -1  -1   62.59    8.60
  -8  -1  -1   76.19    6.40
   8   1   1   78.99    6.30
  -9  -1  -1    7.40    1.80
  -9   2   1  488.15   27.20
  -9   2   1  495.35   26.70
  -8   2   1   13.80    2.80
  -8   2   1   17.00    3.00
  -8   2   1   18.30    3.70
  -7   2   1 1095.79   55.59
  -7   2   1 1045.60   54.89
  -6   2   1    7.40    1.70
   5  -2  -1 3131.09  160.68
  -5   2   1 3086.79  160.78
  -5   2   1 3482.15  161.48
   4  -2  -1 1511.25   87.89
  -4   2   1 1974.70   88.29
  -4   2   1 1775.92   87.59
  -3   2   1 7408.16  366.06
  -2   2   1 1979.90  102.69
  -2   2   1 2149.78  102.39
   1  -2  -1  160.98    8.00
  -1   2   1  159.68    8.00
  -1   2   1  141.79    8.20
  -2  -2  -1   34.10    2.10
  -2  -2  -1   34.30    2.30
  -2  -2  -1   36.10    2.50
  -3  -2  -1  817.92   41.80
  -3  -2  -1  879.91   42.10
  -3  -2  -1  794.42   41.60
  -4  -2  -1 1143.29   53.29
  -4  -2  -1  959.90   51.89
  -4  -2  -1  996.50   52.29
  -5  -2  -1  383.26   20.50
  -5  -2  -1  351.06   19.70
  -5  -2  -1  415.86   21.30
  -5  -2  -1  364.46   19.90
  -6  -2  -1   49.40    4.60
  -6  -2  -1   54.79    5.00
  -6  -2  -1   37.80    5.10
  -7  -2  -1  403.66   24.40
  -7  -2  -1  464.25   24.30
  -7  -2  -1  462.75   25.10
   7   2   1  408.16   24.60
  -8  -2  -1 1252.77   63.39
  -8  -2  -1 1222.18   63.29
   8   2   1 1208.58   63.39
  -9   3   1    7.70    2.00
  -9   3   1    5.40    2.40
  -8   3   1 1076.49   56.49
  -8   3   1 1215.78   56.99
  -8   3   1 1019.00   62.19
  -7   3   1   13.70    3.20
  -7   3   1   16.50    2.60
   6  -3  -1  800.62   44.80
  -6   3   1  924.21   45.40
  -6   3   1  871.41   44.40
   5  -3  -1  540.95   29.40
  -5   3   1  572.04   29.60
  -5   3   1  604.54   30.50
   4  -3  -1 3952.60  205.48
  -4   3   1 4241.28  206.48
  -4   3   1 4252.67  205.58
   3  -3  -1  402.76   21.70
  -3   3   1  452.65   21.80
   2  -3  -1   98.79    5.70
   2  -3  -1  117.49    5.80
  -2   3   1   98.79    6.10
   1  -3  -1  244.58   12.00
   1  -3  -1  228.98   12.00
  -1   3   1  215.68   12.10
  -1  -3  -1  246.28   12.60
  -1  -3  -1  229.58   11.90
  -1  -3  -1  223.78   12.20
  -1  -3  -1  227.98   12.10
  -2  -3  -1 2032.30   99.39
  -2  -3  -1 2089.39  100.49
  -2  -3  -1 1973.50   99.79
  -2  -3  -1 1921.91   99.69
  -3  -3  -1   40.40    2.90
  -3  -3  -1   46.40    3.00
  -3  -3  -1   43.70    3.20
  -3  -3  -1   49.10    4.20
  -3  -3  -1   51.89    3.60
  -4  -3  -1 5826.12  288.27
  -4  -3  -1 5880.31  288.67
  -4  -3  -1 5517.05  288.27
  -4  -3  -1 6085.99  289.37
  -5  -3  -1  422.26   22.60
  -5  -3  -1  422.36   23.50
  -5  -3  -1  403.16   21.90
  -6  -3  -1  424.26   23.90
  -6  -3  -1  438.06   23.20
  -6  -3  -1  390.86   22.10
  -7  -3  -1   45.10    5.30
  -7  -3  -1   54.39    5.30
  -7  -3  -1   52.89    5.10
  -8  -3  -1  502.65   27.50
  -8  -3  -1  524.35   27.50
   8   3   1  479.85   27.40
  -9   4   1   10.30    2.60
  -9   4   1   12.90    3.40
  -8   4   1  712.53   38.30
  -8   4   1  761.12   40.00
  -7   4   1   13.30    3.10
  -7   4   1   12.60    2.40
  -6   4   1  941.61   46.80
  -6   4   1  832.12   45.30
   5  -4  -1  139.59    8.30
  -5   4   1  140.29    8.30
  -5   4   1  155.08    9.70
   4  -4  -1 2128.09  113.99
  -4   4   1 2375.56  113.89
  -4   4   1 2374.66  115.19
   3  -4  -1 4871.41  252.77
  -3   4   1 5345.87  253.57
   2  -4  -1 1371.46   62.59
   2  -4  -1 1198.48   62.09
  -2   4   1 1159.28   62.39
   1  -4  -1  864.11   42.00
   1  -4  -1  768.22   41.80
   1  -4  -1  847.22   42.30
   1  -4  -1  900.31   42.30
  -1   4   1  811.52   42.30
   0  -4  -1 1190.78   58.29
   0  -4  -1 1122.79   58.29
   0  -4  -1 1227.18   58.79
   0   4   1 1133.59   58.99
  -1  -4  -1 2906.31  141.89
  -1  -4  -1 2777.52  141.69
  -1  -4  -1 2885.81  141.49
  -2  -4  -1  282.47   14.60
  -2  -4  -1  274.57   15.00
  -2  -4  -1  299.97   16.00
  -2  -4  -1  266.67   15.00
  -3  -4  -1  513.75   25.70
  -3  -4  -1  481.95   27.30
  -3  -4  -1  501.85   26.10
  -3  -4  -1  509.05   26.30
  -4  -4  -1  701.43   36.00
  -4  -4  -1  685.53   35.50
  -4  -4  -1  710.43   36.40
  -4  -4  -1  690.33   37.60
  -5  -4  -1  912.61   46.20
  -5  -4  -1  853.81   45.60
  -5  -4  -1  900.61   47.60
  -6  -4  -1  569.24   30.60
  -6  -4  -1  578.04   32.10
  -7  -4  -1    1.30    1.40
  -7  -4  -1    2.20    1.50
  -8  -4  -1    4.00    1.90
  -8  -4  -1    5.00    1.60
   8   4   1    5.70    2.20
  -9   5   1   65.79    6.50
  -8   5   1  647.04   35.70
  -7   5   1 2885.31  145.99
  -6   5   1  100.49    8.20
   5  -5  -1  135.09    8.50
  -5   5   1  161.68   10.30
  -4   5   1  338.37   19.10
   2  -5  -1    6.20    1.40
   1  -5  -1  230.98   12.40
   1  -5  -1  232.28   12.00
   1  -5  -1  208.68   11.80
   1  -5  -1  239.38   12.50
  -1   5   1  217.88   12.30
   0  -5  -1    9.40    1.60
   0  -5  -1    5.80    1.50
   0  -5  -1    6.40    1.10
  -1  -5  -1 8909.91  440.56
  -2  -5  -1  918.61   48.50
  -2  -5  -1  879.61   46.50
  -2  -5  -1  947.41   46.00
  -2  -5  -1  907.61   46.50
  -3  -5  -1  236.18   16.20
  -3  -5  -1  273.57   14.10
  -3  -5  -1  266.57   16.10
  -3  -5  -1  265.27   14.80
  -4  -5  -1   75.29    5.60
  -4  -5  -1   82.29    6.10
  -4  -5  -1   72.99    5.10
  -4  -5  -1   73.29    7.00
  -5  -5  -1  591.84   32.20
  -5  -5  -1  645.04   32.90
  -5  -5  -1  599.44   34.30
  -5  -5  -1  612.84   32.80
  -6  -5  -1  357.76   19.30
  -6  -5  -1  300.97   20.10
  -6  -5  -1  345.67   19.40
  -7  -5  -1    1.40    1.60
  -7  -5  -1    1.40    1.80
  -9   6   1   40.80    5.30
  -8   6   1  457.85   26.70
  -7   6   1  337.87   20.70
  -6   6   1 2439.56  124.19
   5  -6  -1   62.69    4.80
  -5   6   1   77.39    6.80
   4  -6  -1   73.79    5.10
   4  -6  -1   71.59    5.10
  -4   6   1   67.49    6.30
   3  -6  -1 1461.05   80.69
   3  -6  -1 1731.93   81.49
   3  -6  -1 1649.23   81.69
  -3   6   1 1658.03   82.39
   2  -6  -1 4003.20  191.18
   2  -6  -1 3972.50  191.08
   2  -6  -1 3481.65  190.18
   2  -6  -1 3985.00  190.68
  -2   6   1 3773.02  191.28
   1  -6  -1   21.60    2.70
   1  -6  -1   21.20    2.10
   1  -6  -1   19.60    2.40
  -1   6   1   22.50    2.40
   0  -6  -1  129.99    6.90
   0  -6  -1  116.09    7.40
   0  -6  -1  114.99    7.60
   0  -6  -1  110.49    6.90
  -1  -6  -1  954.70   49.30
  -1  -6  -1  940.21   49.10
  -1  -6  -1  967.30   48.60
  -1  -6  -1  999.90   50.19
  -2  -6  -1 4157.88  206.98
  -2  -6  -1 4185.08  208.28
  -2  -6  -1 4115.19  206.88
  -2  -6  -1 4178.38  206.18
  -3  -6  -1  213.78   14.70
  -3  -6  -1  224.38   13.20
  -3  -6  -1  233.38   12.50
  -3  -6  -1  232.08   13.40
  -4  -6  -1   53.49    5.20
  -4  -6  -1   65.29    4.40
  -4  -6  -1   41.00    5.80
  -4  -6  -1   53.29    4.70
  -4  -6  -1   59.99    5.00
  -5  -6  -1  176.98   11.10
  -5  -6  -1  186.08   15.60
  -5  -6  -1  173.38   11.30
  -5  -6  -1  163.48   10.70
  -6  -6  -1  702.53   37.20
   9  -7  -1    2.60    1.70
  -9   7   1    1.30    2.20
   8  -7  -1   51.59    5.40
  -8   7   1   48.90    6.30
   7  -7  -1    1.30    1.80
  -7   7   1    3.40    2.60
   6  -7  -1 1385.56   71.99
  -6   7   1 1412.96   73.39
   5  -7  -1  111.69    7.80
   5  -7  -1  116.09    7.60
  -5   7   1  115.99    9.30
   4  -7  -1 1260.37   65.99
   4  -7  -1 1339.77   65.89
  -4   7   1 1294.17   67.29
   3  -7  -1  311.97   17.40
   3  -7  -1  316.97   16.90
  -3   7   1  308.47   17.90
   2  -7  -1 2466.65  118.59
   2  -7  -1 2472.35  119.39
   2  -7  -1 2206.68  118.19
   2  -7  -1 2353.06  119.09
  -2   7   1 2388.56  119.29
   1  -7  -1  227.48   13.10
   1  -7  -1  223.48   13.10
   1  -7  -1  210.08   12.20
  -1   7   1  232.98   12.70
   0  -7  -1   79.99    6.30
   0  -7  -1   83.89    5.70
   0  -7  -1   92.79    6.30
  -1  -7  -1  190.08   11.30
  -1  -7  -1  191.68   10.80
  -1  -7  -1  201.48   11.70
  -1  -7  -1  196.28   12.50
  -2  -7  -1 1643.94   81.49
  -2  -7  -1 1613.44   81.29
  -2  -7  -1 1598.44   80.39
  -2  -7  -1 1565.44   82.89
  -3  -7  -1    7.60    3.20
  -3  -7  -1    9.60    2.30
  -3  -7  -1    7.30    2.00
  -3  -7  -1    8.70    2.10
  -4  -7  -1  311.07   17.50
  -4  -7  -1  335.97   17.60
  -4  -7  -1  282.27   19.40
  -4  -7  -1  307.07   17.30
  -4  -7  -1  276.47   16.40
  -5  -7  -1  153.08    9.90
  -5  -7  -1  166.98   10.20
  -5  -7  -1  156.88   10.40
  -6  -7  -1  193.08   11.30
  -6  -7  -1  182.88   11.60
   8  -8  -1  347.27   19.90
  -8   8   1  339.07   21.20
   7  -8  -1  186.28   12.10
   7  -8  -1  180.18   11.30
  -7   8   1  184.68   13.40
   6  -8  -1  173.48   11.30
  -6   8   1  173.08   13.20
   5  -8  -1 1348.37   68.39
  -5   8   1 1326.37   70.19
   4  -8  -1    0.10    1.00
   4  -8  -1    4.60    2.00
  -4   8   1    0.90    1.90
   3  -8  -1  341.37   18.00
   3  -8  -1  332.67   19.10
  -3   8   1  315.87   19.00
   2  -8  -1  283.27   16.50
   2  -8  -1  289.77   15.50
   2  -8  -1  279.97   16.10
  -2   8   1  274.17   15.90
   1  -8  -1 4065.09  200.78
   1  -8  -1 4017.40  201.88
   1  -8  -1 4039.20  201.88
   0  -8  -1   28.00    4.00
   0  -8  -1   39.70    3.60
   0  -8  -1   41.10    3.30
  -1  -8  -1    7.50    1.50
  -1  -8  -1    4.90    1.70
  -2  -8  -1   24.70    2.70
  -2  -8  -1   24.60    3.30
  -2  -8  -1   22.50    3.30
  -3  -8  -1 1588.24   85.09
  -3  -8  -1 1745.23   86.29
  -3  -8  -1 1764.52   86.49
  -4  -8  -1   97.39    7.30
  -4  -8  -1  112.59    7.70
  -5  -8  -1    2.60    1.50
  -5  -8  -1    2.00    2.10
   8  -9  -1  174.98   11.10
  -8   9   1  164.18   12.10
   7  -9  -1    2.10    1.80
   7  -9  -1    3.40    4.30
  -7   9   1    5.40    2.80
   6  -9  -1    3.30    1.80
   6  -9  -1    3.30    2.10
  -6   9   1    5.80    2.50
   5  -9  -1  604.04   33.20
   5  -9  -1  603.24   32.20
  -5   9   1  598.14   34.00
   4  -9  -1  300.37   18.50
   4  -9  -1  318.67   17.30
  -4   9   1  302.87   18.60
   3  -9  -1    0.10    1.70
   3  -9  -1    4.10    1.60
   2  -9  -1   25.90    3.80
   2  -9  -1   30.00    3.10
   2  -9  -1   25.70    4.60
   1  -9  -1  438.76   22.60
   1  -9  -1  417.66   23.90
   1  -9  -1  415.36   23.70
   0  -9  -1  346.47   20.70
   0  -9  -1  355.56   20.30
   0  -9  -1  361.96   19.00
  -1  -9  -1    1.20    1.10
  -1  -9  -1   -3.20    1.70
  -1  -9  -1    1.10    2.30
  -1  -9  -1    0.10    1.30
  -2  -9  -1  491.25   31.60
  -2  -9  -1  581.84   29.30
  -2  -9  -1  584.54   29.80
  -2  -9  -1  520.25   28.20
  -3  -9  -1    9.30    2.30
  -3  -9  -1   16.30    2.90
  -4  -9  -1  111.49    7.70
  -4  -9  -1  119.49    7.80
   7 -10  -1   23.20    3.40
  -7  10   1   29.90    4.80
   6 -10  -1   25.50    3.70
   6 -10  -1   31.30    5.40
   5 -10  -1  109.69    7.80
   5 -10  -1  115.69    8.70
  -5  10   1  111.49    9.20
   4 -10  -1  711.63   36.20
   4 -10  -1  664.83   37.50
   3 -10  -1   12.60    3.10
   2 -10  -1   24.40    3.70
   2 -10  -1   23.20    2.80
   1 -10  -1   15.30    2.30
   1 -10  -1   16.10    3.20
   1 -10  -1   19.80    3.90
   0 -10  -1  581.04   30.90
   0 -10  -1  614.64   32.40
  -1 -10  -1  120.69    7.60
  -1 -10  -1  137.89    9.10
  -2 -10  -1    0.20    1.60
   5 -11  -1   13.50    3.40
   5 -11  -1   14.00    2.80
   4 -11  -1  401.86   22.80
   4 -11  -1  381.56   21.70
   3 -11  -1  102.29    6.80
   3 -11  -1  103.19    8.10
   2 -11  -1    4.80    2.10
   2 -11  -1    4.40    1.60
   1 -11  -1   85.69    6.00
   1 -11  -1   76.09    6.50
   0 -11  -1   82.69    5.40
   0 -11  -1   86.29    7.30
  -1 -11  -1  276.67   16.00
  -1 -11   2    7.20    2.00
  -1 -11   2    5.40    1.60
   0 -11   2  500.15   26.50
   0 -11   2  507.45   27.90
   1 -11   2    3.10    1.70
   1 -11   2    2.30    1.80
   2 -11   2  427.56   23.10
   2 -11   2  434.46   24.60
   3 -11   2  742.53   39.10
   3 -11   2  758.92   40.30
   4 -11   2 1025.40   56.09
   4 -11   2 1165.58   57.59
   5 -11   2   85.19    6.40
  -3 -10   2  382.76   20.70
  -3 -10   2  348.27   19.50
  -2 -10   2   19.90    3.30
  -2 -10   2   20.10    2.80
  -1 -10   2    3.90    1.90
  -1 -10   2    1.90    1.50
   0 -10   2  178.38   10.20
   0 -10   2  152.08   11.50
   0 -10   2  173.48   11.30
   1 -10   2  533.75   29.80
   1 -10   2  546.35   28.50
   2 -10   2  134.89   10.30
   2 -10   2  130.39    9.80
   2 -10   2  131.39    8.50
   2 -10   2  134.19    9.60
   3 -10   2  117.99    7.80
   3 -10   2  115.69    9.10
   3 -10   2  113.09    8.70
   4 -10   2    6.00    2.40
   4 -10   2    7.40    3.10
   4 -10   2    9.00    2.20
  -5  10  -2  419.26   25.10
   5 -10   2  423.06   24.90
   5 -10   2  460.55   23.90
   5 -10   2  436.86   24.10
  -6  10  -2   37.30    5.20
   6 -10   2   35.90    5.00
   6 -10   2   38.10    4.40
  -7  10  -2    2.70    2.40
   7 -10   2    1.20    2.00
  -4  -9   2    0.90    1.40
  -4  -9   2    7.70    2.50
  -3  -9   2  843.72   43.80
  -3  -9   2  813.12   42.60
  -2  -9   2  119.59    7.60
  -2  -9   2  116.79    8.60
  -2  -9   2  111.69    9.80
  -1  -9   2  214.58   14.50
  -1  -9   2  224.38   13.20
  -1  -9   2  214.98   13.60
   0  -9   2    1.90    2.10
   0  -9   2    0.40    1.50
   0  -9   2    2.60    1.40
   1  -9   2 3303.87  172.48
   1  -9   2 3519.85  171.08
   1  -9   2 3466.75  172.18
   2  -9   2  455.25   25.60
   2  -9   2  460.45   25.70
   2  -9   2  439.56   25.70
   2  -9   2  481.85   24.70
   3  -9   2  838.32   44.70
   3  -9   2  847.42   43.80
   3  -9   2  849.91   44.90
  -4   9  -2   33.20    4.90
   4  -9   2   33.00    4.00
   4  -9   2   32.80    4.40
   4  -9   2   35.60    4.70
  -5   9  -2  601.94   33.60
   5  -9   2  615.94   32.60
   5  -9   2  586.24   32.90
   5  -9   2  601.14   32.40
  -6   9  -2  450.35   26.50
   6  -9   2  466.45   25.70
   6  -9   2  456.15   25.60
  -7   9  -2   37.50    5.10
   7  -9   2   42.10    4.60
  -5  -8   2  135.59    9.20
  -5  -8   2  116.99    7.80
  -4  -8   2    6.20    2.20
  -4  -8   2    4.30    1.90
  -3  -8   2   54.69    5.10
  -3  -8   2   53.39    4.30
  -3  -8   2   50.89    5.80
  -3  -8   2   39.90    5.70
  -2  -8   2 2267.47  113.39
  -2  -8   2 2144.69  114.89
  -2  -8   2 2313.17  112.29
  -1  -8   2   24.30    2.80
  -1  -8   2   20.00    3.20
  -1  -8   2   21.60    4.20
   0  -8   2  372.86   19.50
   0  -8   2  353.06   20.30
   0  -8   2  356.76   21.00
   0  -8   2  367.26   20.60
   1  -8   2  559.74   31.40
   1  -8   2  601.24   30.30
   1  -8   2  585.04   31.20
   1  -8   2  572.34   31.00
   2  -8   2 2252.37  114.89
   2  -8   2 2321.67  114.79
   2  -8   2 2261.07  113.89
   2  -8   2 2260.17  114.69
  -3   8  -2   13.80    3.20
   3  -8   2   18.90    3.00
   3  -8   2   19.90    3.50
   3  -8   2   18.60    3.10
  -4   8  -2    2.10    2.20
   4  -8   2    3.30    1.70
   4  -8   2    5.70    2.50
   4  -8   2    2.50    1.70
  -5   8  -2   23.60    4.10
   5  -8   2   21.20    3.10
   5  -8   2   23.80    3.40
   5  -8   2   21.30    3.60
  -6   8  -2 2045.90  102.49
   6  -8   2 2064.69  102.19
   6  -8   2 1879.71  101.29
  -7   8  -2   81.59    7.50
   7  -8   2   79.59    6.50
   7  -8   2   81.29    6.80
  -8   8  -2    1.90    2.70
   8  -8   2   -0.80    1.40
  -6  -7   2  373.66   21.80
  -6  -7   2  430.06   22.30
  -5  -7   2   14.70    2.90
  -5  -7   2   17.00    2.70
  -5  -7   2   19.30    3.20
  -4  -7   2  130.89   10.40
  -4  -7   2  133.59   11.40
  -4  -7   2  160.38   10.90
  -4  -7   2  158.88    9.90
  -4  -7   2  152.28   10.50
  -3  -7   2    3.70    1.50
  -3  -7   2    6.00    1.60
  -3  -7   2    3.90    1.80
  -3  -7   2    7.60    1.90
  -3  -7   2    6.30    3.10
  -2  -7   2 1886.91   92.09
  -2  -7   2 1745.13   92.59
  -2  -7   2 1852.51   93.09
  -2  -7   2 1868.11   94.49
  -1  -7   2 1029.60   51.99
  -1  -7   2  970.50   51.99
  -1  -7   2 1092.69   53.19
  -1  -7   2 1012.40   53.69
  -1  -7   2 1023.30   52.69
   0  -7   2  372.66   20.70
   0  -7   2  370.36   21.30
   0  -7   2  393.56   21.00
   0  -7   2  383.86   20.20
   1  -7   2  122.49    8.40
   1  -7   2  125.99    7.60
   1  -7   2  125.19    8.20
   1  -7   2  126.39    8.10
  -2   7  -2 2206.48  120.69
   2  -7   2 2530.95  121.49
   2  -7   2 2382.96  121.49
   2  -7   2 2541.85  120.79
   2  -7   2 2427.06  122.59
  -3   7  -2 2021.10  109.59
   3  -7   2 2222.38  109.79
   3  -7   2 2218.68  109.89
   3  -7   2 2255.37  109.19
  -4   7  -2  101.69    8.00
   4  -7   2  114.99    7.30
   4  -7   2  107.69    7.90
  -5   7  -2  149.09   10.70
   5  -7   2  168.78   10.70
   5  -7   2  155.18    9.50
   5  -7   2  157.18   10.10
  -6   7  -2  407.36   23.00
   6  -7   2  391.06   22.40
   6  -7   2  379.16   22.10
  -7   7  -2 1110.09   57.69
   7  -7   2 1075.29   56.69
   7  -7   2 1089.09   56.69
  -8   7  -2   73.59    7.10
   8  -7   2   72.19    6.10
  -7  -6   2   49.80    4.50
  -7  -6   2   49.99    4.30
  -6  -6   2   44.30    4.60
  -6  -6   2   37.20    4.00
  -5  -6   2 1791.92   90.49
  -5  -6   2 1815.92   89.29
  -5  -6   2 1794.62   89.89
  -5  -6   2 1630.94   91.39
  -4  -6   2   37.50    5.30
  -4  -6   2   51.59    4.70
  -4  -6   2   42.30    4.40
  -4  -6   2   42.70    4.30
  -4  -6   2   46.10    4.10
  -3  -6   2  262.07   15.50
  -3  -6   2  282.17   14.90
  -3  -6   2  280.17   15.50
  -3  -6   2  271.07   15.50
  -3  -6   2  254.77   16.80
  -2  -6   2   54.29    4.00
  -2  -6   2   55.89    5.40
  -2  -6   2   54.79    3.90
  -2  -6   2   48.10    4.20
  -2  -6   2   52.29    4.40
  -1  -6   2 4381.26  201.68
  -1  -6   2 4101.29  200.68
  -1  -6   2 4183.28  200.38
  -1  -6   2 3895.71  201.18
  -1  -6   2 3666.23  200.68
   0  -6   2  348.27   19.00
   0  -6   2  391.96   20.10
   0  -6   2  355.76   19.80
   0  -6   2  387.86   19.50
  -1   6  -2    1.40    0.90
   1  -6   2    1.60    1.00
   1  -6   2    5.20    1.70
   1  -6   2    3.10    1.20
   1  -6   2    3.60    1.60
  -2   6  -2   21.80    2.50
   2  -6   2   28.70    2.90
   2  -6   2   26.40    2.40
   2  -6   2   20.90    2.60
  -3   6  -2 3467.65  176.58
   3  -6   2 3670.63  176.78
   3  -6   2 3455.15  175.98
   3  -6   2 3566.74  176.28
  -4   6  -2  180.18   13.80
   4  -6   2  206.68   11.40
   4  -6   2  198.98   11.40
   4  -6   2  202.58   12.20
   5  -6   2   27.90    3.20
   5  -6   2   27.00    3.60
   5  -6   2   21.40    2.50
   6  -6   2   83.29    6.60
   6  -6   2   92.29    7.10
  -7   6  -2 3189.18  146.69
   7  -6   2 2930.41  144.89
   7  -6   2 2494.35  148.09
  -8   6  -2  426.76   24.60
   8  -6   2  424.76   23.50
  -9   6  -2   15.40    3.70
   9  -6   2   14.80    2.50
  -7  -5   2  266.37   15.00
  -7  -5   2  225.18   14.20
  -6  -5   2   78.99    6.40
  -6  -5   2   71.69    7.10
  -6  -5   2   75.79    6.30
  -6  -5   2   66.89    5.80
  -5  -5   2 1239.68   67.09
  -5  -5   2 1280.27   65.39
  -5  -5   2 1285.27   64.59
  -5  -5   2 1334.57   65.69
  -5  -5   2 1219.18   65.09
  -4  -5   2   16.20    2.60
  -4  -5   2   11.50    2.50
  -4  -5   2    7.70    2.10
  -4  -5   2    9.20    3.30
  -4  -5   2    8.50    2.00
  -3  -5   2  846.82   44.90
  -3  -5   2  846.82   43.70
  -3  -5   2  829.82   43.50
  -3  -5   2  836.82   43.50
  -3  -5   2  863.31   43.00
  -2  -5   2  838.12   41.80
  -2  -5   2  890.81   42.30
  -2  -5   2  755.32   42.20
  -2  -5   2  822.02   42.40
  -1  -5   2 4150.38  190.48
  -1  -5   2 3814.32  190.98
  -1  -5   2 3569.94  190.68
   0  -5   2 5584.94  266.77
   0  -5   2 5533.05  267.57
   0  -5   2 5084.19  266.97
  -1   5  -2   45.80    3.30
   1  -5   2   50.29    3.60
   1  -5   2   55.09    3.90
   1  -5   2   51.19    3.40
   1  -5   2   52.59    4.00
   2  -5   2 2468.15  119.69
   2  -5   2 2353.36  119.09
   2  -5   2 2422.66  119.59
   2  -5   2 2332.27  119.19
  -3   5  -2  135.39    8.60
   3  -5   2  143.29    8.20
   3  -5   2  131.29    8.00
   3  -5   2  154.28    8.90
  -4   5  -2 2892.71  141.49
   4  -5   2 2673.63  140.69
   4  -5   2 2806.82  140.49
   4  -5   2 2919.71  141.59
  -5   5  -2   30.40    3.80
   5  -5   2   33.70    3.80
  -6   5  -2  718.43   37.70
   6  -5   2  687.73   37.70
  -7   5  -2  473.55   26.30
   7  -5   2  456.55   25.90
  -8   5  -2  819.72   42.30
   8  -5   2  808.22   41.10
   8  -5   2  720.73   43.30
  -9   5  -2    1.10    1.90
   9  -5   2    0.30    1.40
  -8  -4   2  850.21   44.60
  -7  -4   2   17.30    2.80
  -7  -4   2    8.20    3.90
  -7  -4   2   17.50    3.20
  -6  -4   2  126.79    8.60
  -6  -4   2  139.09    9.30
  -6  -4   2  131.19    9.10
  -6  -4   2  118.19    9.80
  -5  -4   2   75.59    7.20
  -5  -4   2   82.09    5.90
  -5  -4   2   79.39    6.40
  -5  -4   2   77.79    6.30
  -5  -4   2   79.29    6.10
  -4  -4   2 6527.55  315.37
  -4  -4   2 6019.40  315.67
  -4  -4   2 6641.54  315.57
  -4  -4   2 6234.58  316.77
  -3  -4   2    5.60    1.50
  -3  -4   2    6.50    1.70
  -3  -4   2    7.10    1.60
  -2  -4   2  198.78   11.30
  -2  -4   2  213.78   12.00
  -2  -4   2  207.78   11.30
  -2  -4   2  185.58   11.30
  -2  -4   2  214.78   11.00
  -1  -4   2 5978.80  278.97
  -1  -4   2 5670.23  279.27
  -1  -4   2 5277.27  279.07
   0  -4   2 8146.48  388.86
   0  -4   2 7609.24  388.96
  -1   4  -2  394.96   22.40
   1  -4   2  421.46   22.40
   1  -4   2  453.05   22.90
   1  -4   2  484.75   23.90
  -2   4  -2   52.09    3.80
   2  -4   2   49.80    3.40
   2  -4   2   55.09    3.90
   2  -4   2   57.19    3.90
  -3   4  -2   66.19    4.70
   3  -4   2   67.39    4.00
   3  -4   2   63.99    4.70
   3  -4   2   58.39    4.10
   4  -4   2 6479.15  319.97
   4  -4   2 6409.46  318.67
  -5   4  -2 1934.81   92.09
   5  -4   2 1697.53   92.09
  -6   4  -2 2007.40   95.59
  -6   4  -2 1758.52   94.09
   6  -4   2 1873.01   95.69
  -7   4  -2  738.13   38.30
  -7   4  -2  655.23   36.60
   7  -4   2  739.33   38.20
  -8   4  -2 1189.88   63.79
  -8   4  -2 1271.67   65.29
   8  -4   2 1305.37   64.79
  -9   4  -2  262.57   15.70
   9  -4   2  241.18   14.20
  -8  -3   2  736.73   39.10
  -7  -3   2  943.61   50.39
  -7  -3   2  924.31   51.19
  -7  -3   2 1035.00   50.79
  -6  -3   2 1448.46   75.09
  -6  -3   2 1472.85   75.69
  -6  -3   2 1480.85   76.69
  -6  -3   2 1526.75   75.99
  -5  -3   2   13.90    3.50
  -5  -3   2   17.40    2.90
  -5  -3   2   16.10    2.70
  -5  -3   2    9.80    2.20
  -5  -3   2   16.70    2.70
  -4  -3   2 1415.96   78.69
  -4  -3   2 1652.23   78.79
  -4  -3   2 1555.14   78.49
  -4  -3   2 1563.64   79.69
  -4  -3   2 1605.14   78.09
  -3  -3   2 5416.46  260.77
  -3  -3   2 5310.37  260.87
  -3  -3   2 5053.79  260.87
  -2  -3   2  260.77   15.70
  -2  -3   2  341.37   15.90
  -2  -3   2  316.87   16.20
  -2  -3   2  288.97   15.80
  -2  -3   2  282.07   15.70
  -2  -3   2  297.17   15.40
  -1  -3   2 3073.99  152.18
  -1  -3   2 3229.88  151.98
  -1  -3   2 2902.41  152.08
   0  -3   2 5063.59  250.37
   1  -3   2 5122.99  253.17
   2  -3   2  100.89    5.80
   2  -3   2  108.89    5.90
   2  -3   2  110.09    6.40
  -4   3  -2   90.29    5.90
  -4   3  -2   81.89    5.00
   4  -3   2   81.29    5.90
  -5   3  -2 6958.70  351.76
   5  -3   2 7263.67  353.26
  -6   3  -2  128.29    8.70
   6  -3   2  123.39    8.80
  -7   3  -2  108.29    7.30
  -7   3  -2  113.29    8.30
   7  -3   2  105.19    8.10
  -8   3  -2    5.60    2.20
  -8   3  -2    6.10    1.70
   8  -3   2   10.10    2.50
  -9   3  -2  645.64   34.70
  -9   3  -2  673.53   34.40
   9  -3   2  613.44   33.40
  -9  -2   2   32.10    3.60
  -8  -2   2    4.20    2.00
  -8  -2   2    3.80    2.70
   7   2  -2  977.80   51.99
  -7  -2   2  979.60   51.59
  -7  -2   2 1010.10   53.09
  -7  -2   2 1073.29   52.79
  -6  -2   2  736.23   38.90
  -6  -2   2  733.83   38.30
  -6  -2   2  729.93   38.40
  -6  -2   2  705.13   37.50
  -5  -2   2   12.80    2.60
  -5  -2   2   15.00    3.30
  -5  -2   2   25.40    4.00
  -4  -2   2  956.50   49.40
  -4  -2   2  969.20   49.50
  -4  -2   2  905.31   48.90
  -4  -2   2 1018.00   49.99
  -4  -2   2  992.00   49.20
  -4  -2   2  973.10   48.90
  -3  -2   2 5698.63  284.17
  -3  -2   2 5651.73  284.67
  -3  -2   2 5545.44  284.67
  -3  -2   2 6091.29  284.57
  -2  -2   2  496.85   26.70
  -2  -2   2  515.45   26.70
  -2  -2   2  578.74   26.70
  -2  -2   2  503.75   26.70
  -2  -2   2  536.15   26.90
  -2  -2   2  506.05   26.30
  -1  -2   2  473.85   23.30
  -1  -2   2  434.66   22.90
  -1  -2   2  467.55   23.10
  -1  -2   2  434.56   23.20
  -1  -2   2  497.45   23.20
  -1  -2   2  431.66   23.30
   0  -2   2 2120.99  105.09
   2  -2   2 1112.79   55.89
  -3   2  -2  231.78   12.00
   3  -2   2  228.28   12.80
  -4   2  -2 1380.06   66.59
  -4   2  -2 1302.57   65.79
   4  -2   2 1267.87   66.89
  -5   2  -2 3742.23  188.78
  -5   2  -2 3953.70  189.58
   5  -2   2 3710.73  189.98
  -6   2  -2 2267.87  110.19
  -6   2  -2 2114.29  109.39
   6  -2   2 2174.78  110.59
  -7   2  -2  458.55   25.30
   7  -2   2  458.75   25.60
  -8   2  -2  604.74   31.60
  -8   2  -2  586.34   32.10
   8  -2   2  589.24   32.20
  -9   2  -2  235.58   16.00
  -9   2  -2  278.77   16.20
  -9  -1   2    5.50    1.80
  -8  -1   2   66.69    6.90
  -8  -1   2   75.19    6.00
  -7  -1   2 1037.30   52.69
  -7  -1   2 1014.00   51.69
  -7  -1   2  991.70   53.29
  -6  -1   2 2520.15  126.39
  -6  -1   2 2525.55  126.99
  -6  -1   2 2472.65  127.09
  -6  -1   2 2587.54  127.39
  -6  -1   2 2549.24  127.09
  -5  -1   2   94.79    6.40
  -5  -1   2   82.19    6.10
  -5  -1   2   86.69    6.00
  -5  -1   2   91.29    6.30
  -5  -1   2   87.49    5.80
  -4  -1   2  515.75   25.20
  -4  -1   2  458.95   24.90
  -4  -1   2  485.95   24.60
  -4  -1   2  434.06   24.80
  -4  -1   2  498.75   24.40
  -4  -1   2  453.05   24.70
  -3  -1   2 1173.18   59.79
  -3  -1   2 1248.28   59.99
  -3  -1   2 1153.88   59.79
   1   1  -2  126.59    6.80
  -1  -1   2  132.49    6.90
  -1  -1   2  133.19    6.90
  -1  -1   2  118.69    6.70
  -1  -1   2  135.79    7.00
   1  -1   2  367.76   18.90
   1  -1   2  369.66   18.60
  -2   1  -2 6942.11  342.67
  -3   1  -2   48.60    3.00
   3  -1   2   46.70    3.80
  -4   1  -2  844.42   42.70
  -4   1  -2  845.32   43.20
   4  -1   2  846.12   43.70
  -5   1  -2   60.39    4.40
  -5   1  -2   57.99    4.80
   5  -1   2   73.49    5.40
  -6   1  -2 3248.27  161.98
  -6   1  -2 3319.27  161.58
   6  -1   2 3152.38  162.58
  -7   1  -2   24.00    3.40
  -7   1  -2   23.90    3.20
   7  -1   2   24.00    3.40
  -8   1  -2    0.70    1.60
  -8   1  -2    2.60    1.50
  -8   1  -2    3.30    1.70
   8  -1   2    3.40    1.90
  -9   1  -2   33.90    3.80
  -9   1  -2   41.60    4.80
  -9   0   2  107.79    7.70
  -8   0   2  170.38   10.60
  -8   0   2  150.68   10.20
  -7   0   2  667.53   36.60
  -7   0   2  703.23   36.80
  -7   0   2  694.03   36.90
  -7   0   2  717.13   35.80
   6   0  -2 2644.74  136.29
  -6   0   2 2614.34  136.89
  -6   0   2 2842.62  136.99
  -6   0   2 2803.72  136.19
  -6   0   2 2765.72  137.19
  -5   0   2  532.95   28.20
  -5   0   2  556.14   27.60
  -5   0   2  474.75   27.90
  -5   0   2  570.54   28.10
  -4   0   2  756.52   40.50
  -4   0   2  855.61   40.50
  -4   0   2  852.71   40.30
  -4   0   2  707.03   40.40
  -3   0   2 2258.57  107.89
  -3   0   2 2247.98  108.19
  -3   0   2 2018.30  108.19
  -3   0   2 2269.87  108.09
  -3   0   2 2145.69  108.39
  -3   0   2 2105.49  108.29
  -1   0   2 5812.72  287.17
  -1   0  -2 1505.95   75.39
   1   0   2 1538.45   75.49
  -3   0  -2 2446.76  121.49
  -4   0  -2  163.78    9.20
  -5   0  -2 2086.89  102.19
  -5   0  -2 2047.70  102.39
   5   0   2 1987.50  103.09
  -6   0  -2  400.66   21.80
  -6   0  -2  413.86   21.80
   6   0   2  388.86   22.50
  -7   0  -2  407.06   22.90
  -7   0  -2  427.66   23.00
   7   0   2  419.16   23.70
  -8   0  -2   94.49    7.80
  -8   0  -2  109.99    7.60
  -8   0  -2   98.19    7.30
  -8   0  -2  115.39    7.80
   8   0   2  108.69    7.90
  -9   0  -2  221.78   13.30
  -9   1   2  470.75   26.70
  -9   1   2  502.45   26.50
  -8   1   2   76.19    6.70
  -8   1   2   66.09    5.70
  -8   1   2   80.69    6.30
  -7   1   2  931.71   50.39
  -7   1   2 1012.70   51.29
  -7   1   2 1003.90   50.89
  -6   1   2  460.15   26.30
  -6   1   2  446.66   23.30
  -6   1   2  432.46   22.90
  -6   1   2  413.66   23.50
  -5   1   2 4766.22  224.38
  -5   1   2 4683.33  225.28
  -5   1   2 4124.59  224.68
  -4   1   2   70.09    4.80
  -4   1   2   74.39    5.20
  -3   1   2 3677.33  186.08
  -3   1   2 3792.82  186.08
  -3   1   2 3797.62  186.48
  -2   1   2  813.72   41.80
  -2   1   2  853.81   41.50
  -2   1   2  818.72   41.50
  -1   1   2 5017.70  247.88
   0   1   2  108.69    5.70
  -2  -1  -2  123.19    6.80
  -3  -1  -2 2553.84  117.69
  -3  -1  -2 2178.28  117.09
  -4  -1  -2  298.37   16.60
  -4  -1  -2  351.26   17.40
  -5  -1  -2 1268.37   63.19
  -5  -1  -2 1221.68   62.99
  -6  -1  -2  117.79    8.00
  -6  -1  -2  137.29    8.50
   6   1   2  122.59    8.90
  -7  -1  -2 1607.24   75.99
  -7  -1  -2 1427.36   75.29
  -7  -1  -2 1403.76   75.99
   7   1   2 1502.95   76.49
  -8  -1  -2   55.59    5.30
  -8  -1  -2   54.89    5.20
   8   1   2   58.49    5.50
  -9  -1  -2  203.68   12.40
  -9   2   2  635.24   34.00
  -9   2   2  648.24   34.80
  -8   2   2 1024.40   56.29
  -8   2   2 1129.69   56.89
  -7   2   2  198.18   12.00
  -7   2   2  221.98   13.40
  -7   2   2  211.38   12.60
  -6   2   2  680.03   36.10
  -5   2   2 2124.59  108.89
  -5   2   2 2226.88  109.59
  -4   2   2  264.87   14.50
  -4   2   2  246.78   13.80
  -3   2   2  853.31   44.80
  -3   2   2  935.01   44.70
  -3   2   2  891.01   45.50
  -2   2   2 3141.89  156.28
  -2   2   2 3043.70  157.08
  -2   2   2 3309.27  156.68
  -1  -2  -2    9.00    1.20
  -2  -2  -2 4573.14  209.08
  -2  -2  -2 3881.91  208.78
  -3  -2  -2  241.38   13.70
  -3  -2  -2  300.07   14.50
  -3  -2  -2  265.67   14.00
  -4  -2  -2 2957.50  148.59
  -4  -2  -2 3211.88  149.39
  -4  -2  -2 2819.62  148.99
  -5  -2  -2    5.40    1.80
  -5  -2  -2    3.90    1.40
  -5  -2  -2    8.10    2.40
  -5  -2  -2    3.50    1.60
  -6  -2  -2  958.30   46.30
  -6  -2  -2  711.33   42.40
  -6  -2  -2  834.72   43.40
  -7  -2  -2  223.58   13.30
  -7  -2  -2  219.98   13.30
  -7  -2  -2  195.68   13.30
   7   2   2  213.58   13.70
  -8  -2  -2  232.58   14.40
  -8  -2  -2  238.18   14.40
   8   2   2  245.38   15.00
  -9   3   2   27.40    4.00
  -9   3   2   26.20    3.30
  -8   3   2 1524.85   77.49
  -7   3   2    7.00    1.80
  -7   3   2    5.10    1.60
  -7   3   2    3.70    1.90
  -6   3   2 2499.65  118.99
  -6   3   2 2203.48  117.69
  -5   3   2  826.42   43.70
  -5   3   2  884.41   44.70
  -4   3   2 4288.57  210.28
  -4   3   2 4155.78  209.28
  -3   3   2   51.99    3.40
  -3   3   2   57.09    4.30
  -3   3   2   54.59    3.40
   2  -3  -2 1366.36   74.59
  -2   3   2 1599.44   74.59
  -2   3   2 1577.04   75.29
  -2   3   2 1462.55   74.49
  -1   3   2 5320.37  262.77
   0  -3  -2 2337.67  119.99
   0  -3  -2 2543.35  120.19
   0   3   2 2381.66  120.29
  -1  -3  -2   28.00    2.50
  -1  -3  -2   32.00    2.40
  -1  -3  -2   28.90    1.90
  -2  -3  -2 1219.78   63.79
  -2  -3  -2 1299.97   65.09
  -2  -3  -2 1288.67   64.29
  -2  -3  -2 1332.77   64.39
  -3  -3  -2 1304.77   72.89
  -3  -3  -2 1522.05   74.59
  -3  -3  -2 1520.25   73.79
  -3  -3  -2 1524.25   73.39
  -4  -3  -2 2327.47  117.89
  -4  -3  -2 2174.18  117.89
  -4  -3  -2 2475.65  118.59
  -4  -3  -2 2493.85  119.49
  -5  -3  -2   46.40    4.40
  -5  -3  -2   49.20    3.60
  -5  -3  -2   45.20    4.80
  -6  -3  -2  862.41   43.80
  -6  -3  -2  805.12   44.30
  -7  -3  -2  697.43   36.10
  -7  -3  -2  680.73   36.10
  -7  -3  -2  652.03   37.40
   7   3   2  664.93   36.60
  -8  -3  -2  374.96   21.20
  -8  -3  -2  395.06   21.30
   8   3   2  361.76   21.30
  -9   4   2  186.88   11.90
  -9   4   2  203.38   13.20
  -8   4   2  277.67   16.70
  -8   4   2  246.48   15.10
  -7   4   2  247.98   15.00
  -7   4   2  286.37   16.80
  -6   4   2  253.37   15.00
  -6   4   2  291.87   16.80
  -5   4   2 2385.26  118.19
  -5   4   2 2284.77  116.49
  -4   4   2  801.62   41.10
  -4   4   2  769.22   39.60
   3  -4  -2 3162.28  171.58
  -3   4   2 3770.22  172.88
   2  -4  -2   34.50    2.40
   2  -4  -2   29.40    2.10
  -2   4   2   28.40    2.10
  -2   4   2   28.20    3.00
   1  -4  -2 1655.83   80.79
   1  -4  -2 1505.85   80.79
   1  -4  -2 1706.13   81.09
  -1   4   2 1633.24   81.39
   0  -4  -2 2069.59  106.49
   0  -4  -2 2136.19  105.39
   0  -4  -2 2167.08  105.89
  -1  -4  -2 2277.57  115.69
  -1  -4  -2 2326.47  115.79
  -1  -4  -2 2404.96  116.29
  -1  -4  -2 2298.17  115.29
  -2  -4  -2   11.60    2.10
  -2  -4  -2   12.30    2.00
  -2  -4  -2    9.00    1.50
  -3  -4  -2 2017.50   97.99
  -3  -4  -2 2053.99   97.39
  -3  -4  -2 1903.71   98.69
  -3  -4  -2 1812.82   96.79
  -4  -4  -2   14.10    3.50
  -4  -4  -2    9.50    1.80
  -5  -4  -2  596.24   32.40
  -5  -4  -2  592.74   31.20
  -5  -4  -2  559.04   30.30
  -6  -4  -2   19.50    3.40
  -6  -4  -2   11.10    3.10
  -7  -4  -2  266.97   15.80
  -7  -4  -2  274.67   15.70
   7   4   2  249.28   16.10
  -9   5   2  395.36   23.30
  -8   5   2   44.70    5.80
  -7   5   2  985.70   52.59
  -6   5   2  106.59    6.90
  -6   5   2  122.29    9.20
  -5   5   2 1509.35   80.79
  -5   5   2 1719.03   82.99
   4  -5  -2  360.26   21.10
  -4   5   2  462.85   23.20
   3  -5  -2 1370.06   71.39
  -3   5   2 1482.85   72.59
   2  -5  -2    6.90    1.20
   2  -5  -2   10.00    1.30
   2  -5  -2    8.70    1.30
  -2   5   2    8.90    2.00
   1  -5  -2 1573.74   82.69
   1  -5  -2 1744.43   82.69
   0  -5  -2 1620.44   85.09
   0  -5  -2 1768.42   85.69
   0  -5  -2 1729.03   84.89
  -1  -5  -2 1379.76   68.89
  -1  -5  -2 1364.16   68.29
  -1  -5  -2 1401.76   67.69
  -1  -5  -2 1279.67   67.99
  -2  -5  -2  440.06   22.30
  -2  -5  -2  417.76   23.00
  -2  -5  -2  439.36   23.00
  -2  -5  -2  445.66   24.10
  -3  -5  -2  909.31   44.40
  -3  -5  -2  881.91   44.50
  -3  -5  -2  813.52   43.40
  -3  -5  -2  842.72   45.80
  -4  -5  -2 1494.85   75.19
  -4  -5  -2 1517.05   77.39
  -4  -5  -2 1594.14   75.89
  -4  -5  -2 1345.07   74.29
  -5  -5  -2  483.15   26.40
  -5  -5  -2  517.35   29.50
  -5  -5  -2  495.75   28.60
  -6  -5  -2  153.88   10.30
  -6  -5  -2  150.68   10.00
  -7  -5  -2  112.19    8.00
  -7  -5  -2  117.29    8.30
   7   5   2  121.99    8.70
  -9   6   2    0.30    1.90
  -8   6   2  172.88   12.60
  -7   6   2  818.12   44.80
  -6   6   2  524.85   30.00
  -5   6   2  183.68   12.60
   4  -6  -2 1950.70  105.69
  -4   6   2 2285.77  107.79
   3  -6  -2   21.40    2.10
   3  -6  -2   25.80    2.40
  -3   6   2   24.30    3.30
   2  -6  -2  500.15   25.50
   2  -6  -2  453.95   25.00
   2  -6  -2  501.65   25.20
  -2   6   2  499.85   26.20
   1  -6  -2  189.38   10.90
   1  -6  -2  191.18   10.30
   1  -6  -2  183.78   10.40
  -1   6   2  189.68   11.00
   0  -6  -2 3637.74  178.68
   0  -6  -2 3382.66  178.08
   0  -6  -2 3639.94  177.88
   0  -6  -2 3692.83  178.98
  -1  -6  -2    9.10    1.90
  -1  -6  -2    9.60    1.50
  -1  -6  -2    7.30    2.50
  -2  -6  -2  312.97   16.70
  -2  -6  -2  313.57   17.60
  -2  -6  -2  316.57   18.80
  -2  -6  -2  330.67   17.60
  -3  -6  -2    4.00    2.50
  -3  -6  -2    1.00    1.20
  -3  -6  -2    1.90    1.50
  -4  -6  -2 2988.30  146.69
  -4  -6  -2 3044.40  146.29
  -4  -6  -2 2730.63  148.39
  -5  -6  -2  622.44   31.50
  -5  -6  -2  608.64   31.70
  -5  -6  -2  563.04   30.90
  -5  -6  -2  551.54   33.20
  -6  -6  -2   75.49    6.50
  -6  -6  -2   58.59    5.50
   9  -7  -2  119.29    8.20
  -9   7   2  114.19    9.30
   8  -7  -2  734.33   37.60
  -8   7   2  663.93   38.80
   7  -7  -2   71.19    6.10
  -7   7   2   57.59    7.10
   6  -7  -2  984.90   50.99
  -6   7   2  972.60   52.89
   5  -7  -2   17.50    3.10
  -5   7   2   19.20    4.30
   4  -7  -2  417.96   22.60
  -4   7   2  428.76   24.40
   3  -7  -2 1810.22  102.39
   3  -7  -2 2259.57  103.09
  -3   7   2 2107.19  107.69
   2  -7  -2 1012.70   50.59
   2  -7  -2  911.51   49.90
   2  -7  -2 1036.00   50.19
  -2   7   2  999.20   51.09
   1  -7  -2  101.49    7.10
   1  -7  -2  109.39    7.90
   1  -7  -2  102.59    7.20
   1  -7  -2  108.69    6.50
   0  -7  -2  163.48    9.90
   0  -7  -2  151.38    9.40
   0  -7  -2  155.98   10.00
  -1  -7  -2  536.25   28.00
  -1  -7  -2  529.25   28.70
  -1  -7  -2  583.34   29.20
  -1  -7  -2  534.15   29.80
  -2  -7  -2  300.77   16.70
  -2  -7  -2  311.37   17.80
  -2  -7  -2  320.87   17.80
  -2  -7  -2  336.57   19.40
  -3  -7  -2  191.08   11.50
  -3  -7  -2  210.68   12.70
  -3  -7  -2  209.18   14.60
  -3  -7  -2  229.28   12.70
  -3  -7  -2  221.48   12.90
  -4  -7  -2  664.63   33.30
  -4  -7  -2  568.24   35.30
  -4  -7  -2  646.94   33.60
  -4  -7  -2  622.84   33.20
  -5  -7  -2  704.23   36.80
  -5  -7  -2  680.23   36.70
   8  -8  -2  275.27   15.80
  -8   8   2  246.78   17.10
   7  -8  -2   11.70    2.80
  -7   8   2   16.30    4.50
   6  -8  -2   37.30    4.50
  -6   8   2   43.00    5.90
   5  -8  -2  464.75   24.80
  -5   8   2  444.06   26.70
   4  -8  -2  230.08   13.20
  -4   8   2  228.88   14.90
   3  -8  -2 1365.06   67.79
  -3   8   2 1314.77   69.09
   2  -8  -2   40.30    3.50
   2  -8  -2   41.40    4.40
   2  -8  -2   43.50    4.00
   1  -8  -2   10.50    1.80
   1  -8  -2    7.10    2.30
   1  -8  -2   10.20    2.70
   1  -8  -2    9.70    1.80
   0  -8  -2  146.59   10.00
   0  -8  -2  158.38    9.80
   0  -8  -2  147.99    9.10
   0  -8  -2  139.29    8.50
  -1  -8  -2 1068.39   55.69
  -1  -8  -2 1028.60   53.39
  -1  -8  -2 1107.49   54.79
  -1  -8  -2 1027.10   54.19
  -2  -8  -2  112.69    9.00
  -2  -8  -2  104.59    7.40
  -2  -8  -2   96.99    9.80
  -2  -8  -2   98.19    6.30
  -3  -8  -2  431.66   23.30
  -3  -8  -2  410.76   25.30
  -3  -8  -2  425.96   23.30
  -4  -8  -2   15.60    3.20
  -4  -8  -2   14.00    2.70
  -5  -8  -2  258.37   14.90
   8  -9  -2   35.50    4.20
  -8   9   2   34.40    5.10
   7  -9  -2  124.89    8.50
   7  -9  -2  101.29    9.40
  -7   9   2  119.29   10.00
   6  -9  -2  320.17   18.90
   6  -9  -2  315.87   18.20
  -6   9   2  306.97   20.10
   5  -9  -2   -0.80    1.40
   5  -9  -2    1.90    1.90
  -5   9   2   -0.20    2.30
   4  -9  -2    0.80    2.20
   4  -9  -2    2.90    2.30
  -4   9   2   -0.20    1.90
   3  -9  -2  153.58    9.40
   3  -9  -2  155.08   10.70
  -3   9   2  158.68   10.50
   2  -9  -2  719.83   37.90
   2  -9  -2  750.62   39.30
   1  -9  -2  339.17   18.70
   1  -9  -2  352.26   20.10
   1  -9  -2  354.36   20.10
   0  -9  -2   48.30    4.60
   0  -9  -2   43.00    4.90
   0  -9  -2   39.80    3.40
  -1  -9  -2   66.29    5.60
  -1  -9  -2   69.89    5.30
  -1  -9  -2   53.09    4.30
  -2  -9  -2 1069.69   55.79
  -2  -9  -2 1103.69   56.19
  -3  -9  -2    3.30    1.70
  -3  -9  -2    3.30    1.80
   7 -10  -2   79.79    6.20
   7 -10  -2   82.59    6.30
  -7  10   2   69.29    7.20
   6 -10  -2  338.17   22.90
  -6  10   2  379.56   22.40
   5 -10  -2   31.70    4.50
   5 -10  -2   29.50    3.50
  -5  10   2   33.50    5.50
   4 -10  -2   94.29    6.70
   4 -10  -2  102.49    8.20
   3 -10  -2   10.50    2.30
   3 -10  -2    7.10    2.60
   2 -10  -2  791.52   42.30
   2 -10  -2  795.62   40.80
   1 -10  -2  352.36   19.90
   1 -10  -2  337.17   18.40
   0 -10  -2   28.80    2.90
   0 -10  -2   32.90    3.90
  -1 -10  -2    4.40    1.90
  -2 -10  -2   18.90    2.90
   5 -11  -2  164.88   10.40
   5 -11  -2  183.98   11.90
   4 -11  -2    0.40    1.20
   4 -11  -2    1.80    3.10
   3 -11  -2   21.00    2.60
   3 -11  -2   19.90    3.50
   2 -11  -2  134.29    9.20
   2 -11  -2  122.69    7.70
   1 -11  -2  275.87   14.60
   1 -11  -2  266.57   17.00
   0 -11  -2    0.30    1.20
  -1 -11   3  119.39    8.40
  -1 -11   3  110.39    7.20
   0 -11   3  120.09    8.20
   0 -11   3  121.69    8.90
   1 -11   3   81.19    5.80
   1 -11   3   79.89    6.90
   2 -11   3  137.79    9.80
   2 -11   3  135.09    8.60
   3 -11   3  160.18   11.30
   3 -11   3  152.88    9.60
   3 -11   3  147.09   11.10
   4 -11   3  287.17   19.10
   4 -11   3  333.07   18.30
   4 -11   3  325.07   17.90
   5 -11   3  244.68   14.40
   5 -11   3  240.38   15.10
  -3 -10   3  256.17   14.90
  -3 -10   3  241.18   13.90
  -2 -10   3    4.90    1.60
  -2 -10   3    6.90    1.80
  -1 -10   3  148.49    9.20
  -1 -10   3  157.28   10.50
   0 -10   3  131.69    8.30
   0 -10   3  126.09    9.40
   0 -10   3  132.69   10.20
   1 -10   3  521.15   30.80
   1 -10   3  572.44   29.20
   1 -10   3  559.64   30.50
   2 -10   3   28.10    4.40
   2 -10   3   27.50    3.10
   2 -10   3   27.50    4.00
   3 -10   3  563.34   30.30
   3 -10   3  569.54   31.70
   3 -10   3  574.44   31.20
   4 -10   3   30.40    4.60
   4 -10   3   25.80    3.90
   4 -10   3   25.80    3.40
   5 -10   3  504.75   27.20
   5 -10   3  487.65   27.90
  -6  10  -3  282.47   17.90
   6 -10   3  307.57   19.50
   6 -10   3  296.17   17.50
  -4  -9   3  194.38   12.00
  -4  -9   3  180.88   11.00
  -3  -9   3  658.73   34.80
  -3  -9   3  633.04   33.70
  -2  -9   3   31.30    4.70
  -2  -9   3   18.60    2.80
  -2  -9   3   25.50    3.70
  -1  -9   3  339.07   18.30
  -1  -9   3  338.97   19.50
  -1  -9   3  323.77   20.40
   0  -9   3 1084.79   56.49
   0  -9   3 1142.39   55.39
   0  -9   3 1033.70   57.09
   0  -9   3 1075.49   56.59
   1  -9   3   24.60    3.70
   1  -9   3   24.00    3.00
   1  -9   3   22.20    3.80
   2  -9   3    1.30    2.20
   2  -9   3    3.70    1.50
   2  -9   3    5.40    1.90
   2  -9   3    8.50    2.90
   3  -9   3  516.35   28.90
   3  -9   3  506.15   28.50
   3  -9   3  537.85   27.90
  -4   9  -3  674.73   39.50
   4  -9   3  804.92   41.30
   4  -9   3  733.43   39.00
   4  -9   3  758.02   39.10
  -5   9  -3  549.85   31.10
   5  -9   3  568.14   31.10
   5  -9   3  549.95   30.20
  -6   9  -3  107.09    8.90
   6  -9   3  119.19    8.60
   6  -9   3   98.69    7.90
  -7   9  -3   24.70    4.20
   7  -9   3   25.60    4.00
  -5  -8   3    9.30    2.10
  -4  -8   3  799.52   41.90
  -4  -8   3  822.92   42.90
  -3  -8   3  127.99    8.00
  -3  -8   3  114.79   10.20
  -3  -8   3  127.29    8.90
  -2  -8   3 1133.79   57.69
  -2  -8   3 1060.99   58.99
  -2  -8   3 1138.19   56.59
  -1  -8   3    1.80    1.40
  -1  -8   3    1.00    2.00
  -1  -8   3   -0.30    1.00
   0  -8   3 2337.17  120.89
   0  -8   3 2436.56  120.39
   0  -8   3 2421.06  119.19
   0  -8   3 2339.57  120.09
   1  -8   3  581.84   30.30
   1  -8   3  547.15   29.30
   1  -8   3  543.65   30.10
   1  -8   3  564.74   30.70
   2  -8   3 1112.99   56.29
   2  -8   3 1065.79   56.99
   2  -8   3 1066.69   57.39
   2  -8   3 1172.48   57.39
  -3   8  -3   17.10    3.20
   3  -8   3   15.10    2.50
   3  -8   3   14.80    3.20
   3  -8   3   17.60    3.00
  -4   8  -3 1413.16   75.49
   4  -8   3 1446.86   74.69
   4  -8   3 1519.25   74.89
   4  -8   3 1501.95   75.89
  -5   8  -3  411.56   23.90
   5  -8   3  426.56   24.00
   5  -8   3  403.66   23.00
  -6   8  -3  808.32   43.00
   6  -8   3  778.72   42.10
   6  -8   3  798.22   42.70
  -7   8  -3  415.56   24.00
   7  -8   3  408.26   23.10
   7  -8   3  414.06   23.30
  -8   8  -3  530.15   29.80
   8  -8   3  545.15   28.80
  -6  -7   3  533.85   27.40
  -6  -7   3  471.65   26.90
  -5  -7   3   23.60    3.20
  -5  -7   3   26.60    3.50
  -5  -7   3   19.20    3.40
  -4  -7   3   98.19    7.30
  -4  -7   3   91.09    8.50
  -4  -7   3   98.59    6.80
  -4  -7   3  100.09    7.40
  -3  -7   3  669.33   36.60
  -3  -7   3  668.43   35.70
  -3  -7   3  730.63   36.20
  -2  -7   3 1051.69   53.69
  -2  -7   3 1062.79   52.79
  -2  -7   3 1000.60   54.89
  -1  -7   3  260.47   15.90
  -1  -7   3  250.17   15.00
  -1  -7   3  265.87   14.40
  -1  -7   3  270.57   15.40
   0  -7   3  274.27   15.40
   0  -7   3  273.97   14.80
   0  -7   3  272.77   15.60
   0  -7   3  257.57   15.90
   1  -7   3 3125.19  164.68
   1  -7   3 3283.97  165.28
   1  -7   3 3449.16  165.08
   1  -7   3 3339.17  164.18
  -2   7  -3  603.14   35.20
   2  -7   3  707.23   35.30
   2  -7   3  713.33   36.10
   2  -7   3  709.73   36.30
  -3   7  -3  738.63   39.40
   3  -7   3  754.12   39.70
   3  -7   3  764.22   38.80
   3  -7   3  746.33   39.00
  -4   7  -3  317.37   18.80
   4  -7   3  331.67   19.10
   4  -7   3  325.77   17.80
   4  -7   3  328.17   18.10
  -5   7  -3 1614.94   82.69
   5  -7   3 1644.44   82.99
   5  -7   3 1574.54   81.89
  -6   7  -3   10.50    2.80
   6  -7   3    7.50    2.50
   6  -7   3   11.40    2.70
  -7   7  -3  122.39    9.30
   7  -7   3  121.49    8.80
   7  -7   3  116.69    8.40
  -8   7  -3   23.20    3.90
   8  -7   3   19.00    3.10
  -7  -6   3  121.59    7.90
  -7  -6   3  103.19    7.30
  -6  -6   3   24.90    3.40
  -6  -6   3   21.60    3.30
  -5  -6   3 1206.18   64.99
  -5  -6   3 1217.98   67.19
  -5  -6   3 1344.87   66.09
  -5  -6   3 1294.17   64.49
  -4  -6   3  272.17   16.00
  -4  -6   3  255.47   17.40
  -4  -6   3  278.97   15.20
  -4  -6   3  277.87   15.90
  -3  -6   3 2098.39  107.19
  -3  -6   3 2056.19  108.59
  -3  -6   3 2313.27  107.19
  -3  -6   3 2188.08  106.39
  -3  -6   3 1975.20  106.99
  -2  -6   3   22.10    2.60
  -2  -6   3   14.90    2.10
  -1  -6   3 1654.73   78.99
  -1  -6   3 1497.15   77.49
  -1  -6   3 1502.05   78.99
   0  -6   3   21.50    2.30
   0  -6   3   22.00    2.90
   0  -6   3   28.10    3.00
  -1   6  -3 3155.78  176.38
   1  -6   3 3774.52  176.78
   1  -6   3 3745.83  177.18
  -2   6  -3 1819.42   98.89
   2  -6   3 1985.50   98.99
   2  -6   3 2073.49   99.49
   2  -6   3 1991.00   99.49
   2  -6   3 2000.90   98.69
  -3   6  -3 2161.78  113.09
   3  -6   3 2352.06  113.79
   3  -6   3 2297.07  114.09
   3  -6   3 2194.48  112.49
  -4   6  -3  198.98   12.30
   4  -6   3  196.38   11.20
   4  -6   3  199.38   11.60
   4  -6   3  207.58   12.70
  -5   6  -3 1120.49   57.69
   5  -6   3 1130.49   58.09
   5  -6   3 1080.99   56.89
  -6   6  -3  934.41   47.10
   6  -6   3  885.61   47.20
   6  -6   3  835.22   46.00
  -7   6  -3  286.07   17.60
   7  -6   3  283.17   16.70
   7  -6   3  296.17   17.60
  -8   6  -3   15.90    3.70
   8  -6   3   17.00    3.50
   8  -6   3   16.40    2.80
  -9   6  -3  435.76   24.10
   9  -6   3  407.96   22.90
  -7  -5   3  324.27   17.70
  -7  -5   3  274.27   16.70
  -6  -5   3 1018.60   52.09
  -6  -5   3  998.30   54.79
  -6  -5   3 1006.00   50.89
  -6  -5   3  944.21   51.29
  -5  -5   3  151.88   10.20
  -5  -5   3  167.38    9.90
  -5  -5   3  158.68   11.70
  -5  -5   3  154.08   10.60
  -4  -5   3  131.39    9.40
  -4  -5   3  141.79    9.40
  -4  -5   3  150.78    9.40
  -4  -5   3  152.58    8.80
  -4  -5   3  146.49   10.60
  -3  -5   3   29.70    3.30
  -3  -5   3   35.00    3.00
  -3  -5   3   25.20    3.70
  -3  -5   3   32.40    3.50
  -3  -5   3   34.60    3.40
  -2  -5   3 4694.83  225.38
  -2  -5   3 4463.35  226.48
  -2  -5   3 4150.58  225.48
  -2  -5   3 4382.06  225.68
  -2  -5   3 5006.60  225.98
  -2  -5   3 4557.34  225.08
  -1  -5   3  430.66   22.00
  -1  -5   3  423.86   23.00
  -1  -5   3  424.46   22.00
  -1  -5   3  398.36   22.40
  -1  -5   3  455.95   22.70
   0  -5   3  627.04   32.20
   0  -5   3  592.84   31.60
   0  -5   3  588.64   30.90
   0  -5   3  642.14   31.90
   0  -5   3  629.34   31.40
  -1   5  -3  192.58   11.30
   1  -5   3  231.58   11.90
   1  -5   3  212.88   12.00
   1  -5   3  199.58   11.50
   1  -5   3  207.08   11.30
  -2   5  -3 5216.58  266.87
   2  -5   3 5472.75  266.47
   2  -5   3 5448.46  266.37
  -3   5  -3   83.69    5.80
   3  -5   3   77.59    5.30
   3  -5   3   75.89    5.10
   3  -5   3   84.09    6.00
  -4   5  -3  422.76   23.00
   4  -5   3  404.56   21.60
   4  -5   3  416.66   22.20
   4  -5   3  437.46   23.40
  -5   5  -3  141.29    8.80
   5  -5   3  111.49    8.60
   5  -5   3  108.89    7.60
  -6   5  -3  908.11   52.09
  -6   5  -3 1093.49   52.89
   6  -5   3  971.50   51.89
   6  -5   3 1056.69   53.29
   7  -5   3   30.80    3.60
   7  -5   3   34.50    4.30
  -8   5  -3  191.58   12.70
   8  -5   3  188.28   11.30
   8  -5   3  190.28   12.30
  -9   5  -3   32.30    4.20
   9  -5   3   27.70    3.70
  -8  -4   3  179.38   10.60
  -8  -4   3  145.59    9.40
  -7  -4   3   -0.90    1.30
  -7  -4   3    1.60    1.70
  -6  -4   3 1314.67   70.19
  -6  -4   3 1402.76   69.39
  -6  -4   3 1310.17   68.59
  -5  -4   3  139.19    8.90
  -5  -4   3  126.19    8.90
  -5  -4   3  124.99    9.70
  -5  -4   3  128.09    8.60
  -5  -4   3  125.39    8.20
  -4  -4   3 2682.53  127.49
  -4  -4   3 2346.37  128.19
  -4  -4   3 2730.63  128.09
  -4  -4   3 2504.35  128.19
  -4  -4   3 2506.85  129.19
  -3  -4   3    4.90    1.40
  -3  -4   3    6.20    1.60
  -3  -4   3    7.00    1.70
  -2  -4   3 4234.58  211.38
  -2  -4   3 4536.35  211.28
  -2  -4   3 4002.70  211.28
  -1  -4   3   14.70    1.90
  -1  -4   3   17.40    2.20
  -1  -4   3   16.50    1.60
   0   4  -3 5374.46  285.77
   0  -4   3 6042.80  285.67
   0  -4   3 5927.81  286.17
   1  -4   3  101.49    6.10
   1  -4   3  106.99    6.00
   1  -4   3  111.79    6.50
   1  -4   3   96.79    5.60
   1  -4   3  112.19    6.70
  -2   4  -3 4149.69  206.68
   2  -4   3 4157.08  206.08
   2  -4   3 4178.28  206.08
  -3   4  -3 2671.13  129.09
   3  -4   3 2462.35  128.19
   3  -4   3 2514.15  127.99
   3  -4   3 2671.83  129.19
  -4   4  -3 1095.89   53.49
   4  -4   3 1051.39   53.89
   4  -4   3  974.20   52.59
  -5   4  -3  197.48   11.70
   5  -4   3  171.38   12.00
  -6   4  -3   28.20    3.90
   6  -4   3   32.60    4.20
  -7   4  -3  700.63   36.10
  -7   4  -3  630.24   34.50
   7  -4   3  682.73   36.10
   7  -4   3  642.54   34.80
  -8   4  -3    7.90    1.80
  -8   4  -3    5.70    2.30
   8  -4   3    5.80    1.70
   8  -4   3    2.20    2.00
  -9   4  -3    0.80    1.70
  -8  -3   3  198.88   13.30
  -8  -3   3  244.38   13.90
  -7  -3   3    5.80    2.10
  -7  -3   3    4.10    2.30
  -7  -3   3    6.90    2.10
  -6  -3   3  348.47   20.10
  -6  -3   3  376.96   20.80
  -6  -3   3  366.96   21.40
  -5  -3   3 9672.43  475.25
  -5  -3   3 9720.63  474.95
  -5  -3   3 9374.26  475.45
  -4  -3   3   94.99    7.40
  -4  -3   3  131.79    7.10
  -4  -3   3  107.39    7.30
  -4  -3   3  119.29    7.70
  -4  -3   3  114.99    8.10
  -3  -3   3  179.78   11.00
  -3  -3   3  195.88   10.50
  -3  -3   3  192.78   11.10
  -3  -3   3  201.08   11.40
  -3  -3   3  190.08   10.90
  -2  -3   3    7.40    1.40
  -2  -3   3    4.80    1.50
  -2  -3   3    3.40    1.10
  -2  -3   3    4.30    1.00
   0  -3   3  522.65   26.70
   0  -3   3  547.85   27.20
   0  -3   3  507.85   26.70
   0  -3   3  513.65   27.00
   0  -3   3  562.74   27.30
   1  -3   3 4634.24  237.68
   1  -3   3 4976.80  237.68
   2  -3   3 2665.43  132.79
   2  -3   3 2772.92  133.69
   2  -3   3 2605.94  132.89
  -4   3  -3  181.28   10.30
  -4   3  -3  205.48   11.50
   4  -3   3  195.28   11.90
  -5   3  -3   64.79    4.50
  -5   3  -3   74.89    5.80
   5  -3   3   70.09    6.10
  -6   3  -3   78.89    6.20
  -6   3  -3   64.19    4.80
   6  -3   3   72.39    6.30
  -7   3  -3 3313.27  164.48
   7  -3   3 3233.18  164.78
  -8   3  -3   63.19    6.00
  -8   3  -3   52.99    4.80
   8  -3   3   59.59    4.70
   8  -3   3   66.19    5.90
  -9   3  -3   14.10    3.40
  -9   3  -3   13.10    2.50
  -9  -2   3  150.08    9.70
  -8  -2   3  147.89    9.40
  -8  -2   3  164.18   10.50
  -7  -2   3  679.33   38.40
  -7  -2   3  723.23   37.30
  -7  -2   3  749.53   38.40
  -6  -2   3   78.79    6.40
  -6  -2   3   77.59    6.30
  -6  -2   3   75.29    5.70
  -5  -2   3 3169.48  159.88
  -5  -2   3 3281.07  158.68
  -5  -2   3 3319.27  159.98
  -5  -2   3 2983.60  159.48
  -4  -2   3 2575.94  136.09
  -4  -2   3 2837.72  135.99
  -4  -2   3 2736.83  135.79
  -4  -2   3 2743.03  135.49
  -4  -2   3 2914.31  136.59
  -4  -2   3 2539.35  136.19
  -3  -2   3 4186.78  206.58
  -3  -2   3 3946.01  206.48
  -3  -2   3 4246.67  206.48
  -3  -2   3 4259.87  205.98
  -2  -2   3  170.38    8.80
  -2  -2   3  158.68    9.30
  -2  -2   3  153.68    8.60
  -2  -2   3  163.48    9.10
  -2  -2   3  162.28    9.00
  -1  -2   3 1564.84   75.69
  -1  -2   3 1443.26   75.29
  -1  -2   3 1525.15   75.59
  -1  -2   3 1540.65   75.79
   0  -2   3 4532.55  215.18
   0  -2   3 4138.99  214.78
   0  -2   3 4374.96  214.98
   1  -2   3 3380.66  164.78
   1  -2   3 3283.87  164.68
  -2   2  -3  794.62   40.90
   2  -2   3  876.51   42.00
   2  -2   3  797.02   41.00
  -3   2  -3 2328.47  120.29
   3  -2   3 2526.35  121.69
  -4   2  -3 3960.80  191.98
   4  -2   3 3768.32  192.98
  -5   2  -3  267.07   16.40
  -5   2  -3  269.57   14.60
   5  -2   3  278.97   16.30
  -6   2  -3  835.82   44.00
  -6   2  -3  877.81   45.10
   6  -2   3  868.81   45.70
  -7   2  -3   88.79    5.90
  -7   2  -3   73.79    6.50
   7  -2   3   74.89    6.70
  -8   2  -3 1741.73   88.09
  -8   2  -3 1732.93   88.69
   8  -2   3 1738.63   88.99
  -9   2  -3    3.90    1.70
  -9   2  -3    2.70    1.40
  -9  -1   3    1.90    1.60
  -8  -1   3  756.52   40.20
  -7  -1   3   23.50    2.90
  -7  -1   3   24.10    3.30
  -7  -1   3   17.50    3.20
  -6  -1   3   34.60    4.00
  -6  -1   3   38.70    4.00
  -6  -1   3   39.30    4.00
  -6  -1   3   39.40    3.70
  -5  -1   3   21.30    2.70
  -5  -1   3   20.00    2.80
  -5  -1   3   17.40    2.60
  -4  -1   3 8076.29  417.56
  -4  -1   3 8791.82  417.36
  -3  -1   3  605.74   29.80
  -3  -1   3  599.54   29.70
  -3  -1   3  561.94   29.80
  -3  -1   3  562.94   29.80
  -3  -1   3  563.14   29.30
  -2  -1   3 1463.15   79.09
  -2  -1   3 1620.14   79.49
  -2  -1   3 1683.33   79.69
  -2  -1   3 1546.25   79.49
  -2  -1   3 1647.04   79.19
  -2  -1   3 1605.34   79.39
  -1  -1   3  233.58   11.50
  -1  -1   3  195.48   11.00
  -1  -1   3  214.48   11.20
  -1  -1   3  221.78   11.30
  -1   1  -3 1429.06   68.29
   1  -1   3 1388.06   68.79
   1  -1   3 1310.17   68.29
  -2   1  -3 3394.56  159.78
   2  -1   3 3061.99  160.58
  -3   1  -3    7.00    1.10
   3  -1   3    7.10    1.80
  -4   1  -3 6100.79  294.67
   4  -1   3 5803.72  295.97
  -5   1  -3  735.53   40.70
  -5   1  -3  775.32   39.30
   5  -1   3  791.12   40.80
  -6   1  -3 1468.95   74.99
  -6   1  -3 1469.85   75.59
   6  -1   3 1511.15   76.39
  -7   1  -3   34.90    3.70
  -7   1  -3   34.80    4.00
   7  -1   3   39.50    4.50
  -8   1  -3 1116.39   59.09
  -8   1  -3 1179.18   58.99
   8  -1   3 1128.79   59.39
  -9   1  -3  373.36   20.90
  -9   1  -3  342.17   20.80
   9  -1   3  430.86   24.20
  -9   0   3  132.69    9.00
  -8   0   3 1235.38   62.19
  -8   0   3 1170.38   62.79
  -7   0   3 2053.69   98.79
  -7   0   3 1939.51   99.59
  -7   0   3 2019.40   99.99
  -7   0   3 1857.91   99.29
  -6   0   3  745.83   37.70
  -6   0   3  746.43   40.80
  -6   0   3  709.93   38.40
  -6   0   3  730.73   38.80
  -5   0   3  235.98   14.40
  -5   0   3  270.57   14.00
  -5   0   3  256.27   13.70
  -5   0   3  228.48   14.10
  -4   0   3  735.13   35.60
  -4   0   3  650.63   36.00
  -4   0   3  664.63   35.80
  -4   0   3  733.33   35.70
  -3   0   3 7233.98  339.77
  -3   0   3 6455.75  338.77
  -2   0   3  108.39    6.00
  -2   0   3  106.79    5.60
  -2   0   3   96.59    5.70
  -2   0   3  105.19    6.20
  -2   0   3  108.39    6.20
  -1   0   3   57.49    2.90
  -1   0   3   48.40    3.40
  -1   0   3   49.90    2.90
  -1   0   3   48.60    3.10
  -1   0   3   51.39    3.30
   0   0  -3 2096.09  103.79
   0   0   3 2057.99  103.69
   0   0   3 2072.39  103.89
   0   0   3 2149.69  103.79
  -2   0  -3 1064.69   53.19
  -3   0  -3  591.44   30.10
  -4   0  -3  803.62   40.90
  -5   0  -3 6168.28  320.87
  -5   0  -3 6813.12  320.37
   5   0   3 6383.36  321.27
  -6   0  -3  367.06   20.80
  -6   0  -3  387.06   20.70
   6   0   3  377.36   21.70
  -7   0  -3  128.19    8.40
  -7   0  -3  110.19    8.10
   7   0   3  124.59    9.00
  -8   0  -3    8.90    2.30
  -8   0  -3    6.80    2.10
  -8   0  -3    4.90    2.00
   8   0   3    7.60    2.40
  -9   0  -3  456.95   24.80
  -9   1   3    0.90    2.00
  -9   1   3    3.70    1.80
  -8   1   3    8.10    2.40
  -7   1   3 1731.13   85.49
  -7   1   3 1601.04   84.09
  -7   1   3 1673.63   84.79
  -6   1   3    2.60    1.20
  -6   1   3    4.40    2.00
  -6   1   3    1.40    1.30
  -6   1   3    2.70    1.60
  -5   1   3  597.14   34.00
  -5   1   3  632.54   34.60
  -5   1   3  701.73   33.80
  -5   1   3  687.23   33.60
  -4   1   3   49.80    3.70
  -4   1   3   48.60    3.70
  -4   1   3   47.20    4.20
  -4   1   3   49.70    3.20
  -2   1   3  261.37   13.20
  -2   1   3  251.17   13.10
  -2   1   3  238.88   13.50
  -1   1   3  572.54   30.30
  -1   1   3  614.84   29.90
  -2  -1  -3 2913.91  145.29
  -3  -1  -3  221.88   12.00
  -4  -1  -3   17.50    2.30
  -5  -1  -3 1390.16   70.49
  -6  -1  -3  625.74   34.60
  -6  -1  -3  671.03   34.80
   6   1   3  683.73   36.00
  -7  -1  -3   32.80    4.00
  -7  -1  -3   28.80    3.90
   7   1   3   31.10    4.10
  -8  -1  -3  246.08   14.20
  -8  -1  -3  232.28   14.00
   8   1   3  219.88   14.40
  -9   2   3  171.18   11.40
  -9   2   3  169.88   10.70
  -8   2   3  128.29    8.50
  -8   2   3   83.79   10.40
  -7   2   3  166.18   11.00
  -7   2   3  188.48   12.00
  -6   2   3 3359.06  160.98
  -6   2   3 2916.51  159.68
  -6   2   3 3320.47  159.08
  -5   2   3   12.50    2.90
  -5   2   3   13.20    1.50
  -5   2   3   13.30    2.10
  -4   2   3  914.91   40.90
  -4   2   3  790.12   40.40
  -4   2   3  749.03   41.10
  -4   2   3  779.12   42.00
  -3   2   3 2017.80  103.19
  -3   2   3 2099.29  102.49
   1  -2  -3 1218.78   59.89
  -1   2   3 1198.78   60.79
  -1   2   3 1212.68   60.29
   0   2   3 5107.59  252.47
  -1  -2  -3  329.47   17.10
  -3  -2  -3    6.50    1.40
  -3  -2  -3    5.30    0.90
  -5  -2  -3    6.30    1.70
  -5  -2  -3    7.90    2.10
  -5  -2  -3   10.20    2.50
  -6  -2  -3 3449.75  159.38
  -6  -2  -3 3004.60  158.48
  -6  -2  -3 3080.19  159.48
  -7  -2  -3  104.59    7.40
  -7  -2  -3   82.29    7.10
   7   2   3   92.49    7.60
  -8  -2  -3   24.80    5.10
  -8  -2  -3   22.40    3.70
   8   2   3   20.40    3.40
  -9   3   3   15.40    2.60
  -8   3   3   10.50    3.20
  -8   3   3   17.60    3.80
  -7   3   3    6.80    2.60
  -5   3   3   72.19    5.10
  -5   3   3   73.79    6.30
  -4   3   3 1482.75   77.49
  -4   3   3 1610.74   75.79
  -4   3   3 1474.75   76.29
  -3   3   3  549.95   29.80
  -3   3   3  584.04   28.90
  -2   3   3 5234.58  258.77
   1  -3  -3 1303.87   63.29
  -1   3   3 1285.87   64.19
  -1   3   3 1229.88   63.39
   0  -3  -3  394.36   20.20
   0  -3  -3  408.96   20.60
  -1  -3  -3 2116.29  107.09
  -1  -3  -3 2175.28  106.79
  -2  -3  -3 6365.66  314.27
  -3  -3  -3 4808.02  234.08
  -3  -3  -3 4624.24  233.58
  -4  -3  -3   22.00    3.20
  -4  -3  -3   23.40    2.30
  -4  -3  -3   24.50    3.40
  -5  -3  -3  198.58   12.90
  -5  -3  -3  251.67   14.60
  -5  -3  -3  258.87   14.10
  -6  -3  -3  329.47   19.40
  -6  -3  -3  325.77   21.10
  -7  -3  -3  651.33   34.70
  -7  -3  -3  653.43   34.70
   7   3   3  632.64   35.30
  -8  -3  -3   33.50    3.90
  -8  -3  -3   33.10    3.70
   8   3   3   31.80    4.10
  -9   4   3  197.78   12.40
  -9   4   3  144.19   12.50
  -8   4   3   45.30    5.50
  -8   4   3   38.40    4.20
  -7   4   3  110.89    9.00
  -7   4   3   99.89    7.20
  -6   4   3  117.59    7.60
  -5   4   3 4330.87  216.18
  -5   4   3 4301.57  214.28
  -4   4   3  231.28   14.40
  -4   4   3  237.38   12.20
  -4   4   3  251.67   13.60
  -3   4   3  785.32   40.90
  -3   4   3  786.42   39.50
   2  -4  -3  691.63   34.20
  -2   4   3  651.13   34.30
  -2   4   3  706.53   35.50
  -1   4   3 7095.59  350.46
   0  -4  -3  355.76   17.90
   0  -4  -3  356.86   18.50
   0  -4  -3  341.07   18.30
  -1  -4  -3  116.19    6.90
  -1  -4  -3  117.39    6.90
  -1  -4  -3  111.49    6.20
  -1  -4  -3  119.99    7.30
  -2  -4  -3  378.76   19.70
  -2  -4  -3  370.46   18.90
  -2  -4  -3  304.17   17.80
  -2  -4  -3  360.36   18.60
  -3  -4  -3 1316.97   66.39
  -3  -4  -3 1355.66   66.89
  -3  -4  -3 1286.37   67.89
  -4  -4  -3   82.19    5.60
  -4  -4  -3   90.09    7.20
  -4  -4  -3   84.99    6.40
  -5  -4  -3  174.38   10.80
  -5  -4  -3  157.18   11.40
  -6  -4  -3  101.19    7.50
  -6  -4  -3   87.29    7.70
  -7  -4  -3  933.81   49.80
  -7  -4  -3  913.91   49.70
   7   4   3 1025.90   51.89
  -9   5   3  354.46   21.40
  -8   5   3  698.93   38.80
  -7   5   3    1.60    2.10
  -6   5   3   47.20    3.90
  -6   5   3   45.70    5.90
  -5   5   3 1067.59   55.79
  -5   5   3 1150.18   58.49
  -4   5   3  760.92   38.30
  -4   5   3  664.73   35.80
  -3   5   3   62.69    3.70
  -3   5   3   67.99    5.50
   2  -5  -3 1139.29   64.09
   2  -5  -3 1383.46   64.89
   2  -5  -3 1304.77   64.19
  -2   5   3 1304.67   65.29
   1  -5  -3  786.62   38.70
   1  -5  -3  787.72   38.30
   1  -5  -3  705.23   38.50
  -1   5   3  763.02   39.30
   0  -5  -3 2619.64  132.49
   0  -5  -3 2613.84  132.39
   0  -5  -3 2754.32  132.89
  -1  -5  -3   30.80    3.00
  -1  -5  -3   35.40    3.10
  -1  -5  -3   32.70    3.30
  -2  -5  -3  334.17   19.10
  -2  -5  -3  377.76   20.00
  -2  -5  -3  388.96   20.20
  -2  -5  -3  400.96   21.30
  -3  -5  -3  993.70   53.59
  -3  -5  -3 1026.10   51.89
  -3  -5  -3 1037.00   52.39
  -4  -5  -3 1189.58   63.29
  -4  -5  -3 1233.58   61.89
  -4  -5  -3 1185.68   61.09
  -5  -5  -3   33.80    4.30
  -5  -5  -3   36.70    4.60
  -6  -5  -3  269.77   16.00
  -6  -5  -3  267.07   15.70
  -7  -5  -3    4.10    1.70
  -7  -5  -3    6.60    1.80
   7   5   3    3.50    1.90
  -9   6   3   28.60    6.00
  -8   6   3  173.38   12.70
  -7   6   3    1.60    2.70
  -6   6   3  311.07   19.70
  -5   6   3   11.40    3.60
  -4   6   3 2906.51  146.79
   3  -6  -3   95.59    5.90
   3  -6  -3   85.09    5.70
  -3   6   3  102.09    7.40
   2  -6  -3   12.10    1.60
   2  -6  -3   11.10    1.80
  -2   6   3   10.90    2.50
   1  -6  -3   77.69    4.70
   1  -6  -3   76.19    5.20
   1  -6  -3   74.29    5.00
   0  -6  -3 1812.12   89.29
   0  -6  -3 1762.32   88.29
   0  -6  -3 1713.83   88.79
   0  -6  -3 1804.32   89.49
  -1  -6  -3  272.27   15.50
  -1  -6  -3  259.67   14.60
  -1  -6  -3  249.38   13.70
  -1  -6  -3  271.77   14.90
  -2  -6  -3  550.14   28.80
  -2  -6  -3  575.04   28.80
  -2  -6  -3  491.15   27.50
  -2  -6  -3  562.94   30.10
  -3  -6  -3  250.57   14.80
  -3  -6  -3  258.57   17.70
  -3  -6  -3  252.57   14.40
  -4  -6  -3  229.48   16.00
  -4  -6  -3  259.67   14.90
  -4  -6  -3  247.68   14.10
  -5  -6  -3   15.60    2.70
  -5  -6  -3   23.20    3.60
  -6  -6  -3    4.00    1.70
  -6  -6  -3    2.90    1.30
   9  -7  -3   -1.60    1.40
  -9   7   3    1.50    2.00
   8  -7  -3  807.32   41.30
  -8   7   3  744.43   42.80
  -7   7   3  747.03   41.90
   6  -7  -3   55.99    5.20
  -6   7   3   64.19    7.20
   5  -7  -3  230.38   13.50
  -5   7   3  228.18   15.50
   4  -7  -3 1238.08   62.49
  -4   7   3 1224.48   64.49
   3  -7  -3  725.53   39.20
   3  -7  -3  801.22   39.50
  -3   7   3  785.12   41.10
   2  -7  -3   49.80    4.00
   2  -7  -3   56.09    3.90
   2  -7  -3   53.19    4.00
  -2   7   3   51.69    5.60
   1  -7  -3  533.25   27.50
   1  -7  -3  467.05   27.30
   0  -7  -3 1057.69   52.49
   0  -7  -3  984.20   52.49
   0  -7  -3 1100.59   51.29
   0  -7  -3  984.60   52.49
   0  -7  -3  960.10   51.69
  -1  -7  -3 1708.83   85.89
  -1  -7  -3 1728.43   86.79
  -1  -7  -3 1651.53   85.49
  -2  -7  -3    7.90    1.90
  -2  -7  -3    6.60    2.50
  -2  -7  -3    7.40    2.10
  -3  -7  -3  428.86   22.60
  -3  -7  -3  377.46   24.00
  -4  -7  -3   12.40    2.40
  -4  -7  -3   10.00    2.50
  -4  -7  -3   11.10    2.30
  -5  -7  -3  286.47   19.20
  -5  -7  -3  323.97   17.20
   7  -8  -3  897.21   45.40
  -7   8   3  816.12   47.20
   6  -8  -3  230.48   13.80
  -6   8   3  220.78   15.80
   5  -8  -3  254.07   14.40
  -5   8   3  235.58   16.40
   4  -8  -3   27.30    3.10
  -4   8   3   31.10    4.50
   3  -8  -3 1286.47   64.69
  -3   8   3 1271.37   66.39
   2  -8  -3  265.57   15.00
   2  -8  -3  271.97   15.80
   2  -8  -3  255.67   14.60
   2  -8  -3  272.77   14.60
   1  -8  -3  214.98   12.00
   1  -8  -3  217.58   13.20
   1  -8  -3  209.08   12.40
   1  -8  -3  226.08   13.10
   0  -8  -3  164.58    9.60
   0  -8  -3  161.78   10.30
   0  -8  -3  188.18   11.40
   0  -8  -3  175.68   11.00
  -1  -8  -3  992.50   52.79
  -1  -8  -3 1058.39   54.79
  -1  -8  -3 1020.00   53.39
  -1  -8  -3 1089.99   53.89
  -2  -8  -3   59.99    5.20
  -2  -8  -3   64.69    6.60
  -2  -8  -3   57.99    5.20
  -3  -8  -3    2.10    1.50
  -3  -8  -3    4.90    1.70
  -4  -8  -3   38.70    5.10
   7  -9  -3   42.50    4.50
   7  -9  -3   35.90    4.40
  -7   9   3   34.40    8.20
   6  -9  -3  293.57   17.20
  -6   9   3  304.47   19.50
   5  -9  -3   72.19    5.60
  -5   9   3   69.59    7.40
   4  -9  -3    9.30    2.00
  -4   9   3    9.90    3.00
   3  -9  -3   88.49    7.30
   2  -9  -3  286.87   16.40
   2  -9  -3  321.97   18.20
   1  -9  -3    7.00    1.60
   1  -9  -3    5.60    2.10
   0  -9  -3  393.56   21.20
   0  -9  -3  399.16   22.40
   0  -9  -3  400.96   21.70
   0  -9  -3  350.16   20.10
  -1  -9  -3    2.50    1.60
  -1  -9  -3    6.20    1.90
  -2  -9  -3   62.79    5.20
  -2  -9  -3   62.49    5.20
  -3  -9  -3   36.00    3.70
  -3  -9  -3   29.20    3.50
   6 -10  -3  207.98   12.80
   6 -10  -3  188.98   11.80
  -6  10   3  186.28   13.60
   5 -10  -3  114.89    7.90
   5 -10  -3  123.49    9.40
  -5  10   3  130.59   13.40
   4 -10  -3  276.07   17.00
   4 -10  -3  272.17   15.30
   3 -10  -3  124.59    7.80
   3 -10  -3  127.79    9.40
   2 -10  -3  436.16   23.70
   2 -10  -3  399.46   22.00
   1 -10  -3  200.58   11.90
   1 -10  -3  167.48   10.10
   0 -10  -3   30.10    3.50
  -1 -10  -3  108.69    8.40
  -2 -10  -3  229.68   13.40
   5 -11  -3   80.09    5.70
   5 -11  -3   87.09    7.00
   4 -11  -3   24.50    2.90
   4 -11  -3   21.10    3.70
   3 -11  -3  121.19    8.70
   3 -11  -3  117.79    7.20
   2 -11  -3   33.60    4.10
   1 -11  -3   64.29    5.40
  -1 -11   4  301.17   16.80
  -1 -11   4  315.47   18.00
   0 -11   4   45.30    4.70
   0 -11   4   35.90    3.60
   1 -11   4   56.39    4.40
   1 -11   4   48.80    6.70
   2 -11   4  235.78   12.70
   2 -11   4  188.08   15.20
   3 -11   4  882.61   47.10
   3 -11   4  958.80   49.90
   3 -11   4  862.81   46.40
   4 -11   4    1.90    2.50
   4 -11   4    1.50    1.40
   5 -11   4   10.00    2.40
  -3 -10   4    3.10    2.00
  -3 -10   4   -1.40    1.30
  -2 -10   4    8.80    2.10
  -2 -10   4    9.50    2.40
  -1 -10   4  955.00   50.89
  -1 -10   4  982.80   49.70
   0 -10   4   55.89    4.70
   0 -10   4   70.39    6.00
   1 -10   4    8.80    2.80
   1 -10   4    5.20    2.50
   1 -10   4    2.40    1.50
   1 -10   4    3.90    1.90
   2 -10   4    4.20    2.50
   2 -10   4    3.20    1.60
   3 -10   4  322.97   18.30
   3 -10   4  330.47   19.60
   3 -10   4  321.97   18.80
   4 -10   4  106.49    8.70
   4 -10   4  107.79    7.60
   5 -10   4  108.49    8.70
   5 -10   4  118.29    8.10
  -6  10  -4   71.39    7.20
   6 -10   4   70.09    5.70
   6 -10   4   71.19    6.30
  -4  -9   4  308.17   18.10
  -4  -9   4  319.37   17.40
  -3  -9   4   18.10    3.00
  -3  -9   4   19.70    3.40
  -2  -9   4  271.67   14.90
  -2  -9   4  263.37   15.90
  -2  -9   4  249.18   17.30
  -1  -9   4  432.56   26.40
  -1  -9   4  453.05   25.50
  -1  -9   4  476.35   24.30
   0  -9   4  883.21   51.69
   0  -9   4 1046.80   52.29
   0  -9   4 1005.30   50.99
   1  -9   4  269.97   14.80
   1  -9   4  259.17   15.90
   1  -9   4  260.27   15.80
   1  -9   4  253.17   16.20
   2  -9   4  276.17   16.50
   2  -9   4  278.47   15.70
   2  -9   4  272.37   16.70
   3  -9   4 1228.08   64.59
   3  -9   4 1266.67   67.79
   3  -9   4 1273.47   64.69
  -4   9  -4 1210.48   71.09
   4  -9   4 1439.76   69.89
   4  -9   4 1441.46   71.19
  -5   9  -4   27.70    4.50
   5  -9   4   33.80    3.90
   5  -9   4   29.90    4.50
  -6   9  -4  162.88   11.50
   6  -9   4  169.18   11.40
   6  -9   4  167.68   10.80
  -7   9  -4   42.90    5.20
   7  -9   4   46.90    4.40
   7  -9   4   45.90    5.00
  -5  -8   4   41.40    4.40
  -5  -8   4   49.99    4.20
  -4  -8   4 1173.18   60.49
  -4  -8   4 1158.18   59.49
  -3  -8   4  276.17   22.20
  -3  -8   4  329.87   17.40
  -3  -8   4  322.37   18.40
  -2  -8   4  125.29    8.80
  -2  -8   4  126.69    7.80
  -2  -8   4  110.49    9.50
  -1  -8   4  180.78   10.40
  -1  -8   4  179.58   11.60
  -1  -8   4  164.78   12.00
  -1  -8   4  178.28   11.40
   0  -8   4 1871.31   95.39
   0  -8   4 1878.01   95.39
   0  -8   4 1885.41   94.39
   1  -8   4   36.30    4.00
   1  -8   4   24.40    3.50
   1  -8   4   24.70    2.90
   1  -8   4   29.50    3.40
   2  -8   4  747.43   37.90
   2  -8   4  723.83   37.20
   2  -8   4  716.63   38.20
   2  -8   4  677.33   38.30
  -3   8  -4 1629.84   91.89
   3  -8   4 1842.42   91.99
   3  -8   4 1889.71   91.79
   3  -8   4 1914.51   92.99
  -4   8  -4  788.32   43.70
   4  -8   4  847.62   44.40
   4  -8   4  845.82   43.20
   5  -8   4  253.67   16.50
   5  -8   4  251.97   15.20
  -6   8  -4   70.89    6.40
   6  -8   4   60.99    6.30
   6  -8   4   58.09    5.60
  -7   8  -4  239.88   15.10
   7  -8   4  252.07   16.00
   7  -8   4  231.68   14.20
  -8   8  -4  133.89    9.60
  -6  -7   4   21.30    3.40
  -6  -7   4   16.00    3.00
  -5  -7   4  333.47   18.40
  -5  -7   4  303.47   18.10
  -5  -7   4  304.67   17.40
  -4  -7   4  378.06   21.50
  -4  -7   4  325.87   22.00
  -4  -7   4  362.86   20.60
  -4  -7   4  366.26   19.70
  -3  -7   4 1768.62   90.09
  -3  -7   4 1702.63   92.59
  -3  -7   4 1923.61   90.49
  -3  -7   4 1763.92   91.39
  -2  -7   4   49.60    4.00
  -2  -7   4   47.80    4.60
  -2  -7   4   50.19    5.40
  -1  -7   4  870.91   44.00
  -1  -7   4  816.62   43.80
  -1  -7   4  813.62   44.60
  -1  -7   4  858.51   43.00
   0  -7   4 1418.76   68.99
   0  -7   4 1313.67   68.79
   0  -7   4 1363.36   68.09
   0  -7   4 1301.57   69.39
   1  -7   4 4333.87  214.88
   1  -7   4 4213.28  215.38
   1  -7   4 4381.76  215.18
   1  -7   4 4325.77  214.28
  -2   7  -4  175.58   10.90
   2  -7   4  197.08   11.30
   2  -7   4  196.38   11.80
   2  -7   4  185.38   10.80
   2  -7   4  184.78   11.80
  -3   7  -4  182.28   11.00
   3  -7   4  163.38   10.10
   3  -7   4  169.38   11.10
   3  -7   4  166.48   10.10
  -4   7  -4   16.40    3.20
   4  -7   4    9.20    2.10
   4  -7   4   10.90    2.90
  -5   7  -4 2209.58  112.39
   5  -7   4 2228.28  111.59
   5  -7   4 2202.08  112.99
  -6   7  -4   48.50    5.50
   6  -7   4   46.10    4.70
   6  -7   4   58.19    5.70
  -7   7  -4  177.68   11.80
   7  -7   4  167.38   10.70
   7  -7   4  168.78   11.60
   8  -7   4   60.89    4.80
   8  -7   4   59.99    5.60
  -7  -6   4  914.41   50.69
  -7  -6   4 1071.69   51.59
  -6  -6   4   29.00    3.90
  -6  -6   4   31.50    3.50
  -6  -6   4   23.90    3.70
  -5  -6   4   49.50    5.20
  -5  -6   4   56.59    5.00
  -5  -6   4   63.49    5.60
  -5  -6   4   62.89    6.50
  -4  -6   4  567.44   33.30
  -4  -6   4  603.24   31.80
  -4  -6   4  605.14   31.00
  -4  -6   4  566.14   33.30
  -4  -6   4  603.34   31.90
  -3  -6   4 3194.48  152.58
  -3  -6   4 2936.11  152.78
  -3  -6   4 3106.69  151.98
  -3  -6   4 2958.80  154.08
  -2  -6   4 1235.98   59.79
  -2  -6   4 1107.49   60.29
  -2  -6   4 1264.57   60.59
  -2  -6   4 1127.79   61.19
  -2  -6   4 1160.98   59.59
  -1  -6   4   52.79    4.50
  -1  -6   4   61.19    4.90
  -1  -6   4   55.89    3.70
  -1  -6   4   53.99    4.90
  -1  -6   4   56.69    4.00
   0  -6   4  815.22   41.70
   0  -6   4  841.82   42.30
   0  -6   4  766.82   40.50
  -1   6  -4 2055.69  108.09
   1  -6   4 2212.88  109.09
   1  -6   4 2265.77  108.09
   1  -6   4 1996.30  109.99
   1  -6   4 2295.77  108.59
  -2   6  -4 1641.94   86.19
   2  -6   4 1730.43   85.99
   2  -6   4 1760.22   86.69
   2  -6   4 1725.93   86.79
   2  -6   4 1697.63   85.99
  -3   6  -4  261.27   15.40
   3  -6   4  262.77   14.70
   3  -6   4  269.47   14.60
   3  -6   4  274.27   15.80
  -4   6  -4 1460.15   75.29
   4  -6   4 1426.66   74.39
   4  -6   4 1532.95   75.99
  -5   6  -4 1379.96   68.59
   5  -6   4 1316.27   69.29
   5  -6   4 1291.67   67.69
  -6   6  -4 1054.69   54.69
   6  -6   4 1079.39   55.49
   6  -6   4  992.30   53.59
  -7   6  -4  270.47   16.30
   7  -6   4  259.07   16.20
   7  -6   4  249.97   15.00
  -8   6  -4  255.07   16.10
   8  -6   4  275.97   15.60
   8  -6   4  256.77   16.80
  -7  -5   4   32.90    3.80
  -7  -5   4   47.60    4.60
  -6  -5   4  607.84   31.60
  -6  -5   4  595.34   30.40
  -6  -5   4  560.64   30.80
  -6  -5   4  528.35   32.40
  -5  -5   4   38.00    4.30
  -5  -5   4   41.80    4.00
  -5  -5   4   43.20    5.40
  -5  -5   4   34.50    4.30
  -4  -5   4  247.48   15.10
  -4  -5   4  220.68   13.50
  -4  -5   4  232.48   13.00
  -4  -5   4  210.68   13.60
  -3  -5   4   62.49    5.70
  -3  -5   4   63.59    4.50
  -3  -5   4   67.09    6.90
  -3  -5   4   54.39    4.90
  -2  -5   4 3527.55  175.68
  -2  -5   4 3715.33  176.18
  -2  -5   4 3354.76  176.58
  -1  -5   4   22.40    2.10
  -1  -5   4   25.10    2.60
  -1  -5   4   26.40    2.90
  -1  -5   4   27.60    2.80
  -1  -5   4   25.20    2.20
   0   5  -4 2604.54  138.69
   0  -5   4 2787.62  139.39
   0  -5   4 2748.12  138.59
   0  -5   4 2758.32  138.89
   0  -5   4 2981.90  139.59
   0  -5   4 2894.01  139.89
   1  -5   4   52.19    4.10
   1  -5   4   50.39    3.10
   1  -5   4   53.09    4.30
   1  -5   4   52.09    3.90
   1  -5   4   48.60    3.50
  -2   5  -4 5402.36  273.97
   2  -5   4 5465.95  273.27
   2  -5   4 5691.93  273.47
  -3   5  -4   61.49    4.90
   3  -5   4   61.59    3.90
   3  -5   4   51.79    4.00
   3  -5   4   56.19    4.90
  -4   5  -4 1363.46   69.49
   4  -5   4 1413.16   70.19
   4  -5   4 1303.07   68.59
  -5   5  -4  848.52   42.40
   5  -5   4  783.22   42.90
   5  -5   4  763.22   41.20
  -6   5  -4 2031.10  100.49
   6  -5   4 1957.30  101.09
   6  -5   4 1925.61   99.29
  -7   5  -4  864.01   44.90
   7  -5   4  845.52   45.20
   7  -5   4  811.22   43.40
  -8   5  -4  351.76   20.20
   8  -5   4  336.27   19.70
   8  -5   4  330.87   18.40
  -8  -4   4   89.09    6.70
  -8  -4   4  107.89    7.40
  -7  -4   4  352.06   20.50
  -7  -4   4  391.66   21.50
  -6  -4   4 1520.45   79.39
  -6  -4   4 1639.34   81.09
  -6  -4   4 1492.55   80.69
  -6  -4   4 1586.14   81.19
  -5  -4   4  598.44   30.20
  -5  -4   4  585.74   30.70
  -5  -4   4  572.84   32.00
  -5  -4   4  535.25   31.10
  -4  -4   4  582.74   33.50
  -4  -4   4  642.44   33.40
  -4  -4   4  660.13   34.50
  -4  -4   4  643.04   32.80
  -3  -4   4 2925.51  144.29
  -3  -4   4 2810.82  147.29
  -3  -4   4 2970.80  144.99
  -3  -4   4 2890.61  145.09
  -2  -4   4 3120.69  144.59
  -2  -4   4 2730.43  144.49
  -2  -4   4 2875.01  144.99
  -2  -4   4 2960.00  144.29
  -2  -4   4 2808.02  143.89
  -1  -4   4  819.42   42.10
  -1  -4   4  882.21   41.90
  -1  -4   4  795.92   41.30
  -1  -4   4  782.92   41.80
  -1  -4   4  818.22   41.40
   0  -4   4    8.20    1.80
   0  -4   4    6.40    1.40
   0  -4   4    6.70    1.30
   0  -4   4    4.60    0.90
   0  -4   4    5.80    1.00
   1  -4   4 2580.24  134.69
   1  -4   4 2606.54  134.79
   1  -4   4 2849.91  135.69
   1  -4   4 2838.32  135.19
   2  -4   4  340.77   17.60
   2  -4   4  347.47   18.50
   2  -4   4  325.77   17.50
   3  -4   4 1480.15   73.89
   3  -4   4 1417.96   73.89
   3  -4   4 1537.15   75.29
  -4   4  -4  101.19    7.60
   4  -4   4   96.79    7.40
   4  -4   4   91.29    5.90
  -5   4  -4 1234.88   60.79
   5  -4   4 1114.69   61.39
  -6   4  -4 1474.15   72.29
   6  -4   4 1382.76   72.89
   6  -4   4 1344.37   70.89
  -7   4  -4 1415.56   70.89
   7  -4   4 1319.57   69.19
  -8   4  -4   20.20    2.80
  -8   4  -4   19.00    3.70
   8  -4   4   23.30    3.60
  -9   4  -4  151.28   10.20
  -8  -3   4   90.49    6.70
  -8  -3   4   60.99    6.50
  -7  -3   4  328.87   20.00
  -7  -3   4  323.67   18.80
  -7  -3   4  359.56   19.80
  -6  -3   4    7.00    2.70
  -6  -3   4    2.40    1.80
  -6  -3   4    5.70    1.90
  -5  -3   4  224.78   12.40
  -5  -3   4  222.58   13.60
  -5  -3   4  196.08   13.10
  -5  -3   4  214.88   12.80
  -4  -3   4  756.82   39.90
  -4  -3   4  778.92   39.30
  -3  -3   4 2736.33  137.19
  -3  -3   4 2839.52  138.19
  -3  -3   4 2703.33  137.89
  -3  -3   4 2765.02  137.89
  -2  -3   4  235.08   13.30
  -2  -3   4  258.27   14.00
  -2  -3   4  251.27   13.70
  -2  -3   4  268.57   13.70
  -2  -3   4  250.67   13.90
   0  -3   4   23.10    1.70
   0  -3   4   23.80    1.80
   0  -3   4   24.00    2.20
   0  -3   4   23.00    2.50
   1  -3   4 6531.45  322.97
   2  -3   4 5577.64  287.87
   2  -3   4 6074.29  287.87
  -3   3  -4 1833.52   95.79
   3  -3   4 2044.00   96.99
   3  -3   4 1881.71   95.39
  -4   3  -4  558.14   29.80
   4  -3   4  611.34   32.00
   4  -3   4  602.54   30.20
  -5   3  -4 2467.75  116.99
  -5   3  -4 2107.09  115.19
   5  -3   4 2333.77  115.59
   5  -3   4 2358.16  117.69
  -6   3  -4  610.84   34.90
  -6   3  -4  717.43   36.80
   6  -3   4  704.03   35.40
   6  -3   4  706.93   37.50
  -8   3  -4   82.79    7.00
  -8   3  -4   81.49    6.00
   8  -3   4   83.69    7.10
  -9   3  -4   46.90    4.80
  -9   3  -4   55.59    4.70
  -9  -2   4  466.45   25.40
  -8  -2   4  158.98   10.40
  -8  -2   4  148.09    9.50
  -7  -2   4   69.99    5.70
  -7  -2   4   72.79    6.70
  -7  -2   4   64.29    6.00
  -6  -2   4 1405.06   70.09
  -6  -2   4 1372.96   70.79
  -6  -2   4 1351.36   70.69
  -5  -2   4 2886.91  147.49
  -5  -2   4 3081.29  148.19
  -5  -2   4 3019.60  147.59
  -5  -2   4 2688.03  147.89
  -5  -2   4 3078.49  147.09
  -4  -2   4 1546.75   83.69
  -4  -2   4 1626.44   82.89
  -4  -2   4 1722.73   83.49
  -4  -2   4 1725.83   83.79
  -4  -2   4 1658.73   83.39
  -3  -2   4   73.49    4.70
  -3  -2   4   67.79    4.40
  -3  -2   4   57.89    4.00
  -3  -2   4   54.09    4.30
  -3  -2   4   58.29    4.40
  -1  -2   4  260.67   14.20
  -1  -2   4  299.77   14.90
  -1  -2   4  272.97   14.60
  -1  -2   4  272.67   14.60
  -1  -2   4  282.07   14.50
   0  -2   4 2378.66  107.99
   0  -2   4 1977.20  107.39
   0  -2   4 2173.68  107.69
   0  -2   4 2148.89  107.89
   1  -2   4   63.79    3.70
   1  -2   4   63.19    3.90
   1  -2   4   71.79    4.40
  -2   2  -4 2811.92  139.69
   2  -2   4 2657.63  139.69
   2  -2   4 2999.70  140.89
  -3   2  -4  908.51   44.50
   3  -2   4  913.01   46.10
   3  -2   4  841.92   44.40
  -4   2  -4 2986.60  150.98
   4  -2   4 3078.89  150.98
   4  -2   4 3063.69  152.98
  -5   2  -4 1233.18   63.49
  -5   2  -4 1272.87   64.79
   5  -2   4 1279.07   65.59
  -6   2  -4 3729.93  193.98
  -6   2  -4 4008.00  195.48
   6  -2   4 3972.40  196.18
  -7   2  -4    2.80    2.70
  -7   2  -4    2.30    1.40
   7  -2   4    6.70    2.80
  -8   2  -4  369.06   21.60
  -8   2  -4  380.56   21.10
   8  -2   4  389.76   22.10
  -9   2  -4   13.20    2.70
  -9   2  -4   21.30    2.80
   9  -2   4   19.80    3.90
  -9  -1   4    0.30    1.20
  -7  -1   4  454.35   25.00
  -7  -1   4  428.96   24.50
  -7  -1   4  459.25   24.00
  -6  -1   4  106.39    7.20
  -6  -1   4  103.59    7.80
  -6  -1   4  113.89    7.60
  -6  -1   4  103.79    7.70
  -5  -1   4  442.76   25.30
  -5  -1   4  497.45   25.10
  -5  -1   4  485.55   25.10
  -5  -1   4  442.26   25.30
  -4  -1   4 4222.68  218.28
  -4  -1   4 4376.36  217.48
  -4  -1   4 4604.44  217.98
  -4  -1   4 4555.44  217.98
  -4  -1   4 4179.78  218.18
  -3  -1   4  702.23   39.00
  -3  -1   4  837.82   39.70
  -3  -1   4  804.32   39.30
  -3  -1   4  767.82   39.50
  -3  -1   4  757.62   39.70
  -2  -1   4 3640.54  185.88
  -2  -1   4 3672.43  185.28
  -2  -1   4 4309.97  187.48
  -2  -1   4 3628.74  185.78
  -2  -1   4 3487.85  185.28
  -1  -1   4 2093.59  102.19
  -1  -1   4 1841.82  101.79
  -1  -1   4 1999.00  101.99
  -1  -1   4 2250.67  102.49
  -1  -1   4 2093.39  102.09
   0  -1   4 3722.03  203.88
   0  -1   4 4537.95  204.38
   1  -1   4  280.87   14.90
   1  -1   4  295.87   15.40
  -2   1  -4 7466.15  368.86
  -3   1  -4 6308.37  278.97
   3  -1   4 4966.00  278.47
  -4   1  -4 3658.53  174.78
   4  -1   4 3377.96  176.38
   5  -1   4   11.90    3.00
  -6   1  -4  200.48   11.90
  -6   1  -4  197.58   12.70
   6  -1   4  209.68   13.50
  -7   1  -4 1183.68   62.99
  -7   1  -4 1185.98   65.49
   7  -1   4 1320.57   65.39
  -8   1  -4  147.49   10.20
  -8   1  -4  160.18   10.20
  -8   1  -4  161.28   10.00
   8  -1   4  157.88   10.80
  -9   0   4  371.16   20.80
  -8   0   4   70.49    5.90
  -8   0   4   61.29    5.70
  -7   0   4    3.30    1.60
  -7   0   4   -0.20    1.70
  -7   0   4    3.10    1.80
  -7   0   4    3.00    2.00
  -6   0   4   15.00    2.30
  -6   0   4   12.40    3.00
  -6   0   4   15.20    3.10
  -6   0   4   18.00    2.60
  -5   0   4 3878.81  181.48
  -5   0   4 3906.31  181.58
  -5   0   4 3405.96  182.28
  -5   0   4 3393.96  182.38
  -4   0   4  102.29    6.60
  -4   0   4   97.49    6.70
  -4   0   4  109.79    6.20
  -3   0   4 1361.66   65.39
  -3   0   4 1284.67   65.29
  -3   0   4 1265.87   64.79
  -3   0   4 1281.77   64.69
  -2   0   4  289.87   13.80
  -2   0   4  257.77   14.00
  -2   0   4  259.17   13.50
  -2   0   4  271.37   14.20
  -2   0   4  248.78   14.40
   0   0   4  317.87   16.80
   0   0   4  340.07   17.00
   0   0   4  332.37   17.20
  -1   0  -4 3717.03  185.58
   1   0   4 3707.63  185.58
   1   0   4 3823.52  186.28
   2   0   4  551.94   29.20
  -3   0  -4 3520.45  162.08
   3   0   4 3008.10  163.38
  -4   0  -4  226.78   12.30
   4   0   4  212.18   13.50
  -5   0  -4 1725.13   86.49
   5   0   4 1710.33   88.09
  -6   0  -4  364.76   19.70
  -6   0  -4  337.57   19.90
   6   0   4  362.86   21.10
  -7   0  -4 1214.28   65.09
  -7   0  -4 1318.77   65.09
   7   0   4 1279.07   66.39
  -8   0  -4  114.99    8.50
  -8   0  -4  133.19    8.80
  -8   0  -4  140.49    9.10
   8   0   4  131.09    9.40
  -9   1   4  167.78   10.80
  -9   1   4  173.88   13.00
  -8   1   4   45.30    5.10
  -8   1   4   41.90    4.50
  -7   1   4 1586.14   79.99
  -7   1   4 1514.65   79.09
  -6   1   4    6.60    2.30
  -6   1   4   10.30    2.10
  -6   1   4   13.20    2.70
  -5   1   4  604.94   34.10
  -5   1   4  706.63   33.90
  -5   1   4  687.03   33.40
  -5   1   4  608.04   34.90
  -4   1   4 2055.29   99.79
  -4   1   4 1952.00  100.79
  -4   1   4 1922.81  101.49
  -4   1   4 2119.79  100.79
  -3   1   4 4202.78  205.08
  -3   1   4 4184.08  204.98
  -3   1   4 4012.50  205.58
  -2   1   4  771.52   38.00
  -2   1   4  770.62   38.10
  -2   1   4  713.43   38.50
   1  -1  -4 1864.71   95.09
  -1   1   4 1970.70   96.19
  -1   1   4 2074.59   95.69
  -1   1   4 1785.12   95.39
   0   1   4 2005.80   99.69
   1   1   4 1315.97   65.79
  -2  -1  -4  121.19    7.00
  -3  -1  -4  488.25   25.30
  -4  -1  -4 3899.71  193.98
  -5  -1  -4  507.25   25.90
  -5  -1  -4  444.86   25.80
   5   1   4  492.95   27.20
  -6  -1  -4   78.29    6.00
  -6  -1  -4   67.89    5.80
   6   1   4   88.99    7.10
  -7  -1  -4   20.30    3.30
  -7  -1  -4   21.10    3.30
   7   1   4   20.20    4.10
  -8  -1  -4  348.27   19.90
  -8  -1  -4  351.56   20.10
   8   1   4  356.96   20.80
  -9   2   4   76.99    6.60
  -9   2   4   73.19    5.80
  -8   2   4 1660.33   84.09
  -8   2   4 1597.64   82.99
  -7   2   4   10.70    2.30
  -7   2   4   12.10    3.30
  -6   2   4  361.26   20.80
  -6   2   4  390.26   22.10
  -5   2   4  283.57   17.00
  -5   2   4  280.67   15.80
  -4   2   4 5209.88  261.57
  -4   2   4 5291.37  260.47
  -2   2   4 3836.72  183.08
  -2   2   4 3550.04  183.78
   1  -2  -4  404.06   21.30
   1  -2  -4  439.16   21.30
  -1   2   4  438.46   21.90
   0   2   4 4138.19  204.88
  -1  -2  -4  148.99    8.40
  -2  -2  -4 1092.69   52.59
  -2  -2  -4  992.20   52.09
  -3  -2  -4  246.58   12.90
  -3  -2  -4  216.88   12.00
  -4  -2  -4 2009.30  100.99
  -5  -2  -4  577.34   33.00
  -5  -2  -4  657.63   33.90
  -5  -2  -4  656.53   33.40
  -6  -2  -4   26.60    3.40
  -6  -2  -4   27.40    3.90
  -6  -2  -4   30.30    3.80
   6   2   4   37.40    5.90
  -7  -2  -4   13.30    2.90
   7   2   4   13.50    3.40
  -8  -2  -4  309.67   17.70
  -8  -2  -4  322.87   17.80
   8   2   4  297.27   18.20
  -9   3   4    4.80    1.80
  -9   3   4    3.90    2.00
  -8   3   4  356.86   20.50
  -8   3   4  376.36   22.10
  -7   3   4  739.53   38.70
  -7   3   4  660.73   36.90
  -6   3   4  794.62   42.20
  -6   3   4  827.62   43.90
  -5   3   4  190.78   12.60
  -5   3   4  189.58   11.10
  -4   3   4 1670.43   82.69
  -4   3   4 1626.74   84.09
  -3   3   4 5446.35  260.67
  -3   3   4 5078.89  261.67
  -2   3   4  712.13   37.40
  -2   3   4  731.73   36.50
   1  -3  -4  142.19    7.30
  -1   3   4  135.09    7.60
  -1   3   4  135.49    8.40
   0  -3  -4 1882.31   92.99
   0  -3  -4 1822.52   92.99
   0   3   4 1892.51   92.89
  -2  -3  -4   15.10    2.40
  -2  -3  -4   20.50    2.60
  -2  -3  -4   16.90    1.80
  -3  -3  -4  104.19    7.30
  -3  -3  -4  100.59    6.70
  -3  -3  -4   99.19    6.00
  -4  -3  -4  114.49    8.10
  -4  -3  -4  108.79    7.60
  -5  -3  -4 1213.88   66.69
  -5  -3  -4 1420.66   67.59
  -5  -3  -4 1317.67   68.09
  -6  -3  -4   78.59    6.50
   6   3   4   80.69    7.20
  -7  -3  -4    7.10    2.30
  -9   4   4  530.45   29.90
  -9   4   4  530.55   30.60
  -8   4   4   76.19    6.10
  -8   4   4   84.49    7.80
  -7   4   4 1133.49   61.39
  -7   4   4 1267.27   63.79
  -6   4   4   40.90    5.50
  -6   4   4   45.00    4.10
  -5   4   4  100.09    6.50
  -5   4   4   98.59    8.30
  -4   4   4    3.10    1.10
  -4   4   4    4.30    2.30
  -3   4   4 3331.87  163.68
  -3   4   4 3203.68  162.08
  -2   4   4 3506.15  178.88
  -2   4   4 3710.73  180.08
   0  -4  -4    5.70    1.40
   0  -4  -4    3.70    1.20
   0  -4  -4    5.70    0.80
  -1  -4  -4 2664.53  133.69
  -1  -4  -4 2688.93  133.39
  -2  -4  -4 1390.96   69.39
  -2  -4  -4 1338.47   68.19
  -2  -4  -4 1319.47   67.79
  -3  -4  -4  799.62   40.60
  -3  -4  -4  760.12   41.40
  -3  -4  -4  784.72   39.80
  -4  -4  -4   75.59    6.00
  -4  -4  -4   69.69    6.40
  -5  -4  -4  497.25   30.20
  -5  -4  -4  519.75   28.80
  -6  -4  -4  272.37   16.20
  -7  -4  -4   30.90    3.90
  -7  -4  -4   29.00    3.50
   7   4   4   32.70    4.10
  -9   5   4  135.29   11.00
  -8   5   4    3.40    2.30
  -7   5   4  442.06   26.50
  -7   5   4  540.25   29.20
  -6   5   4 2203.78  107.79
  -6   5   4 1969.10  105.39
  -5   5   4  114.79    9.20
  -5   5   4  106.19    6.70
  -4   5   4   16.10    3.60
  -4   5   4   15.20    1.90
  -3   5   4   35.30    4.30
  -3   5   4   36.00    3.20
   2  -5  -4 6879.71  345.97
   2  -5  -4 7399.06  346.37
   2  -5  -4 6497.85  346.57
  -2   5   4 6923.91  347.17
  -2   5   4 7326.17  347.97
   1  -5  -4  246.98   14.30
   1  -5  -4  305.97   15.10
   0  -5  -4   16.40    2.00
   0  -5  -4   10.30    2.00
   0  -5  -4   12.00    1.20
  -1  -5  -4   28.90    3.20
  -1  -5  -4   29.40    3.00
  -1  -5  -4   33.60    3.40
  -2  -5  -4 2741.53  132.19
  -2  -5  -4 2730.83  131.19
  -2  -5  -4 2382.76  133.19
  -3  -5  -4   18.00    3.10
  -3  -5  -4   20.60    2.40
  -3  -5  -4   15.30    3.30
  -4  -5  -4   10.20    3.10
  -4  -5  -4    4.90    1.90
  -5  -5  -4  135.39    9.20
  -5  -5  -4  118.69    9.60
  -6  -5  -4  955.30   51.09
  -6  -5  -4 1018.60   51.39
  -9   6   4   61.09    6.40
  -8   6   4   35.80    5.40
  -7   6   4   -0.70    2.30
  -6   6   4  965.40   52.59
  -5   6   4  606.94   34.30
  -4   6   4  314.47   19.10
   3  -6  -4    3.50    1.20
  -3   6   4    4.50    1.90
   2  -6  -4  775.52   37.90
   2  -6  -4  741.63   38.00
   2  -6  -4  713.53   38.20
  -2   6   4  757.02   39.70
   1  -6  -4  215.58   11.40
   1  -6  -4  209.78   11.90
   0  -6  -4  269.87   15.20
   0  -6  -4  280.07   14.00
   0  -6  -4  251.67   14.80
  -1  -6  -4   86.49    6.30
  -1  -6  -4   99.99    6.50
  -1  -6  -4   90.49    6.80
  -2  -6  -4  467.75   26.40
  -2  -6  -4  474.05   25.10
  -2  -6  -4  468.85   25.40
  -3  -6  -4  804.62   42.00
  -3  -6  -4  852.81   42.70
  -3  -6  -4  780.42   44.00
  -4  -6  -4   35.70    7.30
  -4  -6  -4   37.60    4.40
  -5  -6  -4   43.60    4.70
   8  -7  -4    3.40    1.80
  -8   7   4    7.00    3.00
   7  -7  -4    0.40    1.50
  -7   7   4    3.90    2.60
   6  -7  -4  242.68   15.40
  -6   7   4  207.48   16.20
   5  -7  -4 1078.79   55.59
  -5   7   4 1089.49   58.19
   4  -7  -4   42.20    3.60
   4  -7  -4   35.60    3.40
  -4   7   4   42.20    5.40
   3  -7  -4   21.70    2.70
   3  -7  -4   25.00    2.50
  -3   7   4   19.30    3.70
   2  -7  -4   58.89    3.90
   2  -7  -4   50.59    4.20
   1  -7  -4 1599.14   81.89
   1  -7  -4 1654.03   81.99
   0  -7  -4  121.59    7.20
   0  -7  -4  139.09    8.70
   0  -7  -4  128.09    8.10
  -1  -7  -4   -0.60    1.20
  -1  -7  -4    2.50    1.40
  -1  -7  -4    2.30    1.90
  -2  -7  -4   25.70    3.60
  -2  -7  -4   27.50    4.30
  -2  -7  -4   29.40    3.30
  -3  -7  -4 1241.08   63.99
  -3  -7  -4 1228.38   67.29
  -3  -7  -4 1266.47   63.59
  -4  -7  -4   45.20    4.10
  -4  -7  -4   45.70    4.70
  -5  -7  -4    9.40    2.10
  -5  -7  -4   11.50    2.10
   8  -8  -4    7.10    2.20
  -8   8   4    3.60    2.60
   7  -8  -4   36.80    4.40
  -7   8   4   30.70    5.70
   6  -8  -4   11.50    2.40
   5  -8  -4  621.84   32.80
  -5   8   4  622.14   35.50
   4  -8  -4  844.52   44.10
  -4   8   4  872.61   46.50
   3  -8  -4    8.00    1.60
   3  -8  -4    8.30    1.70
  -3   8   4    4.40    2.10
   2  -8  -4   58.99    4.20
   2  -8  -4   55.89    4.60
   1  -8  -4  570.74   30.10
   1  -8  -4  615.04   31.00
   1  -8  -4  536.45   29.30
   0  -8  -4  662.53   34.00
   0  -8  -4  587.64   33.30
   0  -8  -4  658.63   34.70
  -1  -8  -4   14.70    2.60
  -1  -8  -4   12.80    3.20
  -1  -8  -4   12.30    2.30
  -2  -8  -4   77.99    6.20
  -2  -8  -4   80.79    6.00
  -2  -8  -4   70.09   10.30
  -3  -8  -4  485.25   27.00
  -3  -8  -4  514.85   28.00
  -4  -8  -4  816.22   42.50
   7  -9  -4   22.60    3.30
  -7   9   4   21.60    4.60
   6  -9  -4   16.70    2.80
  -6   9   4   16.10    4.10
   5  -9  -4    1.30    1.40
  -5   9   4    3.30    2.60
   4  -9  -4  907.71   48.00
  -4   9   4  969.30   50.39
   3  -9  -4   42.60    4.90
   3  -9  -4   48.70    3.80
   2  -9  -4   11.30    2.80
   2  -9  -4    2.10    2.40
   2  -9  -4    5.60    1.50
   1  -9  -4   16.90    3.30
   1  -9  -4   21.10    3.10
   0  -9  -4  261.97   15.50
   0  -9  -4  282.87   16.00
  -1  -9  -4   27.80    3.50
  -1  -9  -4   33.10    3.80
  -2  -9  -4   13.20    2.80
  -2  -9  -4   13.10    2.50
  -3  -9  -4    6.40    1.80
   6 -10  -4    2.10    1.50
   6 -10  -4    3.90    2.40
  -6  10   4    5.90    2.50
   5 -10  -4   -2.70    1.20
   5 -10  -4    0.80    1.80
   4 -10  -4  105.89    7.60
   4 -10  -4  104.09    8.30
   3 -10  -4  270.87   15.50
   3 -10  -4  301.37   17.30
   2 -10  -4   68.29    6.00
   1 -10  -4  215.48   13.20
   0 -10  -4   45.80    5.80
  -1 -10  -4  215.58   12.70
   3 -11  -4  193.38   12.30
   2 -11  -4    0.30    1.30
   0 -11   5   56.69    4.50
   0 -11   5   57.79    5.40
   1 -11   5  753.52   37.00
   1 -11   5  668.93   38.10
   2 -11   5   71.79    7.30
   2 -11   5   77.09    6.60
   2 -11   5   94.99    6.40
   3 -11   5   75.79    5.60
   3 -11   5   70.39    6.70
   4 -11   5   38.00    5.00
   4 -11   5   45.60    4.10
  -2 -10   5   32.90    4.80
  -2 -10   5   39.10    4.00
  -1 -10   5  592.34   32.80
  -1 -10   5  612.14   31.60
   0 -10   5   10.30    2.40
   0 -10   5    2.20    1.60
   1 -10   5  299.67   16.40
   1 -10   5  269.57   17.30
   1 -10   5  304.37   17.60
   2 -10   5  615.64   32.20
   2 -10   5  611.24   33.40
   2 -10   5  599.74   33.00
   3 -10   5   78.59    6.30
   3 -10   5   78.29    7.10
   3 -10   5   77.99    6.00
   4 -10   5   42.10    4.20
   4 -10   5   43.20    5.10
   5 -10   5  322.77   19.20
   5 -10   5  308.97   18.60
  -4  -9   5   15.00    2.60
  -4  -9   5   13.00    2.50
  -3  -9   5   32.20    4.00
  -3  -9   5   35.50    3.60
  -2  -9   5 1300.47   67.49
  -2  -9   5 1311.07   66.29
  -1  -9   5   29.60    3.30
  -1  -9   5   27.70    4.00
   0  -9   5   57.39    4.70
   0  -9   5   52.29    5.70
   0  -9   5   55.39    5.60
   0  -9   5   58.69    5.50
   1  -9   5   44.30    5.10
   1  -9   5   53.39    5.80
   1  -9   5   51.29    5.30
   1  -9   5   49.90    4.30
   2  -9   5 2218.18  111.59
   2  -9   5 2173.58  110.39
   3  -9   5   35.20    4.70
   3  -9   5   40.90    4.10
   3  -9   5   37.70    4.80
  -4   9  -5  220.78   14.30
   4  -9   5  247.98   15.40
   4  -9   5  239.98   14.10
  -5   9  -5  117.69    9.00
   5  -9   5  126.99    9.70
   5  -9   5  127.19    8.50
  -6   9  -5  630.24   34.30
  -5  -8   5  115.39    7.50
  -5  -8   5  115.49    8.10
  -4  -8   5  395.16   22.80
  -4  -8   5  420.26   22.20
  -3  -8   5   78.69    7.90
  -3  -8   5   90.79    6.20
  -3  -8   5   79.99    6.70
  -2  -8   5  301.77   17.50
  -2  -8   5  300.57   16.40
  -2  -8   5  282.17   18.50
  -1  -8   5  402.26   22.40
  -1  -8   5  370.96   23.10
  -1  -8   5  407.06   21.30
  -1  -8   5  405.06   22.50
   0  -8   5  249.38   13.40
   0  -8   5  227.88   14.30
   0  -8   5  229.98   14.80
   0  -8   5  233.48   14.30
   1  -8   5   72.29    6.20
   1  -8   5   66.59    6.30
   1  -8   5   75.89    5.40
   1  -8   5   83.09    6.20
   2  -8   5  979.70   49.80
   2  -8   5  973.00   50.49
   2  -8   5  961.50   50.89
  -3   8  -5  900.71   51.49
   3  -8   5  996.70   51.19
   3  -8   5 1048.20   51.39
   3  -8   5 1047.20   52.69
  -4   8  -5  129.49    9.40
   4  -8   5  126.89   12.10
   4  -8   5  140.89    8.90
  -5   8  -5   77.59    6.90
   5  -8   5   83.99    6.40
   5  -8   5   85.49    7.60
  -6   8  -5  505.85   28.10
   6  -8   5  508.85   27.20
   6  -8   5  493.25   28.50
  -7   8  -5  882.51   46.80
   7  -8   5  899.11   45.70
   7  -8   5  870.11   46.70
  -6  -7   5   17.40    3.00
  -6  -7   5   12.30    2.50
  -5  -7   5 1344.07   69.69
  -5  -7   5 1324.97   70.39
  -5  -7   5 1452.95   70.69
  -4  -7   5   78.89    5.90
  -4  -7   5   73.39    6.40
  -4  -7   5   82.29    6.30
  -4  -7   5   60.39    9.00
  -3  -7   5   41.90    3.80
  -3  -7   5   36.80    5.30
  -3  -7   5   38.90    3.90
  -2  -7   5    7.60    1.90
  -2  -7   5    5.10    2.80
  -2  -7   5    4.00    2.10
  -2  -7   5    7.80    2.10
  -1  -7   5 3938.51  202.48
  -1  -7   5 4097.89  201.78
  -1  -7   5 4149.48  200.78
  -1  -7   5 3969.20  201.68
   0  -7   5 1576.04   78.59
   0  -7   5 1546.75   77.59
   0  -7   5 1501.65   78.99
   0  -7   5 1542.95   78.49
   1  -7   5  110.69    8.30
   1  -7   5  124.99    8.00
   1  -7   5  115.29    8.10
   1  -7   5  114.69    7.20
  -2   7  -5   28.70    3.20
   2  -7   5   22.10    2.70
   2  -7   5   22.40    3.50
   2  -7   5   20.80    3.00
  -3   7  -5 3476.75  176.48
   3  -7   5 3492.85  175.68
   3  -7   5 3607.74  177.18
  -4   7  -5   50.29    5.00
   4  -7   5   45.20    4.20
   4  -7   5   50.19    5.40
  -5   7  -5    9.00    2.90
   5  -7   5   16.70    4.00
   5  -7   5    6.40    2.20
  -6   7  -5  183.58   12.00
   6  -7   5  168.98   10.80
   6  -7   5  175.38   12.30
  -7   7  -5 1328.27   68.69
   7  -7   5 1306.07   67.29
   7  -7   5 1341.47   68.89
  -8   7  -5  432.06   23.90
   8  -7   5  414.76   23.60
  -6  -6   5   97.59    7.30
  -6  -6   5   98.49    6.90
  -6  -6   5  104.19    7.70
  -5  -6   5  566.44   30.40
  -5  -6   5  593.84   33.20
  -5  -6   5  520.55   29.20
  -5  -6   5  533.75   30.00
  -4  -6   5  781.92   42.70
  -4  -6   5  788.82   44.30
  -4  -6   5  812.92   41.90
  -4  -6   5  858.01   43.00
  -3  -6   5  635.84   32.90
  -3  -6   5  603.84   33.70
  -3  -6   5  658.13   33.50
  -2  -6   5  306.57   16.30
  -2  -6   5  286.67   17.00
  -2  -6   5  309.97   17.20
  -2  -6   5  297.37   17.80
  -1  -6   5 1593.24   83.39
  -1  -6   5 1717.73   83.49
  -1  -6   5 1632.04   83.99
  -1  -6   5 1661.13   82.59
  -1  -6   5 1635.04   82.49
   0  -6   5 6025.90  295.27
   0  -6   5 5719.03  294.77
   0  -6   5 6138.59  296.47
  -1   6  -5  368.46   21.50
   1  -6   5  446.06   22.70
   1  -6   5  404.46   22.20
   1  -6   5  415.86   21.90
   1  -6   5  395.56   21.30
  -2   6  -5  653.13   35.60
   2  -6   5  657.73   34.90
   2  -6   5  696.03   36.00
   2  -6   5  711.73   35.30
  -3   6  -5  237.98   14.40
   3  -6   5  262.27   15.00
   3  -6   5  232.28   13.50
  -4   6  -5 4591.54  225.58
   4  -6   5 4387.36  224.38
   4  -6   5 4569.04  226.38
  -5   6  -5    4.70    2.10
   5  -6   5    2.10    2.20
   5  -6   5    4.10    1.70
  -6   6  -5  149.99    9.90
   6  -6   5  115.99    9.30
   6  -6   5  125.79   10.10
  -7   6  -5  231.68   14.70
   7  -6   5  234.78   15.00
   7  -6   5  230.68   13.30
  -8   6  -5  718.83   37.90
   8  -6   5  669.73   37.00
  -7  -5   5   22.00    4.00
  -7  -5   5   25.30    4.30
  -6  -5   5  130.39    9.10
  -6  -5   5  121.59   11.40
  -6  -5   5  144.09    8.80
  -6  -5   5  140.59    9.80
  -5  -5   5  875.11   47.80
  -5  -5   5  898.41   48.80
  -5  -5   5  921.51   47.50
  -5  -5   5  929.91   46.80
  -4  -5   5 1812.42   90.79
  -4  -5   5 1767.52   88.69
  -4  -5   5 1760.82   89.69
  -4  -5   5 1709.73   89.39
  -3  -5   5  146.99    9.30
  -3  -5   5  151.58   10.20
  -3  -5   5  147.09    8.70
  -3  -5   5  135.09    9.30
  -2  -5   5  205.68   11.70
  -2  -5   5  187.28   10.90
  -2  -5   5  196.18   12.10
  -2  -5   5  187.08   11.60
  -2  -5   5  203.08   11.20
  -1  -5   5  144.29    8.50
  -1  -5   5  152.48    9.20
  -1  -5   5  144.09    8.50
  -1  -5   5  152.78    9.20
  -1  -5   5  157.58    9.60
   0  -5   5 5012.60  238.18
   0  -5   5 4662.53  237.28
   0  -5   5 4704.03  237.38
   1  -5   5 1077.69   53.69
   1  -5   5 1088.99   54.19
   1  -5   5 1022.40   53.19
   1  -5   5 1041.70   54.29
   2  -5   5  220.68   11.90
   2  -5   5  218.58   13.40
   2  -5   5  204.78   11.70
  -3   5  -5  175.68   12.00
   3  -5   5  169.28    9.80
   3  -5   5  179.78   11.30
  -4   5  -5 2657.33  129.59
   4  -5   5 2583.54  130.29
   4  -5   5 2472.05  128.19
  -5   5  -5 1298.87   64.79
   5  -5   5 1240.18   63.39
   5  -5   5 1208.58   65.49
  -6   5  -5   10.10    2.90
   6  -5   5   15.00    2.30
  -7   5  -5  419.36   23.60
   7  -5   5  399.56   23.90
  -8   5  -5  535.35   28.40
   8  -5   5  478.35   28.00
  -8  -4   5    4.10    1.70
  -8  -4   5    9.30    2.40
  -7  -4   5  772.12   39.70
  -7  -4   5  704.23   38.60
  -6  -4   5  237.58   13.30
  -6  -4   5  230.28   14.40
  -6  -4   5  207.28   14.40
  -6  -4   5  232.78   13.80
  -5  -4   5   27.40    4.00
  -5  -4   5   35.20    3.60
  -5  -4   5   25.80    3.70
  -5  -4   5   27.90    3.80
  -4  -4   5 1140.19   62.99
  -4  -4   5 1210.78   62.89
  -4  -4   5 1258.07   63.69
  -4  -4   5 1258.57   63.79
  -4  -4   5 1269.47   62.29
  -3  -4   5 2537.05  126.79
  -3  -4   5 2406.76  126.29
  -3  -4   5 2508.35  125.59
  -3  -4   5 2606.74  125.89
  -3  -4   5 2535.05  126.59
  -2  -4   5  484.15   26.20
  -2  -4   5  480.25   25.20
  -2  -4   5  472.95   25.90
  -2  -4   5  495.15   25.60
  -2  -4   5  516.35   25.80
  -1  -4   5  148.89    9.10
  -1  -4   5  141.59    8.20
  -1  -4   5  145.29    8.90
  -1  -4   5  159.18    8.50
  -1  -4   5  146.69    8.80
   0  -4   5  280.47   15.50
   0  -4   5  275.67   15.60
   0  -4   5  320.57   15.10
   0  -4   5  284.97   15.80
   0  -4   5  268.47   14.90
   1  -4   5 9999.00  494.25
   2  -4   5    8.60    2.00
   2  -4   5   11.00    1.30
   2  -4   5   10.90    1.40
   3  -4   5    9.70    1.40
  -4   4  -5   86.89    6.30
   4  -4   5   64.59    6.30
   4  -4   5   68.39    4.70
  -5   4  -5 3080.99  147.69
   5  -4   5 2861.21  148.59
   5  -4   5 2853.51  145.99
  -6   4  -5   79.39    7.00
   6  -4   5   88.09    7.70
  -7   4  -5  138.79   10.10
   7  -4   5  138.89   10.30
  -8   4  -5   10.30    2.90
   8  -4   5   10.30    2.70
  -8  -3   5    4.90    2.00
  -8  -3   5    7.80    2.00
  -7  -3   5 1225.18   62.69
  -6  -3   5  391.66   22.80
  -6  -3   5  399.06   23.60
  -6  -3   5  453.95   25.10
  -5  -3   5  211.18   12.10
  -5  -3   5  202.98   12.30
  -5  -3   5  187.18   12.60
  -5  -3   5  205.08   12.80
  -4  -3   5  887.91   48.10
  -4  -3   5  993.90   48.50
  -4  -3   5  902.11   47.30
  -4  -3   5  929.21   47.90
  -3  -3   5 4637.24  227.08
  -3  -3   5 4491.05  227.68
  -3  -3   5 4746.83  227.88
  -3  -3   5 4534.05  227.68
  -3  -3   5 4486.55  226.98
  -2  -3   5  880.01   44.20
  -2  -3   5  872.41   44.50
  -2  -3   5  896.71   44.10
  -2  -3   5  831.02   43.80
  -2  -3   5  866.11   44.60
  -1  -3   5   37.70    2.90
  -1  -3   5   36.20    3.00
  -1  -3   5   41.10    2.70
  -1  -3   5   37.70    3.20
   0  -3   5 1882.91   92.89
   0  -3   5 1936.51   92.99
   0  -3   5 1916.41   93.49
   0  -3   5 1726.23   92.09
   0  -3   5 1818.42   92.39
   1  -3   5 4798.92  240.88
   1  -3   5 4504.35  240.78
   1  -3   5 5303.77  241.08
  -2   3  -5 2449.75  125.79
   2  -3   5 2673.23  126.19
   2  -3   5 2339.97  125.99
   2  -3   5 2700.33  127.39
  -3   3  -5    5.90    1.00
   3  -3   5    7.20    1.10
  -4   3  -5  565.84   28.70
   4  -3   5  559.84   30.90
   4  -3   5  553.54   28.60
  -5   3  -5  185.18   11.60
  -5   3  -5  166.28    9.70
   5  -3   5  178.38    9.90
   5  -3   5  179.28   12.30
  -6   3  -5  464.05   26.20
   6  -3   5  469.35   27.00
  -7   3  -5    1.40    2.10
   7  -3   5    2.20    1.80
  -8   3  -5  124.99    9.20
  -8   3  -5  138.19    9.80
   8  -3   5  149.49   10.00
  -8  -2   5  172.68   10.80
  -8  -2   5  145.59    9.60
  -7  -2   5  223.38   13.50
  -7  -2   5  237.88   14.50
  -6  -2   5 2309.07  122.29
  -6  -2   5 2389.86  121.99
  -6  -2   5 2557.64  121.69
  -5  -2   5  559.24   29.30
  -5  -2   5  568.14   28.80
  -5  -2   5  495.95   29.70
  -5  -2   5  578.44   29.70
  -4  -2   5  213.88   13.80
  -4  -2   5  237.28   13.10
  -3  -2   5  117.59    7.10
  -3  -2   5  115.09    7.30
  -3  -2   5  112.59    6.60
  -3  -2   5  117.29    7.40
  -3  -2   5  109.89    6.70
  -2  -2   5 2036.10  101.09
  -2  -2   5 2002.30  100.79
  -2  -2   5 2030.50  101.09
  -2  -2   5 2141.39  101.49
  -2  -2   5 1917.51  100.69
  -1  -2   5 1203.38   57.79
  -1  -2   5 1150.88   57.49
  -1  -2   5 1134.89   57.39
  -1  -2   5 1117.89   57.39
  -1  -2   5 1108.79   57.19
   0  -2   5  732.63   37.70
   0  -2   5  701.13   37.30
   0  -2   5  828.72   38.00
   0  -2   5  722.83   38.50
   1  -2   5  211.08   11.00
   1  -2   5  192.38   10.80
   1  -2   5  228.38   11.90
   1  -2   5  214.28   11.30
  -2   2  -5 6719.53  307.17
   2  -2   5 5706.23  306.77
   3  -2   5   12.00    1.10
   3  -2   5    9.50    2.50
  -4   2  -5 1033.90   50.29
   4  -2   5  967.20   52.39
   4  -2   5  984.90   49.80
  -5   2  -5 1811.72   92.09
  -5   2  -5 1763.02   90.59
   5  -2   5 1855.21   93.19
  -6   2  -5  877.31   47.70
  -6   2  -5  949.21   49.30
   6  -2   5  984.20   50.39
  -7   2  -5  329.77   19.30
  -7   2  -5  307.67   17.80
   7  -2   5  347.57   20.00
  -8   2  -5  173.78   11.50
   8  -2   5  181.38   12.00
  -9  -1   5   40.00    4.20
  -8  -1   5    3.90    1.70
  -6  -1   5 6077.49  293.77
  -6  -1   5 5600.74  294.47
  -6  -1   5 5967.70  294.67
  -6  -1   5 6008.80  293.77
  -5  -1   5 1922.41   93.19
  -5  -1   5 1956.00   93.09
  -5  -1   5 1744.93   93.79
  -5  -1   5 1769.62   93.69
  -4  -1   5   14.90    2.50
  -4  -1   5   14.20    2.00
  -4  -1   5   13.20    1.80
  -4  -1   5   11.60    2.50
  -4  -1   5   12.30    2.20
  -3  -1   5 2907.31  153.98
  -3  -1   5 3150.48  154.98
  -3  -1   5 3032.40  154.58
  -3  -1   5 3329.27  154.88
  -2  -1   5 6245.68  329.17
  -2  -1   5 7296.27  330.07
  -2  -1   5 6448.05  329.27
   0  -1   5 1512.95   75.89
   0  -1   5 1473.65   75.99
   0  -1   5 1599.64   75.79
   0  -1   5 1496.45   75.49
   1  -1   5   54.09    3.50
   1  -1   5   52.29    3.90
  -2   1  -5 4452.55  218.98
   2  -1   5 4393.66  220.28
  -3   1  -5 3326.47  152.78
   3  -1   5 2821.82  154.38
  -4   1  -5  291.87   15.40
   4  -1   5  276.47   17.30
  -5   1  -5  571.24   30.90
   5  -1   5  614.64   33.10
  -6   1  -5 1008.60   53.49
  -6   1  -5  996.50   52.39
   6  -1   5 1069.29   54.69
  -7   1  -5  606.94   34.20
  -7   1  -5  643.34   33.40
   7  -1   5  654.33   35.20
  -8   1  -5    3.30    2.90
   8  -1   5    4.90    2.60
  -9   0   5  507.45   27.90
  -8   0   5   25.20    3.60
  -7   0   5    1.60    2.00
  -7   0   5    4.40    1.80
  -6   0   5   24.40    3.40
  -6   0   5   20.20    3.80
  -5   0   5 4910.41  226.68
  -5   0   5 4693.73  225.88
  -5   0   5 4258.57  227.68
  -5   0   5 4366.06  227.08
  -4   0   5   47.50    4.60
  -4   0   5   48.20    3.20
  -4   0   5   54.79    4.30
  -4   0   5   47.70    4.10
  -3   0   5   28.40    1.90
  -3   0   5   24.60    2.60
  -3   0   5   24.70    2.30
  -3   0   5   30.20    3.20
  -2   0   5  396.66   19.70
  -2   0   5  356.36   19.10
  -2   0   5  379.46   19.50
  -2   0   5  354.76   20.00
  -1   0   5 4217.58  223.08
  -1   0   5 4863.01  223.38
  -1   0   5 4448.46  222.88
   0   0   5   85.29    5.20
   0   0   5   88.09    5.30
  -1   0  -5 1923.31   96.29
   1   0   5 1928.81   96.29
   1   0   5 1949.51   97.09
  -2   0  -5  761.92   37.70
   2   0   5  720.53   38.90
  -3   0  -5 4525.25  207.18
   3   0   5 3820.12  208.58
  -4   0  -5  279.87   15.40
   4   0   5  268.67   16.80
  -5   0  -5  988.50   50.69
   5   0   5  988.90   52.59
  -6   0  -5 2536.15  123.89
  -6   0  -5 2380.96  124.39
   6   0   5 2481.35  125.69
  -7   0  -5  723.43   39.80
  -7   0  -5  772.82   39.10
   7   0   5  731.33   40.40
  -8   0  -5  241.28   15.10
  -8   0  -5  282.77   15.40
   8   0   5  270.67   16.20
  -9   1   5  172.78   12.10
  -8   1   5  434.86   24.30
  -8   1   5  434.06   24.90
  -7   1   5   19.80    3.20
  -6   1   5  762.72   43.30
  -6   1   5  828.42   44.60
  -6   1   5  893.21   42.90
  -5   1   5 2027.90  106.09
  -5   1   5 2302.17  105.89
  -5   1   5 1989.70  107.19
  -4   1   5 1453.75   77.49
  -4   1   5 1513.05   76.59
  -4   1   5 1581.84   76.49
  -3   1   5  175.78   10.80
  -3   1   5  174.88   10.20
  -3   1   5  177.98   10.10
  -2   1   5 2021.00  100.09
  -2   1   5 2085.89  100.19
  -2   1   5 1912.81  100.69
   1  -1  -5  748.83   38.20
  -1   1   5  816.52   39.00
  -1   1   5  738.53   38.60
   0   1   5 5102.99  252.97
  -1  -1  -5  109.19    6.60
   1   1   5  114.09    6.60
  -2  -1  -5 1575.24   78.89
  -3  -1  -5  698.13   35.90
  -4  -1  -5 2560.64  126.59
   4   1   5 2500.45  128.39
  -5  -1  -5  310.77   17.40
   5   1   5  305.77   18.90
  -6  -1  -5   44.70    4.60
  -6  -1  -5   52.29    6.30
   6   1   5   48.00    7.40
  -7  -1  -5   33.50    4.10
  -7  -1  -5   33.20    3.80
   7   1   5   36.60    4.70
  -8  -1  -5  517.45   27.60
  -8  -1  -5  510.35   27.80
   8   1   5  513.05   28.40
  -9   2   5    4.30    1.90
  -9   2   5    7.60    2.70
  -8   2   5 1178.98   60.79
  -8   2   5 1125.49   59.49
  -7   2   5   21.00    4.10
  -7   2   5   18.90    3.00
  -6   2   5  246.68   16.20
  -6   2   5  256.27   15.00
  -5   2   5  585.04   32.20
  -5   2   5  568.64   32.00
  -4   2   5 3050.79  154.28
  -4   2   5 3082.99  152.98
  -3   2   5  832.22   40.60
  -3   2   5  755.02   41.40
  -2   2   5  806.22   42.80
  -2   2   5  847.22   42.00
   1  -2  -5 1913.11   94.89
   1  -2  -5 1817.12   94.89
  -1   2   5 2031.00   95.79
   0   2   5 4821.62  238.78
  -1  -2  -5  606.74   31.20
  -2  -2  -5  422.16   22.40
  -2  -2  -5  459.75   23.20
  -3  -2  -5  685.33   35.40
  -4  -2  -5 1871.01   94.29
  -5  -2  -5 1393.36   70.79
  -5  -2  -5 1358.66   71.29
   5   2   5 1409.86   72.39
  -6  -2  -5  408.36   24.30
  -6  -2  -5  477.35   24.90
  -6  -2  -5  436.76   27.10
   6   2   5  479.55   26.30
  -7  -2  -5  484.75   26.60
   7   2   5  488.25   27.60
  -9   3   5  195.98   10.80
  -9   3   5  136.69   14.00
  -8   3   5  121.09    9.60
  -8   3   5  115.79    8.20
  -7   3   5  530.35   29.40
  -7   3   5  478.05   27.30
  -6   3   5   53.59    5.10
  -6   3   5   75.29    7.10
  -5   3   5  429.96   25.20
  -5   3   5  437.66   25.00
  -4   3   5  595.64   32.70
  -4   3   5  601.04   31.10
  -3   3   5  886.71   44.00
  -3   3   5  842.12   45.20
  -2   3   5  637.14   32.20
  -2   3   5  619.74   33.20
   1  -3  -5 8878.21  433.16
   1  -3  -5 8238.88  433.36
   1  -3  -5 9192.38  432.86
   0  -3  -5   62.59    4.60
   0  -3  -5   69.09    4.30
   0   3   5   67.59    4.50
  -1  -3  -5 2934.31  150.28
  -1  -3  -5 3100.29  150.28
  -2  -3  -5   13.50    2.30
  -2  -3  -5    9.30    1.90
  -2  -3  -5   12.00    1.60
  -3  -3  -5  470.35   26.30
  -3  -3  -5  495.95   25.80
  -4  -3  -5   76.39    6.20
  -4  -3  -5   66.79    5.80
  -5  -3  -5  478.25   28.20
  -5  -3  -5  590.74   29.40
  -5  -3  -5  532.55   29.50
  -6  -3  -5  106.39    7.80
   6   3   5  101.99    8.50
  -7  -3  -5  427.56   23.70
   7   3   5  432.66   24.60
  -9   4   5  153.98   13.00
  -8   4   5  219.28   13.40
  -8   4   5  235.18   15.50
  -7   4   5  787.42   42.70
  -7   4   5  852.41   45.30
  -6   4   5  123.89    8.30
  -6   4   5  125.99   10.30
  -5   4   5  633.54   33.20
  -5   4   5  632.94   35.40
  -4   4   5  655.33   35.20
  -4   4   5  628.14   33.10
  -3   4   5 2195.68  109.89
  -3   4   5 2212.08  111.59
  -2   4   5 1955.60   98.79
  -2   4   5 1949.60   97.39
   1  -4  -5 2581.44  127.59
   1  -4  -5 2491.55  128.39
   1  -4  -5 2613.84  127.79
  -1   4   5 2621.84  128.29
   0  -4  -5 1831.12   91.29
   0  -4  -5 1820.42   91.49
  -1  -4  -5 1660.93   84.99
  -1  -4  -5 1710.73   84.79
  -2  -4  -5  280.37   16.40
  -2  -4  -5  272.77   15.20
  -2  -4  -5  293.77   15.90
  -3  -4  -5  499.35   28.60
  -3  -4  -5  515.25   26.80
  -3  -4  -5  542.25   28.00
  -4  -4  -5  910.81   47.00
  -4  -4  -5  879.91   47.70
  -5  -4  -5  677.73   36.70
  -5  -4  -5  695.43   39.50
  -6  -4  -5  258.37   15.10
   6   4   5  240.28   15.80
  -9   5   5    2.00    2.20
  -8   5   5  160.68   12.20
  -7   5   5   19.00    3.40
  -7   5   5   15.50    4.10
  -6   5   5   73.09    7.70
  -6   5   5   63.49    5.10
  -5   5   5  265.17   16.80
  -5   5   5  235.58   13.80
  -4   5   5 1047.30   53.69
  -4   5   5  969.80   50.89
  -3   5   5   10.90    2.90
  -3   5   5   11.60    1.70
   2  -5  -5  904.71   48.00
   2  -5  -5 1007.60   47.50
  -2   5   5  920.41   52.29
  -2   5   5  940.61   47.60
   1  -5  -5   89.99    5.90
   1  -5  -5   91.89    8.00
   1  -5  -5   89.49    5.10
   0  -5  -5 2063.69  101.69
   0  -5  -5 1993.80  101.69
  -1  -5  -5    1.20    1.30
  -1  -5  -5    1.40    1.10
  -2  -5  -5 2358.86  117.49
  -2  -5  -5 2324.87  118.39
  -2  -5  -5 2337.17  116.99
  -3  -5  -5   63.09    6.00
  -3  -5  -5   55.89    5.20
  -3  -5  -5   49.30    4.20
  -4  -5  -5  285.77   18.20
  -4  -5  -5  304.47   17.30
  -5  -5  -5  148.99   10.10
  -6  -5  -5  162.88   10.50
   6   5   5  160.18   11.10
  -9   6   5    0.70    1.70
  -8   6   5   58.79    7.00
  -7   6   5  329.57   21.30
  -6   6   5  613.94   35.50
  -5   6   5   86.19    8.40
   4  -6  -5  247.88   14.10
  -4   6   5  264.67   16.60
   3  -6  -5 1706.73   85.09
   3  -6  -5 1616.64   85.49
  -3   6   5 1780.92   87.49
   2  -6  -5  563.64   29.50
   2  -6  -5  564.64   28.80
   1  -6  -5  730.03   39.30
   1  -6  -5  831.72   39.90
   1  -6  -5  783.92   40.30
   0  -6  -5  113.19    7.60
  -1  -6  -5 1487.85   74.49
  -1  -6  -5 1473.65   75.09
  -1  -6  -5 1443.06   74.39
  -2  -6  -5    2.00    1.50
  -2  -6  -5    1.60    1.40
  -3  -6  -5   91.39    8.10
  -3  -6  -5   97.09    7.30
  -3  -6  -5   93.29    6.40
  -4  -6  -5   28.00    3.90
  -5  -6  -5  236.78   15.00
  -8   7   5   51.79    7.80
   7  -7  -5  255.17   15.00
  -7   7   5  239.58   17.10
   6  -7  -5   15.50    3.00
   6  -7  -5   17.40    2.80
  -6   7   5   18.60    4.90
   5  -7  -5  257.17   14.90
   5  -7  -5  269.57   15.00
  -5   7   5  257.67   17.50
   4  -7  -5   29.10    2.90
   4  -7  -5   22.90    3.20
  -4   7   5   27.50    4.50
   3  -7  -5  555.34   30.00
   3  -7  -5  575.44   29.50
  -3   7   5  583.54   31.90
   2  -7  -5  431.76   22.60
   2  -7  -5  406.76   21.70
   1  -7  -5  391.46   21.20
   0  -7  -5   29.70    3.40
   0  -7  -5   30.30    3.80
   0  -7  -5   24.60    3.20
  -1  -7  -5  266.07   15.60
  -1  -7  -5  278.17   16.50
  -1  -7  -5  273.57   15.70
  -2  -7  -5   24.10    4.50
  -2  -7  -5   22.60    3.40
  -2  -7  -5   21.90    3.00
  -3  -7  -5  156.18   10.20
  -4  -7  -5   18.20    3.60
   7  -8  -5  161.08   10.70
  -7   8   5  153.28   12.20
   6  -8  -5  355.76   20.20
  -6   8   5  369.06   23.00
   5  -8  -5  124.19    8.10
  -5   8   5  128.39   10.50
   4  -8  -5   71.29    5.50
   4  -8  -5   68.89    6.80
  -4   8   5   71.19    7.20
   3  -8  -5   21.00    2.40
   3  -8  -5   22.70    3.10
   2  -8  -5  372.36   20.00
   2  -8  -5  384.36   20.70
   1  -8  -5   17.40    2.60
   1  -8  -5   21.10    3.50
   0  -8  -5  127.69    8.60
   0  -8  -5  121.39    8.20
  -1  -8  -5  129.99    8.80
  -1  -8  -5  134.89    8.80
  -2  -8  -5  482.65   26.60
  -2  -8  -5  502.85   26.50
  -3  -8  -5   72.69    5.90
   7  -9  -5   63.59    5.00
  -7   9   5   53.39    6.50
   6  -9  -5  194.58   11.70
   5  -9  -5    1.70    1.30
  -5   9   5    0.80    2.00
   4  -9  -5   81.59    5.60
   3  -9  -5   25.60    3.80
   3  -9  -5   31.50    2.90
   2  -9  -5  247.58   15.10
   2  -9  -5  253.87   14.40
   1  -9  -5   11.50    2.60
   1  -9  -5   10.90    2.10
   0  -9  -5  236.18   14.00
   0  -9  -5  243.08   14.30
  -1  -9  -5    2.60    2.60
  -2  -9  -5  119.59    8.20
  -2  -9  -5  137.59    8.40
   5 -10  -5  191.08   12.30
   5 -10  -5  174.68   10.60
   4 -10  -5    7.10    2.40
   3 -10  -5   52.79    5.30
   2 -10  -5   23.30    3.30
   1 -10  -5  235.18   14.00
   0 -10  -5    4.70    1.80
   1 -11   6  323.57   19.10
   1 -11   6  343.47   18.30
   2 -11   6   77.59    6.70
   2 -11   6   79.09    5.70
  -2 -10   6  136.09    8.30
  -2 -10   6  127.99    9.10
  -1 -10   6   14.40    2.40
   0 -10   6  278.77   17.50
   0 -10   6  304.17   17.80
   0 -10   6  309.37   16.60
   1 -10   6  414.66   21.70
   1 -10   6  400.96   22.70
   1 -10   6  383.36   22.80
   2 -10   6  471.05   27.70
   2 -10   6  521.85   26.70
   2 -10   6  498.75   27.10
   3 -10   6  122.59    8.10
   3 -10   6  122.49    9.30
   4 -10   6  750.32   37.00
   4 -10   6  605.54   39.70
   5 -10   6  160.08    9.50
   5 -10   6  144.29   10.70
  -3  -9   6    7.00    2.40
  -3  -9   6    5.00    2.60
  -2  -9   6  933.51   47.10
  -2  -9   6  897.21   48.20
  -1  -9   6    6.40    1.80
  -1  -9   6   11.40    2.70
   0  -9   6  599.44   32.20
   0  -9   6  613.74   31.10
   0  -9   6  543.75   32.80
   0  -9   6  606.84   32.40
   1  -9   6  190.18   11.00
   1  -9   6  187.68   12.00
   1  -9   6  171.78   11.90
   2  -9   6 1600.84   79.59
   2  -9   6 1555.94   78.99
   2  -9   6 1523.25   80.19
   3  -9   6  176.18   12.00
   3  -9   6  172.88   10.70
   4  -9   6  233.18   13.40
   4  -9   6  218.08   14.70
  -5   9  -6  241.38   17.60
   5  -9   6  305.17   18.20
   5  -9   6  323.47   16.70
  -6   9  -6  109.09    9.10
   6  -9   6  137.49    8.00
   6  -9   6  125.79    9.30
  -4  -8   6   18.00    3.20
  -4  -8   6   23.50    3.10
  -3  -8   6  777.82   43.50
  -3  -8   6  869.81   42.70
  -2  -8   6  370.36   20.80
  -2  -8   6  386.36   21.90
  -2  -8   6  397.76   25.40
  -1  -8   6  693.93   38.20
  -1  -8   6  664.43   37.40
  -1  -8   6  657.13   38.60
  -1  -8   6  706.23   35.50
   0  -8   6   50.19    5.30
   0  -8   6   50.09    5.00
   0  -8   6   55.79    5.20
   0  -8   6   57.89    4.40
   1  -8   6  637.04   32.00
   1  -8   6  592.64   33.00
   1  -8   6  602.14   32.80
   2  -8   6    2.50    1.70
   2  -8   6    1.60    2.00
   2  -8   6    0.50    1.70
  -3   8  -6  196.08   13.10
   3  -8   6  238.48   14.00
   3  -8   6  231.48   15.10
  -4   8  -6  252.47   16.00
   4  -8   6  276.97   17.00
   4  -8   6  272.57   15.30
  -5   8  -6 1656.63   85.39
   5  -8   6 1639.54   86.39
   5  -8   6 1704.23   84.49
  -6   8  -6    2.30    2.10
   6  -8   6    0.60    2.20
   6  -8   6    0.30    2.20
  -7   8  -6  242.68   14.60
   7  -8   6  234.58   14.60
  -5  -7   6  728.93   37.50
  -5  -7   6  744.73   39.60
  -5  -7   6  683.43   38.00
  -4  -7   6    1.40    1.70
  -4  -7   6    4.10    2.10
  -4  -7   6   -0.20    1.50
  -3  -7   6  970.00   52.89
  -3  -7   6 1001.10   50.59
  -3  -7   6 1032.30   50.79
  -3  -7   6  936.81   51.39
  -2  -7   6  444.76   25.90
  -2  -7   6  440.66   24.80
  -2  -7   6  440.16   24.60
  -2  -7   6  464.05   23.90
  -1  -7   6 1708.03   84.29
  -1  -7   6 1659.83   83.09
  -1  -7   6 1611.64   85.09
  -1  -7   6 1630.04   83.99
   0  -7   6  160.38   10.20
   0  -7   6  158.28   10.10
   0  -7   6  145.99    9.10
   0  -7   6  156.18   10.60
   1  -7   6   62.29    4.70
   1  -7   6   79.59    6.00
   1  -7   6   61.59    5.90
   1  -7   6   69.59    5.50
  -2   7  -6    8.80    2.20
   2  -7   6    6.70    1.70
   2  -7   6    7.10    2.40
  -3   7  -6 1308.57   70.19
   3  -7   6 1398.86   71.09
   3  -7   6 1402.96   69.39
  -4   7  -6  154.08   10.40
   4  -7   6  149.69    9.40
   4  -7   6  155.78   11.10
  -5   7  -6  647.14   34.60
   5  -7   6  634.14   33.50
   5  -7   6  631.14   35.70
  -6   7  -6  454.85   25.90
   6  -7   6  468.45   24.70
   6  -7   6  458.05   26.70
  -7   7  -6    8.40    4.00
   7  -7   6    8.70    2.70
  -6  -6   6  715.33   40.90
  -6  -6   6  759.22   38.90
  -5  -6   6  195.98   12.70
  -5  -6   6  205.48   13.30
  -5  -6   6  210.68   12.20
  -4  -6   6 1239.18   60.89
  -4  -6   6 1146.59   61.39
  -4  -6   6 1077.79   59.89
  -4  -6   6 1178.48   59.29
  -3  -6   6  129.29    8.50
  -3  -6   6  142.59    8.90
  -3  -6   6  138.19   10.20
  -3  -6   6  136.19    9.30
  -2  -6   6 2581.64  128.29
  -2  -6   6 2575.74  130.09
  -2  -6   6 2591.84  129.09
  -2  -6   6 2529.45  128.39
  -1  -6   6  266.17   14.30
  -1  -6   6  261.57   15.30
  -1  -6   6  280.87   15.30
  -1  -6   6  246.68   14.20
  -1  -6   6  251.67   15.60
   0  -6   6  148.29    9.20
   0  -6   6  146.89    8.30
   0  -6   6  139.69    9.50
   0  -6   6  130.99    7.90
   0  -6   6  140.89    9.10
  -1   6  -6  267.07   15.50
   1  -6   6  264.87   14.90
   1  -6   6  289.97   16.10
   1  -6   6  291.77   17.80
  -2   6  -6 7562.04  374.66
   2  -6   6 7679.53  373.76
   2  -6   6 7401.36  373.56
  -3   6  -6  288.47   16.90
   3  -6   6  299.07   17.50
   3  -6   6  280.57   15.70
  -4   6  -6  479.35   26.70
   4  -6   6  493.75   27.80
   4  -6   6  472.05   25.40
  -5   6  -6   35.20    4.60
   5  -6   6   37.00    3.50
   5  -6   6   35.40    5.10
  -6   6  -6 1560.44   78.79
   6  -6   6 1531.25   79.99
   6  -6   6 1497.55   77.19
  -7   6  -6  180.78   12.10
   7  -6   6  181.98   12.50
  -7  -5   6    4.00    1.60
  -7  -5   6    2.40    1.60
  -6  -5   6  431.16   24.40
  -6  -5   6  456.45   25.20
  -5  -5   6  428.46   23.00
  -5  -5   6  417.96   24.10
  -5  -5   6  422.46   24.60
  -5  -5   6  424.96   23.70
  -4  -5   6 1759.12   88.79
  -4  -5   6 1769.42   87.89
  -4  -5   6 1699.33   88.59
  -3  -5   6    1.80    1.10
  -3  -5   6    2.30    1.30
  -3  -5   6    0.00    1.50
  -3  -5   6    4.60    1.80
  -2  -5   6  909.31   46.80
  -2  -5   6  901.51   46.00
  -2  -5   6  887.51   45.40
  -2  -5   6  894.61   45.70
  -2  -5   6  871.11   46.30
  -1  -5   6  845.82   44.10
  -1  -5   6  841.82   43.50
  -1  -5   6  833.92   43.30
  -1  -5   6  900.51   44.40
  -1  -5   6  853.61   44.60
   0  -5   6 2771.92  144.89
   0  -5   6 3028.00  145.79
   0  -5   6 2810.62  144.79
   0  -5   6 3018.00  145.89
   0  -5   6 2948.70  146.09
   1  -5   6   21.60    2.10
   1  -5   6   25.10    2.20
   1  -5   6   25.10    2.80
   2  -5   6  119.09    7.20
   2  -5   6  115.29    7.20
   2  -5   6  140.79    8.80
  -3   5  -6 2281.07  117.59
   3  -5   6 2384.16  118.29
  -4   5  -6  964.50   49.99
   4  -5   6  916.81   48.40
   4  -5   6  979.30   50.99
  -5   5  -6   71.79    6.40
   5  -5   6   63.89    6.80
   5  -5   6   64.09    4.80
  -6   5  -6  165.18   11.40
   6  -5   6  165.78   12.10
  -7   5  -6 1215.98   62.49
   7  -5   6 1178.18   62.99
  -8   5  -6   54.69    5.40
   8  -5   6   50.49    5.00
  -7  -4   6  187.18   11.90
  -7  -4   6  169.58   10.90
  -6  -4   6    3.60    2.10
  -6  -4   6    2.20    1.80
  -6  -4   6   -1.80    3.80
  -5  -4   6 2126.39  111.39
  -5  -4   6 2212.58  110.79
  -5  -4   6 2238.38  110.09
  -4  -4   6  138.99    8.60
  -4  -4   6  133.09    9.30
  -4  -4   6  140.39    9.60
  -4  -4   6  133.19    9.40
  -3  -4   6 2150.38  111.39
  -3  -4   6 2192.18  112.09
  -3  -4   6 2263.77  111.99
  -3  -4   6 2207.58  111.29
  -3  -4   6 2322.17  112.49
  -2  -4   6  242.58   14.10
  -2  -4   6  243.08   13.50
  -2  -4   6  246.98   13.60
  -2  -4   6  247.28   14.10
  -2  -4   6  231.78   14.10
  -1  -4   6 4494.65  218.18
  -1  -4   6 4464.65  217.58
  -1  -4   6 4312.47  217.78
  -1  -4   6 4493.25  218.28
  -1  -4   6 4155.48  217.08
   0  -4   6  522.95   26.00
   0  -4   6  469.65   25.20
   0  -4   6  494.65   26.20
   0  -4   6  476.75   25.40
   0  -4   6  498.85   26.10
  -1   4  -6 1660.13   96.99
   1  -4   6 1901.51   96.99
   1  -4   6 2082.29   98.39
   1  -4   6 2114.89   97.59
   1  -4   6 1997.00   97.29
   2  -4   6   93.39    8.00
   2  -4   6   82.89    4.90
   2  -4   6   75.29    4.90
   3  -4   6 3404.46  177.48
   3  -4   6 3757.72  179.88
   4  -4   6  354.06   19.30
   4  -4   6  387.76   22.20
  -5   4  -6  599.64   32.30
   5  -4   6  577.54   33.40
  -6   4  -6  235.18   14.70
   6  -4   6  220.28   15.40
  -7   4  -6 1008.80   52.69
   7  -4   6  985.80   53.09
  -8   4  -6   72.19    6.40
   8  -4   6   74.89    6.30
  -8  -3   6  293.87   17.20
  -8  -3   6  334.07   18.30
  -7  -3   6  292.37   16.90
  -7  -3   6  298.07   17.80
  -6  -3   6    6.40    2.70
  -6  -3   6   12.90    4.40
  -6  -3   6    6.80    3.20
  -5  -3   6   16.50    2.70
  -5  -3   6   10.90    2.40
  -5  -3   6   18.40    3.00
  -5  -3   6   14.30    2.90
  -4  -3   6 1547.75   80.59
  -4  -3   6 1609.74   81.39
  -4  -3   6 1580.54   81.69
  -4  -3   6 1676.33   81.59
  -3  -3   6  626.54   32.50
  -3  -3   6  668.53   32.60
  -3  -3   6  632.84   32.60
  -3  -3   6  587.54   31.70
  -3  -3   6  575.84   31.70
  -2  -3   6   45.20    3.50
  -2  -3   6   46.80    3.40
  -2  -3   6   48.90    3.90
  -2  -3   6   51.39    4.20
  -2  -3   6   43.60    3.60
  -1  -3   6 3103.49  146.79
  -1  -3   6 2900.61  146.29
  -1  -3   6 2785.72  145.89
  -1  -3   6 2896.51  146.49
  -1  -3   6 3021.30  146.69
   0  -3   6 3594.34  177.48
   0  -3   6 3501.95  176.98
   0  -3   6 3359.86  176.48
   0  -3   6 3807.62  177.28
  -1   3  -6 1612.14   79.19
   1  -3   6 1594.64   79.29
   1  -3   6 1614.24   79.39
   1  -3   6 1467.35   78.99
   1  -3   6 1656.13   80.29
  -2   3  -6   22.10    1.90
   2  -3   6   23.70    2.20
   2  -3   6   17.00    2.70
   2  -3   6   19.70    1.70
  -3   3  -6  229.08   12.40
   3  -3   6  245.88   14.50
   3  -3   6  219.88   12.10
  -4   3  -6 4901.61  250.27
   4  -3   6 5206.28  253.27
  -5   3  -6   71.89    6.60
   5  -3   6   86.19    7.70
  -7   3  -6  234.68   14.70
   7  -3   6  224.68   15.00
  -8   3  -6  889.81   46.00
  -8   3  -6  847.62   45.00
   8  -3   6  876.31   46.20
  -8  -2   6  768.32   41.70
  -8  -2   6  846.62   42.80
  -7  -2   6   47.20    5.20
  -7  -2   6   46.10    4.70
  -6  -2   6  339.57   18.60
  -6  -2   6  314.97   19.30
  -5  -2   6   40.70    4.00
  -5  -2   6   41.70    3.80
  -5  -2   6   45.30    4.70
  -5  -2   6   45.00    4.30
  -4  -2   6 5097.39  264.67
  -4  -2   6 5540.45  265.57
  -4  -2   6 5617.24  265.27
  -4  -2   6 5103.79  265.67
  -3  -2   6  300.97   16.80
  -3  -2   6  311.17   16.50
  -3  -2   6  301.07   16.10
  -3  -2   6  279.87   15.80
  -3  -2   6  322.37   17.00
  -2  -2   6 1270.47   62.49
  -2  -2   6 1214.68   62.59
  -2  -2   6 1187.28   61.99
  -2  -2   6 1285.27   62.99
  -1  -2   6  144.89    8.20
  -1  -2   6  146.99    8.40
  -1  -2   6  133.49    8.00
  -1  -2   6  127.19    7.50
  -1  -2   6  136.89    8.00
   0  -2   6 2980.80  140.49
   0  -2   6 2531.25  141.29
   0  -2   6 2944.41  140.79
   0  -2   6 2835.12  139.89
  -1   2  -6 3003.30  141.99
   1  -2   6 2920.41  142.19
   1  -2   6 2629.04  141.59
   1  -2   6 2972.10  142.89
   1  -2   6 2776.62  141.49
  -2   2  -6  131.59    7.20
   2  -2   6  138.19    7.50
   2  -2   6  112.69    6.60
   2  -2   6  124.49    8.40
  -3   2  -6   65.79    4.10
   3  -2   6   52.39    5.40
  -4   2  -6 1681.23   81.19
   4  -2   6 1556.44   83.69
  -5   2  -6   88.29    5.70
   5  -2   6   79.39    7.60
  -6   2  -6  493.35   31.00
  -6   2  -6  495.35   26.00
  -7   2  -6    8.10    2.60
   7  -2   6   11.40    3.10
  -8   2  -6  111.79    8.30
   8  -2   6  124.79    8.90
  -8  -1   6   47.70    5.00
  -7  -1   6  779.22   39.70
  -7  -1   6  735.03   40.60
  -6  -1   6   62.49    5.80
  -6  -1   6   72.29    5.60
  -6  -1   6   56.39    5.70
  -5  -1   6 1071.99   56.19
  -5  -1   6 1060.79   55.79
  -5  -1   6 1089.39   55.19
  -4  -1   6  377.46   22.00
  -4  -1   6  413.56   22.00
  -4  -1   6  414.46   21.00
  -3  -1   6 6079.49  286.47
  -3  -1   6 5846.21  285.47
  -3  -1   6 5744.63  286.27
  -3  -1   6 5407.96  285.47
  -2  -1   6 1864.01  100.19
  -2  -1   6 2253.17  101.29
  -2  -1   6 1926.01  100.29
  -2  -1   6 2025.90  100.89
  -1  -1   6   11.10    1.20
  -1  -1   6   11.30    1.40
  -1  -1   6    7.50    1.50
   0  -1   6  774.52   39.30
   0  -1   6  776.22   39.10
   0  -1   6  762.42   38.50
   0  -1   6  765.62   38.80
  -2   1  -6  446.66   23.30
   2  -1   6  452.95   24.70
  -3   1  -6  100.59    6.00
   3  -1   6   87.49    7.50
  -4   1  -6  629.84   32.70
   4  -1   6  551.34   32.80
  -5   1  -6 2699.83  135.59
   5  -1   6 2724.03  138.19
  -6   1  -6   66.19    5.50
  -6   1  -6   74.79    7.00
   6  -1   6   75.09    7.20
  -7   1  -6    2.10    1.80
  -7   1  -6    4.70    1.90
   7  -1   6    4.70    2.50
   8  -1   6   12.50    3.10
  -9   0   6  172.78   10.90
  -8   0   6   27.40    3.70
  -7   0   6 1441.46   75.09
  -7   0   6 1465.85   75.29
  -6   0   6   23.40    3.60
  -6   0   6   30.30    4.50
  -6   0   6   18.90    3.60
  -5   0   6 1239.48   67.19
  -5   0   6 1372.76   65.99
  -5   0   6 1267.87   66.39
  -4   0   6  100.49    7.90
  -4   0   6  100.89    7.40
  -4   0   6  123.49    7.50
  -3   0   6 7982.20  380.96
  -3   0   6 7670.23  380.76
  -3   0   6 7412.36  381.56
  -2   0   6 3531.35  170.18
  -2   0   6 3308.97  169.98
  -1   0   6  280.97   14.60
  -1   0   6  281.17   14.70
  -1   0   6  256.97   14.40
   0   0   6  416.46   21.90
   0   0   6  425.46   22.20
  -1   0  -6 2246.38  112.19
   1   0   6 2252.57  112.99
   1   0   6 2250.77  112.19
  -2   0  -6 1387.26   68.09
   2   0   6 1318.97   69.49
  -3   0  -6  833.52   40.00
   3   0   6  721.53   41.70
  -4   0  -6    5.90    1.80
   4   0   6   10.00    3.00
  -5   0  -6 2069.69  105.29
   5   0   6 2117.89  107.59
  -6   0  -6 1026.60   51.39
  -6   0  -6  927.01   51.99
   6   0   6 1032.90   53.49
  -7   0  -6    8.10    2.20
  -7   0  -6    4.90    2.10
   7   0   6    8.30    3.00
  -9   1   6  193.08   11.90
  -8   1   6  164.48   11.10
  -8   1   6  179.28   11.90
  -7   1   6   59.89    5.80
  -7   1   6   60.59    6.30
  -6   1   6 1733.93   88.69
  -6   1   6 1744.13   89.99
  -5   1   6  136.99    9.30
  -5   1   6  153.38    9.30
  -5   1   6  136.39   10.30
  -4   1   6  168.48   11.80
  -4   1   6  188.48   11.00
  -4   1   6  186.48   11.50
  -3   1   6   23.30    3.50
  -3   1   6   25.70    2.80
  -3   1   6   28.60    3.30
  -2   1   6 5048.90  253.77
  -2   1   6 5192.88  253.97
   1  -1  -6   63.99    4.10
  -1   1   6   72.39    4.60
  -1   1   6   66.19    4.30
   0   1   6   15.20    2.00
   0   1   6   13.40    1.90
  -1  -1  -6  712.93   35.70
   1   1   6  671.93   36.50
   1   1   6  700.43   35.70
   2   1   6 6954.40  346.07
  -3  -1  -6   10.20    2.00
   3   1   6    7.60    2.30
  -4  -1  -6  146.19    9.20
   4   1   6  143.99   10.80
  -5  -1  -6  159.88   10.30
   5   1   6  161.28   11.80
  -6  -1  -6 1305.67   71.09
  -6  -1  -6 1464.75   70.79
  -6  -1  -6 1309.37   70.79
   6   1   6 1451.65   72.59
  -7  -1  -6  111.09    8.50
   7   1   6  133.89    9.60
  -9   2   6  200.78   12.70
  -9   2   6  190.18   11.80
  -8   2   6    3.70    2.20
  -8   2   6    5.90    2.00
  -7   2   6  146.79   11.00
  -7   2   6  131.99    9.50
  -6   2   6  943.91   51.79
  -6   2   6  977.70   50.19
  -5   2   6 1291.37   67.39
  -5   2   6 1272.27   65.49
  -4   2   6   42.70    3.90
  -4   2   6   40.90    4.80
  -3   2   6  967.50   51.39
  -3   2   6 1003.90   50.29
  -2   2   6 2873.51  136.29
  -2   2   6 2777.92  137.29
  -2   2   6 2549.65  135.69
  -1   2   6 2091.79  108.69
  -1   2   6 2272.07  108.99
   0  -2  -6  853.41   44.90
   0   2   6  867.91   45.40
   0   2   6  927.91   45.00
  -1  -2  -6 1230.48   62.19
  -2  -2  -6  159.78    9.60
  -3  -2  -6 2921.01  145.99
  -4  -2  -6   37.90    4.20
   4   2   6   37.30    5.00
  -5  -2  -6    0.80    1.70
  -5  -2  -6    1.00    2.70
   5   2   6   10.70    4.10
  -6  -2  -6  139.09   10.20
  -6  -2  -6  180.58   10.90
   6   2   6  178.98   12.00
  -7  -2  -6  537.95   28.90
   7   2   6  532.65   29.90
  -9   3   6  254.47   15.50
  -9   3   6  239.58   14.10
  -8   3   6  132.39    9.10
  -8   3   6  139.59   10.60
  -7   3   6    1.00    4.20
  -7   3   6    2.30    1.80
  -6   3   6   11.20    3.30
  -6   3   6   12.30    2.50
  -5   3   6 2159.98  111.79
  -5   3   6 2192.68  109.59
  -4   3   6   27.00    4.20
  -4   3   6   22.40    3.00
  -3   3   6  105.09    6.80
  -2   3   6    2.80    1.10
  -2   3   6    1.80    1.60
  -2   3   6    1.00    0.80
  -1   3   6 1562.74   78.49
   0  -3  -6  105.49    7.10
   0  -3  -6  112.69    6.60
   0   3   6  118.79    7.10
  -1  -3  -6   38.50    3.40
  -1  -3  -6   38.30    3.80
  -2  -3  -6  224.18   13.80
  -2  -3  -6  251.37   13.70
  -2  -3  -6  232.58   12.70
  -3  -3  -6 2334.67  122.09
  -3  -3  -6 2504.65  121.49
  -4  -3  -6  260.47   14.70
  -4  -3  -6  230.68   15.00
  -5  -3  -6    2.50    2.00
  -5  -3  -6    1.20    1.50
   5   3   6    1.50    1.60
  -6  -3  -6  304.97   17.70
  -9   4   6  505.85   28.50
  -8   4   6  301.97   17.90
  -8   4   6  339.17   20.30
  -7   4   6    1.50    2.40
  -7   4   6    5.00    2.00
  -6   4   6   29.90    3.70
  -6   4   6   38.60    5.60
  -5   4   6 1186.28   61.19
  -5   4   6 1100.99   58.39
  -3   4   6  199.58   11.20
  -3   4   6  189.98   12.70
   2  -4  -6   57.69    3.60
  -2   4   6   61.19    4.40
   1  -4  -6  394.66   22.10
  -1   4   6  434.46   22.00
   0  -4  -6 1459.05   72.29
   0  -4  -6 1419.46   72.69
  -1  -4  -6   17.80    2.50
  -1  -4  -6   16.40    2.90
  -2  -4  -6  695.03   35.20
  -2  -4  -6  653.93   35.60
  -2  -4  -6  654.33   34.20
  -3  -4  -6   37.20    4.40
  -3  -4  -6   35.50    4.80
  -4  -4  -6 1003.20   50.59
  -4  -4  -6  935.71   51.39
  -5  -4  -6  163.98   11.00
   5   4   6  166.28   11.90
  -6  -4  -6   86.29    6.80
   6   4   6   90.19    7.50
  -9   5   6    1.90    2.00
  -8   5   6  485.55   28.50
  -7   5   6   20.30    4.90
  -7   5   6   23.00    4.10
  -6   5   6    5.40    3.00
  -5   5   6   31.60    5.20
  -5   5   6   24.50    3.00
  -4   5   6 2205.58  109.19
  -4   5   6 2043.80  106.29
   3  -5  -6   84.69    5.20
  -3   5   6   88.39    7.40
  -3   5   6   82.09    5.60
   2  -5  -6  230.98   12.00
   2  -5  -6  222.78   13.00
  -2   5   6  225.38   12.60
   1  -5  -6  124.39    8.10
   0  -5  -6 2192.18  108.79
   0  -5  -6 2157.58  109.19
  -1  -5  -6  736.43   37.70
  -1  -5  -6  711.43   37.30
  -1  -5  -6  711.13   37.80
  -2  -5  -6  159.28    9.90
  -2  -5  -6  147.59    9.00
  -2  -5  -6  147.79   10.30
  -3  -5  -6  226.98   15.40
  -3  -5  -6  260.37   14.90
  -4  -5  -6  260.57   22.80
  -4  -5  -6  326.27   17.70
  -5  -5  -6   56.69    5.60
   5   5   6   62.39    6.10
  -8   6   6  154.78   11.90
  -7   6   6  335.47   21.70
  -6   6   6   23.40    4.90
  -5   6   6  202.88   14.60
   4  -6  -6  133.79    8.20
  -4   6   6  141.19   10.80
   3  -6  -6   10.80    1.60
   3  -6  -6   10.20    2.20
  -3   6   6    6.30    2.40
   2  -6  -6 1588.34   80.29
   1  -6  -6   27.60    3.60
   0  -6  -6   35.60    4.00
  -1  -6  -6 1075.29   54.89
  -1  -6  -6 1081.09   55.49
  -1  -6  -6 1057.49   55.09
  -2  -6  -6   10.00    3.50
  -2  -6  -6    4.50    1.60
  -2  -6  -6    7.90    2.40
  -3  -6  -6  196.08   16.80
  -3  -6  -6  219.08   13.10
  -4  -6  -6    2.30    1.70
   8  -7  -6    1.70    1.70
  -8   7   6    1.20    2.40
   7  -7  -6  538.45   28.80
  -7   7   6  524.95   31.40
   6  -7  -6  101.89    7.30
   6  -7  -6   98.49    7.10
  -6   7   6   95.39    9.40
   5  -7  -6   22.00    2.60
   5  -7  -6   19.50    3.40
  -5   7   6   20.20    4.60
   4  -7  -6  314.57   18.10
   4  -7  -6  315.77   17.50
  -4   7   6  345.27   20.90
   3  -7  -6 1381.16   68.09
   3  -7  -6 1294.87   67.09
   2  -7  -6 1029.60   52.89
   1  -7  -6   62.89    5.40
   0  -7  -6  249.68   14.70
   0  -7  -6  253.57   15.30
  -1  -7  -6  290.97   16.30
  -1  -7  -6  282.67   16.50
  -2  -7  -6  348.07   19.90
  -2  -7  -6  356.36   19.40
  -3  -7  -6   48.90    4.90
  -4  -7  -6   15.40    3.00
   7  -8  -6   12.80    2.80
   6  -8  -6  328.37   18.00
  -6   8   6  312.17   20.70
   5  -8  -6   30.60    3.30
   5  -8  -6   33.40    4.20
  -5   8   6   37.10    5.20
   4  -8  -6  105.79    7.20
   4  -8  -6   99.19    6.50
   3  -8  -6    5.20    2.00
   2  -8  -6  118.89    8.00
   1  -8  -6    4.00    1.70
   1  -8  -6    4.40    1.70
   0  -8  -6  162.38   10.20
   0  -8  -6  159.18   10.20
  -1  -8  -6   58.99    4.90
  -1  -8  -6   59.99    5.30
  -2  -8  -6  157.08   12.00
   6  -9  -6   84.39    6.10
   5  -9  -6  165.78   11.40
   3  -9  -6   77.89    6.70
   3  -9  -6   82.29    6.10
   2  -9  -6  103.29    7.80
   2  -9  -6  110.79    7.40
   1  -9  -6  194.08   11.70
   1  -9  -6  197.08   12.10
   0  -9  -6   69.89    5.60
   0  -9  -6   74.09    5.80
  -1  -9  -6   65.89    5.00
  -1  -9  -6   64.09    5.30
   4 -10  -6   63.69    5.80
   3 -10  -6  124.29    8.80
   2 -10  -6    5.60    2.10
  -1 -10   7   24.50    3.00
  -1 -10   7   26.40    3.70
   0 -10   7 1176.98   55.19
   0 -10   7 1034.00   55.99
   0 -10   7 1004.60   55.59
   1 -10   7   71.09    6.50
   1 -10   7   80.59    7.10
   1 -10   7   92.59    6.50
   2 -10   7   -0.50    2.20
   2 -10   7    2.20    1.90
   3 -10   7   18.20    2.80
   3 -10   7   22.50    4.00
   4 -10   7  407.86   23.90
   4 -10   7  423.76   22.40
  -3  -9   7   91.69    6.10
  -3  -9   7   76.99    6.50
  -2  -9   7   -1.10    1.60
  -2  -9   7    2.60    1.30
  -1  -9   7   76.59    6.60
  -1  -9   7   80.29    6.90
  -1  -9   7   88.19    6.00
   0  -9   7 1106.49   60.39
   0  -9   7 1145.89   60.59
   0  -9   7 1250.37   59.59
   1  -9   7  280.47   14.90
   1  -9   7  261.17   15.70
   1  -9   7  247.48   15.80
   2  -9   7    2.20    1.40
   2  -9   7   -1.20    1.60
   3  -9   7  183.78   12.80
   3  -9   7  202.08   11.50
   4  -9   7  653.23   33.80
   4  -9   7  633.34   35.50
   5  -9   7  557.74   32.50
   5  -9   7  613.64   30.80
  -4  -8   7   68.49    5.30
  -4  -8   7   62.99    5.80
  -3  -8   7  884.91   44.30
  -3  -8   7  829.12   45.10
  -2  -8   7  160.88    9.80
  -2  -8   7  157.18   10.70
  -1  -8   7   34.30    4.10
  -1  -8   7   31.70    4.10
  -1  -8   7   34.20    3.40
   0  -8   7   30.10    4.20
   0  -8   7   29.40    3.30
   0  -8   7   36.00    4.30
   0  -8   7   34.10    4.70
   1  -8   7 2326.57  118.09
   1  -8   7 2339.67  114.49
   1  -8   7 2190.98  115.59
   2  -8   7  182.38   12.20
   2  -8   7  188.08   11.00
  -3   8  -7   85.59    7.10
   3  -8   7  104.49    6.60
   3  -8   7   97.79    8.00
  -4   8  -7    7.20    2.40
   4  -8   7    6.80    2.90
   4  -8   7    3.20    1.60
  -5   8  -7 1032.30   54.59
   5  -8   7 1087.89   53.49
   5  -8   7 1017.00   55.69
  -6   8  -7   83.49    6.80
   6  -8   7   89.99    7.60
  -5  -7   7    2.20    2.20
  -5  -7   7    7.70    2.30
  -5  -7   7    2.10    2.20
  -4  -7   7  232.08   15.10
  -4  -7   7  276.67   15.20
  -4  -7   7  255.17   14.60
  -3  -7   7 1148.29   61.39
  -3  -7   7 1168.48   58.89
  -3  -7   7 1109.89   59.59
  -3  -7   7 1173.68   58.69
  -2  -7   7 1038.70   56.89
  -2  -7   7 1056.09   54.89
  -2  -7   7 1134.29   56.69
  -1  -7   7    5.80    2.20
  -1  -7   7    7.30    1.80
  -1  -7   7    8.70    2.80
  -1  -7   7    3.40    1.80
   0  -7   7  549.74   31.10
   0  -7   7  576.54   29.30
   0  -7   7  544.75   30.30
   0  -7   7  579.44   30.50
   1  -7   7 1621.94   85.99
   1  -7   7 1717.73   84.89
   1  -7   7 1725.83   85.69
  -2   7  -7 1457.35   80.39
   2  -7   7 1674.93   81.39
   2  -7   7 1621.24   79.79
  -3   7  -7    0.60    1.50
   3  -7   7    1.00    1.70
   3  -7   7    0.20    1.10
  -4   7  -7   88.19    7.30
   4  -7   7   91.99    8.10
   4  -7   7   93.39    6.30
  -5   7  -7  225.58   14.00
   5  -7   7  224.68   12.70
   5  -7   7  212.18   14.90
  -6   7  -7  638.64   35.00
   6  -7   7  659.53   36.20
  -7   7  -7   38.40    4.30
   7  -7   7   30.10    4.10
  -6  -6   7  646.54   36.20
  -6  -6   7  734.93   36.90
  -5  -6   7   95.29    7.40
  -5  -6   7  101.39    7.70
  -5  -6   7  100.79    7.00
  -4  -6   7  225.48   18.30
  -4  -6   7  249.08   14.10
  -4  -6   7  257.17   14.80
  -4  -6   7  232.78   14.60
  -3  -6   7  176.68   11.10
  -3  -6   7  179.38   11.60
  -3  -6   7  185.48   12.40
  -3  -6   7  171.18   10.60
  -2  -6   7 1026.30   53.49
  -2  -6   7 1049.79   53.99
  -2  -6   7 1050.89   53.09
  -2  -6   7 1041.00   52.89
  -2  -6   7 1026.70   56.49
  -1  -6   7   25.10    3.40
  -1  -6   7   24.60    2.70
  -1  -6   7   27.40    2.60
  -1  -6   7   23.60    3.50
  -1  -6   7   31.20    3.80
   0  -6   7  876.41   47.00
   0  -6   7  876.41   45.30
   0  -6   7  885.01   46.40
   0  -6   7  888.11   45.40
   0  -6   7  939.11   46.60
  -1   6  -7  122.49    8.50
   1  -6   7  127.99    7.60
   1  -6   7  135.59    8.90
   1  -6   7  131.19    8.20
  -2   6  -7 1947.71  101.49
   2  -6   7 1998.20  100.19
   2  -6   7 2068.09  101.99
  -3   6  -7   92.39    7.10
   3  -6   7   91.99    7.60
   3  -6   7   84.89    5.80
  -4   6  -7   88.99    7.00
   4  -6   7   80.59    7.60
   4  -6   7   79.29    5.60
  -5   6  -7   83.89    7.00
   5  -6   7   72.99    7.60
  -6   6  -7 1064.89   55.89
   6  -6   7 1070.59   57.19
  -7   6  -7  246.78   15.20
   7  -6   7  248.78   15.60
  -6  -5   7  793.82   41.20
  -6  -5   7  744.83   40.40
  -5  -5   7  267.17   16.20
  -5  -5   7  273.37   20.10
  -5  -5   7  278.37   15.60
  -5  -5   7  278.57   16.80
  -4  -5   7   35.00    4.40
  -4  -5   7   36.70    4.80
  -4  -5   7   38.00    4.30
  -4  -5   7   40.10    3.90
  -3  -5   7 1378.26   69.59
  -3  -5   7 1345.87   68.59
  -3  -5   7 1325.87   68.89
  -3  -5   7 1323.37   67.89
  -2  -5   7 1126.69   58.09
  -2  -5   7 1139.39   58.09
  -2  -5   7 1117.09   57.59
  -2  -5   7 1145.19   58.79
  -2  -5   7 1167.48   59.09
  -1  -5   7 5440.46  271.17
  -1  -5   7 5574.34  272.57
  -1  -5   7 5293.97  271.37
  -1  -5   7 5499.35  271.97
  -1  -5   7 5558.04  272.27
   0  -5   7  724.83   37.40
   0  -5   7  710.73   37.70
   0  -5   7  730.83   38.40
   0  -5   7  777.32   38.50
   1  -5   7 1255.37   61.29
   1  -5   7 1164.98   59.89
   1  -5   7 1204.58   60.29
   1  -5   7 1137.29   59.79
   2  -5   7 1250.17   65.09
   2  -5   7 1345.57   66.99
   3  -5   7  908.11   47.50
   3  -5   7  971.40   49.99
  -4   5  -7   70.19    6.30
   4  -5   7   67.79    7.00
  -5   5  -7 1899.31   92.89
   5  -5   7 1722.53   93.99
  -6   5  -7   74.39    6.90
   6  -5   7   81.59    7.90
  -7   5  -7  955.20   51.29
   7  -5   7  993.50   53.89
  -7  -4   7   85.49    7.80
  -7  -4   7  118.99    9.40
  -6  -4   7   71.49    6.20
  -6  -4   7   82.59    7.00
  -5  -4   7 1369.96   68.69
  -5  -4   7 1348.27   68.39
  -5  -4   7 1266.97   67.99
  -4  -4   7   22.00    2.80
  -4  -4   7   20.20    3.30
  -4  -4   7   15.10    3.20
  -4  -4   7   14.30    3.00
  -3  -4   7  747.83   39.10
  -3  -4   7  648.84   39.70
  -3  -4   7  787.02   40.20
  -3  -4   7  792.42   40.00
  -3  -4   7  839.42   40.50
  -2  -4   7  349.57   19.00
  -2  -4   7  315.97   18.20
  -2  -4   7  334.17   18.40
  -2  -4   7  325.77   17.80
  -2  -4   7  352.66   18.90
  -1  -4   7 5747.42  307.47
  -1  -4   7 6229.78  306.87
  -1  -4   7 6574.34  307.37
   0  -4   7   28.50    2.80
   0  -4   7   30.40    2.50
   0  -4   7   39.00    3.40
   1  -4   7 1042.40   52.39
   1  -4   7 1006.40   50.99
   1  -4   7 1049.59   51.39
   1  -4   7  961.30   51.09
   2  -4   7 2245.68  118.29
   2  -4   7 2518.45  120.39
   3  -4   7 2841.32  143.69
   4  -4   7  807.92   44.30
  -5   4  -7    6.80    2.30
   5  -4   7    7.20    3.20
  -6   4  -7  315.97   19.10
   6  -4   7  315.97   20.10
  -7   4  -7  242.88   15.20
   7  -4   7  241.78   15.60
  -7  -3   7  185.38   11.40
  -7  -3   7  185.58   12.20
  -6  -3   7 1624.94   84.69
  -6  -3   7 1667.23   83.79
  -5  -3   7   32.60    4.10
  -5  -3   7   32.70    3.60
  -5  -3   7   27.60    4.10
  -4  -3   7 1365.66   72.69
  -4  -3   7 1481.95   73.69
  -4  -3   7 1490.05   73.49
  -4  -3   7 1429.16   73.89
  -3  -3   7   22.30    2.50
  -3  -3   7   15.50    2.00
  -3  -3   7   18.70    2.70
  -2  -3   7 1709.43   83.79
  -2  -3   7 1581.34   82.69
  -2  -3   7 1586.84   82.99
  -2  -3   7 1732.43   83.59
  -2  -3   7 1665.43   83.39
  -1  -3   7  216.38   12.40
  -1  -3   7  214.88   11.90
  -1  -3   7  218.88   12.50
  -1  -3   7  237.28   12.90
   0  -3   7 3019.60  153.28
   0  -3   7 3064.09  152.88
   0  -3   7 3038.60  152.28
   0  -3   7 3165.28  152.88
  -1   3  -7   10.10    1.60
   1  -3   7   14.80    1.40
   1  -3   7   14.90    2.30
   1  -3   7   12.00    1.80
  -2   3  -7 1681.53   85.99
   2  -3   7 1769.42   87.99
   3  -3   7   20.00    3.70
   4  -3   7 1650.63   85.89
  -5   3  -7  179.98   11.80
   5  -3   7  156.98   12.40
  -6   3  -7 1800.52   91.09
   6  -3   7 1743.63   92.19
  -7   3  -7   86.99    7.40
   7  -3   7   89.19    7.80
  -8  -2   7  395.06   22.40
  -7  -2   7   22.50    3.40
  -7  -2   7   25.10    3.80
  -6  -2   7   17.00    3.20
  -6  -2   7   10.20    3.20
  -5  -2   7   35.70    4.00
  -5  -2   7   39.20    4.50
  -4  -2   7 1975.10  101.39
  -4  -2   7 1929.51  100.29
  -4  -2   7 2104.79  101.29
  -3  -2   7   17.10    2.90
  -3  -2   7   15.80    2.10
  -3  -2   7   20.50    2.70
  -2  -2   7   72.09    4.50
  -2  -2   7   64.79    4.40
  -2  -2   7   70.09    5.30
  -2  -2   7   68.49    5.40
  -1  -2   7 2243.88  114.89
  -1  -2   7 2440.56  115.19
  -1  -2   7 2296.37  114.39
  -1  -2   7 2226.88  114.99
   0  -2   7 3150.28  157.58
   0  -2   7 3266.37  156.78
   0  -2   7 3168.88  157.18
   0  -2   7 3055.59  156.88
  -1   2  -7  762.92   37.60
   1  -2   7  766.92   38.50
   1  -2   7  720.13   37.70
   1  -2   7  695.83   36.80
  -2   2  -7  149.88    8.60
   2  -2   7  150.88   10.10
  -3   2  -7 1286.87   64.79
   3  -2   7 1292.97   67.39
  -4   2  -7  502.25   26.00
   4  -2   7  490.65   28.80
  -5   2  -7  313.87   17.20
   5  -2   7  320.97   20.20
  -6   2  -7  228.68   14.70
   6  -2   7  220.28   15.20
  -7   2  -7  584.44   32.00
  -8  -1   7   89.79    7.10
  -7  -1   7  814.02   41.60
  -7  -1   7  776.62   42.50
  -6  -1   7  179.58   11.20
  -6  -1   7  175.38   11.90
  -5  -1   7 1995.20  100.59
  -5  -1   7 1985.40  101.19
  -4  -1   7  105.09    7.90
  -4  -1   7  122.79    8.10
  -3  -1   7 1235.48   62.39
  -3  -1   7 1252.17   63.19
  -3  -1   7 1230.98   63.09
  -2  -1   7   29.70    2.40
  -2  -1   7   25.20    2.20
  -2  -1   7   30.90    3.00
  -2  -1   7   28.60    3.10
  -1  -1   7 4222.68  213.58
  -1  -1   7 4447.96  213.78
  -1  -1   7 4156.98  213.78
  -1  -1   7 4396.76  213.48
   0  -1   7   63.69    3.90
   0  -1   7   72.29    4.80
   0  -1   7   64.19    4.80
  -1   1  -7 2758.92  134.99
   1  -1   7 2668.23  135.79
   1  -1   7 2700.33  135.09
  -2   1  -7   44.20    3.70
   2  -1   7   48.00    4.70
  -3   1  -7 1315.97   67.09
   3  -1   7 1285.97   67.99
  -4   1  -7 1398.46   68.09
   4  -1   7 1285.57   70.59
  -5   1  -7  106.59    7.10
   5  -1   7   95.69    8.80
  -6   1  -7    8.20    1.80
  -6   1  -7    3.80    2.20
   6  -1   7    5.10    2.70
  -7   1  -7  411.66   23.50
   7  -1   7  417.46   24.10
  -8   0   7  188.08   12.00
  -7   0   7 1192.68   62.09
  -6   0   7    2.10    1.90
  -6   0   7    2.50    1.80
  -6   0   7    1.20    1.60
  -5   0   7   66.19    6.60
  -5   0   7   59.09    5.70
  -5   0   7   72.39    5.90
  -4   0   7 1531.65   80.19
  -4   0   7 1628.24   80.19
  -3   0   7  183.38   10.70
  -3   0   7  171.98   11.60
  -2   0   7   38.50    3.60
  -2   0   7   35.70    3.30
  -2   0   7   34.70    2.50
  -1   0   7  277.27   15.00
  -1   0   7  268.77   14.70
   0   0   7 2051.49  103.09
   0   0   7 2059.29  102.89
  -1   0  -7 1232.48   61.39
   1   0   7 1221.88   62.29
   1   0   7 1189.48   61.39
  -2   0  -7  131.39    8.00
   2   0   7  107.99    8.60
  -3   0  -7  480.75   24.20
   3   0   7  425.26   26.10
  -4   0  -7 4657.13  229.68
   4   0   7 4575.84  232.28
  -5   0  -7   28.10    3.60
  -6   0  -7  206.98   13.70
  -6   0  -7  231.48   13.20
   6   0   7  217.98   14.70
  -7   0  -7  139.59    9.90
  -7   0  -7  157.18    9.70
   7   0   7  165.88   11.50
  -8   1   7  197.68   12.50
  -7   1   7  644.94   34.20
  -7   1   7  567.04   32.80
  -6   1   7 1677.43   85.09
  -6   1   7 1648.04   86.49
  -5   1   7    2.20    1.80
  -5   1   7    4.20    2.10
  -4   1   7 2952.00  144.39
  -4   1   7 2807.92  145.59
  -3   1   7   51.19    4.30
  -2   1   7 5991.00  297.07
  -1   1   7   56.89    4.00
  -1   1   7   60.99    4.40
   0   1   7  544.25   29.00
   0   1   7  559.84   28.80
  -1  -1  -7  112.29    8.80
   1   1   7  125.19    7.60
   1   1   7  120.59    8.30
  -2  -1  -7 1160.98   55.99
   2   1   7 1032.90   57.49
  -3  -1  -7  261.47   14.30
   3   1   7  235.18   16.00
  -4  -1  -7  863.41   44.00
   4   1   7  825.92   46.00
  -5  -1  -7   82.59    6.60
   5   1   7   92.09    8.30
  -6  -1  -7  182.38   12.10
  -6  -1  -7  192.48   11.80
   6   1   7  199.78   13.40
  -7  -1  -7    6.30    2.10
  -7  -1  -7    4.70    1.90
  -9   2   7   14.10    2.60
  -8   2   7    8.00    2.40
  -8   2   7    5.70    2.30
  -7   2   7  530.25   29.40
  -7   2   7  467.45   27.40
  -6   2   7  533.95   28.70
  -6   2   7  510.25   30.40
  -5   2   7  110.89    9.50
  -5   2   7  114.59    8.10
  -4   2   7   14.90    2.70
  -4   2   7   16.70    3.70
  -3   2   7 2106.19  105.69
  -2   2   7   52.69    4.30
  -1   2   7   43.40    3.70
  -1   2   7   39.40    3.20
   0  -2  -7  323.17   17.80
   0  -2  -7  308.67   17.00
   0   2   7  346.67   18.20
   0   2   7  321.27   18.00
  -1  -2  -7 3718.63  185.18
  -2  -2  -7  143.69    8.90
   2   2   7  126.29    9.80
  -3  -2  -7  286.47   17.60
   3   2   7  348.97   19.90
  -4  -2  -7  154.78   10.10
  -4  -2  -7  145.99   10.40
   4   2   7  163.88   11.80
  -5  -2  -7 2878.91  159.88
  -5  -2  -7 3364.56  159.78
   5   2   7 3308.87  161.58
  -6  -2  -7   58.59    5.40
   6   2   7   60.09    6.10
  -8   3   7   12.60    3.60
  -8   3   7   12.80    2.70
  -7   3   7  597.54   33.80
  -7   3   7  665.43   36.30
  -6   3   7   60.59    5.50
  -6   3   7   61.89    7.10
  -5   3   7  676.43   37.20
  -5   3   7  636.34   34.70
  -4   3   7    7.60    2.80
  -4   3   7    4.20    1.70
  -3   3   7  797.92   40.70
  -3   3   7  776.92   42.30
  -2   3   7 1058.39   53.99
  -1   3   7  902.01   47.00
  -1   3   7  941.41   47.20
   0  -3  -7    6.80    1.40
   0  -3  -7    5.50    1.80
   0   3   7   11.40    2.10
  -1  -3  -7  892.71   47.30
  -1  -3  -7  941.81   47.70
   1   3   7  938.91   48.90
  -2  -3  -7  550.04   28.10
  -2  -3  -7  475.65   28.00
   2   3   7  542.25   29.80
  -3  -3  -7  692.23   36.80
   3   3   7  704.23   38.80
  -4  -3  -7  103.29    8.40
  -4  -3  -7  121.09    8.50
   4   3   7  122.39    9.70
  -5  -3  -7    8.00    2.20
  -5  -3  -7    6.90    2.30
   5   3   7    8.90    3.10
  -6  -3  -7  173.38   11.00
   6   3   7  178.38   12.10
  -8   4   7   28.70    5.00
  -8   4   7   24.50    3.50
  -7   4   7   27.20    3.70
  -7   4   7   37.40    5.50
  -6   4   7  807.22   52.59
  -6   4   7  959.50   46.40
  -5   4   7   18.80    3.20
  -5   4   7   23.00    5.00
  -4   4   7  167.78   12.10
  -4   4   7  160.18   10.00
  -3   4   7  101.79    6.90
  -2   4   7 2914.91  145.49
   1  -4  -7    8.40    2.20
  -1   4   7    6.90    2.00
  -1   4   7    6.70    1.50
   0  -4  -7  341.17   19.00
  -1  -4  -7   17.90    2.70
  -1  -4  -7   15.00    2.10
  -1  -4  -7   12.10    2.40
  -2  -4  -7  861.81   42.90
  -2  -4  -7  776.12   43.10
  -3  -4  -7   12.00    2.80
   3   4   7   19.00    5.00
  -4  -4  -7  443.06   25.00
   4   4   7  457.95   26.50
  -5  -4  -7  187.08   12.20
   5   4   7  196.78   13.20
  -8   5   7   68.39    8.70
  -7   5   7   13.00    3.90
  -6   5   7  107.99    8.10
  -6   5   7  108.59   10.10
  -5   5   7  138.39    9.00
  -5   5   7  146.39   11.80
   3  -5  -7   49.50    3.40
  -3   5   7   51.29    4.20
   2  -5  -7 2529.65  126.89
   1  -5  -7 2037.70  102.59
   0  -5  -7  131.79    8.80
  -1  -5  -7    3.00    1.40
  -1  -5  -7    3.00    1.90
  -2  -5  -7   77.49    7.60
  -2  -5  -7   85.89    7.40
  -3  -5  -7  592.34   36.30
  -3  -5  -7  646.84   33.50
  -4  -5  -7    0.10    1.70
   4   5   7    0.90    1.60
  -5  -5  -7    6.90    2.30
   5   5   7    9.90    2.90
  -8   6   7    2.00    2.40
  -7   6   7    7.80    3.30
  -6   6   7   34.20    5.70
   5  -6  -7  762.62   41.10
  -5   6   7  757.72   42.70
   4  -6  -7    7.20    2.20
   3  -6  -7  392.66   21.70
   2  -6  -7  366.96   20.40
   1  -6  -7 1444.66   73.49
   0  -6  -7   20.30    3.40
   0  -6  -7   20.00    2.80
  -1  -6  -7   11.20    2.70
  -2  -6  -7   19.80    3.60
  -3  -6  -7  507.45   27.80
  -4  -6  -7    4.00    2.00
   4   6   7    4.00    2.30
   7  -7  -7    6.50    3.50
   7  -7  -7    5.80    2.20
  -7   7   7   10.20    3.70
   6  -7  -7  183.98   11.30
   6  -7  -7  204.38   12.00
  -6   7   7  173.28   13.80
   5  -7  -7  135.49    8.80
   5  -7  -7  114.49    7.70
   4  -7  -7  343.97   19.40
   3  -7  -7   17.10    3.30
   2  -7  -7  152.28    9.80
   1  -7  -7  152.88    9.90
   0  -7  -7  479.65   25.70
   0  -7  -7  469.35   25.70
  -1  -7  -7  108.49    7.40
  -1  -7  -7  109.79    7.90
  -2  -7  -7    3.30    1.60
  -3  -7  -7    4.30    1.80
   3   7   7    6.10    2.60
   6  -8  -7   10.60    3.00
   5  -8  -7    4.40    2.60
   4  -8  -7  508.25   27.40
   3  -8  -7   52.09    5.00
   2  -8  -7  108.09    7.60
   2  -8  -7  108.69    7.90
   1  -8  -7    0.70    1.40
   1  -8  -7    0.10    1.30
   0  -8  -7  376.76   20.70
   0  -8  -7  369.26   22.50
  -1  -8  -7  241.78   14.60
  -1  -8  -7  203.48   12.60
  -2  -8  -7    3.90    1.60
   2   8   7    3.40    2.10
   3  -9  -7  346.17   19.10
   2  -9  -7   22.30    3.40
   2  -9  -7   20.50    3.60
   1  -9  -7    0.50    1.50
   1  -9  -7    1.50    1.60
   0  -9  -7    4.00    1.60
   0  -9  -7    2.50    1.80
   1 -10   8    4.20    1.60
   1 -10   8    1.70    2.00
   2 -10   8 1089.79   53.89
   2 -10   8 1024.80   54.99
  -2  -9   8  254.97   14.00
  -2  -9   8  240.08   14.80
  -1  -9   8  881.01   43.90
  -1  -9   8  813.32   44.70
   0  -9   8   87.09    7.20
   0  -9   8   97.89    6.40
   0  -9   8   97.19    8.60
   1  -9   8   33.30    3.20
   1  -9   8   32.40    4.10
   2  -9   8  289.77   15.70
   2  -9   8  273.97   17.00
   3  -9   8 1110.69   54.79
   3  -9   8 1035.80   56.39
   4  -9   8    4.30    2.10
   4  -9   8    3.00    2.50
  -3  -8   8  286.67   17.80
  -3  -8   8  280.07   16.30
  -2  -8   8   40.70    4.60
  -2  -8   8   43.60    3.90
  -1  -8   8  893.91   46.10
  -1  -8   8  796.72   45.50
  -1  -8   8  929.11   44.90
   0  -8   8  104.39    6.50
   0  -8   8   85.89    7.10
   0  -8   8   90.59    7.10
   1  -8   8  366.36   18.90
   1  -8   8  332.17   19.90
   1  -8   8  341.77   19.30
   2  -8   8    4.10    2.10
   2  -8   8    2.20    1.20
   3  -8   8 1496.05   81.79
   3  -8   8 1676.13   80.09
  -4   8  -8  239.18   18.30
   4  -8   8  310.47   17.90
  -5   8  -8   88.09    6.80
   5  -8   8   77.29    7.60
  -5  -7   8  237.08   14.40
  -5  -7   8  242.18   13.40
  -5  -7   8  228.78   13.80
  -4  -7   8  805.42   41.90
  -4  -7   8  842.52   42.30
  -4  -7   8  783.42   42.50
  -3  -7   8  358.56   20.80
  -3  -7   8  369.56   19.90
  -3  -7   8  362.66   20.00
  -2  -7   8   38.40    4.40
  -2  -7   8   35.90    4.20
  -2  -7   8   45.50    5.20
  -2  -7   8   43.70    3.90
  -1  -7   8  159.78   10.60
  -1  -7   8  176.78   11.10
  -1  -7   8  162.88    9.80
   0  -7   8 2401.76  115.09
   0  -7   8 2153.88  115.79
   1  -7   8  170.38   11.80
   1  -7   8  179.38   10.50
  -2   7  -8  120.29    8.50
   2  -7   8  125.49    9.10
  -3   7  -8   14.30    3.10
   3  -7   8   19.40    3.60
   3  -7   8   13.10    2.20
  -4   7  -8 1720.63   88.59
   4  -7   8 1751.62   90.09
  -5   7  -8  183.58   11.70
   5  -7   8  171.18   12.70
  -6   7  -8   16.20    3.00
   6  -7   8   17.60    3.80
  -5  -6   8  260.27   16.00
  -5  -6   8  290.57   15.60
  -4  -6   8  955.20   48.00
  -4  -6   8  968.30   48.80
  -4  -6   8  872.51   48.60
  -3  -6   8  325.67   18.30
  -3  -6   8  326.67   17.90
  -3  -6   8  322.67   18.90
  -3  -6   8  320.37   19.50
  -2  -6   8  521.75   27.40
  -2  -6   8  519.85   29.00
  -2  -6   8  530.25   27.20
  -2  -6   8  477.95   27.60
  -2  -6   8  537.35   28.40
  -1  -6   8   30.20    2.90
  -1  -6   8   28.20    3.50
  -1  -6   8   25.10    2.70
  -1  -6   8   24.60    3.30
   0  -6   8  513.45   27.80
   0  -6   8  524.15   27.60
   0  -6   8  503.85   26.70
   0  -6   8  507.65   26.70
  -1   6  -8  922.31   52.49
   1  -6   8 1055.09   53.09
   1  -6   8 1077.19   51.59
  -2   6  -8    6.90    2.10
   2  -6   8    7.40    2.50
   2  -6   8    7.40    1.60
  -3   6  -8   25.40    3.60
   3  -6   8   19.10    5.70
   3  -6   8   20.90    2.40
  -4   6  -8 1979.80   98.29
   4  -6   8 1871.31   99.49
  -5   6  -8 1054.49   54.19
   5  -6   8 1007.00   55.59
  -6   6  -8    7.80    3.30
   6  -6   8    5.30    3.30
  -6  -5   8  232.68   14.50
  -5  -5   8    5.50    2.40
  -5  -5   8    1.40    1.80
  -5  -5   8    5.00    2.40
  -4  -5   8  122.79    9.30
  -4  -5   8  131.19    8.40
  -4  -5   8  132.69    9.10
  -4  -5   8  131.29    9.20
  -3  -5   8 3064.19  148.09
  -3  -5   8 3003.60  148.89
  -3  -5   8 2854.91  148.19
  -3  -5   8 2882.41  147.29
  -2  -5   8  133.59    9.20
  -2  -5   8  128.19    9.00
  -2  -5   8  139.49    8.50
  -2  -5   8  129.39    8.00
  -2  -5   8  127.39    8.40
  -1  -5   8  225.38   13.40
  -1  -5   8  225.78   12.40
  -1  -5   8  218.38   12.60
  -1  -5   8  221.28   13.10
   0  -5   8  867.41   45.00
   0  -5   8  866.41   44.70
   0  -5   8  859.71   43.90
   0  -5   8  867.71   44.30
   1  -5   8  531.75   27.70
   1  -5   8  550.94   29.00
   1  -5   8  512.95   27.30
   2  -5   8   64.99    5.90
   2  -5   8   63.49    4.30
   3  -5   8    1.50    2.00
  -4   5  -8    5.70    2.40
   4  -5   8    8.40    3.70
  -5   5  -8 1275.47   63.19
   5  -5   8 1135.99   64.29
  -6   5  -8  394.16   23.00
   6  -5   8  405.36   24.20
  -7   5  -8   92.89    7.30
   7  -5   8   86.29    7.40
  -7  -4   8  518.95   27.50
  -7  -4   8  478.85   26.50
  -6  -4   8  278.17   16.80
  -6  -4   8  270.77   15.90
  -5  -4   8  593.64   31.80
  -5  -4   8  602.54   31.10
  -5  -4   8  576.54   32.40
  -4  -4   8   11.50    2.80
  -4  -4   8    9.10    2.20
  -4  -4   8    6.20    2.10
  -3  -4   8 1876.01   92.19
  -3  -4   8 1754.82   91.19
  -3  -4   8 1783.32   92.19
  -3  -4   8 1854.11   92.29
  -2  -4   8  689.03   35.80
  -2  -4   8  706.73   36.90
  -2  -4   8  712.83   36.50
  -2  -4   8  681.23   36.10
  -1  -4   8    8.90    1.70
  -1  -4   8   13.00    2.30
  -1  -4   8   11.40    2.50
  -1  -4   8    8.80    1.90
   0  -4   8  277.87   16.30
   0  -4   8  296.57   15.90
   0  -4   8  281.97   17.80
   0  -4   8  297.67   16.50
   1  -4   8 4204.98  206.88
   1  -4   8 4032.30  206.18
   1  -4   8 4251.57  207.98
   3  -4   8    1.60    1.60
   4  -4   8  248.08   16.60
  -5   4  -8  684.33   36.20
   5  -4   8  628.34   37.10
  -6   4  -8 1214.68   62.99
   6  -4   8 1194.88   63.99
  -7   4  -8    8.50    2.70
   7  -4   8    4.40    2.30
  -7  -3   8    4.80    1.90
  -7  -3   8    3.40    2.00
  -6  -3   8 1190.38   63.09
  -6  -3   8 1229.28   62.19
  -5  -3   8   94.39    7.10
  -5  -3   8   92.69    7.70
  -4  -3   8    2.90    1.70
  -4  -3   8    2.40    1.60
  -3  -3   8   30.50    3.90
  -3  -3   8   31.90    3.10
  -3  -3   8   29.60    3.60
  -2  -3   8 2409.86  122.19
  -2  -3   8 2609.04  123.29
  -2  -3   8 2356.76  122.29
  -2  -3   8 2427.56  122.79
  -1  -3   8   58.59    4.00
  -1  -3   8   58.99    4.80
  -1  -3   8   57.39    4.60
  -1  -3   8   56.49    4.50
   0  -3   8  139.49    7.70
   0  -3   8  142.89    8.80
   0  -3   8  138.19    8.40
   0  -3   8  126.79    8.00
  -1   3  -8 1005.80   50.09
   1  -3   8 1005.00   51.39
   1  -3   8  959.20   50.39
  -2   3  -8 3091.49  156.98
   2  -3   8 3233.58  159.28
   3  -3   8   64.09    6.60
   4  -3   8    8.00    3.40
  -5   3  -8  226.58   14.60
   5  -3   8  211.88   15.50
  -6   3  -8  878.21   45.40
   6  -3   8  809.52   46.20
  -7   3  -8  642.74   34.10
   7  -3   8  606.94   34.40
  -7  -2   8   87.39    7.10
  -7  -2   8   82.19    6.30
  -6  -2   8  700.43   36.00
  -6  -2   8  655.03   36.90
  -5  -2   8  744.93   40.50
  -5  -2   8  764.42   39.80
  -4  -2   8  840.72   44.30
  -4  -2   8  853.61   44.60
  -3  -2   8  829.62   44.00
  -3  -2   8  830.82   43.00
  -3  -2   8  872.41   44.10
  -2  -2   8  736.33   39.80
  -2  -2   8  838.02   40.90
  -2  -2   8  787.72   39.90
  -2  -2   8  775.22   40.60
  -1  -2   8 4111.59  202.98
  -1  -2   8 4029.00  202.38
  -1  -2   8 4043.70  203.18
  -1  -2   8 4152.88  203.08
   0  -2   8  102.39    6.60
   0  -2   8  114.99    7.40
   0  -2   8  121.79    7.30
  -1   2  -8  187.58   10.20
   1  -2   8  163.08   10.20
   1  -2   8  173.18   11.00
  -2   2  -8  601.34   31.60
   2  -2   8  611.54   33.20
  -3   2  -8 2415.96  121.09
   3  -2   8 2439.26  123.99
  -4   2  -8    4.40    1.40
   4  -2   8    5.90    2.80
   5  -2   8    6.00    2.90
  -6   2  -8  169.68   11.60
   6  -2   8  154.48   12.00
  -7   2  -8  396.46   22.40
   7  -2   8  383.66   22.80
  -8  -1   8    5.00    1.80
  -7  -1   8    8.20    2.70
  -6  -1   8  444.36   24.00
  -6  -1   8  423.66   24.70
  -5  -1   8 1056.99   53.09
  -5  -1   8  989.10   53.59
  -4  -1   8  259.97   15.60
  -4  -1   8  265.67   15.40
  -3  -1   8   50.99    4.60
  -3  -1   8   57.59    5.00
  -2  -1   8   17.40    1.90
  -1  -1   8 3232.28  158.88
  -1  -1   8 3147.69  158.58
  -1  -1   8 3177.28  158.48
   0  -1   8  142.69    9.00
   0  -1   8  148.39    8.90
   1  -1   8   41.20    4.00
   1  -1   8   31.80    3.50
  -2   1  -8  943.81   48.10
   2  -1   8  938.91   49.90
  -3   1  -8 2796.42  135.79
   3  -1   8 2635.94  138.29
  -4   1  -8  598.24   30.40
   4  -1   8  550.84   33.00
  -5   1  -8  108.39    7.30
   5  -1   8  103.19    9.30
  -6   1  -8   19.30    3.90
   6  -1   8   22.70    4.20
  -7   1  -8  315.27   18.30
   7  -1   8  314.47   19.00
  -8   0   8  104.19    8.20
  -7   0   8    8.40    2.70
  -6   0   8  155.28   10.80
  -5   0   8  820.92   44.60
  -5   0   8  866.41   44.30
  -4   0   8 2192.78  108.29
  -4   0   8 2098.69  108.39
  -3   0   8   86.89    6.50
  -3   0   8   80.29    6.10
  -2   0   8  656.53   34.30
  -1   0   8   78.89    5.20
   0   0   8 4092.89  204.48
   0   0   8 4121.59  204.38
  -1   0  -8  365.86   19.80
   1   0   8  348.17   19.70
   1   0   8  374.66   20.60
  -2   0  -8  881.81   44.20
   2   0   8  829.02   45.70
  -3   0  -8    4.80    1.80
   3   0   8    0.60    1.80
  -4   0  -8  358.86   20.00
   4   0   8  364.76   22.50
  -5   0  -8   19.60    3.20
   5   0   8   13.10    3.20
  -6   0  -8  148.09   10.10
  -6   0  -8  134.99    9.80
   6   0   8  133.19   10.40
  -8   1   8  179.58   13.40
  -7   1   8  405.56   23.10
  -6   1   8 1077.19   57.09
  -5   1   8  591.04   32.10
  -4   1   8 2559.64  128.79
  -3   1   8   55.09    4.80
  -2   1   8   19.70    2.70
  -1   1   8  461.15   24.10
  -1   1   8  437.76   23.60
   0  -1  -8 3851.21  190.18
   0   1   8 3815.42  190.18
   0   1   8 3788.02  190.38
  -1  -1  -8 2592.54  127.79
   1   1   8 2506.25  128.69
  -2  -1  -8  137.89    8.90
   2   1   8  137.49   10.30
  -3  -1  -8  169.28   10.50
   3   1   8  164.88   12.30
  -4  -1  -8  754.52   42.30
   4   1   8  737.23   41.50
  -5  -1  -8  426.16   24.00
   5   1   8  446.76   26.00
  -6  -1  -8   39.50    4.30
  -6  -1  -8   40.50    4.20
   6   1   8   35.40    5.60
  -8   2   8   76.29    6.30
  -7   2   8  311.97   18.30
  -6   2   8  185.18   12.40
  -6   2   8  195.18   14.80
  -5   2   8  183.98   11.80
  -4   2   8  363.16   20.30
  -3   2   8 2837.92  142.09
  -2   2   8   36.90    3.80
  -1   2   8  864.41   43.60
  -1   2   8  823.52   43.10
   0  -2  -8   77.99    6.00
   0  -2  -8   76.89    6.00
   0   2   8   74.99    5.90
  -1  -2  -8 1429.06   71.89
   1   2   8 1396.56   72.89
  -2  -2  -8   10.00    2.60
  -2  -2  -8   13.40    2.80
   2   2   8   10.10    2.60
  -3  -2  -8  210.08   13.90
  -3  -2  -8  234.78   13.80
   3   2   8  250.27   15.90
  -4  -2  -8    2.00    1.70
  -4  -2  -8   10.70    4.90
   4   2   8    4.30    2.20
  -5  -2  -8  573.04   30.70
   5   2   8  562.94   32.30
  -6  -2  -8   52.39    5.00
  -6  -2  -8   55.69    5.00
   6   2   8   59.59    5.90
  -8   3   8  355.26   19.80
  -7   3   8  331.37   20.30
  -7   3   8  297.57   18.00
  -6   3   8  183.38   13.70
  -6   3   8  172.78   11.40
  -5   3   8   14.50    3.90
  -4   3   8  644.04   34.10
  -3   3   8  618.14   32.60
  -2   3   8  726.33   37.90
   1  -3  -8   55.19    4.90
  -1   3   8   61.59    4.90
  -1   3   8   48.20    4.00
   0  -3  -8  291.37   16.80
   0   3   8  297.97   17.00
  -1  -3  -8 1453.05   72.59
  -1  -3  -8 1358.56   72.39
   1   3   8 1458.25   73.69
  -2  -3  -8  478.95   28.30
  -2  -3  -8  545.55   28.40
   2   3   8  549.25   30.10
  -3  -3  -8  217.58   13.00
  -3  -3  -8  179.38   13.00
   3   3   8  231.58   14.90
  -4  -3  -8  909.51   49.20
   4   3   8  977.10   51.09
  -5  -3  -8   66.19    5.80
  -5  -3  -8   74.09    8.30
   5   3   8   89.19    7.60
  -8   4   8  103.79    7.20
  -7   4   8    2.10    1.70
  -7   4   8    1.70    2.30
  -6   4   8  513.15   29.10
  -6   4   8  569.44   32.30
  -5   4   8   62.29    5.20
  -5   4   8   55.39    8.50
  -4   4   8  723.43   38.00
  -3   4   8   26.20    3.30
   2  -4  -8  784.32   42.40
  -2   4   8  847.62   42.40
   1  -4  -8   28.40    3.80
   0  -4  -8  590.34   31.20
   0   4   8  574.94   31.40
  -1  -4  -8  757.42   43.50
  -1  -4  -8  898.11   44.80
   1   4   8  910.41   46.00
  -2  -4  -8  755.02   43.00
   2   4   8  900.61   48.80
  -3  -4  -8   81.69    7.00
   3   4   8   91.89    8.10
  -4  -4  -8   40.70    4.90
   4   4   8   49.80    5.70
  -5  -4  -8  111.49    8.00
   5   4   8  118.99    8.90
  -7   5   8  188.68   14.00
  -6   5   8  114.09    7.90
  -6   5   8  122.19   10.70
  -5   5   8  250.07   14.60
  -4   5   8    2.90    1.60
   3  -5  -8  303.97   17.80
  -3   5   8  320.87   17.50
   2  -5  -8    4.30    2.10
   0  -5  -8   32.60    4.30
   0   5   8   39.30    4.20
  -1  -5  -8  704.83   38.60
  -1  -5  -8  741.13   39.50
   1   5   8  802.82   41.10
  -2  -5  -8   51.09    5.30
   2   5   8   55.89    6.00
  -3  -5  -8  248.98   15.60
   3   5   8  277.47   17.10
  -4  -5  -8   12.70    2.70
   4   5   8   14.50    3.30
   7  -6  -8   89.19    6.50
   6  -6  -8    0.40    1.80
   5  -6  -8  534.55   29.20
   4  -6  -8    5.10    2.10
   3  -6  -8  112.79    8.20
   2  -6  -8  113.69    8.20
   1  -6  -8  144.59    9.60
   0  -6  -8   89.19    6.30
   0  -6  -8   83.79    6.70
   0   6   8   87.69    7.00
   1   6   8  438.06   25.20
  -2  -6  -8  297.37   18.40
   2   6   8  352.66   20.10
  -3  -6  -8   55.49    5.50
   3   6   8   69.79    6.40
   6  -7  -8   33.80    4.30
   5  -7  -8  128.29    8.90
   4  -7  -8   48.40    5.00
   3  -7  -8   56.19    5.30
   2  -7  -8  431.46   23.70
   1  -7  -8   22.40    3.00
   1  -7  -8   15.30    2.90
   0  -7  -8  251.37   15.10
   0  -7  -8  252.57   15.50
   0   7   8  300.37   16.20
  -1  -7  -8   51.69    5.20
   1   7   8   66.79    6.00
  -2  -7  -8  259.87   16.30
   2   7   8  312.97   17.70
   5  -8  -8   80.69    6.60
   4  -8  -8   -1.20    1.90
   3  -8  -8  200.58   14.00
   2  -8  -8    1.70    2.20
   2  -8  -8    0.80    1.50
   1  -8  -8  103.09    7.40
   1  -8  -8  117.39    8.20
   0  -8  -8   45.90    4.30
   0  -8  -8   40.90    3.90
  -1  -9   9  153.58    9.10
  -1  -9   9  148.69    9.70
   0  -9   9    8.40    2.60
   0  -9   9   10.60    2.00
   1  -9   9  942.01   45.50
   1  -9   9  831.42   46.30
   2  -9   9    9.20    2.20
   2  -9   9    7.30    2.80
   3  -9   9  318.67   18.90
  -3  -8   9  188.98   11.60
  -3  -8   9  186.28   10.90
  -2  -8   9  527.55   29.70
  -2  -8   9  572.74   29.20
  -1  -8   9  925.51   51.39
  -1  -8   9 1059.39   50.89
  -1  -8   9 1003.70   52.39
   0  -8   9   14.30    2.30
   0  -8   9   15.10    2.90
   1  -8   9   12.20    3.10
   1  -8   9   14.00    2.20
   2  -8   9  404.26   24.50
   2  -8   9  468.75   23.40
   3  -8   9  118.99    9.10
   4  -8   9  173.58   12.10
  -4  -7   9  328.17   18.00
  -4  -7   9  310.27   18.50
  -4  -7   9  359.46   21.70
  -3  -7   9   -1.00    1.10
  -3  -7   9    0.20    1.40
  -3  -7   9    4.60    2.20
  -2  -7   9  689.23   36.10
  -2  -7   9  617.84   35.40
  -2  -7   9  721.43   35.20
  -1  -7   9   26.40    3.00
  -1  -7   9   26.70    4.00
   0  -7   9  782.72   43.90
   0  -7   9  873.41   43.10
   0  -7   9  864.51   43.70
   1  -7   9    7.40    2.00
  -2   7  -9  803.72   49.20
   2  -7   9  937.91   48.70
   2  -7   9 1011.30   46.90
  -3   7  -9   28.90    4.50
   3  -7   9   38.30    5.10
  -4   7  -9  639.34   34.70
   4  -7   9  565.94   33.70
  -5   7  -9   13.30    2.80
   5  -7   9    8.10    2.60
  -5  -6   9  265.67   15.30
  -5  -6   9  249.68   14.80
  -4  -6   9  483.75   26.90
  -4  -6   9  490.25   26.20
  -4  -6   9  508.75   27.00
  -3  -6   9    0.90    1.40
  -3  -6   9    3.00    1.70
  -3  -6   9   -0.50    1.40
  -2  -6   9    9.30    2.50
  -2  -6   9    6.20    2.10
  -2  -6   9    4.50    1.50
  -2  -6   9    8.10    2.00
  -1  -6   9 1316.47   75.69
  -1  -6   9 1518.05   73.39
  -1  -6   9 1566.64   74.59
  -1  -6   9 1417.56   74.09
   0  -6   9  865.61   44.10
   0  -6   9  885.31   44.20
   0  -6   9  869.81   45.70
   0  -6   9  822.62   44.40
  -1   6  -9  477.65   28.40
   1  -6   9  539.75   29.00
   1  -6   9  563.34   27.50
  -2   6  -9  175.78   11.60
   2  -6   9  181.28   12.10
  -3   6  -9 1252.07   64.49
   3  -6   9 1234.28   65.39
  -4   6  -9   88.59    7.20
   4  -6   9   82.89    8.10
  -5   6  -9  211.08   13.50
   5  -6   9  184.38   13.70
  -6  -5   9   15.10    2.80
  -5  -5   9  679.93   36.40
  -5  -5   9  673.33   35.70
  -4  -5   9    1.90    1.60
  -4  -5   9    3.90    2.30
  -4  -5   9    3.60    1.90
  -3  -5   9 1207.58   62.59
  -3  -5   9 1225.48   63.39
  -3  -5   9 1270.17   63.69
  -2  -5   9    2.20    1.60
  -2  -5   9    4.00    2.00
  -2  -5   9    2.50    1.50
  -1  -5   9 1052.59   57.49
  -1  -5   9 1176.08   57.79
  -1  -5   9 1146.39   56.89
  -1  -5   9 1116.09   57.19
   0  -5   9   31.60    3.50
   0  -5   9   21.60    3.00
   0  -5   9   28.20    2.70
   0  -5   9   29.50    3.10
   1  -5   9 1334.07   68.89
   1  -5   9 1342.07   67.69
   2  -5   9   38.10    4.50
   3  -5   9  385.46   23.10
  -4   5  -9  337.57   20.00
   4  -5   9  337.67   21.20
  -5   5  -9  248.28   15.30
   5  -5   9  234.98   16.30
  -6   5  -9   14.20    3.30
   6  -5   9   20.30    4.40
  -6  -4   9    2.80    2.20
  -6  -4   9   -0.10    2.10
  -5  -4   9   46.90    5.20
  -5  -4   9   45.70    4.60
  -4  -4   9 1477.55   77.49
  -4  -4   9 1565.64   78.09
  -4  -4   9 1514.15   76.69
  -3  -4   9   15.30    3.30
  -3  -4   9   22.40    2.80
  -3  -4   9   19.00    3.20
  -2  -4   9   56.69    4.50
  -2  -4   9   59.59    4.90
  -2  -4   9   62.99    4.60
  -2  -4   9   60.99    5.30
  -1  -4   9  364.56   20.40
  -1  -4   9  381.86   20.40
  -1  -4   9  379.36   20.50
  -1  -4   9  371.56   19.80
   0   4  -9 2624.44  124.19
   0  -4   9 2542.15  125.29
   0  -4   9 2308.77  123.89
   0  -4   9 2308.87  124.09
   0  -4   9 2670.83  124.79
   1  -4   9   70.19    5.10
   1  -4   9   63.09    5.60
   2  -4   9  104.69    8.30
   3  -4   9   10.00    4.00
   4  -4   9 1128.29   60.59
  -5   4  -9    8.70    2.80
   5  -4   9   16.70    4.20
  -6   4  -9  113.99    8.70
   6  -4   9  112.19    9.30
  -7  -3   9    4.00    2.00
  -7  -3   9    2.60    1.60
  -6  -3   9  375.36   21.10
  -6  -3   9  381.66   22.00
  -5  -3   9   76.49    6.70
  -5  -3   9   73.19    6.20
  -4  -3   9 1301.57   65.89
  -4  -3   9 1171.88   64.39
  -3  -3   9  411.86   22.00
  -3  -3   9  406.26   22.90
  -3  -3   9  419.76   23.00
  -2  -3   9 2724.43  137.19
  -2  -3   9 2762.62  137.99
  -2  -3   9 2771.72  138.09
  -1  -3   9  497.05   25.30
  -1  -3   9  459.55   25.10
  -1  -3   9  475.35   24.50
  -1  -3   9  453.85   25.00
   0   3  -9 1727.53   87.49
   0  -3   9 1731.53   88.29
   0  -3   9 1768.92   87.89
  -1   3  -9  139.79    8.30
   1  -3   9  138.39    9.50
   1  -3   9  135.39    8.70
  -2   3  -9  375.46   21.30
   2  -3   9  426.36   23.40
   3  -3   9    3.60    2.20
   4  -3   9 1330.97   70.79
  -5   3  -9  962.20   49.80
   5  -3   9  893.01   50.69
  -6   3  -9  162.88   13.90
   6  -3   9  159.18   13.40
  -7  -2   9  733.43   40.10
  -6  -2   9  102.19    8.30
  -6  -2   9  105.09    7.60
  -5  -2   9    5.50    2.20
  -5  -2   9   12.60    3.00
  -4  -2   9   81.29    6.60
  -4  -2   9   81.69    6.80
  -3  -2   9 2290.37  116.19
  -3  -2   9 2319.57  116.09
  -2  -2   9  515.55   27.40
  -2  -2   9  504.65   27.20
  -1  -2   9   93.49    6.40
  -1  -2   9   97.79    6.50
  -1  -2   9  106.59    6.90
   0   2  -9   65.99    5.10
   0  -2   9   70.19    5.40
   0  -2   9   62.59    5.10
  -1   2  -9 5073.49  249.78
   1  -2   9 4980.90  250.87
   1  -2   9 5035.60  250.07
  -2   2  -9   20.50    2.70
   2  -2   9   18.20    3.70
  -3   2  -9  425.66   22.70
   3  -2   9  428.06   25.50
   4  -2   9   52.49    6.40
   5  -2   9  862.21   47.60
  -6   2  -9  185.08   12.30
   6  -2   9  150.98   12.70
  -7  -1   9  492.25   27.40
  -6  -1   9  707.43   38.40
  -5  -1   9  331.47   19.80
  -5  -1   9  337.97   19.20
  -4  -1   9   27.30    3.90
  -4  -1   9   25.30    3.70
  -3  -1   9  621.34   33.70
  -3  -1   9  647.74   33.80
  -2  -1   9 1318.47   67.19
  -1  -1   9  868.41   43.70
  -1  -1   9  819.32   43.20
   0   1  -9   75.99    5.60
   0  -1   9   71.29    5.50
   0  -1   9   71.59    5.60
  -1   1  -9  310.37   17.20
   1  -1   9  295.87   17.20
   1  -1   9  317.07   18.10
  -2   1  -9 1763.22   86.89
   2  -1   9 1680.73   88.69
  -3   1  -9  105.19    7.00
   3  -1   9   94.69    8.70
  -4   1  -9   21.10    3.20
   4  -1   9   21.50    4.30
  -5   1  -9  760.52   40.60
   5  -1   9  806.72   43.50
  -6   1  -9  942.11   48.80
   6  -1   9  899.11   49.40
  -7   0   9   17.30    3.50
  -6   0   9  285.07   17.30
  -5   0   9   64.79    6.60
  -4   0   9   43.50    4.60
  -3   0   9  121.29    8.30
  -2   0   9 2191.88  110.29
  -1   0   9   31.80    3.70
  -1   0   9   27.10    2.60
   0   0  -9  154.28    9.80
   0   0   9  146.99    9.70
   0   0   9  167.98   10.00
  -1   0  -9   39.40    4.20
   1   0   9   39.60    4.30
   1   0   9   38.70    4.00
  -2   0  -9 1296.27   64.79
   2   0   9 1238.68   66.39
  -3   0  -9  313.37   17.30
   3   0   9  293.97   19.40
  -4   0  -9   14.40    2.60
   4   0   9   13.80    3.70
  -5   0  -9    3.70    1.90
   5   0   9    8.00    3.30
  -6   0  -9  502.75   28.00
   6   0   9  512.95   28.80
  -8   1   9  127.49    8.50
  -7   1   9   25.20    3.60
  -6   1   9  542.95   30.00
  -5   1   9  334.67   21.70
  -4   1   9   46.60    4.80
  -3   1   9  155.68   10.00
  -2   1   9  665.23   35.00
   0  -1  -9   88.99    6.70
   0   1   9   90.09    6.40
   0   1   9   85.89    6.60
  -1  -1  -9   17.70    3.30
   1   1   9   20.70    3.20
  -2  -1  -9  138.39    9.00
   2   1   9  126.89   10.10
  -3  -1  -9 2421.96  119.29
   3   1   9 2314.97  121.49
  -4  -1  -9  286.77   16.80
   4   1   9  291.37   18.80
  -5  -1  -9   89.09    7.80
   5   1   9  100.59    8.40
  -8   2   9   54.89    4.70
  -7   2   9   15.00    3.10
  -6   2   9   36.40    4.40
  -5   2   9  849.81   45.00
  -4   2   9  355.26   20.10
  -3   2   9   69.09    5.60
  -2   2   9  171.68   10.80
   1  -2  -9 1282.57   65.49
   0  -2  -9  142.39    9.40
   0   2   9  142.79    9.20
   0   2   9  142.29    9.40
  -1  -2  -9    4.40    1.80
   1   2   9    9.10    2.60
  -2  -2  -9   27.00    4.30
   2   2   9   27.70    4.20
  -3  -2  -9 1800.12   92.09
   3   2   9 1831.72   94.29
  -4  -2  -9  822.42   44.00
   4   2   9  856.21   46.00
  -5  -2  -9    5.00    2.00
  -5  -2  -9    5.70    1.80
   5   2   9    4.50    2.50
  -7   3   9  348.47   20.40
  -6   3   9   26.80    3.70
  -5   3   9  267.57   15.90
  -4   3   9  881.81   46.00
  -3   3   9  597.84   31.90
  -2   3   9   25.30    3.50
   1  -3  -9    1.30    1.60
  -1   3   9    2.30    1.70
   0  -3  -9  746.83   38.00
   0   3   9  689.53   37.80
  -1  -3  -9    1.20    1.70
   1   3   9    0.40    1.70
  -2  -3  -9    0.40    1.60
   2   3   9   -1.60    1.80
  -3  -3  -9   21.00    3.80
   3   3   9   13.30    3.30
  -4  -3  -9  265.67   16.60
   4   3   9  304.37   18.30
  -7   4   9    7.20    2.60
  -6   4   9    1.90    1.80
  -5   4   9   75.59    6.20
  -4   4   9  517.35   28.20
  -3   4   9  553.74   29.70
   2  -4  -9   18.70    3.40
  -2   4   9   12.10    2.50
   1  -4  -9   50.59    5.10
   0  -4  -9  900.31   47.20
   0   4   9  898.31   46.90
  -1  -4  -9  245.38   15.10
   1   4   9  261.37   15.90
  -2  -4  -9    3.80    1.90
   2   4   9    3.10    1.90
  -3  -4  -9   37.10    4.50
   3   4   9   43.70    5.40
  -4  -4  -9  839.92   45.70
   4   4   9  916.61   47.30
  -6   5   9    7.10    2.40
  -5   5   9   13.60    2.80
   4  -5  -9    1.80    1.70
  -4   5   9    0.70    1.80
   3  -5  -9  722.33   38.30
   2  -5  -9    6.20    2.00
   1  -5  -9   59.59    5.60
   0  -5  -9    0.60    1.50
   0  -5  -9   -0.30    1.70
   0   5   9    3.10    1.80
  -1  -5  -9  407.36   23.40
   1   5   9  439.56   24.40
   2   5   9   10.10    3.00
  -3  -5  -9   59.09    5.70
   3   5   9   77.89    6.80
   6  -6  -9  135.09    9.40
   5  -6  -9    5.30    2.30
   4  -6  -9   25.60    4.00
   3  -6  -9  440.06   24.40
   2  -6  -9  383.26   21.50
   1  -6  -9    0.70    1.70
   0  -6  -9   61.39    5.50
   0  -6  -9   57.59    4.80
  -1  -6  -9   13.20    2.60
   1   6   9   20.40    3.60
  -2  -6  -9  135.59    9.50
   2   6   9  160.78   10.70
   5  -7  -9   68.29    5.90
   4  -7  -9   19.40    4.00
   3  -7  -9  162.78   10.60
   2  -7  -9  784.42   41.10
   1  -7  -9   63.99    5.10
   1  -7  -9   62.59    5.50
   0  -7  -9   39.30    4.30
  -1  -7  -9   28.20    3.50
   3  -8  -9    5.20    1.90
   3  -8  -9    2.30    1.40
   2  -8  -9  126.39    8.50
   2  -8  -9  139.39    8.70
  -1  -8  10   16.30    2.80
  -1  -8  10   15.30    3.30
   0  -8  10  158.88    8.80
   0  -8  10  128.49    9.20
   1  -8  10  385.76   23.40
   1  -8  10  458.65   23.20
   2  -8  10  864.51   45.70
   3  -8  10    3.50    1.90
  -3  -7  10   15.40    2.90
  -3  -7  10   15.10    2.60
  -2  -7  10 1194.48   61.79
  -2  -7  10 1213.18   61.09
  -1  -7  10   79.99    5.40
  -1  -7  10   60.69    5.60
   0  -7  10    3.90    1.70
   0  -7  10    1.30    1.90
   1  -7  10  146.09    9.90
   2  -7  10 1014.90   53.29
  -3   7 -10  302.07   17.50
   3  -7  10  303.47   20.50
  -4   7 -10  157.28   10.20
   4  -7  10  151.98   11.10
  -4  -6  10  121.89    7.80
  -4  -6  10  106.19    7.60
  -3  -6  10  281.97   16.00
  -3  -6  10  267.37   15.20
  -2  -6  10   44.60    4.70
  -2  -6  10   56.99    5.30
  -2  -6  10   61.19    4.80
  -2  -6  10   62.89    4.60
  -1  -6  10  686.03   35.70
  -1  -6  10  714.33   35.40
  -1  -6  10  606.14   35.50
  -1  -6  10  714.73   35.20
   0  -6  10   21.80    2.70
   0  -6  10   18.20    2.80
   0  -6  10   19.20    3.20
  -1   6 -10  262.77   17.10
   1  -6  10  332.97   17.80
  -2   6 -10  195.38   12.60
   2  -6  10  191.48   12.80
  -3   6 -10 1228.28   63.09
   3  -6  10 1202.78   63.89
  -4   6 -10    8.90    2.40
   4  -6  10   13.10    4.70
  -5  -5  10  780.02   40.90
  -5  -5  10  767.22   40.30
  -4  -5  10    4.20    1.80
  -4  -5  10    1.20    1.50
  -3  -5  10   29.30    3.50
  -3  -5  10   25.10    3.00
  -3  -5  10   27.40    3.20
  -2  -5  10  360.36   20.60
  -2  -5  10  375.96   20.40
  -2  -5  10  369.16   19.80
  -1  -5  10 1307.67   62.49
  -1  -5  10 1150.98   62.49
  -1  -5  10 1240.38   61.99
  -1  -5  10 1199.48   62.29
   0  -5  10  314.07   17.00
   0  -5  10  296.77   17.50
   1  -5  10   11.90    3.00
   2  -5  10  541.45   30.20
  -3   5 -10  714.13   39.00
   3  -5  10  733.23   40.00
  -4   5 -10  831.12   42.70
   4  -5  10  761.42   43.70
  -5   5 -10   92.69    7.20
   5  -5  10   85.49    8.10
  -5  -4  10    8.70    2.30
  -4  -4  10  905.21   46.40
  -4  -4  10  855.41   45.90
  -3  -4  10   83.99    5.80
  -3  -4  10   85.09    6.70
  -3  -4  10   87.49    6.60
  -2  -4  10  303.27   17.10
  -2  -4  10  297.27   17.10
  -1  -4  10  176.38   10.90
  -1  -4  10  189.28   13.30
  -1  -4  10  180.38   10.70
   0  -4  10 1107.99   58.69
   0  -4  10 1174.98   58.49
   2  -4  10  532.25   29.90
   3  -4  10   43.30    5.50
  -4   4 -10 1078.49   55.89
   4  -4  10 1040.30   56.99
  -5   4 -10  135.39    9.60
   5  -4  10  113.99   10.00
  -6  -3  10    4.90    2.00
  -6  -3  10    5.80    2.00
  -5  -3  10  225.68   13.90
  -5  -3  10  209.18   13.10
  -4  -3  10 1086.69   56.99
  -4  -3  10 1118.59   57.49
  -3  -3  10  218.68   13.30
  -3  -3  10  219.88   13.50
  -2  -3  10  235.28   13.90
  -2  -3  10  230.08   13.70
  -1  -3  10 2406.36  114.99
  -1  -3  10 2160.98  114.39
   0   3 -10    8.30    1.90
   0  -3  10    5.40    2.00
   0  -3  10   11.60    2.50
  -1   3 -10   31.00    3.30
   1  -3  10   30.30    3.40
   1  -3  10   30.10    3.80
   2  -3  10   43.00    5.10
   3  -3  10  837.92   45.80
   4  -3  10   82.39    8.10
  -5   3 -10  364.36   24.60
  -6  -2  10   83.49    7.00
  -5  -2  10   75.49    6.30
  -5  -2  10   60.39    5.70
  -4  -2  10   14.70    3.10
  -4  -2  10   10.60    2.70
  -3  -2  10  836.42   39.70
  -3  -2  10  652.43   40.80
  -2  -2  10   19.90    3.10
  -1  -2  10  389.36   21.00
   0   2 -10   21.30    3.10
   0  -2  10   22.30    3.10
   0  -2  10   19.10    3.10
  -1   2 -10 3225.78  153.38
   1  -2  10 2949.70  153.58
   1  -2  10 3036.90  154.38
  -2   2 -10  259.87   14.40
   2  -2  10  250.47   19.30
   3  -2  10  682.83   38.30
   4  -2  10   55.99    6.70
  -5   2 -10  362.96   23.80
   5  -2  10  295.77   23.40
  -7  -1  10  198.18   12.40
  -6  -1  10   77.09    6.70
  -5  -1  10    5.40    2.40
  -4  -1  10  645.54   34.90
  -3  -1  10  350.26   19.90
  -2  -1  10  113.19    7.90
   0   1 -10 3100.89  146.49
   0  -1  10 2805.22  146.49
   0  -1  10 2867.01  146.49
  -1   1 -10  101.99    7.50
   1  -1  10  110.19    8.10
  -2   1 -10  362.86   20.10
  -3   1 -10    6.70    2.10
   3  -1  10   12.70    3.80
  -4   1 -10  836.92   43.40
   4  -1  10  847.82   46.40
  -5   1 -10   13.70    3.30
   5  -1  10    8.30    2.40
  -7   0  10   20.90    3.30
  -6   0  10  515.25   28.60
  -5   0  10  103.99    8.10
  -4   0  10  319.47   18.70
  -3   0  10  254.27   15.10
  -2   0  10 1454.35   74.29
   0   0 -10  221.58   12.60
   0   0  10  196.48   12.50
   0   0  10  199.08   12.20
  -1   0 -10  381.66   21.20
   1   0  10  381.96   21.90
  -2   0 -10  840.02   43.60
   2   0  10  830.12   45.10
  -3   0 -10   56.29    5.00
   3   0  10   50.59    6.10
  -4   0 -10   13.80    2.60
   4   0  10   18.60    4.10
  -5   0 -10   75.29    7.10
   5   0  10   91.59    7.70
  -7   1  10  478.75   26.30
  -6   1  10    2.90    2.00
  -5   1  10  271.57   16.40
  -4   1  10   35.00    4.10
  -3   1  10  312.67   18.10
  -2   1  10  109.09    7.80
   1  -1 -10  398.66   22.00
  -1   1  10  397.16   22.10
   0  -1 -10    4.90    1.90
   0   1  10   10.90    2.70
   0   1  10    8.70    2.20
  -1  -1 -10  971.00   61.09
   1   1  10 1329.17   60.49
  -2  -1 -10    2.50    1.70
   2   1  10    3.20    2.50
  -3  -1 -10  255.47   14.80
   3   1  10  243.38   16.50
  -4  -1 -10   18.60    3.70
   4   1  10   25.30    4.20
  -7   2  10   84.09    6.50
  -6   2  10   28.00    3.90
  -5   2  10  449.36   25.00
  -4   2  10    0.30    1.20
  -3   2  10  293.07   18.60
  -2   2  10  566.24   30.50
   1  -2 -10  597.04   31.80
  -1   2  10  588.54   31.80
   0  -2 -10  307.87   18.90
   0   2  10  244.68   15.40
  -1  -2 -10  427.06   22.90
   1   2  10  390.96   23.20
  -2  -2 -10  658.63   35.70
   2   2  10  689.13   37.20
  -3  -2 -10    7.90    2.50
   3   2  10    8.60    3.00
  -4  -2 -10    7.30    1.90
   4   2  10   13.20    3.60
  -7   3  10  355.76   19.80
  -6   3  10  799.72   42.10
  -5   3  10   48.60    4.90
  -4   3  10  115.89    8.40
  -3   3  10    1.20    1.50
   2  -3 -10  540.05   29.70
  -2   3  10  556.74   29.70
   1  -3 -10   21.80    3.70
  -1  -3 -10   99.79    7.40
   1   3  10   88.09    7.30
  -2  -3 -10  351.26   20.60
   2   3  10  379.66   21.80
  -3  -3 -10    3.20    1.60
   3   3  10    7.10    3.40
  -6   4  10   18.50    3.00
  -5   4  10   76.49    6.10
  -4   4  10  323.57   18.50
   3  -4 -10   24.50    3.90
  -3   4  10   27.40    3.70
   2  -4 -10  129.99    9.10
   1  -4 -10  684.03   36.40
   0  -4 -10   13.20    2.70
  -1  -4 -10    6.40    2.40
   1   4  10    3.40    2.20
  -2  -4 -10   51.29    5.10
   2   4  10   54.19    6.30
  -3  -4 -10  179.78   12.00
   3   4  10  216.68   13.40
   6  -5 -10    6.20    2.20
   5  -5 -10  309.37   17.10
  -5   5  10  254.27   15.90
   4  -5 -10   48.50    5.30
   3  -5 -10   71.89    6.30
   2  -5 -10    2.80    1.80
   1  -5 -10  182.88   11.60
   0  -5 -10    1.90    1.90
  -1  -5 -10  108.19    8.00
   1   5  10  119.79    9.00
  -2  -5 -10   19.00    3.20
   2   5  10   25.80    4.00
   5  -6 -10   92.99    7.40
   4  -6 -10  218.48   14.30
   3  -6 -10   -0.10    1.70
   2  -6 -10   28.20    3.90
   1  -6 -10   11.70    2.30
   1  -6 -10    9.50    2.40
   0  -6 -10  568.14   30.40
   3  -7 -10  180.88   11.30
   2  -7 -10   17.20    2.90
   2  -7 -10   23.30    3.20
  -1  -7  11   37.50    4.90
   0  -7  11  674.93   35.50
   1  -7  11  777.82   40.90
   2  -7  11   32.00    4.00
  -3  -6  11 1042.40   56.29
  -3  -6  11 1157.48   56.39
  -2  -6  11   28.20    3.40
  -2  -6  11   21.40    3.00
  -2  -6  11   28.40    3.60
  -1  -6  11   39.50    3.70
  -1  -6  11   34.90    3.90
   0  -6  11   40.60    5.10
   1  -6  11  667.43   36.20
  -2   6 -11  152.28   10.10
   2  -6  11  149.69   11.10
  -3   6 -11   14.40    3.40
   3  -6  11   14.50    3.10
  -4  -5  11   32.30    3.60
  -4  -5  11   37.30    3.80
  -3  -5  11  226.28   13.70
  -3  -5  11  205.08   12.90
  -2  -5  11  737.83   37.50
  -2  -5  11  689.93   37.20
  -1  -5  11  262.67   14.10
  -1  -5  11  225.88   13.90
   0  -5  11   -1.60    1.40
   0  -5  11   -0.60    1.20
   1  -5  11  227.38   13.90
   2  -5  11  779.52   41.80
  -3   5 -11    9.00    2.60
   3  -5  11    5.90    3.10
  -4   5 -11   76.49    6.40
   4  -5  11   77.29    7.00
  -4  -4  11    2.20    2.40
  -3  -4  11  140.99    9.30
  -3  -4  11  135.09    9.00
  -2  -4  11 1347.87   68.89
  -1  -4  11    5.90    1.90
  -1  -4  11    1.30    1.70
   0  -4  11  270.27   14.90
   0  -4  11  244.08   14.80
   1  -4  11   30.80    3.60
   2  -4  11  993.30   52.49
   3  -4  11  456.65   26.50
  -4   4 -11   16.50    3.50
   4  -4  11   17.70    4.10
  -5  -3  11  575.94   31.40
  -4  -3  11  179.18   11.60
  -3  -3  11    2.90    1.80
  -2  -3  11   79.09    6.20
   1   3 -11  631.94   33.00
  -1  -3  11  633.04   33.50
   0   3 -11   87.29    6.00
   0  -3  11   72.59    6.10
   0  -3  11   88.69    6.30
   1  -3  11   14.80    2.90
   2  -3  11    4.80    2.00
   3  -3  11  715.93   39.50
   4  -3  11   12.10    3.20
  -5  -2  11  757.42   40.50
  -4  -2  11  403.86   22.90
  -3  -2  11    1.00    1.40
  -2  -2  11   64.39    5.60
   1   2 -11 1329.87   66.49
  -1  -2  11 1279.27   66.69
   0   2 -11  615.54   30.60
   0  -2  11  577.84   30.80
   0  -2  11  538.05   30.60
  -1   2 -11   27.00    3.20
   1  -2  11   20.80    3.40
   2  -2  11  188.78   12.70
   3  -2  11  365.06   22.10
   4  -2  11  239.08   15.80
  -6  -1  11   49.20    4.90
  -5  -1  11   28.90    4.00
  -4  -1  11  806.52   42.70
  -3  -1  11  229.48   14.00
  -2  -1  11   39.00    4.40
   1   1 -11  145.79    9.50
  -1  -1  11  145.39    9.70
   0   1 -11  524.75   26.60
   0  -1  11  483.65   26.60
   0  -1  11  463.75   26.30
  -1   1 -11    6.30    2.10
   1  -1  11    9.40    2.40
  -2   1 -11  129.09    8.60
   2  -1  11  141.79   10.00
   3  -1  11   17.30    3.80
   4  -1  11  944.51   50.79
  -6   0  11    0.70    1.40
  -5   0  11   82.49    6.70
  -4   0  11  531.95   29.20
  -3   0  11  164.58   10.80
  -2   0  11    3.00    2.00
   1   0 -11  232.28   13.80
  -1   0  11  227.88   13.90
   0   0 -11 1252.67   62.29
   0   0  11 1173.28   62.29
  -1   0 -11  772.62   39.40
   1   0  11  728.03   39.80
  -2   0 -11    4.20    1.90
   2   0  11    7.30    2.60
  -3   0 -11  455.25   25.40
   3   0  11  427.96   25.80
   4   0  11   98.49    8.30
  -6   1  11    5.20    1.70
  -5   1  11   57.59    5.50
  -4   1  11   17.30    3.30
  -3   1  11 1022.40   53.09
   2  -1 -11    5.30    2.10
  -2   1  11    1.70    1.70
   1  -1 -11   93.29    7.20
  -1   1  11   97.19    7.30
   0  -1 -11  294.87   17.10
  -1  -1 -11  544.05   29.00
   1   1  11  530.95   29.40
  -2  -1 -11  123.09    8.50
   2   1  11  130.89    9.60
  -3  -1 -11   11.60    2.40
   3   1  11   14.20    3.80
  -6   2  11   21.30    3.10
  -5   2  11    0.60    1.50
  -4   2  11  275.77   16.30
  -3   2  11   99.09    7.50
   2  -2 -11  337.37   19.40
  -2   2  11  343.37   19.50
   1  -2 -11    4.90    2.00
   0  -2 -11  318.07   18.20
  -1  -2 -11    6.50    2.10
   1   2  11    9.80    2.80
  -2  -2 -11  387.56   23.60
   2   2  11  490.95   28.30
  -3  -2 -11   19.10    3.00
  -6   3  11  131.79    8.70
  -5   3  11   28.10    4.00
  -4   3  11  138.09    9.30
   3  -3 -11   46.10    5.00
  -3   3  11   49.10    5.00
   2  -3 -11  488.55   26.60
  -2   3  11  479.05   26.50
   1  -3 -11   78.79    6.60
  -1  -3 -11  116.09    8.40
   1   3  11  127.69   11.00
  -2  -3 -11  423.96   24.20
   2   3  11  461.95   25.00
   5  -4 -11  262.47   14.70
  -5   4  11  206.58   13.60
   4  -4 -11   79.19    6.60
  -4   4  11   68.69    6.00
   3  -4 -11  400.36   22.50
   2  -4 -11   10.00    2.60
   1  -4 -11  152.98   10.10
   0  -4 -11   39.90    4.50
  -1  -4 -11  136.09    9.10
   4  -5 -11    6.20    2.30
   3  -5 -11    1.90    1.70
   2  -5 -11  121.79    8.90
   1  -5 -11   47.90    4.70
   0  -5 -11   22.80    3.40
  -2  -5  12  200.18   11.80
  -1  -5  12   11.60    2.10
   0  -5  12  665.43   35.20
  -1   5 -12    3.90    2.80
   1  -5  12    4.50    1.90
  -2   5 -12  354.86   19.80
   2  -5  12  332.17   19.60
  -3  -4  12  253.57   14.90
  -2  -4  12  161.28   10.30
  -1  -4  12    3.20    1.80
   0  -4  12  215.08   13.00
   1  -4  12  297.97   17.10
   2  -4  12  358.36   20.50
  -4  -3  12   15.20    2.80
   2   3 -12    3.00    1.90
  -2  -3  12    2.30    1.80
  -1  -3  12  302.37   17.20
   1  -3  12  637.54   34.90
   2  -3  12   15.90    3.40
   3  -3  12  296.37   17.90
  -4  -2  12   28.30    3.70
  -3  -2  12   52.09    5.00
   2   2 -12 1171.28   59.29
  -2  -2  12 1145.59   59.59
   1   2 -12   21.70    3.40
  -1  -2  12   25.90    3.50
   0   2 -12  107.49    7.10
   2  -2  12  296.37   17.60
   3  -2  12   43.50    4.80
  -5  -1  12   -0.30    1.60
  -4  -1  12  148.19   12.00
  -3  -1  12   59.29    5.40
   2   1 -12 1290.07   66.09
  -2  -1  12 1297.27   66.39
   1   1 -12  641.74   33.60
  -1  -1  12  632.34   33.90
   0   1 -12   19.00    3.10
  -1   1 -12   18.50    4.00
   1  -1  12   25.10    4.60
   2  -1  12  598.24   32.50
   3  -1  12  253.07   15.60
  -5   0  12  138.39    9.50
  -4   0  12   73.89    6.30
  -3   0  12    1.30    1.70
   2   0 -12   57.69    5.20
  -2   0  12   54.19    5.30
   1   0 -12  311.87   17.20
  -1   0  12  286.27   17.20
   0   0 -12  289.67   16.50
   1   0  12   71.99    6.50
  -2   0 -12  126.29    8.50
   2   0  12  136.89    9.30
  -5   1  12  230.78   14.00
   3  -1 -12   11.60    2.30
  -3   1  12   14.40    2.90
   2  -1 -12   25.30    3.60
  -2   1  12   19.20    3.40
   1  -1 -12 1031.90   53.29
   0  -1 -12  422.46   23.20
  -1  -1 -12   20.00    3.40
  -2  -1 -12   28.50    3.60
   2   1  12   30.10    4.10
  -4   2  12  278.67   16.30
   3  -2 -12   28.30    3.80
  -3   2  12   20.30    3.60
   2  -2 -12    9.80    2.40
  -2   2  12   15.00    3.10
   1  -2 -12    2.40    1.80
  -1  -2 -12    6.10    1.80
   4  -3 -12   53.29    5.00
  -4   3  12   37.20    4.40
   3  -3 -12   69.79    6.00
   2  -3 -12   33.30    4.70
   1  -3 -12    5.30    1.90
   0  -3 -12  153.38    9.90
   3  -4 -12  250.27   14.80
   2  -4 -12    1.80    1.40
   2   2 -13  104.49    7.60
  -2  -2  13   96.79    7.20
   2   1 -13   84.49    6.10
  -2  -1  13   78.09    6.30
   1   1 -13    2.80    1.70
   0   1 -13   17.40    3.10
   3   0 -13  168.58   10.50
  -3   0  13  168.18   10.80
   2   0 -13   18.30    3.10
  -2   0  13   17.30    3.10
   1   0 -13  325.77   18.10
   0   0 -13   71.39    5.50
   2  -1 -13   39.40    4.00
   1  -1 -13   18.20    3.00
   0   0   0    0.00    0.00

_computing_structure_solution     'SHELXT 2014/5 (Sheldrick, 2014)'
;
_shelx_hkl_checksum              70557
_olex2_submission_special_instructions 'No special instructions were received'
loop_
_space_group_symop_operation_xyz
'x, y, z'
'-x, -y, -z'
loop_
_atom_site_label
_atom_site_type_symbol
_atom_site_fract_x
_atom_site_fract_y
_atom_site_fract_z
_atom_site_U_iso_or_equiv
_atom_site_adp_type
_atom_site_occupancy
_atom_site_site_symmetry_order
_atom_site_calc_flag
_atom_site_refinement_flags_posn
Br1 Br 0.86538(4) 0.79431(3) 0.07613(3) 0.04588(12) Uani 1 1 d .
Br2 Br 0.61724(3) -0.08605(3) 0.80681(2) 0.03703(11) Uani 1 1 d .
O1 O 0.7935(2) 0.33838(19) 0.54338(17) 0.0374(4) Uani 1 1 d .
N1 N 0.3585(2) 0.4548(2) 0.25494(19) 0.0308(4) Uani 1 1 d .
N2 N 0.5653(2) 0.3718(2) 0.42042(18) 0.0298(4) Uani 1 1 d .
H2 H 0.453462 0.347995 0.408137 0.036 Uiso 1 1 calc R
N3 N 0.2138(3) -0.1308(2) 0.7285(2) 0.0352(5) Uani 1 1 d .
C1 C 0.2517(3) 0.4963(3) 0.1758(2) 0.0352(5) Uani 1 1 d .
H1 H 0.133652 0.457485 0.175397 0.042 Uiso 1 1 calc R
C2 C 0.3009(3) 0.5941(3) 0.0919(2) 0.0387(6) Uani 1 1 d .
H2A H 0.217891 0.620989 0.037366 0.046 Uiso 1 1 calc R
C3 C 0.4701(3) 0.6502(3) 0.0897(2) 0.0350(5) Uani 1 1 d .
H3 H 0.506062 0.715877 0.032788 0.042 Uiso 1 1 calc R
C4 C 0.5911(3) 0.6098(2) 0.1729(2) 0.0288(5) Uani 1 1 d .
C5 C 0.7706(3) 0.6611(2) 0.1827(2) 0.0318(5) Uani 1 1 d .
C6 C 0.8773(3) 0.6200(3) 0.2683(2) 0.0339(5) Uani 1 1 d .
H6 H 0.996452 0.657280 0.272879 0.041 Uiso 1 1 calc R
C7 C 0.8152(3) 0.5232(3) 0.3504(2) 0.0323(5) Uani 1 1 d .
H7 H 0.892184 0.495704 0.409734 0.039 Uiso 1 1 calc R
C8 C 0.6428(3) 0.4681(2) 0.3450(2) 0.0283(5) Uani 1 1 d .
C9 C 0.5283(3) 0.5112(2) 0.2553(2) 0.0269(4) Uani 1 1 d .
C10 C 0.6404(3) 0.3094(2) 0.5113(2) 0.0287(5) Uani 1 1 d .
C11 C 0.5218(3) 0.2008(2) 0.5693(2) 0.0272(4) Uani 1 1 d .
C12 C 0.3451(3) 0.1685(2) 0.5446(2) 0.0298(5) Uani 1 1 d .
H12 H 0.291813 0.219690 0.488977 0.036 Uiso 1 1 calc R
C13 C 0.2469(3) 0.0634(3) 0.6001(2) 0.0308(5) Uani 1 1 d .
H13 H 0.126777 0.044768 0.581949 0.037 Uiso 1 1 calc R
C14 C 0.3167(3) -0.0180(2) 0.6825(2) 0.0285(5) Uani 1 1 d .
C15 C 0.4952(3) 0.0180(2) 0.7068(2) 0.0284(5) Uani 1 1 d .
C16 C 0.5945(3) 0.1242(2) 0.6528(2) 0.0280(5) Uani 1 1 d .
H16 H 0.714616 0.145680 0.672856 0.034 Uiso 1 1 calc R
C17 C 0.2302(4) -0.1447(4) 0.8616(3) 0.0519(7) Uani 1 1 d .
H17A H 0.336748 -0.080906 0.903613 0.078 Uiso 1 1 calc GR
H17B H 0.230571 -0.242222 0.874277 0.078 Uiso 1 1 calc GR
H17C H 0.134315 -0.120254 0.896510 0.078 Uiso 1 1 calc GR
C18 C 0.0387(3) -0.1833(3) 0.6672(3) 0.0438(6) Uani 1 1 d .
H18A H -0.028352 -0.118013 0.692388 0.066 Uiso 1 1 calc GR
H18B H -0.009890 -0.276629 0.691569 0.066 Uiso 1 1 calc GR
H18C H 0.036912 -0.190327 0.576423 0.066 Uiso 1 1 calc GR
loop_
_atom_site_aniso_label
_atom_site_aniso_U_11
_atom_site_aniso_U_22
_atom_site_aniso_U_33
_atom_site_aniso_U_23
_atom_site_aniso_U_13
_atom_site_aniso_U_12
Br1 0.03910(18) 0.05292(19) 0.04477(19) 0.02150(13) 0.00989(13) 0.00260(13)
Br2 0.03351(16) 0.03971(16) 0.03814(17) 0.01318(11) -0.00438(11) 0.01115(11)
O1 0.0224(8) 0.0478(10) 0.0402(10) 0.0152(8) -0.0021(7) 0.0048(7)
N1 0.0244(9) 0.0323(10) 0.0349(11) 0.0055(8) 0.0009(8) 0.0063(8)
N2 0.0217(9) 0.0340(10) 0.0332(10) 0.0112(8) 0.0005(8) 0.0050(7)
N3 0.0284(10) 0.0408(11) 0.0377(11) 0.0133(9) 0.0068(8) 0.0070(8)
C1 0.0238(11) 0.0386(12) 0.0417(14) 0.0072(10) -0.0015(10) 0.0069(9)
C2 0.0317(13) 0.0458(14) 0.0395(14) 0.0127(11) -0.0026(10) 0.0122(10)
C3 0.0371(13) 0.0379(12) 0.0303(12) 0.0099(10) 0.0023(10) 0.0089(10)
C4 0.0294(11) 0.0305(11) 0.0261(11) 0.0029(9) 0.0025(9) 0.0076(9)
C5 0.0283(12) 0.0338(11) 0.0322(12) 0.0056(9) 0.0060(9) 0.0040(9)
C6 0.0245(11) 0.0381(12) 0.0378(13) 0.0053(10) 0.0045(10) 0.0045(9)
C7 0.0243(11) 0.0358(12) 0.0355(13) 0.0081(10) -0.0014(9) 0.0062(9)
C8 0.0267(11) 0.0286(11) 0.0292(11) 0.0044(9) 0.0015(9) 0.0066(9)
C9 0.0242(11) 0.0266(10) 0.0291(11) 0.0027(8) 0.0002(9) 0.0067(8)
C10 0.0256(11) 0.0321(11) 0.0279(11) 0.0044(9) 0.0002(9) 0.0076(9)
C11 0.0247(11) 0.0301(11) 0.0259(11) 0.0026(8) -0.0003(8) 0.0073(9)
C12 0.0258(11) 0.0360(12) 0.0293(12) 0.0075(9) 0.0012(9) 0.0111(9)
C13 0.0213(10) 0.0385(12) 0.0339(12) 0.0087(10) 0.0019(9) 0.0092(9)
C14 0.0277(11) 0.0314(11) 0.0279(11) 0.0050(9) 0.0059(9) 0.0090(9)
C15 0.0291(11) 0.0322(11) 0.0241(11) 0.0038(9) -0.0015(9) 0.0106(9)
C16 0.0221(10) 0.0319(11) 0.0282(11) 0.0024(9) -0.0023(8) 0.0061(8)
C17 0.0547(18) 0.0630(18) 0.0440(16) 0.0258(14) 0.0164(14) 0.0149(14)
C18 0.0251(12) 0.0482(15) 0.0593(18) 0.0191(13) 0.0087(12) 0.0060(11)
loop_
_atom_type_symbol
_atom_type_description
_atom_type_scat_dispersion_real
_atom_type_scat_dispersion_imag
_atom_type_scat_source
C C 0.0148 0.0070 'International Tables Vol C Tables 4.2.6.8 and 6.1.1.4'
H H 0.0000 0.0000 'International Tables Vol C Tables 4.2.6.8 and 6.1.1.4'
Br Br -0.9502 1.0410 'International Tables Vol C Tables 4.2.6.8 and 6.1.1.4'
N N 0.0253 0.0136 'International Tables Vol C Tables 4.2.6.8 and 6.1.1.4'
O O 0.0412 0.0250 'International Tables Vol C Tables 4.2.6.8 and 6.1.1.4'
loop_
_geom_angle_atom_site_label_1
_geom_angle_atom_site_label_2
_geom_angle_atom_site_label_3
_geom_angle
C1 N1 C9 117.7(2)
C8 N2 H2 115.8
C10 N2 H2 115.8
C10 N2 C8 128.33(19)
C14 N3 C17 120.9(2)
C14 N3 C18 117.6(2)
C17 N3 C18 112.4(2)
N1 C1 H1 117.9
N1 C1 C2 124.2(2)
C2 C1 H1 117.9
C1 C2 H2A 120.5
C3 C2 C1 119.0(2)
C3 C2 H2A 120.5
C2 C3 H3 120.3
C2 C3 C4 119.4(2)
C4 C3 H3 120.3
C3 C4 C5 125.6(2)
C3 C4 C9 117.3(2)
C9 C4 C5 117.1(2)
C4 C5 Br1 119.82(18)
C6 C5 Br1 118.54(18)
C6 C5 C4 121.6(2)
C5 C6 H6 119.4
C5 C6 C7 121.2(2)
C7 C6 H6 119.4
C6 C7 H7 119.9
C8 C7 C6 120.1(2)
C8 C7 H7 119.9
N2 C8 C9 114.9(2)
C7 C8 N2 125.8(2)
C7 C8 C9 119.3(2)
N1 C9 C4 122.5(2)
N1 C9 C8 116.9(2)
C4 C9 C8 120.6(2)
O1 C10 N2 123.0(2)
O1 C10 C11 121.5(2)
N2 C10 C11 115.49(19)
C12 C11 C10 125.1(2)
C12 C11 C16 117.7(2)
C16 C11 C10 117.2(2)
C11 C12 H12 119.7
C13 C12 C11 120.7(2)
C13 C12 H12 119.7
C12 C13 H13 118.5
C12 C13 C14 122.9(2)
C14 C13 H13 118.5
N3 C14 C13 121.1(2)
N3 C14 C15 123.6(2)
C15 C14 C13 115.1(2)
C14 C15 Br2 122.28(17)
C16 C15 Br2 115.18(16)
C16 C15 C14 122.4(2)
C11 C16 H16 119.4
C15 C16 C11 121.2(2)
C15 C16 H16 119.4
N3 C17 H17A 109.5
N3 C17 H17B 109.5
N3 C17 H17C 109.5
H17A C17 H17B 109.5
H17A C17 H17C 109.5
H17B C17 H17C 109.5
N3 C18 H18A 109.5
N3 C18 H18B 109.5
N3 C18 H18C 109.5
H18A C18 H18B 109.5
H18A C18 H18C 109.5
H18B C18 H18C 109.5
loop_
_geom_bond_atom_site_label_1
_geom_bond_atom_site_label_2
_geom_bond_distance
Br1 C5 1.904(2)
Br2 C15 1.910(2)
O1 C10 1.219(3)
N1 C1 1.313(3)
N1 C9 1.367(3)
N2 H2 0.8800
N2 C8 1.389(3)
N2 C10 1.368(3)
N3 C14 1.389(3)
N3 C17 1.457(4)
N3 C18 1.460(3)
C1 H1 0.9500
C1 C2 1.400(4)
C2 H2A 0.9500
C2 C3 1.367(4)
C3 H3 0.9500
C3 C4 1.413(3)
C4 C5 1.424(3)
C4 C9 1.420(3)
C5 C6 1.355(4)
C6 H6 0.9500
C6 C7 1.404(3)
C7 H7 0.9500
C7 C8 1.378(3)
C8 C9 1.434(3)
C10 C11 1.495(3)
C11 C12 1.394(3)
C11 C16 1.395(3)
C12 H12 0.9500
C12 C13 1.376(3)
C13 H13 0.9500
C13 C14 1.409(3)
C14 C15 1.407(3)
C15 C16 1.379(3)
C16 H16 0.9500
C17 H17A 0.9800
C17 H17B 0.9800
C17 H17C 0.9800
C18 H18A 0.9800
C18 H18B 0.9800
C18 H18C 0.9800
