#------------------------------------------------------------------------------
#$Date: 2019-12-20 02:20:56 +0200 (Fri, 20 Dec 2019) $
#$Revision: 245413 $
#$URL: file:///home/coder/svn-repositories/cod/cif/4/03/77/4037714.cif $
#------------------------------------------------------------------------------
#
# This file is available in the Crystallography Open Database (COD),
# http://www.crystallography.net/
#
# All data on this site have been placed in the public domain by the
# contributors.
#
data_4037714
loop_
_publ_author_name
'Kotha, Sambasivarao'
'Keesari, Ramakrishna Reddy'
'Fatma, Ambareen'
'Gunta, Rama'
_publ_section_title
;
 Synthetic Strategies to Diverse Polyquinanes via Olefin Metathesis:
 Access to the Basic Core of Crinipellin, Presilphiperfolanol and Cucumin.
;
_journal_name_full               'The Journal of organic chemistry'
_journal_paper_doi               10.1021/acs.joc.9b02829
_journal_year                    2019
_chemical_absolute_configuration unk
_chemical_formula_moiety         'C18 H20 O'
_chemical_formula_sum            'C18 H20 O'
_chemical_formula_weight         252.34
_space_group_crystal_system      monoclinic
_space_group_IT_number           4
_space_group_name_Hall           'P 2yb'
_space_group_name_H-M_alt        'P 1 21 1'
_atom_sites_solution_hydrogens   geom
_atom_sites_solution_primary     iterative
_audit_creation_date             2019-09-13
_audit_creation_method
;
Olex2 1.3-ac4
(compiled 2019.04.23 svn.r3594 for Rigaku Oxford Diffraction, GUI svn.r5739)
;
_cell_angle_alpha                90
_cell_angle_beta                 98.527(3)
_cell_angle_gamma                90
_cell_formula_units_Z            2
_cell_length_a                   6.5760(2)
_cell_length_b                   10.0588(3)
_cell_length_c                   10.2181(4)
_cell_measurement_reflns_used    7528
_cell_measurement_temperature    150
_cell_measurement_theta_max      31.1170
_cell_measurement_theta_min      2.8300
_cell_volume                     668.42(4)
_computing_cell_refinement       'CrysAlisPro 1.171.39.46 (Rigaku OD, 2018)'
_computing_data_collection       'CrysAlisPro 1.171.39.46 (Rigaku OD, 2018)'
_computing_data_reduction        'CrysAlisPro 1.171.39.46 (Rigaku OD, 2018)'
_computing_molecular_graphics    'Olex2 (Dolomanov et al., 2009)'
_computing_publication_material  'Olex2 (Dolomanov et al., 2009)'
_computing_structure_refinement  'ShelXL (Sheldrick, 2015)'
_computing_structure_solution
;
Superflip (Palatinus & Chapuis, 2007;Palatinus & van der Lee, 2008;
Palatinus et al., 2012)
;
_diffrn_ambient_temperature      150
_diffrn_detector                 'CCD plate'
_diffrn_measured_fraction_theta_full 0.998
_diffrn_measured_fraction_theta_max 0.998
_diffrn_measurement_details
;
List of Runs (angles in degrees, time in seconds):

  # Type    Start    End  Width  t~exp~   \w     \q     \k     \f   Frames
--------------------------------------------------------------------------
  1  \w    -94.00  70.00   0.50    8.00    --  -20.00   0.00-180.00  328
  2  \w    -63.00  19.00   0.50    8.00    --  -20.00 -72.00 108.00  164
  3  \w    -78.00 -48.00   0.50    8.00    --  -20.00 -72.00-108.00   60
  4  \w   -110.00  70.00   0.50    8.00    --  -20.00   0.00-108.00  360
  5  \w    -59.00   0.50   0.50    8.00    --  -20.00  72.00-180.00  119
  6  \w    -27.00   3.00   0.50    8.00    --  -20.00 -72.00  36.00   60
  7  \w   -110.00 -14.50   0.50    8.00    --  -20.00   0.00 108.00  191
;
_diffrn_measurement_device       'abstract diffractometer'
_diffrn_measurement_device_type
'dtrek-CrysAlisPro-abstract goniometer imported rigaku-d*trek images'
_diffrn_measurement_method       '\w scans'
_diffrn_orient_matrix_type
'CrysAlisPro convention (1999,Acta A55,543-557)'
_diffrn_orient_matrix_UB_11      -0.0442585000
_diffrn_orient_matrix_UB_12      -0.0497840000
_diffrn_orient_matrix_UB_13      -0.0445284000
_diffrn_orient_matrix_UB_21      0.0022835000
_diffrn_orient_matrix_UB_22      0.0442166000
_diffrn_orient_matrix_UB_23      -0.0538051000
_diffrn_orient_matrix_UB_31      0.0996845000
_diffrn_orient_matrix_UB_32      -0.0231879000
_diffrn_orient_matrix_UB_33      -0.0070567000
_diffrn_radiation_monochromator  graphite
_diffrn_radiation_probe          x-ray
_diffrn_radiation_type           'Mo K\a'
_diffrn_radiation_wavelength     0.71073
_diffrn_reflns_av_R_equivalents  0.0597
_diffrn_reflns_av_unetI/netI     0.0383
_diffrn_reflns_Laue_measured_fraction_full 0.998
_diffrn_reflns_Laue_measured_fraction_max 0.998
_diffrn_reflns_limit_h_max       7
_diffrn_reflns_limit_h_min       -7
_diffrn_reflns_limit_k_max       11
_diffrn_reflns_limit_k_min       -11
_diffrn_reflns_limit_l_max       12
_diffrn_reflns_limit_l_min       -12
_diffrn_reflns_number            8077
_diffrn_reflns_point_group_measured_fraction_full 0.999
_diffrn_reflns_point_group_measured_fraction_max 0.999
_diffrn_reflns_theta_full        24.983
_diffrn_reflns_theta_max         24.983
_diffrn_reflns_theta_min         2.857
_diffrn_source                   'fine-focus sealed X-ray tube'
_diffrn_source_type              'Enhance (Mo) X-ray Source'
_exptl_absorpt_coefficient_mu    0.075
_exptl_absorpt_correction_T_max  1.00000
_exptl_absorpt_correction_T_min  0.78215
_exptl_absorpt_correction_type   multi-scan
_exptl_absorpt_process_details
;
CrysAlisPro 1.171.39.46 (Rigaku Oxford Diffraction, 2018)
Empirical absorption correction using spherical harmonics,
 implemented in SCALE3 ABSPACK scaling algorithm.
;
_exptl_crystal_colour            colourless
_exptl_crystal_colour_primary    colourless
_exptl_crystal_density_diffrn    1.254
_exptl_crystal_description       block
_exptl_crystal_F_000             272
_exptl_crystal_size_max          0.21
_exptl_crystal_size_mid          0.15
_exptl_crystal_size_min          0.1
_refine_diff_density_max         0.157
_refine_diff_density_min         -0.135
_refine_diff_density_rms         0.034
_refine_ls_abs_structure_details
;
 Flack x determined using 1005 quotients [(I+)-(I-)]/[(I+)+(I-)]
 (Parsons, Flack and Wagner, Acta Cryst. B69 (2013) 249-259).
;
_refine_ls_abs_structure_Flack   0.7(8)
_refine_ls_extinction_method     none
_refine_ls_goodness_of_fit_ref   0.975
_refine_ls_hydrogen_treatment    constr
_refine_ls_matrix_type           full
_refine_ls_number_parameters     172
_refine_ls_number_reflns         2350
_refine_ls_number_restraints     1
_refine_ls_restrained_S_all      0.975
_refine_ls_R_factor_all          0.0391
_refine_ls_R_factor_gt           0.0355
_refine_ls_shift/su_max          0.000
_refine_ls_shift/su_mean         0.000
_refine_ls_structure_factor_coef Fsqd
_refine_ls_weighting_details
'w=1/[\s^2^(Fo^2^)+(0.0681P)^2^+0.0610P] where P=(Fo^2^+2Fc^2^)/3'
_refine_ls_weighting_scheme      calc
_refine_ls_wR_factor_gt          0.0922
_refine_ls_wR_factor_ref         0.0950
_reflns_Friedel_coverage         0.883
_reflns_Friedel_fraction_full    1.000
_reflns_Friedel_fraction_max     1.000
_reflns_number_gt                2270
_reflns_number_total             2350
_reflns_threshold_expression     'I > 2\s(I)'
_cod_data_source_file            jo9b02829_si_002.cif
_cod_data_source_block           srk-af-202_mo
_cod_database_code               4037714
_shelx_shelxl_version_number     2018/3
_chemical_oxdiff_formula         'C18 H20 O1'
_shelx_space_group_comment
;
The symmetry employed for this shelxl refinement is uniquely defined
by the following loop, which should always be used as a source of
symmetry information in preference to the above space-group names.
They are only intended as comments.
;
_shelx_estimated_absorpt_t_max   0.993
_shelx_estimated_absorpt_t_min   0.984
_reflns_odcompleteness_completeness 93.16
_reflns_odcompleteness_iscentric 1
_reflns_odcompleteness_theta     31.03
_olex2_refinement_description
;
1. Fixed Uiso
 At 1.2 times of:
  All C(H) groups, All C(H,H) groups
2.a Ternary CH refined with riding coordinates:
 C7(H7), C12(H12), C13(H13), C18(H18), C22(H22), C25(H25), C28(H28)
2.b Secondary CH2 refined with riding coordinates:
 C10(H10A,H10B), C19(H19A,H19B), C31(H31A,H31B)
2.c Aromatic/amide H refined with riding coordinates:
 C16(H16), C23(H23), C29(H29), C33(H33), C36(H36)
2.d X=CH2 refined with riding coordinates:
 C35(H35A,H35B)
;
_shelx_res_file
;
TITL SRK-AF-202_Mo in P21/m
    srk-af-202_mo.res
    created by SHELXL-2018/3 at 15:28:20 on 13-Sep-2019
CELL 0.71073 6.576041 10.058753 10.218093 90 98.5269 90
ZERR 2 0.000226 0.000322 0.000369 0 0.0033 0
LATT -1
SYMM -X,0.5+Y,-Z
SFAC C H O
UNIT 36 40 2

L.S. 50
PLAN  1
SIZE 0.1 0.15 0.21
TEMP -123.15
fmap 2
acta
OMIT -3 50
OMIT 1 0 0
OMIT 0 0 1
REM <olex2.extras>
REM <HklSrc "%.\\SRK-AF-202_Mo.hkl">
REM </olex2.extras>

WGHT    0.068100    0.061000
FVAR      10.11284
O2    3   -0.409329   -0.447117   -0.249934    11.00000    0.02395    0.02651 =
         0.03754    0.00101    0.00828    0.00569
C3    1   -0.746767   -0.374699   -0.208810    11.00000    0.02027    0.01966 =
         0.02071   -0.00258    0.00502   -0.00059
C5    1   -0.526469   -0.356349   -0.236359    11.00000    0.02223    0.02408 =
         0.01697    0.00095    0.00229    0.00238
C7    1   -0.749536   -0.422950   -0.062414    11.00000    0.02931    0.02004 =
         0.02369    0.00057    0.00778   -0.00014
AFIX  13
H7    2   -0.733037   -0.520797   -0.047071    11.00000   -1.20000
AFIX   0
C10   1   -0.873684   -0.467454   -0.311031    11.00000    0.02539    0.02447 =
         0.02515   -0.00500    0.00551   -0.00264
AFIX  23
H10A  2   -1.020228   -0.460985   -0.299568    11.00000   -1.20000
H10B  2   -0.861711   -0.434823   -0.400977    11.00000   -1.20000
AFIX   0
C12   1   -0.470319   -0.210527   -0.243890    11.00000    0.01841    0.02443 =
         0.02256    0.00081    0.00233   -0.00297
AFIX  13
H12   2   -0.358462   -0.185201   -0.170864    11.00000   -1.20000
AFIX   0
C13   1   -0.835938   -0.230763   -0.206464    11.00000    0.02038    0.01969 =
         0.02466    0.00067    0.00446    0.00191
AFIX  13
H13   2   -0.963143   -0.222014   -0.272907    11.00000   -1.20000
AFIX   0
C16   1   -0.811532   -0.611092   -0.302102    11.00000    0.02808    0.02778 =
         0.03252   -0.01078    0.01036   -0.00235
AFIX  43
H16   2   -0.675750   -0.632976   -0.315820    11.00000   -1.20000
AFIX   0
C18   1   -0.670625   -0.130239   -0.236555    11.00000    0.02711    0.01797 =
         0.02410   -0.00117    0.00595    0.00027
AFIX  13
H18   2   -0.645915   -0.062046   -0.164742    11.00000   -1.20000
AFIX   0
C19   1   -0.956282   -0.363333   -0.038023    11.00000    0.02939    0.02652 =
         0.02988   -0.00331    0.01321   -0.00302
AFIX  23
H19A  2   -0.985254   -0.378325    0.053176    11.00000   -1.20000
H19B  2   -1.073663   -0.393380   -0.103363    11.00000   -1.20000
AFIX   0
C22   1   -0.889802   -0.219511   -0.061922    11.00000    0.02742    0.02517 =
         0.02846   -0.00333    0.01293    0.00165
AFIX  13
H22   2   -0.991156   -0.148763   -0.047801    11.00000   -1.20000
AFIX   0
C23   1   -0.687049   -0.215281    0.030264    11.00000    0.03665    0.02490 =
         0.02223   -0.00465    0.00992   -0.00786
AFIX  43
H23   2   -0.630824   -0.140924    0.080412    11.00000   -1.20000
AFIX   0
C25   1   -0.413720   -0.172643   -0.382430    11.00000    0.02620    0.02714 =
         0.02811    0.00100    0.01066    0.00188
AFIX  13
H25   2   -0.311900   -0.231651   -0.417478    11.00000   -1.20000
AFIX   0
C28   1   -0.706669   -0.060857   -0.375232    11.00000    0.02884    0.02339 =
         0.03017    0.00497    0.00613    0.00469
AFIX  13
H28   2   -0.848681   -0.026433   -0.404911    11.00000   -1.20000
AFIX   0
C29   1   -0.602865   -0.334704    0.027835    11.00000    0.03328    0.03243 =
         0.01821    0.00223    0.00362   -0.00263
AFIX  43
H29   2   -0.473146   -0.360653    0.074493    11.00000   -1.20000
AFIX   0
C31   1   -0.628779   -0.166164   -0.464405    11.00000    0.03022    0.02860 =
         0.02307    0.00210    0.00468    0.00014
AFIX  23
H31A  2   -0.626941   -0.134380   -0.555918    11.00000   -1.20000
H31B  2   -0.704579   -0.251267   -0.465212    11.00000   -1.20000
AFIX   0
C33   1   -0.361372   -0.026149   -0.373399    11.00000    0.03475    0.03105 =
         0.02859    0.00463    0.01019   -0.00894
AFIX  43
H33   2   -0.228273    0.011450   -0.370595    11.00000   -1.20000
AFIX   0
C35   1   -0.932195   -0.708113   -0.276657    11.00000    0.04138    0.02856 =
         0.03559   -0.00378    0.01049   -0.00330
AFIX  93
H35A  2   -1.068895   -0.689623   -0.262444    11.00000   -1.20000
H35B  2   -0.883134   -0.797071   -0.272389    11.00000   -1.20000
AFIX   0
C36   1   -0.534209    0.040164   -0.370108    11.00000    0.04863    0.02198 =
         0.03023    0.00526    0.01400   -0.00014
AFIX  43
H36   2   -0.547928    0.133992   -0.365393    11.00000   -1.20000
AFIX   0
HKLF 4




REM  SRK-AF-202_Mo in P21/m
REM wR2 = 0.0950, GooF = S = 0.975, Restrained GooF = 0.975 for all data
REM R1 = 0.0355 for 2270 Fo > 4sig(Fo) and 0.0391 for all 2350 data
REM 172 parameters refined using 1 restraints

END

WGHT      0.0457      0.0956

REM Highest difference peak  0.157,  deepest hole -0.135,  1-sigma level  0.034
Q1    1  -0.6440 -0.3591 -0.2168  11.00000  0.05    0.16
;
_shelx_res_checksum              20849
_shelx_hkl_file
;
   0 -14   0 1343.56 277.467   7
   0 -14   1 4569.15 520.043   7
   0 -14  -1 4126.54 492.742   7
   0 -14  -2-127.504 96.7439   7
   0 -13   0-34.2863 67.2636   7
   0 -13   1 3554.52 441.168   7
   0 -13  -1 3252.50 417.128   7
   0 -13  -2 1763.35 306.914   7
   0 -13   2 2639.83 376.022   7
   0 -13   3 4002.68 479.569   7
   0 -13  -3 4586.06 495.805   7
   0 -13  -4-66.4016 116.935   7
   0 -13   4 126.556 145.269   7
   0 -13  -5 2838.36 407.176   7
   0 -12   0 13234.7 787.125   7
   0 -12   1 264.049 117.461   7
   0 -12  -1 61.4424 56.3020   7
   0 -12  -2 11519.5 740.777   7
   0 -12   2 12263.3 768.000   7
   0 -12   3 1437.77 273.577   7
   0 -12  -3 1459.61 271.271   7
   0 -12  -4 3088.73 392.577   7
   0 -12   4 3804.42 447.106   7
   0 -12  -5 538.290 183.422   7
   0 -12  -6 904.717 222.558   7
   0 -12  -7 61.0486 77.1419   7
   0 -11   0 158.334 114.830   7
   0 -11  -1 516.417 161.322   7
   0 -11   1 467.191 139.767   7
   0 -11  -2 1127.22 216.103   7
   0 -11   2 1066.25 215.893   7
   0 -11  -3 1182.57 227.482   7
   0 -11   3 1040.56 230.993   7
   0 -11  -4 43.6976 56.4943   7
   0 -11   4 237.428 124.665   7
   0 -11  -5 1059.73 232.927   7
   0 -11  -6 1138.94 238.699   7
   0 -11  -7 483.423 172.358   7
   0 -11  -8 1199.50 260.783   7
   0 -10   0 7798.31 535.910   7
   0 -10  -1 9240.68 582.397   7
   0 -10   1 11147.6 655.494   7
   0 -10  -2 33.2744 58.3494   7
   0 -10   2 15.2539 50.2585   7
   0 -10   3 621.831 163.372   7
   0 -10  -3 486.881 140.821   7
   0 -10  -4 2895.49 338.015   7
   0 -10   4 3604.34 393.526   7
   0 -10  -5 2841.51 340.183   7
   0 -10  -6 2085.00 305.965   7
   0 -10  -7 2440.20 329.210   7
   0 -10  -8 1410.40 260.591   7
   0 -10  -9 639.585 194.965   7
   0  -9   0 25.6135 62.0549   7
   0  -9   1 7287.27 487.566   7
   0  -9  -1 7924.93 507.827   7
   0  -9   2 7507.28 496.489   7
   0  -9  -2 7046.88 481.239   7
   0  -9  -3 18524.6 790.491   7
   0  -9   3 20284.6 844.617   7
   0  -9   4 325.450 132.641   7
   0  -9  -4 336.814 113.588   7
   0  -9  -5 4484.04 405.864   7
   0  -9  -6 250.674 114.220   7
   0  -9  -7 4328.34 427.766   7
   0  -9  -8 2578.72 343.957   7
   0  -9  -9 995.004 229.682   7
   0  -9 -10 3970.64 460.608   7
   0  -8   0 34262.4 971.701   7
   0  -8  -1 11848.5 576.815   7
   0  -8   1 12328.9 585.391   7
   0  -8  -2 11996.0 586.129   7
   0  -8   2 12140.8 586.538   7
   0  -8  -3 9309.21 521.077   7
   0  -8   3 9591.33 541.502   7
   0  -8  -4 19426.9 768.367   7
   0  -8   4 20236.3 805.060   7
   0  -8   4 20493.3 447.517   6
   0  -8   5 378.382 64.1954   6
   0  -8  -5 411.908 113.442   7
   0  -8  -6 351.727 115.361   7
   0  -8  -7 350.825 118.067   7
   0  -8  -8 2879.35 342.605   7
   0  -8  -9 4222.86 436.927   7
   0  -8 -10 510.819 150.748   7
   0  -8 -11 4743.28 506.634   7
   0  -7   0-34.0679 41.8499   7
   0  -7   1 4225.55 320.695   7
   0  -7  -1 5147.61 349.779   7
   0  -7  -2 21184.4 721.110   7
   0  -7   2 22167.0 739.389   7
   0  -7   3 1040.80 170.701   7
   0  -7  -3 815.720 146.152   7
   0  -7   4 3577.10 316.793   7
   0  -7   4 3990.85 193.424   6
   0  -7  -4 3964.61 330.427   7
   0  -7  -5 2470.34 264.566   7
   0  -7   5 2657.73 160.131   6
   0  -7   5 2252.58 198.405   5
   0  -7  -6 10680.1 576.114   7
   0  -7  -7 607.057 146.738   7
   0  -7  -8 2503.67 308.324   7
   0  -7  -9 1362.70 235.787   7
   0  -7 -10 2346.50 334.037   7
   0  -7 -11-31.4991 62.5481   7
   0  -7 -12 1472.72 301.060   7
   0  -6   0 30256.0 784.630   7
   0  -6  -1 23509.8 689.982   7
   0  -6  -1 24666.4 420.689   2
   0  -6   1 25259.9 721.400   7
   0  -6  -2 9557.71 221.001   2
   0  -6   2 9262.51 439.278   7
   0  -6  -2 9602.61 447.431   7
   0  -6  -3 856.187 138.782   7
   0  -6  -3 755.023 52.8989   2
   0  -6   3 683.212 131.242   7
   0  -6   4 1149.44 129.665   5
   0  -6   4 1467.58 186.892   7
   0  -6   4 1471.27 116.651   6
   0  -6  -4 1042.27 159.986   7
   0  -6  -4 1309.18 68.7658   2
   0  -6   5 17537.7 560.735   5
   0  -6  -5 19145.3 313.138   2
   0  -6  -5 17450.1 670.144   7
   0  -6   5 19982.8 442.369   6
   0  -6  -6 1570.91 217.592   7
   0  -6  -6 1540.13 108.813   2
   0  -6  -7 4821.89 223.943   2
   0  -6  -7 5148.14 404.093   7
   0  -6  -8 3956.97 373.638   7
   0  -6  -9 925.225 199.806   7
   0  -6 -10 195.962 109.657   7
   0  -6 -11 207.625 108.344   7
   0  -6  11 111.870 138.297   4
   0  -6 -12 2721.44 398.222   7
   0  -6  12 3383.22 466.368   4
   0  -5   0 23.9141 33.3048   7
   0  -5   1 43587.9 861.859   7
   0  -5  -1 44549.4 865.134   7
   0  -5   2 634.607 106.774   7
   0  -5  -2 411.153 40.9171   2
   0  -5  -2 721.700 112.972   7
   0  -5   3 5561.07 246.529   5
   0  -5  -3 6124.12 343.058   7
   0  -5  -3 6367.06 157.541   2
   0  -5   3 6338.28 348.241   7
   0  -5   4 13693.9 340.294   6
   0  -5  -4 13102.7 263.218   2
   0  -5  -4 13004.4 517.852   7
   0  -5   4 13199.1 430.484   5
   0  -5   5 2567.06 163.208   6
   0  -5   5 2249.41 201.468   5
   0  -5  -5 2243.72 132.389   2
   0  -5  -5 2814.84 254.946   7
   0  -5  -6 10721.7 536.403   7
   0  -5  -7 90.4488 69.5185   1
   0  -5  -7-2.29919 47.3616   7
   0  -5  -8 4486.48 394.789   1
   0  -5  -8 3762.10 356.804   7
   0  -5  -9 2980.15 339.042   1
   0  -5  -9 2927.34 332.706   7
   0  -5 -10 1298.46 241.845   1
   0  -5 -10 743.312 181.734   7
   0  -5 -11 239.003 114.516   7
   0  -5 -11 182.528 124.403   1
   0  -5  11 440.409 171.680   4
   0  -5  12 1545.95 310.296   4
   0  -5 -12 1906.85 324.090   7
   0  -5 -12 1226.38 266.321   1
   0  -4   0-13.7715 23.8040   4
   0  -4   0 210073. 1135.26   2
   0  -4   0-4.03632 26.2446   1
   0  -4   0 213887. 1661.35   7
   0  -4   1 10781.1 381.684   7
   0  -4  -1 70.2652 52.1371   4
   0  -4   1-0.62375 28.2612   4
   0  -4  -1 10953.4 215.551   2
   0  -4   1 2.66880 27.8584   1
   0  -4  -1 10473.2 374.041   7
   0  -4   2 16333.3 485.938   7
   0  -4   2 15868.4 356.147   5
   0  -4   2 10.9078 30.1601   4
   0  -4   2 11.3410 36.5495   1
   0  -4  -2 16095.9 480.741   7
   0  -4  -2 4747.79 332.655   4
   0  -4  -2 16276.9 238.320   2
   0  -4   3 4350.28 172.117   6
   0  -4   3 3771.26 199.326   5
   0  -4  -3 4045.70 256.572   7
   0  -4  -3 4188.06 139.933   2
   0  -4   3 4088.02 254.037   7
   0  -4   4 31702.8 664.394   5
   0  -4  -4 32561.2 781.959   7
   0  -4  -5 3713.55 286.073   7
   0  -4   5 3767.37 258.363   5
   0  -4  -5 3487.54 274.195   1
   0  -4  -6 12468.3 540.751   1
   0  -4  -6 13032.5 570.686   7
   0  -4  -7 1102.09 172.776   1
   0  -4  -8 238.366 96.4833   1
   0  -4  -9 3553.02 357.667   1
   0  -4 -10 1833.40 270.998   1
   0  -4  10 1714.25 281.086   4
   0  -4  11 2625.45 374.319   4
   0  -4 -11 2380.53 339.860   1
   0  -4  12 145.394 123.509   4
   0  -4 -12 30.8555 79.2053   1
   0  -4  13 691.412 247.314   4
   0  -4 -13 773.722 220.234   1
   0  -3   0 30.1306 16.8767   2
   0  -3   0 16.4693 14.8361   7
   0  -3   0-11.3315 20.1389   4
   0  -3   0-4.60731 21.1171   1
   0  -3  -1 40637.2 352.626   2
   0  -3   1-10.4227 37.8905   1
   0  -3  -1 40424.9 642.884   7
   0  -3   1-12.6159 28.8734   4
   0  -3  -1 6.46369 27.4825   4
   0  -3   1 39956.7 632.944   7
   0  -3   2 34.3811 45.1250   1
   0  -3  -2 5253.63 134.125   2
   0  -3  -2 5343.71 247.015   7
   0  -3   2 11.5132 28.8341   4
   0  -3  -2-7.60389 19.4298   4
   0  -3   2 5138.34 191.005   5
   0  -3   2 5429.72 249.767   7
   0  -3  -3 2443.09 183.804   7
   0  -3  -3 2202.22 175.733   1
   0  -3   3 2309.28 120.923   6
   0  -3   3 1891.08 232.577   1
   0  -3   3 2211.90 150.039   5
   0  -3   4 3580.82 173.750   6
   0  -3  -4 3382.09 231.884   1
   0  -3   4 3710.02 233.533   5
   0  -3  -5 26101.4 703.248   1
   0  -3  -6 8361.60 433.929   1
   0  -3  -7 2087.75 235.305   1
   0  -3  -8 2416.58 270.386   1
   0  -3  -9 4652.85 402.170   1
   0  -3   9 3133.29 343.935   4
   0  -3 -10 131.695 90.7420   1
   0  -3  10 272.522 118.003   4
   0  -3 -11 491.375 141.635   1
   0  -3  11 566.401 186.874   4
   0  -3 -12 1920.86 306.871   1
   0  -3  12 2017.09 338.153   4
   0  -3 -13 1627.48 300.993   1
   0  -3  13 2844.71 433.602   4
   0  -2   0 19208.5 235.004   2
   0  -2   0 18283.3 342.166   7
   0  -2   0 13259.1 402.691   1
   0  -2   0 11731.0 369.261   4
   0  -2   1 260169. 1015.45   5
   0  -2  -1 245932. 1311.72   7
   0  -2   1 250317. 1819.86   4
   0  -2   1 250776. 1915.81   1
   0  -2   1 262061. 1348.71   7
   0  -2  -2 14823.8 369.516   7
   0  -2   2 13550.8 461.059   4
   0  -2   2 14696.9 255.243   6
   0  -2  -2 14697.8 366.961   1
   0  -2   2 14482.2 315.432   5
   0  -2   2 14119.6 499.900   1
   0  -2   3 30134.4 799.394   1
   0  -2  -3 28472.0 575.516   1
   0  -2   3 28880.4 742.470   4
   0  -2   3 30550.7 446.687   6
   0  -2   4 102424. 1558.08   4
   0  -2   4 104201. 1631.88   1
   0  -2  -4 106966. 1239.01   1
   0  -2  -5 5370.94 308.936   1
   0  -2  -6 2146.24 214.265   1
   0  -2  -7 3640.82 303.300   1
   0  -2   7 4196.18 336.571   4
   0  -2  -8 2904.09 290.767   1
   0  -2   8 2903.06 302.906   4
   0  -2   9 1312.14 214.199   4
   0  -2  -9 1292.86 207.031   1
   0  -2 -10 862.112 183.058   1
   0  -2  10 1073.48 227.338   4
   0  -2 -11 3387.67 388.407   1
   0  -2  11 3577.30 417.522   4
   0  -2 -12 304.152 134.992   1
   0  -2  12-78.8805 100.407   4
   0  -2 -13 3677.02 455.143   1
   0  -2  13 3979.48 500.340   4
   0  -1   0-0.24208 3.43624   7
   0  -1   0-10.0809 12.6073   4
   0  -1   0 18.6968 13.1991   1
   0  -1   1 261783. 1506.32   1
   0  -1  -1 276872. 1282.65   4
   0  -1   1 274452. 1417.99   4
   0  -1  -2 104507. 863.298   1
   0  -1  -2 104909. 913.091   4
   0  -1   2 86026.2 981.403   4
   0  -1   2 103857. 672.479   6
   0  -1   2 85265.2 1023.12   1
   0  -1   3 128531. 1384.52   4
   0  -1   3 127586. 1423.57   1
   0  -1  -3 125584. 1174.66   4
   0  -1  -3 125480. 1155.73   1
   0  -1   4 105156. 1419.19   4
   0  -1   4 107213. 1498.06   1
   0  -1  -4 103540. 1199.77   1
   0  -1   5 84964.2 1227.59   4
   0  -1  -5 82616.7 1198.35   1
   0  -1   6 52758.4 1068.59   4
   0  -1  -6 48740.8 1013.92   1
   0  -1   7 18705.6 692.374   4
   0  -1  -7 16629.5 648.644   1
   0  -1  -8 24219.0 843.362   1
   0  -1   8 23947.9 864.345   4
   0  -1   9 10090.0 594.879   4
   0  -1  -9 9872.12 574.560   1
   0  -1  10 6846.40 531.934   4
   0  -1 -10 6591.10 505.419   1
   0  -1  11 2677.15 354.952   4
   0  -1 -11 1648.80 273.069   1
   0  -1  12 12332.2 816.203   4
   0  -1 -12 11237.0 750.411   1
   0  -1  13 904.982 227.667   4
   0  -1 -13 612.867 205.013   1
   0   0   1-0.71247 7.72366   4
   0   0  -1-0.64700 3.71713   3
   0   0   1-0.16482 3.49731   4
   0   0   1 0.60013 4.70615   1
   0   0   1 1.98255 6.57399   3
   0   0  -1-0.43161 3.16727   1
   0   0   2 114613. 970.277   4
   0   0   2 109873. 947.654   1
   0   0  -2 33903.6 501.947   1
   0   0  -2 35527.8 474.983   3
   0   0   2 109485. 856.198   3
   0   0   3 257110. 1812.07   4
   0   0  -3 233100. 1611.18   1
   0   0   3 243482. 1590.10   3
   0   0  -3 256825. 1545.85   3
   0   0   3 238532. 1544.40   4
   0   0   3 260320. 1809.71   1
   0   0   4 116628. 1436.19   1
   0   0  -4 111578. 1290.30   1
   0   0  -4 111986. 1172.46   3
   0   0   4 112950. 1233.02   4
   0   0  -4 113869. 1146.83   6
   0   0   4 111424. 1251.62   3
   0   0  -5 33735.8 704.106   6
   0   0   5 36421.6 790.493   4
   0   0  -5 34902.2 808.330   1
   0   0  -6 37699.7 915.010   1
   0   0   6 36515.8 882.339   4
   0   0   7 33216.5 923.930   4
   0   0  -7 36850.5 981.744   1
   0   0  -8 4014.91 348.921   1
   0   0   8 4150.68 356.336   4
   0   0   9 3166.45 334.804   4
   0   0  -9 3876.35 363.706   1
   0   0  10 5925.06 501.391   4
   0   0 -10 4924.86 440.123   1
   0   0 -11 2419.87 328.982   1
   0   0  11 2779.91 370.189   4
   0   0  12 11664.9 798.302   4
   0   0 -12 12097.8 777.256   1
   0   0 -13 4353.03 509.518   1
   0   0  13 4377.16 539.318   4
   0   1   0 6.34129 5.60354   7
   0   1   0-1.51311 5.24040   1
   0   1   0-2.06989 6.95487   4
   0   1   1 263711. 1115.73   1
   0   1   1 1.78081 5.69581   4
   0   1  -1 257494. 1069.77   7
   0   1  -1-3.96606 8.95734   4
   0   1  -1-1.62292 6.93009   1
   0   1  -2 104240. 694.851   6
   0   1   2 105170. 905.140   1
   0   1  -2 102246. 839.913   3
   0   1  -2 106255. 1015.90   4
   0   1  -2 106019. 1047.90   1
   0   1   2 105454. 929.095   4
   0   1  -3 125226. 966.068   6
   0   1  -3 127099. 1133.11   3
   0   1   3 128345. 1233.03   1
   0   1   3 126495. 1185.12   4
   0   1  -3 124809. 1322.08   1
   0   1   4 105818. 1314.95   1
   0   1   4 104177. 1235.49   4
   0   1  -4 103756. 1028.49   6
   0   1  -4 101409. 1337.03   4
   0   1  -4 104203. 1333.59   1
   0   1  -5 80475.2 1046.08   6
   0   1  -5 77751.6 1262.15   1
   0   1   5 80317.2 1207.84   4
   0   1   6 51780.5 1070.60   4
   0   1  -6 51735.5 1113.34   1
   0   1  -6 54005.9 1032.18   3
   0   1  -7 16141.4 673.320   1
   0   1  -7 17309.8 627.654   3
   0   1   8 25180.8 887.198   4
   0   1  -8 24883.0 890.536   1
   0   1   9 10190.3 614.767   4
   0   1  -9 10664.8 618.736   1
   0   1 -10 7306.18 545.719   1
   0   1  10 7177.40 549.942   4
   0   1 -11 2428.20 336.371   1
   0   1  11 2183.02 335.592   4
   0   1  12 9916.20 756.090   4
   0   1 -12 11110.4 754.071   1
   0   1  13 666.640 216.350   4
   0   1 -13 911.717 252.473   1
   0   2   0 1163.02 119.379   4
   0   2   0 19917.5 359.362   7
   0   2   0 18604.7 240.158   2
   0   2   0 1160.29 123.504   1
   0   2   1 250701. 1371.83   7
   0   2  -1 245479. 1085.15   2
   0   2  -1 233921. 1290.21   7
   0   2  -1 258950. 1783.21   4
   0   2   1 251478. 1627.81   4
   0   2  -1 260782. 1889.62   1
   0   2  -1 270432. 1019.09   5
   0   2  -2 13639.9 464.520   1
   0   2  -2 14580.5 457.372   4
   0   2   2 14702.7 377.988   1
   0   2  -2 14254.1 320.537   2
   0   2  -2 14626.1 361.307   7
   0   2   2 14256.9 417.532   4
   0   2  -3 29534.8 704.914   4
   0   2   3 28699.7 643.200   4
   0   2   3 29413.7 617.539   1
   0   2  -3 28893.6 523.424   2
   0   2  -3 28338.0 552.993   7
   0   2  -3 30379.8 736.761   1
   0   2  -4 105070. 1009.53   6
   0   2  -4 106120. 1237.96   3
   0   2   4 104558. 1350.39   4
   0   2   4 107123. 1337.95   1
   0   2  -4 109139. 1508.80   1
   0   2  -5 5398.98 302.747   3
   0   2   5 4789.18 314.746   4
   0   2  -5 5685.94 381.430   4
   0   2  -5 5035.66 354.588   1
   0   2  -5 4907.10 250.328   6
   0   2  -6 2097.94 240.428   1
   0   2  -6 1680.77 185.435   3
   0   2   6 2145.98 230.027   4
   0   2  -6 2057.13 240.019   4
   0   2   7 3505.22 315.908   4
   0   2  -7 3918.97 307.961   3
   0   2  -7 4087.63 355.841   1
   0   2  -8 2881.25 312.188   1
   0   2   8 3332.70 334.166   4
   0   2  -8 3106.80 297.124   3
   0   2  -9 1322.98 227.698   1
   0   2   9 1333.03 232.655   4
   0   2  -9 1227.56 191.264   3
   0   2  10 220.553 123.602   4
   0   2 -10 480.343 164.624   1
   0   2  11 3379.15 417.844   4
   0   2 -11 2917.07 381.879   1
   0   2 -12 411.902 156.469   1
   0   2  12 78.4525 94.6601   4
   0   2  13 4099.83 537.075   4
   0   2 -13 3607.04 470.034   1
   0   3   0-7.25571 8.31980   2
   0   3   0 50.9229 40.3997   4
   0   3   0 22.3671 19.0002   7
   0   3  -1 40515.6 649.122   7
   0   3  -1 40574.4 903.412   1
   0   3  -1 40185.4 503.027   2
   0   3  -1 39970.7 852.097   4
   0   3   1 41766.3 824.378   4
   0   3  -1 41477.6 463.926   5
   0   3   1 41741.6 663.431   7
   0   3   1 41922.4 399.517   2
   0   3   1 40504.6 856.024   1
   0   3  -2 5525.82 351.551   1
   0   3  -2 5126.23 312.389   4
   0   3   2 5542.18 306.587   4
   0   3  -2 5177.55 240.316   7
   0   3  -2 4951.99 202.856   2
   0   3   2 5912.90 268.823   1
   0   3   2 5531.82 264.644   7
   0   3  -3 2655.71 238.487   4
   0   3  -3 2434.22 239.748   1
   0   3   3 2131.42 205.313   4
   0   3   3 2532.94 196.411   1
   0   3  -3 2355.96 159.602   2
   0   3  -3 1897.69 159.947   7
   0   3  -4 3449.18 288.878   4
   0   3  -4 3409.41 298.728   1
   0   3   4 3151.04 255.991   4
   0   3  -5 27651.4 888.612   1
   0   3   5 26655.7 807.461   4
   0   3  -5 27836.2 726.331   3
   0   3  -5 28967.8 890.379   4
   0   3  -6 9025.71 532.661   1
   0   3   6 9591.13 517.971   4
   0   3  -6 10689.6 611.805   4
   0   3  -6 8044.73 420.490   3
   0   3  -7 2304.23 280.334   1
   0   3  -7 2460.02 295.135   4
   0   3   7 2286.30 271.107   4
   0   3  -7 2297.06 239.323   3
   0   3  -8 1901.95 278.923   1
   0   3  -8 2206.50 251.204   3
   0   3   8 2543.19 312.291   4
   0   3  -8 1839.32 292.465   4
   0   3  -9 4635.69 396.966   3
   0   3  -9 4562.07 441.949   1
   0   3   9 4175.26 424.135   4
   0   3  10 147.429 83.9961   4
   0   3 -10 282.269 134.814   1
   0   3 -10 189.457 108.990   3
   0   3 -11 537.471 171.939   1
   0   3  11 609.628 193.823   4
   0   3  12 1733.03 330.821   4
   0   3 -12 2207.00 372.865   1
   0   3 -13 2024.55 367.544   1
   0   3  13 2687.36 445.054   4
   0   4   0 203697. 1669.11   7
   0   4   0 211163. 2292.48   1
   0   4   0 205224. 1148.86   2
   0   4   0 209206. 2206.72   4
   0   4  -1 10605.1 528.529   1
   0   4  -1 10783.1 380.167   7
   0   4   1 11165.1 245.157   2
   0   4  -1 12031.0 541.172   4
   0   4   1 10595.1 493.281   4
   0   4   1 10663.0 507.606   1
   0   4  -1 10541.3 269.110   5
   0   4  -1 10412.1 286.673   2
   0   4   1 9872.30 372.583   7
   0   4  -2 16841.9 685.350   1
   0   4  -2 16484.0 487.118   7
   0   4   2 17403.1 526.108   7
   0   4   2 15065.6 588.394   4
   0   4  -2 16974.1 652.778   4
   0   4  -2 15442.6 389.919   2
   0   4   2 16403.4 626.248   1
   0   4  -3 4772.81 377.493   1
   0   4   3 4494.95 324.629   4
   0   4  -3 4175.37 333.424   4
   0   4  -4 35195.3 1018.34   4
   0   4   4 32345.8 925.216   4
   0   4  -4 33244.8 1031.53   1
   0   4  -5 4391.80 367.179   4
   0   4   5 3948.76 342.318   4
   0   4  -5 3709.66 353.093   1
   0   4  -6 12553.6 546.583   3
   0   4   6 12238.3 621.216   4
   0   4  -6 13666.1 707.646   1
   0   4  -6 13841.7 696.571   4
   0   4  -7 965.496 201.952   4
   0   4   7 883.093 179.734   4
   0   4  -7 846.351 151.472   3
   0   4  -7 1044.28 200.401   1
   0   4  -8 264.202 100.157   1
   0   4  -8 435.285 152.716   4
   0   4   8 487.417 138.232   4
   0   4  -8 389.388 114.169   3
   0   4   9 2788.85 356.243   4
   0   4  -9 2785.21 371.123   4
   0   4  -9 3623.95 409.702   1
   0   4  -9 3172.15 326.919   3
   0   4 -10 1867.02 269.827   3
   0   4 -10 1831.92 309.774   1
   0   4  10 1897.00 310.111   4
   0   4 -11 1729.01 308.477   1
   0   4 -11 2332.08 315.477   3
   0   4  11 1661.63 309.774   4
   0   4  12 137.720 114.619   4
   0   4 -12 152.468 101.391   1
   0   4 -13 866.407 239.726   1
   0   4  13 669.871 246.250   4
   0   5   0 53.5319 73.9511   4
   0   5   0-5.76257 12.3434   2
   0   5   0 58.4753 76.0995   1
   0   5  -1 48449.0 637.267   5
   0   5  -1 48160.3 1207.62   4
   0   5  -1 47775.8 1263.33   1
   0   5   1 41789.7 1101.64   4
   0   5   1 40928.0 1125.67   1
   0   5   1 48401.6 587.177   2
   0   5  -1 45713.5 672.859   2
   0   5  -2 604.429 69.4103   5
   0   5  -2 849.347 162.336   4
   0   5  -2 629.285 157.383   1
   0   5  -2 554.791 81.0960   2
   0   5   2 480.744 113.073   4
   0   5   2 407.879 118.247   1
   0   5   3 5978.43 420.029   4
   0   5   3 6448.45 451.530   1
   0   5  -3 6735.31 465.971   4
   0   5  -3 6481.85 486.637   1
   0   5   4 12526.0 624.198   4
   0   5  -4 13686.3 679.330   4
   0   5  -4 11761.4 661.964   1
   0   5  -5 3279.73 366.815   1
   0   5  -5 2346.88 296.761   4
   0   5   5 2718.91 301.403   4
   0   5  -6 12153.2 685.217   4
   0   5  -6 9998.39 501.209   3
   0   5  -6 11148.2 681.182   1
   0   5   6 10512.2 626.507   4
   0   5  -7 34.6484 55.4260   4
   0   5  -7-14.2880 60.9527   1
   0   5   7 82.5286 89.8708   4
   0   5  -7 87.3175 62.7620   3
   0   5  -8 5373.34 538.711   4
   0   5  -8 4536.84 378.837   3
   0   5  -8 4770.21 481.885   1
   0   5   8 4240.04 436.730   4
   0   5  -9 3073.10 333.612   3
   0   5   9 2184.38 332.678   4
   0   5  -9 3023.80 393.377   4
   0   5  -9 2120.79 326.237   1
   0   5  10 958.299 240.799   4
   0   5 -10 1077.74 265.190   1
   0   5 -10 1373.75 235.259   3
   0   5 -11 623.292 213.742   1
   0   5  11 244.056 142.170   4
   0   5 -11 371.028 132.873   3
   0   5 -12 1198.61 252.461   3
   0   5  12 1820.01 366.910   4
   0   5 -12 2179.90 380.449   1
   0   6   0 30123.9 1086.84   1
   0   6   0 30019.7 556.540   2
   0   6   0 31456.9 1066.21   4
   0   6  -1 25773.5 969.772   4
   0   6   1 25439.7 945.431   4
   0   6  -1 23712.7 527.743   2
   0   6   1 24606.9 466.402   2
   0   6  -1 25657.4 1018.55   1
   0   6   1 25490.7 976.690   1
   0   6  -1 24584.2 498.629   5
   0   6   2 9622.67 601.438   1
   0   6   2 10582.1 611.237   4
   0   6  -2 9143.42 579.451   4
   0   6  -2 10100.7 296.181   5
   0   6  -2 8520.96 593.162   1
   0   6   3 1053.74 208.456   1
   0   6  -3 632.162 168.191   1
   0   6  -3 731.630 174.117   4
   0   6   3 808.851 177.281   4
   0   6   4 1933.88 281.288   1
   0   6   4 1266.55 220.049   4
   0   6  -4 1200.78 234.819   1
   0   6  -4 1266.63 231.715   4
   0   6  -5 18777.3 895.984   4
   0   6   5 18372.1 845.848   4
   0   6  -5 18986.1 942.672   1
   0   6  -6 1497.77 261.800   4
   0   6   6 1549.71 266.389   4
   0   6  -6 1730.86 289.269   1
   0   6  -7 4900.71 393.720   3
   0   6  -7 5862.31 541.956   1
   0   6  -7 5471.29 513.381   4
   0   6   7 5258.71 490.267   4
   0   6  -8 4023.31 457.667   4
   0   6   8 3352.44 415.103   4
   0   6  -8 4341.22 477.735   1
   0   6  -8 3459.78 343.722   3
   0   6   9 1036.17 244.954   4
   0   6  -9 1261.74 271.346   1
   0   6  -9 1160.65 217.669   3
   0   6  -9 1451.62 292.249   4
   0   6 -10 98.8696 81.0542   3
   0   6 -10 207.280 147.739   4
   0   6  10 54.5858 76.2518   4
   0   6 -10 436.996 190.285   1
   0   6 -11 30.5869 84.0506   1
   0   6  11-135.594 145.353   4
   0   6 -11-10.2160 69.9096   3
   0   6  12 2538.77 454.391   4
   0   6 -12 3168.78 413.058   3
   0   6 -12 2559.67 441.219   1
   0   7   0-0.59494 44.6516   1
   0   7   0-13.8557 19.2281   5
   0   7   1 5329.00 240.866   2
   0   7  -1 5171.38 246.053   5
   0   7   1 5210.02 471.954   4
   0   7  -1 4532.16 463.673   1
   0   7  -1 5819.50 501.961   4
   0   7  -2 21465.4 1014.04   1
   0   7   2 23280.0 1028.50   1
   0   7  -2 22992.3 993.989   4
   0   7   2 21212.0 951.669   4
   0   7  -2 23127.3 462.096   5
   0   7  -3 905.344 222.395   1
   0   7   3 1116.09 220.894   4
   0   7  -3 1287.18 234.392   4
   0   7   3 1323.35 252.571   1
   0   7   4 3569.81 400.723   4
   0   7  -4 3590.67 431.017   1
   0   7  -4 3467.75 402.884   4
   0   7   4 3793.39 427.835   1
   0   7   5 2995.07 368.628   4
   0   7  -5 3073.74 408.374   1
   0   7  -5 2624.39 354.168   4
   0   7   5 2736.87 365.314   1
   0   7  -6 11676.1 800.159   1
   0   7   6 11409.0 742.988   4
   0   7  -6 11514.1 764.041   4
   0   7  -7 629.587 193.822   1
   0   7  -7 948.001 184.265   3
   0   7   7 628.732 194.695   4
   0   7  -7 539.620 171.647   4
   0   7   8 2290.40 368.416   4
   0   7  -8 2246.37 291.066   3
   0   7  -8 3343.03 438.684   4
   0   7  -8 2447.21 383.311   1
   0   7  -9 1485.22 331.748   4
   0   7  -9 1328.97 298.046   1
   0   7  -9 1161.18 216.837   3
   0   7   9 1219.05 281.492   4
   0   7 -10 1785.07 283.504   3
   0   7  10 2181.56 387.029   4
   0   7 -10 1920.54 373.596   1
   0   7 -10 2044.31 385.166   4
   0   7 -11-67.9818 127.650   1
   0   7 -11 12.9099 59.8731   3
   0   7 -11-45.0662 120.989   4
   0   7  11 241.986 179.261   4
   0   7  12 1413.95 346.965   4
   0   7 -12 1896.60 326.237   3
   0   8   0 33490.2 1279.71   4
   0   8   0 31767.5 720.063   5
   0   8  -1 11912.7 386.073   5
   0   8  -1 11988.9 812.166   1
   0   8   1 10458.5 367.894   2
   0   8   1 11305.6 777.579   1
   0   8  -1 12847.4 800.671   4
   0   8   1 11695.2 762.211   4
   0   8  -2 11425.9 799.773   1
   0   8  -2 12639.9 343.505   5
   0   8  -2 11849.7 767.545   4
   0   8   2 11436.0 775.347   1
   0   8   2 11197.2 744.467   4
   0   8   3 10965.7 768.894   1
   0   8   3 11910.4 777.559   4
   0   8  -3 9796.05 702.000   4
   0   8  -3 10020.8 767.262   1
   0   8   4 19569.2 1039.86   1
   0   8  -4 18738.2 1046.03   1
   0   8   4 17617.7 950.348   4
   0   8  -4 20339.8 1029.47   4
   0   8   5 247.811 123.065   1
   0   8   5 176.077 124.592   4
   0   8  -5 552.301 201.655   1
   0   8  -5 767.845 217.980   4
   0   8  -6 329.410 156.642   1
   0   8   6 371.703 158.834   4
   0   8   6 210.782 127.400   1
   0   8  -6 433.918 158.865   4
   0   8   7 470.772 186.160   4
   0   8  -7 743.504 205.180   4
   0   8  -7 458.338 195.492   1
   0   8   7 336.701 157.895   1
   0   8   8 2075.57 370.294   4
   0   8  -8 3330.57 458.368   4
   0   8  -8 2103.05 377.825   1
   0   8  -8 2938.69 345.732   3
   0   8  -9 4870.94 584.483   4
   0   8   9 4410.36 559.232   4
   0   8  -9 3467.26 386.505   3
   0   8  -9 4331.75 547.858   1
   0   8  10 874.666 278.097   4
   0   8 -10 724.707 240.195   1
   0   8 -10 915.782 217.836   3
   0   8 -10 1045.33 291.261   4
   0   8  11 5264.27 655.065   4
   0   8 -11 4965.67 619.246   1
   0   8 -11 4419.53 476.244   3
   0   8 -11 6294.28 690.410   4
   0   9   0 65.8736 49.0996   5
   0   9   0 55.1043 108.335   4
   0   9   0-14.4188 80.4770   1
   0   9   1 7809.34 670.308   4
   0   9  -1 7036.12 638.125   4
   0   9  -1 8759.56 742.679   1
   0   9   1 8022.74 708.016   1
   0   9  -1 8037.62 315.107   5
   0   9  -2 8075.96 676.477   4
   0   9   2 8057.20 705.124   1
   0   9  -2 7108.79 675.891   1
   0   9   2 6300.42 596.416   4
   0   9  -3 20445.9 1159.24   1
   0   9   3 18464.7 1070.40   1
   0   9   3 18348.2 1026.23   4
   0   9  -3 16898.2 985.911   4
   0   9   4 537.654 192.252   4
   0   9  -4 452.159 172.503   1
   0   9   4 187.972 136.729   1
   0   9  -4 199.108 136.923   4
   0   9  -5 5107.05 559.328   4
   0   9  -5 5275.94 593.642   1
   0   9   5 4487.57 521.391   4
   0   9   5 4252.27 534.898   1
   0   9  -6 151.325 104.380   4
   0   9   6 27.0498 107.115   1
   0   9   6 45.0606 77.4566   4
   0   9   7 3424.37 491.707   4
   0   9   7 3936.19 537.045   1
   0   9  -7 2829.62 456.529   1
   0   9  -7 2669.17 434.407   4
   0   9  -8 3079.75 491.488   1
   0   9   8 1830.79 367.505   4
   0   9   8 2695.96 479.895   1
   0   9  -8 2782.57 438.488   4
   0   9  -8 2634.16 330.694   3
   0   9   9 1271.34 352.802   1
   0   9   9 1521.83 359.783   4
   0   9  -9 977.413 212.450   3
   0   9  -9 1096.74 305.789   1
   0   9  -9 1108.99 291.508   4
   0   9 -10 3786.76 436.843   3
   0   9 -10 4989.92 649.524   1
   0   9  10 3400.53 558.757   1
   0   9 -10 5088.95 676.357   4
   0   9  10 3097.69 530.631   4
   0   9 -11 8299.75 672.501   3
   0  10   0 7179.85 720.216   1
   0  10   0 7026.29 675.210   4
   0  10   1 7252.50 407.914   5
   0  10   1 8870.78 796.342   1
   0  10  -1 9352.62 781.392   4
   0  10  -1 8775.89 792.488   1
   0  10   1 8701.80 749.242   4
   0  10   2 276.849 167.181   1
   0  10  -2 283.504 152.275   4
   0  10   2 339.865 181.936   4
   0  10  -2 121.606 111.627   1
   0  10  -3 510.586 204.105   4
   0  10   3 440.251 178.550   1
   0  10  -3 463.767 189.741   1
   0  10   3 524.655 205.279   4
   0  10  -4 3413.23 506.113   1
   0  10  -4 3702.38 492.738   4
   0  10   4 2848.07 454.706   1
   0  10   4 3825.85 507.388   4
   0  10   5 3065.01 478.420   4
   0  10  -5 2948.69 460.269   4
   0  10  -5 2935.52 479.721   1
   0  10   5 2645.20 461.064   1
   0  10  -6 2817.13 470.842   1
   0  10   6 2210.62 409.349   4
   0  10   6 2348.37 430.309   1
   0  10  -6 2974.19 467.884   4
   0  10  -7 2000.70 408.773   4
   0  10  -7 2083.66 401.127   1
   0  10   7 1719.15 392.618   1
   0  10   7 2336.03 427.632   4
   0  10  -8 1955.11 304.693   3
   0  10  -8 1770.31 383.127   4
   0  10  -8 1978.77 405.965   1
   0  10   8 1459.54 348.707   4
   0  10   8 1094.13 330.794   1
   0  10   9 612.371 266.419   4
   0  10  -9 852.852 299.570   4
   0  10  -9 514.672 232.476   1
   0  10   9 724.441 280.047   1
   0  10  -9 274.573 143.484   3
   0  10 -10 1679.37 306.165   3
   0  11   0 212.844 164.600   1
   0  11   0-151.513 158.128   4
   0  11  -1 218.247 161.529   4
   0  11   1 838.931 280.551   1
   0  11   1 369.472 187.826   4
   0  11  -1 620.897 242.287   1
   0  11   2 876.140 267.770   4
   0  11  -2 1184.07 316.861   4
   0  11  -2 991.019 297.955   1
   0  11   2 519.630 209.369   1
   0  11  -3 1098.71 278.006   4
   0  11   3 877.569 288.432   1
   0  11   3 725.568 249.715   4
   0  11  -3 1108.79 335.610   1
   0  11   4 463.359 238.862   1
   0  11  -4 99.5110 117.780   1
   0  11   4 436.568 182.390   4
   0  11  -4 244.936 176.235   4
   0  11   5 2230.59 441.053   1
   0  11  -5 1721.31 362.731   4
   0  11   5 1442.57 343.797   4
   0  11  -5 1246.13 332.894   1
   0  11  -6 1057.49 311.581   1
   0  11   6 680.529 289.368   1
   0  11   6 1350.51 355.880   4
   0  11  -6 1268.77 332.320   4
   0  11   7 357.903 212.969   4
   0  11  -7 443.992 233.181   1
   0  11   7 192.425 209.331   1
   0  11  -7 313.820 176.011   4
   0  11  -8 1234.48 262.296   3
   0  11   8 1724.51 431.340   1
   0  11  -8 1363.63 371.133   1
   0  11   8 1273.24 360.898   4
   0  11  -8 1413.09 357.186   4
   0  11  -9 218.364 134.092   3
   0  12   0 11815.6 1051.43   1
   0  12   0 12815.3 1028.17   4
   0  12   1 35.9689 101.078   1
   0  12  -1 310.613 200.609   4
   0  12  -1-35.3382 119.963   1
   0  12   1 197.865 165.991   4
   0  12  -2 12260.6 1059.59   1
   0  12  -2 10453.9 936.741   4
   0  12   2 10886.1 1011.76   1
   0  12   2 10771.6 945.990   4
   0  12  -3 1809.94 413.197   1
   0  12  -3 1714.47 408.104   4
   0  12   3 1350.07 353.609   4
   0  12   3 1873.92 412.360   1
   0  12   4 2817.34 498.826   4
   0  12  -4 3102.08 540.102   1
   0  12   4 3424.56 578.014   1
   0  12  -4 4605.94 623.349   4
   0  12  -5 243.851 202.045   4
   0  12   5 279.667 191.085   4
   0  12  -5 180.389 210.031   1
   0  12   5 148.822 144.836   1
   0  12  -6 1189.14 361.908   4
   0  12  -6 1085.49 328.212   1
   0  12   6 1119.93 336.217   4
   0  12   6 776.693 277.720   1
   0  12   7 275.053 229.406   4
   0  12  -7-104.316 169.152   1
   0  12  -7 414.969 224.135   4
   0  12   7 122.975 141.877   1
   0  12  -8 950.962 224.843   3
   0  13   0 13.9242 149.236   4
   0  13   0-113.792 141.062   1
   0  13   1 4814.32 707.592   1
   0  13   1 4291.44 640.802   4
   0  13  -1 3188.07 580.519   1
   0  13  -1 3811.30 605.606   4
   0  13   2 1822.09 445.411   1
   0  13   2 1944.81 422.330   4
   0  13  -2 2851.14 562.767   1
   0  13  -2 1883.12 429.305   4
   0  13   3 3805.10 635.109   1
   0  13   3 4211.50 642.440   4
   0  13  -3 4287.76 630.199   4
   0  13  -3 3605.86 605.666   1
   0  13   4 14.8054 138.161   1
   0  13  -4 342.417 248.278   1
   0  13   4 473.638 301.955   4
   0  13  -4 46.0112 150.324   4
   0  13   5 2730.66 558.615   1
   0  13  -5 3549.65 583.899   4
   0  13  -5 3225.19 587.782   1
   0  13   5 3135.63 575.397   4
   0  14   0 1576.98 422.955   1
   0  14   0 3205.14 588.157   4
   0  14   1 3826.10 666.499   1
   0  14  -1 4668.94 748.891   1
   0  14  -1 5494.49 752.229   4
   0  14   1 4049.99 655.271   4
   0  14   2 34.5894 173.356   1
   1 -14  -3 57.8154 94.7654   7
   1 -14  -2 1008.47 254.359   7
   1 -14  -1 2249.00 356.783   7
   1 -14   0 118.111 119.109   7
   1 -14   1 1057.41 264.739   7
   1 -14   2 4281.03 506.220   7
   1 -13  -6 1705.52 334.022   7
   1 -13  -5-6.14009 103.909   7
  -1 -13   4 285.115 173.277   7
   1 -13  -4 178.096 108.559   7
  -1 -13   3 11632.5 831.539   7
   1 -13  -3 11386.5 767.253   7
   1 -13  -2 2202.28 335.879   7
  -1 -13   2 2284.76 368.429   7
  -1 -13   1 1855.94 325.121   7
   1 -13  -1 1521.85 277.744   7
  -1 -13   0 3589.97 448.220   7
   1 -13   0 3622.98 430.410   7
  -1 -13  -1 6988.91 627.831   7
   1 -13   1 6905.64 597.773   7
  -1 -13  -2 271.909 137.387   7
   1 -13   2 270.534 155.504   7
  -1 -13  -3 3821.74 471.299   7
   1 -13   3 4374.98 485.162   7
  -1 -13  -4 784.681 218.387   7
   1 -12  -8 1421.68 297.507   7
   1 -12  -7 1414.65 281.828   7
   1 -12  -6 3111.68 401.312   7
   1 -12  -5 880.428 224.729   7
  -1 -12   5 623.954 198.765   7
   1 -12  -4 1016.29 228.431   7
  -1 -12   4 1124.44 254.965   7
  -1 -12   3 3768.27 453.147   7
   1 -12  -3 4198.80 436.914   7
  -1 -12   2 4064.56 456.162   7
   1 -12  -2 4907.60 467.658   7
  -1 -12   1 2658.00 371.108   7
   1 -12  -1 3061.84 364.951   7
   1 -12   0 1765.00 290.242   7
  -1 -12   0 2040.52 324.459   7
   1 -12   1 3629.05 407.126   7
  -1 -12  -1 4520.95 471.912   7
   1 -12   2 6231.70 545.932   7
  -1 -12  -2 4380.37 471.362   7
   1 -12   3 434.038 151.316   7
  -1 -12  -3 412.952 161.555   7
  -1 -12  -4 78.6212 112.954   7
  -1 -12  -5 1433.18 289.283   7
  -1 -12  -6 1549.93 311.141   7
   1 -11  -9 783.958 219.512   7
   1 -11  -8 474.607 158.611   7
   1 -11  -7 1584.39 286.547   7
   1 -11  -6 279.185 130.515   7
   1 -11  -5 3509.25 396.928   7
  -1 -11   5 3044.24 388.266   7
  -1 -11   4 489.517 150.216   7
   1 -11  -4 742.226 185.244   7
   1 -11  -3 321.871 124.961   7
  -1 -11   3 165.090 109.375   7
   1 -11  -2 1902.19 269.041   7
  -1 -11   2 1179.52 229.647   7
   1 -11  -1 2290.06 304.265   7
  -1 -11   1 2478.40 332.670   7
  -1 -11   0 5857.39 514.666   7
   1 -11   0 4881.70 438.246   7
   1 -11   1 1900.35 286.061   7
  -1 -11  -1 1673.67 275.513   7
   1 -11   2 932.634 201.712   7
  -1 -11  -2 543.241 173.697   7
  -1 -11  -3 4686.44 460.354   7
   1 -11   3 4016.42 416.213   7
  -1 -11  -4 1988.76 309.341   7
  -1 -11  -5 686.018 206.645   7
  -1 -11  -6 1104.09 245.579   7
  -1 -11  -7 684.502 209.430   7
  -1 -11  -8 549.643 191.955   7
   1 -10 -10 1185.91 263.412   7
   1 -10  -9 420.390 163.757   7
   1 -10  -8 262.452 135.990   7
   1 -10  -7 3.80980 60.1540   7
   1 -10  -6 40.5704 76.7661   7
   1 -10  -5 1000.56 204.669   7
  -1 -10   5 999.324 207.456   7
   1 -10  -4 3524.61 362.031   7
  -1 -10   4 4179.43 430.563   7
   1 -10  -3 1036.24 198.674   7
  -1 -10   3 1392.50 240.706   7
  -1 -10   2 4313.89 414.188   7
   1 -10  -2 4831.92 416.186   7
   1 -10  -1 2398.34 286.084   7
  -1 -10   1 2115.72 287.924   7
   1 -10   0 4958.23 414.030   7
  -1 -10   0 5182.89 452.034   7
  -1 -10  -1 2331.18 303.188   7
   1 -10   1 2210.16 275.703   7
  -1 -10  -2 2138.25 289.044   7
   1 -10   2 1499.09 235.618   7
  -1 -10  -3 1994.56 289.283   7
   1 -10   3 2655.93 315.596   7
  -1 -10  -4 1544.86 262.360   7
  -1 -10  -5 539.305 152.135   7
  -1 -10  -6 3692.99 411.779   7
  -1 -10  -7 1975.63 321.410   7
  -1 -10  -8 2728.56 387.916   7
  -1 -10  -9 1881.49 338.607   7
   1  -9 -11 235.173 130.442   7
   1  -9 -10 1187.32 255.066   7
   1  -9  -9 2158.83 323.974   7
   1  -9  -8 1323.96 245.614   7
   1  -9  -7 2962.29 344.168   7
   1  -9  -6 2812.84 323.850   7
   1  -9  -5 124.121 94.4495   7
  -1  -9   5-88.4308 85.8968   7
  -1  -9   4 10882.4 647.302   7
   1  -9  -4 9126.06 548.327   7
   1  -9  -3 17076.2 732.916   7
  -1  -9   3 19261.3 837.380   7
  -1  -9   2 14927.1 722.215   7
   1  -9  -2 14019.1 654.687   7
  -1  -9   1 4689.65 405.495   7
   1  -9  -1 5553.17 407.706   7
  -1  -9   0 1067.93 133.039   2
   1  -9   0 1280.91 200.856   7
  -1  -9   0 1081.57 197.243   7
  -1  -9  -1 13408.0 434.033   2
  -1  -9  -1 12224.4 651.424   7
   1  -9   1 11924.7 599.491   7
  -1  -9  -2 7799.96 520.075   7
   1  -9   2 9361.40 543.829   7
  -1  -9  -2 8802.87 325.326   2
  -1  -9  -3 14613.6 389.051   2
  -1  -9  -3 14215.6 712.978   7
  -1  -9  -4 200.774 93.8642   7
  -1  -9  -5 3811.84 385.017   7
  -1  -9  -6 3528.13 387.633   7
  -1  -9  -7 6923.74 566.246   7
  -1  -9  -8 1775.70 302.662   7
  -1  -9  -9 3436.38 422.755   7
  -1  -9 -10 1195.35 260.646   7
   1  -8 -11 444.523 155.933   7
   1  -8 -10 5900.95 520.276   7
   1  -8  -9 801.945 190.493   7
   1  -8  -8 3211.31 347.546   7
   1  -8  -7 600.193 150.729   7
  -1  -8   7 696.870 120.954   6
   1  -8  -6 1390.84 215.456   7
  -1  -8   6 1328.54 160.094   6
   1  -8  -5 707.668 151.029   7
  -1  -8   5 998.056 192.472   7
  -1  -8   4 3593.04 349.438   7
   1  -8  -4 3473.82 312.888   7
  -1  -8   3 26521.7 914.960   7
   1  -8  -3 21673.5 765.117   7
   1  -8  -2 5328.87 373.916   7
  -1  -8   2 5532.41 407.763   7
  -1  -8   1 12117.5 601.254   7
  -1  -8   1 12703.2 459.274   2
   1  -8  -1 12446.5 569.087   7
   1  -8   0 7315.39 437.125   7
  -1  -8   0 6896.88 314.794   2
  -1  -8   0 6614.88 445.580   7
  -1  -8  -1 8874.03 515.724   7
  -1  -8  -1 9450.41 345.044   2
   1  -8   2 5135.61 143.004   6
  -1  -8  -2 4698.95 380.435   7
  -1  -8  -2 4432.57 223.921   2
  -1  -8  -3 7631.75 489.719   7
   1  -8   3 6941.14 445.348   7
  -1  -8  -3 7553.75 281.036   2
  -1  -8  -4 1521.65 226.048   7
  -1  -8  -4 1669.12 129.052   2
  -1  -8  -5 19887.3 837.962   7
  -1  -8  -5 19177.9 435.562   2
  -1  -8  -6 1064.54 202.524   7
  -1  -8  -7 435.552 140.694   7
  -1  -8  -8 6405.17 535.162   7
  -1  -8  -9 8164.22 625.134   7
  -1  -8 -10 2457.98 360.694   7
   1  -7 -12 1932.00 329.959   7
   1  -7 -11 862.658 207.753   7
   1  -7 -10 3009.48 367.426   7
   1  -7  -9 201.580 107.198   7
   1  -7  -8 1923.31 267.881   7
  -1  -7   7 16522.1 568.321   6
   1  -7  -7 14389.6 678.616   7
  -1  -7   6 10369.8 431.514   6
   1  -7  -6 8494.38 497.521   7
  -1  -7   5 31180.6 976.133   7
   1  -7  -5 29676.2 896.443   7
  -1  -7   5 31531.1 733.728   6
  -1  -7   4 4307.09 358.814   7
   1  -7  -4 3789.01 306.596   7
  -1  -7   3 21695.4 778.565   7
   1  -7  -3 21022.5 700.299   7
   1  -7  -2 2059.25 214.245   7
  -1  -7   2 2438.88 202.387   2
  -1  -7   2 2251.71 245.540   7
  -1  -7   1 6129.85 399.629   7
   1  -7  -1 6307.54 375.477   7
  -1  -7   1 6077.33 296.539   2
   1  -7   0 14449.4 561.594   7
  -1  -7   0 13814.4 604.769   7
  -1  -7   0 14342.6 426.303   2
   1  -7   1 1564.53 184.884   7
  -1  -7  -1 1879.53 146.607   2
  -1  -7  -2 4972.07 229.507   2
   1  -7   2 5270.08 349.387   7
  -1  -7  -2 4191.14 335.146   7
   1  -7   2 5067.73 120.210   6
  -1  -7  -3 3293.34 185.537   2
  -1  -7  -3 2822.59 282.360   7
   1  -7   3 3448.49 289.570   7
  -1  -7  -4 4615.28 369.809   7
  -1  -7  -4 4131.81 209.576   2
  -1  -7  -5 4271.37 370.647   7
  -1  -7  -5 4213.00 219.841   2
  -1  -7  -6 5027.04 254.744   2
  -1  -7  -6 6088.93 452.171   7
  -1  -7  -7 9352.58 585.623   7
  -1  -7  -8 2458.89 323.501   7
  -1  -7  -9 1276.07 247.198   7
  -1  -7 -10 800.432 189.640   7
  -1  -7 -11 809.125 229.846   7
   1  -7  11 446.203 187.632   4
  -1  -6  12 1497.12 332.864   4
   1  -6 -12 1370.92 274.026   7
   1  -6 -11 681.191 190.222   7
   1  -6 -10 350.093 134.296   7
   1  -6  -9 902.141 185.148   7
   1  -6  -8 1088.08 193.261   7
  -1  -6   7 1485.85 168.348   6
   1  -6  -7 1361.31 204.309   7
  -1  -6   6 17335.8 554.127   6
   1  -6  -6 16818.1 669.012   7
   1  -6  -5 6746.53 398.717   7
  -1  -6   5 6733.50 333.170   6
  -1  -6   4 13247.6 581.267   7
   1  -6  -4 13679.1 543.124   7
  -1  -6   4 13360.4 534.567   5
  -1  -6   3 6841.00 344.944   2
  -1  -6   3 6375.85 390.363   7
   1  -6  -3 6292.81 354.428   7
  -1  -6   2 3183.66 268.936   7
   1  -6  -2 3733.69 265.245   7
   1  -6  -1 10950.8 446.346   7
  -1  -6   1 11304.3 499.935   7
  -1  -6   1 11437.1 382.398   2
   1  -6   0 16668.5 549.935   7
  -1  -6   0 17952.2 625.897   7
  -1  -6   0 17927.6 455.603   2
   1  -6   1 4943.99 302.954   7
  -1  -6  -1 5028.68 334.924   7
  -1  -6  -1 5179.64 234.769   2
  -1  -6  -2 9894.09 476.461   7
   1  -6   2 9659.07 439.049   7
  -1  -6  -2 10105.2 324.223   2
   1  -6   3 5887.74 354.127   7
  -1  -6  -3 5541.35 366.905   7
  -1  -6  -3 5583.51 241.807   2
  -1  -6  -4 3452.63 196.764   2
   1  -6   4 4096.02 178.811   5
  -1  -6  -4 3904.93 322.441   7
  -1  -6  -5 475.013 113.981   7
  -1  -6  -5 541.470 84.7956   2
   1  -6   5 294.882 66.2530   5
  -1  -6  -6 6659.66 309.665   2
  -1  -6  -6 7197.81 475.275   7
  -1  -6  -7 1899.05 254.341   7
  -1  -6  -7 1587.79 161.319   2
  -1  -6  -8 3315.70 351.148   7
  -1  -6  -9 2943.58 352.013   7
   1  -6  10 2286.66 355.305   4
  -1  -6 -10 1789.00 298.244   7
  -1  -6 -11 886.431 212.788   7
   1  -6  11 528.751 178.301   4
  -1  -6 -12 530.615 195.033   7
   1  -6  12 654.162 214.875   4
   1  -5 -13 837.455 229.340   7
   1  -5 -13 757.273 215.254   1
  -1  -5  12 5090.63 562.101   4
   1  -5 -12 4596.64 474.713   1
   1  -5 -12 4914.67 504.826   7
  -1  -5  11 1056.15 240.278   4
   1  -5 -11 924.792 202.744   1
   1  -5 -11 897.247 211.931   7
   1  -5 -10 1842.04 283.431   7
   1  -5 -10 1580.56 256.865   1
   1  -5  -9 8508.89 547.113   1
   1  -5  -9 8619.27 553.986   7
   1  -5  -8 25316.6 892.062   7
   1  -5  -8 25251.4 894.707   1
   1  -5  -7 969.739 173.346   7
  -1  -5   7 1096.12 146.802   6
   1  -5  -7 923.816 81.3809   2
   1  -5  -7 1049.63 176.774   1
   1  -5  -6 2575.37 102.754   2
   1  -5  -6 2819.71 266.125   7
  -1  -5   6 2903.34 223.638   6
   1  -5  -5 7345.94 393.274   7
  -1  -5   5 8189.29 359.712   6
   1  -5  -4 37887.0 837.678   7
  -1  -5   4 38614.3 875.303   5
  -1  -5   3 8432.07 417.344   7
  -1  -5   3 7654.92 368.447   5
   1  -5  -3 7459.43 355.721   7
  -1  -5   3 8920.94 369.133   2
  -1  -5   2 28511.4 605.419   2
   1  -5  -2 28582.3 661.321   7
  -1  -5   2 29707.7 755.441   7
   1  -5  -2 30256.6 854.787   4
   1  -5  -1 4829.01 339.141   4
  -1  -5   1 5233.60 245.608   2
   1  -5  -1 5304.15 280.905   7
   1  -5   0 6688.05 434.283   1
  -1  -5   0 5891.30 245.347   2
  -1  -5   0 6356.97 342.264   7
   1  -5   0 6570.20 416.253   4
   1  -5   0 5681.74 286.796   7
  -1  -5  -1 51119.4 701.065   2
  -1  -5  -1 48594.9 951.766   7
   1  -5   1 48566.1 1225.77   1
   1  -5   1 50787.9 867.937   7
   1  -5   1 50760.1 1201.96   4
  -1  -5  -2 16826.8 405.668   2
  -1  -5  -2 17474.6 584.335   7
   1  -5   2 18399.5 551.726   7
  -1  -5  -3 9823.19 324.461   2
  -1  -5  -3 9771.58 457.835   7
   1  -5   3 9816.00 229.934   5
  -1  -5  -4 5324.26 354.924   7
   1  -5   4 5223.76 228.445   5
  -1  -5  -4 5175.01 248.234   2
  -1  -5  -5 240.280 74.8513   7
   1  -5   5 53.9220 33.7182   5
  -1  -5  -6 1880.46 235.399   7
   1  -5   6 1219.10 163.846   5
  -1  -5  -7 5919.58 436.949   7
  -1  -5  -8 7084.09 506.226   1
  -1  -5  -8 6506.68 487.420   7
  -1  -5  -9 2401.47 310.499   1
  -1  -5  -9 2872.97 334.595   7
  -1  -5 -10 1988.73 295.017   7
   1  -5  10 1628.97 287.106   4
  -1  -5 -10 2571.97 346.278   1
  -1  -5 -11 459.766 175.219   1
  -1  -5 -11 604.684 204.895   7
   1  -5  11 288.318 133.879   4
  -1  -5 -12 1264.98 277.365   1
   1  -5  12 1571.37 317.698   4
  -1  -5 -12 2297.08 356.187   7
  -1  -4  13 494.462 215.105   4
   1  -4 -13 313.698 144.132   1
   1  -4 -12 228.612 144.153   1
  -1  -4  12 214.207 141.231   4
   1  -4 -11-57.6825 63.5487   1
  -1  -4  11-0.63844 59.3460   4
   1  -4 -10 4266.46 405.782   1
   1  -4  -9 5507.80 426.740   1
   1  -4  -8 3553.03 323.181   1
  -1  -4   7 2859.98 234.872   6
   1  -4  -7 2488.04 252.809   1
   1  -4  -7 2560.75 157.307   2
   1  -4  -6 4021.52 166.133   2
   1  -4  -6 3948.57 291.570   1
  -1  -4   6 4100.20 267.127   6
   1  -4  -6 4451.38 320.643   7
   1  -4  -5 12954.8 500.091   7
  -1  -4   5 12793.5 440.653   6
   1  -4  -5 12157.2 232.852   2
   1  -4  -5 11917.4 486.615   1
  -1  -4   4 6403.42 349.556   5
   1  -4  -4 6381.11 327.197   7
   1  -4  -3 19279.2 600.472   4
  -1  -4   3 19370.5 581.180   7
  -1  -4   3 16610.5 471.158   2
   1  -4  -3 17381.4 489.815   7
  -1  -4   3 16661.7 525.211   5
  -1  -4   2 17130.1 504.373   5
   1  -4  -2 16850.2 458.936   7
  -1  -4   2 16192.5 430.680   2
   1  -4  -2 17991.3 579.553   4
  -1  -4   2 17559.9 521.472   7
   1  -4  -1 32469.5 607.833   7
  -1  -4   1 32930.5 992.635   1
  -1  -4   1 32555.6 571.319   2
   1  -4  -1 34280.6 794.975   4
  -1  -4   1 32528.9 959.042   4
  -1  -4   1 34749.8 718.882   7
  -1  -4   0 10115.3 529.123   1
   1  -4   0 9721.88 328.063   7
   1  -4   0 9176.68 440.998   4
   1  -4   0 9911.43 470.039   1
  -1  -4   0 9516.58 372.867   7
  -1  -4   0 9177.72 289.049   2
  -1  -4   0 9770.82 507.120   4
   1  -4   1 29314.8 588.593   7
   1  -4   1 29749.6 824.823   4
   1  -4   1 30357.3 878.058   1
  -1  -4  -1 30779.5 532.425   2
  -1  -4  -1 31600.9 900.891   4
  -1  -4  -1 31898.4 694.281   7
   1  -4   2 11333.8 564.357   1
  -1  -4  -2 11412.8 330.198   2
   1  -4   2 11685.8 545.549   4
   1  -4   2 12104.5 397.434   7
  -1  -4  -3 9966.19 423.428   7
  -1  -4  -3 10110.6 326.518   2
  -1  -4  -4 6278.48 359.402   7
  -1  -4  -5 5193.27 351.281   7
  -1  -4  -5 5340.23 357.736   1
  -1  -4  -6 3890.20 326.363   7
  -1  -4  -6 3429.40 298.181   1
  -1  -4  -7 7625.63 475.189   1
  -1  -4  -7 6397.94 444.080   7
  -1  -4  -8 8974.46 540.827   1
  -1  -4  -9 1467.71 239.128   1
   1  -4   9 1534.32 246.242   4
   1  -4  10 663.906 201.307   4
  -1  -4 -10 609.083 172.523   1
  -1  -4 -11 1154.89 240.263   1
   1  -4  11 994.578 232.472   4
  -1  -4 -12 1162.62 258.617   1
   1  -4  12 1159.85 265.269   4
  -1  -3  13 1331.43 299.906   4
   1  -3 -13 1406.93 280.438   1
  -1  -3  12 547.034 184.396   4
   1  -3 -12 1129.80 233.584   1
  -1  -3  11 480.671 151.321   4
   1  -3 -11 287.903 119.478   1
  -1  -3  10 1653.34 270.370   4
   1  -3 -10 1470.02 230.752   1
   1  -3  -9 1831.18 245.634   1
   1  -3  -8 8027.87 475.259   1
   1  -3  -7 1028.04 109.327   2
   1  -3  -7 1166.80 170.952   1
  -1  -3   7 1358.19 167.173   6
   1  -3  -6 9007.48 281.389   2
   1  -3  -6 8879.41 426.738   1
   1  -3  -5 39011.3 820.914   1
   1  -3  -5 40016.2 507.262   2
  -1  -3   4 885.520 112.383   2
   1  -3  -4 939.436 115.071   1
  -1  -3   4 723.526 118.298   5
  -1  -3   4 785.415 99.7632   6
   1  -3  -4 781.945 57.9117   2
   1  -3  -4 570.125 98.5842   4
  -1  -3   3 1400.05 203.865   1
  -1  -3   3 1258.19 142.321   5
  -1  -3   3 1496.68 143.086   7
   1  -3  -3 1522.08 151.162   4
   1  -3  -3 1542.67 143.195   6
  -1  -3   3 1230.20 119.256   2
   1  -3  -3 1487.26 134.852   7
  -1  -3   3 1433.74 197.825   4
   1  -3  -2 18755.6 431.364   6
   1  -3  -2 18073.3 408.414   7
  -1  -3   2 17561.2 644.692   4
  -1  -3   2 18241.3 470.771   7
   1  -3  -2 18905.2 492.262   4
  -1  -3   2 17559.8 680.613   1
  -1  -3   2 17471.9 495.319   5
  -1  -3   2 18562.6 428.059   2
   1  -3  -1 9602.41 349.858   4
  -1  -3   1 9885.53 293.965   2
   1  -3  -1 9762.67 258.957   6
  -1  -3   1 9899.11 465.794   4
  -1  -3   1 10490.4 491.503   1
  -1  -3   1 10324.0 344.111   7
   1  -3  -1 10045.4 282.660   7
   1  -3   0 1539.68 110.448   7
  -1  -3   0 1442.58 128.773   7
   1  -3   0 1625.91 80.2053   6
  -1  -3   0 1431.93 109.147   2
   1  -3   0 1343.45 146.549   1
  -1  -3   0 1771.04 188.787   4
  -1  -3   0 1798.70 200.785   1
   1  -3   0 1395.76 144.186   4
  -1  -3  -1 1791.96 191.601   4
   1  -3   1 1302.87 159.872   1
   1  -3   1 1599.37 119.168   7
   1  -3   1 1601.58 166.632   4
  -1  -3  -1 1564.62 137.013   7
  -1  -3  -1 1561.80 114.926   2
   1  -3   2 23419.2 679.413   4
   1  -3   2 23147.7 715.783   1
  -1  -3  -2 23430.5 559.982   7
  -1  -3  -2 23559.1 464.455   2
   1  -3   3 7827.28 423.917   4
   1  -3   3 7670.96 453.861   1
  -1  -3  -3 7353.35 343.489   7
  -1  -3  -4 7479.87 369.181   1
  -1  -3  -4 7873.00 387.511   7
  -1  -3  -5 9890.53 450.504   1
  -1  -3  -6 313.017 98.4619   1
   1  -3   7 2071.78 246.896   4
  -1  -3  -7 2031.45 239.414   1
   1  -3   8 575.083 138.647   4
  -1  -3  -8 763.144 157.908   1
  -1  -3  -9 5647.93 454.712   1
   1  -3   9 6018.77 480.123   4
   1  -3  10 382.210 151.662   4
  -1  -3 -10 410.118 132.764   1
  -1  -3 -11 266.812 131.736   1
   1  -3  11 123.831 122.144   4
   1  -3  12 1354.46 294.952   4
  -1  -3 -12 677.329 199.219   1
  -1  -3 -13 2452.54 373.069   1
   1  -3  13 2752.91 446.495   4
   1  -2 -13 1828.31 324.253   1
  -1  -2  13 2119.36 377.348   4
   1  -2 -12 1502.85 274.474   1
  -1  -2  12 777.010 211.040   4
  -1  -2  11 4457.98 460.100   4
   1  -2 -11 4090.10 414.366   1
  -1  -2  10 180.991 94.7465   4
   1  -2 -10 229.522 125.335   1
  -1  -2   9 4164.90 381.741   4
   1  -2  -9 4216.10 370.308   1
   1  -2  -8 10533.9 545.288   1
  -1  -2   8 11048.8 577.172   4
   1  -2  -7 417.068 101.922   1
   1  -2  -6 5945.28 342.721   1
   1  -2  -6 5850.17 245.961   2
  -1  -2   6 6028.15 321.011   6
  -1  -2   5 4331.18 251.715   6
   1  -2  -5 4410.40 189.512   2
   1  -2  -5 4356.01 265.994   1
  -1  -2   4 12320.1 471.810   5
   1  -2  -4 12352.6 271.625   2
   1  -2  -4 13061.6 419.228   4
   1  -2  -4 13190.5 449.808   6
  -1  -2   4 12587.7 392.641   6
  -1  -2   4 12498.1 584.748   1
  -1  -2   4 11565.0 530.455   4
   1  -2  -4 12043.5 393.354   1
  -1  -2   4 12231.3 387.666   2
   1  -2  -3 56795.4 774.407   4
  -1  -2   3 58328.8 924.171   5
  -1  -2   3 55192.7 1128.10   1
  -1  -2   3 60081.8 764.257   2
  -1  -2   3 53070.1 1049.47   4
   1  -2  -3 57311.2 483.640   2
   1  -2  -3 55971.2 743.486   1
  -1  -2   2 30422.8 737.067   4
  -1  -2   2 30656.7 770.395   1
  -1  -2   2 31973.1 556.418   7
   1  -2  -2 31460.5 474.996   7
  -1  -2   2 30930.2 511.194   2
   1  -2  -2 32452.2 300.576   2
   1  -2  -2 30891.6 470.962   1
   1  -2  -2 32047.5 518.979   4
  -1  -2   2 31674.2 621.530   5
  -1  -2   1 1008.80 126.590   4
   1  -2  -1 722.976 73.9826   4
   1  -2  -1 776.305 67.5159   6
  -1  -2   1 692.822 109.989   1
  -1  -2   1 719.368 76.4454   7
  -1  -2   1 762.851 74.8391   2
   1  -2  -1 555.024 54.3642   7
  -1  -2   0 13802.3 334.509   7
   1  -2   0 13493.0 250.558   7
   1  -2   0 13751.4 359.945   1
  -1  -2   0 13924.8 438.407   4
  -1  -2   0 13763.7 459.646   1
   1  -2   0 13761.9 346.877   4
  -1  -2   0 13709.3 310.400   2
   1  -2   0 13699.7 210.311   5
  -1  -2  -1 26993.5 610.992   4
   1  -2   1 25011.6 531.579   4
  -1  -2  -1 26266.0 446.270   2
   1  -2   1 24510.4 558.253   1
  -1  -2  -1 25366.4 479.012   7
  -1  -2  -2 74887.4 925.717   7
  -1  -2  -2 74638.3 924.852   1
   1  -2   2 74808.0 1046.67   4
   1  -2   2 73177.6 1091.04   1
   1  -2   3 21509.5 667.711   1
  -1  -2  -3 20506.4 522.451   1
   1  -2   3 22342.0 651.041   4
  -1  -2  -3 21074.3 590.534   4
  -1  -2  -4 34149.6 746.748   1
  -1  -2  -5 3053.18 243.546   1
   1  -2   6 21635.4 715.470   4
  -1  -2  -6 21475.3 706.762   1
   1  -2   7 7558.71 460.413   4
  -1  -2  -7 8600.88 478.742   1
   1  -2   8 2150.07 269.380   4
  -1  -2  -8 2614.72 277.520   1
   1  -2   9 5984.45 479.952   4
  -1  -2  -9 4671.60 403.952   1
   1  -2  10 1303.55 238.805   4
  -1  -2 -10 1210.91 223.594   1
   1  -2  11 568.043 178.241   4
  -1  -2 -11 622.230 182.444   1
  -1  -2 -12 814.483 210.543   1
   1  -2  12 1073.37 253.451   4
  -1  -2 -13 1552.48 317.285   1
   1  -2  13 1469.99 323.683   4
   1  -1 -14 3075.11 446.009   1
   1  -1 -13 1241.58 267.943   1
  -1  -1  13 1626.72 320.858   4
   1  -1 -12 742.324 182.261   1
  -1  -1  12 1361.70 265.307   4
  -1  -1  11 1350.09 250.994   4
   1  -1 -11 1410.53 251.954   1
   1  -1 -10 443.672 130.092   1
  -1  -1  10 229.838 104.612   4
   1  -1  -9 36.9993 50.3658   1
  -1  -1   9 9.12585 36.2118   4
  -1  -1   8 5024.88 382.728   4
   1  -1  -8 4512.19 355.982   1
  -1  -1   7 5501.32 371.009   4
   1  -1  -7 5845.81 375.384   1
   1  -1  -6 25242.1 711.972   1
   1  -1  -6 23817.4 544.667   2
   1  -1  -5 41644.6 823.153   1
  -1  -1   5 39962.7 761.004   6
   1  -1  -5 39689.7 618.087   2
   1  -1  -4 128897. 975.915   2
  -1  -1   4 128478. 1687.03   1
  -1  -1   4 131096. 1274.72   6
  -1  -1   4 131838. 1624.65   4
  -1  -1   4 130859. 1249.33   3
   1  -1  -4 126881. 1323.78   6
   1  -1  -4 125500. 1271.28   1
  -1  -1   3 202492. 1862.05   1
  -1  -1   3 210804. 1325.22   3
  -1  -1   3 203035. 1753.07   4
   1  -1  -3 205866. 1349.68   4
   1  -1  -3 205765. 1071.23   2
  -1  -1   3 196105. 1269.69   2
   1  -1  -3 204916. 1473.26   6
  -1  -1   3 201151. 1427.04   6
   1  -1  -2 259212. 1060.28   2
  -1  -1   2 238064. 1678.79   4
  -1  -1   2 261530. 1145.61   3
  -1  -1   2 271220. 1364.40   2
   1  -1  -2 247520. 1184.23   1
   1  -1  -2 265586. 1467.15   6
   1  -1  -2 256814. 1185.30   4
  -1  -1   2 245816. 1830.71   1
  -1  -1   1 1018.85 81.6313   2
  -1  -1   1 22031.1 332.942   7
   1  -1  -1 86859.3 450.290   1
   1  -1  -1 83343.6 739.004   5
   1  -1  -1 85434.9 469.256   4
  -1  -1   1 84993.7 953.842   1
  -1  -1   1 84656.3 899.743   4
   1  -1  -1 83906.0 454.930   7
  -1  -1   1 85024.0 889.484   5
  -1  -1   0 703.221 66.9901   7
  -1  -1   0 2123.56 122.243   2
  -1  -1   0 204578. 1339.13   1
  -1  -1   0 202337. 1287.07   4
   1  -1   0 205223. 1019.81   5
   1  -1   1 301197. 1430.56   4
  -1  -1  -1 302571. 1425.24   7
   1  -1   1 301633. 1482.44   1
  -1  -1  -1 304165. 1641.32   4
  -1  -1  -1 300820. 1150.27   3
   1  -1   2 57252.2 807.101   1
  -1  -1  -2 62067.4 678.871   3
  -1  -1  -2 63359.0 813.511   4
   1  -1   2 56930.9 789.872   4
  -1  -1  -2 60133.7 741.415   1
  -1  -1  -3 128372. 1161.74   3
   1  -1   3 34050.1 753.606   4
  -1  -1  -3 132766. 1271.08   1
  -1  -1  -3 133156. 1350.15   4
   1  -1   3 128667. 1212.87   4
   1  -1   3 33345.7 736.629   1
   1  -1   4 14780.7 469.979   4
   1  -1   4-4.82561 25.0067   1
  -1  -1  -4 14309.8 471.599   1
   1  -1   4-0.52336 29.3541   4
  -1  -1  -4 14711.1 443.884   3
  -1  -1  -5 29843.4 756.091   1
   1  -1   5 29600.1 743.127   4
  -1  -1  -6 9945.03 473.884   1
   1  -1   6 10766.6 496.306   4
  -1  -1  -7 68376.4 1341.15   1
   1  -1   7 69889.4 1392.31   4
  -1  -1  -8 21899.4 819.417   1
   1  -1   8 20890.4 821.432   4
  -1  -1  -9 6912.74 492.920   1
   1  -1   9 6812.17 512.527   4
   1  -1  10 7504.94 568.306   4
  -1  -1 -10 8218.10 572.317   1
  -1  -1 -11 12396.9 745.902   1
   1  -1  11 13159.9 805.102   4
   1  -1  12 5971.75 587.394   4
  -1  -1 -12 5445.84 520.764   1
  -1  -1 -13 501.199 190.461   1
   1  -1  13 447.043 215.032   4
  -1   0  14 4766.63 586.446   4
   1   0 -14 4882.87 548.313   1
  -1   0  13 315.751 173.705   4
   1   0 -13 99.0846 70.7715   1
  -1   0  12 3796.14 452.937   4
   1   0 -12 5451.96 516.905   1
  -1   0  11 1161.67 230.001   4
   1   0 -11 1168.09 230.373   1
  -1   0  10 11343.6 669.098   4
   1   0 -10 11160.9 651.167   1
  -1   0   9 2870.57 314.261   4
   1   0  -9 3558.28 350.577   1
   1   0  -8 17672.7 722.284   1
  -1   0   8 16585.6 690.944   4
   1   0  -7 942.728 161.376   1
  -1   0   7 640.565 123.292   4
  -1   0   6 9136.98 427.323   4
   1   0  -6 8537.67 430.109   1
  -1   0   5 119908. 1377.21   4
   1   0  -5 116899. 1149.78   2
   1   0  -5 115891. 1433.80   1
  -1   0   4 1513.27 136.036   4
   1   0  -4 1527.51 116.578   2
  -1   0   4 1563.06 168.129   1
  -1   0   4 1534.24 161.816   4
   1   0  -4 1543.85 147.999   1
  -1   0   4 1362.43 131.147   6
  -1   0   4 1689.13 145.276   3
   1   0  -4 1594.57 144.713   6
   1   0  -3 26242.1 538.123   4
   1   0  -3 24568.6 509.731   1
  -1   0   3 25561.1 551.989   4
   1   0  -3 25559.7 513.621   6
  -1   0   3 24711.2 406.912   2
   1   0  -3 25037.7 420.019   2
  -1   0   3 26260.4 512.812   6
  -1   0   3 25449.2 574.620   1
  -1   0   2 3537.18 165.756   4
  -1   0   2 3455.99 188.337   5
  -1   0   2 3036.84 152.803   6
   1   0  -2 3146.06 151.969   1
  -1   0   2 2989.07 159.653   1
  -1   0   2 3165.34 129.624   2
  -1   0   1 35185.0 413.864   1
   1   0  -1 6.76172 5.18829   2
   1   0  -1 36967.0 380.649   4
  -1   0   1 36376.4 539.025   5
   1   0  -1 36965.0 392.191   1
  -1   0   1-1.12154 7.34157   2
   1   0  -1 32787.1 285.953   7
  -1   0   1 35106.5 384.268   4
   1   0  -1-5.47916 12.3329   5
   1   0   0-1.75537 11.2793   5
  -1   0  -1 475432. 1563.70   4
   1   0   1 481714. 1575.32   4
  -1   0  -2 11020.5 301.651   3
  -1   0  -2 11163.7 306.809   1
  -1   0  -2 11138.6 304.585   4
   1   0   2 10620.6 297.021   4
  -1   0  -3 2440.64 166.697   3
  -1   0  -3 2589.66 174.734   1
   1   0   3 2263.16 161.979   4
  -1   0  -3 2762.92 182.161   4
  -1   0  -4 177.862 51.0713   3
   1   0   4-10.0944 30.5786   4
   1   0   4 146.898 48.3688   4
  -1   0  -4 191.070 61.2724   1
   1   0   4 0.95357 24.1583   1
  -1   0  -5 18413.9 596.211   1
  -1   0  -5 19791.7 596.061   3
   1   0   5 17868.3 588.061   4
   1   0   6 7197.03 410.688   4
  -1   0  -6 8309.37 419.025   3
  -1   0  -6 7631.37 418.898   1
  -1   0  -7 24097.5 806.492   1
  -1   0  -7 23916.4 751.570   3
   1   0   7 25031.2 836.080   4
  -1   0  -8 92068.8 1688.23   1
   1   0   8 92923.7 1746.94   4
   1   0   9 16907.9 803.595   4
  -1   0  -9 16468.1 761.840   1
  -1   0 -10 3122.85 360.678   1
   1   0  10 2653.74 351.207   4
   1   0  11 105.077 93.7685   4
  -1   0 -11 116.675 72.9143   1
  -1   0 -12 7173.59 607.686   1
   1   0  12 8660.56 713.748   4
  -1   0 -13 12703.7 863.042   1
   1   0  13 12076.0 907.595   4
  -1   1  14 3318.17 506.347   4
   1   1 -13 1511.26 301.087   1
  -1   1  13 1572.23 336.118   4
  -1   1  12 754.493 217.247   4
   1   1 -12 490.412 171.589   1
  -1   1  11 1299.06 247.217   4
   1   1 -11 1630.36 274.220   1
  -1   1  10 363.003 135.354   4
   1   1 -10 203.983 110.539   1
   1   1  -9 166.083 86.6754   1
  -1   1   9 20.7630 49.9576   4
  -1   1   8 4445.88 359.837   4
   1   1  -8 4847.05 388.833   1
  -1   1   7 5564.92 371.269   4
   1   1  -7 5925.61 405.320   1
  -1   1   6 24984.0 718.746   4
   1   1  -6 26048.1 792.199   1
  -1   1   5 37978.1 795.126   4
   1   1  -5 39713.0 908.021   4
   1   1  -5 38957.8 891.719   1
  -1   1   4 126559. 1457.76   4
  -1   1   4 127891. 1282.54   4
   1   1  -4 132368. 1534.00   1
  -1   1   4 130338. 1407.94   1
  -1   1   3 187412. 1313.15   4
  -1   1   3 192976. 1403.96   6
  -1   1   3 200089. 1444.67   1
   1   1  -3 202862. 1653.87   4
   1   1  -3 196440. 1688.51   1
  -1   1   3 197073. 1014.38   2
   1   1  -3 201309. 1248.17   3
  -1   1   2 250754. 976.774   2
   1   1  -2 250073. 1664.27   4
   1   1  -2 240463. 1699.33   1
  -1   1   2 255664. 1226.01   4
   1   1  -2 264899. 1656.26   5
  -1   1   2 258936. 1277.56   1
  -1   1   2 245883. 1376.59   6
   1   1  -2 275590. 1413.01   2
   1   1  -1 85825.5 939.710   1
   1   1  -1 85700.2 891.191   4
  -1   1   1 86179.4 516.034   4
  -1   1   1 88188.2 467.228   1
  -1   1   1 85160.1 773.658   5
  -1   1   1 84020.0 568.700   2
  -1   1   1 17201.1 303.078   6
   1   1  -1 1956.32 140.966   5
   1   1  -1 84752.6 748.763   2
  -1   1   0 208878. 1038.85   5
   1   1   0 201258. 1362.20   1
   1   1   0 196832. 1133.97   2
   1   1   0 209017. 1313.43   4
   1   1   1 304205. 1188.78   3
  -1   1  -1 299684. 1381.42   1
  -1   1  -2 58097.8 777.648   4
  -1   1  -2 59846.2 760.983   1
   1   1   2 61697.0 697.226   3
   1   1   2 58744.2 807.770   4
  -1   1  -3 131775. 1327.78   1
   1   1   3 134042. 1350.46   4
  -1   1  -4 14548.8 494.585   1
  -1   1  -4 14835.3 482.217   3
   1   1   4 14086.3 491.557   4
   1   1   5 27892.6 764.970   4
  -1   1  -5 29720.5 783.476   1
  -1   1  -5 29563.4 750.594   3
  -1   1  -6 9878.66 466.401   3
  -1   1  -6 10142.9 495.737   1
   1   1   6 10187.3 498.661   4
   1   1   7 66726.5 1387.33   4
  -1   1  -7 67856.4 1382.42   1
  -1   1  -8 24130.6 844.227   3
  -1   1  -8 23056.0 870.084   1
   1   1   8 21655.9 856.280   4
   1   1   9 6262.08 501.682   4
  -1   1  -9 7034.67 509.130   1
  -1   1 -10 8048.06 577.679   1
   1   1  10 5768.13 516.299   4
   1   1  11 12181.2 802.843   4
  -1   1 -11 13518.7 790.447   1
   1   1  12 6315.56 623.523   4
  -1   1 -12 7164.73 618.060   1
   1   1  13 568.064 213.039   4
  -1   1 -13 495.173 186.042   1
   1   2 -13 1836.52 333.794   1
  -1   2  13 1239.22 294.541   4
  -1   2  12 1989.32 345.188   4
   1   2 -12 1594.79 299.533   1
   1   2 -11 4355.76 455.697   1
  -1   2  11 4767.68 481.345   4
   1   2 -10 284.912 126.625   1
  -1   2  10 174.224 107.122   4
  -1   2   9 4461.50 403.835   4
   1   2  -9 4106.69 399.230   1
   1   2  -8 10666.9 613.068   1
  -1   2   8 9907.21 554.798   4
   1   2  -7 524.359 110.944   3
   1   2  -7 379.652 123.599   4
  -1   2   7 584.027 125.463   4
   1   2  -7 384.798 117.621   1
   1   2  -6 6207.88 332.900   3
   1   2  -6 6622.05 435.630   1
  -1   2   6 5711.08 357.440   4
   1   2  -5 4075.87 316.794   4
   1   2  -5 4887.31 271.068   3
   1   2  -5 4284.17 328.495   1
  -1   2   4 12345.1 429.613   4
   1   2  -4 12143.3 372.734   3
   1   2  -4 13112.9 400.119   2
  -1   2   4 13235.3 444.854   1
   1   2  -4 12517.3 509.030   4
   1   2  -4 13153.9 542.808   1
  -1   2   3 57781.9 779.416   1
  -1   2   3 57701.2 824.840   4
   1   2  -3 57480.8 697.156   3
   1   2  -3 59633.9 1089.35   1
   1   2  -3 59300.3 1043.53   4
   1   2  -2 31376.7 528.414   2
   1   2  -2 32856.8 726.041   4
   1   2  -2 32502.2 773.299   1
  -1   2   2 31812.6 259.241   2
  -1   2   2 32150.7 549.010   4
  -1   2   2 30945.9 480.390   1
   1   2  -2 31960.5 615.283   5
   1   2  -2 32502.9 422.841   3
   1   2  -1 778.648 79.7670   2
  -1   2   1 724.227 75.8785   4
  -1   2   1 552.999 68.9235   1
  -1   2   1 682.980 60.0999   7
   1   2  -1 868.136 113.925   4
   1   2  -1 694.695 107.862   1
   1   2  -1 603.347 83.4536   5
  -1   2   0 13513.5 200.313   6
  -1   2   0 13399.2 336.242   4
   1   2   0 14930.4 460.002   4
  -1   2   0 14008.7 360.101   1
   1   2   0 14223.9 462.331   1
  -1   2   0 13750.6 225.015   5
  -1   2   0 13321.4 257.040   7
   1   2   0 13840.4 327.221   2
  -1   2  -1 24222.3 489.673   4
   1   2   1 24042.9 574.056   4
  -1   2  -1 23971.2 392.767   7
  -1   2  -1 23991.1 512.318   1
  -1   2  -2 72798.9 950.816   4
   1   2   2 78394.5 796.735   3
   1   2   2 80914.8 987.920   1
   1   2   2 75658.0 1079.37   4
  -1   2  -2 74270.4 998.692   1
  -1   2  -3 20775.5 588.214   1
  -1   2  -3 21705.0 608.233   4
   1   2   3 22682.1 580.689   1
   1   2   3 21124.1 504.204   3
  -1   2  -4 33137.8 806.727   1
   1   2   4 34205.9 833.078   4
  -1   2  -4 34287.9 825.708   4
  -1   2  -4 32524.2 522.053   6
  -1   2  -5 2917.61 183.243   6
   1   2   5 2990.13 268.647   4
  -1   2  -5 3338.76 279.311   4
  -1   2  -5 2927.34 245.127   3
  -1   2  -5 2716.03 249.672   1
   1   2   6 22058.8 782.819   4
  -1   2  -6 22846.9 780.757   1
  -1   2  -6 22723.9 726.749   3
  -1   2  -7 8980.10 524.033   1
  -1   2  -7 7941.68 459.561   3
   1   2   7 8526.74 520.171   4
   1   2   8 2608.34 309.050   4
  -1   2  -8 2518.14 292.213   1
  -1   2  -8 2841.87 293.178   3
   1   2   9 4361.71 439.385   4
  -1   2  -9 5378.10 454.195   1
  -1   2 -10 1301.36 247.573   1
   1   2  10 1406.09 264.863   4
  -1   2 -10 1395.89 234.046   3
  -1   2 -11 717.850 184.795   1
   1   2  11 1051.23 249.154   4
  -1   2 -12 632.760 199.972   1
   1   2  12 776.216 260.527   4
  -1   2 -13 1125.02 274.968   1
   1   2  13 2175.15 402.428   4
   1   3 -13 1179.36 285.424   1
  -1   3  13 922.462 267.090   4
   1   3 -12 664.414 210.277   1
  -1   3  12 942.060 260.171   4
   1   3 -11 363.866 147.267   1
  -1   3  11 174.327 117.696   4
   1   3 -10 1353.73 249.002   1
  -1   3  10 1156.41 236.448   4
  -1   3   9 1639.84 258.723   4
   1   3  -9 1229.61 239.389   1
   1   3  -8 7804.29 551.274   1
   1   3  -8 7993.12 568.474   4
  -1   3   8 8219.76 535.671   4
   1   3  -8 7749.16 446.559   3
  -1   3   7 1099.13 183.317   4
   1   3  -7 1557.19 250.695   4
   1   3  -7 1062.65 154.209   3
   1   3  -7 1175.35 207.717   1
  -1   3   6 9749.48 496.632   4
   1   3  -6 9492.43 421.845   3
   1   3  -6 9794.49 574.697   1
   1   3  -6 8668.84 525.264   4
   1   3  -5 40307.9 793.056   3
   1   3  -5 41092.7 1068.01   4
  -1   3   5 40386.8 940.922   4
   1   3  -5 41207.2 1108.97   1
   1   3  -4 681.284 133.619   4
  -1   3   4 571.401 94.2710   1
   1   3  -4 936.923 108.995   3
  -1   3   4 687.242 114.224   4
   1   3  -4 1109.43 175.123   1
  -1   3   3 1555.22 159.301   4
   1   3  -3 1470.38 188.712   4
   1   3  -3 1506.19 135.729   2
   1   3  -3 1295.54 140.822   5
  -1   3   3 1373.41 131.170   1
   1   3  -3 1610.42 207.163   1
   1   3  -2 17255.0 613.838   4
  -1   3   2 18775.3 515.174   4
   1   3  -2 17402.0 432.872   2
   1   3  -2 17648.3 658.104   1
   1   3  -2 17591.4 464.983   7
   1   3  -2 18422.7 488.732   5
  -1   3   2 17816.9 422.685   1
   1   3  -1 10201.0 348.576   7
   1   3  -1 9450.62 442.111   4
   1   3  -1 8928.11 452.036   1
  -1   3   1 9345.95 283.108   7
  -1   3   1 9806.20 370.864   4
   1   3  -1 9819.37 308.751   2
  -1   3   1 9873.87 383.628   1
   1   3  -1 9072.73 338.610   5
   1   3   0 1697.24 184.909   4
   1   3   0 1795.03 146.539   7
   1   3   0 1499.35 179.559   1
  -1   3   0 2056.47 180.536   1
  -1   3   0 1634.18 117.036   7
  -1   3   0 1533.50 147.039   4
   1   3   0 1665.91 123.636   2
   1   3   1 1622.13 177.237   4
  -1   3  -1 1808.71 163.983   4
  -1   3  -1 1573.50 166.228   1
   1   3   1 1601.74 184.580   1
   1   3   1 1798.02 129.096   2
   1   3   1 1804.23 153.432   7
  -1   3  -1 1413.63 113.237   7
  -1   3  -2 24001.9 642.960   4
   1   3   2 25141.8 629.494   7
  -1   3  -2 24006.7 505.099   7
   1   3   2 25822.4 607.952   1
  -1   3  -2 23030.2 659.040   1
   1   3   2 23326.0 687.230   4
  -1   3  -3 7726.35 321.148   7
  -1   3  -3 8251.80 401.183   4
  -1   3  -3 7603.70 397.715   1
  -1   3  -3 7213.85 166.806   6
   1   3   4 7527.07 427.577   4
  -1   3  -4 8428.48 450.231   1
  -1   3  -4 8474.53 446.280   4
  -1   3  -4 7994.19 234.303   6
   1   3   5 10782.4 539.729   4
  -1   3  -5 10953.7 547.220   1
  -1   3  -5 9667.20 313.406   6
   1   3   6 226.469 96.3575   4
  -1   3  -6 143.200 89.7255   4
  -1   3  -6 292.084 88.8637   3
  -1   3  -6 233.130 59.6710   6
  -1   3  -6 362.930 104.234   1
  -1   3  -7 1788.44 247.673   1
   1   3   7 1553.70 236.308   4
  -1   3  -7 1587.16 208.300   3
  -1   3  -8 910.923 185.024   1
   1   3   8 589.983 155.654   4
  -1   3  -8 703.773 160.594   3
   1   3   9 7487.19 584.594   4
  -1   3  -9 6900.41 538.181   1
  -1   3  -9 6340.54 479.599   3
   1   3  10 716.470 200.966   4
  -1   3 -10 452.893 149.295   1
  -1   3 -10 413.555 134.812   3
   1   3  11 111.857 102.783   4
  -1   3 -11 411.317 142.726   3
  -1   3 -11 314.381 140.609   1
  -1   3 -12 876.373 238.884   1
   1   3  12 876.715 267.519   4
  -1   3 -13 3041.05 439.228   1
   1   3  13 2944.18 481.950   4
   1   4 -13 864.664 262.215   1
  -1   4  13 1008.34 271.814   4
   1   4 -12 306.405 158.417   1
  -1   4  12 384.260 191.656   4
   1   4 -11 46.1474 83.1041   1
  -1   4  11 74.1782 87.8228   4
   1   4 -10 4922.64 507.632   1
  -1   4  10 4782.50 481.258   4
  -1   4   9 5604.72 488.420   4
   1   4  -9 4556.00 372.415   3
   1   4  -9 5533.69 512.244   4
   1   4  -9 5688.16 514.926   1
   1   4  -8 4590.16 446.039   1
  -1   4   8 2989.30 340.218   4
   1   4  -8 4230.22 460.888   4
   1   4  -8 3801.18 327.834   3
  -1   4   7 3018.34 314.478   4
   1   4  -7 2831.48 335.405   4
   1   4  -7 2613.96 248.016   3
   1   4  -6 4010.36 284.210   3
  -1   4   6 3860.24 336.127   4
   1   4  -6 4423.77 397.751   4
   1   4  -6 4814.17 429.667   1
   1   4  -5 13674.7 721.216   1
   1   4  -5 12042.5 641.998   4
  -1   4   5 11911.1 556.665   4
   1   4  -5 12512.2 461.895   3
  -1   4   4 6132.20 375.726   4
   1   4  -4 6732.86 453.656   4
   1   4  -4 6756.00 478.416   1
   1   4  -3 17514.3 704.442   4
   1   4  -3 18502.0 782.063   1
  -1   4   3 18390.9 528.820   1
  -1   4   3 17350.1 602.914   4
   1   4  -3 17290.2 514.561   5
   1   4  -2 18019.7 707.956   4
   1   4  -2 16633.5 720.611   1
  -1   4   2 17014.1 605.853   1
  -1   4   2 17238.9 483.070   7
  -1   4   2 17162.8 584.221   4
   1   4  -2 17027.7 461.672   2
   1   4  -2 17508.2 504.192   5
  -1   4   2 17229.4 491.566   1
  -1   4   1 34142.3 846.533   1
   1   4  -1 31703.7 701.724   7
   1   4  -1 32690.0 612.157   2
   1   4  -1 35101.1 969.764   4
  -1   4   1 34260.8 636.118   7
   1   4  -1 32892.0 998.240   1
  -1   4   1 33414.0 812.619   4
  -1   4   1 31404.5 320.928   2
   1   4  -1 33709.9 691.999   5
  -1   4   0 9057.96 426.865   4
   1   4   0 6940.30 330.412   7
   1   4   0 7589.99 454.551   1
  -1   4   0 8785.36 319.840   7
  -1   4   0 9487.45 178.432   5
   1   4   0 9198.16 312.415   2
  -1   4   0 9100.06 448.667   1
   1   4   0 8078.81 453.633   4
  -1   4  -1 31451.0 625.736   7
  -1   4  -1 30279.2 843.249   1
   1   4   1 29895.2 866.473   4
   1   4   1 32492.4 581.181   2
  -1   4  -1 29782.9 793.562   4
   1   4   1 31685.7 929.849   1
   1   4   1 31687.9 720.032   7
  -1   4  -2 10604.6 487.742   4
   1   4   2 9582.72 516.070   1
  -1   4  -2 10925.3 387.192   7
   1   4   2 10013.9 505.174   4
  -1   4  -3 9215.78 479.820   4
  -1   4  -3 9028.12 495.342   1
   1   4   3 10317.8 533.498   4
  -1   4  -4 4967.80 378.088   1
   1   4   4 5806.84 408.587   4
  -1   4  -4 6208.87 407.607   4
  -1   4  -5 5540.75 420.278   1
   1   4   5 5166.95 406.940   4
  -1   4  -5 5819.22 423.317   4
  -1   4  -6 4082.54 378.973   1
  -1   4  -6 4772.71 427.375   4
  -1   4  -6 3967.38 328.762   3
   1   4   6 3397.32 349.274   4
  -1   4  -7 8482.44 564.903   1
  -1   4  -7 8031.56 495.474   3
  -1   4  -7 8930.96 588.481   4
   1   4   7 8258.34 566.603   4
   1   4   8 8730.77 617.300   4
  -1   4  -8 10298.4 650.073   1
  -1   4  -8 9272.52 554.359   3
   1   4   9 2059.71 315.636   4
  -1   4  -9 1491.27 263.320   1
  -1   4  -9 1393.94 224.884   3
  -1   4 -10 740.705 202.396   1
   1   4  10 607.983 192.495   4
  -1   4 -10 736.272 186.174   3
  -1   4 -11 812.590 213.340   3
   1   4  11 869.558 239.314   4
  -1   4 -11 929.908 228.802   1
  -1   4 -12 1174.93 251.310   3
   1   4  12 830.169 252.149   4
  -1   4 -12 1102.66 277.174   1
  -1   5  13 921.960 281.198   4
  -1   5  12 4819.63 569.866   4
   1   5 -12 4983.24 569.317   1
  -1   5  11 1155.63 270.979   4
   1   5 -11 727.940 216.139   1
  -1   5  10 1657.46 297.673   4
   1   5 -10 1417.96 237.926   3
   1   5 -10 1683.54 305.687   4
   1   5 -10 1913.35 329.807   1
   1   5  -9 9593.67 563.846   3
   1   5  -9 9717.96 713.276   1
  -1   5   9 8220.85 626.270   4
   1   5  -9 10161.3 749.986   4
  -1   5   8 26991.6 1076.18   4
   1   5  -8 25487.0 850.851   3
   1   5  -8 25817.8 1135.97   1
   1   5  -7 1419.62 252.214   4
   1   5  -7 1293.89 251.533   1
  -1   5   7 899.634 186.724   4
   1   5  -7 1030.82 162.060   3
  -1   5   6 2824.64 313.394   4
   1   5  -6 2585.02 240.390   3
   1   5  -6 2341.10 313.147   4
   1   5  -6 2606.73 342.708   1
   1   5  -5 8599.17 596.721   1
  -1   5   5 7690.63 483.313   4
   1   5  -5 7412.61 376.225   3
   1   5  -5 8154.03 563.293   4
   1   5  -4 36671.0 1160.19   4
  -1   5   4 37151.4 1030.80   4
  -1   5   3 7973.93 461.853   4
   1   5  -3 7251.36 511.338   4
   1   5  -3 7444.76 544.281   1
   1   5  -3 8068.66 369.058   5
  -1   5   3 8557.77 497.886   1
  -1   5   2 27913.9 859.632   4
  -1   5   2 29126.3 899.939   1
   1   5  -2 30428.8 1017.65   4
   1   5  -2 29556.2 683.206   5
   1   5  -2 29661.6 1057.38   1
  -1   5   2 29325.6 713.645   7
   1   5  -1 5250.34 413.294   4
  -1   5   1 5322.84 372.691   4
  -1   5   1 5152.34 284.898   7
   1   5  -1 5168.92 431.829   1
  -1   5   1 5507.19 389.327   1
   1   5  -1 5346.59 268.070   2
   1   5  -1 4800.97 280.391   5
  -1   5   1 4967.04 148.275   2
  -1   5   0 5736.16 298.723   7
  -1   5   0 6069.88 399.633   4
  -1   5   0 5431.09 191.577   2
   1   5   0 6141.93 449.045   4
   1   5   0 6924.62 495.952   1
   1   5   0 6238.95 279.248   2
   1   5   1 49746.3 1278.56   4
  -1   5  -1 46346.5 664.542   2
  -1   5  -1 47885.9 1126.38   4
   1   5   1 50102.1 1325.07   1
  -1   5  -1 50041.5 1214.23   1
   1   5   1 51585.9 794.180   2
  -1   5  -2 15594.3 654.243   4
  -1   5  -2 17576.4 751.474   1
   1   5   2 17254.9 736.232   4
   1   5   2 17228.7 771.605   1
   1   5   3 10005.9 565.602   4
  -1   5  -3 9781.90 564.452   1
   1   5   3 10836.6 612.282   1
  -1   5  -3 11080.4 573.549   4
   1   5   4 5606.44 441.968   4
  -1   5  -4 5830.25 432.491   4
  -1   5  -4 5779.17 452.436   1
   1   5   5 30.1603 65.0309   4
  -1   5  -5 179.683 99.4830   1
  -1   5  -5 68.1727 57.6675   4
  -1   5  -6 1668.78 255.862   4
   1   5   6 1607.73 262.747   4
  -1   5  -6 1720.92 262.623   1
  -1   5  -7 6724.05 535.362   1
   1   5   7 7044.20 563.187   4
  -1   5  -7 7834.15 597.607   4
  -1   5  -7 6142.99 446.962   3
  -1   5  -8 6194.92 533.022   1
   1   5   8 6158.17 551.862   4
  -1   5  -8 6391.89 480.379   3
  -1   5  -8 6496.54 552.881   4
  -1   5  -9 1955.25 284.043   3
   1   5   9 2575.63 374.628   4
  -1   5  -9 2095.51 315.710   1
  -1   5 -10 1995.07 302.395   3
   1   5  10 2280.42 379.320   4
  -1   5 -10 2007.56 333.881   1
  -1   5 -11 29.2883 55.6432   3
   1   5  11 147.868 127.482   4
   1   5  12 1158.39 297.358   4
  -1   5 -12 923.008 235.514   3
  -1   6  12 1270.05 316.902   4
   1   6 -12 1057.96 294.966   1
   1   6 -11 1053.33 273.127   1
   1   6 -11 533.451 156.550   3
  -1   6  11 1136.16 290.139   4
   1   6 -11 731.846 239.628   4
  -1   6  10 422.657 169.073   4
   1   6 -10 591.409 172.058   3
   1   6 -10 565.260 209.971   1
   1   6 -10 640.331 207.449   4
  -1   6   9 920.376 232.043   4
   1   6  -9 1569.47 321.707   4
   1   6  -9 1750.03 323.526   1
   1   6  -9 934.187 178.618   3
  -1   6   8 1289.65 265.594   4
   1   6  -8 1194.38 261.970   1
   1   6  -8 1660.21 300.919   4
   1   6  -8 1029.98 177.090   3
   1   6  -7 1200.18 179.048   3
   1   6  -7 1186.11 246.920   4
  -1   6   7 1134.20 223.796   4
   1   6  -7 1434.52 271.724   1
   1   6  -6 17176.8 926.392   4
   1   6  -6 15076.1 598.579   3
  -1   6   6 15256.1 785.314   4
  -1   6   5 6399.11 483.579   4
   1   6  -5 6260.19 556.877   1
   1   6  -5 7851.70 594.617   4
   1   6  -4 15253.5 798.560   4
  -1   6   4 13962.3 690.895   4
  -1   6   4 13063.2 695.615   1
   1   6  -4 15068.4 851.238   1
  -1   6   3 5962.85 442.778   4
   1   6  -3 6308.70 337.567   5
   1   6  -3 5341.15 471.871   4
   1   6  -3 6296.80 539.177   1
  -1   6   3 6352.28 481.031   1
   1   6  -2 3766.64 414.750   1
   1   6  -2 4470.47 423.101   4
  -1   6   2 4228.30 386.311   1
   1   6  -2 4346.97 277.248   5
  -1   6   2 3414.51 336.044   4
  -1   6   1 11102.5 600.556   4
   1   6  -1 11612.6 675.735   4
   1   6  -1 11245.2 453.178   5
  -1   6   1 11535.8 635.556   1
   1   6  -1 9632.15 652.753   1
  -1   6   1 11385.8 262.072   2
   1   6   0 16659.5 490.552   2
  -1   6   0 17712.3 806.454   1
  -1   6   0 17730.8 761.214   4
   1   6   0 18881.4 888.134   1
   1   6   0 17708.7 592.182   5
   1   6   0 18808.7 849.311   4
  -1   6  -1 4963.28 401.964   4
   1   6   1 5126.60 265.594   2
  -1   6  -1 4373.74 398.277   1
  -1   6  -1 4811.33 225.281   2
   1   6   1 5058.71 432.607   4
   1   6   1 5957.15 486.600   1
   1   6   2 10842.0 666.688   1
  -1   6  -2 9490.05 566.125   4
  -1   6  -2 9930.60 616.540   1
   1   6   2 10219.8 622.549   4
   1   6   3 5687.48 468.716   4
   1   6   3 5318.24 479.371   1
  -1   6  -3 5788.22 480.869   1
  -1   6  -3 5216.60 429.344   4
   1   6   4 2887.22 345.434   4
  -1   6  -4 3792.46 375.196   4
  -1   6  -4 4021.52 409.806   1
   1   6   4 4338.45 432.104   1
  -1   6  -5 619.383 162.001   4
  -1   6  -5 636.430 174.422   1
   1   6   5 640.608 172.600   4
   1   6   6 6531.11 545.541   4
  -1   6  -6 6655.72 533.682   4
  -1   6  -6 7577.80 581.283   1
   1   6   7 1877.27 306.139   4
  -1   6  -7 2014.93 310.531   1
  -1   6  -7 2386.90 295.385   3
  -1   6  -7 1973.47 310.446   4
   1   6   8 3235.83 417.256   4
  -1   6  -8 3728.11 386.239   3
  -1   6  -8 3007.59 387.006   1
  -1   6  -8 4343.75 477.418   4
  -1   6  -9 2325.64 359.573   1
   1   6   9 2864.22 414.839   4
  -1   6  -9 3202.13 418.686   4
  -1   6  -9 3560.39 389.516   3
  -1   6 -10 2291.47 332.651   3
   1   6  10 1610.61 346.392   4
  -1   6 -10 2415.31 372.542   1
  -1   6 -11 531.284 170.810   3
   1   6  11 590.402 207.678   4
  -1   6 -11 889.380 272.878   1
  -1   6 -12 628.621 188.552   3
   1   6  12 971.033 299.560   4
  -1   6 -12 919.727 268.424   1
  -1   7  12 2570.88 460.431   4
   1   7 -12 1594.25 289.310   3
  -1   7  11 896.421 250.148   4
   1   7 -11 1110.02 234.109   3
   1   7 -11 704.050 231.766   4
   1   7 -11 727.539 229.152   1
   1   7 -10 2737.37 435.233   1
   1   7 -10 3759.12 404.280   3
   1   7 -10 3305.15 506.483   4
  -1   7  10 3923.61 505.784   4
   1   7  -9 525.938 178.770   1
   1   7  -9 440.946 187.924   4
  -1   7   9 626.231 211.833   4
   1   7  -9 303.970 115.222   3
   1   7  -8 1692.30 328.186   1
  -1   7   8 2553.37 375.365   4
   1   7  -8 1918.28 245.825   3
   1   7  -8 2272.99 369.157   4
   1   7  -7 15523.8 966.713   1
  -1   7   7 13526.7 819.358   4
   1   7  -7 15237.1 667.734   3
  -1   7   6 9148.71 643.012   4
   1   7  -6 10117.7 762.516   1
   1   7  -6 10464.0 750.171   4
   1   7  -6 9324.34 492.092   3
   1   7  -5 30288.7 1243.36   4
  -1   7   5 29261.8 1120.06   4
  -1   7   5 27479.3 1128.79   1
   1   7  -4 4499.77 474.514   4
  -1   7   4 3998.44 404.821   4
   1   7  -4 4843.12 530.512   1
  -1   7   4 3717.12 411.876   1
   1   7  -3 21615.1 1017.16   4
  -1   7   3 22140.5 947.897   4
   1   7  -3 22175.7 1082.34   1
   1   7  -3 20913.6 624.604   5
  -1   7   3 20189.3 932.861   1
  -1   7   2 2523.48 313.157   4
   1   7  -2 1499.45 274.768   4
   1   7  -2 2436.39 355.223   1
   1   7  -2 2006.40 194.761   5
  -1   7   2 2293.95 310.740   1
  -1   7   2 2217.39 94.1624   2
  -1   7   1 5442.40 205.549   2
  -1   7   1 5649.33 468.125   4
   1   7  -1 5952.98 524.973   4
  -1   7   1 5791.01 499.072   1
   1   7  -1 5904.83 342.741   5
   1   7  -1 6191.60 565.478   1
  -1   7   0 14102.1 741.235   4
   1   7   0 13842.7 830.579   1
  -1   7   0 14974.8 811.219   1
  -1   7   0 12373.5 356.548   2
   1   7   0 13320.6 544.564   5
  -1   7   0 13652.4 286.581   5
   1   7   0 13813.6 795.840   4
  -1   7  -1 1325.14 232.930   4
  -1   7  -1 1632.91 272.962   1
   1   7   1 1399.79 152.494   2
   1   7   1 1700.55 270.151   4
   1   7   2 4228.72 444.969   4
  -1   7  -2 5640.47 507.796   1
  -1   7  -2 4450.58 423.103   4
   1   7   2 4189.81 455.561   1
   1   7   3 3283.12 390.543   4
  -1   7  -3 3301.54 366.935   4
   1   7   3 2518.78 355.290   1
  -1   7  -3 3052.18 374.573   1
   1   7   4 4326.70 449.746   4
   1   7   4 4355.91 466.039   1
  -1   7  -4 4759.48 452.407   4
  -1   7  -4 4098.10 439.799   1
  -1   7  -5 4262.97 439.213   4
  -1   7  -5 5284.11 517.540   1
   1   7   5 6013.01 559.907   1
   1   7   5 4683.90 477.771   4
  -1   7  -6 5364.86 501.848   4
   1   7   6 5304.99 524.753   4
  -1   7  -6 5129.34 518.391   1
  -1   7  -7 12093.0 809.637   1
  -1   7  -7 11713.7 778.020   4
  -1   7  -8 2785.61 397.835   1
   1   7   8 1795.57 332.489   4
  -1   7  -8 2196.12 304.539   3
  -1   7  -9 1389.93 300.679   1
   1   7   9 961.936 268.788   4
  -1   7  -9 955.788 215.840   3
  -1   7  -9 1215.93 282.498   4
  -1   7 -10 1416.74 275.966   3
  -1   7 -10 1133.98 266.772   1
   1   7  10 908.630 273.282   4
  -1   7 -10 1456.66 318.513   4
  -1   7 -11 557.865 224.502   1
  -1   7 -11 1138.43 255.244   3
   1   7  11 800.718 249.745   4
   1   8 -12 951.471 227.641   3
  -1   8  11 309.461 231.841   4
   1   8 -11 346.523 145.015   3
   1   8 -11 365.318 172.728   1
   1   8 -11 377.808 178.134   4
   1   8 -10 8584.48 818.751   1
   1   8 -10 6889.62 534.169   3
   1   8 -10 7401.33 768.937   4
  -1   8  10 7620.13 733.200   4
   1   8  -9 553.984 209.888   4
  -1   8   9 653.682 217.105   4
   1   8  -9 873.567 183.260   3
   1   8  -9 1145.67 306.187   1
   1   8  -8 3987.74 528.702   1
   1   8  -8 3359.16 465.747   4
   1   8  -8 3552.66 352.481   3
  -1   8   8 2957.52 421.564   4
   1   8  -7 991.395 273.701   1
  -1   8   7 575.777 193.818   4
   1   8  -7 905.515 250.360   4
   1   8  -7 616.794 146.018   3
  -1   8   7 449.144 167.927   1
   1   8  -6 1520.72 316.171   4
  -1   8   6 1591.61 309.021   1
  -1   8   6 1094.32 248.569   4
   1   8  -6 1206.46 290.057   1
  -1   8   5 797.554 216.489   1
  -1   8   5 458.752 157.614   4
   1   8  -5 626.307 187.816   4
   1   8  -5 1101.76 274.030   1
  -1   8   4 3023.22 386.689   4
  -1   8   4 2992.82 399.013   1
   1   8  -4 3010.15 406.785   4
   1   8  -4 2934.00 429.470   1
  -1   8   3 21173.9 1000.71   4
  -1   8   3 23912.6 1100.08   1
   1   8  -3 22359.6 1106.30   4
   1   8  -3 23111.1 667.304   5
   1   8  -3 23582.8 1197.88   1
  -1   8   2 4812.22 158.133   2
  -1   8   2 4832.83 477.622   4
  -1   8   2 4841.40 496.071   1
   1   8  -2 5658.45 336.321   5
   1   8  -2 5497.90 573.651   1
   1   8  -1 12197.2 808.052   4
  -1   8   1 12035.9 747.009   4
  -1   8   1 10519.7 318.138   2
  -1   8   1 11102.1 755.534   1
   1   8  -1 11363.0 496.652   5
  -1   8   0 5655.91 260.361   2
   1   8   0 6953.71 600.003   4
  -1   8   0 7753.74 601.399   4
   1   8   0 6180.23 600.926   1
  -1   8   0 6463.88 578.702   1
  -1   8   0 6654.15 194.923   5
   1   8   0 6078.42 380.575   5
   1   8   1 8823.33 675.885   4
   1   8   1 7981.49 674.637   1
  -1   8  -1 8945.54 645.551   4
  -1   8  -1 8962.45 681.330   1
   1   8   2 5186.60 537.687   1
   1   8   2 3817.94 449.984   4
  -1   8  -2 5189.04 497.048   4
  -1   8  -2 5707.14 554.400   1
   1   8   3 6768.55 606.783   4
  -1   8  -3 7221.87 625.826   1
   1   8   3 6715.45 623.612   1
  -1   8  -3 6982.52 574.689   4
  -1   8  -4 1721.60 316.754   1
   1   8   4 1448.08 281.038   4
  -1   8  -4 1713.39 298.038   4
   1   8   4 1862.79 334.347   1
   1   8   5 19275.6 1040.69   4
   1   8   5 19255.9 1078.57   1
  -1   8  -5 18550.7 1036.13   1
  -1   8  -6 1657.76 309.527   1
  -1   8  -6 937.188 221.000   4
   1   8   6 1135.08 266.809   1
   1   8   6 1093.27 246.255   4
  -1   8  -7 455.776 186.625   1
  -1   8  -7 245.860 132.675   4
   1   8   7 241.228 130.161   1
   1   8   7 291.739 161.017   4
  -1   8  -8 6656.39 652.646   1
  -1   8  -8 5096.89 474.877   3
  -1   8  -8 6041.49 617.748   4
   1   8   8 7573.08 744.002   4
  -1   8  -9 9518.05 805.625   1
  -1   8  -9 9019.80 794.756   4
  -1   8  -9 9052.97 668.365   3
   1   8   9 7313.98 723.460   4
   1   8  10 2642.98 469.726   4
  -1   8 -10 2041.77 392.464   1
  -1   8 -10 1641.04 363.095   4
  -1   8 -10 2379.63 346.698   3
  -1   8 -11 1930.03 399.609   1
  -1   8 -11 1496.83 300.007   3
   1   9 -11 56.8760 79.1767   3
  -1   9  11 417.863 215.725   4
   1   9 -10 930.731 205.843   3
  -1   9  10 615.779 264.669   4
   1   9 -10 877.560 286.799   4
   1   9 -10 1049.97 306.578   1
  -1   9  10 1229.27 336.791   1
  -1   9   9 1855.58 388.649   4
   1   9  -9 2527.04 456.915   4
   1   9  -9 1398.97 333.319   1
  -1   9   9 1971.51 390.597   1
   1   9  -9 1756.26 262.575   3
   1   9  -8 1090.46 319.706   1
  -1   9   8 1076.09 297.229   4
   1   9  -8 1440.25 323.979   4
   1   9  -8 974.735 198.950   3
  -1   9   8 868.841 273.799   1
  -1   9   7 3396.73 463.868   4
   1   9  -7 3406.20 506.556   4
   1   9  -7 2800.71 307.096   3
  -1   9   7 3588.92 493.656   1
   1   9  -7 3839.80 548.014   1
  -1   9   6 2991.04 423.636   4
   1   9  -6 2558.01 413.551   4
  -1   9   6 3094.64 462.254   1
   1   9  -6 2543.95 426.166   1
   1   9  -5 34.8799 94.1650   4
  -1   9   5-18.1986 113.715   1
   1   9  -5-44.7358 87.0598   1
  -1   9   4 9878.64 747.709   4
   1   9  -4 9447.28 761.146   4
  -1   9   4 9268.51 751.717   1
   1   9  -4 11184.6 893.081   1
   1   9  -3 18880.2 611.498   5
  -1   9   3 17779.0 1023.38   1
  -1   9   3 18776.5 1017.17   4
   1   9  -3 20137.4 1117.92   4
   1   9  -3 20073.9 1175.63   1
   1   9  -2 14775.6 558.111   5
  -1   9   2 15175.8 943.599   1
  -1   9   2 15338.5 911.023   4
   1   9  -2 13734.9 958.128   1
   1   9  -1 6469.70 624.134   4
  -1   9   1 5423.43 539.389   4
   1   9  -1 5390.44 600.712   1
  -1   9   1 5199.68 569.763   1
   1   9  -1 4821.15 333.957   5
   1   9   0 901.335 256.008   1
   1   9   0 724.574 220.628   4
   1   9   0 522.574 121.508   5
  -1   9   0 1020.21 255.310   1
  -1   9   0 1135.80 252.429   4
  -1   9  -1 12491.6 812.704   4
   1   9   1 12132.3 890.486   1
  -1   9  -1 13258.0 882.774   1
   1   9   1 12926.5 883.425   4
   1   9   1 11857.3 594.649   5
  -1   9  -2 9545.20 761.184   1
   1   9   2 7069.46 673.070   1
   1   9   2 9160.29 742.048   4
  -1   9  -2 9436.43 715.788   4
  -1   9  -3 16103.0 993.100   1
   1   9   3 13372.1 928.520   1
   1   9   3 14465.0 941.845   4
  -1   9  -3 15982.1 927.052   4
   1   9   4 133.086 96.5083   4
  -1   9  -4 119.663 98.5242   4
   1   9   4 170.929 123.951   1
  -1   9  -4 134.964 119.682   1
  -1   9  -5 3620.67 464.156   4
   1   9   5 3345.34 467.464   4
   1   9   5 3831.04 516.509   1
  -1   9  -5 4756.05 549.741   1
  -1   9  -6 4294.20 509.377   4
  -1   9  -6 2810.85 423.686   1
   1   9   6 4084.26 524.372   4
   1   9   6 3359.64 503.604   1
  -1   9  -7 7013.56 662.402   4
  -1   9  -7 5653.55 614.841   1
   1   9   7 6055.33 677.631   1
   1   9   7 5849.15 643.570   4
   1   9   8 1419.16 337.208   4
  -1   9  -8 2283.61 399.000   1
  -1   9  -8 1625.28 283.182   3
  -1   9  -8 2037.67 379.113   4
   1   9   8 1896.18 407.950   1
  -1   9  -9 2907.69 473.285   1
  -1   9  -9 4014.32 577.781   4
   1   9   9 3218.11 518.132   4
   1   9   9 2777.86 509.627   1
  -1   9  -9 3444.75 435.281   3
  -1   9 -10 640.137 226.819   1
   1   9  10 253.968 184.829   1
  -1   9 -10 455.165 185.373   4
   1   9  10 167.866 153.494   4
  -1   9 -10 561.024 179.733   3
  -1  10  10 1218.18 346.725   1
  -1  10  10 810.851 298.598   4
  -1  10   9 287.118 221.003   1
   1  10  -9 480.813 219.578   4
   1  10  -9 157.853 155.330   1
   1  10  -9 473.479 145.305   3
  -1  10   9 337.675 213.130   4
  -1  10   8 383.661 234.623   1
  -1  10   8 83.7032 112.522   4
   1  10  -8 412.152 227.018   4
   1  10  -8 294.537 180.148   1
   1  10  -8 311.829 121.637   3
   1  10  -7 144.943 178.344   1
  -1  10   7 71.0328 106.064   4
   1  10  -7-49.2719 47.4447   3
  -1  10   7 28.6883 119.075   1
   1  10  -6 63.3800 91.2556   1
  -1  10   6 64.1624 124.703   1
  -1  10   6 52.8814 96.4450   4
   1  10  -6 130.044 133.740   4
   1  10  -5 524.800 197.498   4
  -1  10   5 1168.06 309.999   1
  -1  10   5 831.797 251.727   4
   1  10  -5 692.302 242.068   1
  -1  10   4 3300.44 488.627   1
  -1  10   4 3691.01 487.112   4
   1  10  -4 4224.00 541.056   4
   1  10  -4 3944.02 557.190   1
   1  10  -3 1042.93 310.989   1
   1  10  -3 839.239 242.192   4
  -1  10   3 1418.29 326.882   1
  -1  10   3 1076.82 274.665   4
   1  10  -2 4601.10 559.388   4
  -1  10   2 3693.84 472.988   4
   1  10  -2 3768.27 539.116   1
  -1  10   2 3044.78 464.904   1
   1  10  -1 1900.56 218.763   5
  -1  10   1 2514.20 418.302   1
  -1  10   1 3106.60 441.592   4
   1  10  -1 2833.28 467.925   1
   1  10  -1 1975.60 375.285   4
   1  10   0 4588.68 357.216   5
   1  10   0 5143.04 596.223   4
  -1  10   0 5508.46 585.393   4
   1  10   0 4341.97 572.813   1
  -1  10   0 4425.74 545.125   1
   1  10   1 3720.40 538.992   1
  -1  10  -1 2467.24 391.787   4
   1  10   1 2974.38 450.355   4
   1  10   1 2398.86 271.539   5
  -1  10  -1 2693.60 437.339   1
   1  10   2 864.354 249.711   4
  -1  10  -2 1510.19 312.204   4
   1  10   2 2053.35 415.662   1
  -1  10  -2 1532.96 334.115   1
  -1  10  -3 2387.88 410.024   1
   1  10   3 1952.97 375.367   4
   1  10   3 2262.04 428.586   1
  -1  10  -3 1691.27 327.400   4
   1  10   4 1807.52 382.108   1
  -1  10  -4 1679.14 344.111   1
  -1  10  -4 1548.68 311.295   4
   1  10   4 2095.11 384.381   4
  -1  10  -5 399.236 198.792   1
   1  10   5 1145.52 309.272   1
  -1  10  -5 904.678 254.735   4
   1  10   5 384.401 190.520   4
   1  10   6 4675.47 599.413   4
   1  10   6 3409.94 528.287   1
  -1  10  -6 4621.22 583.742   1
  -1  10  -6 4054.68 530.968   4
   1  10   7 1901.20 399.315   4
   1  10   7 1818.58 417.716   1
  -1  10  -7 2242.84 406.484   4
  -1  10  -7 2542.71 441.087   1
   1  10   8 3017.01 512.388   4
   1  10   8 2156.39 444.199   1
  -1  10  -8 3320.67 503.712   4
  -1  10  -8 2679.69 470.045   1
  -1  10  -9 3699.97 550.313   1
  -1  10  -9 3014.03 412.639   3
   1  10   9 2666.51 501.989   4
  -1  10  -9 4433.01 608.535   4
   1  10   9 3635.61 610.617   1
  -1  11   9 414.631 257.151   1
  -1  11   9 1264.55 372.285   4
   1  11  -8 394.508 222.573   4
   1  11  -8 630.499 266.574   1
  -1  11   8 498.526 227.247   1
  -1  11   8 309.037 189.542   4
  -1  11   7 1968.86 429.067   1
   1  11  -7 1407.28 244.927   3
   1  11  -7 1735.39 446.666   1
  -1  11   7 1861.74 410.847   4
   1  11  -7 1359.82 362.752   4
  -1  11   6 281.864 183.029   1
   1  11  -6 104.075 128.378   4
   1  11  -6 494.783 230.163   1
  -1  11   6 219.341 170.542   4
   1  11  -5 3714.68 586.489   1
  -1  11   5 2917.35 480.889   4
   1  11  -5 2894.36 499.878   4
  -1  11   5 2628.35 476.451   1
  -1  11   4 554.575 223.018   1
  -1  11   4 308.933 158.079   4
   1  11  -4 566.178 229.658   1
   1  11  -4 619.644 226.741   4
  -1  11   3 46.0168 138.676   1
   1  11  -3 59.2678 114.657   4
   1  11  -3 92.8343 141.240   1
  -1  11   3 126.096 112.403   4
   1  11  -2 1393.99 351.576   4
  -1  11   2 1979.02 366.044   4
  -1  11   2 1166.55 310.799   1
   1  11  -2 979.854 295.227   1
  -1  11   1 2880.53 473.284   1
  -1  11   1 2540.28 426.601   4
   1  11  -1 2441.11 462.763   1
   1  11  -1 2884.38 480.957   4
  -1  11   0 4010.39 535.365   4
  -1  11   0 4243.34 576.267   1
   1  11   0 4307.20 614.392   1
   1  11   0 4411.57 582.312   4
   1  11   1 935.968 286.624   4
   1  11   1 1634.23 393.789   1
  -1  11  -1 1790.57 386.967   1
  -1  11  -1 1455.28 320.671   4
  -1  11  -2 484.688 195.707   1
   1  11   2 380.403 192.667   1
   1  11   2 832.550 266.747   4
  -1  11  -2 605.237 224.621   4
   1  11   3 4835.68 616.221   4
  -1  11  -3 3910.87 525.950   4
   1  11   3 4656.90 630.344   1
  -1  11  -3 5128.64 632.443   1
   1  11   4 1566.98 364.565   4
  -1  11  -4 1802.61 364.426   4
  -1  11  -4 1326.27 337.649   1
   1  11   4 1524.29 369.275   1
  -1  11  -5 712.624 263.820   1
   1  11   5 491.682 202.705   4
  -1  11  -5 648.251 208.588   4
   1  11   5 345.179 195.284   1
   1  11   6 702.082 304.790   1
  -1  11  -6 815.140 264.184   1
  -1  11  -6 743.547 235.796   4
   1  11   6 579.667 242.867   4
  -1  11  -7 505.600 228.085   1
  -1  11  -7 192.707 177.620   4
   1  11   7 261.350 153.566   4
   1  11   7 425.442 226.473   1
  -1  11  -8 337.877 180.404   1
   1  11   8 598.716 263.324   4
  -1  11  -8 222.403 154.129   4
  -1  12   8 1153.93 394.973   1
  -1  12   8 2255.54 489.572   4
  -1  12   7 919.905 332.748   1
  -1  12   7 592.149 257.961   4
   1  12  -6 2390.74 479.137   4
  -1  12   6 3314.25 568.216   4
  -1  12   6 2597.95 510.532   1
   1  12  -6 3352.40 582.600   1
  -1  12   5 1586.35 390.656   1
   1  12  -5 604.780 261.020   4
  -1  12   5 595.384 256.788   4
   1  12  -5 845.778 299.079   1
  -1  12   4 1931.10 413.251   1
   1  12  -4 2444.04 469.773   4
   1  12  -4 1616.11 422.252   1
  -1  12   4 1305.61 348.357   4
  -1  12   3 4317.73 590.610   4
   1  12  -3 3267.82 535.199   4
  -1  12   3 3114.41 548.607   1
   1  12  -3 3346.57 573.320   1
  -1  12   2 4755.24 624.130   4
  -1  12   2 4287.65 620.561   1
   1  12  -2 3465.51 563.331   4
   1  12  -2 3565.89 596.375   1
  -1  12   1 3507.99 555.251   1
   1  12  -1 2950.86 495.846   4
  -1  12   1 3310.23 509.427   4
   1  12  -1 4220.68 634.844   1
  -1  12   0 1932.88 424.456   1
   1  12   0 2488.28 467.691   4
  -1  12   0 2014.22 411.619   4
   1  12   0 2629.39 511.832   1
  -1  12  -1 4684.41 605.383   4
   1  12   1 4388.40 606.445   4
   1  12   1 4094.16 626.470   1
  -1  12  -1 4002.73 599.312   1
   1  12   2 4491.14 667.461   1
  -1  12  -2 3991.02 557.920   4
  -1  12  -2 5144.80 679.771   1
   1  12   2 3985.14 588.670   4
   1  12   3 740.348 282.281   1
  -1  12  -3 485.645 223.396   4
  -1  12  -3 248.320 162.773   1
   1  12   3 495.382 238.111   4
   1  12   4-22.1567 118.521   1
  -1  12  -4 236.746 174.887   4
   1  12   4 196.983 174.583   4
  -1  12  -4-48.8215 129.682   1
   1  12   5 1548.31 396.314   4
  -1  12  -5 1651.77 393.985   1
   1  12   5 682.594 303.966   1
  -1  12  -5 1687.00 382.124   4
  -1  12  -6 1938.09 458.073   1
   1  12   6 2005.92 460.208   4
   1  12   6 2148.14 484.256   1
  -1  12  -6 2477.57 463.388   4
  -1  12  -7 1960.37 430.481   1
  -1  12  -7 1618.60 401.164   4
  -1  13   6 1666.84 433.711   1
  -1  13   6 700.856 298.270   4
  -1  13   5 178.328 198.961   4
  -1  13   5 138.420 231.233   1
  -1  13   4 87.5973 157.748   1
  -1  13   4 274.888 221.652   4
   1  13  -4 105.250 144.277   4
   1  13  -4 302.822 188.731   1
   1  13  -3 13355.6 1210.41   1
  -1  13   3 9461.82 948.393   4
   1  13  -3 11319.7 1045.71   4
  -1  13   3 10355.6 1038.83   1
  -1  13   2 2020.51 468.171   1
  -1  13   2 2120.24 1187.55   4
   1  13  -2 2451.83 510.403   4
   1  13  -2 2506.00 551.788   1
  -1  13   1 1126.10 339.613   1
   1  13  -1 1120.63 336.506   4
   1  13  -1 1258.53 382.108   1
  -1  13   1 1371.40 376.699   4
   1  13   0 3693.12 611.074   4
   1  13   0 3609.66 635.429   1
  -1  13   0 3464.16 572.649   4
  -1  13   0 3034.26 550.638   1
   1  13   1 7212.39 831.673   4
  -1  13  -1 5028.60 675.299   4
   1  13   1 7778.55 925.081   1
  -1  13  -1 6121.98 770.676   1
   1  13   2 210.094 237.482   4
  -1  13  -2 267.454 184.457   1
   1  13   2 843.794 320.115   1
  -1  13  -2 253.608 197.484   4
  -1  13  -3 5065.21 715.446   1
   1  13   3 3988.34 631.995   4
  -1  13  -3 4058.75 614.334   4
   1  13   3 5887.25 851.288   1
   1  13   4 888.305 333.200   1
  -1  13  -4 324.692 209.023   4
   1  13   4 798.950 305.404   4
  -1  13  -4 529.056 244.873   1
  -1  13  -5 6129.77 744.997   4
  -1  13  -5 5112.98 719.726   1
  -1  14   3-198.375 216.527   1
  -1  14   3 58.2927 197.796   4
  -1  14   2 908.572 327.082   4
  -1  14   2 1463.04 426.547   1
  -1  14   1 2111.71 474.451   4
  -1  14   1 1714.36 416.440   1
  -1  14   0 216.719 194.244   4
  -1  14   0 307.758 243.016   1
  -1  14  -1 524.400 313.976   1
  -1  14  -1 545.286 272.574   4
  -1  14  -2 3291.52 565.723   4
  -1  14  -2 4786.52 717.841   1
   2 -14  -2 2995.59 407.270   7
   2 -14  -1 2351.32 355.962   7
   2 -14   0-19.5152 122.657   7
   2 -14   1 1417.40 292.963   7
   2 -14   2 336.258 177.539   7
   2 -13  -5 846.963 223.440   7
   2 -13  -4 4232.07 459.948   7
   2 -13  -3 2118.98 323.330   7
  -2 -13   3 1778.33 340.122   7
   2 -13  -2 3319.56 399.416   7
  -2 -13   2 4218.07 493.924   7
  -2 -13   1 495.518 190.415   7
   2 -13  -1 661.982 194.718   7
  -2 -13   0 3038.83 426.464   7
   2 -13   0 2442.19 359.664   7
   2 -13   1 3429.32 412.123   7
  -2 -13  -1 3336.75 443.259   7
  -2 -13  -2 2547.96 394.112   7
   2 -13   2 2787.34 376.507   7
   2 -12  -7 1064.28 244.795   7
   2 -12  -6 546.448 187.980   7
  -2 -12   5 8663.60 724.660   7
   2 -12  -5 5812.35 527.745   7
   2 -12  -4 785.634 206.329   7
  -2 -12   4 1060.00 261.039   7
   2 -12  -3 775.912 192.743   7
  -2 -12   3 1086.86 251.220   7
  -2 -12   2 673.576 205.562   7
   2 -12  -2 714.374 175.335   7
  -2 -12   1 277.980 139.336   7
   2 -12  -1 573.464 169.759   7
   2 -12   0 2185.04 313.213   7
  -2 -12   0 2262.12 351.504   7
   2 -12   1 897.997 202.853   7
  -2 -12  -1 580.120 174.060   7
  -2 -12  -2 2790.06 383.549   7
   2 -12   2 3076.74 371.257   7
  -2 -12  -3 8.19084 92.0634   7
  -2 -12  -4 930.829 236.732   7
  -2 -12  -5 473.522 178.829   7
   2 -11  -9 291.031 146.830   7
   2 -11  -8 2229.87 333.127   7
   2 -11  -7 98.8974 90.7935   7
   2 -11  -6 418.117 141.465   7
   2 -11  -5 2233.79 309.286   7
  -2 -11   5 2300.23 351.075   7
   2 -11  -4 664.240 168.270   7
  -2 -11   4 512.672 159.135   7
   2 -11  -3 3012.28 338.774   7
  -2 -11   3 3336.76 402.796   7
  -2 -11   2 1983.07 301.814   7
   2 -11  -2 1989.97 276.943   7
  -2 -11   1 580.569 127.295   2
  -2 -11   1 572.767 174.676   7
   2 -11  -1 690.469 167.586   7
  -2 -11   0 2611.13 247.057   2
   2 -11   0 2401.59 297.700   7
  -2 -11   0 2422.63 332.512   7
  -2 -11  -1 1283.16 253.610   7
   2 -11   1 1457.43 243.917   7
   2 -11   2 2557.30 320.314   7
  -2 -11  -2 2165.49 329.722   7
  -2 -11  -3 3526.22 413.020   7
  -2 -11  -4 4253.10 458.824   7
  -2 -11  -5 755.631 207.886   7
  -2 -11  -6 248.271 114.061   7
  -2 -11  -7 1281.70 270.821   7
   2 -10 -10 1886.83 318.812   7
   2 -10  -9 106.493 106.252   7
   2 -10  -8 605.491 172.057   7
   2 -10  -7 72.4875 60.3408   7
   2 -10  -6 748.837 182.899   7
   2 -10  -5 1838.55 264.493   7
  -2 -10   5 1629.46 287.158   7
   2 -10  -4 308.664 122.835   7
  -2 -10   4 143.388 86.8425   7
   2 -10  -3 6405.15 464.597   7
  -2 -10   3 6641.38 532.699   7
  -2 -10   2 2133.92 234.593   2
   2 -10  -2 2092.01 262.588   7
  -2 -10   2 2240.98 306.566   7
  -2 -10   1 4650.59 437.318   7
  -2 -10   1 5564.35 357.607   2
   2 -10  -1 5083.99 403.433   7
  -2 -10   0 3429.30 268.240   2
   2 -10   0 3640.95 343.136   7
  -2 -10   0 2878.55 347.674   7
  -2 -10  -1 273.929 77.2268   2
  -2 -10  -1 381.847 126.404   7
   2 -10   1 374.477 125.850   7
  -2 -10  -2 1403.81 158.973   2
   2 -10   2 1469.63 229.697   7
  -2 -10  -2 1353.61 239.420   7
  -2 -10  -3 137.519 85.4337   7
  -2 -10  -4 184.707 109.688   7
  -2 -10  -5 1398.41 261.685   7
  -2 -10  -6 2085.67 336.134   7
  -2 -10  -7 1115.93 247.351   7
  -2 -10  -8 88.4897 76.6895   7
   2  -9 -11 339.934 162.801   7
   2  -9 -10 153.674 94.2687   7
   2  -9  -9 1270.37 238.833   7
   2  -9  -8 298.362 127.598   7
   2  -9  -7 4556.27 410.838   7
   2  -9  -6 957.801 181.187   7
  -2  -9   5 935.868 200.692   7
   2  -9  -5 1790.54 240.935   7
   2  -9  -4 899.614 176.595   7
  -2  -9   4 647.943 164.549   7
  -2  -9   3 15232.6 760.110   7
   2  -9  -3 15373.4 666.671   7
  -2  -9   3 14676.8 612.594   2
  -2  -9   2 1670.98 196.851   2
   2  -9  -2 1681.93 215.677   7
  -2  -9   2 1759.25 257.769   7
  -2  -9   1 739.001 125.532   2
   2  -9  -1 818.672 147.600   7
  -2  -9   1 937.758 185.214   7
  -2  -9   0 3616.76 267.707   2
   2  -9   0 4083.99 333.077   7
  -2  -9   0 3292.34 339.387   7
  -2  -9  -1 5106.63 302.606   2
   2  -9   1 4567.39 359.670   7
  -2  -9  -2 891.674 127.579   2
  -2  -9  -2 1290.86 222.288   7
   2  -9   2 1353.76 203.174   7
  -2  -9  -3 1428.54 157.041   2
  -2  -9  -3 1766.94 264.929   7
  -2  -9  -4 5820.69 311.089   2
  -2  -9  -4 5439.50 460.815   7
  -2  -9  -5 3035.93 358.897   7
  -2  -9  -6 3997.28 421.136   7
  -2  -9  -7 2066.63 311.350   7
  -2  -9  -8 2136.81 333.226   7
  -2  -9  -9 228.580 139.081   7
   2  -8 -12 424.572 154.181   7
   2  -8 -11 1011.61 236.249   7
   2  -8 -10 8848.97 624.557   7
   2  -8  -9 362.776 124.102   7
   2  -8  -8 612.973 157.673   7
  -2  -8   8 565.259 125.249   6
  -2  -8   7 22127.9 772.870   6
   2  -8  -7 20380.4 820.788   7
   2  -8  -6 2242.15 261.144   7
   2  -8  -5 15576.2 656.016   7
  -2  -8   5 17544.5 798.559   7
  -2  -8   4 2451.81 258.222   2
  -2  -8   4 2171.06 278.025   7
   2  -8  -4 2126.74 236.652   7
   2  -8  -3 4185.56 323.766   7
  -2  -8   3 4807.97 397.735   7
  -2  -8   3 4668.50 328.611   2
   2  -8  -2 22811.4 745.363   7
  -2  -8   2 23335.1 876.665   7
   2  -8  -1 11965.9 422.510   6
  -2  -8   1 13928.3 666.820   7
   2  -8  -1 11880.8 528.783   7
  -2  -8   1 13662.9 517.080   2
   2  -8   0 9337.61 306.036   6
   2  -8   0 9781.12 479.909   7
  -2  -8   0 11298.3 607.554   7
  -2  -8   0 10811.5 442.959   2
  -2  -8  -1 9295.85 401.610   2
   2  -8   1 9772.37 488.384   7
  -2  -8  -1 9228.21 546.979   7
   2  -8   2 8420.10 462.924   7
  -2  -8  -2 8525.51 381.162   2
  -2  -8  -2 8539.68 527.678   7
  -2  -8  -3 8371.77 372.752   2
  -2  -8  -3 6378.71 467.157   7
  -2  -8  -4 9225.93 573.805   7
  -2  -8  -4 10068.6 414.419   2
  -2  -8  -5 14438.2 504.317   2
  -2  -8  -5 13898.5 726.878   7
  -2  -8  -6 5076.38 455.849   7
  -2  -8  -7 4240.44 428.257   7
  -2  -8  -8 2564.26 354.048   7
  -2  -8  -9 2806.71 382.492   7
   2  -8  10 2760.30 430.745   4
  -2  -8 -10 2065.18 336.386   7
   2  -7 -12 546.182 180.491   7
   2  -7 -11 6964.79 561.695   7
   2  -7 -10 2224.90 313.160   7
   2  -7  -9 6322.89 487.183   7
  -2  -7   9 7709.23 478.384   6
   2  -7  -8 3776.33 355.547   7
  -2  -7   8 4437.82 352.829   6
  -2  -7   7 1335.53 187.762   6
   2  -7  -7 1139.19 187.386   7
  -2  -7   6 610.461 125.429   6
   2  -7  -6 400.623 108.137   7
   2  -7  -5 5812.55 377.047   7
  -2  -7   5 6445.55 461.355   7
  -2  -7   5 5586.55 385.878   2
  -2  -7   4 16033.6 611.954   2
   2  -7  -4 15126.5 584.146   7
  -2  -7   4 16521.4 717.075   7
   2  -7  -3 3034.46 254.238   7
  -2  -7   3 3350.20 263.600   2
  -2  -7   3 3631.27 324.877   7
  -2  -7   2 8402.75 404.041   2
   2  -7  -2 8536.61 412.798   7
  -2  -7   2 8855.66 501.073   7
  -2  -7   1 3822.70 326.193   7
   2  -7  -1 3633.34 220.182   6
  -2  -7   1 3836.09 263.406   2
   2  -7  -1 3812.62 271.136   7
  -2  -7   0 5857.05 317.408   2
   2  -7   0 5861.40 337.289   7
  -2  -7   0 6318.91 421.230   7
   2  -7   0 5766.84 227.898   6
   2  -7   1 6982.51 380.252   7
  -2  -7  -1 6303.16 323.103   2
  -2  -7  -1 5809.05 406.076   7
   2  -7   2 26600.2 756.589   7
  -2  -7  -2 26486.0 659.935   2
  -2  -7  -2 27313.0 887.882   7
  -2  -7  -3 17150.1 535.776   2
  -2  -7  -3 16977.8 714.633   7
  -2  -7  -4 1132.52 140.749   2
  -2  -7  -4 760.780 161.863   7
  -2  -7  -5 13548.5 682.047   7
  -2  -7  -5 14486.1 514.974   2
  -2  -7  -6 3029.06 333.011   7
  -2  -7  -6 4097.47 286.282   2
  -2  -7  -7 1187.51 221.258   7
  -2  -7  -7 1044.87 148.219   2
  -2  -7  -8 6464.14 530.635   7
  -2  -7  -9 639.611 185.221   7
  -2  -7 -10 508.045 167.339   7
   2  -7  10 813.578 230.342   4
   2  -7  11 1258.51 295.135   4
   2  -6 -13 1260.35 271.047   7
   2  -6 -12 3113.99 395.793   7
   2  -6 -11 4178.85 429.494   7
   2  -6 -10 641.322 166.981   7
   2  -6  -9 3503.83 355.945   7
  -2  -6   9 5203.92 389.684   6
   2  -6  -8 5821.89 422.983   7
  -2  -6   8 6371.26 416.134   6
  -2  -6   7 2688.61 266.825   6
   2  -6  -7 2597.36 268.796   7
  -2  -6   6 38952.1 961.461   6
   2  -6  -6 35627.5 925.834   7
  -2  -6   5 31509.0 868.213   2
   2  -6  -5 29234.0 792.505   7
  -2  -6   5 32238.6 952.946   7
  -2  -6   4 12936.0 521.386   2
   2  -6  -4 12360.2 488.570   7
  -2  -6   4 13223.4 601.833   7
  -2  -6   3 3766.69 268.458   2
  -2  -6   3 3887.92 311.632   7
   2  -6  -2 11131.7 412.492   6
  -2  -6   2 12599.2 555.035   7
  -2  -6   2 12754.5 475.938   2
   2  -6  -2 10830.2 423.084   7
  -2  -6   1 3730.50 250.791   2
  -2  -6   1 3239.95 278.779   7
   2  -6  -1 3489.43 203.490   6
  -2  -6   0 18988.1 550.459   2
   2  -6   0 18136.2 537.330   7
  -2  -6  -1 3374.68 289.166   7
  -2  -6  -1 3154.68 223.386   2
   2  -6   1 2956.48 225.948   7
   2  -6   2 346.462 79.5982   7
  -2  -6  -2 287.197 67.0132   2
  -2  -6  -2 308.129 92.9618   7
  -2  -6  -3 18668.5 710.526   7
  -2  -6  -3 19490.9 563.771   2
  -2  -6  -4 7784.31 473.395   7
  -2  -6  -4 7979.11 373.870   2
   2  -6   4 6939.25 180.265   5
  -2  -6  -5 3170.81 312.898   7
   2  -6   5 2779.93 172.386   5
  -2  -6  -5 3031.09 235.852   2
  -2  -6  -6 1725.45 241.777   7
  -2  -6  -6 2100.70 206.985   2
  -2  -6  -7 3008.78 260.974   2
  -2  -6  -7 2906.23 326.412   7
  -2  -6  -8 2093.84 291.287   7
  -2  -6  -9 989.573 218.230   7
   2  -6   9 966.384 227.807   4
   2  -6  10 1788.99 309.773   4
  -2  -6 -10 1853.01 317.226   7
   2  -6  11 632.557 206.290   4
  -2  -6 -11 415.431 159.652   7
   2  -5 -13 6266.95 588.730   7
  -2  -5  13 7939.96 729.989   4
   2  -5 -13 6777.96 599.405   1
   2  -5 -12 12.2714 87.0458   7
   2  -5 -12 105.752 67.9585   1
  -2  -5  12 20.4247 77.0979   4
   2  -5 -11 1623.42 269.280   7
   2  -5 -11 1770.64 274.406   1
   2  -5 -10 754.334 166.632   1
   2  -5 -10 542.593 148.730   7
   2  -5  -9 4608.87 391.886   1
   2  -5  -9 4825.53 401.219   7
  -2  -5   9 4801.06 376.583   6
  -2  -5   8 1566.43 207.525   6
   2  -5  -8 1179.33 186.732   1
   2  -5  -8 1039.65 177.927   7
  -2  -5   7 12196.2 548.743   6
   2  -5  -7 11918.5 556.180   7
  -2  -5   6 14014.7 570.858   6
   2  -5  -6 13605.5 547.654   7
  -2  -5   5 10185.8 466.929   2
   2  -5  -5 9429.88 423.047   7
  -2  -5   4 9456.04 424.119   2
   2  -5  -4 8659.00 378.158   7
   2  -5  -3 18674.7 520.012   7
  -2  -5   3 19834.4 655.962   7
  -2  -5   3 18786.6 574.446   2
   2  -5  -3 19274.4 610.086   4
  -2  -5   2 2846.37 218.352   2
   2  -5  -2 2712.51 195.461   6
   2  -5  -2 2757.61 189.778   7
   2  -5  -2 2754.23 233.748   4
   2  -5  -1 4757.28 309.500   4
  -2  -5   1 4718.54 310.136   7
   2  -5  -1 5005.95 231.005   6
  -2  -5   1 5021.60 279.688   2
   2  -5  -1 5245.78 253.630   7
   2  -5   0 88993.3 1487.07   1
   2  -5   0 87203.4 1035.90   7
   2  -5   0 86249.5 1418.47   4
  -2  -5   0 87308.8 1336.77   7
   2  -5   1 2920.28 200.236   7
   2  -5   1 2945.74 277.786   4
  -2  -5  -1 2705.69 203.295   2
   2  -5   1 2379.48 259.726   1
  -2  -5  -1 2937.60 249.539   7
  -2  -5  -2 29995.2 811.205   7
  -2  -5  -2 28517.1 661.382   2
  -2  -5  -3 7466.90 419.683   7
  -2  -5  -3 7454.02 349.979   2
  -2  -5  -4 19265.2 702.661   7
  -2  -5  -4 20288.5 597.257   2
  -2  -5  -5 2471.59 266.786   7
  -2  -5  -5 2431.61 216.071   2
  -2  -5  -6 5940.81 430.111   7
  -2  -5  -7 2534.34 298.763   7
   2  -5   8 173.277 109.114   4
  -2  -5  -8 31.6112 46.3089   7
   2  -5   9 10683.7 699.446   4
  -2  -5  -9 10172.8 661.510   7
   2  -5  10 3810.26 454.058   4
  -2  -5 -10 3848.92 424.527   7
  -2  -5 -10 5112.88 501.697   1
  -2  -5 -11 131.700 95.5955   7
  -2  -5 -11 155.363 144.570   1
   2  -5  11 47.0717 112.353   4
   2  -5  12 205.015 147.489   4
  -2  -4  13 1342.05 307.128   4
   2  -4 -13 1474.79 289.352   1
   2  -4 -12 1498.20 267.982   1
  -2  -4  12 1574.59 302.532   4
  -2  -4  11 6213.34 560.109   4
   2  -4 -11 5764.03 487.075   1
   2  -4 -10 1015.91 223.076   1
  -2  -4   9 56.5863 58.7071   6
   2  -4  -9 97.8067 65.3622   1
  -2  -4   8 7453.25 445.253   6
   2  -4  -8 6151.28 411.028   1
   2  -4  -7 5934.61 248.582   2
   2  -4  -7 5523.11 357.831   1
  -2  -4   7 6321.90 394.514   6
  -2  -4   6 7810.00 418.154   2
   2  -4  -6 8215.79 405.032   1
  -2  -4   6 7801.90 415.550   6
   2  -4  -6 7545.12 391.939   7
   2  -4  -6 7760.59 246.796   2
   2  -4  -5 16198.3 527.886   7
   2  -4  -5 15498.0 307.834   2
  -2  -4   5 16558.7 562.019   2
   2  -4  -5 16364.0 537.991   1
  -2  -4   4 12457.9 496.374   7
  -2  -4   4 12286.2 461.879   2
   2  -4  -4 11694.0 434.106   4
   2  -4  -4 11183.3 395.877   7
  -2  -4   3 28312.7 669.633   2
   2  -4  -3 27550.7 567.053   7
  -2  -4   3 28867.5 722.951   7
   2  -4  -3 28067.0 631.655   4
   2  -4  -2 64421.5 908.337   6
   2  -4  -2 64405.2 935.601   4
  -2  -4   2 64899.5 978.622   2
   2  -4  -2 65160.0 793.642   7
  -2  -4   2 65606.5 1061.38   7
   2  -4  -1 217649. 1785.70   4
   2  -4  -1 212600. 1400.60   7
  -2  -4   0 14361.4 448.099   2
   2  -4   0 14232.0 360.024   7
   2  -4   0 14694.0 507.735   4
   2  -4   0 14650.0 529.498   1
  -2  -4   0 12801.3 464.989   7
   2  -4   1 13293.3 549.630   1
   2  -4   1 13646.2 524.680   4
   2  -4   1 13585.8 374.998   7
  -2  -4  -1 12625.3 425.763   2
   2  -4   1 13176.9 233.442   5
   2  -4   2 39999.2 980.501   4
  -2  -4  -2 40908.2 880.423   7
   2  -4   2 39528.2 504.834   5
   2  -4   2 39592.7 1035.39   1
  -2  -4  -2 41262.9 794.984   2
  -2  -4  -3 12546.0 504.921   7
  -2  -4  -3 12018.8 441.876   2
  -2  -4  -4 648.567 129.164   7
  -2  -4  -5 2576.74 262.280   7
  -2  -4  -6 98.2517 61.9099   1
  -2  -4  -6 62.5205 58.9476   7
  -2  -4  -7 3961.98 358.185   1
  -2  -4  -7 4026.68 360.524   7
   2  -4   7 4680.64 384.415   4
  -2  -4  -8 12336.3 662.097   1
  -2  -4  -8 11289.1 643.925   7
   2  -4   8 11321.1 650.304   4
   2  -4   9 1323.19 239.321   4
  -2  -4  -9 1759.99 264.572   1
  -2  -4 -10 110.808 90.5645   1
   2  -4  10 314.947 147.007   4
  -2  -4 -11 246.413 115.219   1
   2  -4  11 344.747 169.570   4
  -2  -4 -11 388.107 145.324   7
   2  -4  12 1041.37 283.048   4
  -2  -4 -12 1056.78 262.986   7
  -2  -4 -12 501.541 174.816   1
   2  -3 -14 520.330 182.367   1
  -2  -3  13-57.7720 126.851   4
   2  -3 -13 29.1377 86.9172   1
   2  -3 -12 1015.30 223.049   1
  -2  -3  12 1131.79 247.693   4
   2  -3 -11 663.840 171.648   1
  -2  -3  11 713.929 191.263   4
   2  -3 -10 403.271 129.860   1
  -2  -3  10 255.231 123.408   4
   2  -3  -9 3650.33 334.306   1
  -2  -3   8 6510.45 414.852   6
   2  -3  -8 5158.85 370.549   1
   2  -3  -7 6711.99 292.367   2
  -2  -3   7 7410.98 419.079   6
   2  -3  -7 6700.87 389.304   1
   2  -3  -6 15132.5 402.082   2
  -2  -3   6 14982.3 565.384   6
  -2  -3   6 15766.4 567.527   2
   2  -3  -6 15093.4 531.754   1
   2  -3  -5 894.567 115.719   1
  -2  -3   5 861.962 119.538   2
   2  -3  -5 931.666 89.5104   2
  -2  -3   5 1039.53 141.059   6
   2  -3  -4 674.602 95.5248   4
   2  -3  -4 821.096 103.713   7
   2  -3  -4 714.390 93.2547   1
  -2  -3   4 791.116 114.800   2
   2  -3  -4 674.525 70.5079   2
   2  -3  -3 7628.13 277.931   4
  -2  -3   3 7123.69 473.092   1
  -2  -3   3 7518.29 331.400   2
  -2  -3   3 7350.78 459.776   4
  -2  -3   3 8711.08 362.510   7
   2  -3  -3 7680.14 340.678   6
  -2  -3   3 7877.56 419.523   5
   2  -3  -3 8559.71 281.628   7
  -2  -3   2 18339.9 611.636   5
  -2  -3   2 18812.5 505.050   2
  -2  -3   2 19474.7 739.487   1
   2  -3  -2 18926.8 474.608   6
   2  -3  -2 19135.7 409.739   4
  -2  -3   2 18717.2 692.182   4
   2  -3  -2 19210.3 367.026   7
  -2  -3   2 17985.4 497.975   7
  -2  -3   1 25797.0 824.315   1
   2  -3  -1 25607.7 484.352   4
  -2  -3   1 24761.5 763.532   4
  -2  -3   1 25823.6 588.661   7
   2  -3  -1 25460.8 381.982   7
  -2  -3   1 25235.1 579.828   2
   2  -3   0 7419.38 297.314   4
  -2  -3   0 7555.61 432.122   1
   2  -3   0 7546.97 244.834   5
  -2  -3   0 7587.65 318.404   7
  -2  -3   0 7990.95 419.730   4
   2  -3   0 7647.63 215.926   7
   2  -3   0 7419.81 306.951   1
  -2  -3   0 7902.87 320.546   2
  -2  -3  -1 853.348 139.297   4
   2  -3   1 817.698 114.182   4
   2  -3   1 645.733 71.9846   5
  -2  -3  -1 871.238 115.278   7
   2  -3   1 924.036 128.389   1
  -2  -3  -1 631.375 96.3560   2
  -2  -3  -2 4815.54 264.588   2
   2  -3   2 4589.73 292.612   4
  -2  -3  -2 4554.80 268.773   7
   2  -3   2 3825.89 288.805   1
   2  -3   3 44240.3 1008.25   4
  -2  -3  -3 47259.7 922.814   7
   2  -3   3 44090.6 1074.96   1
  -2  -3  -4 1826.42 198.501   1
  -2  -3  -4 1306.44 168.835   7
  -2  -3  -5 3667.85 296.914   7
   2  -3   5 4085.80 301.084   4
  -2  -3  -5 3734.85 296.703   1
  -2  -3  -6 15703.2 642.248   1
   2  -3   6 17643.4 671.794   4
  -2  -3  -7 1365.59 203.643   1
   2  -3   7 1137.43 188.287   4
  -2  -3  -8 268.017 99.9966   1
   2  -3   8 219.542 93.2584   4
  -2  -3  -9 4.35715 52.5159   1
   2  -3   9 73.4167 63.3206   4
   2  -3  10 1582.70 277.683   4
  -2  -3 -10 1690.15 274.701   1
   2  -3  11 2634.11 385.206   4
  -2  -3 -11 2278.25 332.872   1
  -2  -3 -12 206.422 114.714   1
   2  -3  12 199.759 139.659   4
   2  -2 -14 1360.66 271.624   1
  -2  -2  13 3132.65 440.854   4
   2  -2 -13 3102.53 405.675   1
  -2  -2  12 337.225 149.083   4
   2  -2 -12 391.389 135.313   1
  -2  -2  11 1196.92 240.175   4
   2  -2 -11 973.740 207.757   1
   2  -2 -10 5922.62 462.609   1
  -2  -2  10 5847.95 484.418   4
   2  -2  -9 5658.14 415.924   1
  -2  -2   9 5530.08 445.632   4
   2  -2  -8 6132.40 404.133   1
  -2  -2   8 7653.48 449.689   6
  -2  -2   7 2144.40 225.391   6
   2  -2  -7 2265.30 226.720   1
   2  -2  -6 42397.6 719.321   2
   2  -2  -6 43319.5 893.780   1
  -2  -2   6 44132.0 895.508   2
   2  -2  -5 18521.2 440.494   2
  -2  -2   5 16994.8 497.117   3
  -2  -2   5 17985.0 581.008   6
  -2  -2   5 18622.2 536.849   2
   2  -2  -5 17621.7 506.727   1
  -2  -2   4 5727.75 403.310   1
  -2  -2   4 5828.08 284.773   2
  -2  -2   4 5946.12 393.414   4
  -2  -2   4 5634.39 248.134   3
   2  -2  -4 5816.57 251.287   1
   2  -2  -4 6538.95 266.098   4
   2  -2  -4 5904.24 231.775   2
  -2  -2   3 39381.2 946.070   4
   2  -2  -3 38241.7 556.514   1
  -2  -2   3 41019.7 698.353   7
   2  -2  -3 40972.6 763.807   6
  -2  -2   3 39715.1 996.410   1
   2  -2  -3 40193.2 553.025   4
  -2  -2   3 38178.9 526.911   3
   2  -2  -3 40494.3 586.607   2
  -2  -2   3 40935.4 725.696   2
  -2  -2   2 42232.5 916.348   4
   2  -2  -2 42559.4 447.486   4
  -2  -2   2 42137.9 955.599   1
  -2  -2   2 42968.1 724.791   2
  -2  -2   2 41010.6 646.610   7
   2  -2  -2 43387.4 442.783   7
   2  -2  -1 679.699 47.5203   4
  -2  -2   1 793.024 121.383   4
   2  -2  -1 701.615 41.1095   7
   2  -2  -1 841.697 97.8771   5
  -2  -2   1 625.262 86.3829   2
  -2  -2   1 629.995 114.874   1
  -2  -2   1 499.209 70.8822   7
  -2  -2   0 49143.3 703.916   7
   2  -2   0 48749.3 603.021   1
   2  -2   0 49126.0 570.482   4
  -2  -2   0 49845.1 897.645   4
   2  -2   0 49076.6 704.816   5
  -2  -2   0 46545.2 758.864   2
  -2  -2  -1 2933.38 219.685   4
   2  -2   1 2492.28 162.092   4
  -2  -2  -1 2641.78 171.347   7
   2  -2   1 2648.46 169.992   5
   2  -2   1 2307.18 166.811   1
  -2  -2  -1 2781.28 188.572   2
  -2  -2  -2 11247.1 446.267   4
   2  -2   2 10756.6 398.084   4
  -2  -2  -2 10412.2 375.077   7
   2  -2   2 11335.6 426.638   1
  -2  -2  -3 22974.4 609.754   7
   2  -2   3 23202.0 659.692   4
   2  -2   3 22089.9 544.339   4
  -2  -2  -3 22747.2 597.388   1
   2  -2   3 23598.2 698.364   1
  -2  -2  -4 965.768 133.579   1
   2  -2   4 1210.06 142.138   4
  -2  -2  -5 11664.5 502.947   1
   2  -2   5 12354.9 506.176   4
  -2  -2  -6 3464.44 294.169   1
   2  -2   6 3224.21 285.350   4
  -2  -2  -7 2609.62 275.436   1
   2  -2   7 2275.47 262.890   4
   2  -2   8 4752.21 404.594   4
  -2  -2  -8 4284.03 373.947   1
   2  -2   9 5181.97 457.915   4
  -2  -2  -9 5390.37 443.301   1
   2  -2  10 304.492 140.868   4
  -2  -2 -10 479.466 147.339   1
   2  -2  11 302.615 138.562   4
  -2  -2 -11 671.350 176.506   1
   2  -2  12 1369.35 298.463   4
  -2  -2 -12 1092.50 251.041   1
  -2  -1  14 4833.52 576.863   4
   2  -1 -14 2523.55 376.471   1
  -2  -1  13 5418.64 579.675   4
   2  -1 -13 5424.74 543.423   1
  -2  -1  12 234.759 119.950   4
   2  -1 -12 90.1580 88.9572   1
   2  -1 -11 2567.40 325.736   1
  -2  -1  11 2203.23 320.121   4
  -2  -1  10 3323.34 359.634   4
   2  -1 -10 3232.78 338.291   1
  -2  -1   9 6516.26 464.840   4
   2  -1  -9 5328.59 404.304   1
   2  -1  -8 770.283 150.155   1
  -2  -1   8 785.171 158.308   4
   2  -1  -7 13423.8 555.336   1
  -2  -1   7 13054.2 549.949   6
  -2  -1   7 13507.5 569.088   4
  -2  -1   6 5867.15 309.580   2
  -2  -1   6 5473.14 339.567   6
  -2  -1   5 27880.3 623.118   2
   2  -1  -5 28419.9 657.940   1
   2  -1  -5 27046.6 578.498   2
  -2  -1   5 27946.9 710.729   6
  -2  -1   5 26334.7 636.394   3
  -2  -1   4 7685.55 307.692   2
  -2  -1   4 7837.02 398.392   4
   2  -1  -4 7762.64 300.908   1
   2  -1  -4 8454.07 303.059   2
  -2  -1   4 8087.71 365.607   6
  -2  -1   4 8768.40 452.867   1
  -2  -1   4 8004.80 303.916   3
  -2  -1   3 6686.22 277.463   2
  -2  -1   3 6517.92 332.522   4
  -2  -1   3 5630.80 334.199   5
   2  -1  -3 6253.59 220.512   1
  -2  -1   3 6426.56 353.569   1
  -2  -1   3 6539.34 220.972   3
   2  -1  -3 6569.83 253.147   2
  -2  -1   2 55017.8 780.255   2
  -2  -1   2 51765.8 869.669   4
   2  -1  -2 53474.1 455.094   1
  -2  -1   2 53072.7 643.156   7
   2  -1  -2 54106.6 868.320   5
   2  -1  -2 54742.9 725.128   2
  -2  -1   2 51717.1 913.010   1
  -2  -1   2 55440.5 985.470   5
  -2  -1   1 5189.91 239.239   2
  -2  -1   1 4968.11 179.298   7
  -2  -1   1 5151.30 251.989   4
  -2  -1   1 5140.90 291.094   5
  -2  -1   1 5948.27 273.988   1
   2  -1  -1 5279.92 254.787   5
  -2  -1   0 58378.4 793.583   4
   2  -1   0 58288.5 834.275   5
  -2  -1   0 59762.5 646.001   7
  -2  -1  -1 5532.26 254.500   4
   2  -1   1 6302.07 231.228   4
   2  -1   1 5430.15 182.409   4
  -2  -1  -1 5505.70 191.817   3
   2  -1   1 5291.07 205.069   1
  -2  -1  -1 5599.07 220.355   7
   2  -1   2 18377.9 411.822   4
  -2  -1  -2 19056.7 498.678   4
   2  -1   2 19111.6 491.885   1
  -2  -1  -2 18229.0 448.791   1
  -2  -1  -3 14236.7 478.165   4
   2  -1   3 15085.1 513.378   1
   2  -1   3 14594.0 434.667   4
  -2  -1  -3 14445.6 448.692   1
  -2  -1  -3 15599.3 437.903   3
  -2  -1  -4 70697.4 1099.28   1
  -2  -1  -4 71754.4 1073.43   3
   2  -1   4 70504.6 1084.57   4
   2  -1   5 8680.88 422.734   4
  -2  -1  -5 9525.37 442.095   1
  -2  -1  -5 8926.20 411.686   3
   2  -1   6 1251.20 179.222   4
  -2  -1  -6 1116.19 161.441   3
  -2  -1  -6 1306.35 175.355   1
   2  -1   7 11270.8 578.927   4
  -2  -1  -7 11961.2 577.603   1
   2  -1   8 2970.28 326.785   4
  -2  -1  -8 3006.14 309.639   1
   2  -1   9 7479.52 555.728   4
  -2  -1  -9 8219.71 544.448   1
  -2  -1 -10 712.124 182.548   1
   2  -1  10 532.139 163.854   4
  -2  -1 -11 247.991 129.027   1
   2  -1  11 201.239 125.165   4
  -2  -1 -12 514.998 195.828   1
   2  -1  12 90.1615 116.267   4
  -2   0  14 2058.57 387.567   4
   2   0 -14 2015.24 340.661   1
  -2   0  13 27.8838 73.6483   4
   2   0 -13 50.1476 92.0066   1
   2   0 -12 1012.77 228.447   1
  -2   0  12 1048.74 245.349   4
  -2   0  11 1407.50 252.249   4
   2   0 -11 1529.38 255.100   1
  -2   0  10 9114.96 584.306   4
   2   0 -10 8317.95 563.010   1
   2   0  -9 102.732 83.4352   1
  -2   0   9 103.291 67.1961   4
   2   0  -8 755.765 152.965   1
  -2   0   8 699.094 148.572   4
  -2   0   7-12.9494 35.4313   4
  -2   0   7-3.61098 27.6222   6
   2   0  -7-0.31634 41.8386   1
  -2   0   6 48490.8 963.104   4
   2   0  -6 48536.4 1016.17   1
  -2   0   6 49078.3 1000.77   6
   2   0  -5 26975.1 684.737   1
  -2   0   5 27185.2 771.141   4
  -2   0   5 27532.8 573.903   2
  -2   0   5 28541.8 716.498   6
  -2   0   5 26641.7 803.594   1
  -2   0   5 27090.4 642.453   4
   2   0  -4 24593.0 560.938   2
   2   0  -4 24744.4 585.047   1
  -2   0   4 25787.1 663.900   4
   2   0  -4 24311.3 593.750   4
  -2   0   4 23321.2 501.865   2
  -2   0   4 25204.9 633.743   6
  -2   0   4 24849.9 684.925   1
   2   0  -3 7353.66 288.206   2
   2   0  -3 7294.56 356.573   5
  -2   0   3 6912.60 261.893   2
   2   0  -3 7052.34 274.302   1
  -2   0   3 7184.75 301.151   4
   2   0  -3 8182.69 314.024   4
  -2   0   3 6983.52 360.543   5
  -2   0   3 7049.57 311.560   6
  -2   0   3 7093.06 317.591   1
  -2   0   2 3414.51 182.777   2
  -2   0   2 3006.00 166.347   4
  -2   0   2 3562.25 242.437   5
   2   0  -2 3364.84 159.327   4
  -2   0   2 3145.24 177.389   1
   2   0  -2 3338.77 127.114   7
   2   0  -2 3702.20 168.502   1
   2   0  -2 3563.21 236.601   5
   2   0  -2 3836.18 203.070   2
  -2   0   1 177273. 1618.64   5
  -2   0   1 184481. 1053.42   4
  -2   0   1 191697. 1100.26   1
   2   0  -1 188697. 784.515   7
  -2   0   1 185677. 755.153   7
  -2   0   1 178481. 1344.32   2
   2   0  -1 177691. 1053.72   1
   2   0  -1 173652. 1581.32   5
   2   0  -1 178659. 1002.60   4
  -2   0   0 1985.88 89.6466   7
   2   0   0 2084.87 93.1917   1
   2   0   0 1876.55 109.053   4
   2   0   0 1999.17 166.917   5
  -2   0   0 2069.43 105.129   4
  -2   0  -1 138592. 1010.49   4
   2   0   1 133478. 1060.32   4
  -2   0  -1 134536. 959.795   1
   2   0   1 137138. 993.392   1
  -2   0  -2 12479.6 357.830   4
   2   0   2 11766.4 358.411   4
  -2   0  -2 11358.3 329.683   1
   2   0   2 12130.2 367.995   1
   2   0   3 3749.75 231.054   4
   2   0   3 4021.12 251.385   1
  -2   0  -3 3521.29 220.998   3
  -2   0  -3 3487.62 213.387   1
  -2   0  -3 3842.03 228.448   4
  -2   0  -4 86954.3 1196.45   3
  -2   0  -4 82869.0 1175.02   1
   2   0   5 3825.69 288.804   4
  -2   0  -5 4522.67 303.980   1
  -2   0  -5 4393.77 292.949   3
  -2   0  -6 495.836 111.670   1
   2   0   6 705.671 137.456   4
  -2   0  -6 553.408 114.876   3
   2   0   7 5349.03 405.805   4
  -2   0  -7 5309.68 389.734   1
  -2   0  -7 5465.90 390.869   3
  -2   0  -8 47542.2 1241.00   1
  -2   0  -8 46082.1 1179.85   3
   2   0   9 491.027 148.701   4
  -2   0  -9 567.471 155.160   1
  -2   0 -10 1544.99 253.644   1
   2   0  10 1128.74 234.540   4
   2   0  11 2161.05 353.675   4
  -2   0 -11 1732.47 289.770   1
   2   0  12 2819.53 423.617   4
  -2   0 -12 2922.69 396.204   1
   2   0  13 77.4978 131.437   4
  -2   1  14 3433.32 496.726   4
   2   1 -14 2021.50 353.363   1
  -2   1  13 5260.78 562.859   4
   2   1 -13 4928.22 523.840   1
   2   1 -12 395.135 154.697   1
  -2   1  12 334.656 160.980   4
  -2   1  11 2599.40 349.299   4
   2   1 -11 2383.70 329.818   1
  -2   1  10 3178.96 354.866   4
   2   1 -10 2677.28 325.672   1
  -2   1   9 5890.57 441.544   4
   2   1  -9 6609.76 492.679   1
  -2   1   8 721.932 151.719   4
   2   1  -8 601.836 137.959   1
   2   1  -7 12129.2 585.025   1
  -2   1   7 14078.6 571.295   4
  -2   1   6 5211.92 313.493   4
   2   1  -6 4685.57 336.159   1
   2   1  -6 5149.72 354.519   4
  -2   1   6 4944.38 324.138   6
  -2   1   5 27541.8 641.770   4
  -2   1   5 28443.1 740.627   4
  -2   1   5 28450.1 545.319   2
  -2   1   5 27460.9 701.959   6
   2   1  -5 28886.7 789.426   1
  -2   1   5 26625.7 732.865   1
  -2   1   4 7652.41 292.866   4
   2   1  -4 8005.70 382.671   1
   2   1  -4 8385.22 347.335   2
  -2   1   4 8174.49 347.023   1
   2   1  -4 7877.25 303.455   7
  -2   1   4 7883.40 339.906   4
   2   1  -4 8189.76 378.943   4
  -2   1   4 8244.19 273.729   2
  -2   1   4 7928.23 351.703   6
  -2   1   3 6120.36 215.229   4
  -2   1   3 6804.46 262.482   1
  -2   1   3 6068.01 225.189   2
  -2   1   3 6352.44 252.798   4
   2   1  -3 6393.54 316.408   4
   2   1  -3 6315.01 240.949   7
   2   1  -3 7355.55 349.840   1
  -2   1   3 5961.25 278.405   6
  -2   1   3 7184.92 362.329   5
   2   1  -3 6635.60 348.882   5
  -2   1   2 52635.2 461.637   4
  -2   1   2 52508.5 531.279   4
   2   1  -2 50229.0 793.261   4
   2   1  -2 55572.3 889.613   1
  -2   1   2 53826.1 553.219   1
  -2   1   2 53309.5 903.428   5
  -2   1   2 53649.9 769.189   6
   2   1  -2 54916.9 962.281   5
   2   1  -2 53477.8 628.370   7
  -2   1   2 52933.2 672.882   2
   2   1  -1 4825.59 239.078   4
   2   1  -1 5303.34 188.496   7
   2   1  -1 5465.88 265.583   1
  -2   1   1 5505.08 267.751   5
   2   1  -1 4960.61 284.614   5
  -2   1   1 4759.53 211.387   2
   2   1  -1 5473.87 256.024   2
   2   1   0 58009.8 968.628   5
   2   1   0 57559.9 819.242   4
   2   1   0 58785.6 655.330   7
   2   1   0 59421.6 868.875   1
   2   1   1 6013.74 270.589   4
  -2   1  -1 5224.50 178.462   1
   2   1   1 5597.76 227.185   1
   2   1   2 17821.1 502.651   4
   2   1   2 18745.9 478.824   1
  -2   1  -2 18860.1 428.250   1
   2   1   3 14986.4 506.632   4
  -2   1  -3 14738.5 446.580   1
   2   1   3 15493.9 502.266   1
   2   1   4 71697.1 1208.91   4
  -2   1  -4 72381.5 1146.36   3
   2   1   5 8666.97 457.072   4
  -2   1  -5 9700.16 450.712   1
  -2   1  -5 9484.66 451.414   3
  -2   1  -6 939.736 154.178   1
   2   1   6 1463.94 207.717   4
  -2   1  -6 1340.05 182.693   3
   2   1   7 11392.8 609.999   4
  -2   1  -7 10807.6 560.261   1
  -2   1  -7 11694.7 569.685   3
  -2   1  -8 2356.98 279.703   1
  -2   1  -8 3044.13 315.986   3
   2   1   8 2808.55 334.622   4
   2   1   9 6838.86 549.052   4
  -2   1  -9 7739.72 539.963   1
  -2   1  -9 8670.96 557.394   3
  -2   1 -10 1027.59 208.418   1
   2   1  10 784.840 192.215   4
  -2   1 -10 603.388 155.126   3
   2   1  11 372.849 146.674   4
  -2   1 -11 269.942 138.527   1
   2   1  12 439.959 207.530   4
  -2   1 -12 416.505 177.185   1
  -2   2  14 1611.77 354.587   4
  -2   2  13 2518.35 402.379   4
   2   2 -13 3151.74 442.332   1
   2   2 -12 294.635 127.456   1
  -2   2  12 166.290 116.358   4
   2   2 -11 790.787 212.953   1
  -2   2  11 602.438 176.305   4
   2   2 -10 5232.02 478.900   1
  -2   2  10 6570.43 518.112   4
  -2   2   9 5909.48 455.900   4
   2   2  -9 5406.43 462.664   1
   2   2  -8 7133.74 500.470   1
   2   2  -8 6908.30 511.165   4
  -2   2   8 6578.25 440.486   4
  -2   2   7 2591.52 251.025   4
   2   2  -7 1870.31 248.840   1
   2   2  -7 2392.02 277.934   4
   2   2  -6 44483.7 1140.67   1
  -2   2   6 45383.1 958.254   4
   2   2  -5 17534.0 677.785   1
  -2   2   5 17737.4 538.861   4
  -2   2   5 18085.5 575.477   1
  -2   2   5 18170.1 400.112   2
   2   2  -5 17821.5 657.961   4
  -2   2   5 17390.6 571.625   4
  -2   2   4 5363.24 266.195   4
   2   2  -4 5260.84 342.465   5
  -2   2   4 5949.00 207.859   2
  -2   2   4 6064.26 284.280   1
   2   2  -4 6637.11 390.073   4
   2   2  -4 5033.16 272.574   7
  -2   2   4 5887.35 303.381   6
   2   2  -4 6362.03 398.585   1
   2   2  -3 39689.7 763.668   2
  -2   2   3 40191.5 523.315   2
  -2   2   3 41725.8 602.619   1
   2   2  -3 40185.2 896.325   4
  -2   2   3 39818.8 619.035   4
  -2   2   3 37447.7 702.520   6
   2   2  -3 39677.7 686.929   7
  -2   2   3 41924.3 858.493   5
   2   2  -3 41608.7 958.889   1
   2   2  -3 42101.8 905.434   5
  -2   2   2 42657.7 533.607   4
   2   2  -2 41465.0 753.319   2
   2   2  -2 41466.3 866.590   4
  -2   2   2 42160.6 462.838   1
  -2   2   2 39808.5 648.091   6
   2   2  -2 39820.8 903.203   1
   2   2  -2 41228.6 866.581   5
  -2   2   2 43738.2 804.121   5
   2   2  -2 41393.1 666.131   7
  -2   2   2 41040.8 563.878   2
   2   2  -1 782.197 118.691   4
  -2   2   1 696.523 55.4596   4
   2   2  -1 688.701 112.059   5
   2   2  -1 685.937 83.2349   7
  -2   2   1 660.650 41.5507   1
   2   2  -1 801.146 128.461   1
  -2   2   1 673.103 58.5317   1
  -2   2   1 677.635 76.2211   6
  -2   2   1 712.619 92.7822   5
   2   2  -1 644.862 94.1682   2
  -2   2   0 49283.0 512.565   1
   2   2   0 48148.1 911.851   4
   2   2   0 51172.9 966.340   5
  -2   2   0 48519.8 490.307   4
  -2   2   0 48481.9 423.888   7
   2   2   0 49590.1 951.850   1
   2   2   0 48708.8 814.964   2
  -2   2   0 49089.9 725.765   5
   2   2   0 50368.6 728.734   7
  -2   2  -1 2486.62 144.129   1
   2   2   1 2515.01 209.306   4
  -2   2  -1 2481.87 122.326   7
   2   2   1 2337.49 169.561   7
   2   2   1 2625.73 178.690   1
  -2   2  -1 2909.01 164.113   4
   2   2   2 10662.7 448.556   4
  -2   2  -2 10016.6 343.557   1
  -2   2  -2 10286.5 348.030   4
   2   2   2 10649.8 328.958   3
   2   2   2 11227.9 409.294   1
   2   2   3 22354.2 563.018   3
  -2   2  -3 23481.2 603.962   1
   2   2   3 21483.1 676.668   4
  -2   2  -4 993.421 137.910   1
   2   2   4 848.445 144.217   4
  -2   2  -5 11192.8 502.096   1
   2   2   5 11090.4 548.516   4
  -2   2  -5 12375.8 534.575   3
  -2   2  -6 3101.83 289.012   1
  -2   2  -6 3852.07 317.247   3
   2   2   6 2891.38 304.622   4
   2   2   7 3048.34 332.243   4
  -2   2  -7 2883.69 296.138   1
  -2   2  -7 2524.88 274.511   3
   2   2   8 3200.27 363.593   4
  -2   2  -8 4047.90 367.377   3
  -2   2  -8 3823.99 367.679   1
   2   2   9 4667.22 477.366   4
  -2   2  -9 4901.67 439.578   1
  -2   2  -9 5166.62 441.449   3
  -2   2 -10 956.048 214.428   1
   2   2  10 667.778 180.096   4
  -2   2 -10 754.470 184.369   3
   2   2  11 464.171 175.908   4
  -2   2 -11 469.839 162.227   1
  -2   2 -11 862.919 199.618   3
  -2   2 -12 837.764 235.212   1
   2   2  12 1213.68 300.568   4
  -2   3  14 1396.08 332.499   4
   2   3 -13 130.742 130.406   1
  -2   3  13-6.64280 115.733   4
   2   3 -12 602.359 193.013   1
  -2   3  12 534.269 173.617   4
   2   3 -11 851.188 228.944   1
  -2   3  11 1037.72 238.048   4
  -2   3  10 777.115 192.970   4
   2   3 -10 578.150 172.573   1
  -2   3   9 3602.15 369.163   4
   2   3  -9 3457.82 390.761   1
   2   3  -9 3747.30 421.033   4
   2   3  -8 5971.71 491.832   1
  -2   3   8 5380.03 418.905   4
   2   3  -7 6860.56 506.415   1
   2   3  -7 8240.70 552.928   4
  -2   3   7 6780.71 433.668   4
   2   3  -6 15630.3 736.201   1
   2   3  -6 14619.6 686.588   4
  -2   3   6 15383.6 602.222   4
   2   3  -5 744.686 99.4245   3
  -2   3   5 1023.65 140.455   4
   2   3  -5 700.778 147.205   4
   2   3  -5 1102.66 194.042   1
  -2   3   4 773.471 111.227   4
  -2   3   4 790.686 64.1479   2
   2   3  -4 848.120 155.334   4
  -2   3   4 567.960 88.6507   1
   2   3  -4 898.720 93.4011   3
   2   3  -4 576.702 118.629   5
   2   3  -4 575.072 130.290   1
   2   3  -3 8324.01 240.202   3
  -2   3   3 7935.36 203.113   2
  -2   3   3 8264.92 336.045   4
  -2   3   3 8213.12 285.520   1
   2   3  -3 8242.91 459.342   4
   2   3  -3 8306.09 491.548   1
  -2   3   3 8532.19 396.293   5
   2   3  -3 8842.99 433.190   5
   2   3  -3 7434.72 335.656   7
   2   3  -2 18353.5 528.511   2
  -2   3   2 18094.5 457.742   4
   2   3  -2 20156.4 262.571   3
   2   3  -2 18094.2 666.823   4
   2   3  -2 17802.1 698.264   1
  -2   3   2 18870.5 485.679   1
   2   3  -2 18013.6 608.628   5
  -2   3   2 19407.6 379.823   1
   2   3  -2 18459.4 505.969   7
  -2   3   2 17190.5 424.801   6
  -2   3   2 18340.9 511.287   5
  -2   3   2 19500.2 363.935   2
   2   3  -1 26651.9 799.020   4
  -2   3   1 25460.3 518.528   4
  -2   3   1 25632.7 548.482   1
   2   3  -1 24738.7 576.698   7
  -2   3   1 26000.5 399.293   7
   2   3  -1 25695.0 618.268   2
   2   3  -1 25625.6 818.674   1
  -2   3   1 25446.3 533.621   5
  -2   3   1 24892.4 450.902   6
   2   3   0 8052.82 432.743   4
   2   3   0 7225.67 381.794   5
  -2   3   0 7318.05 274.968   4
  -2   3   0 7058.01 290.474   1
   2   3   0 7830.67 332.070   7
   2   3   0 7174.61 419.314   1
   2   3   0 7917.08 342.421   2
  -2   3   0 7032.35 202.637   6
  -2   3   0 7308.86 222.292   7
   2   3   0 7630.60 157.422   3
  -2   3   0 7925.11 266.498   5
   2   3   1 726.237 129.671   4
  -2   3  -1 766.382 99.2829   4
   2   3   1 772.464 138.709   1
  -2   3  -1 808.430 84.5435   7
   2   3   1 722.501 111.279   7
   2   3   1 838.654 73.9337   3
  -2   3  -1 627.769 92.9196   1
  -2   3  -2 4203.93 260.499   1
   2   3   2 4237.39 314.815   4
  -2   3  -2 4928.46 272.948   4
   2   3   2 4552.27 213.367   3
  -2   3  -2 4956.90 235.659   7
   2   3   3 47271.6 1094.96   4
  -2   3  -3 45426.5 933.902   1
   2   3   3 48053.1 809.670   3
  -2   3  -3 44650.7 781.427   7
   2   3   4 1296.99 193.903   4
  -2   3  -4 1086.14 152.733   1
  -2   3  -4 1362.80 180.542   4
   2   3   5 3383.78 323.087   4
  -2   3  -5 4207.76 330.175   1
  -2   3  -6 15220.3 452.731   6
   2   3   6 16111.7 744.656   4
  -2   3  -6 16849.8 700.668   1
  -2   3  -6 16205.1 681.246   3
   2   3   7 1343.53 225.468   4
  -2   3  -7 1408.25 217.827   3
  -2   3  -7 1628.95 232.809   1
  -2   3  -8 263.017 110.395   1
   2   3   8 458.001 155.229   4
  -2   3  -8 188.121 91.1415   3
  -2   3  -9 103.698 62.7220   1
  -2   3  -9 180.160 83.2060   3
   2   3  10 1864.01 320.837   4
  -2   3 -10 2159.37 321.175   1
  -2   3 -10 1881.12 298.724   3
   2   3  11 2185.88 381.093   4
  -2   3 -11 2554.38 370.625   1
  -2   3 -11 3104.35 390.549   3
  -2   3 -12 79.8955 93.1659   1
  -2   3 -12 160.964 122.012   3
   2   3  12 31.3895 129.202   4
   2   4 -13 1217.93 286.522   1
  -2   4  13 1590.97 328.699   4
   2   4 -12 1534.15 310.921   1
  -2   4  12 1381.90 310.185   4
  -2   4  11 6069.96 568.525   4
   2   4 -11 6495.69 611.969   1
  -2   4  10 414.750 164.040   4
   2   4 -10 555.214 179.582   1
   2   4 -10 763.808 212.076   4
  -2   4   9 159.830 92.7850   4
   2   4  -9 36.1217 76.5321   1
   2   4  -9 176.371 139.252   4
  -2   4   8 6671.33 486.339   4
   2   4  -8 6860.83 559.087   1
   2   4  -8 6950.23 564.056   4
   2   4  -7 5844.71 495.374   1
   2   4  -7 5650.15 336.564   3
   2   4  -7 5948.51 486.007   4
  -2   4   7 5895.35 430.056   4
  -2   4   6 8550.13 478.686   4
   2   4  -6 8087.71 548.646   4
   2   4  -6 8062.90 573.370   1
   2   4  -6 8940.23 393.084   3
  -2   4   5 16651.7 635.438   4
   2   4  -5 16528.6 764.456   4
   2   4  -5 16263.6 475.113   3
   2   4  -5 15897.4 779.799   1
   2   4  -4 12488.9 643.456   4
  -2   4   4 11244.2 486.813   4
   2   4  -4 12762.7 369.088   3
   2   4  -4 13157.7 695.836   1
   2   4  -4 13612.3 567.761   5
  -2   4   4 11987.6 440.081   1
  -2   4   3 28055.7 296.822   2
  -2   4   3 29247.9 599.013   1
   2   4  -3 26973.5 930.737   4
  -2   4   3 30003.4 769.448   1
  -2   4   3 27817.9 717.041   4
   2   4  -3 28364.4 1000.24   1
   2   4  -3 28201.7 474.320   3
   2   4  -3 27815.6 794.215   5
  -2   4   2 63452.5 1058.64   4
   2   4  -2 61782.7 1383.64   4
  -2   4   2 68234.4 862.767   7
   2   4  -2 64086.9 1473.31   1
   2   4  -2 65015.9 1214.57   5
  -2   4   2 66447.2 833.843   1
  -2   4   2 62884.6 946.659   5
  -2   4   2 65536.9 627.922   2
  -2   4   2 66897.3 1119.42   1
   2   4  -1 191264. 2391.67   4
  -2   4   1 216551. 1447.63   7
  -2   4   1 216065. 2000.99   1
   2   4  -1 186735. 2486.49   1
  -2   4   1 213605. 1876.36   4
   2   4  -1 212064. 2134.11   5
  -2   4   1 211929. 1509.11   5
   2   4   0 14087.4 480.634   2
   2   4   0 12741.8 610.316   4
  -2   4   0 14549.6 489.707   4
  -2   4   0 13659.0 501.841   1
   2   4   0 14590.2 573.702   5
  -2   4   0 13570.8 311.518   5
  -2   4   0 14930.8 386.351   7
   2   4   0 13109.9 636.018   1
   2   4   1 12917.3 631.723   1
   2   4   1 14108.1 637.419   4
  -2   4  -1 13574.5 490.434   4
  -2   4  -1 13110.4 386.593   7
  -2   4  -1 13093.4 505.181   1
   2   4   2 41370.2 655.417   3
  -2   4  -2 41299.2 904.056   4
   2   4   2 41878.3 1136.77   1
   2   4   2 39871.1 1074.02   4
  -2   4  -2 39947.8 728.876   7
  -2   4  -2 41714.6 954.273   1
  -2   4  -3 10823.1 504.068   1
   2   4   3 11421.6 588.873   4
  -2   4  -3 10610.8 483.007   4
   2   4   3 12538.3 432.510   3
  -2   4  -4 382.147 110.452   1
  -2   4  -4 397.641 105.835   4
  -2   4  -4 493.214 45.0367   6
   2   4   4 654.755 155.044   4
   2   4   5 1694.46 262.442   4
  -2   4  -5 2227.08 258.688   1
  -2   4  -5 2113.36 253.861   4
  -2   4  -5 2224.46 127.788   6
   2   4   6 76.4385 80.5179   4
  -2   4  -6-31.0125 65.1253   4
  -2   4  -6 90.2353 79.1982   1
  -2   4  -6 54.9615 32.7430   6
  -2   4  -7 3046.31 331.023   1
   2   4   7 3276.48 381.072   4
   2   4   8 11634.9 753.943   4
  -2   4  -8 11997.8 694.340   1
  -2   4  -8 11935.2 663.984   3
   2   4   9 1451.80 286.115   4
  -2   4  -9 1519.56 260.029   1
  -2   4  -9 1605.63 251.309   3
   2   4  10 638.313 196.637   4
  -2   4 -10 275.484 138.043   1
  -2   4 -10 397.416 152.412   3
   2   4  11 21.2895 78.9894   4
  -2   4 -11 23.4392 105.213   3
  -2   4 -12 1187.76 257.044   3
  -2   4 -12 1071.25 265.467   1
   2   4  12 587.916 234.254   4
  -2   5  13 7234.15 734.504   4
   2   5 -13 8127.61 766.363   1
  -2   5  12 242.420 148.453   4
   2   5 -12 435.347 209.832   1
   2   5 -11 1641.68 334.028   1
  -2   5  11 1510.93 301.941   4
   2   5 -11 2269.38 394.808   4
   2   5 -10 1657.93 320.294   1
  -2   5  10 799.962 197.372   4
   2   5 -10 1197.51 279.249   4
  -2   5   9 4786.85 466.491   4
   2   5  -9 6092.55 578.790   4
   2   5  -9 5108.24 537.206   1
  -2   5   8 728.510 190.154   4
   2   5  -8 731.550 183.694   1
   2   5  -8 803.090 142.906   3
   2   5  -8 802.197 198.409   4
  -2   5   7 12075.5 665.650   4
   2   5  -7 12594.6 781.672   1
   2   5  -7 12881.1 772.269   4
   2   5  -7 12659.9 529.329   3
  -2   5   6 12885.4 640.308   4
   2   5  -6 14520.1 840.124   1
   2   5  -6 14360.5 808.325   4
   2   5  -6 13464.1 492.381   3
  -2   5   5 9244.40 514.437   4
   2   5  -5 9627.06 630.837   4
   2   5  -5 10135.6 388.156   3
   2   5  -5 10008.9 672.294   1
  -2   5   4 8901.21 483.433   4
   2   5  -4 10234.2 357.199   3
   2   5  -4 9562.10 606.821   4
   2   5  -4 10150.6 677.794   1
   2   5  -4 9179.78 477.269   5
  -2   5   3 19067.5 677.378   4
   2   5  -3 20294.5 873.045   4
  -2   5   3 20359.5 732.731   1
  -2   5   3 19314.9 557.143   1
   2   5  -3 17887.2 865.215   1
   2   5  -3 19947.1 697.052   5
  -2   5   2 2907.53 209.720   7
  -2   5   2 2834.68 257.701   4
   2   5  -2 2760.09 256.404   5
   2   5  -2 3032.14 356.919   1
  -2   5   2 2937.84 274.861   1
  -2   5   2 3081.64 130.925   2
  -2   5   2 2892.44 202.432   5
   2   5  -1 5186.27 431.898   4
  -2   5   1 5842.81 363.503   4
   2   5  -1 4813.34 439.634   1
  -2   5   1 5201.42 361.343   1
   2   5  -1 4318.61 322.464   5
  -2   5   1 4924.35 222.015   5
  -2   5   1 5022.65 260.720   7
   2   5   0 89534.7 1777.10   4
  -2   5   0 85893.5 1389.83   4
   2   5   0 88167.1 1824.35   1
  -2   5   0 85589.9 1089.05   7
  -2   5   0 85889.7 1464.38   1
   2   5   0 85249.1 1456.77   5
   2   5   1 2272.45 289.694   4
  -2   5  -1 2495.63 239.212   4
  -2   5  -1 2534.65 192.596   7
   2   5   1 2470.20 306.831   1
  -2   5  -1 2678.68 270.827   1
  -2   5  -2 25877.2 796.504   4
   2   5   2 27960.2 992.534   4
  -2   5  -2 26607.5 847.337   1
   2   5   2 28638.0 1046.18   1
   2   5   3 8086.58 541.769   4
  -2   5  -3 7750.80 456.076   4
   2   5   3 7792.28 546.552   1
  -2   5  -3 8152.86 487.151   1
  -2   5  -4 21007.7 808.500   1
   2   5   4 20135.8 871.980   4
  -2   5  -4 21547.4 794.629   4
  -2   5  -5 2573.72 300.739   1
   2   5   5 2268.80 306.284   4
  -2   5  -5 2768.23 310.851   4
  -2   5  -6 6196.62 480.159   1
   2   5   6 6130.23 522.337   4
  -2   5  -6 5982.95 468.348   4
   2   5   7 1720.56 298.428   4
  -2   5  -7 2285.50 310.228   1
  -2   5  -7 1792.96 277.382   4
  -2   5  -7 1949.31 271.217   3
  -2   5  -8 98.6336 74.7958   3
   2   5   8 154.907 135.311   4
  -2   5  -8 231.938 130.600   1
   2   5   9 10947.4 813.962   4
  -2   5  -9 11138.1 737.201   1
  -2   5  -9 11140.6 697.283   3
   2   5  10 3801.97 521.312   4
  -2   5 -10 3256.71 423.931   1
  -2   5 -10 4646.29 471.410   3
  -2   5 -11 91.8599 125.519   1
  -2   5 -11-42.4726 91.6531   3
   2   5  11 175.984 141.704   4
  -2   5 -12 208.673 161.921   1
  -2   5 -12 199.893 110.187   3
  -2   6  13 1265.94 318.498   4
  -2   6  12 2986.50 482.827   4
   2   6 -12 3780.25 533.250   1
   2   6 -12 2540.92 466.434   4
  -2   6  11 4716.89 554.911   4
   2   6 -11 5798.22 630.565   4
   2   6 -11 4854.01 578.238   1
   2   6 -10 904.671 263.626   1
   2   6 -10 1208.21 303.931   4
  -2   6  10 441.033 170.561   4
   2   6  -9 4602.00 532.955   1
  -2   6   9 3833.12 443.554   4
   2   6  -9 4422.28 364.397   3
   2   6  -9 4943.33 551.739   4
   2   6  -8 6109.83 599.451   1
  -2   6   8 6217.65 526.990   4
   2   6  -8 6255.03 579.861   4
   2   6  -8 5862.25 398.857   3
  -2   6   7 2767.34 337.429   4
   2   6  -7 3044.71 398.176   4
   2   6  -7 3220.92 271.422   3
   2   6  -7 2776.23 394.792   1
  -2   6   6 35016.4 1136.92   4
   2   6  -6 37111.9 1354.90   4
   2   6  -6 36935.4 850.252   3
  -2   6   5 29677.4 1001.67   4
  -2   6   5 29912.6 1052.89   1
   2   6  -5 29226.4 1182.86   4
   2   6  -5 28873.0 703.844   3
   2   6  -5 31645.6 1286.86   1
  -2   6   4 13043.7 645.510   4
   2   6  -4 12852.4 763.675   4
  -2   6   4 12990.3 668.518   1
   2   6  -4 13068.0 825.589   1
   2   6  -4 13718.1 605.897   5
   2   6  -3 3807.43 432.787   1
  -2   6   3 3935.83 352.842   4
   2   6  -3 3893.06 415.675   4
  -2   6   3 4834.64 405.671   1
   2   6  -3 4548.43 342.362   5
  -2   6   2 11139.5 198.298   2
   2   6  -2 12908.6 749.373   4
  -2   6   2 11778.5 588.918   4
  -2   6   2 11935.3 424.976   5
  -2   6   2 11913.2 615.011   1
   2   6  -2 12627.1 568.714   5
   2   6  -2 12559.1 776.725   1
  -2   6   1 2865.54 285.919   4
   2   6  -1 3164.67 390.803   1
   2   6  -1 2607.48 339.747   4
  -2   6   1 3146.74 322.797   1
  -2   6   1 3448.56 184.377   5
   2   6  -1 3236.07 292.168   5
  -2   6   0 18157.9 727.953   4
   2   6   0 17478.3 856.995   4
   2   6   0 19652.1 939.655   1
  -2   6   0 17149.1 745.489   1
   2   6   0 20103.3 741.432   5
   2   6   1 2478.69 328.017   4
  -2   6  -1 2427.52 260.877   4
  -2   6  -1 3748.68 354.768   1
   2   6   1 3333.13 390.040   1
   2   6   2 481.989 156.372   1
   2   6   2 166.630 87.8741   4
  -2   6  -2 305.109 104.214   1
  -2   6  -2 208.981 88.7977   4
   2   6   3 17872.2 874.766   4
   2   6   3 19937.5 951.429   1
  -2   6  -3 18946.1 830.413   1
  -2   6  -4 7994.58 542.831   1
   2   6   4 7899.28 597.764   4
  -2   6  -4 8452.67 536.606   4
   2   6   4 9585.92 679.011   1
  -2   6  -5 2806.88 332.020   1
   2   6   5 3690.67 411.326   4
  -2   6  -5 3474.63 363.917   4
  -2   6  -6 2437.36 332.173   1
   2   6   6 2556.17 362.880   4
  -2   6  -6 2815.14 355.306   4
   2   6   7 3058.60 410.595   4
  -2   6  -7 3808.62 414.592   1
   2   6   8 2184.19 352.005   4
  -2   6  -8 1754.70 269.648   3
  -2   6  -8 2266.12 332.851   1
  -2   6  -8 3041.85 397.578   4
  -2   6  -9 1363.12 275.029   1
  -2   6  -9 781.983 193.726   3
   2   6   9 965.234 271.930   4
  -2   6 -10 2242.92 366.524   1
  -2   6 -10 2008.03 325.257   3
   2   6  10 1809.85 364.649   4
  -2   6 -11 595.219 208.037   1
   2   6  11 465.160 226.262   4
  -2   6 -11 583.449 194.955   3
  -2   7  12 672.283 267.290   4
  -2   7  11 6887.08 701.076   4
   2   7 -11 7428.45 768.717   1
   2   7 -11 7551.93 763.924   4
  -2   7  10 2631.32 409.798   4
   2   7 -10 2806.65 465.503   4
   2   7 -10 2880.52 469.059   1
   2   7 -10 2122.79 275.551   3
   2   7  -9 7632.94 719.845   1
  -2   7   9 6821.64 623.228   4
   2   7  -9 8185.77 722.562   4
   2   7  -9 7478.13 491.987   3
  -2   7   8 3818.96 444.339   4
   2   7  -8 4173.91 509.644   4
   2   7  -8 3610.55 318.120   3
   2   7  -8 3989.50 509.094   1
  -2   7   7 1432.63 258.696   4
   2   7  -7 1166.69 173.836   3
   2   7  -7 1514.26 303.218   4
   2   7  -6 434.486 208.613   1
   2   7  -6 550.944 116.216   3
  -2   7   6 233.744 108.332   4
   2   7  -6 465.872 174.931   4
  -2   7   6 386.000 139.949   1
   2   7  -5 6810.32 631.266   1
  -2   7   5 5775.93 481.903   4
   2   7  -5 7149.81 615.649   4
  -2   7   5 5704.72 502.837   1
   2   7  -5 6197.22 341.967   3
  -2   7   4 15355.2 772.467   4
   2   7  -4 15105.6 888.056   4
  -2   7   4 13794.0 758.661   1
   2   7  -4 16349.0 979.128   1
   2   7  -4 16552.0 673.735   5
  -2   7   3 2752.77 322.078   4
   2   7  -3 3629.75 430.418   4
   2   7  -3 3100.73 409.021   1
   2   7  -3 3616.42 317.214   5
  -2   7   3 3481.71 378.817   1
  -2   7   2 7915.01 174.345   2
  -2   7   2 7406.40 519.359   4
   2   7  -2 8072.35 646.217   4
   2   7  -2 7789.28 665.855   1
  -2   7   2 8112.33 565.854   1
   2   7  -2 8479.44 487.017   5
  -2   7   2 8318.00 358.701   5
  -2   7   1 3088.04 151.840   2
   2   7  -1 4214.36 456.920   4
  -2   7   1 3627.07 365.046   4
  -2   7   1 3265.69 361.126   1
   2   7  -1 3478.55 317.161   5
   2   7  -1 3301.05 427.133   1
  -2   7   1 3396.04 177.391   5
  -2   7   0 5374.86 241.539   2
  -2   7   0 5692.90 450.655   4
   2   7   0 5659.74 529.934   4
   2   7   0 6505.75 589.593   1
  -2   7   0 6730.97 514.415   1
   2   7   0 5910.82 416.793   5
   2   7   1 6966.94 582.749   4
  -2   7  -1 6657.35 487.638   4
  -2   7  -1 5553.67 476.004   1
   2   7   1 6736.78 592.522   1
   2   7   2 28399.9 1192.45   4
  -2   7  -2 25919.4 1033.96   1
  -2   7  -2 27376.1 997.901   4
   2   7   2 26040.6 1172.67   1
   2   7   3 18250.0 952.908   4
  -2   7  -3 18792.4 848.350   4
   2   7   3 16858.1 951.867   1
  -2   7  -3 20194.4 917.436   1
   2   7   4 1419.28 271.321   1
  -2   7  -4 848.968 191.108   4
   2   7   4 1276.03 257.007   4
  -2   7  -4 1321.10 253.947   1
  -2   7  -5 14921.5 817.113   1
   2   7   5 13078.3 845.316   4
   2   7   5 13400.6 872.764   1
  -2   7  -6 4187.85 449.986   1
   2   7   6 3582.28 445.416   4
  -2   7  -6 4124.54 435.838   4
   2   7   7 1646.69 318.764   4
  -2   7  -7 1950.02 338.893   4
  -2   7  -7 1201.16 258.007   1
  -2   7  -8 6363.79 540.949   3
  -2   7  -8 7118.56 621.278   1
   2   7   8 6249.10 638.240   4
  -2   7  -8 5765.20 561.870   4
  -2   7  -9 1040.61 263.779   1
  -2   7  -9 986.855 220.093   3
   2   7   9 832.437 253.272   4
  -2   7  -9 1146.99 267.823   4
  -2   7 -10 1364.75 310.206   1
  -2   7 -10 822.829 213.906   3
   2   7  10 871.547 263.066   4
  -2   7 -11 1255.52 302.276   1
  -2   7 -11 852.373 236.897   3
  -2   8  12 619.462 265.282   4
  -2   8  11 1139.88 321.780   4
   2   8 -11 1701.14 416.515   4
   2   8 -11 987.431 296.077   1
   2   8 -10 10648.7 920.258   1
  -2   8  10 8443.27 764.702   4
   2   8 -10 9105.90 585.919   3
   2   8 -10 10287.4 890.647   4
  -2   8   9 398.432 169.400   4
   2   8  -9 340.093 173.343   1
   2   8  -9 217.204 146.837   4
   2   8  -9 223.986 102.731   3
   2   8  -8 492.896 248.901   1
  -2   8   8 491.465 180.640   4
   2   8  -8 814.828 217.818   4
   2   8  -8 460.166 115.312   3
  -2   8   8 626.953 226.024   1
   2   8  -7 23487.8 1247.26   4
  -2   8   7 17924.4 1017.63   1
   2   8  -7 20456.1 733.427   3
  -2   8   7 20883.6 1053.02   4
   2   8  -7 23944.1 1311.55   1
   2   8  -6 2102.26 374.174   1
  -2   8   6 1827.63 303.529   4
   2   8  -6 2244.87 374.334   4
  -2   8   6 2104.99 340.987   1
   2   8  -6 1831.64 209.410   3
  -2   8   5 15795.5 872.784   4
   2   8  -5 15145.9 954.149   4
  -2   8   5 15090.2 885.180   1
   2   8  -5 15035.6 1014.94   1
  -2   8   4 2708.88 359.504   4
   2   8  -4 3098.53 426.517   4
   2   8  -4 2362.25 387.812   1
   2   8  -4 2026.96 243.374   5
  -2   8   4 1736.27 288.500   1
  -2   8   3 4342.68 439.752   4
   2   8  -3 5014.23 538.675   4
  -2   8   3 4504.52 468.404   1
   2   8  -3 3621.08 478.450   1
   2   8  -3 4379.98 354.691   5
  -2   8   2 22288.6 1049.05   1
  -2   8   2 22614.1 988.688   4
   2   8  -2 22418.3 1134.40   4
   2   8  -2 24182.5 1233.35   1
   2   8  -2 23080.6 828.030   5
   2   8  -1 13296.8 864.978   4
  -2   8   1 12743.0 737.924   4
   2   8  -1 12818.5 622.315   5
   2   8  -1 12347.6 877.397   1
  -2   8   1 11370.0 294.612   5
  -2   8   1 13826.2 808.627   1
   2   8   0 11113.7 791.970   4
  -2   8   0 11828.1 707.756   4
  -2   8   0 10473.8 702.217   1
   2   8   0 9970.55 558.261   5
   2   8   0 10644.7 815.529   1
   2   8   1 6295.99 589.253   4
  -2   8  -1 9461.37 637.004   4
   2   8   1 6045.84 596.785   1
  -2   8  -1 9651.08 681.180   1
   2   8   2 9093.14 740.974   1
   2   8   2 8297.31 688.289   4
  -2   8  -2 9596.45 643.793   4
  -2   8  -2 8996.07 661.841   1
   2   8   3 6554.82 624.460   4
  -2   8  -3 7127.06 560.688   4
   2   8   3 8193.46 716.371   1
   2   8   4 9397.66 748.391   4
  -2   8  -4 10220.5 695.980   4
   2   8   4 9728.12 787.924   1
  -2   8  -4 10195.7 732.104   1
   2   8   5 13916.5 921.385   4
  -2   8  -5 11816.0 751.807   4
  -2   8  -5 13256.2 829.916   1
   2   8   5 12345.7 909.737   1
  -2   8  -6 5830.67 545.168   4
   2   8   6 6197.29 625.870   4
   2   8   6 5991.19 632.741   1
  -2   8  -6 5274.60 538.596   1
  -2   8  -7 4277.35 502.208   1
   2   8   7 4177.47 524.895   4
  -2   8  -7 5003.89 538.358   4
   2   8   7 3096.36 478.965   1
   2   8   8 2260.91 412.846   4
  -2   8  -8 2881.12 417.762   1
  -2   8  -8 3045.77 442.562   4
   2   8   8 2441.59 445.175   1
  -2   8  -9 2839.62 392.276   3
  -2   8  -9 2950.02 441.997   1
  -2   8  -9 3134.64 456.221   4
   2   8   9 2083.63 414.554   4
  -2   8 -10 2821.59 450.518   1
  -2   8 -10 2861.54 406.470   3
  -2   9  11 383.996 202.942   4
  -2   9  11-43.0418 157.686   1
  -2   9  10 2.86272 118.526   4
   2   9 -10 211.389 164.620   1
   2   9 -10 351.941 210.911   4
  -2   9  10 97.9027 140.099   1
  -2   9   9 378.342 169.813   4
   2   9  -9 1105.23 314.118   1
   2   9  -9 1402.22 345.850   4
  -2   9   9 1358.73 324.908   1
  -2   9   8 380.718 195.056   1
   2   9  -8 304.759 200.282   1
   2   9  -8 293.308 146.997   4
   2   9  -8 313.698 111.075   3
  -2   9   8 634.226 222.337   4
  -2   9   7 4046.22 491.828   4
   2   9  -7 4018.24 541.172   4
   2   9  -7 3048.64 293.303   3
   2   9  -7 3296.23 518.927   1
  -2   9   7 3499.60 488.966   1
   2   9  -6 675.827 251.581   4
  -2   9   6 1214.15 276.597   1
  -2   9   6 874.857 243.667   4
   2   9  -6 934.702 157.913   3
   2   9  -6 1377.06 330.128   1
  -2   9   5 865.710 230.722   4
   2   9  -5 1579.07 334.255   4
   2   9  -5 1380.48 341.821   1
  -2   9   5 1856.35 334.582   1
  -2   9   4 894.723 232.500   4
   2   9  -4 871.316 240.107   4
   2   9  -4 900.124 167.515   5
   2   9  -4 801.930 254.842   1
  -2   9   4 700.939 193.169   1
   2   9  -3 16078.4 697.911   5
  -2   9   3 14063.0 856.300   4
   2   9  -3 14073.4 957.231   4
   2   9  -3 16067.9 1071.10   1
  -2   9   3 15198.8 927.188   1
  -2   9   2 1425.43 271.445   4
   2   9  -2 1766.94 356.142   4
  -2   9   2 1452.70 291.783   1
   2   9  -2 1504.56 340.247   1
   2   9  -2 1849.82 245.292   5
  -2   9   1 1216.04 254.919   4
  -2   9   1 979.345 238.157   1
   2   9  -1 716.448 218.305   1
   2   9  -1 733.904 223.581   4
   2   9  -1 1136.80 193.662   5
   2   9   0 4571.59 542.545   4
  -2   9   0 3840.91 431.433   4
  -2   9   0 4161.33 475.804   1
   2   9   0 3211.28 334.745   5
   2   9   0 3236.82 485.230   1
  -2   9  -1 5026.30 529.864   1
   2   9   1 4728.21 555.454   4
  -2   9  -1 4787.81 487.420   4
   2   9   1 4040.68 534.211   1
   2   9   1 4858.75 422.618   5
   2   9   2 872.776 242.639   4
  -2   9  -2 878.968 214.410   4
  -2   9  -2 843.002 226.601   1
   2   9   2 1451.20 324.679   1
   2   9   3 891.085 272.218   1
  -2   9  -3 1623.50 286.971   4
  -2   9  -3 937.645 232.639   1
   2   9   3 1310.13 294.889   4
   2   9   4 6144.55 648.542   4
  -2   9  -4 7180.01 620.265   4
   2   9   4 5407.17 636.653   1
  -2   9  -4 5948.49 593.579   1
   2   9   5 2222.11 386.743   4
  -2   9  -5 3346.35 432.339   4
  -2   9  -5 2836.62 407.242   1
   2   9   5 2760.69 462.187   1
  -2   9  -6 3145.09 439.122   1
   2   9   6 3388.50 491.440   4
  -2   9  -6 4074.20 477.673   4
   2   9   6 4690.16 607.832   1
   2   9   7 1899.36 407.938   1
  -2   9  -7 2571.36 409.511   4
  -2   9  -7 1551.86 317.575   1
   2   9   7 1914.01 376.511   4
  -2   9  -8 2043.05 374.297   1
   2   9   8 1980.99 421.348   1
  -2   9  -8 2445.01 439.258   4
   2   9   8 2070.84 416.253   4
  -2   9  -9 270.561 136.925   1
  -2   9  -9 271.498 183.650   4
  -2   9  -9 283.638 146.903   3
   2   9   9 422.890 238.646   4
   2   9   9 281.191 189.270   1
  -2   9 -10 2032.49 394.240   1
  -2   9 -10 942.524 261.684   4
  -2  10  10 2654.73 491.120   1
  -2  10  10 2016.21 428.015   4
  -2  10   9 192.062 197.167   1
   2  10  -9-4.62706 127.703   1
  -2  10   9 121.395 171.899   4
   2  10  -9-27.8304 98.7859   4
  -2  10   8 343.172 207.561   1
   2  10  -8 641.993 286.142   1
  -2  10   8 203.190 138.869   4
   2  10  -8 169.486 119.523   4
  -2  10   7 277.322 206.952   1
   2  10  -7 95.6793 134.792   4
   2  10  -7-126.872 160.374   1
  -2  10   7 233.676 119.743   4
  -2  10   6 462.895 193.778   1
  -2  10   6 560.479 210.574   4
   2  10  -6-26.7797 155.304   4
   2  10  -6 604.949 236.503   1
   2  10  -5 1685.73 379.679   4
  -2  10   5 1313.92 318.547   1
  -2  10   5 1696.98 318.471   4
   2  10  -5 2059.35 439.865   1
  -2  10   4 287.125 150.469   1
  -2  10   4 413.984 173.904   4
   2  10  -4 53.0574 139.556   4
   2  10  -4 257.543 166.958   1
   2  10  -3 5469.22 635.126   4
  -2  10   3 7495.19 709.465   1
   2  10  -3 5518.23 685.784   1
   2  10  -3 6749.95 461.637   5
  -2  10   3 6568.88 634.340   4
  -2  10   2 2185.31 363.174   4
   2  10  -2 2407.12 418.109   4
  -2  10   2 2045.57 365.138   1
   2  10  -2 2468.67 447.904   1
   2  10  -2 1577.94 227.674   5
   2  10  -1 5206.04 618.375   4
  -2  10   1 5237.11 549.280   4
   2  10  -1 5677.20 679.199   1
  -2  10   1 4583.02 545.858   1
   2  10  -1 5477.66 430.474   5
   2  10   0 4612.75 572.930   4
   2  10   0 3012.70 496.290   1
  -2  10   0 3176.29 422.969   4
  -2  10   0 3500.32 474.375   1
   2  10   0 4451.64 402.613   5
   2  10   1 638.250 230.150   1
   2  10   1 205.798 97.4291   4
  -2  10  -1 198.946 138.312   1
  -2  10  -1 327.874 157.183   4
   2  10   1 442.182 150.437   5
   2  10   2 922.349 271.060   1
  -2  10  -2 1638.48 316.810   4
   2  10   2 995.017 273.984   4
  -2  10  -2 1614.12 334.367   1
   2  10   3 205.128 159.534   1
  -2  10  -3 608.701 210.410   4
   2  10   3 417.203 191.878   4
  -2  10  -3 473.547 180.623   1
  -2  10  -4-78.3833 124.916   1
   2  10   4-55.9990 145.120   1
   2  10   4-26.3415 117.413   4
  -2  10  -4 55.5087 90.8598   4
   2  10   5 1817.37 399.716   1
   2  10   5 2030.45 433.560   4
  -2  10  -5 1853.26 344.070   4
  -2  10  -5 2124.05 390.978   1
   2  10   6 1554.38 374.493   1
  -2  10  -6 1955.33 361.532   4
   2  10   6 1095.83 305.025   4
  -2  10  -6 1353.05 300.281   1
   2  10   7 922.156 296.894   4
   2  10   7 771.566 286.024   1
  -2  10  -7 637.249 221.393   4
  -2  10  -7 707.055 236.620   1
   2  10   8 94.5937 143.712   1
   2  10   8-10.1989 104.266   4
  -2  10  -8 390.653 198.387   1
  -2  10  -8 112.044 146.613   4
  -2  10  -9 1051.25 282.273   1
  -2  10  -9 1854.83 382.953   4
  -2  11   9 395.907 264.627   1
  -2  11   9-110.235 168.580   4
  -2  11   8 1988.67 443.577   1
   2  11  -8 2016.22 480.835   1
  -2  11   8 1964.18 411.107   4
   2  11  -8 1467.59 383.824   4
   2  11  -7 235.211 216.219   1
  -2  11   7-182.724 159.583   1
   2  11  -7-55.4938 140.346   4
  -2  11   7-37.7471 130.584   4
  -2  11   6 493.055 237.091   1
   2  11  -6 871.237 285.332   4
  -2  11   6 862.467 295.814   4
   2  11  -6 953.110 326.970   1
  -2  11   5 2324.79 423.096   4
  -2  11   5 2123.24 406.189   1
   2  11  -5 1847.65 411.807   4
   2  11  -5 2959.74 530.260   1
  -2  11   4 794.103 250.494   4
  -2  11   4 309.985 202.146   1
   2  11  -4 374.915 203.033   4
   2  11  -4 520.246 246.692   1
  -2  11   3 3937.93 513.659   4
   2  11  -3 3956.60 566.752   4
  -2  11   3 3185.73 499.703   1
   2  11  -3 3443.64 554.350   1
  -2  11   2 2305.52 392.672   4
   2  11  -2 2559.59 466.472   4
  -2  11   2 2715.59 462.863   1
   2  11  -2 3078.66 536.935   1
   2  11  -1 479.557 199.667   1
  -2  11   1 883.612 263.684   1
   2  11  -1 919.353 294.485   4
  -2  11   1 512.869 188.505   4
   2  11   0 2018.20 437.769   1
   2  11   0 2463.49 457.706   4
  -2  11   0 2355.67 397.609   4
  -2  11   0 2622.29 440.080   1
   2  11   1 1563.07 258.698   5
   2  11   1 1310.66 361.064   1
  -2  11  -1 1623.34 327.627   4
  -2  11  -1 1534.41 347.886   1
   2  11   1 1625.24 360.297   4
  -2  11  -2 2068.55 369.518   4
   2  11   2 1518.16 370.162   1
   2  11   2 2268.62 424.130   4
  -2  11  -2 1699.86 361.990   1
   2  11   2 1993.47 306.144   5
  -2  11  -3 4006.44 542.928   1
  -2  11  -3 4008.70 515.980   4
   2  11   3 3593.18 582.534   1
   2  11   3 2686.36 475.651   4
   2  11   4 2505.44 452.251   4
  -2  11  -4 3927.45 527.072   4
   2  11   4 3148.53 547.841   1
  -2  11  -4 3076.65 492.480   1
   2  11   5 550.687 270.514   1
  -2  11  -5 430.733 218.778   1
   2  11   5 665.894 302.823   4
  -2  11  -5 318.170 191.495   4
   2  11   6 203.505 183.460   1
   2  11   6 442.724 218.830   4
  -2  11  -6 220.675 125.784   1
  -2  11  -6 284.885 185.050   4
   2  11   7 2249.20 495.917   1
  -2  11  -7 1500.40 357.787   1
  -2  11  -7 1511.46 359.682   4
  -2  11  -8 1645.17 377.194   1
  -2  11  -8 1217.29 337.870   4
  -2  12   7 1086.51 331.192   4
  -2  12   7 1357.63 402.730   1
  -2  12   6 258.268 218.733   1
   2  12  -6 196.914 181.976   4
  -2  12   6 589.426 255.576   4
   2  12  -5 7876.97 848.241   4
  -2  12   5 6720.03 750.117   4
  -2  12   5 6458.56 788.797   1
   2  12  -5 8094.90 928.326   1
   2  12  -4 718.363 281.857   4
  -2  12   4 819.351 280.469   1
   2  12  -4 1132.62 382.292   1
  -2  12   4 933.144 296.665   4
   2  12  -3 1283.82 403.436   1
  -2  12   3 727.476 263.148   1
  -2  12   3 551.152 239.746   4
   2  12  -3 571.116 271.227   4
  -2  12   2 602.534 214.774   1
  -2  12   2 626.256 227.177   4
   2  12  -2 1138.95 356.770   1
   2  12  -2 604.554 269.410   4
  -2  12   1 938.593 301.875   1
   2  12  -1 301.002 179.981   4
  -2  12   1 293.595 189.013   4
   2  12  -1 522.396 249.901   1
   2  12   0 2196.95 481.217   1
   2  12   0 1472.35 385.926   4
  -2  12   0 1981.29 386.840   4
  -2  12   0 2466.01 460.717   1
   2  12   1 317.188 177.632   1
  -2  12  -1 527.918 224.110   4
   2  12   1 891.172 309.535   4
  -2  12  -1 389.071 202.061   1
   2  12   2 2731.47 515.009   4
  -2  12  -2 2203.41 398.784   4
   2  12   2 2514.08 519.056   1
  -2  12  -2 2535.94 458.905   1
   2  12   3 261.380 209.703   1
  -2  12  -3 258.721 155.608   4
   2  12   3-86.0261 142.506   4
  -2  12  -3 317.195 201.641   1
  -2  12  -4 1145.78 325.607   1
   2  12   4 333.806 224.118   1
  -2  12  -4 659.094 257.671   4
   2  12   4 733.108 306.086   4
  -2  12  -5 470.458 213.386   1
   2  12   5 191.287 177.075   1
   2  12   5 329.943 190.436   4
  -2  12  -5 575.018 241.548   4
  -2  12  -6 3768.45 574.404   1
  -2  12  -6 3463.48 531.320   4
  -2  13   5 305.132 232.099   4
  -2  13   5 187.648 216.920   1
  -2  13   4 4078.68 652.940   1
  -2  13   4 2671.41 493.780   4
  -2  13   3 1880.57 444.377   1
  -2  13   3 2408.47 462.170   4
   2  13  -3 2269.66 509.171   4
   2  13  -3 2408.04 539.631   1
  -2  13   2 3807.47 595.979   1
   2  13  -2 3351.17 599.216   4
  -2  13   2 2551.63 467.906   4
   2  13  -2 3221.89 599.255   1
   2  13  -1 902.441 326.797   4
   2  13  -1 376.781 228.220   1
  -2  13   1 571.609 289.678   1
  -2  13   1 349.610 211.908   4
  -2  13   0 3608.22 565.499   4
   2  13   0 2856.21 589.193   1
  -2  13   0 2127.58 452.426   1
   2  13   0 1932.69 439.453   4
  -2  13  -1 3012.97 490.660   4
  -2  13  -1 2681.50 527.016   1
   2  13   1 2343.73 566.925   1
   2  13   1 2405.96 495.180   4
  -2  13  -2 2405.21 478.048   4
   2  13   2 2674.95 554.640   1
   2  13   2 1735.05 439.775   4
  -2  13  -2 3200.81 544.468   1
  -2  13  -3 90.3216 144.092   4
  -2  13  -3 62.1104 137.734   1
  -2  13  -4-50.6747 171.469   1
  -2  13  -4 88.3879 116.634   4
  -2  13  -5 4748.72 656.994   4
  -2  13  -5 3301.69 562.028   1
  -2  14   1 1131.21 378.125   1
  -2  14   1 2210.69 456.706   4
  -2  14   0-16.8330 157.350   4
  -2  14   0-75.0451 163.858   1
  -2  14  -1 768.238 298.139   4
  -2  14  -1 860.977 336.400   1
  -3 -12   5 1526.42 318.012   7
  -3 -12   4 4757.24 539.623   7
  -3 -12   3 4579.56 514.988   7
  -3 -12   2 256.470 104.508   2
  -3 -12   2 329.203 144.684   7
  -3 -12   1 1500.59 305.194   7
   3 -12  -1 1505.96 249.137   7
  -3 -12   0 98.1649 93.3634   7
   3 -12   0 158.986 103.649   7
   3 -12   1 1054.54 205.818   7
  -3 -12  -1 740.705 217.778   7
  -3 -12  -2-19.2958 88.3513   7
  -3 -12  -3 3369.42 442.673   7
  -3 -12  -4 5688.42 577.585   7
  -3 -11   6 1187.42 281.189   7
   3 -11  -5 3011.84 346.293   7
  -3 -11   5 4561.11 503.651   7
   3 -11  -4 3805.90 372.419   7
  -3 -11   4 3555.65 438.064   7
  -3 -11   3 2160.22 270.090   2
   3 -11  -3 2136.10 270.430   7
  -3 -11   3 2335.56 352.753   7
  -3 -11   2 915.038 175.093   2
  -3 -11   2 1527.11 278.846   7
   3 -11  -2 1136.53 197.077   7
  -3 -11   1 259.748 104.539   2
  -3 -11   1 240.323 116.329   7
   3 -11  -1 94.2470 65.0692   7
  -3 -11   0 169.034 65.7595   2
  -3 -11   0 366.818 150.643   7
   3 -11   0 387.227 125.009   7
  -3 -11  -1 118.295 67.1867   2
   3 -11   1 74.3536 62.6747   7
  -3 -11  -1-20.1697 75.4318   7
  -3 -11  -2 344.343 159.003   7
  -3 -11  -3 2229.29 343.673   7
  -3 -11  -4 1403.49 283.053   7
  -3 -11  -5 848.989 226.171   7
  -3 -11  -6 387.321 188.994   7
   3 -10  -7 1414.91 235.191   7
   3 -10  -6 519.242 150.259   7
  -3 -10   6 837.126 205.089   7
  -3 -10   5 1489.26 235.133   2
   3 -10  -5 1134.40 203.743   7
  -3 -10   5 1230.13 251.200   7
  -3 -10   4 1490.00 224.977   2
   3 -10  -4 1602.85 224.870   7
  -3 -10   4 1709.49 280.573   7
  -3 -10   3 2374.00 270.901   2
   3 -10  -3 1634.59 224.210   7
  -3 -10   3 2360.25 332.988   7
  -3 -10   2 364.957 108.679   2
   3 -10  -2 124.099 76.2920   7
  -3 -10   2 420.875 144.751   7
  -3 -10   1 116.605 55.4242   2
  -3 -10   1-9.57890 61.0051   7
   3 -10  -1 14.6134 49.1646   7
  -3 -10   0 135.473 76.2092   7
   3 -10   0 214.149 90.9515   7
  -3 -10  -1 159.710 73.9543   2
  -3 -10  -1 239.075 117.607   7
   3 -10   1 321.542 104.075   7
  -3 -10  -2 132.468 67.9545   2
  -3 -10  -2 150.403 92.6589   7
  -3 -10  -3 874.155 209.391   7
  -3 -10  -4 1828.38 300.759   7
  -3 -10  -5 894.689 210.172   7
  -3 -10  -6 313.487 146.240   7
  -3 -10  -7 386.632 147.622   7
   3  -9  -9 1834.78 288.480   7
   3  -9  -8 403.825 126.484   7
   3  -9  -7 2928.00 318.398   7
  -3  -9   7 2444.05 294.748   6
   3  -9  -6 856.926 161.129   7
  -3  -9   6 1094.51 230.697   7
  -3  -9   5 80.2325 74.1236   2
  -3  -9   5 25.7166 55.7097   7
   3  -9  -5 50.4246 62.1418   7
  -3  -9   4 3323.92 320.019   2
   3  -9  -4 3324.83 301.578   7
  -3  -9   4 3809.09 398.016   7
  -3  -9   3 4408.18 350.178   2
   3  -9  -3 4807.11 354.151   7
  -3  -9   3 4139.96 403.655   7
  -3  -9   2-6.09509 36.4076   2
   3  -9  -2 83.0392 71.7109   7
  -3  -9   2-32.1689 61.5286   7
  -3  -9   1 2784.77 264.791   2
  -3  -9   1 2912.27 339.280   7
   3  -9  -1 2760.75 260.528   7
  -3  -9   0 3618.76 297.617   2
  -3  -9   0 3232.92 358.560   7
   3  -9   0 4096.44 324.925   7
  -3  -9  -1 1682.40 205.786   2
  -3  -9  -1 1719.79 258.577   7
   3  -9   1 2102.80 233.768   7
  -3  -9  -2 3244.37 276.362   2
  -3  -9  -2 2938.58 353.910   7
  -3  -9  -3 2207.80 301.948   7
  -3  -9  -3 2713.52 252.140   2
  -3  -9  -4 4402.94 325.138   2
  -3  -9  -4 5385.30 476.192   7
  -3  -9  -5 6332.58 533.184   7
  -3  -9  -6 6352.79 552.927   7
  -3  -9  -7 907.495 221.831   7
  -3  -9  -8 1728.35 318.876   7
   3  -9   9 3607.05 453.042   4
   3  -8 -10 1794.46 285.675   7
   3  -8  -9 1038.74 200.542   7
  -3  -8   9 1260.36 216.797   6
   3  -8  -8 1025.27 188.935   7
  -3  -8   8 1129.70 209.051   6
   3  -8  -7 4298.68 364.129   7
  -3  -8   7 4849.27 410.588   6
  -3  -8   6 5283.26 423.739   2
  -3  -8   6 6139.54 495.674   7
   3  -8  -6 5113.00 375.872   7
  -3  -8   5 992.141 196.882   7
   3  -8  -5 712.533 137.096   7
  -3  -8   4 4401.19 352.787   2
   3  -8  -4 4230.53 315.665   7
  -3  -8   4 4303.45 400.797   7
  -3  -8   3 3309.15 297.392   2
   3  -8  -3 2975.56 255.460   7
  -3  -8   3 3773.94 372.358   7
  -3  -8   2 9071.04 474.044   2
  -3  -8   2 9010.29 560.471   7
   3  -8  -2 8989.61 435.576   7
  -3  -8   1 203.386 89.6230   2
   3  -8  -1 279.190 76.1685   7
  -3  -8   1 336.789 106.843   7
  -3  -8   0 13358.4 555.866   2
   3  -8   0 13267.9 535.277   7
  -3  -8   0 13353.9 681.808   7
  -3  -8  -1 13470.8 552.548   2
  -3  -8  -1 12739.4 665.668   7
   3  -8   1 13509.2 549.363   7
  -3  -8  -2 4408.90 318.633   2
  -3  -8  -2 3860.77 371.844   7
  -3  -8  -3 3709.30 290.351   2
  -3  -8  -3 3587.36 360.142   7
  -3  -8  -4 4183.49 316.807   2
  -3  -8  -4 4733.06 429.580   7
  -3  -8  -5 1571.05 199.836   2
  -3  -8  -5 1692.04 267.263   7
  -3  -8  -6 4163.65 429.519   7
  -3  -8  -6 4022.99 319.764   2
  -3  -8  -7 3898.68 428.505   7
  -3  -8  -8 1425.89 259.793   7
   3  -8   9 4524.05 500.228   4
  -3  -8  -9 3377.16 428.005   7
   3  -8  10 1930.52 350.803   4
   3  -7 -12 1234.40 243.125   7
   3  -7 -11 336.995 154.072   7
   3  -7 -10 8186.38 557.089   7
  -3  -7  10 7442.42 537.063   6
   3  -7  -9 12192.2 648.524   7
  -3  -7   9 13355.8 701.448   6
   3  -7  -8 10635.9 568.771   7
  -3  -7   8 11504.9 629.260   6
   3  -7  -7 312.986 101.430   7
  -3  -7   7 197.724 86.3459   6
  -3  -7   6 13385.5 645.891   2
   3  -7  -6 13031.3 570.348   7
  -3  -7   5 14168.4 629.239   2
   3  -7  -5 14348.6 561.986   7
  -3  -7   5 14625.6 712.745   7
   3  -7  -4 410.620 96.2093   7
  -3  -7   4 622.720 142.677   7
  -3  -7   4 478.223 116.217   2
  -3  -7   3 16167.0 627.951   2
   3  -7  -3 15052.2 525.490   7
  -3  -7   3 14760.8 673.689   7
  -3  -7   2 686.642 126.852   2
   3  -7  -2 791.254 118.464   7
  -3  -7   2 617.380 139.500   7
  -3  -7   1 2854.03 296.364   7
  -3  -7   1 2724.97 249.846   2
   3  -7  -1 2453.90 202.944   7
  -3  -7   0 2825.03 247.797   2
   3  -7   0 3631.27 251.822   7
  -3  -7   0 3714.91 335.428   7
  -3  -7  -1 33750.1 865.429   2
  -3  -7  -1 33254.1 1014.72   7
  -3  -7  -2 8324.75 434.329   2
  -3  -7  -2 8550.77 521.322   7
  -3  -7  -3 11729.9 519.237   2
  -3  -7  -3 11140.9 603.912   7
  -3  -7  -4 7506.09 510.751   7
  -3  -7  -4 7759.12 427.848   2
  -3  -7  -5 5758.85 463.875   7
  -3  -7  -5 6647.30 409.248   2
  -3  -7  -6 353.222 99.8809   2
  -3  -7  -6 110.371 73.0185   7
  -3  -7  -7 2725.30 278.770   2
  -3  -7  -7 2890.70 353.963   7
  -3  -7  -8 3327.89 390.119   7
   3  -7   8 3115.20 378.358   4
   3  -7   9 329.943 164.520   4
  -3  -7  -9 377.584 167.568   7
   3  -7  10 3110.77 429.246   4
  -3  -7 -10 2925.12 405.571   7
   3  -6 -13 912.206 244.397   7
   3  -6 -12 4103.57 441.507   7
   3  -6 -11 6549.23 525.351   7
   3  -6 -10 1280.14 219.838   7
  -3  -6  10 1693.75 263.710   6
   3  -6  -9 6917.62 467.949   7
  -3  -6   9 7816.02 530.879   6
   3  -6  -8 5119.64 380.312   7
  -3  -6   8 5241.09 420.378   6
  -3  -6   7 1595.90 232.441   2
  -3  -6   7 1679.97 236.307   6
   3  -6  -7 2000.87 225.159   7
  -3  -6   6 21477.9 784.469   2
   3  -6  -6 20520.5 668.893   7
  -3  -6   5 21546.5 743.059   2
   3  -6  -5 22000.8 649.830   7
  -3  -6   5 22009.6 816.906   7
   3  -6  -4 28494.1 685.324   7
  -3  -6   4 30523.5 858.089   2
  -3  -6   4 31223.7 943.928   7
   3  -6  -3 24500.0 692.686   4
  -3  -6   3 26153.3 772.800   2
   3  -6  -3 26793.5 631.060   7
  -3  -6   3 26553.2 844.027   7
  -3  -6   2 266.410 76.7543   2
   3  -6  -2 324.624 91.2405   4
   3  -6  -2 423.140 76.5761   7
   3  -6  -1 2803.23 248.407   4
   3  -6  -1 2607.56 185.050   7
  -3  -6   1 2596.20 233.887   2
  -3  -6   1 3051.36 284.268   7
  -3  -6   0 3556.44 276.165   2
   3  -6   0 4067.49 317.893   4
   3  -6   0 3794.92 230.358   7
   3  -6   0 4061.14 332.222   1
  -3  -6  -1 1978.74 205.247   2
  -3  -6  -1 2238.41 247.275   7
  -3  -6  -2 20767.1 760.269   7
  -3  -6  -2 17658.4 622.352   2
  -3  -6  -3 9001.55 517.893   7
  -3  -6  -3 10874.4 493.205   2
   3  -6   4 944.929 91.6463   5
  -3  -6  -4 737.839 129.477   2
  -3  -6  -5 8770.91 538.524   7
  -3  -6  -5 8192.10 453.082   2
  -3  -6  -6 2688.24 313.022   7
  -3  -6  -6 3011.51 285.838   2
  -3  -6  -7 1472.63 239.738   7
  -3  -6  -7 1686.09 225.535   2
   3  -6   7 2169.71 286.264   4
   3  -6   8 3524.40 399.906   4
  -3  -6  -8 2596.95 290.738   2
  -3  -6  -8 3266.48 377.958   7
  -3  -6  -9 662.219 155.227   2
   3  -6   9 1115.26 237.066   4
  -3  -6  -9 1172.42 241.218   7
   3  -6  10 892.950 237.787   4
  -3  -6 -10 761.081 207.069   7
   3  -6  11 450.849 177.922   4
   3  -5 -13 45.3956 110.843   7
   3  -5 -13 79.1611 96.5640   1
  -3  -5  12 1230.79 282.133   4
   3  -5 -12 1534.76 271.603   7
   3  -5 -12 1523.12 271.358   1
   3  -5 -11 617.945 170.846   7
   3  -5 -11 556.543 157.845   1
   3  -5 -10 3311.13 349.402   1
   3  -5 -10 3170.36 337.776   7
  -3  -5  10 4047.29 391.942   6
  -3  -5   9 3845.01 369.356   6
   3  -5  -9 3449.73 334.770   1
   3  -5  -9 3418.94 329.721   7
   3  -5  -8 4062.47 333.795   7
  -3  -5   8 4016.00 362.000   6
  -3  -5   7 7881.96 476.205   2
  -3  -5   7 7064.11 472.205   6
   3  -5  -7 6738.76 400.727   7
  -3  -5   6 5952.96 389.649   2
   3  -5  -6 6023.01 343.566   7
  -3  -5   5 17086.1 640.168   2
   3  -5  -5 15466.4 497.563   7
  -3  -5   5 17672.0 687.905   7
   3  -5  -4 12608.2 440.147   4
  -3  -5   4 13446.1 549.055   2
   3  -5  -4 14444.2 448.123   7
  -3  -5   4 14824.5 616.690   7
   3  -5  -3 620.115 94.6772   4
  -3  -5   3 553.862 114.145   2
   3  -5  -3 578.831 82.9567   7
  -3  -5   3 545.957 116.793   7
  -3  -5   2 12910.8 516.474   2
   3  -5  -2 12245.3 355.305   7
   3  -5  -2 13209.3 430.275   4
  -3  -5   1 14415.3 546.102   2
   3  -5  -1 14564.1 477.370   4
  -3  -5   1 14694.7 579.241   7
   3  -5  -1 14890.7 381.245   7
  -3  -5   0 36598.8 861.124   2
   3  -5   0 36802.6 843.192   4
   3  -5   0 37122.0 883.489   1
  -3  -5   0 37787.6 924.728   7
   3  -5   0 37166.1 617.506   7
   3  -5   1 6751.45 227.534   5
   3  -5   1 6548.61 395.233   4
   3  -5   1 6404.11 407.866   1
  -3  -5  -1 6359.90 364.034   2
  -3  -5  -1 7518.90 414.843   7
  -3  -5  -2 9705.28 485.758   7
   3  -5   2 10457.0 297.388   5
  -3  -5  -2 9856.91 457.567   2
   3  -5   3 17197.6 444.423   5
  -3  -5  -3 17347.9 671.243   7
  -3  -5  -4 4656.82 359.320   7
  -3  -5  -4 4847.81 342.170   2
  -3  -5  -5 6126.78 432.334   7
  -3  -5  -5 6088.63 389.588   2
  -3  -5  -6 1660.06 244.699   7
   3  -5   6 1347.34 205.557   4
   3  -5   7 5501.02 433.906   4
  -3  -5  -7 5190.73 434.667   7
   3  -5   8 3302.45 365.949   4
  -3  -5  -8 3457.04 374.666   7
  -3  -5  -9 331.012 139.639   7
   3  -5   9 508.903 164.765   4
   3  -5  10 7376.74 628.786   4
  -3  -5 -10 7842.17 630.923   7
   3  -5  11-26.2501 91.2295   4
  -3  -5 -11-2.88452 87.2432   7
   3  -4 -14 469.946 193.536   1
  -3  -4  13 846.782 240.577   4
   3  -4 -13 732.084 193.133   1
   3  -4 -12 309.241 119.576   1
  -3  -4  12 623.817 202.869   4
   3  -4 -11 4297.98 409.846   1
   3  -4 -10 271.372 105.072   1
  -3  -4  10 324.636 107.790   6
  -3  -4   9 2385.83 291.746   6
   3  -4  -9 1695.81 220.220   1
  -3  -4   8 2625.61 295.577   6
   3  -4  -8 1999.56 225.817   1
  -3  -4   7 1104.36 174.703   2
   3  -4  -7 963.585 146.635   7
   3  -4  -7 863.670 135.874   1
  -3  -4   7 1076.01 183.011   6
   3  -4  -6 354.045 64.5920   2
  -3  -4   6 313.001 92.3346   2
   3  -4  -6 376.952 86.7835   1
   3  -4  -6 340.242 80.3171   7
   3  -4  -5 988.654 122.457   7
   3  -4  -5 1015.80 124.622   4
  -3  -4   4 12706.9 513.350   2
  -3  -4   4 13313.6 531.643   7
   3  -4  -4 11614.1 362.427   7
   3  -4  -4 11394.7 368.015   4
  -3  -4   3 19335.6 624.610   2
   3  -4  -3 20205.3 423.047   7
  -3  -4   3 20463.4 635.196   7
   3  -4  -3 19157.2 425.272   4
   3  -4  -2 8277.03 267.506   4
  -3  -4   2 8000.18 394.019   2
   3  -4  -2 8548.58 240.285   7
  -3  -4   2 8845.44 411.183   7
  -3  -4   1 16507.0 561.368   7
  -3  -4   1 15709.4 550.014   2
   3  -4  -1 15357.4 389.870   4
   3  -4  -1 16189.0 318.199   7
   3  -4   0 12503.5 422.681   4
   3  -4   0 11174.1 365.641   5
  -3  -4   0 11511.6 470.125   7
   3  -4   0 11679.9 422.409   1
  -3  -4   0 11511.2 473.810   2
   3  -4   1 1236.91 154.005   4
  -3  -4  -1 1519.66 173.278   7
   3  -4   1 1335.54 166.239   1
   3  -4   1 1122.83 117.094   5
  -3  -4  -1 1538.59 178.600   2
   3  -4   2 1137.24 162.114   4
  -3  -4  -2 1770.31 194.586   7
   3  -4   2 1848.64 218.053   1
   3  -4   2 1780.69 155.247   5
  -3  -4  -2 1728.01 187.581   2
  -3  -4  -3 3172.27 269.284   7
  -3  -4  -3 3467.67 273.042   2
  -3  -4  -4 11836.7 523.164   2
  -3  -4  -4 12279.4 553.296   7
  -3  -4  -5 7736.18 464.228   7
   3  -4   5 8065.36 443.943   4
  -3  -4  -6 1706.42 235.703   7
   3  -4   6 1852.39 226.468   4
   3  -4   7 19110.3 796.272   4
  -3  -4  -7 19317.0 827.354   7
   3  -4   8 1020.24 200.760   4
  -3  -4  -8 726.135 178.383   7
  -3  -4  -8 512.558 152.971   1
   3  -4   9 5337.39 490.396   4
  -3  -4  -9 4841.01 461.989   7
  -3  -4  -9 5475.67 493.301   1
   3  -4  10 42.9497 79.7580   4
  -3  -4 -10 164.416 96.0871   7
  -3  -4 -10 30.2874 82.0596   1
   3  -4  11 3854.94 482.522   4
  -3  -4 -11 3424.34 430.520   7
  -3  -4 -11 4733.43 512.842   1
   3  -4  12 832.646 248.230   4
   3  -3 -14 1456.75 283.591   1
  -3  -3  13 2943.66 437.578   4
   3  -3 -13 2329.40 346.351   1
  -3  -3  12 1242.50 282.935   4
   3  -3 -12 1040.78 222.571   1
   3  -3 -11 646.877 154.729   1
  -3  -3  11 533.532 171.247   4
   3  -3 -10 2240.24 275.037   1
  -3  -3  10 2740.33 332.586   6
   3  -3  -9 8442.18 490.861   1
  -3  -3   9 9001.95 556.696   6
   3  -3  -8 18490.7 672.906   1
  -3  -3   8 18129.4 760.544   6
  -3  -3   7 14623.5 597.515   2
   3  -3  -7 13605.3 524.996   1
  -3  -3   7 14324.2 643.802   6
  -3  -3   6 31476.1 918.208   6
   3  -3  -6 33183.5 744.887   1
   3  -3  -6 31416.2 672.329   2
   3  -3  -5 1594.60 144.472   1
   3  -3  -5 1449.04 140.590   2
  -3  -3   4 26319.8 711.147   2
  -3  -3   4 26940.7 703.770   7
   3  -3  -4 26557.3 511.835   7
  -3  -3   3 21821.9 638.262   2
   3  -3  -3 21993.5 374.401   7
   3  -3  -3 22114.6 372.360   4
  -3  -3   2 71.0175 62.9414   1
  -3  -3   2 74.4352 37.2244   2
   3  -3  -2 59.4875 16.0425   4
  -3  -3   2 63.4950 69.6516   4
   3  -3  -2 66.0210 18.0437   7
  -3  -3   2 69.5861 34.4395   7
  -3  -3   1 30825.7 748.099   2
   3  -3  -1 30645.6 331.314   4
  -3  -3   1 31198.5 904.257   4
  -3  -3   1 31278.9 931.294   1
  -3  -3   1 30217.6 680.893   7
   3  -3  -1 29713.4 679.919   5
  -3  -3   0 22775.7 755.160   4
   3  -3   0 22558.3 449.667   4
  -3  -3   0 23679.1 606.595   7
   3  -3   0 22876.7 468.674   1
   3  -3   0 22299.5 569.737   5
  -3  -3   0 21173.9 627.504   2
   3  -3   1 52320.5 888.331   5
   3  -3   1 53039.6 858.296   4
  -3  -3  -1 50435.0 917.818   7
   3  -3   1 53231.9 912.504   1
  -3  -3  -1 52123.5 1007.61   2
  -3  -3  -2 127.812 56.1594   2
   3  -3   2 141.163 43.3163   4
   3  -3   2 111.238 55.2775   4
   3  -3   2 121.240 57.9264   1
  -3  -3  -2 100.384 41.9339   7
   3  -3   2 214.875 63.7982   5
   3  -3   3 2436.96 244.137   4
   3  -3   3 2891.02 274.499   1
  -3  -3  -3 2748.40 235.683   7
   3  -3   3 2878.95 208.090   4
   3  -3   4 242.201 74.7684   4
  -3  -3  -4 142.988 59.3341   7
   3  -3   5 14038.0 570.232   4
  -3  -3  -5 13413.6 594.021   7
  -3  -3  -5 13529.9 601.487   1
   3  -3   6 7266.14 451.356   4
  -3  -3  -6 6621.69 443.558   7
  -3  -3  -6 7173.15 457.275   1
   3  -3   7 9125.27 543.350   4
  -3  -3  -7 8948.37 550.176   7
  -3  -3  -7 8986.24 539.000   1
   3  -3   8 842.573 188.367   4
  -3  -3  -8 1560.27 245.971   7
  -3  -3  -8 1343.88 222.847   1
   3  -3   9 342.916 139.812   4
  -3  -3  -9 275.501 105.785   7
  -3  -3  -9 190.979 94.1837   1
   3  -3  10 1452.46 279.546   4
  -3  -3 -10 1466.63 262.168   1
  -3  -3 -11 1140.17 271.831   7
   3  -3  11 1366.04 295.383   4
  -3  -3 -11 1582.22 282.620   1
   3  -3  12 18.2594 95.9454   4
  -3  -3 -12 113.109 73.9622   1
   3  -2 -14 538.128 187.360   1
  -3  -2  14 572.277 203.876   4
  -3  -2  13 2232.93 376.908   4
   3  -2 -13 2854.09 386.688   1
   3  -2 -12 412.682 156.165   1
  -3  -2  12 136.482 115.384   4
  -3  -2  11 1731.83 280.728   4
   3  -2 -11 1273.39 222.984   1
   3  -2 -10 4276.61 378.695   1
  -3  -2  10 4020.77 406.439   4
  -3  -2   9 2013.17 259.886   6
   3  -2  -9 1889.29 237.429   1
  -3  -2   9 1990.85 263.393   4
  -3  -2   8 11956.1 608.087   6
   3  -2  -8 11668.0 537.033   1
  -3  -2   7 22372.6 705.197   2
  -3  -2   7 22593.9 792.425   6
   3  -2  -7 21956.4 674.467   1
  -3  -2   6 3250.06 255.190   2
   3  -2  -6 2976.33 221.774   1
  -3  -2   6 3803.51 314.685   6
  -3  -2   5 47006.1 931.804   2
   3  -2  -5 45380.8 773.207   1
  -3  -2   5 44527.4 765.049   3
   3  -2  -5 46031.5 833.654   2
  -3  -2   4 3749.16 257.648   2
   3  -2  -4 3215.43 172.647   1
  -3  -2   4 3015.21 166.032   3
   3  -2  -4 3066.94 209.402   2
  -3  -2   3 7454.34 357.774   2
  -3  -2   3 7279.33 428.582   4
  -3  -2   3 7487.07 447.208   1
  -3  -2   3 7103.25 200.971   3
  -3  -2   3 7034.97 301.378   7
   3  -2  -3 8069.97 206.761   7
   3  -2  -3 7154.85 192.522   1
  -3  -2   2 46775.1 899.313   2
  -3  -2   2 48376.5 1031.55   4
  -3  -2   2 47767.8 1062.64   1
  -3  -2   2 46289.0 734.923   7
  -3  -2   2 46036.0 342.013   3
   3  -2  -2 46907.2 937.439   5
  -3  -2   1 26519.8 725.827   4
  -3  -2   1 26102.4 555.246   7
  -3  -2   1 26730.7 743.726   1
   3  -2  -1 24882.1 657.573   5
   3  -2   0 15585.0 227.137   4
  -3  -2   0 16105.2 549.630   4
   3  -2   0 16346.1 292.023   4
  -3  -2   0 15864.2 440.833   7
  -3  -2   0 15057.4 248.135   3
   3  -2   0 16161.3 302.471   1
   3  -2   0 15717.8 520.592   5
  -3  -2   0 15760.7 534.085   2
   3  -2   1 12605.7 300.294   4
  -3  -2  -1 13587.4 505.423   4
   3  -2   1 13290.4 372.820   4
  -3  -2  -1 12964.6 420.260   7
  -3  -2  -1 12502.0 299.967   3
   3  -2   1 13257.6 481.367   5
  -3  -2  -1 12686.2 485.177   2
   3  -2   1 13255.7 392.386   1
   3  -2   2 37326.7 633.704   4
  -3  -2  -2 38396.1 772.511   7
   3  -2   2 39308.8 774.310   4
  -3  -2  -2 38493.7 638.654   3
   3  -2   2 39498.5 813.783   1
   3  -2   3 8811.14 442.574   1
   3  -2   3 8119.81 341.537   4
   3  -2   3 8678.13 420.381   4
  -3  -2  -3 9062.33 409.532   7
  -3  -2  -3 8670.43 344.505   3
   3  -2   4 3298.06 245.309   4
  -3  -2  -4 3142.28 226.820   3
  -3  -2  -4 3474.24 270.966   7
  -3  -2  -4 2736.09 238.815   1
   3  -2   5 21171.0 694.366   4
  -3  -2  -5 20884.6 700.691   1
   3  -2   6 5523.86 388.969   4
  -3  -2  -6 5355.99 383.223   1
   3  -2   7 3326.46 331.523   4
  -3  -2  -7 3185.68 316.457   1
   3  -2   8 2167.24 284.607   4
  -3  -2  -8 2529.45 298.797   1
   3  -2   9 5.49195 51.0355   4
  -3  -2  -9 329.481 130.712   1
   3  -2  10 1355.93 275.400   4
  -3  -2 -10 1572.11 262.649   1
  -3  -2 -11 1005.47 239.011   1
   3  -2  11 1077.53 256.682   4
  -3  -2 -12 272.445 128.534   1
   3  -2  12 229.729 137.058   4
  -3  -1  14 4974.64 582.951   4
   3  -1 -14 4983.53 532.837   1
  -3  -1  13 112.081 116.146   4
   3  -1 -13 95.9688 106.445   1
  -3  -1  12 806.391 208.026   4
   3  -1 -12 738.610 196.333   1
  -3  -1  11 1490.06 264.587   4
   3  -1 -11 1362.71 239.121   1
  -3  -1  10 6270.44 490.657   4
   3  -1 -10 6627.42 482.808   1
  -3  -1   9 493.182 129.663   4
   3  -1  -9 573.588 133.739   1
  -3  -1   9 796.918 163.999   6
   3  -1  -8 9788.39 501.227   1
  -3  -1   8 9621.75 544.345   6
  -3  -1   8 9792.62 524.354   4
  -3  -1   7 3583.78 271.082   2
   3  -1  -7 3707.96 285.128   1
  -3  -1   7 3740.07 324.145   6
  -3  -1   6 11074.4 449.651   2
   3  -1  -6 9857.45 416.744   1
  -3  -1   6 10238.7 504.275   6
  -3  -1   5 19163.5 570.540   2
   3  -1  -5 19094.5 514.109   1
  -3  -1   5 19682.3 671.066   6
  -3  -1   5 18971.0 519.441   3
  -3  -1   4 6903.25 333.530   2
  -3  -1   4 6055.92 369.089   4
   3  -1  -4 5956.79 244.650   1
  -3  -1   4 5896.54 378.859   1
   3  -1  -4 6093.25 314.259   2
  -3  -1   3 28868.5 681.614   2
  -3  -1   3 27989.3 725.074   4
   3  -1  -3 29094.7 423.830   1
  -3  -1   3 27838.9 769.094   1
   3  -1  -3 29075.7 667.780   2
   3  -1  -3 28164.0 780.061   5
   3  -1  -3 27787.8 385.031   7
  -3  -1   2 29043.5 679.883   2
  -3  -1   2 29511.6 689.389   4
  -3  -1   2 29549.9 495.145   7
   3  -1  -2 27985.9 761.493   5
  -3  -1   2 29154.6 705.943   1
  -3  -1   1 33651.3 675.932   4
  -3  -1   1 35186.4 535.402   7
   3  -1  -1 33800.6 816.327   5
  -3  -1   1 33816.9 743.625   2
  -3  -1   0 11062.4 375.185   4
   3  -1   0 10444.5 220.256   1
   3  -1   0 10717.6 236.014   4
   3  -1   0 9805.59 433.235   5
  -3  -1   0 10411.6 304.942   7
  -3  -1   0 10228.1 421.275   2
  -3  -1  -1 22541.1 560.789   4
   3  -1   1 22006.6 435.779   4
   3  -1   1 21806.2 446.354   1
   3  -1   1 23772.8 467.351   4
  -3  -1  -1 22395.1 495.279   7
   3  -1   1 22174.5 663.931   5
  -3  -1  -2 74148.7 1082.87   4
   3  -1   2 71001.5 922.840   4
   3  -1   2 75394.1 1014.60   1
  -3  -1  -2 72380.3 928.820   3
  -3  -1  -2 73253.8 999.912   7
   3  -1   3 6397.09 354.551   1
   3  -1   3 5688.77 294.000   4
   3  -1   3 5956.52 344.087   4
  -3  -1  -3 5557.65 284.086   3
  -3  -1  -3 5266.11 288.874   1
   3  -1   4 3970.59 276.468   4
  -3  -1  -4 4298.65 288.300   1
   3  -1   5 928.984 147.963   4
  -3  -1  -5 1014.63 149.573   1
  -3  -1  -5 812.931 136.595   3
   3  -1   6 14476.3 635.371   4
  -3  -1  -6 12749.7 577.398   1
  -3  -1  -6 13825.1 589.603   3
   3  -1   7 1119.58 196.894   4
  -3  -1  -7 910.360 167.437   1
  -3  -1  -7 784.756 152.741   3
   3  -1   8 1947.48 279.285   4
  -3  -1  -8 2365.79 284.655   1
  -3  -1  -9 218.421 99.0542   1
   3  -1   9 442.993 158.356   4
  -3  -1 -10 685.905 180.825   1
   3  -1  10 718.123 199.655   4
   3  -1  11 392.675 189.593   4
  -3  -1 -11 536.281 185.604   1
   3  -1  12 2545.07 427.497   4
  -3  -1 -12 2038.88 339.246   1
   3   0 -14 146.240 131.532   1
  -3   0  14 103.394 118.366   4
  -3   0  13 969.094 244.742   4
   3   0 -13 656.431 192.749   1
  -3   0  12 2180.04 337.241   4
   3   0 -12 2042.54 302.927   1
   3   0 -11 1697.20 268.976   1
  -3   0  11 2381.84 325.527   4
  -3   0  10 3092.07 338.927   4
   3   0 -10 4104.13 393.346   1
   3   0  -9 879.365 172.265   1
  -3   0   9 318.933 106.245   4
  -3   0   8 1651.63 214.341   4
   3   0  -8 1365.79 199.103   1
  -3   0   8 1509.73 211.309   6
  -3   0   7 7342.74 368.071   2
   3   0  -7 6388.54 394.739   1
  -3   0   7 6558.25 422.154   6
  -3   0   7 7525.08 407.663   4
  -3   0   6 21963.6 598.576   2
   3   0  -6 20850.0 652.072   1
  -3   0   6 21568.7 629.527   4
  -3   0   5 5529.17 289.528   2
   3   0  -5 5438.93 304.548   1
  -3   0   5 5015.02 337.261   4
  -3   0   5 5273.78 340.332   6
  -3   0   5 4865.98 351.105   1
  -3   0   4 3928.92 240.408   2
   3   0  -4 3928.91 231.791   1
  -3   0   4 3774.49 259.218   4
   3   0  -4 3886.88 232.601   4
   3   0  -4 3921.89 316.367   5
  -3   0   4 3651.28 271.406   6
  -3   0   4 3706.43 271.490   1
   3   0  -4 3683.14 191.960   7
  -3   0   3-26.1003 23.4844   2
   3   0  -3 14.9166 21.0998   1
  -3   0   3 0.53189 26.5617   4
  -3   0   3 1.16225 25.6420   1
   3   0  -3-3.83713 19.5713   4
   3   0  -3-2.26568 9.50035   7
   3   0  -3-3.85317 22.7614   5
  -3   0   2 73300.4 855.271   4
   3   0  -2 70641.5 765.039   4
   3   0  -2 72082.2 618.647   7
  -3   0   2 71822.3 874.649   1
   3   0  -2 69017.8 1082.72   2
   3   0  -2 69440.4 1236.32   5
   3   0  -2 71010.3 785.410   1
  -3   0   2 71950.2 1034.97   2
  -3   0   1 35034.8 500.161   4
   3   0  -1 34831.0 535.404   4
  -3   0   1 34313.6 391.794   7
   3   0  -1 34320.6 552.743   1
   3   0  -1 35732.6 415.581   7
  -3   0   1 33978.9 876.887   5
  -3   0   1 34090.1 731.349   2
   3   0  -1 32524.9 840.345   5
  -3   0   0 3942.91 171.824   4
   3   0   0 4246.76 208.016   4
   3   0   0 4437.78 214.423   1
  -3   0   0 4334.79 163.240   7
   3   0   0 4107.54 161.538   1
   3   0   0 3569.83 276.182   5
  -3   0   0 4689.80 278.500   2
  -3   0  -1 9214.53 299.836   4
   3   0   1 9510.24 338.888   4
   3   0   1 9211.12 297.104   1
  -3   0  -1 9471.79 287.943   7
   3   0   1 10359.0 479.450   5
  -3   0  -2 45389.9 766.715   4
   3   0   2 48045.0 832.935   4
   3   0   2 46258.7 792.794   1
  -3   0  -2 47103.9 741.148   1
   3   0   3 3538.22 250.721   4
   3   0   3 3368.23 248.690   1
  -3   0  -3 3584.92 229.679   1
  -3   0  -3 3547.93 241.781   3
  -3   0  -3 3872.12 248.242   4
   3   0   4 3055.71 254.083   4
  -3   0  -4 2844.60 236.127   3
  -3   0  -4 2661.95 219.811   1
   3   0   5 1343.86 181.853   4
  -3   0  -5 1345.58 172.868   3
  -3   0  -5 1509.23 181.046   1
   3   0   6 6981.60 454.569   4
  -3   0  -6 7281.77 429.411   1
  -3   0  -6 6307.09 401.658   3
   3   0   7 8109.48 527.670   4
  -3   0  -7 8159.77 489.156   1
  -3   0  -7 9274.90 525.508   3
   3   0   8 2409.57 314.337   4
  -3   0  -8 2496.30 288.669   1
  -3   0  -8 2809.29 308.882   3
   3   0   9 2844.25 359.843   4
  -3   0  -9 2845.19 331.129   1
  -3   0  -9 3217.49 339.707   3
  -3   0 -10 1204.49 233.997   1
   3   0  10 998.423 241.517   4
  -3   0 -11 210.917 123.384   1
   3   0  11 72.5641 95.4991   4
  -3   0 -12 829.898 221.866   1
   3   0  12 651.310 224.038   4
  -3   1  14 4595.53 572.144   4
   3   1 -14 5324.95 572.404   1
   3   1 -13 114.056 114.432   1
  -3   1  13 134.333 132.240   4
   3   1 -12 991.505 227.755   1
  -3   1  12 612.872 192.169   4
   3   1 -11 1303.77 244.031   1
  -3   1  11 1093.41 221.056   4
  -3   1  10 6392.51 490.635   4
   3   1 -10 6774.89 521.493   1
  -3   1   9 521.192 130.119   4
   3   1  -9 519.153 149.639   1
  -3   1   8 9243.87 500.530   4
   3   1  -8 9677.35 553.747   1
  -3   1   7 3605.58 281.929   4
   3   1  -7 3784.07 328.487   1
  -3   1   7 3478.32 241.428   2
   3   1  -7 4092.78 346.547   4
  -3   1   7 3381.55 297.058   6
  -3   1   6 10940.8 440.817   4
   3   1  -6 10034.9 496.197   1
  -3   1   6 10276.8 386.432   2
   3   1  -6 11488.6 537.270   4
  -3   1   6 11177.9 517.619   6
  -3   1   5 18296.7 502.666   4
   3   1  -5 18464.2 632.695   1
  -3   1   5 17474.6 481.998   2
  -3   1   5 18735.2 615.879   4
  -3   1   5 18899.6 630.433   6
  -3   1   5 17823.4 620.716   1
  -3   1   4 6221.72 247.995   4
   3   1  -4 6221.69 346.802   1
  -3   1   4 6139.54 284.214   2
  -3   1   4 6108.05 294.391   4
   3   1  -4 6250.12 333.946   4
   3   1  -4 5723.68 263.477   7
  -3   1   4 6818.12 359.639   6
   3   1  -4 6426.67 412.788   5
  -3   1   4 5811.61 300.685   1
  -3   1   3 27936.5 417.754   4
  -3   1   3 29089.2 622.472   2
   3   1  -3 27578.2 519.309   7
  -3   1   3 27938.5 515.471   4
   3   1  -3 28633.2 675.044   4
  -3   1   3 27260.8 684.840   6
  -3   1   3 28760.0 562.523   1
   3   1  -2 27914.6 641.130   4
   3   1  -2 29330.4 692.883   1
  -3   1   2 29190.9 805.281   5
   3   1  -2 28638.4 498.608   7
  -3   1   2 28894.1 635.454   2
   3   1  -1 33004.7 525.227   7
   3   1  -1 35362.9 718.900   4
  -3   1   1 32745.4 827.106   5
   3   1  -1 33035.7 876.377   5
  -3   1   1 33398.3 704.026   2
   3   1  -1 33493.8 744.330   1
   3   1   0 10902.6 324.950   7
   3   1   0 10320.8 396.316   4
  -3   1   0 10546.5 192.938   7
   3   1   0 10270.9 405.289   1
   3   1   0 10099.8 481.766   5
   3   1   0 10728.5 315.456   1
   3   1   1 22616.5 600.766   4
  -3   1  -1 22222.3 398.477   1
   3   1   1 23216.4 515.721   1
   3   1   2 77927.2 1207.41   4
   3   1   2 75203.6 1053.77   1
   3   1   3 5031.89 322.147   4
  -3   1  -3 5649.02 283.703   1
   3   1   4 4435.46 326.637   4
  -3   1  -4 4975.83 300.112   1
   3   1   5 1116.09 178.817   4
  -3   1  -5 780.695 137.269   1
  -3   1  -5 932.455 153.143   3
   3   1   6 12353.8 631.861   4
  -3   1  -6 13021.4 582.600   1
  -3   1  -6 12811.6 590.813   3
   3   1   7 966.102 195.327   4
  -3   1  -7 885.726 170.004   3
  -3   1  -7 691.232 142.280   1
   3   1   8 1946.00 291.559   4
  -3   1  -8 1289.41 211.220   1
  -3   1  -8 2020.75 268.259   3
   3   1   9 502.323 161.962   4
  -3   1  -9 518.681 151.597   1
  -3   1  -9 370.294 122.971   3
  -3   1 -10 1407.42 255.918   1
  -3   1 -10 1374.84 251.448   3
   3   1  11 344.824 150.968   4
  -3   1 -11 610.444 195.525   1
   3   1  12 1855.47 379.637   4
  -3   1 -12 1870.84 316.938   1
   3   2 -14 526.050 181.019   1
  -3   2  14 997.102 284.926   4
  -3   2  13 2814.91 439.071   4
   3   2 -13 3278.68 443.602   1
   3   2 -12 60.7219 101.458   1
  -3   2  12 46.8109 94.0055   4
  -3   2  11 1510.66 268.604   4
   3   2 -11 1780.95 298.938   1
  -3   2  10 5224.54 453.689   4
   3   2 -10 4137.77 422.763   1
  -3   2   9 1985.73 257.648   4
   3   2  -9 1687.08 257.456   1
  -3   2   8 11179.6 557.084   4
   3   2  -8 11789.1 649.700   1
   3   2  -8 11575.3 650.589   4
  -3   2   7 21136.6 700.401   4
   3   2  -7 23476.9 878.147   1
   3   2  -7 24386.5 949.271   4
  -3   2   6 3309.78 248.769   4
   3   2  -6 3214.96 308.020   1
  -3   2   6 3383.56 202.525   2
   3   2  -6 3320.93 310.871   4
  -3   2   6 3277.74 279.005   6
   3   2  -5 48184.0 1146.10   1
  -3   2   5 43703.3 896.558   1
  -3   2   5 44939.8 817.425   4
  -3   2   5 47303.3 740.934   2
   3   2  -5 46316.5 1091.34   4
  -3   2   5 45331.5 887.952   4
  -3   2   5 45485.1 983.446   6
   3   2  -5 48888.0 1219.50   5
  -3   2   4 3395.16 208.952   1
  -3   2   4 3162.75 186.700   4
  -3   2   4 3483.48 199.393   2
   3   2  -4 3519.27 289.837   4
  -3   2   4 3284.02 199.730   4
  -3   2   4 2545.11 220.610   6
   3   2  -4 3492.03 296.863   1
   3   2  -4 3365.63 306.539   5
  -3   2   3 7232.81 298.101   2
  -3   2   3 7000.26 222.168   4
   3   2  -3 8072.15 414.076   4
  -3   2   3 7186.15 227.867   4
   3   2  -3 6631.94 296.185   7
  -3   2   3 7241.55 345.246   6
   3   2  -3 7525.70 435.315   1
   3   2  -3 7388.51 444.687   5
  -3   2   3 6779.82 230.951   1
   3   2  -2 45737.1 979.085   4
  -3   2   2 43861.7 966.801   5
   3   2  -2 45680.8 744.246   7
  -3   2   2 44258.9 802.911   6
   3   2  -2 45786.5 1037.93   1
   3   2  -2 47675.4 1120.50   5
  -3   2   2 48088.2 792.710   2
   3   2  -1 26353.2 741.141   4
   3   2  -1 27366.1 569.113   7
  -3   2   1 25313.4 601.483   2
   3   2  -1 26531.0 770.462   1
  -3   2   1 25938.4 704.567   5
   3   2  -1 25725.7 799.429   5
   3   2   0 16268.2 589.804   4
  -3   2   0 15468.9 216.705   1
   3   2   0 15810.7 593.273   1
  -3   2   0 15722.1 218.102   7
   3   2   0 15743.5 636.366   5
   3   2   0 17277.0 475.206   7
   3   2   1 12778.7 522.985   4
  -3   2  -1 13054.5 306.905   1
   3   2   1 12608.5 536.177   1
   3   2   1 13991.3 447.369   1
  -3   2  -2 37471.7 648.784   1
   3   2   2 37168.2 918.455   4
   3   2   3 9233.87 484.004   4
  -3   2  -3 8672.12 362.094   1
   3   2   4 3446.24 309.847   4
  -3   2  -4 3685.20 266.277   1
   3   2   5 21229.9 808.071   4
  -3   2  -5 21269.7 702.196   1
   3   2   6 5512.18 439.100   4
  -3   2  -6 5557.39 388.430   1
  -3   2  -6 4967.04 385.880   3
   3   2   7 2270.62 305.576   4
  -3   2  -7 2996.57 304.593   1
  -3   2  -7 2417.48 290.841   3
   3   2   8 1676.39 277.190   4
  -3   2  -8 2457.68 292.165   1
  -3   2  -8 2275.61 285.857   3
   3   2   9 180.138 95.1110   4
  -3   2  -9 283.845 116.494   1
  -3   2  -9 167.951 97.9272   3
   3   2  10 1879.03 334.700   4
  -3   2 -10 1712.51 286.329   1
  -3   2 -10 1434.43 261.716   3
   3   2  11 881.147 252.880   4
  -3   2 -11 1057.03 241.065   1
  -3   2 -11 871.956 219.466   3
   3   2  12 264.756 162.756   4
  -3   2 -12 102.368 92.8195   1
  -3   3  14 2408.18 437.573   4
  -3   3  13 2235.36 395.798   4
   3   3 -13 2438.46 392.044   1
  -3   3  12 1057.12 242.746   4
   3   3 -12 1139.79 274.732   1
  -3   3  11 741.977 203.254   4
   3   3 -11 269.551 113.706   1
  -3   3  10 2533.24 326.954   4
   3   3 -10 2272.38 331.376   1
  -3   3   9 9289.01 576.965   4
   3   3  -9 8923.34 627.647   1
   3   3  -9 9728.04 652.574   4
  -3   3   8 18466.4 752.260   4
   3   3  -8 19028.2 893.051   1
   3   3  -7 13978.7 736.765   1
  -3   3   7 14772.0 617.223   4
   3   3  -7 12943.1 692.446   4
   3   3  -6 33472.7 1094.53   1
  -3   3   6 32472.0 836.433   4
  -3   3   6 33312.7 594.956   2
   3   3  -6 34560.8 1064.95   4
  -3   3   5 1513.61 162.317   4
  -3   3   5 1271.85 148.240   1
  -3   3   5 1294.77 112.187   2
   3   3  -5 1698.44 231.537   4
  -3   3   5 1760.11 174.751   4
   3   3  -5 1443.10 215.883   5
  -3   3   5 1296.41 170.221   6
   3   3  -5 1804.72 249.401   1
  -3   3   4 26672.5 510.261   2
  -3   3   4 27068.7 622.396   4
  -3   3   4 24700.5 550.348   1
  -3   3   4 25100.2 681.496   6
   3   3  -4 25618.2 870.571   4
  -3   3   4 26948.6 577.437   4
   3   3  -4 26030.8 916.769   1
   3   3  -4 24473.3 846.125   5
  -3   3   3 22278.5 494.102   2
  -3   3   3 22300.4 481.108   4
  -3   3   3 22102.1 410.179   1
   3   3  -3 18870.9 734.653   4
  -3   3   3 22113.1 498.930   1
  -3   3   3 22106.2 597.172   6
   3   3  -3 18783.7 772.169   1
   3   3  -3 21674.6 781.697   5
  -3   3   2 74.8583 18.4482   1
  -3   3   2 89.8793 38.3291   2
  -3   3   2 80.9450 27.8940   1
   3   3  -2-11.8582 59.4783   1
  -3   3   2 53.5708 18.6466   4
   3   3  -2 58.4300 49.0788   4
   3   3  -2 56.0454 33.2644   7
  -3   3   2 36.4646 26.4602   6
   3   3  -2 32.1588 34.6567   5
  -3   3   2 53.2933 48.9916   5
   3   3  -1 31194.2 917.511   4
  -3   3   1 31221.0 350.428   4
   3   3  -1 30338.0 951.183   1
  -3   3   1 30764.9 296.383   1
  -3   3   1 29582.0 731.799   5
   3   3  -1 31344.8 925.414   5
   3   3  -1 29946.2 690.562   7
  -3   3   1 31239.9 369.115   1
  -3   3   0 22618.0 383.242   1
   3   3   0 23330.9 794.028   4
   3   3   0 22926.7 811.136   1
   3   3   0 21689.9 775.914   5
  -3   3   0 21855.1 339.958   7
   3   3   0 21813.7 601.355   7
   3   3   1 47059.3 1116.15   4
  -3   3  -1 53242.9 721.675   1
  -3   3  -1 54087.2 731.167   4
   3   3   1 46095.2 1151.39   1
  -3   3  -1 50364.5 634.941   7
   3   3   2 100.545 53.0501   4
  -3   3  -2 65.7461 32.5357   7
  -3   3  -2 71.0301 34.7253   1
   3   3   3 2599.35 283.825   4
  -3   3  -3 2634.60 214.236   1
   3   3   4 103.405 85.2208   4
  -3   3  -4 162.115 60.4577   1
   3   3   5 14662.8 727.538   4
  -3   3  -5 14007.5 592.636   1
   3   3   6 7199.62 533.011   4
  -3   3  -6 6966.15 447.744   1
  -3   3  -6 7672.00 491.675   3
   3   3   7 7997.22 588.828   4
  -3   3  -7 8854.03 541.372   1
  -3   3  -7 8096.12 530.473   3
   3   3   8 1533.92 284.317   4
  -3   3  -8 1547.23 239.414   1
  -3   3  -8 1401.33 236.268   3
  -3   3  -9 97.7371 73.1670   1
   3   3   9 417.162 168.757   4
  -3   3  -9 339.832 135.087   3
  -3   3 -10 1369.99 261.328   1
   3   3  10 773.958 239.848   4
  -3   3 -10 1689.76 288.221   3
   3   3  11 1771.60 357.344   4
  -3   3 -11 1770.94 318.868   3
  -3   3 -11 1541.01 290.015   1
  -3   3 -12 206.082 136.440   1
   3   3  12-7.69902 106.460   4
  -3   4  14 486.720 209.877   4
  -3   4  13 1224.16 310.590   4
   3   4 -13 961.994 255.493   1
  -3   4  12 494.950 207.476   4
   3   4 -12 360.363 157.538   1
  -3   4  11 3430.13 423.276   4
   3   4 -11 4825.29 526.291   1
   3   4 -10 365.201 147.282   1
  -3   4  10 445.915 134.221   4
   3   4 -10 305.397 112.088   4
   3   4  -9 1987.85 325.742   1
  -3   4   9 1527.86 244.178   4
   3   4  -9 2019.54 341.158   4
   3   4  -8 2186.41 321.932   1
  -3   4   8 2152.14 268.330   4
   3   4  -8 2242.26 327.117   4
  -3   4   7 1025.37 173.046   4
   3   4  -7 896.771 196.067   4
   3   4  -6 388.457 120.825   1
  -3   4   6 312.552 98.6684   4
   3   4  -6 313.611 117.830   4
  -3   4   5 744.615 130.452   4
  -3   4   5 952.812 83.7610   2
  -3   4   5 1126.57 143.652   1
   3   4  -5 1324.06 222.998   4
   3   4  -5 851.340 168.072   5
   3   4  -5 1177.53 228.854   1
  -3   4   4 11520.0 306.356   2
  -3   4   4 11755.8 456.271   4
   3   4  -4 11908.5 646.971   4
  -3   4   4 11491.5 391.764   1
   3   4  -4 11667.0 683.042   1
   3   4  -4 11948.3 614.709   5
  -3   4   3 20593.8 561.339   4
   3   4  -3 19445.0 820.053   4
  -3   4   3 19248.9 431.261   1
  -3   4   3 19859.2 570.211   1
   3   4  -3 20267.6 883.989   1
  -3   4   3 18996.9 552.839   6
   3   4  -3 20242.5 783.106   5
  -3   4   3 19122.0 430.652   2
  -3   4   2 8250.23 325.142   4
   3   4  -2 8300.35 530.931   4
  -3   4   2 7887.68 397.511   5
  -3   4   2 8451.50 346.378   1
  -3   4   2 8458.37 251.153   1
   3   4  -2 8950.57 579.156   1
  -3   4   2 7638.18 318.083   6
   3   4  -2 7959.22 482.698   5
  -3   4   2 8438.54 316.652   2
   3   4  -1 14278.6 693.007   4
  -3   4   1 15572.2 414.168   4
  -3   4   1 15080.3 326.982   7
   3   4  -1 15650.8 760.750   1
  -3   4   1 14375.7 395.899   6
  -3   4   1 15468.0 440.351   1
  -3   4   1 15052.8 500.478   5
   3   4  -1 14970.1 667.233   5
   3   4   0 11310.3 611.070   4
  -3   4   0 11658.1 377.756   4
  -3   4   0 11671.8 313.120   7
   3   4   0 10670.0 610.358   1
  -3   4   0 11064.4 310.372   6
   3   4   0 12986.4 620.337   5
  -3   4   0 12189.1 399.707   1
  -3   4  -1 1384.86 143.490   1
   3   4   1 1300.30 207.354   4
  -3   4  -1 1367.73 137.344   4
   3   4   1 1576.55 241.730   1
  -3   4  -1 1198.56 111.941   7
   3   4   1 1294.68 98.9085   3
  -3   4  -1 1233.70 93.6612   6
  -3   4  -2 1879.60 180.788   1
   3   4   2 1639.86 238.411   4
  -3   4  -2 2058.05 202.037   4
   3   4   2 1889.85 260.539   1
  -3   4  -2 1584.67 145.490   7
   3   4   2 1735.83 139.104   3
   3   4   3 3143.77 332.682   4
  -3   4  -3 2894.78 244.275   1
  -3   4  -3 2993.77 249.065   4
   3   4   3 2562.72 201.249   3
   3   4   4 11531.1 659.402   4
  -3   4  -4 10785.0 511.303   1
   3   4   5 7745.67 558.107   4
  -3   4  -5 7857.27 465.385   1
   3   4   6 1399.75 258.782   4
  -3   4  -6 1456.47 217.878   1
   3   4   7 18226.5 951.737   4
  -3   4  -7 18600.1 817.989   1
  -3   4  -7 19562.4 858.756   3
  -3   4  -8 768.665 180.731   1
   3   4   8 748.547 237.323   4
  -3   4  -8 752.665 187.144   3
   3   4   9 4923.89 538.936   4
  -3   4  -9 5177.70 485.702   1
  -3   4  -9 5622.91 505.820   3
  -3   4 -10 172.442 114.403   1
   3   4  10 51.6573 145.254   4
  -3   4 -10 159.041 111.005   3
   3   4  11 4668.58 604.610   4
  -3   4 -11 3002.32 410.386   1
  -3   4 -11 4336.29 491.471   3
  -3   4 -12 852.627 251.358   1
  -3   5  13-50.9344 116.419   4
  -3   5  12 1743.19 350.374   4
   3   5 -12 908.368 245.399   1
   3   5 -11 896.326 252.919   4
  -3   5  11 885.164 232.794   4
   3   5 -11 817.843 252.185   1
  -3   5  10 3558.65 415.430   4
   3   5 -10 2921.11 421.377   1
   3   5 -10 3359.35 458.643   4
   3   5  -9 3873.11 470.656   1
  -3   5   9 3793.98 405.516   4
   3   5  -9 3950.51 469.233   4
   3   5  -8 3969.42 459.731   1
  -3   5   8 4087.04 401.869   4
   3   5  -8 3843.19 437.372   4
  -3   5   7 6267.19 460.380   4
   3   5  -7 7890.54 613.654   4
   3   5  -7 7972.81 641.831   1
  -3   5   6 5296.47 395.195   4
   3   5  -6 5620.08 509.742   4
   3   5  -6 5826.39 532.783   1
  -3   5   5 16773.1 653.753   4
   3   5  -5 16632.1 847.269   4
   3   5  -5 16726.0 892.581   1
   3   5  -5 17160.6 763.699   5
  -3   5   4 13677.1 271.838   2
  -3   5   4 13723.7 560.256   4
   3   5  -4 12802.3 727.748   4
  -3   5   4 12441.2 442.550   1
  -3   5   4 13855.3 584.380   1
   3   5  -4 13728.0 805.633   1
   3   5  -4 14891.9 703.293   5
  -3   5   3 597.626 121.301   1
  -3   5   3 554.050 85.7275   1
   3   5  -3 852.243 195.974   4
   3   5  -3 564.166 174.034   1
  -3   5   3 621.969 115.367   4
   3   5  -3 448.993 119.113   5
  -3   5   3 577.289 70.5040   2
  -3   5   2 12397.3 480.578   4
   3   5  -2 12256.4 701.570   4
   3   5  -2 12945.7 641.218   5
  -3   5   2 12797.6 515.933   1
   3   5  -2 11497.9 716.970   1
  -3   5   2 12265.1 366.916   1
  -3   5   2 12555.7 489.695   5
  -3   5   2 12966.2 384.264   2
   3   5  -1 15093.6 774.481   4
  -3   5   1 14445.5 503.775   4
   3   5  -1 15696.8 830.882   1
  -3   5   1 14222.9 526.290   1
  -3   5   1 13664.9 456.888   5
   3   5  -1 13879.7 666.141   5
  -3   5   1 14251.4 396.216   7
   3   5   0 35493.4 1181.16   4
  -3   5   0 35593.6 798.048   4
  -3   5   0 36010.6 653.787   7
   3   5   0 37152.2 1251.61   1
   3   5   0 36419.8 411.627   3
   3   5   0 35943.3 1078.12   5
  -3   5   0 37869.7 862.818   1
   3   5   1 6825.12 529.049   4
  -3   5  -1 7352.80 375.716   4
  -3   5  -1 6499.14 296.765   7
   3   5   1 6941.45 238.765   3
   3   5   1 7540.28 569.734   1
  -3   5  -1 7773.14 403.566   1
  -3   5  -2 10338.3 481.881   1
   3   5   2 10925.2 656.482   4
  -3   5  -2 9949.88 460.489   4
   3   5   2 9675.69 639.827   1
   3   5   2 9414.17 341.411   3
  -3   5  -3 16950.6 657.662   1
   3   5   3 16203.2 817.646   4
  -3   5  -3 17608.6 670.637   4
   3   5   4 4542.90 437.070   4
  -3   5  -4 5229.49 384.490   1
  -3   5  -4 5024.05 374.900   4
   3   5   5 6864.05 556.383   4
  -3   5  -5 6176.72 443.340   1
  -3   5  -5 7018.78 476.790   4
   3   5   6 1555.07 278.169   4
  -3   5  -6 1425.66 225.676   1
   3   5   7 4680.54 503.685   4
  -3   5  -7 5365.03 457.179   1
   3   5   8 3210.58 448.397   4
  -3   5  -8 2603.28 339.215   1
  -3   5  -9 237.184 128.132   1
   3   5   9 291.883 156.597   4
  -3   5  -9 377.683 153.351   3
   3   5  10 7520.05 739.482   4
  -3   5 -10 8042.82 661.594   1
  -3   5 -10 8359.97 667.491   3
  -3   5 -11 78.4949 119.470   1
   3   5  11 212.177 167.162   4
  -3   5 -11-80.2688 113.188   3
  -3   6  13 696.288 257.892   4
  -3   6  12 4342.63 548.339   4
   3   6 -12 4608.36 584.520   1
   3   6 -12 4156.13 554.256   4
  -3   6  11 6998.07 653.661   4
   3   6 -11 6076.15 653.318   1
   3   6 -11 6858.16 698.501   4
   3   6 -10 1163.82 294.654   1
  -3   6  10 923.440 230.103   4
   3   6 -10 1572.61 338.754   4
   3   6  -9 8244.88 720.311   1
  -3   6   9 7447.38 599.718   4
   3   6  -9 7761.73 684.590   4
   3   6  -8 5279.86 567.950   1
  -3   6   8 5301.81 476.892   4
   3   6  -8 4787.19 513.600   4
  -3   6   7 1744.66 264.264   4
   3   6  -7 2434.99 388.915   4
   3   6  -7 2276.44 379.166   1
  -3   6   6 23310.9 893.360   4
   3   6  -6 22157.3 1062.65   4
   3   6  -6 20423.0 547.514   3
   3   6  -6 21804.8 1113.92   1
  -3   6   5 21797.1 827.453   4
   3   6  -5 23224.1 1071.16   4
  -3   6   5 23147.7 880.102   1
   3   6  -5 22188.2 1112.26   1
   3   6  -5 24384.3 919.986   5
   3   6  -5 23371.6 529.947   3
  -3   6   4 29490.1 931.473   4
   3   6  -4 28715.1 1183.09   4
  -3   6   4 30270.4 970.179   1
   3   6  -4 31928.8 530.820   3
   3   6  -4 31106.6 1308.43   1
   3   6  -4 31274.6 1044.46   5
  -3   6   3 26440.3 839.400   4
   3   6  -3 24573.1 1075.17   4
  -3   6   3 24321.8 632.231   1
   3   6  -3 26542.3 405.472   3
  -3   6   3 25578.2 856.656   1
   3   6  -3 24071.3 1121.87   1
   3   6  -3 26917.9 952.562   5
  -3   6   3 25188.4 397.342   2
  -3   6   2 446.989 87.1262   1
  -3   6   2 306.714 60.0500   2
  -3   6   2 306.444 98.0828   1
   3   6  -2 290.781 143.630   1
  -3   6   2 289.301 91.3205   4
   3   6  -2 354.706 129.749   4
  -3   6   2 288.311 71.4965   7
   3   6  -2 150.761 74.1320   5
  -3   6   2 263.214 77.3196   5
   3   6  -1 2578.16 343.797   4
  -3   6   1 2784.41 259.217   4
  -3   6   1 2897.34 213.806   7
   3   6  -1 2813.86 377.408   1
  -3   6   1 2701.55 268.054   1
  -3   6   1 2966.18 200.391   5
   3   6  -1 2226.18 274.559   5
   3   6   0 3682.09 412.653   4
  -3   6   0 3751.84 294.992   4
  -3   6   0 3801.63 245.923   7
   3   6   0 3946.07 368.461   5
  -3   6   0 3773.03 322.739   1
   3   6   0 3528.50 421.447   1
   3   6   1 2498.82 341.683   4
  -3   6  -1 1935.50 216.336   4
   3   6   1 2008.17 317.585   1
   3   6   1 1946.31 139.562   3
  -3   6  -1 1631.76 211.236   1
   3   6   2 17727.6 911.104   4
  -3   6  -2 19367.1 717.143   4
   3   6   2 18376.1 953.743   1
   3   6   2 18563.1 503.743   3
  -3   6  -2 19274.4 745.741   1
  -3   6  -3 11031.3 580.564   1
   3   6   3 12650.8 769.938   4
  -3   6  -3 11239.9 566.308   4
   3   6   3 10691.6 744.822   1
  -3   6  -4 1134.77 197.953   1
  -3   6  -4 1068.20 191.767   4
   3   6   4 721.456 193.029   4
   3   6   4 872.037 229.248   1
   3   6   5 8390.79 660.583   4
  -3   6  -5 8098.20 545.315   1
  -3   6  -5 9532.30 596.011   4
   3   6   6 2877.26 403.974   4
  -3   6  -6 3209.70 358.339   1
  -3   6  -6 3150.28 356.025   4
   3   6   7 2201.28 372.670   4
  -3   6  -7 1867.73 287.010   1
   3   6   8 3546.31 473.867   4
  -3   6  -8 3880.83 425.242   1
  -3   6  -8 4331.19 452.031   3
   3   6   9 1021.16 277.038   4
  -3   6  -9 1191.39 249.129   3
  -3   6  -9 722.690 197.825   1
  -3   6 -10 741.479 217.022   1
   3   6  10 633.004 272.257   4
  -3   6 -10 722.944 211.564   3
  -3   6 -11 712.500 232.171   1
  -3   7  12 1070.71 292.013   4
   3   7 -11 674.341 241.620   1
   3   7 -11 857.803 281.005   4
  -3   7  11 371.929 172.330   4
   3   7 -10 8377.64 789.537   1
  -3   7  10 7360.84 668.524   4
   3   7 -10 8151.79 763.307   4
   3   7  -9 12211.1 935.399   1
  -3   7   9 11579.4 791.122   4
   3   7  -9 13327.5 939.966   4
  -3   7   8 10334.3 706.171   4
   3   7  -8 12835.4 905.558   4
   3   7  -8 11091.5 866.639   1
   3   7  -7 472.723 209.346   1
  -3   7   7 315.006 136.390   4
   3   7  -7 449.826 101.965   3
   3   7  -7 375.666 179.850   4
  -3   7   7 391.440 143.645   1
  -3   7   6 13621.9 742.246   4
   3   7  -6 14522.6 921.271   4
  -3   7   6 14127.1 783.328   1
   3   7  -6 15363.9 514.711   3
   3   7  -6 16108.1 1024.92   1
  -3   7   5 14259.9 735.267   4
   3   7  -5 15955.0 952.499   4
  -3   7   5 15312.7 787.296   1
   3   7  -5 13501.1 426.494   3
   3   7  -5 16105.2 1011.83   1
   3   7  -5 13543.3 705.972   5
  -3   7   4 606.213 168.692   1
  -3   7   4 238.863 105.772   4
   3   7  -4 637.022 210.589   4
   3   7  -4 483.956 204.213   1
   3   7  -4 420.531 68.2716   3
   3   7  -4 526.718 147.623   5
  -3   7   3 14731.1 215.006   2
  -3   7   3 15686.0 723.597   4
   3   7  -3 16867.3 949.398   4
  -3   7   3 15593.6 746.136   1
   3   7  -3 15273.6 368.804   3
   3   7  -3 15499.5 969.658   1
   3   7  -3 15865.5 752.301   5
  -3   7   2 881.986 171.683   4
   3   7  -2 702.445 217.547   1
   3   7  -2 914.666 234.750   4
  -3   7   2 1228.83 208.649   1
  -3   7   2 798.122 126.023   5
  -3   7   2 763.390 90.7576   2
   3   7  -2 1011.99 191.066   5
   3   7  -1 2145.48 343.121   4
  -3   7   1 3062.38 306.142   4
   3   7  -1 2265.23 372.265   1
  -3   7   1 2360.47 285.533   1
  -3   7   1 2073.83 150.153   5
   3   7  -1 2316.84 293.655   5
   3   7   0 3430.90 430.600   4
  -3   7   0 2972.43 298.233   4
   3   7   0 3794.59 468.790   1
   3   7   0 3432.80 356.858   5
  -3   7   0 2996.83 319.818   1
   3   7   1 33164.4 1372.14   1
   3   7   1 32727.2 1322.26   4
  -3   7  -1 33279.4 1010.24   4
   3   7   1 31427.4 1123.29   5
  -3   7  -1 33077.1 1058.17   1
   3   7   2 9596.70 727.089   4
  -3   7  -2 8247.72 525.939   4
   3   7   2 7389.03 666.012   1
  -3   7  -2 9411.24 583.169   1
  -3   7  -3 12832.6 678.560   1
   3   7   3 11242.9 781.629   4
  -3   7  -3 11840.6 632.376   4
   3   7   3 11510.2 825.549   1
  -3   7  -4 8354.01 572.341   1
   3   7   4 8589.24 692.339   4
  -3   7  -4 9349.87 585.166   4
   3   7   4 7330.90 666.787   1
  -3   7  -5 7168.62 546.786   1
   3   7   5 6459.86 615.213   4
  -3   7  -5 6645.06 544.577   4
   3   7   5 5860.04 607.902   1
   3   7   6 178.716 132.997   4
  -3   7  -6-22.5208 67.1680   1
  -3   7  -6 445.461 166.054   4
   3   7   6 298.885 150.072   1
   3   7   7 3184.55 470.224   4
  -3   7  -7 3201.64 394.048   1
  -3   7  -7 3394.20 404.947   4
  -3   7  -8 2581.65 372.546   1
   3   7   8 1655.57 361.204   4
  -3   7  -8 2299.73 348.760   3
   3   7   9 106.077 104.582   4
  -3   7  -9 276.819 167.307   3
  -3   7  -9 381.197 175.154   1
   3   7  10 2987.09 503.716   4
  -3   7 -10 3126.19 439.163   1
  -3   7 -10 2736.19 396.778   3
   3   8 -11-94.5767 193.289   1
   3   8 -11 221.947 190.465   4
  -3   8  10 2280.17 386.906   4
   3   8 -10 2136.07 425.805   1
   3   8 -10 1919.87 387.255   4
   3   8  -9 1474.06 359.568   1
   3   8  -9 882.116 233.037   4
  -3   8   9 1194.36 277.551   4
  -3   8   9 1018.34 277.932   1
   3   8  -8 1389.71 340.872   1
  -3   8   8 1247.11 260.849   4
   3   8  -8 1340.15 322.591   4
  -3   8   8 1250.12 288.531   1
  -3   8   7 5198.05 518.533   4
   3   8  -7 5541.25 611.682   4
  -3   8   7 5112.39 532.210   1
   3   8  -7 5732.37 652.502   1
  -3   8   6 5569.71 513.423   4
   3   8  -6 5603.67 606.935   4
  -3   8   6 5409.97 529.238   1
   3   8  -6 6439.77 686.224   1
  -3   8   5 1068.08 229.236   1
  -3   8   5 697.014 181.708   4
   3   8  -5 877.910 232.782   4
   3   8  -5 757.855 110.819   3
   3   8  -5 860.849 278.920   1
   3   8  -5 927.819 194.665   5
  -3   8   4 3853.28 416.714   1
  -3   8   4 4326.12 429.376   4
   3   8  -4 4728.28 548.969   4
   3   8  -4 4435.50 411.969   5
   3   8  -4 3745.01 224.103   3
   3   8  -4 4902.86 592.060   1
  -3   8   3 2926.29 344.972   4
   3   8  -3 3811.04 486.455   4
  -3   8   3 2911.60 365.785   1
   3   8  -3 3621.20 499.111   1
   3   8  -3 2708.70 318.991   5
  -3   8   2 9226.87 593.207   4
   3   8  -2 9529.62 777.672   4
  -3   8   2 9191.40 623.869   1
   3   8  -2 9538.14 804.256   1
   3   8  -2 9882.38 626.233   5
  -3   8   2 9274.20 294.896   2
  -3   8   1 36.4268 59.0649   1
  -3   8   1 129.922 73.1052   4
   3   8  -1 195.941 83.6126   1
   3   8  -1 47.8889 98.5551   4
   3   8  -1 180.666 98.7244   5
   3   8   0 13524.5 912.864   4
  -3   8   0 13765.0 708.789   4
   3   8   0 12365.8 909.236   1
  -3   8   0 12990.5 737.641   1
   3   8   0 12490.4 705.050   5
   3   8   1 12784.0 874.802   4
  -3   8  -1 13746.2 715.142   4
   3   8   1 10851.4 839.284   1
   3   8   1 14046.9 763.082   5
  -3   8  -1 13616.0 746.654   1
   3   8   2 4554.90 529.295   4
  -3   8  -2 4608.18 427.281   4
   3   8   2 4816.18 555.038   1
  -3   8  -2 4966.66 456.064   1
   3   8   3 2676.84 414.299   4
  -3   8  -3 3067.05 358.816   4
   3   8   3 3443.69 480.432   1
  -3   8  -3 3012.11 361.726   1
  -3   8  -4 4576.41 454.409   1
   3   8   4 4497.79 546.064   4
  -3   8  -4 4893.32 455.377   4
   3   8   4 3919.88 527.624   1
   3   8   5 1021.94 286.451   1
  -3   8  -5 1599.25 276.998   1
   3   8   5 1776.37 355.056   4
  -3   8  -5 1406.72 265.701   4
  -3   8  -6 3833.64 446.703   1
   3   8   6 3762.17 514.346   4
  -3   8  -6 4654.95 504.800   4
   3   8   6 4668.02 591.234   1
   3   8   7 3247.38 492.162   4
  -3   8  -7 3918.07 462.112   1
  -3   8  -7 3628.28 439.995   4
   3   8   7 3497.96 526.294   1
   3   8   8 1949.06 425.859   4
  -3   8  -8 1621.89 314.814   1
  -3   8  -8 1688.10 324.541   4
   3   8   8 1624.79 377.997   1
   3   8   9 3543.53 556.237   4
  -3   8  -9 4423.18 524.458   1
   3   8   9 4049.66 636.299   1
  -3   8  -9 3883.98 480.611   3
  -3   8 -10 1464.30 321.604   1
   3   9 -10 1737.87 374.290   1
   3   9 -10 1514.75 381.448   4
  -3   9   9 2008.30 379.530   1
   3   9  -9 2272.19 448.034   1
  -3   9   9 1447.22 330.435   4
   3   9  -9 1442.89 355.300   4
  -3   9   8 603.763 218.316   1
   3   9  -8 102.621 129.281   1
  -3   9   8-14.7147 116.783   4
   3   9  -8 697.911 279.256   4
  -3   9   7 2507.31 390.478   4
   3   9  -7 2685.56 459.161   4
  -3   9   7 2287.43 393.395   1
   3   9  -7 2972.57 513.889   1
  -3   9   6 1205.35 272.015   1
  -3   9   6 1057.34 259.703   4
   3   9  -6 1142.24 305.518   4
   3   9  -6 1584.35 347.095   1
  -3   9   5 108.715 129.148   1
   3   9  -5 225.046 158.433   4
  -3   9   5 350.823 141.502   4
   3   9  -5 241.314 160.760   1
   3   9  -5 199.235 115.704   5
  -3   9   4 3964.47 457.125   4
   3   9  -4 3744.64 525.402   4
  -3   9   4 3326.73 419.718   1
   3   9  -4 3792.44 558.374   1
   3   9  -4 3865.59 394.258   5
  -3   9   3 4790.01 471.206   4
   3   9  -3 5092.84 591.527   4
  -3   9   3 4436.39 483.933   1
   3   9  -3 4138.84 568.780   1
   3   9  -3 4765.46 432.713   5
  -3   9   2 40.8456 84.3871   1
   3   9  -2 113.576 154.003   1
  -3   9   2 11.0617 86.6510   4
   3   9  -2-23.0950 102.565   4
   3   9  -2-15.5815 52.4024   5
   3   9  -1 2410.96 416.640   4
  -3   9   1 2505.01 333.646   4
   3   9  -1 1838.50 372.532   1
  -3   9   1 2718.22 365.967   1
   3   9  -1 2967.65 351.720   5
   3   9   0 4160.62 542.968   4
  -3   9   0 3625.32 401.126   4
  -3   9   0 3870.10 436.579   1
   3   9   0 3532.82 388.475   5
   3   9   1 1348.95 310.115   4
  -3   9  -1 2412.83 329.812   4
   3   9   1 2334.61 428.829   1
   3   9   1 1801.72 282.792   5
  -3   9  -1 2099.17 318.287   1
   3   9   2 2574.24 430.805   4
  -3   9  -2 3030.63 371.379   4
   3   9   2 2509.45 435.008   1
   3   9   2 3372.57 411.966   5
  -3   9  -2 2710.02 364.678   1
   3   9   3 2687.83 451.781   1
   3   9   3 2479.47 427.393   4
  -3   9  -3 2819.71 371.872   4
  -3   9  -3 3191.22 408.469   1
  -3   9  -4 5116.52 509.905   1
   3   9   4 4713.20 598.164   4
  -3   9  -4 5042.57 491.651   4
   3   9   4 3590.71 545.954   1
  -3   9  -5 6695.84 608.063   1
   3   9   5 5778.74 658.526   4
  -3   9  -5 6642.95 589.095   4
   3   9   5 6327.65 719.912   1
  -3   9  -6 5972.96 589.532   1
   3   9   6 7039.18 739.950   4
  -3   9  -6 7446.31 664.242   4
   3   9   6 6867.29 763.037   1
   3   9   7 1231.92 341.615   1
   3   9   7 1252.04 340.560   4
  -3   9  -7 1320.78 282.315   1
  -3   9  -7 980.808 267.770   4
   3   9   8 1542.29 393.631   1
   3   9   8 891.554 313.177   4
  -3   9  -8 1450.76 308.121   1
  -3   9  -8 1667.87 339.486   4
  -3   9  -9 3832.97 510.827   1
   3  10  -8 2073.95 431.581   4
   3  10  -8 2625.79 523.398   1
   3  10  -7 943.667 308.049   1
  -3  10   7 1365.07 317.655   1
   3  10  -7 1630.14 398.099   4
  -3  10   7 1760.84 367.742   4
  -3  10   6 296.775 157.285   1
   3  10  -6 646.354 285.327   1
  -3  10   6 434.729 197.656   4
  -3  10   5 1244.63 274.516   1
  -3  10   5 1173.51 258.155   4
   3  10  -5 1539.47 366.758   4
   3  10  -5 1786.03 412.061   1
   3  10  -5 1472.40 243.713   5
  -3  10   4 1177.41 281.280   1
  -3  10   4 826.664 220.583   4
   3  10  -4 1043.72 295.027   4
   3  10  -4 1176.48 331.062   1
   3  10  -4 1232.71 231.903   5
   3  10  -3 1960.03 383.453   4
  -3  10   3 2176.65 357.255   4
   3  10  -3 1507.22 375.398   1
  -3  10   3 2267.54 374.101   1
   3  10  -3 1979.15 282.805   5
  -3  10   2 435.138 156.064   1
   3  10  -2 326.445 135.729   1
  -3  10   2 289.109 140.710   4
   3  10  -2 194.701 157.537   4
   3  10  -2 284.065 123.754   5
   3  10  -1 118.272 113.413   4
   3  10  -1 112.926 163.798   1
  -3  10   1 157.079 120.087   4
  -3  10   1 79.0431 86.5919   1
   3  10  -1 85.2765 95.0565   5
   3  10   0 386.469 195.605   4
   3  10   0 539.529 225.689   1
  -3  10   0 198.823 115.846   4
  -3  10   0 303.674 154.193   1
   3  10   0 285.852 130.106   5
   3  10   1 235.399 178.285   1
   3  10   1 383.272 200.471   4
  -3  10  -1 179.018 126.598   4
  -3  10  -1 142.038 151.061   1
   3  10   1 197.067 121.085   5
   3  10   2 106.660 144.963   1
   3  10   2 555.998 244.192   4
   3  10   2 217.219 126.831   5
  -3  10  -2 30.8029 90.9306   4
  -3  10  -2 246.241 153.404   1
  -3  10  -3 735.823 229.947   1
   3  10   3 1204.98 318.528   1
   3  10   3 442.648 186.608   4
  -3  10  -3 979.613 247.346   4
  -3  10  -4 1575.12 322.576   1
  -3  10  -4 2229.89 353.925   4
   3  10   4 2143.75 428.721   4
   3  10   4 2616.68 502.827   1
   3  10   5 1228.12 347.407   1
  -3  10  -5 1320.41 295.804   1
   3  10   5 310.804 177.668   4
  -3  10  -5 905.326 238.410   4
   3  10   6 711.255 289.836   1
   3  10   6 349.519 203.614   4
  -3  10  -6 547.482 201.231   1
  -3  10  -6 607.638 203.433   4
   3  10   7 648.269 262.696   1
  -3  10  -7 871.862 259.063   4
   3  10   7 799.493 319.658   4
  -3  10  -7 489.640 198.818   1
  -3  10  -8 544.088 183.810   4
  -3  10  -8 631.811 224.590   1
   3  11  -7 4559.94 660.493   4
   3  11  -7 5250.41 730.390   1
   3  11  -6 1187.73 341.514   1
   3  11  -6 2172.51 465.069   4
   3  11  -5 3145.18 529.596   4
   3  11  -5 4401.91 663.513   1
  -3  11   4 3198.58 454.266   4
   3  11  -4 3751.30 578.688   4
  -3  11   4 3020.39 482.772   1
   3  11  -4 2207.60 487.785   1
   3  11  -3 2276.95 455.342   4
  -3  11   3 1804.17 376.068   1
  -3  11   3 1750.51 334.982   4
   3  11  -3 2601.21 519.540   1
  -3  11   2 1044.16 274.530   1
   3  11  -2 1362.98 391.086   1
   3  11  -2 1121.20 335.241   4
  -3  11   2 1051.45 264.397   4
   3  11  -1 291.692 237.322   1
   3  11  -1 148.723 161.327   4
  -3  11   1 112.546 130.707   4
  -3  11   1-27.4558 86.9800   1
   3  11  -1 122.703 97.9260   5
   3  11   0 474.656 224.006   1
  -3  11   0 275.030 144.610   4
  -3  11   0 448.420 208.835   1
   3  11   0 282.194 128.467   5
   3  11   0-38.3451 160.356   4
   3  11   1 72.9682 170.237   1
   3  11   1 200.700 203.422   4
  -3  11  -1 10.3715 69.6920   4
  -3  11  -1 142.616 95.9289   1
   3  11   1-55.3595 81.3884   5
   3  11   2 230.605 201.867   1
   3  11   2 38.1321 118.635   4
  -3  11  -2 350.548 187.712   4
   3  11   2-46.1445 87.8559   5
  -3  11  -2 327.722 180.449   1
  -3  11  -3 1847.50 358.507   1
   3  11   3 1618.05 409.796   1
  -3  11  -3 2114.71 371.722   4
   3  11   3 1527.42 393.454   4
   3  11   3 1942.01 334.773   5
  -3  11  -4 1566.07 340.527   1
   3  11   4 695.245 303.906   1
   3  11   4 1382.03 367.840   4
  -3  11  -4 1165.33 272.863   4
   3  11   5 722.983 265.305   1
  -3  11  -5 1677.25 365.091   1
   3  11   5 1144.39 353.754   4
  -3  11  -5 1362.68 309.027   4
   3  11   6 711.162 287.422   1
  -3  11  -6 321.487 169.320   1
   3  11   6 255.500 190.909   4
  -3  11  -6 216.117 142.107   4
  -3  11  -7 571.779 257.976   1
  -3  11  -7 593.989 231.123   4
   3  12  -5 986.642 313.178   4
   3  12  -5 1930.70 502.241   1
   3  12  -4 3891.61 621.577   4
   3  12  -4 4664.19 722.067   1
   3  12  -3 3965.78 613.705   4
   3  12  -3 3366.61 625.214   1
   3  12  -2-1.33373 126.034   1
   3  12  -2 380.650 238.968   4
   3  12  -1 1208.20 331.143   4
   3  12  -1 1706.46 426.179   1
   3  12   0 168.336 156.433   1
   3  12   0 168.686 173.035   4
   3  12   1 817.381 341.719   1
  -3  12  -1 970.251 292.361   4
  -3  12  -1 785.612 275.660   1
   3  12   1 759.792 292.087   4
  -3  12  -2 317.990 151.831   1
   3  12   2 19.2774 151.346   1
   3  12   2 1.24040 118.129   4
  -3  12  -2 129.063 153.882   4
  -3  12  -3 3809.29 532.047   4
   3  12   3 3179.98 583.688   1
   3  12   3 2919.22 553.587   4
  -3  12  -3 3949.16 557.984   1
   3  12   4 4651.78 706.529   4
  -3  12  -4 4036.32 539.955   4
   3  12   4 5814.47 808.759   1
   3  12   4 4464.21 529.875   5
  -3  12  -4 5686.80 653.465   1
  -3  12  -5 434.691 239.724   1
  -3  12  -5 389.210 180.860   4
  -4 -12   4 2012.93 299.234   2
  -4 -12   3 1133.30 221.370   2
  -4 -12   3 963.673 238.348   7
  -4 -12   2 1183.78 222.696   2
  -4 -12   2 1479.86 301.771   7
  -4 -12   1 3244.09 338.993   2
  -4 -12   1 5588.17 578.218   7
  -4 -12   0 979.141 234.264   7
  -4 -12  -1 598.550 206.384   7
  -4 -11   6 2811.09 415.140   7
  -4 -11   5 1441.63 253.960   2
  -4 -11   5 1513.87 298.609   7
  -4 -11   4 2694.47 326.685   2
  -4 -11   4 2257.04 355.790   7
  -4 -11   3 1699.22 251.438   2
  -4 -11   3 2268.30 355.330   7
  -4 -11   2 2007.31 273.332   2
  -4 -11   2 1547.14 294.622   7
  -4 -11   1 802.179 165.310   2
  -4 -11   1 697.078 203.588   7
  -4 -11   0 1413.52 216.751   2
  -4 -11   0 810.679 209.653   7
  -4 -11  -1 1883.85 253.520   2
  -4 -11  -1 1967.74 328.979   7
  -4 -11  -2 1104.61 254.690   7
  -4 -11  -3 3062.47 418.720   7
  -4 -11  -4 8939.92 711.060   7
  -4 -10   6 1581.61 262.908   2
  -4 -10   6 1642.12 306.994   7
  -4 -10   5 9659.72 618.466   2
  -4 -10   5 9077.91 693.475   7
  -4 -10   4 4766.20 416.142   2
  -4 -10   4 4337.21 467.707   7
  -4 -10   3 1918.61 259.951   2
  -4 -10   3 1870.08 298.901   7
  -4 -10   2 413.334 124.060   2
  -4 -10   2 123.059 94.7181   7
  -4 -10   1 613.093 144.995   2
  -4 -10   1 368.058 131.218   7
  -4 -10   0 1945.73 250.504   2
  -4 -10   0 2083.33 316.538   7
  -4 -10  -1 683.416 148.262   2
  -4 -10  -1 830.573 216.805   7
  -4 -10  -2 1645.33 222.073   2
  -4 -10  -2 1816.39 304.290   7
  -4 -10  -3 1691.42 227.352   2
  -4 -10  -3 2154.36 326.118   7
  -4 -10  -4 119.168 95.3021   7
  -4 -10  -5 1238.08 272.650   7
  -4 -10  -6 276.053 142.728   7
  -4  -9   8 296.375 146.640   6
  -4  -9   7 946.040 214.706   2
  -4  -9   6 3280.76 361.351   2
  -4  -9   6 3609.16 419.116   7
  -4  -9   5 483.646 134.510   2
  -4  -9   5 610.167 169.535   7
  -4  -9   4 1601.35 238.278   2
  -4  -9   4 1818.46 289.752   7
  -4  -9   3 1630.68 233.851   2
  -4  -9   3 2098.02 302.416   7
  -4  -9   2 2157.51 261.354   2
  -4  -9   2 2089.57 299.028   7
  -4  -9   1 992.775 180.394   2
  -4  -9   1 1201.23 232.359   7
   4  -9  -1 988.354 147.024   7
  -4  -9   0 199.211 89.3142   2
  -4  -9   0 309.737 142.169   7
  -4  -9  -1 4042.49 341.767   2
  -4  -9  -1 4740.33 449.370   7
  -4  -9  -2 1338.02 201.802   2
  -4  -9  -2 1642.97 279.842   7
  -4  -9  -3 678.892 150.336   2
  -4  -9  -3 552.864 159.966   7
  -4  -9  -4 2910.26 297.364   2
  -4  -9  -4 3034.05 377.439   7
  -4  -9  -5 3387.37 408.736   7
  -4  -9  -6-53.2307 79.5249   7
   4  -9   7 0.59453 74.4761   4
  -4  -9  -7-45.5287 81.2988   7
   4  -9   8 184.243 156.147   4
  -4  -8  10 41.0319 77.0754   6
  -4  -8   9-8.60709 66.9723   6
  -4  -8   8 3541.80 399.091   6
  -4  -8   7 424.785 124.195   2
  -4  -8   6 389.406 136.302   2
  -4  -8   6 365.204 129.431   7
  -4  -8   5 103.594 88.1874   2
  -4  -8   5 17.4376 60.2317   7
  -4  -8   4 3751.29 345.177   2
   4  -8  -4 3077.06 246.220   7
  -4  -8   4 3198.62 362.621   7
  -4  -8   3 1886.56 243.593   2
   4  -8  -3 2152.24 197.918   7
  -4  -8   3 2139.94 286.018   7
  -4  -8   2 4927.37 382.583   2
  -4  -8   2 4060.94 390.315   7
   4  -8  -2 4072.36 266.458   7
  -4  -8   1 7839.42 479.852   2
   4  -8  -1 7708.53 362.347   7
  -4  -8   1 7742.73 537.763   7
  -4  -8   0 589.045 130.663   2
  -4  -8   0 648.809 155.001   7
  -4  -8  -1 9872.28 537.525   2
  -4  -8  -1 10433.3 628.636   7
  -4  -8  -2 291.828 99.5805   2
  -4  -8  -2 390.544 133.377   7
  -4  -8  -3 1182.79 196.282   2
  -4  -8  -3 1445.62 252.777   7
  -4  -8  -4 1257.92 199.211   2
  -4  -8  -4 1008.45 206.367   7
  -4  -8  -5 3539.86 395.547   7
  -4  -8  -5 3789.86 345.286   2
  -4  -8  -6 1237.14 246.181   7
  -4  -8  -6 1436.48 222.328   2
   4  -8   7 1308.05 245.689   4
  -4  -8  -7 1027.10 227.490   7
  -4  -8  -8 6520.32 599.804   7
   4  -8   8 5788.92 534.004   4
   4  -8   9 848.283 219.671   4
  -4  -7  11 173.925 125.320   6
  -4  -7  10 1331.51 248.642   6
  -4  -7   9 3530.58 395.170   6
  -4  -7   8 6013.40 496.031   2
  -4  -7   8 5916.71 499.056   6
  -4  -7   7 4299.03 398.551   2
   4  -7  -7 3648.46 292.261   7
  -4  -7   6 3431.54 337.905   2
   4  -7  -6 3824.07 279.287   7
  -4  -7   5 5502.03 422.018   2
  -4  -7   5 5837.25 465.587   7
   4  -7  -5 4729.23 293.439   7
  -4  -7   4 10596.1 567.556   2
   4  -7  -4 10119.6 401.936   7
  -4  -7   4 10689.4 609.372   7
  -4  -7   3 2267.20 255.172   2
   4  -7  -3 2345.26 182.941   7
  -4  -7   3 1880.08 257.260   7
  -4  -7   2 5442.83 395.056   2
  -4  -7   2 5469.52 424.906   7
   4  -7  -2 5352.28 266.964   7
  -4  -7   1 18849.3 726.068   2
   4  -7  -1 20276.9 518.306   7
  -4  -7   0 331.974 102.334   2
  -4  -7   0 365.702 119.813   7
  -4  -7  -1 2992.79 289.527   2
  -4  -7  -1 3115.19 328.656   7
  -4  -7  -2 22584.8 803.764   2
  -4  -7  -2 22316.9 882.151   7
  -4  -7  -3 10674.0 618.087   7
  -4  -7  -3 10591.3 555.718   2
  -4  -7  -4 1227.93 215.937   7
  -4  -7  -4 1458.50 215.693   2
  -4  -7  -5 870.639 170.315   2
  -4  -7  -5 784.226 184.348   7
  -4  -7  -6 280.377 113.306   2
   4  -7   6 446.052 141.096   4
  -4  -7  -6 657.292 174.683   7
  -4  -7  -7 2222.17 317.930   7
  -4  -7  -7 2184.90 278.916   2
   4  -7   7 2501.85 319.832   4
   4  -7   8 263.109 119.870   4
  -4  -7  -8 280.263 157.922   7
   4  -7   9 5514.25 540.376   4
  -4  -7  -9 5527.95 548.752   7
   4  -7  10 1114.24 257.768   4
  -4  -6  12 942.687 232.891   6
  -4  -6  11 7777.30 612.903   6
  -4  -6  10 2753.14 361.033   6
   4  -6  -9 6622.00 440.757   7
  -4  -6   9 8805.69 614.180   6
  -4  -6   8 823.197 177.671   2
   4  -6  -8 745.159 135.030   7
  -4  -6   8 668.409 175.473   6
  -4  -6   7 1593.66 231.074   2
   4  -6  -7 1277.72 173.903   7
  -4  -6   6 2906.00 304.220   2
   4  -6  -6 2174.56 203.174   7
  -4  -6   5 2224.29 257.950   2
   4  -6  -5 1954.96 175.163   7
  -4  -6   5 2558.82 284.336   7
  -4  -6   4 2890.74 291.742   2
   4  -6  -4 2392.19 174.271   7
  -4  -6   4 2180.66 257.550   7
  -4  -6   3 8004.10 472.597   2
   4  -6  -3 7826.96 285.915   7
  -4  -6   3 8264.02 490.218   7
   4  -6  -2 7766.69 318.435   4
  -4  -6   2 8130.77 468.130   2
   4  -6  -2 8563.92 285.909   7
  -4  -6   2 7872.46 478.249   7
  -4  -6   1 410.278 101.514   2
   4  -6  -1 314.736 78.9989   4
  -4  -6   1 599.299 134.437   7
  -4  -6   0 7963.40 462.898   2
   4  -6   0 6747.79 366.134   4
   4  -6   0 7770.35 411.547   1
  -4  -6   0 7982.65 479.338   7
  -4  -6  -1 1949.44 229.305   2
  -4  -6  -1 1914.06 238.819   7
  -4  -6  -2 24051.2 859.357   7
   4  -6   2 24078.6 490.089   5
  -4  -6  -2 24516.5 820.040   2
  -4  -6  -3 742.567 157.255   7
   4  -6   3 650.899 91.0504   5
  -4  -6  -3 907.380 164.020   2
  -4  -6  -4 20230.1 836.364   7
  -4  -6  -4 21580.0 804.301   2
  -4  -6  -5 697.031 162.238   2
   4  -6   5 789.192 156.103   4
  -4  -6  -5 1147.15 205.176   7
  -4  -6  -6 1461.79 240.171   7
  -4  -6  -6 2356.31 280.052   2
   4  -6   6 1925.82 260.723   4
   4  -6   7 1640.42 255.974   4
  -4  -6  -7 1334.83 241.091   7
  -4  -6  -7 1259.76 213.226   2
   4  -6   8 2119.97 313.139   4
  -4  -6  -8 1173.08 237.175   7
  -4  -6  -8 1768.21 259.883   2
  -4  -6  -9 844.414 206.769   2
   4  -6   9 1653.49 287.201   4
  -4  -6  -9 1319.67 274.673   7
   4  -6  10 2249.90 369.229   4
  -4  -5  11 974.147 220.231   6
   4  -5 -10 6969.04 481.910   7
  -4  -5  10 8047.49 604.564   6
   4  -5  -9 582.714 137.897   7
  -4  -5   9 573.316 159.744   6
  -4  -5   8 1518.83 230.634   2
   4  -5  -8 1761.46 209.098   7
  -4  -5   8 1411.44 244.727   6
  -4  -5   7 878.661 165.820   2
   4  -5  -7 715.548 126.031   7
  -4  -5   7 668.628 164.219   6
  -4  -5   6 7782.85 477.936   2
   4  -5  -6 6442.05 323.952   7
  -4  -5   5 4608.23 358.076   2
   4  -5  -5 3745.34 221.094   7
  -4  -5   5 3997.37 342.597   7
   4  -5  -4 230.267 50.9832   7
  -4  -5   4 320.201 87.4499   2
   4  -5  -4 338.652 59.6459   4
  -4  -5   4 409.393 111.925   7
   4  -5  -3 9107.45 259.432   4
  -4  -5   3 9274.14 491.734   2
   4  -5  -3 10120.3 265.820   7
  -4  -5   3 10453.7 516.527   7
   4  -5  -2 14006.9 300.632   4
  -4  -5   2 14225.0 606.576   2
  -4  -5   2 13818.6 587.989   7
   4  -5  -2 14057.1 273.757   7
  -4  -5   1 16998.8 664.710   2
   4  -5  -1 17120.6 390.152   4
  -4  -5   1 17384.3 657.875   7
  -4  -5   0 536.053 127.687   2
   4  -5   0 474.387 85.7756   4
  -4  -5   0 715.961 138.402   7
   4  -5   0 519.212 94.8490   5
   4  -5   0 359.760 78.9737   1
   4  -5   1 8516.21 419.414   4
  -4  -5  -1 8587.08 473.117   7
   4  -5   1 8752.78 441.019   1
   4  -5   1 9978.21 395.508   5
  -4  -5  -1 8240.47 465.017   2
   4  -5   2 3642.18 315.793   4
  -4  -5  -2 3590.43 310.306   7
   4  -5   2 2617.29 284.127   1
   4  -5   2 3318.41 231.586   5
  -4  -5  -2 3362.23 305.834   2
  -4  -5  -3 7872.49 477.135   7
   4  -5   3 7818.61 377.291   5
  -4  -5  -3 7867.12 478.692   2
   4  -5   3 8167.00 388.359   4
  -4  -5  -4 539.091 126.110   2
   4  -5   4 610.340 118.693   4
  -4  -5  -4 437.257 126.156   7
   4  -5   4 752.426 131.444   5
  -4  -5  -5 277.180 92.0203   2
   4  -5   5 349.431 100.227   4
  -4  -5  -5 189.091 91.7588   7
   4  -5   6 2140.47 264.979   4
  -4  -5  -6 2056.32 277.813   7
  -4  -5  -6 2004.05 260.654   2
  -4  -5  -7 86.9606 76.6494   2
   4  -5   7 83.2215 79.3054   4
  -4  -5  -7 167.384 95.4118   7
   4  -5   8 1950.42 291.149   4
  -4  -5  -8 2426.25 328.038   7
   4  -5   9 288.209 136.126   4
  -4  -5  -9 265.165 132.835   7
   4  -5  10 3009.43 411.738   4
  -4  -5 -10 1899.41 322.791   7
   4  -5  11 172.257 148.809   4
  -4  -4  13 986.897 251.457   4
   4  -4 -12 3426.76 382.197   1
  -4  -4  12 4214.51 495.021   4
  -4  -4  11 7915.39 609.608   6
   4  -4 -11 6730.69 495.042   1
   4  -4 -10 237.678 98.4963   1
  -4  -4  10 594.458 167.708   6
  -4  -4   9 1597.05 236.931   2
  -4  -4   9 1936.66 284.025   6
   4  -4  -9 1728.80 224.261   7
   4  -4  -9 1696.89 216.120   1
  -4  -4   8 3633.71 342.995   2
  -4  -4   8 3767.60 382.093   6
   4  -4  -8 3028.62 268.000   1
   4  -4  -8 3685.67 297.794   7
  -4  -4   7 12949.4 609.424   2
   4  -4  -7 13114.1 501.683   7
  -4  -4   7 14482.1 720.304   6
   4  -4  -7 13013.5 502.869   1
   4  -4  -6 22075.9 572.204   7
  -4  -4   6 22834.7 792.217   2
  -4  -4   5 1000.54 169.129   2
   4  -4  -5 1095.84 109.654   7
  -4  -4   4 2787.05 266.671   2
   4  -4  -4 2668.95 140.206   7
  -4  -4   4 2863.84 260.217   7
   4  -4  -3 20908.5 251.855   7
  -4  -4   3 22086.0 685.269   7
  -4  -4   2 10100.1 499.741   2
  -4  -4   2 10620.2 470.462   7
  -4  -4   1 3242.16 285.131   2
  -4  -4   1 3987.69 288.611   7
   4  -4  -1 3266.26 255.732   5
   4  -4   0 12522.8 333.106   4
   4  -4   0 12500.2 346.051   1
  -4  -4   0 12652.7 520.283   7
   4  -4   0 13091.9 502.931   5
  -4  -4   0 12492.0 557.777   2
   4  -4   0 11991.4 252.692   4
   4  -4   1 16931.9 530.300   4
  -4  -4  -1 18149.2 633.670   7
   4  -4   1 17612.4 567.419   1
   4  -4   1 18256.1 593.592   5
  -4  -4  -1 17220.5 667.374   2
   4  -4   1 17011.2 390.443   4
   4  -4   2 1629.39 145.171   4
   4  -4   2 1447.99 180.897   4
  -4  -4  -2 1529.98 190.614   7
   4  -4   2 1373.95 188.242   1
   4  -4   2 1740.16 188.200   5
  -4  -4  -2 1236.97 190.362   2
   4  -4   3 7211.68 347.600   4
  -4  -4  -3 7276.56 432.436   7
   4  -4   3 7942.35 421.648   5
  -4  -4  -3 7523.20 465.878   2
   4  -4   4 1003.01 144.100   4
  -4  -4  -4 995.995 173.329   7
   4  -4   4 810.333 147.992   5
  -4  -4  -4 760.889 154.549   2
   4  -4   5 3973.53 317.548   4
  -4  -4  -5 3351.67 320.986   7
  -4  -4  -5 3081.72 316.969   2
   4  -4   6 7717.26 483.785   4
  -4  -4  -6 8094.89 525.177   7
   4  -4   7 3608.96 360.586   4
  -4  -4  -7 3208.64 349.167   7
   4  -4   8 1361.85 238.872   4
  -4  -4  -8 1155.74 225.057   7
   4  -4   9 753.611 207.565   4
  -4  -4  -9 621.069 178.887   7
   4  -4  10 2303.01 362.422   4
  -4  -4 -10 2715.21 385.060   7
   4  -4  11 1197.14 278.093   4
  -4  -3  13 3413.12 474.159   4
   4  -3 -13 3833.70 433.613   1
   4  -3 -12 3610.59 392.154   1
  -4  -3  12 4427.29 495.992   4
  -4  -3  11 3942.29 427.173   6
   4  -3 -11 3469.55 356.142   1
  -4  -3  11 3558.47 417.734   4
   4  -3 -10 2458.13 284.427   1
  -4  -3  10 2474.43 324.593   6
  -4  -3   9 3989.79 359.474   2
   4  -3  -9 3770.48 325.559   1
  -4  -3   9 4073.08 412.773   6
  -4  -3   8 8446.85 495.398   2
   4  -3  -8 8525.20 444.140   1
  -4  -3   8 9554.10 592.447   6
  -4  -3   7 8048.67 466.603   2
  -4  -3   7 8638.55 552.550   6
   4  -3  -7 8298.60 392.526   1
  -4  -3   6 12449.9 562.055   2
   4  -3  -6 12033.3 416.366   1
  -4  -3   5 3392.36 289.153   2
   4  -3  -5 3386.26 186.500   7
   4  -3  -5 3126.85 184.175   1
  -4  -3   4 2631.11 251.588   2
   4  -3  -4 2707.40 125.405   7
  -4  -3   4 2916.22 234.559   7
  -4  -3   3 12751.6 549.343   2
  -4  -3   3 13302.3 489.576   7
  -4  -3   2 2109.26 221.468   2
  -4  -3   2 1834.39 178.370   7
   4  -3  -2 1745.06 199.238   5
  -4  -3   1 22248.1 625.064   7
  -4  -3   1 22700.7 736.235   2
  -4  -3   0 30572.0 740.708   7
   4  -3   0 30347.8 822.516   5
  -4  -3   0 29602.2 847.950   2
   4  -3   1 10900.9 298.052   4
   4  -3   1 10869.8 377.004   4
  -4  -3  -1 10245.9 437.618   7
   4  -3   1 10704.4 394.282   1
   4  -3   1 10720.0 487.648   5
  -4  -3  -1 10960.6 526.903   2
   4  -3   2 35951.0 662.859   4
   4  -3   2 35213.5 814.011   4
  -4  -3  -2 39188.1 902.234   7
   4  -3   2 35345.9 922.454   5
   4  -3   2 37760.9 904.980   1
  -4  -3  -2 36681.1 976.675   2
   4  -3   3 2493.19 201.220   4
  -4  -3  -3 2317.42 229.332   7
   4  -3   3 2131.35 245.281   5
  -4  -3  -3 2432.21 262.718   2
   4  -3   4 909.153 137.836   4
  -4  -3  -4 932.155 159.630   7
   4  -3   5 8897.60 473.425   4
  -4  -3  -5 9014.08 507.537   7
   4  -3   6 4278.97 357.047   4
  -4  -3  -6 4388.22 383.137   7
   4  -3   7 2365.23 289.914   4
  -4  -3  -7 2365.22 294.301   7
  -4  -3  -7 2667.96 314.506   1
   4  -3   8 1621.13 261.622   4
  -4  -3  -8 1468.10 252.075   7
  -4  -3  -8 1709.95 268.053   1
   4  -3   9 1553.88 282.024   4
  -4  -3  -9 1453.59 267.261   7
  -4  -3  -9 1882.76 300.653   1
  -4  -3 -10 802.166 209.675   1
   4  -3  10 1010.72 238.753   4
  -4  -3 -10 548.682 175.668   7
   4  -3  11 248.035 148.268   4
  -4  -3 -11 343.218 162.022   7
  -4  -3 -11 305.331 151.616   1
   4  -2 -13 474.873 178.009   1
  -4  -2  13 1121.92 302.238   4
  -4  -2  12 8173.11 659.247   4
   4  -2 -12 7500.22 560.459   1
  -4  -2  11 1962.12 305.997   4
   4  -2 -11 1521.57 233.420   1
  -4  -2  11 1702.40 292.931   6
   4  -2 -10 6257.09 453.549   1
  -4  -2  10 6660.53 528.421   6
  -4  -2  10 6202.43 499.568   4
  -4  -2   9 1743.06 230.226   2
   4  -2  -9 1458.43 199.379   1
  -4  -2   9 1797.76 267.601   6
  -4  -2   8 9327.34 504.554   2
   4  -2  -8 9122.02 460.385   1
  -4  -2   8 8981.43 565.802   6
  -4  -2   7 53509.5 1156.56   2
   4  -2  -7 50183.2 976.092   1
  -4  -2   7 52705.5 1333.08   6
  -4  -2   6 1102.48 162.876   2
   4  -2  -6 1001.64 121.650   1
  -4  -2   6 1090.52 182.714   6
  -4  -2   5 17.3511 31.4115   2
   4  -2  -5 30.9686 28.5353   7
  -4  -2   5 18.9479 25.8687   3
  -4  -2   4 3914.03 295.922   2
   4  -2  -4 3743.70 142.956   7
   4  -2  -4 3950.09 155.288   1
  -4  -2   4 3733.63 179.074   3
  -4  -2   3 3709.10 290.490   2
  -4  -2   3 3990.71 326.494   4
  -4  -2   3 3980.92 336.903   1
  -4  -2   3 4184.10 246.961   7
  -4  -2   3 3830.09 144.851   3
   4  -2  -3 4016.17 331.930   5
  -4  -2   2 6275.40 376.833   2
  -4  -2   2 7378.02 414.564   4
  -4  -2   2 6610.51 413.732   1
  -4  -2   2 6457.90 292.267   7
   4  -2  -2 5705.11 387.919   5
  -4  -2   1 8034.83 418.826   4
  -4  -2   1 8160.71 335.543   7
   4  -2  -1 7211.09 424.982   5
  -4  -2   1 8505.07 441.991   2
  -4  -2   0 21259.2 667.256   4
  -4  -2   0 21851.6 560.798   7
  -4  -2   0 20323.3 368.232   3
   4  -2   0 21124.0 726.807   5
  -4  -2   0 21574.4 717.415   2
   4  -2   1 5073.75 213.480   4
   4  -2   1 4946.40 233.654   4
  -4  -2  -1 5264.31 291.446   7
  -4  -2  -1 4957.46 217.722   3
   4  -2   1 5653.34 380.606   5
   4  -2   1 4840.37 243.065   1
  -4  -2  -1 5819.18 376.839   2
   4  -2   2 29506.3 620.824   4
   4  -2   2 31217.3 721.537   4
  -4  -2  -2 31305.4 745.537   7
  -4  -2  -2 30157.6 613.406   3
   4  -2   2 32262.8 926.383   5
  -4  -2  -2 31128.8 896.254   2
   4  -2   2 32340.3 766.387   1
   4  -2   3 2596.01 207.785   4
  -4  -2  -3 2484.53 201.822   3
  -4  -2  -3 2951.90 246.555   7
   4  -2   4 7646.07 401.079   4
  -4  -2  -4 7595.26 380.896   3
  -4  -2  -4 7857.66 435.338   7
   4  -2   5 3214.14 286.728   4
  -4  -2  -5 2936.67 285.761   7
  -4  -2  -5 3433.31 275.338   3
  -4  -2  -5 3092.52 293.651   1
   4  -2   6 3964.28 346.798   4
  -4  -2  -6 3805.98 341.744   7
  -4  -2  -6 4042.00 348.238   1
  -4  -2  -7 249.095 99.0703   1
   4  -2   7 358.057 112.477   4
  -4  -2  -7 263.539 103.957   7
   4  -2   8 2092.39 298.758   4
  -4  -2  -8 2625.87 321.466   7
  -4  -2  -8 2387.89 300.663   1
   4  -2   9 968.373 220.787   4
  -4  -2  -9 1500.62 256.202   1
   4  -2  10 1030.19 261.265   4
  -4  -2 -10 797.571 196.922   1
   4  -2  11 1120.13 279.812   4
  -4  -2 -11 1148.02 265.043   7
  -4  -2 -11 1107.38 241.403   1
  -4  -1  14 876.802 257.493   4
   4  -1 -14 685.998 201.195   1
  -4  -1  13 4850.69 528.159   4
   4  -1 -13 5006.39 496.206   1
  -4  -1  12 245.177 125.331   4
   4  -1 -12 378.685 153.059   1
  -4  -1  11 2902.67 366.387   4
   4  -1 -11 3601.30 374.168   1
   4  -1 -10 1113.94 196.626   1
  -4  -1  10 1126.13 221.930   6
  -4  -1   9-43.5928 70.2317   4
  -4  -1   9 24.1052 39.8806   2
   4  -1  -9 113.653 77.9346   1
  -4  -1   9-22.9060 46.7365   6
  -4  -1   8 3664.44 300.238   2
   4  -1  -8 3305.87 287.381   1
  -4  -1   8 3180.10 337.864   6
  -4  -1   8 3209.28 297.074   4
  -4  -1   7 1995.37 215.064   2
   4  -1  -7 1625.67 184.548   1
  -4  -1   7 1544.27 222.325   6
  -4  -1   6 5851.36 356.271   2
   4  -1  -6 6749.97 331.618   1
  -4  -1   6 6523.21 445.038   6
  -4  -1   5 7940.85 415.140   2
   4  -1  -5 8082.84 316.936   1
   4  -1  -5 7039.65 276.660   7
  -4  -1   4 1689.10 187.603   2
  -4  -1   4 1860.59 212.953   4
   4  -1  -4 1915.98 126.746   1
   4  -1  -4 1607.27 107.426   7
  -4  -1   4 1565.30 207.372   1
   4  -1  -4 1571.92 220.815   5
  -4  -1   3 3947.27 292.184   2
  -4  -1   3 3616.82 268.938   4
   4  -1  -3 3663.43 118.931   1
   4  -1  -3 3531.04 110.927   7
  -4  -1   3 4045.82 303.901   1
   4  -1  -3 3489.48 314.196   5
  -4  -1   2 18582.9 552.068   4
  -4  -1   2 18939.9 580.500   1
  -4  -1   2 17625.8 410.019   7
   4  -1  -2 17166.0 683.962   5
  -4  -1   2 19508.6 646.047   2
  -4  -1   1 1997.87 176.280   4
  -4  -1   1 1697.53 128.805   7
   4  -1  -1 1676.55 213.605   5
  -4  -1   1 1947.77 206.863   2
  -4  -1   0 16693.1 493.895   4
   4  -1   0 16426.4 316.985   1
   4  -1   0 15822.1 347.992   4
   4  -1   0 17703.9 339.071   4
   4  -1   0 16950.6 371.828   1
  -4  -1   0 15904.7 418.415   7
   4  -1   0 17026.4 679.679   5
  -4  -1   0 16777.2 615.570   2
  -4  -1  -1 122.484 58.3053   2
  -4  -1  -1 42.2328 32.4775   4
   4  -1   1 95.2506 38.4744   4
   4  -1   1 164.702 45.9271   1
  -4  -1  -1 121.632 47.1678   7
   4  -1   1 116.288 44.0646   4
   4  -1   1 139.355 63.2229   5
   4  -1   2 2472.48 191.186   4
   4  -1   2 2813.01 214.388   1
   4  -1   2 2974.68 223.601   4
  -4  -1  -2 2610.61 196.000   3
  -4  -1  -2 3166.33 222.422   7
   4  -1   2 2547.58 276.454   5
   4  -1   3 20623.7 623.233   4
  -4  -1  -3 21555.9 640.708   7
  -4  -1  -3 20326.6 597.943   3
   4  -1   4 1363.07 180.160   4
  -4  -1  -4 1774.73 202.670   7
  -4  -1  -4 1388.91 167.811   3
  -4  -1  -4 1324.75 172.756   1
  -4  -1  -5 2951.98 261.734   3
  -4  -1  -5 2957.35 270.087   1
   4  -1   6 7333.42 479.571   4
  -4  -1  -6 7721.77 469.626   1
  -4  -1  -6 6573.22 427.538   3
  -4  -1  -7 223.697 85.7820   1
   4  -1   7 457.192 140.796   4
  -4  -1  -7 209.531 77.2103   3
   4  -1   8 228.231 122.588   4
  -4  -1  -8 113.732 85.3907   3
  -4  -1  -8 270.364 108.956   1
   4  -1   9 1443.36 279.565   4
  -4  -1  -9 1966.63 285.457   1
   4  -1  10 4447.16 503.748   4
  -4  -1 -10 5697.20 517.092   1
  -4  -1 -11 222.110 142.599   1
   4  -1  11 71.8529 84.2032   4
  -4   0  14 1376.16 316.442   4
   4   0 -14 1087.07 272.563   1
  -4   0  13 2072.55 351.018   4
   4   0 -13 1959.11 327.803   1
  -4   0  12 876.986 222.717   4
   4   0 -12 755.410 191.107   1
   4   0 -11 472.280 145.089   1
  -4   0  11 218.926 104.107   4
   4   0 -10 228.531 90.1616   1
  -4   0  10 539.644 147.739   4
  -4   0   9 4382.13 368.442   4
   4   0  -9 4470.63 371.601   1
  -4   0   9 5013.79 434.029   6
  -4   0   8 775.061 147.103   4
   4   0  -8 601.852 125.295   1
  -4   0   8 932.224 149.901   2
  -4   0   8 462.147 141.171   6
  -4   0   7 750.414 130.312   2
   4   0  -7 633.667 123.331   1
  -4   0   7 705.152 146.253   6
  -4   0   7 769.990 128.354   4
  -4   0   6 3500.67 266.213   2
   4   0  -6 3365.22 253.451   1
  -4   0   6 4134.38 347.177   6
  -4   0   6 3280.48 239.877   4
  -4   0   5 4444.08 296.521   2
   4   0  -5 5472.18 296.139   1
  -4   0   5 3859.95 303.446   4
   4   0  -5 4222.32 226.687   7
  -4   0   5 5268.37 382.824   6
  -4   0   5 4430.90 347.507   1
   4   0  -5 5580.63 441.967   5
  -4   0   4 629.480 114.206   2
   4   0  -4 512.475 83.3599   1
   4   0  -4 413.669 81.6322   4
  -4   0   4 650.648 117.008   1
  -4   0   4 408.608 93.6059   4
   4   0  -4 522.756 70.3071   7
   4   0  -4 371.468 108.385   5
  -4   0   3 4.27082 22.0518   1
   4   0  -3 37.4441 31.7992   1
  -4   0   3-12.7113 21.4267   2
  -4   0   3-18.8702 27.5393   4
   4   0  -3 13.7905 22.9925   4
   4   0  -3 18.5919 17.0172   7
   4   0  -3-8.61546 28.6391   5
  -4   0   2 389.262 57.4775   4
   4   0  -2 332.572 55.9851   4
  -4   0   2 392.480 91.2933   2
   4   0  -2 280.399 41.5209   7
   4   0  -2 302.513 99.5902   5
   4   0  -2 248.627 48.4012   1
  -4   0   1 34.7446 31.2304   2
   4   0  -1 66.4615 25.7153   1
  -4   0   1 36.2808 11.8887   4
   4   0  -1 113.378 43.4360   1
   4   0  -1 58.5918 34.4665   4
  -4   0   1 34.4889 15.9991   7
   4   0  -1 28.7141 45.7438   5
  -4   0   0 9690.56 292.262   4
   4   0   0 10221.6 369.912   4
   4   0   0 9304.39 274.955   1
   4   0   0 9073.29 359.116   1
  -4   0   0 9114.85 270.222   7
   4   0   0 9246.24 521.056   5
  -4   0   0 9106.22 451.579   2
  -4   0  -1 21811.8 498.126   4
   4   0   1 20254.0 557.084   4
   4   0   1 20893.8 494.565   1
  -4   0  -1 20422.1 460.267   7
   4   0   1 19237.8 758.595   5
  -4   0  -2 2369.19 185.968   4
   4   0   2 2317.71 209.402   4
  -4   0  -2 2020.36 167.474   7
   4   0   2 2107.14 186.594   1
   4   0   3 3174.42 259.451   4
  -4   0  -3 3126.92 248.024   3
  -4   0  -3 2790.41 215.203   1
   4   0   4 547.175 123.670   4
  -4   0  -4 522.096 107.669   3
  -4   0  -4 336.272 85.3505   1
   4   0   5 11458.5 576.011   4
  -4   0  -5 11007.2 511.052   1
  -4   0  -5 10676.9 517.938   3
   4   0   6 580.020 146.194   4
  -4   0  -6 469.298 117.757   1
  -4   0  -6 406.356 116.370   3
   4   0   7 10216.0 638.643   4
  -4   0  -7 9376.32 546.949   1
  -4   0  -7 10745.6 594.189   3
   4   0   8 1268.75 244.506   4
  -4   0  -8 945.429 190.584   1
  -4   0  -8 993.789 194.544   3
   4   0   9 4382.90 477.276   4
  -4   0  -9 3720.06 394.534   1
  -4   0  -9 3621.76 380.529   3
   4   0  10 879.314 232.403   4
  -4   0 -10 1356.63 252.137   1
   4   0  11 1454.16 327.848   4
  -4   0 -11 1300.54 266.001   1
  -4   1  14 1155.44 291.382   4
   4   1 -14 559.816 207.776   1
  -4   1  13 4955.76 549.059   4
   4   1 -13 5226.15 528.307   1
   4   1 -12 295.129 137.791   1
  -4   1  12 103.515 71.0690   4
  -4   1  11 2796.45 355.270   4
   4   1 -11 2534.14 332.238   1
  -4   1  10 1429.38 230.245   4
   4   1 -10 1314.54 228.563   1
  -4   1   9 30.5629 57.3911   4
  -4   1   9 53.4760 58.1392   6
   4   1  -9 129.332 75.7124   1
  -4   1   8 2682.81 264.583   4
   4   1  -8 3240.17 319.986   1
  -4   1   8 3227.03 261.089   2
  -4   1   8 2808.93 309.949   6
  -4   1   7 1879.85 201.772   4
   4   1  -7 1795.08 222.117   1
  -4   1   7 1587.59 174.181   2
   4   1  -7 1929.29 237.353   4
  -4   1   7 2330.68 270.068   6
  -4   1   6 5786.22 308.845   4
   4   1  -6 6766.09 407.349   1
  -4   1   6 6954.34 356.185   2
  -4   1   6 4514.46 340.089   4
   4   1  -6 6389.94 401.355   4
  -4   1   6 5876.34 407.187   6
  -4   1   6 5288.90 388.619   1
  -4   1   5 8426.88 322.108   4
   4   1  -5 8380.90 424.456   1
  -4   1   5 8283.46 387.655   2
  -4   1   5 7516.38 383.665   4
   4   1  -5 7776.47 409.622   4
  -4   1   5 8603.91 474.234   6
  -4   1   5 6589.84 383.779   1
   4   1  -5 8042.39 530.923   5
  -4   1   4 1657.72 117.659   4
  -4   1   4 1389.52 161.357   2
  -4   1   4 1651.56 152.612   4
   4   1  -4 1743.69 181.845   4
   4   1  -4 1305.63 128.302   7
  -4   1   4 1702.59 162.572   1
  -4   1   4 1416.39 188.055   6
   4   1  -4 2190.69 272.603   5
   4   1  -4 2009.41 199.623   1
  -4   1   3 4045.20 278.345   2
  -4   1   3 3541.22 122.799   4
  -4   1   3 3571.32 157.480   4
   4   1  -3 3929.00 257.390   4
  -4   1   3 3532.93 160.947   1
   4   1  -3 3493.40 194.158   7
   4   1  -3 3530.15 342.095   5
   4   1  -3 3697.02 258.413   1
   4   1  -2 17017.6 536.075   4
   4   1  -2 18770.7 430.958   7
   4   1  -2 18279.1 573.324   1
   4   1  -2 18051.1 749.895   5
  -4   1   2 17424.7 588.138   2
   4   1  -1 1782.45 176.968   4
   4   1  -1 1632.48 131.024   7
   4   1  -1 1762.60 182.177   1
   4   1  -1 1786.41 237.827   5
  -4   1   1 1528.06 180.870   2
   4   1   0 18131.2 583.383   4
   4   1   0 16197.4 568.165   1
   4   1   0 16402.7 434.129   1
   4   1   0 15695.2 699.906   5
  -4   1   0 16247.0 595.545   2
  -4   1   0 16903.3 280.274   7
   4   1   1 104.977 54.0311   4
  -4   1  -1 114.149 35.6284   7
   4   1   1 119.324 43.8545   1
   4   1   1 89.0909 69.0719   5
   4   1   1 150.070 64.3358   1
   4   1   2 2788.20 249.350   4
  -4   1  -2 2726.86 178.722   1
   4   1   3 22522.1 757.275   4
  -4   1  -3 20870.0 570.084   1
   4   1   4 1371.28 197.511   4
  -4   1  -4 1228.92 152.672   1
   4   1   5 3594.19 338.083   4
  -4   1  -5 3041.68 266.462   1
  -4   1  -5 3144.14 295.329   3
   4   1   6 6796.90 496.016   4
  -4   1  -6 7358.29 446.498   1
  -4   1  -6 7205.63 470.146   3
  -4   1  -7 512.320 121.851   1
   4   1   7 424.810 142.557   4
  -4   1  -7 359.409 113.147   3
  -4   1  -8 43.3997 55.6172   1
   4   1   8 366.098 154.493   4
   4   1   9 2456.40 366.873   4
  -4   1  -9 1658.40 266.239   1
  -4   1  -9 2109.36 307.608   3
   4   1  10 4309.66 522.087   4
  -4   1 -10 5368.13 498.844   1
  -4   1 -10 5488.80 508.929   3
  -4   1 -11 67.8378 93.0549   1
   4   1  11 285.604 159.860   4
   4   2 -13 745.791 220.219   1
  -4   2  13 1185.02 279.284   4
  -4   2  12 7940.19 647.535   4
   4   2 -12 8163.67 651.281   1
  -4   2  11 1730.25 280.730   4
   4   2 -11 1616.93 283.007   1
  -4   2  10 6159.69 487.359   4
   4   2 -10 6208.43 518.215   1
  -4   2   9 1425.89 219.036   4
   4   2  -9 1906.83 275.172   1
  -4   2   8 9504.47 506.143   4
   4   2  -8 9696.73 584.478   1
  -4   2   8 9273.90 417.169   2
   4   2  -8 10009.2 601.203   4
  -4   2   8 9571.75 571.624   6
  -4   2   7 54374.9 1084.41   4
   4   2  -7 55830.9 1368.69   1
  -4   2   7 52611.0 944.399   2
  -4   2   7 53639.5 1273.79   6
  -4   2   6 1189.23 142.570   4
   4   2  -6 879.355 168.012   1
  -4   2   6 954.863 124.364   2
   4   2  -6 1076.68 181.211   4
  -4   2   6 1189.16 178.305   6
  -4   2   6 669.738 128.033   4
  -4   2   6 1112.37 167.623   1
   4   2  -5 102.131 74.8729   1
  -4   2   5 81.4052 44.4186   2
  -4   2   5 22.3064 28.1658   4
  -4   2   5 52.8807 43.4634   4
   4   2  -5 79.7344 60.3364   4
  -4   2   5 31.9655 47.0967   6
  -4   2   5 16.4169 36.8464   1
   4   2  -5 42.0225 77.7343   5
  -4   2   4 3755.83 257.346   2
  -4   2   4 4384.33 188.479   4
  -4   2   4 3708.56 197.103   4
   4   2  -4 4454.98 333.829   4
  -4   2   4 3909.34 301.889   6
  -4   2   4 3860.72 213.055   1
   4   2  -4 4461.29 406.163   5
   4   2  -4 3659.35 309.950   1
   4   2  -3 4327.15 316.555   4
   4   2  -3 3828.41 233.474   7
  -4   2   3 4590.56 313.663   6
   4   2  -3 3730.20 312.340   1
   4   2  -3 4427.09 384.265   5
  -4   2   3 4354.39 279.898   2
   4   2  -2 6926.92 406.613   4
   4   2  -2 6592.95 305.123   7
   4   2  -2 6544.91 409.771   1
  -4   2   2 6930.70 365.079   2
   4   2  -1 8407.68 449.157   4
   4   2  -1 7778.95 332.802   7
   4   2  -1 7766.54 453.726   1
   4   2  -1 7995.99 514.854   5
  -4   2   1 7715.36 397.530   2
   4   2   0 21960.3 736.972   4
   4   2   0 21171.8 578.495   7
   4   2   0 21603.5 750.843   1
   4   2   0 19434.9 803.678   5
   4   2   0 21545.1 570.326   1
   4   2   1 5457.10 369.639   4
   4   2   1 5403.64 382.776   1
  -4   2  -1 5583.94 202.710   1
   4   2   1 5516.60 440.056   5
   4   2   2 29926.8 895.253   4
  -4   2  -2 31756.2 596.465   1
   4   2   3 1909.64 237.591   4
  -4   2  -3 2898.57 209.305   1
   4   2   4 8268.20 521.925   4
  -4   2  -4 7202.65 374.987   1
   4   2   5 2552.01 305.807   4
  -4   2  -5 2840.40 258.014   1
   4   2   6 3408.03 372.644   4
  -4   2  -6 3753.59 323.030   1
  -4   2  -6 3594.50 349.140   3
   4   2   7 782.249 188.220   4
  -4   2  -7 357.278 114.320   1
  -4   2  -7 612.620 160.844   3
  -4   2  -8 2208.09 288.014   1
  -4   2  -8 2460.21 319.354   3
   4   2   9 1079.41 255.334   4
  -4   2  -9 1148.28 233.769   3
  -4   2  -9 730.460 183.318   1
   4   2  10 1013.24 268.461   4
  -4   2 -10 922.196 222.223   3
  -4   2 -10 681.311 188.135   1
  -4   2 -11 1404.98 271.956   1
   4   2  11 934.267 276.415   4
  -4   2 -11 1181.70 265.163   3
   4   3 -13 3133.74 445.662   1
  -4   3  12 3383.05 435.765   4
   4   3 -12 3329.26 449.406   1
  -4   3  11 5057.73 488.385   4
   4   3 -11 4087.65 466.653   1
  -4   3  10 2141.90 295.138   4
   4   3 -10 3099.62 390.639   1
   4   3 -10 2401.68 346.261   4
  -4   3   9 4172.38 377.225   4
   4   3  -9 4529.04 448.038   1
   4   3  -9 3517.63 412.463   4
  -4   3   8 8465.36 494.915   4
   4   3  -8 7861.30 579.926   1
   4   3  -8 9174.88 640.988   4
   4   3  -7 8694.00 583.992   1
  -4   3   7 9087.15 462.203   4
  -4   3   7 8399.35 350.475   2
   4   3  -7 8445.28 561.926   4
  -4   3   7 8332.32 508.511   6
  -4   3   6 12686.3 486.127   4
  -4   3   6 12281.3 415.045   2
   4   3  -6 12173.0 646.609   4
  -4   3   6 12022.6 573.770   6
   4   3  -6 13884.1 749.533   5
   4   3  -6 12948.7 686.064   1
  -4   3   5 3365.30 226.515   4
  -4   3   5 3131.48 214.628   2
   4   3  -5 3282.83 330.304   4
  -4   3   5 2799.31 209.106   4
  -4   3   5 3218.36 282.343   6
   4   3  -5 3689.43 376.622   5
   4   3  -5 3075.94 335.461   1
  -4   3   5 2764.83 214.017   1
  -4   3   4 2781.57 209.251   2
  -4   3   4 2529.56 154.844   4
   4   3  -4 2279.88 267.369   4
  -4   3   4 2890.32 158.254   4
  -4   3   4 2482.72 233.615   6
   4   3  -4 3089.84 329.960   1
   4   3  -4 2238.11 289.446   5
  -4   3   4 2561.91 159.357   1
   4   3  -3 12549.7 623.151   4
  -4   3   3 12335.6 498.981   6
   4   3  -3 12292.6 641.668   1
   4   3  -3 10970.8 628.580   5
  -4   3   3 12318.8 457.369   2
   4   3  -2 2344.01 268.735   4
   4   3  -2 1938.11 257.362   1
  -4   3   2 1902.55 187.379   6
   4   3  -2 1753.89 251.232   5
  -4   3   2 2041.62 197.663   2
   4   3  -1 23104.5 847.312   4
   4   3  -1 22818.3 868.212   1
   4   3  -1 22326.1 890.615   5
  -4   3   1 20536.8 644.220   2
   4   3   0 29495.5 951.997   4
   4   3   0 30371.9 1001.04   1
   4   3   0 30172.7 1026.18   5
   4   3   1 10693.6 581.611   4
  -4   3  -1 10950.9 295.345   1
  -4   3  -1 10765.1 284.043   7
   4   3   1 11216.5 646.048   5
   4   3   1 10228.3 583.297   1
   4   3   2 36886.3 1092.46   4
  -4   3  -2 37100.2 668.374   1
   4   3   2 37744.8 1150.14   1
  -4   3  -2 35744.0 648.498   7
   4   3   3 2126.51 272.663   4
  -4   3  -3 2681.39 207.214   1
   4   3   4 877.541 188.517   4
  -4   3  -4 1064.15 146.342   1
   4   3   5 7859.25 565.184   4
  -4   3  -5 8204.54 448.182   1
   4   3   6 3800.45 415.304   4
  -4   3  -6 4151.35 349.232   1
  -4   3  -6 3559.14 356.459   3
   4   3   7 2259.77 335.131   4
  -4   3  -7 2850.93 310.045   1
  -4   3  -7 2310.07 309.379   3
   4   3   8 1734.06 305.343   4
  -4   3  -8 1767.00 277.189   3
  -4   3  -8 1345.18 230.141   1
   4   3   9 738.472 215.725   4
  -4   3  -9 1389.34 249.311   1
  -4   3  -9 1566.56 274.172   3
   4   3  10 1269.63 307.288   4
  -4   3 -10 663.220 183.370   1
  -4   3 -10 977.620 233.224   3
   4   3  11 369.013 170.783   4
  -4   3 -11 99.6393 110.664   3
  -4   3 -11 220.044 115.401   1
   4   4 -13 1342.58 291.222   1
   4   4 -12 3818.69 494.444   1
  -4   4  11 6905.37 589.033   4
   4   4 -11 7139.36 644.399   1
   4   4 -11 7930.08 686.418   4
  -4   4  10 297.967 127.621   4
   4   4 -10 392.721 168.012   1
   4   4 -10 292.362 131.004   4
  -4   4   9 2222.18 280.668   4
   4   4  -9 2224.18 341.615   1
   4   4  -9 1916.81 324.148   4
   4   4  -8 4169.40 450.410   1
  -4   4   8 3826.52 344.754   4
   4   4  -8 3842.80 429.480   4
   4   4  -7 12321.2 753.583   1
  -4   4   7 13794.5 609.974   4
   4   4  -7 13137.6 749.211   4
  -4   4   6 22391.4 703.924   4
  -4   4   6 21164.0 500.144   2
   4   4  -6 23790.4 1007.00   4
   4   4  -6 22200.0 962.097   5
   4   4  -6 22798.3 1029.43   1
  -4   4   5 1223.19 142.048   1
  -4   4   5 1274.71 127.348   2
  -4   4   5 1140.06 144.141   4
   4   4  -5 953.702 201.210   4
  -4   4   5 1059.99 129.936   4
  -4   4   5 1001.18 159.504   6
   4   4  -5 1146.61 213.337   5
   4   4  -5 1089.55 219.729   1
  -4   4   4 2954.04 202.785   2
  -4   4   4 2819.47 173.586   1
  -4   4   4 2530.99 184.645   4
   4   4  -4 2434.44 301.726   4
  -4   4   4 2876.72 173.250   4
  -4   4   4 2875.79 202.983   1
  -4   4   4 2864.62 252.102   6
   4   4  -4 2817.11 344.863   1
   4   4  -4 2860.66 335.615   5
  -4   4   3 20027.6 305.059   1
  -4   4   3 19576.7 334.862   4
   4   4  -3 21314.8 887.027   4
  -4   4   3 20497.5 300.367   4
  -4   4   3 20606.3 367.013   1
  -4   4   3 20811.6 642.859   6
   4   4  -3 20608.8 922.956   1
   4   4  -3 20720.7 882.211   5
  -4   4   3 21362.1 581.014   2
   4   4  -2 9231.58 587.139   4
   4   4  -2 9257.28 611.604   1
  -4   4   2 9461.35 400.954   6
   4   4  -2 9330.19 592.621   5
  -4   4   2 9648.15 419.131   2
   4   4  -1 3587.28 367.060   4
   4   4  -1 3641.19 387.288   1
  -4   4   1 3785.73 241.818   6
   4   4  -1 3768.43 375.571   5
   4   4   0 11801.5 661.456   4
  -4   4   0 12063.5 269.515   1
  -4   4   0 12347.5 267.155   7
   4   4   0 12847.1 708.986   1
  -4   4   0 12030.1 406.082   6
   4   4   0 12715.1 689.776   5
   4   4   1 16876.2 800.645   4
  -4   4  -1 17036.8 419.581   1
   4   4   1 17017.7 826.669   1
  -4   4  -1 15565.8 387.221   7
   4   4   1 17952.7 849.261   5
   4   4   2 1698.32 257.442   4
  -4   4  -2 1292.72 136.470   1
   4   4   2 1702.63 269.748   1
  -4   4  -2 1299.32 131.103   7
   4   4   3 7764.93 556.443   4
  -4   4  -3 7138.18 362.720   1
   4   4   3 7578.51 571.069   1
  -4   4  -4 728.582 129.442   1
   4   4   4 724.771 186.333   4
   4   4   5 3836.33 416.296   4
  -4   4  -5 4356.52 338.784   1
   4   4   6 8034.70 631.456   4
  -4   4  -6 7220.87 473.352   1
   4   4   7 3191.83 418.963   4
  -4   4  -7 3358.59 347.893   1
  -4   4  -7 3245.60 373.208   3
  -4   4  -8 1130.04 212.096   1
   4   4   8 1230.61 278.709   4
  -4   4  -8 1202.97 237.807   3
   4   4   9 936.602 260.861   4
  -4   4  -9 1171.38 235.975   1
  -4   4  -9 1325.27 268.142   3
   4   4  10 2446.92 440.029   4
  -4   4 -10 1790.57 312.848   1
  -4   4 -10 2141.03 347.983   3
  -4   4 -11 556.692 181.830   1
   4   5 -12 183.645 156.184   1
   4   5 -11 1070.88 267.134   1
   4   5 -11 1817.84 349.693   4
  -4   5  10 7974.64 623.103   4
   4   5 -10 8777.02 741.549   1
   4   5 -10 9026.09 760.531   4
   4   5  -9 451.697 167.122   1
  -4   5   9 786.924 195.196   4
   4   5  -9 988.799 258.406   4
   4   5  -8 1982.96 334.021   1
  -4   5   8 1919.94 257.492   4
   4   5  -8 1456.09 274.969   4
  -4   5   7 603.381 136.030   4
   4   5  -7 463.415 171.433   4
  -4   5   6 8073.67 456.998   4
  -4   5   6 7530.71 257.569   2
   4   5  -6 7427.60 595.749   4
   4   5  -6 8776.09 611.930   5
   4   5  -6 8104.64 648.369   1
  -4   5   5 3783.23 193.737   2
  -4   5   5 3845.82 292.386   4
   4   5  -5 3826.24 419.926   4
  -4   5   5 3812.91 304.209   1
   4   5  -5 4011.45 446.577   1
   4   5  -5 3960.43 403.455   5
  -4   5   4 241.776 76.4390   1
  -4   5   4 231.876 56.5267   2
  -4   5   4 368.536 84.6882   4
   4   5  -4 356.161 145.915   4
   4   5  -4 119.459 102.501   1
  -4   5   4 298.266 64.0163   1
   4   5  -4 215.988 120.761   5
  -4   5   3 9910.75 356.961   4
   4   5  -3 8500.47 604.715   4
  -4   5   3 9100.10 275.906   1
  -4   5   3 9591.97 371.109   1
   4   5  -3 9592.49 681.860   1
  -4   5   3 9152.08 418.155   6
   4   5  -3 8883.02 600.523   5
  -4   5   3 10043.2 381.670   2
   4   5  -2 13877.0 781.649   4
  -4   5   2 13331.7 351.451   4
  -4   5   2 13651.7 294.628   1
   4   5  -2 14290.6 830.230   1
  -4   5   2 12977.9 461.807   6
   4   5  -2 15777.2 790.735   5
  -4   5   2 14028.0 381.788   1
  -4   5   2 14739.6 507.338   2
   4   5  -1 16938.1 855.558   4
  -4   5   1 16530.2 384.131   4
  -4   5   1 17068.4 352.033   7
   4   5  -1 15984.6 875.806   1
  -4   5   1 16213.3 478.991   6
  -4   5   1 15481.8 592.923   5
   4   5  -1 15958.8 799.019   5
  -4   5   1 16267.6 338.835   1
  -4   5   1 16412.6 396.605   1
  -4   5   0 462.830 76.7317   1
   4   5   0 537.979 161.784   1
  -4   5   0 512.683 85.6222   4
   4   5   0 377.930 124.357   4
  -4   5   0 516.712 71.8472   7
  -4   5   0 575.250 81.9209   6
   4   5   0 361.614 127.273   5
  -4   5  -1 9389.93 369.185   1
   4   5   1 9649.48 653.376   4
  -4   5  -1 9955.16 381.007   4
   4   5   1 8423.77 630.727   1
  -4   5  -1 8833.52 332.728   7
  -4   5  -1 8842.36 288.724   6
   4   5   1 9180.71 621.217   5
   4   5   2 3196.21 381.153   4
  -4   5  -2 3535.46 250.941   1
  -4   5  -2 4455.12 287.785   4
   4   5   2 4087.69 444.232   1
  -4   5  -2 3927.80 172.222   6
   4   5   3 7625.60 592.479   4
  -4   5  -3 8137.92 418.997   1
   4   5   3 7595.69 612.086   1
  -4   5  -3 7925.57 221.394   6
  -4   5  -4 752.837 139.090   1
   4   5   4 570.703 193.392   4
   4   5   4 696.839 203.540   1
   4   5   5 287.045 129.870   4
  -4   5  -5 455.384 116.901   1
   4   5   6 1678.45 307.600   4
  -4   5  -6 2357.59 283.163   1
  -4   5  -7-39.3762 65.9157   1
   4   5   7-19.6084 119.043   4
  -4   5  -8 1916.67 289.203   1
   4   5   8 1126.52 290.465   4
  -4   5  -8 2054.04 325.051   3
  -4   5  -9 183.334 129.513   1
   4   5   9 270.224 183.920   4
  -4   5  -9 192.057 133.466   3
   4   5  10 3503.20 527.724   4
  -4   5 -10 2484.02 362.440   1
  -4   5 -10 2403.59 370.808   3
  -4   5 -11 102.095 110.781   1
   4   6 -12 848.535 269.838   1
   4   6 -12 439.093 218.446   4
   4   6 -11 7973.02 765.296   1
   4   6 -11 7298.69 730.538   4
   4   6 -10 2427.60 423.974   1
   4   6 -10 3033.88 458.974   4
   4   6  -9 7535.91 704.671   1
   4   6  -9 8582.86 725.999   4
   4   6  -8 954.355 252.181   1
  -4   6   8 895.422 192.177   4
   4   6  -7 1050.50 256.301   1
  -4   6   7 1115.69 200.400   4
   4   6  -7 1540.56 317.926   4
  -4   6   7 1249.28 217.389   1
  -4   6   6 2095.11 270.583   1
  -4   6   6 2264.74 261.768   4
   4   6  -6 2191.86 348.889   4
   4   6  -6 2790.54 425.767   1
   4   6  -6 3086.56 374.174   5
  -4   6   5 2323.14 258.909   4
   4   6  -5 1737.42 314.721   4
  -4   6   5 1828.83 236.664   1
   4   6  -5 2073.75 357.497   1
   4   6  -5 2217.17 316.480   5
  -4   6   4 2279.36 149.498   2
  -4   6   4 2472.96 238.344   4
   4   6  -4 2826.09 406.122   1
   4   6  -4 2477.34 362.927   4
  -4   6   4 2372.85 249.529   1
   4   6  -4 2351.23 319.310   5
  -4   6   3 7516.86 386.382   4
   4   6  -3 7489.12 611.925   4
  -4   6   3 8227.22 422.048   1
   4   6  -3 8811.54 705.138   1
   4   6  -3 8125.01 583.870   5
  -4   6   3 8096.86 327.520   2
   4   6  -2 6848.17 594.087   4
  -4   6   2 7433.61 353.638   4
   4   6  -2 8157.27 682.994   1
  -4   6   2 7476.65 378.832   1
   4   6  -2 8210.89 588.817   5
  -4   6   2 8676.00 378.731   2
   4   6  -1 338.667 166.761   1
   4   6  -1 574.550 176.829   4
  -4   6   1 445.011 87.5378   4
  -4   6   1 255.844 60.1967   7
   4   6  -1 428.181 150.446   5
  -4   6   1 534.062 101.996   1
   4   6   0 7545.61 616.977   4
  -4   6   0 7704.40 358.430   4
   4   6   0 8239.78 671.377   1
   4   6   0 6503.60 524.478   5
  -4   6   0 6920.50 355.864   1
  -4   6  -1 2080.48 202.703   1
   4   6   1 2418.66 344.535   4
  -4   6  -1 1984.14 198.287   4
   4   6   1 2122.62 342.305   1
   4   6   1 1896.55 304.503   5
  -4   6  -2 26221.1 783.004   1
   4   6   2 26464.1 1181.53   4
   4   6   2 25079.7 1178.83   1
   4   6   3 909.680 238.760   1
  -4   6  -3 794.548 154.617   4
   4   6   3 733.854 198.544   4
  -4   6  -3 645.374 133.253   1
   4   6   4 20438.6 1046.19   4
  -4   6  -4 23372.1 826.199   1
   4   6   4 20502.9 1092.80   1
   4   6   5 959.841 246.928   4
  -4   6  -5 801.823 167.280   1
   4   6   5 1095.51 260.486   1
   4   6   6 2023.07 359.957   4
  -4   6  -6 2037.36 279.409   1
  -4   6  -7 1250.37 232.855   1
   4   6   7 1565.84 332.097   4
  -4   6  -8 1800.69 287.658   1
   4   6   8 1701.40 362.444   4
  -4   6  -8 2454.82 359.244   3
  -4   6  -9 1119.53 240.084   1
   4   6   9 957.615 269.054   4
  -4   6  -9 1054.94 257.172   3
  -4   6 -10 2548.13 378.542   1
   4   7 -11 68.3688 143.561   1
   4   7 -11 267.156 220.552   4
   4   7 -10 1338.83 342.448   1
   4   7 -10 992.640 279.340   4
   4   7  -9 3016.83 473.677   1
   4   7  -9 2362.42 404.932   4
   4   7  -8 5809.98 620.831   4
   4   7  -8 5535.78 636.754   1
   4   7  -7 4927.77 568.820   4
   4   7  -7 3839.99 520.927   1
  -4   7   6 3387.59 361.434   4
   4   7  -6 3339.82 460.171   4
  -4   7   6 3149.65 351.404   1
   4   7  -6 3447.01 482.156   1
   4   7  -6 4004.64 426.190   5
  -4   7   5 5689.48 431.647   4
  -4   7   5 5894.03 451.447   1
   4   7  -5 5191.47 600.855   1
   4   7  -5 5328.12 490.078   5
  -4   7   4 9345.35 522.209   4
   4   7  -4 9725.79 754.660   4
  -4   7   4 10805.6 595.008   1
   4   7  -4 9912.93 811.872   1
   4   7  -4 10980.6 704.589   5
  -4   7   3 2058.62 235.000   4
   4   7  -3 2023.30 341.190   4
   4   7  -3 1689.48 326.208   1
  -4   7   3 1767.97 229.852   1
   4   7  -3 1742.56 273.125   5
  -4   7   3 2282.21 160.970   2
   4   7  -2 5786.01 583.551   4
  -4   7   2 4966.78 346.212   4
   4   7  -2 5511.49 594.815   1
  -4   7   2 5189.37 375.563   1
   4   7  -2 4947.87 469.153   5
  -4   7   2 5098.17 285.923   2
   4   7  -1 20019.7 1068.02   4
  -4   7   1 20657.1 690.278   4
   4   7  -1 20500.9 1146.85   1
   4   7  -1 20172.5 948.239   5
  -4   7   1 20135.7 716.721   1
  -4   7   0 279.594 97.2431   1
   4   7   0 381.589 159.990   1
   4   7   0 195.811 122.621   4
  -4   7   0 356.187 94.5468   4
   4   7   0 333.685 146.471   5
  -4   7  -1 2760.16 270.354   1
   4   7   1 2065.56 360.945   4
  -4   7  -1 2421.68 244.864   4
   4   7   1 3166.94 446.115   1
   4   7   1 2666.85 365.806   5
  -4   7  -2 23062.7 807.753   1
   4   7   2 23848.8 1186.90   4
  -4   7  -2 24458.2 815.576   4
   4   7   2 21843.5 1170.21   1
   4   7   2 22560.4 1058.62   5
  -4   7  -3 10105.7 565.239   1
   4   7   3 11487.8 836.761   4
  -4   7  -3 12342.3 656.251   4
   4   7   3 9869.90 800.405   1
   4   7   4 1499.73 331.753   1
  -4   7  -4 1401.50 219.506   1
  -4   7  -4 1124.34 197.875   4
   4   7   4 1467.14 301.622   4
   4   7   5 857.126 238.973   1
   4   7   5 599.111 203.077   4
  -4   7  -5 825.386 181.709   1
  -4   7  -5 717.901 178.986   4
   4   7   6 484.425 200.235   4
  -4   7  -6 503.153 154.889   1
   4   7   6 685.747 253.730   1
   4   7   7 2547.26 441.341   4
  -4   7  -7 2121.06 312.272   1
   4   7   7 1267.33 327.020   1
  -4   7  -8 93.1825 69.4879   1
   4   7   8 48.2538 91.0787   4
  -4   7  -8-110.990 113.967   3
   4   7   8 243.984 197.995   1
   4   7   9 5799.11 711.807   4
  -4   7  -9 5117.98 529.360   1
  -4   7  -9 6409.37 615.241   3
  -4   7 -10 1742.99 333.028   1
   4   8 -10 29.7549 115.597   1
   4   8 -10 436.299 221.860   4
   4   8  -9 105.775 147.446   1
   4   8  -9 6.68130 88.7640   4
   4   8  -8 3513.83 516.688   4
   4   8  -8 4539.16 609.009   1
   4   8  -7 442.484 223.224   1
   4   8  -7 818.718 266.742   4
   4   8  -6 445.108 188.874   4
   4   8  -6 653.557 242.305   1
   4   8  -6 1024.22 236.825   5
   4   8  -5 63.5100 121.724   4
   4   8  -5-51.2882 97.1002   1
   4   8  -5 88.6847 102.882   5
   4   8  -4 3793.86 506.220   4
   4   8  -4 3138.67 487.820   1
   4   8  -4 3650.58 411.790   5
  -4   8   3 1902.23 258.607   4
   4   8  -3 2277.77 385.383   4
   4   8  -3 1898.02 367.653   1
  -4   8   3 1338.73 234.526   1
   4   8  -3 2428.27 336.671   5
   4   8  -2 5337.63 586.417   4
  -4   8   2 4319.74 369.905   4
   4   8  -2 5245.95 628.682   1
  -4   8   2 3998.70 369.829   1
   4   8  -2 4216.87 448.502   5
   4   8  -1 7253.08 690.483   4
  -4   8   1 7620.00 472.706   4
   4   8  -1 7241.15 728.752   1
   4   8  -1 7339.88 590.940   5
  -4   8   1 7619.11 500.180   1
  -4   8   0 557.037 135.105   1
   4   8   0 629.544 209.217   1
  -4   8   0 676.235 144.849   4
   4   8   0 1052.97 284.278   4
   4   8   0 893.448 227.809   5
   4   8   1 10478.3 829.015   4
  -4   8  -1 10954.0 578.066   4
   4   8   1 9841.65 832.277   1
   4   8   1 10761.8 731.401   5
  -4   8  -1 9838.65 573.626   1
   4   8   2 346.569 152.789   1
  -4   8  -2 425.043 135.320   1
   4   8   2 433.565 190.357   4
  -4   8  -2 234.841 93.9572   4
   4   8   2 351.564 140.662   5
  -4   8  -3 1477.40 238.438   1
   4   8   3 1045.95 302.103   1
   4   8   3 1998.60 378.179   4
  -4   8  -3 1197.06 217.568   4
   4   8   4 878.084 266.204   1
  -4   8  -4 1075.39 213.298   1
   4   8   4 1243.35 308.918   4
  -4   8  -4 940.294 200.511   4
   4   8   5 4028.02 551.053   4
  -4   8  -5 4697.96 442.711   1
  -4   8  -5 4147.97 420.123   4
   4   8   5 4281.08 592.223   1
   4   8   6 1388.81 357.939   1
   4   8   6 1907.65 403.773   4
  -4   8  -6 1417.48 257.709   1
   4   8   7 898.525 294.770   1
   4   8   7 1329.54 344.909   4
  -4   8  -7 1480.37 276.854   1
   4   8   8 6516.28 761.179   4
  -4   8  -8 6321.30 590.986   1
   4   8   8 6549.88 786.879   1
  -4   8  -9 927.886 242.485   1
   4   9  -9 1311.09 347.308   1
   4   9  -9 2321.07 450.737   4
   4   9  -8 583.526 272.447   1
   4   9  -8-36.1089 134.633   4
   4   9  -7 1037.64 315.283   1
   4   9  -7 1167.86 340.357   4
   4   9  -6 3340.92 518.943   4
   4   9  -6 3053.84 528.459   1
   4   9  -6 2827.59 391.375   5
   4   9  -5 30.8712 141.318   1
   4   9  -5 253.126 131.424   5
   4   9  -4 1487.60 345.234   4
   4   9  -4 1611.58 375.277   1
   4   9  -4 2015.60 317.573   5
   4   9  -3 1341.65 330.683   4
   4   9  -3 1244.25 325.307   1
   4   9  -2 2704.25 461.619   4
   4   9  -2 2268.93 445.664   1
   4   9  -2 2176.41 330.883   5
   4   9  -1 1207.43 317.330   1
   4   9  -1 1068.70 298.879   4
   4   9  -1 591.480 191.928   5
   4   9   0 294.259 148.655   1
   4   9   0 143.433 94.5602   4
  -4   9   0 443.511 153.626   4
   4   9   0 394.613 148.172   5
  -4   9   0 254.142 116.268   1
   4   9   1 4854.18 602.050   4
  -4   9  -1 4616.98 418.387   4
   4   9   1 4372.10 483.755   5
  -4   9  -1 5191.71 473.250   1
   4   9   1 4738.59 618.960   1
  -4   9  -2 1252.60 228.535   1
   4   9   2 1191.04 302.958   1
  -4   9  -2 1539.79 239.508   4
   4   9   2 681.685 247.206   4
   4   9   2 1094.20 270.625   5
   4   9   3 790.812 260.617   1
  -4   9  -3 837.015 199.400   1
   4   9   3 370.190 194.979   4
  -4   9  -3 657.719 174.494   4
  -4   9  -4 3284.45 386.735   1
   4   9   4 3980.73 572.839   4
  -4   9  -4 4113.37 442.242   4
   4   9   4 3280.23 530.185   1
  -4   9  -5 3388.73 410.954   1
   4   9   5 3565.21 556.799   4
  -4   9  -5 3568.96 419.187   4
   4   9   5 4002.19 593.453   1
   4   9   6 356.104 234.611   1
   4   9   6 308.639 201.548   4
  -4   9  -6 192.814 125.757   1
  -4   9  -6 276.241 139.183   4
   4   9   7 164.360 176.067   1
   4   9   7 288.637 226.563   4
  -4   9  -7 94.5846 125.756   1
   4  10  -8 268.015 221.064   1
   4  10  -8 426.070 248.122   4
   4  10  -7 7697.85 835.412   4
   4  10  -7 8625.18 920.489   1
   4  10  -6 1148.55 333.107   4
   4  10  -6 1494.16 293.534   5
   4  10  -5 8068.78 819.837   4
   4  10  -5 9968.00 1001.68   1
   4  10  -5 9518.64 695.469   5
   4  10  -4 3509.08 547.059   4
   4  10  -4 4610.26 664.230   1
   4  10  -4 3526.07 427.463   5
   4  10  -3 1939.63 419.143   4
   4  10  -3 2363.66 473.855   1
   4  10  -3 1799.78 304.362   5
   4  10  -2-57.7416 143.196   1
   4  10  -2 212.872 161.724   4
   4  10  -2 310.896 139.760   5
   4  10  -1 646.953 253.485   1
   4  10  -1 246.489 213.340   4
   4  10  -1 445.154 158.843   5
   4  10   0 3209.15 518.107   4
   4  10   0 2281.40 457.627   1
   4  10   0 2980.62 405.028   5
   4  10   1 537.453 245.903   1
   4  10   1 974.745 311.953   4
   4  10   1 648.738 214.070   5
   4  10   2 1978.83 430.780   1
   4  10   2 1524.81 372.855   4
   4  10   2 1239.30 273.546   5
   4  10   3 2211.88 461.975   1
   4  10   3 1788.07 406.635   4
   4  10   3 1224.10 283.662   5
   4  10   4 282.047 205.862   1
   4  10   4 108.602 168.919   4
   4  10   5 1008.81 325.224   1
   4  10   5 1325.12 344.834   4
   4  10   6 281.992 213.435   1
   4  10   6 166.997 185.119   4
   4  11  -6 2509.75 501.585   4
   4  11  -6 2370.62 510.392   1
   4  11  -5 2190.59 458.392   4
   4  11  -5 1133.95 390.212   1
   4  11  -4 2004.06 458.004   4
   4  11  -4 2556.12 532.751   1
   4  11  -3 1343.00 351.731   4
   4  11  -3 2486.06 533.346   1
   4  11  -3 1692.88 316.635   5
   4  11  -2 2157.30 433.436   4
   4  11  -2 1776.86 457.413   1
   4  11  -2 1854.37 341.228   5
   4  11  -1 547.288 282.593   1
   4  11  -1 480.745 256.022   4
   4  11  -1 393.627 161.753   5
   4  11   0 1208.79 350.007   1
   4  11   0 1729.57 415.395   4
   4  11   0 1348.69 294.310   5
   4  11   1 1270.49 387.882   1
   4  11   1 1456.71 367.785   4
   4  11   1 1568.29 321.764   5
   4  11   2 1099.99 354.553   1
   4  11   2 1324.29 385.295   4
   4  11   2 1343.80 304.936   5
   4  11   3 2318.30 480.906   1
   4  11   3 2169.28 474.561   4
   4  11   3 2683.91 431.577   5
   4  11   4 7628.94 870.314   4
   4  11   4 6437.36 673.325   5
   4  12  -3 823.619 293.961   4
   4  12  -3 1318.12 411.955   1
   4  12  -2 924.190 354.113   1
   4  12  -2 1242.70 341.633   4
   4  12  -1 4141.93 665.449   4
   4  12  -1 3176.30 614.779   1
   4  12   0 1348.30 421.004   1
   4  12   0 1363.51 373.365   4
   4  12   1-24.3730 195.370   1
   4  12   1 217.446 199.791   4
   4  12   2 803.965 254.632   5
   4  12   3 2950.08 455.522   5
   4  12   4 428.124 212.738   5
  -5 -12   3 3848.04 418.672   2
  -5 -12   2 274.257 131.237   2
  -5 -12   1 1952.07 289.695   2
  -5 -11   5 2307.91 329.943   2
  -5 -11   5 2939.46 422.875   7
  -5 -11   4 4232.30 429.394   2
  -5 -11   4 4761.48 534.887   7
  -5 -11   3 79.2163 59.7503   2
  -5 -11   3-61.6499 85.6152   7
  -5 -11   2 2369.33 317.551   2
  -5 -11   2 2393.47 364.906   7
  -5 -11   1 5471.63 463.609   2
  -5 -11   1 5817.12 578.221   7
  -5 -11   0 1152.80 215.755   2
  -5 -11   0 2225.84 365.284   7
  -5 -11  -1 557.969 150.476   2
  -5 -11  -1 263.825 156.753   7
  -5 -11  -2 490.737 190.633   7
  -5 -10   7 820.353 219.413   2
  -5 -10   6 7858.52 602.676   2
  -5 -10   6 6561.27 607.536   7
  -5 -10   5 330.995 129.396   2
  -5 -10   5 433.000 168.020   7
  -5 -10   4 4787.22 451.796   2
  -5 -10   4 5328.10 541.117   7
  -5 -10   3 3221.41 358.247   2
  -5 -10   3 1958.89 321.442   7
  -5 -10   2 772.984 196.990   2
  -5 -10   2 421.166 166.679   7
  -5 -10   1 1065.23 202.468   2
  -5 -10   1 1079.51 233.715   7
  -5 -10   0 279.325 108.184   2
  -5 -10   0 73.6498 89.6293   7
  -5 -10  -1 3290.38 344.628   2
  -5 -10  -1 4226.93 463.480   7
  -5 -10  -2 3660.13 366.095   2
  -5 -10  -2 3231.28 410.976   7
  -5 -10  -3 4007.88 388.176   2
  -5 -10  -3 4373.76 489.633   7
  -5 -10  -4 2693.35 388.525   7
  -5  -9   9-69.9557 126.540   6
  -5  -9   8 682.355 205.978   2
  -5  -9   8 912.591 236.811   6
  -5  -9   7-27.5832 61.3971   2
  -5  -9   6 1081.46 211.315   2
  -5  -9   6 1251.72 263.510   7
  -5  -9   5 3698.74 387.342   2
  -5  -9   5 3720.10 427.538   7
  -5  -9   4 2956.45 344.035   2
  -5  -9   4 3376.91 402.023   7
  -5  -9   3 1136.05 208.549   2
  -5  -9   3 1085.36 232.993   7
  -5  -9   2 2786.63 320.518   2
  -5  -9   2 2588.16 347.576   7
  -5  -9   1 796.668 179.042   2
  -5  -9   1 400.649 142.335   7
  -5  -9   0 3556.01 364.434   2
  -5  -9   0 3141.11 377.371   7
  -5  -9  -1 922.031 191.138   2
  -5  -9  -1 793.920 199.631   7
  -5  -9  -2 2680.56 318.098   2
  -5  -9  -2 3498.89 414.848   7
  -5  -9  -3 570.197 148.434   2
  -5  -9  -3 1240.34 248.450   7
  -5  -9  -4 527.482 145.206   2
  -5  -9  -4 337.947 150.474   7
  -5  -9  -5 1086.26 237.114   7
  -5  -9  -6 151.656 130.046   7
  -5  -8  10 601.647 185.123   6
  -5  -8   9 1515.37 289.451   2
  -5  -8   9 1337.10 270.402   6
  -5  -8   8 699.441 198.005   2
  -5  -8   8 1013.27 232.253   6
  -5  -8   7 286.326 119.519   2
  -5  -8   6 1290.91 238.255   2
  -5  -8   6 1358.70 253.455   7
  -5  -8   5 791.603 180.726   2
  -5  -8   5 681.279 183.400   7
  -5  -8   4 1003.12 215.003   2
  -5  -8   4 1167.74 233.898   7
  -5  -8   3 2433.30 303.387   2
  -5  -8   3 2518.50 326.606   7
  -5  -8   2 487.317 162.375   2
  -5  -8   2 55.2182 54.2315   7
  -5  -8   1 1438.79 229.348   2
  -5  -8   1 1211.49 222.417   7
  -5  -8   0 2887.15 319.476   2
  -5  -8   0 2772.00 339.101   7
  -5  -8  -1 76.9188 72.1097   2
  -5  -8  -1 273.319 120.356   7
  -5  -8  -2 1029.40 192.291   2
  -5  -8  -2 542.882 155.330   7
  -5  -8  -3 166.087 81.7262   2
  -5  -8  -3 520.485 167.422   7
  -5  -8  -4 2674.17 316.184   2
  -5  -8  -4 3044.10 371.328   7
  -5  -8  -5 113.833 78.1482   2
  -5  -8  -5 180.628 115.664   7
  -5  -8  -6 930.234 220.677   2
  -5  -8  -6 1927.35 322.482   7
  -5  -8  -7 238.519 144.381   7
  -5  -7  11 88.4188 117.393   6
  -5  -7  10 1709.21 305.722   6
  -5  -7   9 621.924 185.131   2
  -5  -7   9 314.337 134.375   6
  -5  -7   8 2674.45 347.672   2
  -5  -7   8 2931.24 380.190   6
  -5  -7   7 2955.92 340.731   2
  -5  -7   6 1027.54 205.357   2
  -5  -7   5 2193.45 280.646   2
  -5  -7   5 1973.35 280.877   7
  -5  -7   4 563.693 148.024   2
  -5  -7   4 436.531 120.456   7
  -5  -7   3 1698.71 243.407   2
  -5  -7   3 1612.38 241.302   7
  -5  -7   2 1597.29 235.215   2
  -5  -7   2 1209.99 216.162   7
  -5  -7   1 8368.36 537.909   2
  -5  -7   1 8024.55 536.248   7
  -5  -7   0 2584.87 300.482   2
  -5  -7   0 2345.21 294.485   7
  -5  -7  -1 947.550 192.070   2
  -5  -7  -1 972.611 198.189   7
  -5  -7  -2 1423.73 228.709   2
  -5  -7  -2 1254.55 218.914   7
  -5  -7  -3 433.416 137.137   2
  -5  -7  -3 276.427 117.353   7
  -5  -7  -4 142.966 69.9258   2
  -5  -7  -4 157.349 112.676   7
  -5  -7  -5 1876.25 291.896   7
  -5  -7  -5 1753.62 266.670   2
  -5  -7  -6 539.318 155.789   2
  -5  -7  -6 847.745 209.987   7
  -5  -7  -7 1724.65 298.086   7
  -5  -7  -7 1597.83 268.856   2
  -5  -7  -8 561.743 192.915   7
  -5  -6  11 391.564 151.773   6
  -5  -6  10 1963.48 326.650   6
  -5  -6   9 2231.72 309.454   2
  -5  -6   9 2314.76 351.195   6
  -5  -6   8 1416.61 239.814   2
  -5  -6   8 1809.35 301.496   6
  -5  -6   7 352.321 131.129   2
  -5  -6   6 2257.19 281.644   2
  -5  -6   5 2145.07 272.228   2
  -5  -6   5 2161.58 270.872   7
  -5  -6   4 6864.73 479.616   2
  -5  -6   4 7968.24 512.849   7
  -5  -6   3 7069.22 487.089   2
  -5  -6   3 7907.69 498.146   7
  -5  -6   2 5865.60 437.227   2
  -5  -6   2 6563.55 454.140   7
  -5  -6   1 9470.26 557.195   2
  -5  -6   1 10396.1 570.477   7
  -5  -6   0 8209.49 521.984   2
  -5  -6   0 8587.21 523.829   7
  -5  -6  -1 1470.91 235.503   2
  -5  -6  -1 1298.78 208.549   7
   5  -6   1 1578.03 168.357   5
  -5  -6  -2 8341.42 531.841   7
  -5  -6  -2 9245.98 562.299   2
   5  -6   3 3716.65 273.052   4
  -5  -6  -3 4369.73 395.935   7
  -5  -6  -3 3789.58 370.095   2
   5  -6   4 2859.67 260.964   4
  -5  -6  -4 2577.87 309.004   7
  -5  -6  -4 3284.23 345.312   2
   5  -6   5 1502.35 212.759   4
  -5  -6  -5 1067.07 214.230   7
  -5  -6  -5 1420.59 240.143   2
   5  -6   6 2878.57 316.376   4
  -5  -6  -6 2542.32 338.829   7
  -5  -6  -6 2859.98 341.835   2
  -5  -6  -7 502.512 161.283   2
   5  -6   7 168.173 97.4404   4
  -5  -6  -7 339.346 131.722   7
  -5  -6  -8 178.920 151.705   2
  -5  -6  -8 136.954 93.0897   7
  -5  -6  -9 1419.50 274.898   2
  -5  -6  -9 1087.15 250.340   7
  -5  -5  12 1791.96 350.500   4
  -5  -5  12 1660.95 315.574   6
  -5  -5  11 2713.67 397.481   6
  -5  -5  10 1267.49 246.106   2
  -5  -5  10 1082.06 244.000   6
  -5  -5   9 339.001 131.495   2
  -5  -5   9 516.944 175.870   6
  -5  -5   8 663.504 163.310   2
  -5  -5   8 1248.56 243.916   6
  -5  -5   7 273.082 122.015   2
  -5  -5   6 299.208 111.358   2
  -5  -5   5 1428.95 221.879   2
  -5  -5   5 1349.17 204.796   7
  -5  -5   4 4439.23 378.303   2
  -5  -5   4 4628.21 362.115   7
  -5  -5   3 11921.5 608.352   2
  -5  -5   3 10113.5 523.989   7
  -5  -5   2 14724.9 686.194   2
  -5  -5   2 15982.1 654.526   7
  -5  -5   1 5781.14 430.051   2
  -5  -5   1 5379.19 382.145   7
   5  -5  -1 5339.35 358.679   5
  -5  -5   0 4901.56 399.458   2
  -5  -5   0 4625.92 358.829   7
   5  -5   0 4602.16 325.868   5
   5  -5   1 6845.00 246.424   4
  -5  -5  -1 7299.08 458.694   7
   5  -5   1 7964.54 432.406   5
  -5  -5  -1 7357.78 491.427   2
   5  -5   2 3411.85 217.155   4
  -5  -5  -2 4044.61 346.619   7
   5  -5   2 3097.67 279.443   5
  -5  -5  -2 3834.97 360.999   2
   5  -5   3 5701.65 322.866   4
  -5  -5  -3 5363.33 413.540   7
   5  -5   3 5530.92 382.019   5
  -5  -5  -3 6067.05 463.332   2
   5  -5   4 2828.68 256.716   4
  -5  -5  -4 2602.97 301.171   7
   5  -5   4 2525.08 270.864   5
  -5  -5  -4 2383.35 297.104   2
   5  -5   5 8186.09 479.899   4
  -5  -5  -5 7252.64 517.951   7
  -5  -5  -5 6940.48 523.585   2
  -5  -5  -6 329.868 126.322   2
   5  -5   6 490.477 139.635   4
  -5  -5  -6 361.690 129.211   7
   5  -5   7 2957.08 336.702   4
  -5  -5  -7 3035.77 363.406   7
  -5  -5  -7 2747.08 350.677   2
   5  -5   8 1232.14 248.177   4
  -5  -5  -8 1311.11 262.408   7
  -5  -5  -8 1512.22 265.341   2
   5  -5   9 1931.48 322.458   4
  -5  -5  -9 1175.37 249.710   2
  -5  -5  -9 2097.52 330.911   7
  -5  -5 -10 1780.28 310.797   2
  -5  -4  12 1077.16 256.576   4
  -5  -4  12 1054.72 258.829   6
  -5  -4  11 2695.07 379.670   6
  -5  -4  10 3439.05 384.963   2
  -5  -4  10 3503.34 428.439   6
  -5  -4   9 883.409 189.438   2
  -5  -4   9 611.350 173.016   6
  -5  -4   8 1505.05 230.340   2
  -5  -4   8 1041.97 217.659   6
  -5  -4   7 1809.23 246.541   2
  -5  -4   6 1822.64 243.202   2
  -5  -4   5 12529.4 627.043   2
  -5  -4   4 4746.57 382.553   2
  -5  -4   4 4772.54 340.407   7
  -5  -4   3 17743.6 732.011   2
  -5  -4   3 19695.9 674.438   7
  -5  -4   2 5675.10 416.783   2
  -5  -4   2 5658.09 360.877   7
   5  -4  -2 5867.01 411.092   5
  -5  -4   1 2073.36 257.495   2
  -5  -4   1 1881.93 208.553   7
   5  -4  -1 2039.83 239.346   5
  -5  -4   0 4070.33 311.992   7
   5  -4   0 3059.47 290.940   5
  -5  -4   0 3605.62 336.285   2
   5  -4   1 17563.0 370.619   4
  -5  -4  -1 18120.7 674.238   7
   5  -4   1 18302.2 709.587   5
  -5  -4  -1 16444.0 730.784   2
   5  -4   2 13703.2 426.188   4
  -5  -4  -2 14559.2 617.317   7
   5  -4   2 15576.0 657.212   5
  -5  -4  -2 14854.6 702.973   2
   5  -4   3 1080.53 143.605   4
  -5  -4  -3 1112.82 178.524   7
  -5  -4  -3 868.862 184.570   2
   5  -4   3 908.673 167.023   5
  -5  -4  -4 199.755 96.0129   2
   5  -4   4 317.194 93.6544   4
  -5  -4  -4 316.543 99.1308   7
   5  -4   4 143.178 69.3383   5
  -5  -4  -5 66.9694 49.8704   2
   5  -4   5 146.093 84.0785   4
  -5  -4  -5 76.0122 43.6695   7
   5  -4   5 79.9952 71.8322   5
   5  -4   6 5887.40 441.069   4
  -5  -4  -6 5512.72 453.650   7
  -5  -4  -6 6011.79 498.197   2
   5  -4   7 1918.12 280.301   4
  -5  -4  -7 1820.02 272.610   7
   5  -4   8 6686.04 552.387   4
  -5  -4  -8 6714.24 550.864   7
   5  -4   9 3321.84 417.517   4
  -5  -4  -9 3715.23 436.491   7
   5  -4  10 1570.04 321.256   4
  -5  -4 -10 1413.18 292.987   7
  -5  -3  13 88.4897 91.3602   4
  -5  -3  12 7652.28 665.536   6
  -5  -3  12 6866.63 611.302   4
  -5  -3  11 10094.2 726.994   6
  -5  -3  11 9805.41 685.286   4
  -5  -3  10 889.137 205.331   2
  -5  -3  10 706.584 182.255   6
  -5  -3   9 3908.57 371.198   2
  -5  -3   9 4983.69 475.379   6
  -5  -3   8 3304.12 329.584   2
  -5  -3   8 3244.37 387.999   6
  -5  -3   7 9130.99 535.065   2
   5  -3  -7 9116.55 371.397   7
   5  -3  -7 8290.43 347.746   1
  -5  -3   6 8367.40 506.624   2
   5  -3  -6 8087.84 281.852   7
  -5  -3   5 6050.31 424.572   2
  -5  -3   4 9853.20 532.180   2
  -5  -3   4 9680.31 444.498   7
  -5  -3   3 121.582 71.4186   2
  -5  -3   3 227.425 64.2882   7
   5  -3  -3 90.3959 66.3986   5
  -5  -3   2 2279.86 264.929   2
   5  -3  -2 2053.64 260.949   5
  -5  -3   1 4426.34 290.875   7
   5  -3  -1 4220.12 361.389   5
  -5  -3   1 4595.66 364.946   2
  -5  -3   0 50403.1 1006.61   7
   5  -3   0 49871.0 1210.75   5
  -5  -3   0 50421.7 1244.50   2
   5  -3   1 7965.38 259.617   4
   5  -3   1 7438.51 281.848   4
  -5  -3  -1 8044.05 416.301   7
   5  -3   1 7005.45 285.986   1
   5  -3   1 8461.71 510.060   5
  -5  -3  -1 7250.70 479.930   2
   5  -3   2 6968.08 311.334   4
  -5  -3  -2 7053.30 402.958   7
   5  -3   2 7914.26 502.381   5
  -5  -3  -2 6501.60 462.701   2
   5  -3   3 1183.79 149.042   4
  -5  -3  -3 1217.81 180.660   7
   5  -3   3 1119.66 200.911   5
  -5  -3  -3 1035.13 190.749   2
   5  -3   4 2761.83 253.953   4
  -5  -3  -4 3246.73 302.667   7
   5  -3   4 3305.32 348.872   5
  -5  -3  -4 2514.74 304.278   2
   5  -3   5 3628.29 324.209   4
  -5  -3  -5 3730.67 342.450   7
   5  -3   6 643.806 157.750   4
  -5  -3  -6 642.689 153.602   7
   5  -3   7 2399.09 306.852   4
  -5  -3  -7 2018.75 281.163   7
   5  -3   8 1896.39 290.957   4
  -5  -3  -8 1419.92 256.921   7
   5  -3   9 4262.21 474.130   4
  -5  -3  -9 4272.26 467.303   7
   5  -3  10 231.896 139.278   4
  -5  -3 -10 356.743 159.898   7
   5  -3  11 962.331 283.420   4
  -5  -2  12 7360.18 621.467   4
  -5  -2  11 301.418 119.634   4
  -5  -2  11 536.818 160.598   6
  -5  -2  10 5049.54 427.895   2
  -5  -2  10 5324.04 511.739   6
  -5  -2  10 5646.75 474.004   4
  -5  -2   9 2410.53 287.431   2
   5  -2  -9 2175.00 233.827   1
  -5  -2   9 2948.31 369.000   6
  -5  -2   9 2851.44 317.105   4
  -5  -2   8 10694.1 568.831   2
   5  -2  -8 9575.12 442.631   1
  -5  -2   8 10963.0 678.534   6
  -5  -2   7 2234.36 259.952   2
   5  -2  -7 1673.46 165.008   1
  -5  -2   7 2250.54 300.863   6
  -5  -2   6 39792.5 1062.11   2
   5  -2  -6 40236.1 674.684   1
  -5  -2   5 3943.50 334.947   2
   5  -2  -5 3851.11 151.590   7
   5  -2  -5 3695.85 147.297   1
  -5  -2   4 22003.0 429.517   3
   5  -2  -4 23367.0 920.601   5
  -5  -2   3 3696.80 320.415   2
  -5  -2   3 3924.84 245.418   7
   5  -2  -3 3950.84 371.996   5
  -5  -2   2 1277.59 191.728   2
  -5  -2   2 1522.61 193.811   4
  -5  -2   2 1755.26 159.608   7
   5  -2  -2 1775.99 249.508   5
  -5  -2   1 1329.00 178.531   4
  -5  -2   1 1254.62 137.797   7
   5  -2  -1 1564.15 230.200   5
  -5  -2   1 1154.50 189.078   2
  -5  -2   0 1609.31 163.049   7
  -5  -2   0 1997.27 133.659   3
   5  -2   0 1599.96 234.613   5
  -5  -2   0 2033.16 247.192   2
   5  -2   1 33797.2 597.586   4
   5  -2   1 33286.4 610.714   4
  -5  -2  -1 32655.0 770.294   7
  -5  -2  -1 32001.9 610.883   3
   5  -2   1 34777.1 1079.83   5
   5  -2   1 33569.7 640.970   1
  -5  -2  -1 31863.8 994.072   2
   5  -2   2 3651.51 239.088   4
   5  -2   2 4060.66 276.592   4
  -5  -2  -2 3630.70 274.283   7
  -5  -2  -2 3496.16 225.126   3
   5  -2   2 3695.99 364.101   5
  -5  -2  -2 3928.36 356.783   2
   5  -2   2 4104.63 287.410   1
   5  -2   3 1173.85 155.476   4
  -5  -2  -3 1354.42 176.369   7
  -5  -2  -3 1288.11 152.497   3
   5  -2   3 1224.28 213.161   5
  -5  -2  -3 1250.62 203.725   2
   5  -2   4 984.014 157.141   4
  -5  -2  -4 1153.47 173.824   7
  -5  -2  -4 1443.07 175.400   3
   5  -2   4 1376.84 233.155   5
   5  -2   5 11855.6 594.498   4
  -5  -2  -5 12905.2 612.694   7
  -5  -2  -5 11424.4 530.870   3
   5  -2   6 1495.86 229.184   4
  -5  -2  -6 1616.89 236.858   7
   5  -2   7 161.373 52.6986   4
  -5  -2  -7 183.938 85.6618   7
  -5  -2  -8 705.761 180.615   1
   5  -2   8 1170.68 244.891   4
  -5  -2  -8 833.467 195.117   7
  -5  -2  -9 126.028 98.6330   1
   5  -2   9 174.640 110.982   4
  -5  -2  -9 181.740 98.5271   7
   5  -2  10 3963.48 498.598   4
  -5  -2 -10 3896.54 453.852   7
  -5  -2 -10 3481.75 433.385   1
   5  -2  11 20.8951 109.449   4
  -5  -1  12 943.800 247.595   4
  -5  -1  11 5204.29 482.162   4
  -5  -1  11 5872.34 548.989   6
  -5  -1  10 2936.24 332.232   4
  -5  -1  10 3159.29 330.072   2
   5  -1 -10 2850.61 304.200   1
  -5  -1  10 3178.87 390.375   6
  -5  -1   9 1051.33 185.843   2
  -5  -1   9 806.108 160.821   4
   5  -1  -9 939.039 163.584   1
  -5  -1   9 981.469 215.007   6
  -5  -1   8 2320.62 260.507   2
   5  -1  -8 1885.83 205.165   1
  -5  -1   8 2202.96 300.876   6
  -5  -1   8 1466.84 201.093   4
  -5  -1   7 7988.69 466.916   2
   5  -1  -7 8232.12 382.420   1
  -5  -1   7 7661.62 539.372   6
  -5  -1   6 2690.95 269.310   2
   5  -1  -6 2624.23 187.966   1
  -5  -1   6 2643.76 312.266   6
  -5  -1   5 3038.46 286.827   2
   5  -1  -5 2638.67 156.184   1
   5  -1  -5 2392.45 143.817   7
   5  -1  -5 2370.50 304.484   5
  -5  -1   4 14452.7 624.302   2
  -5  -1   4 13401.1 567.605   4
   5  -1  -4 15472.2 257.241   1
  -5  -1   4 13043.7 582.122   1
   5  -1  -4 14058.7 238.096   7
   5  -1  -4 14005.5 722.912   5
  -5  -1   3 15429.3 648.382   2
  -5  -1   3 15443.1 545.187   4
   5  -1  -3 16340.6 774.628   5
  -5  -1   2 358.989 97.6338   2
  -5  -1   2 173.057 62.7984   4
  -5  -1   2 333.295 64.2685   7
   5  -1  -2 154.535 96.1022   5
  -5  -1   1 18272.4 530.117   4
  -5  -1   1 16911.2 440.573   7
   5  -1  -1 17883.4 798.560   5
  -5  -1   1 16631.8 686.586   2
   5  -1   0 5383.56 189.764   1
  -5  -1   0 5610.26 302.521   4
   5  -1   0 5880.27 223.391   4
   5  -1   0 5706.58 191.072   4
  -5  -1   0 5632.47 269.842   7
   5  -1   0 5735.89 227.997   1
   5  -1   0 5241.25 431.373   5
  -5  -1   0 5952.00 414.943   2
  -5  -1  -1 3928.72 267.723   4
   5  -1   1 3788.42 222.197   1
   5  -1   1 3930.15 239.645   4
   5  -1   1 3830.77 224.824   4
   5  -1   1 3712.67 236.510   1
  -5  -1  -1 4367.78 257.354   7
   5  -1   1 4505.08 401.822   5
  -5  -1  -1 4215.86 358.454   2
   5  -1   2 3913.56 270.309   1
   5  -1   2 3839.65 267.694   4
   5  -1   2 4198.87 282.331   4
  -5  -1  -2 3974.72 265.125   7
  -5  -1  -2 3983.45 266.201   3
   5  -1   2 3722.48 370.466   5
   5  -1   3 580.375 112.109   4
  -5  -1  -3 549.276 112.948   7
  -5  -1  -3 374.364 85.1877   3
   5  -1   3 624.628 157.484   5
   5  -1   4 4955.50 365.467   4
  -5  -1  -4 4770.25 341.414   7
  -5  -1  -4 5339.61 350.422   3
   5  -1   5 682.189 149.812   4
  -5  -1  -5 1074.20 171.697   7
  -5  -1  -5 783.708 146.343   3
   5  -1   6 2111.75 277.486   4
  -5  -1  -6 2149.72 267.256   7
  -5  -1  -6 2157.14 258.670   3
  -5  -1  -6 2267.29 271.180   1
   5  -1   7 293.466 104.774   4
  -5  -1  -7 562.079 145.470   7
  -5  -1  -7 222.282 102.003   1
  -5  -1  -7 265.695 96.3266   3
  -5  -1  -8 869.141 192.801   1
   5  -1   8 658.320 198.350   4
  -5  -1  -8 832.046 181.951   7
  -5  -1  -8 516.930 144.473   3
  -5  -1  -9 222.468 110.324   1
   5  -1   9 47.0855 122.560   4
  -5  -1  -9 118.099 103.589   7
  -5  -1 -10 583.322 177.179   1
   5  -1  10 727.035 230.261   4
  -5  -1 -10 645.465 196.249   7
   5  -1  11 1403.97 326.161   4
   5   0 -11-50.0840 71.9560   1
  -5   0  11 73.0061 82.9279   4
  -5   0  10 3451.40 356.452   4
  -5   0  10 3974.75 357.685   2
   5   0 -10 4001.97 367.537   1
  -5   0  10 3820.07 426.442   6
  -5   0   9 1236.03 197.065   4
  -5   0   9 817.655 164.091   2
   5   0  -9 767.330 148.576   1
  -5   0   9 956.173 213.872   6
  -5   0   8 2282.29 242.915   4
  -5   0   8 1784.24 215.695   2
   5   0  -8 2481.23 256.878   1
  -5   0   8 2269.60 308.015   6
  -5   0   7 1347.82 168.134   4
  -5   0   7 957.034 158.422   2
   5   0  -7 961.977 146.484   1
  -5   0   7 1497.10 235.335   6
  -5   0   6 5735.06 380.184   2
   5   0  -6 5650.52 316.822   1
  -5   0   6 5778.30 453.126   6
  -5   0   6 5483.70 299.524   4
  -5   0   5 108.581 83.0285   1
  -5   0   5 4.39448 32.9658   2
  -5   0   5 84.7637 36.7357   4
  -5   0   5 41.9834 58.3241   4
   5   0  -5 88.9729 40.7337   7
  -5   0   5 52.6079 57.7238   6
   5   0  -5 119.565 45.9706   1
   5   0  -5 64.3073 62.3418   5
  -5   0   4 2769.51 264.697   2
  -5   0   4 2514.60 202.926   4
   5   0  -4 2672.58 172.884   1
   5   0  -4 2982.06 184.942   4
  -5   0   4 2078.48 197.827   1
   5   0  -4 2310.79 143.942   7
   5   0  -4 2904.69 338.876   5
  -5   0   3 13121.3 583.155   2
   5   0  -3 13037.5 344.702   1
  -5   0   3 12874.9 370.048   4
   5   0  -3 13272.5 344.875   4
   5   0  -3 12206.2 282.688   7
   5   0  -3 12929.4 709.072   5
   5   0  -2 97.3754 35.0270   1
   5   0  -2 88.1406 23.2504   1
  -5   0   2 81.5618 25.8252   4
   5   0  -2 122.087 36.7380   4
   5   0  -2-8.03859 59.1986   5
  -5   0   1 257.041 47.8647   4
   5   0  -1 286.365 46.6327   1
   5   0  -1 325.123 68.8822   1
   5   0  -1 184.921 49.8653   4
  -5   0   1 317.133 46.8044   7
   5   0  -1 197.476 80.9858   5
   5   0   0 184.594 43.8760   1
   5   0   0 267.417 71.7967   1
  -5   0   0 218.265 83.5848   2
  -5   0   0 343.072 62.6274   4
   5   0   0 333.210 78.9443   4
  -5   0   0 254.818 54.0136   7
   5   0   0 209.924 105.491   5
   5   0   1 1278.29 158.565   4
   5   0   1 1321.52 140.642   1
   5   0   1 1496.39 179.067   1
  -5   0  -1 1215.65 124.003   7
   5   0   1 1211.00 226.103   5
  -5   0  -1 1216.48 190.966   2
  -5   0  -1 1190.78 127.118   4
   5   0   2 1448.21 180.130   4
  -5   0  -2 1428.19 148.009   7
   5   0   3 3690.68 312.142   4
  -5   0  -3 3473.22 255.192   7
  -5   0  -3 3272.56 274.101   3
   5   0   3 3257.45 374.981   5
   5   0   4 2692.72 281.681   4
  -5   0  -4 2409.66 236.523   7
  -5   0  -4 2174.06 235.541   3
  -5   0  -4 1988.63 211.668   1
   5   0   5 74.5256 60.9760   4
  -5   0  -5 13.6943 42.3499   7
  -5   0  -5 7.21620 43.0041   3
  -5   0  -5 4.16840 33.4507   1
   5   0   6 10693.0 640.581   4
  -5   0  -6 9872.46 559.511   3
  -5   0  -6 11658.1 588.438   1
   5   0   7 816.586 191.402   4
  -5   0  -7 1013.49 193.509   3
  -5   0  -7 1192.15 197.946   1
  -5   0  -8 568.499 157.132   1
   5   0   8 353.482 141.287   4
  -5   0  -8 444.218 134.545   3
  -5   0  -9 114.786 96.3889   1
   5   0   9 99.9602 121.460   4
  -5   0  -9 181.367 119.388   3
  -5   0 -10 58.4533 71.5880   1
   5   0  10 176.774 140.917   4
   5   0  11 705.122 244.267   4
  -5   0 -11 626.293 192.959   1
   5   1 -12 648.273 193.297   1
   5   1 -11 4779.21 454.324   1
  -5   1  10 2966.96 330.470   4
   5   1 -10 3089.46 342.560   1
  -5   1  10 3228.33 386.474   6
  -5   1   9 1037.10 167.291   2
   5   1  -9 1009.64 197.801   1
  -5   1   9 902.326 170.580   4
  -5   1   9 755.903 188.012   6
  -5   1   8 1853.81 216.274   4
  -5   1   8 1907.57 217.406   2
   5   1  -8 2127.77 259.155   1
  -5   1   8 1859.18 278.834   6
  -5   1   7 8015.20 395.566   4
  -5   1   7 7253.08 411.543   2
   5   1  -7 7726.49 453.687   1
  -5   1   7 8154.22 542.537   6
  -5   1   6 2622.24 198.219   4
  -5   1   6 2744.70 253.181   2
   5   1  -6 3037.20 265.770   1
   5   1  -6 3371.36 284.189   4
  -5   1   6 2159.70 275.019   6
   5   1  -6 3063.43 370.696   5
  -5   1   5 2606.84 166.620   4
  -5   1   5 2538.97 242.932   2
   5   1  -5 2705.52 239.816   1
   5   1  -5 2816.94 245.589   4
  -5   1   5 3068.59 313.065   6
   5   1  -5 2634.66 340.216   5
   5   1  -4 14609.0 532.741   1
  -5   1   4 14247.5 586.106   2
  -5   1   4 14564.4 271.108   4
  -5   1   4 14894.2 328.696   4
   5   1  -4 14365.9 511.488   4
  -5   1   4 15538.3 350.061   1
   5   1  -4 13469.8 415.523   7
   5   1  -4 13136.0 739.305   5
   5   1  -3 16265.0 530.584   4
   5   1  -3 14220.6 407.833   7
   5   1  -3 14090.8 751.334   5
   5   1  -3 15849.7 544.691   1
  -5   1   3 16055.3 632.613   2
  -5   1   2 237.748 88.4500   2
   5   1  -2 236.007 68.3409   4
   5   1  -2 176.194 50.7472   7
   5   1  -2 286.457 83.0972   1
   5   1  -2 139.218 85.1237   5
   5   1  -1 18151.4 601.850   4
   5   1  -1 18837.4 642.685   1
   5   1  -1 17672.9 455.225   1
   5   1  -1 17510.3 832.969   5
  -5   1   1 18046.7 700.469   2
   5   1   0 5461.60 350.118   4
   5   1   0 5461.92 274.535   1
  -5   1   0 5747.34 169.572   7
   5   1   0 5719.74 369.035   1
   5   1   0 5229.05 459.363   5
  -5   1   0 5443.28 391.798   2
   5   1   1 3815.72 308.566   4
   5   1   1 3612.65 243.187   1
   5   1   1 4600.71 350.816   1
  -5   1  -1 4180.02 201.991   7
   5   1   1 4489.38 427.171   5
   5   1   2 4598.92 348.383   4
  -5   1  -2 3998.44 231.268   7
   5   1   2 4603.83 443.746   5
   5   1   3 343.920 111.192   4
  -5   1  -3 296.969 72.5117   7
  -5   1  -3 543.615 96.9627   1
   5   1   4 5519.71 429.890   4
  -5   1  -4 4971.39 375.526   3
  -5   1  -4 5273.04 330.419   1
   5   1   5 1038.88 200.428   4
  -5   1  -5 1132.96 192.000   3
  -5   1  -5 1275.81 180.779   1
   5   1   6 2486.52 324.576   4
  -5   1  -6 2337.21 261.948   1
  -5   1  -6 2091.59 268.157   3
   5   1   7 215.031 125.975   4
  -5   1  -7 184.866 80.6842   1
   5   1   8 753.587 207.616   4
  -5   1  -8 922.363 200.355   1
  -5   1  -8 1136.76 221.581   3
   5   1   9 117.869 118.260   4
  -5   1  -9 15.3465 74.2152   1
  -5   1  -9 37.2269 89.9841   3
   5   1  10 1055.85 297.163   4
  -5   1 -10 1122.05 247.403   1
  -5   1 -10 684.199 209.809   3
  -5   1 -11 1173.23 271.151   1
   5   2 -13 216.324 137.896   1
   5   2 -12 6410.43 577.763   1
   5   2 -11 525.136 171.978   1
   5   2 -10 4364.56 436.061   1
  -5   2   9 3094.29 309.831   4
   5   2  -9 2600.29 319.056   1
  -5   2   9 2573.47 250.121   2
  -5   2   9 2865.96 349.585   6
  -5   2   8 9013.34 477.020   4
   5   2  -8 9980.73 594.165   1
  -5   2   8 10341.6 477.685   2
   5   2  -8 10611.1 616.734   4
  -5   2   8 10546.8 635.253   6
  -5   2   7 2030.53 206.400   4
   5   2  -7 2175.01 266.804   1
  -5   2   7 2115.20 213.533   2
   5   2  -7 2041.23 280.753   4
  -5   2   7 2197.08 281.913   6
   5   2  -6 40316.8 1110.23   1
  -5   2   6 38118.6 749.653   4
  -5   2   6 39398.0 919.226   2
   5   2  -6 39562.1 1075.59   4
  -5   2   6 39195.5 1129.64   6
   5   2  -6 39922.5 1366.58   5
  -5   2   5 4198.32 301.756   2
  -5   2   5 3800.09 177.318   4
   5   2  -5 3859.11 323.089   4
  -5   2   5 3423.92 323.308   6
   5   2  -5 4010.46 427.817   5
   5   2  -5 3693.22 324.370   1
  -5   2   4 24988.3 757.807   2
   5   2  -4 25433.7 810.039   4
  -5   2   4 25230.8 852.767   6
   5   2  -4 23920.8 1018.27   5
   5   2  -4 25538.4 832.325   1
   5   2  -3 3686.79 305.767   4
   5   2  -3 3592.98 240.740   7
   5   2  -3 4067.25 340.008   1
   5   2  -3 3645.98 399.736   5
  -5   2   3 4227.63 318.588   2
   5   2  -2 1746.44 215.064   4
   5   2  -2 1316.81 142.909   7
   5   2  -2 1536.83 209.548   1
   5   2  -2 1422.48 256.458   5
  -5   2   2 1967.08 224.919   2
   5   2  -1 1267.66 186.485   4
   5   2  -1 1215.17 141.706   7
   5   2  -1 1466.97 213.690   1
   5   2  -1 1321.66 241.252   5
   5   2  -1 883.430 123.211   1
  -5   2   1 1488.61 199.932   2
   5   2   0 1932.00 237.451   4
   5   2   0 1868.09 238.233   1
   5   2   0 1697.87 269.803   5
  -5   2   0 1707.37 222.240   2
   5   2   1 33839.5 1010.52   4
  -5   2  -1 32919.5 491.093   7
   5   2   1 32878.5 1025.95   1
  -5   2  -1 31733.3 468.420   7
   5   2   1 32768.6 1173.83   5
   5   2   2 3947.07 357.591   4
   5   2   2 4235.89 381.871   1
  -5   2  -2 3824.83 219.104   7
   5   2   2 3734.75 415.659   5
  -5   2  -2 3728.79 211.170   1
   5   2   3 1320.63 212.905   4
  -5   2  -3 1353.58 147.493   1
   5   2   4 1367.10 233.188   4
  -5   2  -4 1260.42 159.980   1
   5   2   5 10891.6 672.916   4
  -5   2  -5 11042.6 517.330   1
  -5   2  -5 11295.3 621.577   3
   5   2   6 1328.55 247.142   4
  -5   2  -6 1774.78 230.028   1
  -5   2  -6 2080.02 284.469   3
  -5   2  -7 158.067 77.2755   1
   5   2   7 335.609 160.000   4
  -5   2  -7 144.576 99.8189   3
   5   2   8 1394.57 287.774   4
  -5   2  -8 1071.50 208.924   1
  -5   2  -8 1215.27 234.096   3
  -5   2  -9 140.836 100.370   1
   5   2   9 189.091 121.407   4
  -5   2  -9 191.631 120.089   3
   5   2  10 3592.31 503.826   4
  -5   2 -10 3881.82 441.328   1
  -5   2 -10 3695.04 455.027   3
  -5   2 -11 31.8790 81.9768   1
   5   3 -13 111.354 134.799   1
   5   3 -12 7058.29 630.055   1
   5   3 -11 7593.74 627.186   1
   5   3 -10 876.340 207.712   1
   5   3  -9 3634.74 405.657   1
   5   3  -9 4007.51 434.220   4
   5   3  -8 3297.03 383.643   1
  -5   3   8 2771.64 234.422   2
   5   3  -8 3449.86 393.122   4
  -5   3   8 3579.58 373.068   6
   5   3  -7 10284.6 640.732   1
  -5   3   7 9400.85 423.874   2
   5   3  -7 9159.68 590.870   4
  -5   3   7 10428.5 601.047   6
   5   3  -6 8852.78 579.047   1
  -5   3   6 7695.55 338.025   4
  -5   3   6 9306.00 425.214   2
   5   3  -6 8633.52 556.021   4
  -5   3   6 8517.56 527.030   6
   5   3  -6 7358.59 593.935   5
  -5   3   5 5441.64 333.342   2
   5   3  -5 5140.48 420.078   4
  -5   3   5 5027.91 384.401   6
   5   3  -5 6476.89 548.200   5
   5   3  -5 5062.56 433.518   1
  -5   3   4 10303.9 470.504   2
   5   3  -4 9552.08 558.768   4
  -5   3   4 9965.87 520.166   6
   5   3  -4 9717.90 589.219   1
   5   3  -4 9503.50 654.709   5
  -5   3   3 231.509 80.6698   2
   5   3  -3 210.517 98.8289   1
  -5   3   3 106.997 48.6481   6
   5   3  -3 139.131 71.3837   4
   5   3  -3 141.513 91.7408   5
   5   3  -2 3152.89 328.849   4
  -5   3   2 2959.30 263.165   6
   5   3  -2 2620.86 313.422   1
   5   3  -2 3634.01 410.990   5
  -5   3   2 2825.36 269.944   2
   5   3  -1 4267.94 378.383   4
   5   3  -1 4289.01 399.679   1
  -5   3   1 4111.46 327.754   2
   5   3   0 50413.4 1319.97   4
   5   3   0 49679.1 1355.22   1
   5   3   0 50090.0 1486.25   5
   5   3   1 7350.30 519.461   4
  -5   3  -1 7546.89 221.066   7
  -5   3  -1 7273.11 214.350   7
   5   3   1 6538.59 542.301   5
   5   3   2 6881.13 505.231   4
   5   3   2 7056.91 530.402   1
  -5   3  -2 7483.92 291.547   1
   5   3   2 8070.85 622.701   5
   5   3   3 1360.57 231.470   4
   5   3   3 1127.39 221.525   1
  -5   3  -3 1165.67 136.774   1
   5   3   4 2621.92 334.013   4
  -5   3  -4 3094.22 249.936   1
   5   3   5 3907.05 434.454   4
  -5   3  -5 3878.40 310.041   1
   5   3   6 541.729 163.333   4
  -5   3  -6 845.540 189.703   3
  -5   3  -6 508.390 131.288   1
   5   3   7 2541.95 387.147   4
  -5   3  -7 2760.13 309.943   1
  -5   3  -7 2661.93 344.872   3
   5   3   8 2006.85 345.742   4
  -5   3  -8 1315.85 227.745   1
  -5   3  -8 1533.64 274.890   3
   5   3   9 3792.61 523.606   4
  -5   3  -9 4499.39 451.310   1
  -5   3  -9 3645.88 446.600   3
  -5   3 -10 107.226 125.741   1
  -5   3 -10 469.702 171.204   3
   5   4 -13 1580.59 344.698   1
   5   4 -12 876.176 247.554   1
   5   4 -11 2280.18 365.881   1
   5   4 -10 2735.97 398.873   1
   5   4 -10 2651.94 392.715   4
   5   4  -9 1087.36 242.387   1
   5   4  -9 1065.89 254.314   4
   5   4  -8 1401.65 271.961   1
   5   4  -8 966.104 219.755   4
   5   4  -7 1855.36 295.486   1
  -5   4   7 1955.32 181.728   2
   5   4  -7 1949.70 303.534   4
  -5   4   7 1803.94 258.565   6
   5   4  -7 1986.10 319.628   5
  -5   4   6 1288.73 150.060   2
   5   4  -6 1085.91 214.235   4
  -5   4   6 788.085 160.257   6
   5   4  -6 1432.80 264.220   1
   5   4  -6 973.773 228.381   5
  -5   4   5 11992.3 471.085   2
   5   4  -5 11198.2 676.073   4
  -5   4   5 10546.2 554.658   6
   5   4  -5 11994.8 757.113   5
   5   4  -5 11689.8 720.495   1
  -5   4   4 4799.93 310.452   2
   5   4  -4 4721.32 428.589   4
  -5   4   4 4402.91 343.581   6
   5   4  -4 4161.64 440.435   1
   5   4  -4 4942.97 480.939   5
   5   4  -3 18174.7 851.684   4
  -5   4   3 19822.6 683.918   6
   5   4  -3 19664.5 930.454   1
   5   4  -3 19313.2 948.600   5
  -5   4   3 20064.3 666.152   2
   5   4  -2 5136.09 457.147   4
   5   4  -2 5253.45 481.077   1
  -5   4   2 4944.03 330.076   6
   5   4  -2 5507.44 511.869   5
  -5   4   2 5800.82 372.526   2
   5   4  -1 2009.47 296.023   4
   5   4  -1 2081.93 310.710   1
  -5   4   1 1872.58 196.063   6
   5   4  -1 1787.13 294.204   5
  -5   4   1 1527.41 207.458   2
   5   4   0 4023.60 413.492   4
   5   4   0 3618.52 398.818   1
   5   4   0 3890.24 427.634   5
   5   4   1 18557.7 888.586   4
   5   4   1 18926.9 929.125   1
  -5   4  -1 17967.9 345.234   1
   5   4   1 17573.9 915.335   5
   5   4   2 14448.0 798.481   4
   5   4   2 14537.3 826.591   1
  -5   4  -2 14163.2 418.483   1
   5   4   2 14754.2 866.098   5
   5   4   3 946.547 226.940   1
  -5   4  -3 1104.88 143.919   1
   5   4   3 828.110 199.972   4
   5   4   4 292.793 130.613   4
  -5   4  -4 397.931 94.5591   1
   5   4   4 205.316 126.170   1
   5   4   5 51.8783 71.5562   4
  -5   4  -5 20.4285 51.3710   1
   5   4   6 6170.15 583.044   4
  -5   4  -6 5947.10 430.215   1
   5   4   7 2174.58 365.400   4
  -5   4  -7 1713.82 247.187   1
  -5   4  -7 1954.78 309.926   3
   5   4   8 6881.54 675.809   4
  -5   4  -8 7416.64 548.452   1
  -5   4  -8 7522.45 621.215   3
   5   4   9 3028.57 479.217   4
  -5   4  -9 2861.32 366.452   1
  -5   4  -9 3920.58 464.371   3
   5   4  10 700.056 238.739   4
  -5   4 -10 969.849 233.995   1
   5   5 -12 1038.22 298.679   1
   5   5 -11 2635.09 431.870   4
   5   5 -11 1860.41 354.986   1
   5   5 -10 1165.15 272.797   1
   5   5 -10 1560.86 330.471   4
   5   5  -9 523.609 193.651   1
   5   5  -9 269.338 150.129   4
   5   5  -8 842.397 234.746   1
   5   5  -8 674.597 199.462   4
   5   5  -7 175.369 119.319   1
   5   5  -7 552.689 199.205   4
   5   5  -7 402.532 167.216   5
   5   5  -6 120.784 92.1666   1
   5   5  -6 330.992 152.625   4
   5   5  -6 91.3662 66.7108   5
  -5   5   5 1419.93 151.547   2
   5   5  -5 1621.11 284.919   4
  -5   5   5 1378.89 202.909   6
   5   5  -5 1467.89 277.883   1
   5   5  -5 1420.39 267.528   5
  -5   5   4 4242.01 280.246   2
   5   5  -4 4199.11 444.903   4
  -5   5   4 4008.47 320.465   6
   5   5  -4 4469.44 493.276   1
   5   5  -4 3978.97 448.604   5
   5   5  -3 12220.5 751.813   4
   5   5  -3 10999.6 747.088   1
  -5   5   3 10620.6 495.302   6
   5   5  -3 10405.7 709.770   5
  -5   5   3 11205.2 488.125   2
   5   5  -2 15027.3 844.077   4
   5   5  -2 13862.1 850.996   1
  -5   5   2 14598.8 552.146   6
   5   5  -2 14940.6 850.238   5
  -5   5   2 15159.5 597.424   2
   5   5  -1 6463.68 552.037   4
   5   5  -1 6011.65 565.147   1
  -5   5   1 5779.49 323.181   6
   5   5  -1 5914.12 534.624   5
  -5   5   1 6110.39 401.592   2
   5   5   0 4245.12 449.214   4
   5   5   0 5164.75 513.752   1
  -5   5   0 4268.04 265.121   6
   5   5   0 4689.77 477.621   5
   5   5   1 6363.36 556.654   4
   5   5   1 7874.93 643.581   1
  -5   5  -1 7124.93 324.914   6
   5   5   1 6358.13 567.250   5
   5   5   2 2894.26 394.341   4
  -5   5  -2 3467.89 217.222   1
   5   5   2 3579.16 447.014   1
  -5   5  -2 3586.05 216.741   6
   5   5   2 3522.04 439.495   5
   5   5   3 4318.75 466.046   4
  -5   5  -3 5689.92 329.690   1
   5   5   3 5639.63 561.629   1
   5   5   4 3173.01 411.817   4
  -5   5  -4 2400.59 238.699   1
   5   5   4 2715.04 394.565   1
   5   5   5 8275.51 690.409   4
  -5   5  -5 6776.54 430.966   1
   5   5   5 6754.91 644.436   1
  -5   5  -6 349.005 118.523   1
   5   5   6 369.889 149.845   4
   5   5   7 2565.04 417.564   4
  -5   5  -7 2412.35 305.405   1
  -5   5  -7 2893.55 382.528   3
   5   5   8 1023.35 298.230   4
  -5   5  -8 1135.31 224.061   1
  -5   5  -8 1341.83 278.270   3
   5   5   9 1751.36 388.234   4
  -5   5  -9 1480.98 267.564   1
  -5   5  -9 2364.03 374.705   3
   5   6 -11 365.191 193.499   1
   5   6 -11 655.286 232.956   4
   5   6 -10 2167.07 409.267   4
   5   6 -10 1824.65 382.824   1
   5   6  -9 1339.77 308.756   1
   5   6  -9 1881.17 358.580   4
   5   6  -8 1291.52 290.814   1
   5   6  -8 2349.84 386.571   4
   5   6  -7 426.020 181.311   1
   5   6  -7-38.1174 96.4685   4
   5   6  -7 367.092 169.546   5
   5   6  -6 1572.04 304.109   4
   5   6  -6 2223.89 343.838   5
   5   6  -6 1864.90 352.481   1
   5   6  -5 2355.26 372.373   4
   5   6  -5 2115.33 368.620   1
   5   6  -5 1918.79 328.264   5
  -5   6   4 6131.32 318.517   2
   5   6  -4 6307.88 591.523   4
   5   6  -4 6225.35 623.837   1
   5   6  -4 7290.96 611.131   5
   5   6  -3 7048.21 616.388   4
   5   6  -3 6958.72 643.997   1
   5   6  -3 6935.81 598.042   5
  -5   6   3 6711.29 364.695   2
   5   6  -2 6027.83 574.566   4
   5   6  -2 5334.45 567.390   1
  -5   6   2 5719.84 334.710   6
   5   6  -2 6229.40 566.525   5
  -5   6   2 5950.72 369.984   2
   5   6  -1 10173.7 750.912   4
   5   6  -1 10109.3 784.661   1
  -5   6   1 9974.31 406.992   6
   5   6  -1 10248.4 721.214   5
  -5   6   1 10480.9 519.505   2
   5   6   0 7685.45 652.061   4
   5   6   0 8929.11 742.661   1
  -5   6   0 7534.09 323.726   6
   5   6   0 8958.59 679.878   5
   5   6   1 1636.37 311.721   4
   5   6   1 1640.24 326.971   1
   5   6   1 1473.26 286.762   5
   5   6   2 8510.43 702.437   4
   5   6   2 7670.87 687.400   1
   5   6   2 8816.04 707.066   5
   5   6   3 3544.29 462.882   4
   5   6   3 3298.07 458.878   1
   5   6   4 2853.08 417.197   4
   5   6   4 2813.22 432.567   1
  -5   6  -5 1565.44 219.447   1
   5   6   5 1928.64 374.520   1
   5   6   5 1464.19 318.012   4
   5   6   6 3364.28 483.417   4
   5   6   6 2659.32 447.575   1
   5   6   7 371.419 196.037   4
   5   6   7 180.368 141.603   1
   5   6   8-28.5144 140.561   4
  -5   6  -8 134.992 127.020   3
   5   6   9 1134.91 317.542   4
   5   7 -11 36.6918 176.903   1
   5   7 -11 239.543 206.906   4
   5   7 -10 1365.36 338.699   1
   5   7 -10 1652.97 364.222   4
   5   7  -9 121.618 140.523   1
   5   7  -9 341.995 166.054   4
   5   7  -8 3783.87 506.489   4
   5   7  -8 2301.21 431.642   1
   5   7  -7 2231.41 376.432   5
   5   7  -7 2447.14 422.345   1
   5   7  -6 828.200 263.517   4
   5   7  -6 424.235 197.126   1
   5   7  -6 900.130 232.973   5
   5   7  -5 1963.43 352.264   4
   5   7  -5 1948.62 386.341   1
   5   7  -5 1840.13 321.146   5
   5   7  -4 306.246 149.252   4
   5   7  -4 658.513 245.911   1
   5   7  -4 473.644 179.331   5
   5   7  -3 1662.29 327.236   4
   5   7  -3 1364.46 317.777   1
   5   7  -3 1253.02 256.795   5
   5   7  -2 1347.78 307.494   1
   5   7  -2 1187.27 276.571   4
  -5   7   2 1218.44 168.284   2
   5   7  -2 1093.51 251.747   5
   5   7  -1 8528.41 734.258   4
   5   7  -1 8352.50 761.876   1
   5   7  -1 9482.39 713.792   5
  -5   7   1 8463.63 465.726   2
   5   7   0 2790.75 415.621   4
   5   7   0 1983.49 363.472   1
   5   7   0 2358.92 361.092   5
   5   7   1 1169.80 280.919   1
   5   7   1 1382.01 308.518   4
   5   7   1 821.491 228.753   5
   5   7   2 1318.98 300.502   1
   5   7   2 1451.78 318.288   4
   5   7   2 898.365 228.914   5
   5   7   3 173.166 165.434   1
   5   7   3 178.093 135.291   4
   5   7   3 52.8795 82.1349   5
   5   7   4-122.750 176.760   1
   5   7   4-8.83210 76.7465   4
   5   7   5 1362.14 347.593   1
   5   7   5 2382.57 418.497   4
   5   7   6 649.594 252.098   1
   5   7   6 464.499 210.475   4
   5   7   7 1337.67 349.322   4
   5   7   7 1266.58 346.107   1
   5   7   8 281.105 184.838   4
   5   7   8 322.209 256.297   1
   5   8 -10 201.792 179.787   1
   5   8 -10 927.081 308.580   4
   5   8  -9 1292.09 349.936   1
   5   8  -9 1327.74 334.407   4
   5   8  -8 753.247 272.283   1
   5   8  -8 1380.56 332.452   4
   5   8  -7 399.897 200.763   1
   5   8  -7 346.461 190.614   4
   5   8  -7 545.416 202.485   5
   5   8  -6 1636.86 345.126   4
   5   8  -6 1947.50 334.782   5
   5   8  -6 1993.38 415.432   1
   5   8  -5 938.912 259.523   4
   5   8  -5 449.669 208.745   1
   5   8  -5 700.817 220.540   5
   5   8  -4 963.270 295.084   4
   5   8  -4 1531.98 356.047   1
   5   8  -4 849.341 236.358   5
   5   8  -3 2079.09 384.276   4
   5   8  -3 2084.36 411.280   1
   5   8  -3 2307.71 366.619   5
   5   8  -2 209.754 164.051   1
   5   8  -2 144.261 152.575   4
   5   8  -2-44.7651 98.3952   5
   5   8  -1 1146.69 303.973   1
   5   8  -1 791.998 227.290   4
   5   8  -1 1752.00 323.211   5
   5   8   0 1973.16 378.583   4
   5   8   0 2967.43 490.612   1
   5   8   0 2499.23 382.007   5
   5   8   1 129.764 168.447   1
   5   8   1 193.637 142.849   4
   5   8   1 202.877 141.306   5
   5   8   2 522.872 222.964   1
   5   8   2 436.513 166.187   4
   5   8   2 603.869 213.119   5
   5   8   3 212.216 151.956   1
   5   8   3 706.633 251.656   4
   5   8   3 437.726 187.486   5
   5   8   4 3371.36 517.947   4
   5   8   4 3136.94 517.840   1
   5   8   5 89.0712 182.725   1
   5   8   5-1.02371 110.035   4
   5   8   6 885.216 286.809   1
   5   8   6 1033.25 324.296   4
   5   8   7 165.997 198.211   1
   5   8   7 85.4908 157.974   4
   5   9  -9-31.4184 130.685   1
   5   9  -9-97.5305 122.855   4
   5   9  -8 622.050 243.021   1
   5   9  -8 593.610 270.298   4
   5   9  -7 52.1951 157.661   1
   5   9  -7 87.8768 150.118   4
   5   9  -6 1122.86 305.364   4
   5   9  -6 1044.62 315.668   1
   5   9  -6 1171.32 266.533   5
   5   9  -5 2740.05 470.268   4
   5   9  -5 3132.73 535.405   1
   5   9  -5 3298.51 445.181   5
   5   9  -4 3849.02 579.181   4
   5   9  -4 2623.83 481.683   1
   5   9  -4 3083.40 432.518   5
   5   9  -3 447.031 203.181   4
   5   9  -3 678.082 258.368   1
   5   9  -2 2596.68 459.529   4
   5   9  -2 2619.87 478.794   1
   5   9  -2 2956.33 423.545   5
   5   9  -1 508.187 258.459   1
   5   9  -1 513.814 227.026   4
   5   9  -1 877.096 232.276   5
   5   9   0 2787.18 473.388   4
   5   9   0 2519.19 491.780   1
   5   9   0 3147.63 439.305   5
   5   9   1 947.607 325.333   1
   5   9   1 1010.26 288.703   4
   5   9   1 642.252 206.609   5
   5   9   2 2512.75 453.155   4
   5   9   2 2531.11 481.741   1
   5   9   2 3022.72 451.584   5
   5   9   3 1244.50 329.270   1
   5   9   3 587.667 242.201   4
   5   9   3 944.527 256.518   5
   5   9   4 703.239 265.537   1
   5   9   4 515.015 219.500   4
   5   9   4 523.215 224.445   5
   5   9   5 1053.53 337.181   1
   5   9   5 1647.15 415.851   4
   5   9   6 31.4153 147.152   1
   5   9   6-118.964 160.213   4
   5  10  -7 715.448 295.211   1
   5  10  -7 550.921 228.090   4
   5  10  -6 8179.68 868.102   4
   5  10  -6 6651.51 818.590   1
   5  10  -6 7569.26 693.419   5
   5  10  -5 1409.61 384.015   4
   5  10  -5 952.178 329.852   1
   5  10  -5 659.495 230.183   5
   5  10  -4 3792.47 585.358   4
   5  10  -4 4248.92 646.110   1
   5  10  -4 4424.65 521.292   5
   5  10  -3 2156.96 432.435   4
   5  10  -3 1982.47 462.966   1
   5  10  -3 1767.43 325.957   5
   5  10  -2 246.085 192.158   1
   5  10  -2 679.734 284.483   4
   5  10  -2 611.579 217.772   5
   5  10  -1 905.539 327.295   1
   5  10  -1 1497.29 369.954   4
   5  10  -1 1247.69 283.025   5
   5  10   0 196.701 144.870   1
   5  10   0 365.076 245.605   4
   5  10   0 146.078 131.240   5
   5  10   1 2185.31 478.553   4
   5  10   1 3170.12 556.754   1
   5  10   1 3580.05 499.798   5
   5  10   2 3303.16 552.105   4
   5  10   2 2871.89 542.588   1
   5  10   2 3228.41 478.746   5
   5  10   3 3595.32 585.725   4
   5  10   3 3095.54 575.182   1
   5  10   3 2899.95 479.426   5
   5  10   4 2697.48 512.430   4
   5  10   4 3113.47 590.396   1
   5  10   4 3237.30 501.955   5
   5  10   5 293.582 209.250   5
   5  11  -5 1815.21 446.163   4
   5  11  -5 1522.71 416.091   1
   5  11  -4 4335.65 663.140   4
   5  11  -4 4517.39 723.517   1
   5  11  -4 3669.42 486.409   5
   5  11  -3-34.1517 119.570   4
   5  11  -3-85.3118 132.543   1
   5  11  -3 35.5626 134.344   5
   5  11  -2 2713.55 548.108   1
   5  11  -2 1744.91 421.176   4
   5  11  -2 2716.47 441.629   5
   5  11  -1 5666.41 752.219   4
   5  11  -1 6137.15 822.130   1
   5  11  -1 4888.71 582.464   5
   5  11   0 1505.49 438.262   1
   5  11   0 832.145 301.680   4
   5  11   0 1544.65 334.394   5
   5  11   1 405.260 262.514   1
   5  11   1 341.688 257.609   4
   5  11   1 461.043 215.713   5
   5  11   2 313.891 233.314   1
   5  11   2 313.116 226.109   4
   5  11   2 616.919 242.874   5
   5  11   3 3777.36 535.215   5
   5  12   0 5339.27 630.370   5
   5  12   1 933.345 302.981   5
  -6 -11   2 3590.14 407.920   2
  -6 -11   1 2214.89 338.346   2
  -6 -11   0 572.400 179.076   2
  -6 -10   6 648.642 219.147   7
  -6 -10   5 6361.48 604.275   7
  -6 -10   4-95.0509 80.4438   2
  -6 -10   4 42.7485 92.6456   7
  -6 -10   3 2274.77 329.525   2
  -6 -10   3 3270.84 429.964   7
  -6 -10   2 931.440 202.233   2
  -6 -10   2 1376.35 274.389   7
  -6 -10   1 3780.14 402.842   2
  -6 -10   1 3813.69 459.754   7
  -6 -10   0 1240.03 233.619   2
  -6 -10   0 1828.38 336.432   7
  -6 -10  -1 3314.98 383.709   2
  -6 -10  -1 3875.20 470.630   7
  -6 -10  -2 4411.00 434.671   2
  -6 -10  -2 4509.12 516.945   7
  -6 -10  -3 2386.08 337.452   2
  -6  -9   8 686.977 221.337   6
  -6  -9   6 2715.73 367.563   2
  -6  -9   6 2714.07 395.813   7
  -6  -9   5 2003.14 311.811   2
  -6  -9   5 1481.74 290.364   7
  -6  -9   4 6058.43 525.126   2
  -6  -9   4 5900.33 548.902   7
  -6  -9   3 1315.28 246.555   2
  -6  -9   3 1594.20 283.056   7
  -6  -9   2 2792.48 357.808   2
  -6  -9   2 3342.79 399.912   7
  -6  -9   1 1295.79 235.675   2
  -6  -9   1 1409.10 276.927   7
  -6  -9   0 391.851 140.296   2
  -6  -9   0 673.707 196.003   7
  -6  -9  -1 896.495 199.719   2
  -6  -9  -1 651.890 193.872   7
  -6  -9  -2 2106.90 319.118   2
  -6  -9  -2 1910.99 313.968   7
  -6  -9  -3 225.096 127.827   2
  -6  -9  -3 896.078 233.172   7
  -6  -9  -4 562.659 160.517   2
  -6  -9  -4 621.712 217.707   7
  -6  -8   9 170.072 161.517   6
  -6  -8   8 1815.97 338.051   6
  -6  -8   7 155.265 98.6479   2
  -6  -8   6 4143.17 441.779   2
  -6  -8   5 632.608 187.688   2
  -6  -8   5 664.921 181.201   7
  -6  -8   4 106.179 77.5284   2
  -6  -8   4-5.12305 66.6659   7
  -6  -8   3 158.271 105.080   2
  -6  -8   3 2.19334 70.0644   7
  -6  -8   2 234.561 117.568   2
  -6  -8   2 153.425 101.522   7
  -6  -8   1 160.324 99.2815   2
  -6  -8   1 69.1394 72.2634   7
  -6  -8   0 4769.15 451.905   2
  -6  -8   0 4076.95 430.989   7
  -6  -8  -1 57.4467 70.4703   2
  -6  -8  -1 77.1915 52.9136   7
  -6  -8  -2 1621.90 268.362   2
  -6  -8  -2 2229.04 326.572   7
  -6  -8  -3 2061.18 313.734   2
  -6  -8  -3 1639.14 293.773   7
  -6  -8  -4 1229.76 242.387   2
  -6  -8  -4 1582.39 290.665   7
  -6  -8  -5 633.953 181.355   2
  -6  -8  -5 322.693 154.521   7
  -6  -8  -6 458.044 153.494   2
  -6  -8  -6 137.498 107.216   7
  -6  -7   9 424.264 185.536   6
  -6  -7   8 550.525 181.491   2
  -6  -7   8 140.041 101.957   6
  -6  -7   7 2204.53 319.650   2
  -6  -7   6 90.6292 69.1499   2
  -6  -7   5 538.908 158.357   2
  -6  -7   5 832.974 190.647   7
  -6  -7   4 3181.58 366.180   2
  -6  -7   4 3432.62 381.159   7
  -6  -7   3 458.280 153.964   2
  -6  -7   3 280.614 111.877   7
  -6  -7   2 575.733 166.164   2
  -6  -7   2 996.573 206.588   7
  -6  -7   1 2610.52 322.232   2
  -6  -7   1 2876.51 335.863   7
  -6  -7   0 341.128 127.672   2
  -6  -7   0 459.595 149.063   7
  -6  -7  -1 519.851 156.740   2
  -6  -7  -1 582.984 157.486   7
  -6  -7  -2 218.844 109.119   2
  -6  -7  -2 40.6100 61.7865   7
  -6  -7  -3 1242.84 238.401   2
  -6  -7  -3 1866.64 290.675   7
  -6  -7  -4 2.25566 71.0681   2
  -6  -7  -4 45.1718 85.7424   7
  -6  -7  -5 194.720 131.273   2
  -6  -7  -5 204.670 132.201   7
  -6  -7  -6-48.0606 95.9074   2
  -6  -7  -6 86.2958 84.1490   7
  -6  -7  -7 1617.85 289.904   2
  -6  -7  -7 1854.39 328.591   7
  -6  -6  10 3538.70 462.604   6
  -6  -6   9 1375.39 260.897   2
  -6  -6   9 1097.29 277.079   6
  -6  -6   8 18.6736 67.3726   2
  -6  -6   8 54.7872 114.753   6
  -6  -6   7 1644.41 267.455   2
  -6  -6   6 926.701 203.595   2
  -6  -6   5 3378.55 369.573   2
  -6  -6   5 2916.29 325.864   7
  -6  -6   4 1242.94 227.212   2
  -6  -6   4 1357.85 228.484   7
  -6  -6   3 1832.63 266.291   2
  -6  -6   3 1890.25 256.004   7
  -6  -6   2 12.9684 48.8931   2
  -6  -6   2 186.124 97.2811   7
  -6  -6   1 1054.49 210.169   2
  -6  -6   1 1137.42 202.735   7
  -6  -6   0-97.6515 96.5480   2
  -6  -6   0 220.401 97.8475   7
  -6  -6  -1 519.512 142.562   2
  -6  -6  -1 472.535 141.393   7
  -6  -6  -2-3.12472 54.7600   2
  -6  -6  -2 58.7085 63.2424   7
  -6  -6  -3 416.882 134.445   2
  -6  -6  -3 695.481 170.364   7
  -6  -6  -4 637.443 169.813   2
  -6  -6  -4 675.293 175.562   7
  -6  -6  -5 1269.29 248.930   2
  -6  -6  -5 1527.07 260.456   7
  -6  -6  -6 1362.12 262.569   2
  -6  -6  -6 1037.50 236.891   7
  -6  -6  -7 159.034 113.385   2
  -6  -6  -7 93.5600 106.937   7
  -6  -6  -8 1032.94 255.074   2
  -6  -5  10 403.883 152.269   2
  -6  -5  10 327.492 157.076   6
  -6  -5   9 652.206 191.522   2
  -6  -5   9 875.328 240.966   6
  -6  -5   8 491.122 160.693   2
  -6  -5   8 372.697 163.421   6
  -6  -5   7 250.320 109.168   2
  -6  -5   6 3611.39 379.363   2
  -6  -5   5 7976.38 549.593   2
  -6  -5   5 8624.64 515.513   7
  -6  -5   4 2762.50 324.929   2
  -6  -5   4 2413.82 275.555   7
  -6  -5   3 3907.35 383.444   2
  -6  -5   3 4195.13 354.132   7
  -6  -5   2 12379.1 687.674   2
  -6  -5   2 14845.8 655.308   7
  -6  -5   1 1054.59 204.255   2
  -6  -5   1 869.358 161.803   7
   6  -5  -1 1106.14 192.226   5
  -6  -5   0 3894.39 396.910   2
  -6  -5   0 4336.72 366.545   7
   6  -5   0 3395.82 331.283   5
  -6  -5  -1 850.828 187.097   2
  -6  -5  -1 1024.60 182.606   7
   6  -5   1 998.835 187.494   5
  -6  -5  -2 955.600 202.942   2
  -6  -5  -2 569.751 140.922   7
   6  -5   2 610.288 148.918   5
  -6  -5  -3 2583.77 301.130   7
  -6  -5  -3 2641.30 334.850   2
  -6  -5  -4 2525.95 310.881   7
  -6  -5  -4 2275.56 317.746   2
  -6  -5  -5 4198.35 415.843   7
  -6  -5  -5 5517.33 503.161   2
  -6  -5  -6 3172.76 383.641   7
  -6  -5  -6 2292.89 334.810   2
  -6  -5  -7 676.953 205.515   2
  -6  -5  -7 118.864 81.2989   7
  -6  -5  -8 366.942 156.045   2
  -6  -5  -8 1090.75 246.561   7
  -6  -4  11 2054.41 365.307   6
  -6  -4  10 528.745 165.207   2
  -6  -4  10 436.912 160.318   6
  -6  -4   9 297.528 120.358   2
  -6  -4   9 223.097 145.528   6
  -6  -4   8 101.812 88.6545   2
  -6  -4   8 99.4590 102.811   6
  -6  -4   7 1873.36 268.630   2
  -6  -4   6 2763.32 322.129   2
  -6  -4   5 2109.01 284.262   2
  -6  -4   4 2479.63 301.176   2
  -6  -4   4 3185.53 291.437   7
  -6  -4   3 3021.92 330.276   2
  -6  -4   3 2654.90 263.828   7
  -6  -4   2 1727.61 249.077   2
  -6  -4   2 1923.41 216.438   7
   6  -4  -2 2270.88 281.134   5
  -6  -4   1 646.114 155.517   2
  -6  -4   1 984.561 162.280   7
   6  -4  -1 818.754 171.626   5
  -6  -4   0 4019.20 326.265   7
   6  -4   0 3305.21 344.583   5
  -6  -4   0 3861.57 383.130   2
  -6  -4  -1 908.953 195.232   2
  -6  -4  -1 1201.48 184.174   7
   6  -4   1 1042.40 192.767   5
  -6  -4  -2 2920.31 294.095   7
   6  -4   2 2897.42 333.026   5
  -6  -4  -2 3130.49 352.701   2
  -6  -4  -3 3523.36 333.777   7
   6  -4   3 2941.77 333.107   5
  -6  -4  -3 3729.65 396.421   2
  -6  -4  -4 2869.27 317.129   7
   6  -4   4 3279.84 366.958   5
  -6  -4  -4 3382.48 383.120   2
  -6  -4  -5 8349.91 564.285   7
  -6  -4  -5 7472.53 586.310   2
  -6  -4  -6 4628.03 441.880   7
  -6  -4  -6 4202.19 450.245   2
  -6  -4  -7 3997.88 421.833   7
  -6  -4  -7 4449.04 487.258   2
  -6  -4  -8 496.454 168.183   2
  -6  -4  -8 474.942 186.412   7
  -6  -4  -9 5521.06 551.874   7
  -6  -3  11 1241.33 257.694   2
  -6  -3  11 711.281 211.722   6
  -6  -3  10 12.4841 64.1562   2
  -6  -3  10 69.7475 93.5245   6
  -6  -3   9 158.822 81.0876   2
  -6  -3   9 294.141 149.890   6
  -6  -3   8 1269.06 221.825   2
  -6  -3   8 1104.41 249.055   6
  -6  -3   7 1540.27 234.317   2
  -6  -3   7 1479.34 272.508   6
  -6  -3   6 4033.64 378.705   2
  -6  -3   5 2488.98 297.385   2
  -6  -3   4 5695.62 443.453   2
  -6  -3   3 18967.0 813.873   2
  -6  -3   3 19578.1 638.163   7
   6  -3  -3 17726.4 835.700   5
  -6  -3   2 4623.73 404.638   2
  -6  -3   2 3508.24 263.029   7
   6  -3  -2 4694.91 425.365   5
  -6  -3   1 7908.43 405.010   7
   6  -3  -1 6802.82 515.415   5
  -6  -3   1 8091.79 542.018   2
  -6  -3   0 1304.14 170.564   7
   6  -3   0 1128.54 212.539   5
  -6  -3   0 1080.96 204.865   2
  -6  -3  -1 19037.2 674.586   7
   6  -3   1 18120.6 848.532   5
  -6  -3  -1 17614.0 819.312   2
  -6  -3  -2 10184.5 515.847   7
   6  -3   2 10424.9 641.714   5
  -6  -3  -2 10263.1 638.668   2
  -6  -3  -3 3359.46 315.450   7
   6  -3   3 3645.22 396.851   5
  -6  -3  -3 3114.20 362.493   2
  -6  -3  -4 531.499 148.960   2
  -6  -3  -4 696.713 150.900   7
   6  -3   4 494.648 178.311   5
  -6  -3  -5 1092.19 194.506   7
  -6  -3  -5 1400.47 257.554   2
   6  -3   5 794.507 202.793   5
  -6  -3  -6 280.444 139.049   2
  -6  -3  -6 97.6949 47.2910   7
   6  -3   6 111.602 138.504   5
  -6  -3  -7 1406.03 245.917   7
  -6  -3  -7 1755.08 296.978   2
   6  -3   7 1638.29 330.959   5
  -6  -3  -8 6455.42 553.979   7
  -6  -3  -9 2532.66 376.082   7
  -6  -2  11 3668.94 405.063   2
  -6  -2  11 4916.05 550.054   6
  -6  -2  10 667.407 173.057   2
  -6  -2  10 801.283 227.707   6
  -6  -2   9 459.059 145.613   2
  -6  -2   9 388.640 166.991   6
  -6  -2   8 166.807 97.3534   2
  -6  -2   8 103.325 85.7123   6
  -6  -2   7 1172.51 204.418   2
  -6  -2   7 1111.00 241.710   6
  -6  -2   6 2487.35 292.074   2
  -6  -2   5 1247.23 203.815   2
  -6  -2   4 8640.90 544.612   2
   6  -2  -4 8517.39 616.794   5
  -6  -2   3 4588.79 396.064   2
  -6  -2   3 4081.11 253.965   7
   6  -2  -3 4585.12 444.335   5
  -6  -2   2 2400.87 194.059   7
   6  -2  -2 2793.23 346.054   5
  -6  -2   2 2308.92 285.529   2
  -6  -2   1 1485.36 156.324   7
  -6  -2   1 1164.67 100.280   3
   6  -2  -1 1841.22 276.349   5
  -6  -2   1 1535.36 236.105   2
  -6  -2   0 9646.68 418.811   7
  -6  -2   0 8514.41 303.764   3
   6  -2   0 10311.7 654.719   5
  -6  -2   0 9649.20 591.344   2
  -6  -2  -1 21474.2 664.985   7
  -6  -2  -1 19502.5 513.755   3
   6  -2   1 21104.5 948.425   5
  -6  -2  -2 11915.6 516.368   7
  -6  -2  -2 11004.7 427.671   3
   6  -2   2 10766.9 686.155   5
  -6  -2  -2 10601.8 643.061   2
  -6  -2  -3 5638.09 381.474   7
  -6  -2  -3 5442.24 334.037   3
   6  -2   3 5432.38 496.483   5
  -6  -2  -3 6114.98 501.347   2
   6  -2   4 7513.10 463.865   4
  -6  -2  -4 7434.31 460.040   7
  -6  -2  -4 8096.47 433.042   3
   6  -2   4 7024.65 583.784   5
  -6  -2  -4 7664.67 572.920   2
   6  -2   5 3344.40 331.457   4
  -6  -2  -5 2416.02 281.674   7
   6  -2   5 2877.73 388.128   5
  -6  -2  -5 3017.63 284.607   3
  -6  -2  -5 3423.63 396.383   2
   6  -2   6 2283.82 296.623   4
  -6  -2  -6 1813.19 259.040   7
   6  -2   6 1797.08 335.909   5
  -6  -2  -7 1228.49 223.945   7
  -6  -2  -8 1059.81 218.439   7
  -6  -2  -9 2510.21 363.084   7
  -6  -1  11 2934.46 400.235   6
  -6  -1  10 55.0002 66.8865   2
  -6  -1  10 12.5046 73.1450   6
  -6  -1   9 7048.44 494.757   2
  -6  -1   9 6977.15 594.889   6
  -6  -1   8 4506.55 387.979   2
  -6  -1   8 5009.10 493.754   6
  -6  -1   7 275.960 90.9557   2
  -6  -1   7 141.679 99.3501   6
  -6  -1   6 561.427 139.610   2
  -6  -1   6 515.338 153.708   6
  -6  -1   5 1189.85 208.116   2
   6  -1  -5 885.205 214.360   5
  -6  -1   4 2735.68 301.542   2
   6  -1  -4 3318.69 388.318   5
  -6  -1   3 20268.5 820.403   2
   6  -1  -3 19316.7 937.013   5
  -6  -1   2 2586.15 167.084   7
   6  -1  -2 2933.50 367.151   5
  -6  -1   2 2245.03 273.978   2
  -6  -1   1 3817.71 213.293   7
   6  -1  -1 3432.63 391.478   5
  -6  -1   1 4186.83 382.654   2
  -6  -1   0 1470.16 145.849   7
  -6  -1   0 1271.05 217.689   2
   6  -1   0 1392.37 240.710   5
   6  -1   1 4619.48 267.600   4
   6  -1   1 4676.72 279.258   1
  -6  -1  -1 4297.23 267.138   7
  -6  -1  -1 4140.31 272.159   3
   6  -1   1 4099.06 426.980   5
  -6  -1  -1 4984.96 428.192   2
   6  -1   2 5159.66 333.208   4
   6  -1   2 4287.14 311.284   1
  -6  -1  -2 4235.56 287.223   7
  -6  -1  -2 4617.20 306.603   3
   6  -1   2 4048.47 434.638   5
  -6  -1  -2 5326.20 455.735   2
   6  -1   3 2561.51 257.599   4
  -6  -1  -3 2528.97 239.601   7
  -6  -1  -3 2010.47 215.651   3
   6  -1   3 2047.93 314.799   5
  -6  -1  -3 2378.14 318.217   2
   6  -1   4 6796.45 464.852   4
  -6  -1  -4 6519.76 413.021   7
  -6  -1  -4 7276.98 432.053   3
   6  -1   4 6648.23 586.141   5
   6  -1   5 5047.95 429.272   4
  -6  -1  -5 5362.96 402.541   7
  -6  -1  -5 5682.68 409.125   3
   6  -1   5 5705.32 564.648   5
   6  -1   6 1668.52 266.685   4
  -6  -1  -6 1621.09 232.614   7
  -6  -1  -6 1952.36 260.406   3
   6  -1   7 1371.97 259.749   4
  -6  -1  -7 1920.98 279.413   7
  -6  -1  -7 1742.05 253.177   3
   6  -1   8 410.818 149.110   4
  -6  -1  -8 388.106 138.140   7
   6  -1   9 236.729 133.942   4
  -6  -1  -9 302.564 135.539   7
  -6   0  11 844.228 241.989   6
  -6   0  10 136.802 84.2341   2
  -6   0  10 306.227 151.456   6
  -6   0   9 3281.91 330.823   2
  -6   0   9 3171.63 405.155   6
  -6   0   8 500.884 130.718   2
  -6   0   8 294.601 121.316   6
  -6   0   7 2623.31 282.592   2
  -6   0   7 3210.93 374.071   6
  -6   0   6 14373.1 663.394   2
  -6   0   6 14430.2 775.635   6
   6   0  -6 13833.5 859.739   5
  -6   0   5 2591.85 281.165   2
   6   0  -5 3065.20 390.394   5
  -6   0   4 527.517 130.792   2
   6   0  -4 545.648 172.824   5
  -6   0   3 168.417 93.3548   2
   6   0  -3 74.2021 76.4237   5
   6   0  -2 6506.79 548.389   5
  -6   0   2 7037.91 482.830   2
  -6   0   1 444.076 125.595   2
   6   0  -1 521.423 68.8648   4
   6   0  -1 673.452 87.0855   1
   6   0  -1 806.516 225.423   5
  -6   0   0 448.353 143.392   2
   6   0   0 302.839 84.2346   1
   6   0   0 426.080 90.7143   4
  -6   0   0 252.051 54.7480   7
   6   0   0 468.638 176.042   5
   6   0   1 8299.73 428.046   4
   6   0   1 7536.32 421.588   1
  -6   0  -1 7345.95 309.092   7
   6   0   1 6935.95 583.639   5
  -6   0  -1 7152.76 511.112   2
  -6   0  -2-55.7863 53.8544   2
   6   0   2 1.64942 38.8910   4
  -6   0  -2 28.3973 37.0281   7
   6   0   2 82.5766 72.9891   5
   6   0   2 7.38668 56.3821   1
   6   0   3 1701.88 228.101   4
  -6   0  -3 2437.89 221.594   7
  -6   0  -3 2298.57 247.933   3
   6   0   3 2221.20 335.531   5
   6   0   4 32.0146 56.1793   4
  -6   0  -4-9.17276 37.0769   7
  -6   0  -4 48.3843 54.9935   3
   6   0   4 36.7058 63.7849   5
   6   0   5 2711.80 333.340   4
  -6   0  -5 2575.01 271.953   7
  -6   0  -5 3037.53 312.769   3
   6   0   6 1681.95 279.503   4
  -6   0  -6 1158.03 200.770   7
  -6   0  -6 1646.00 249.920   3
  -6   0  -7 764.791 181.065   1
   6   0   7 1355.69 275.122   4
  -6   0  -7 1315.63 226.914   7
  -6   0  -7 1185.74 228.999   3
  -6   0  -8 672.663 187.672   1
   6   0   8 705.250 224.398   4
  -6   0  -8 649.489 166.561   7
  -6   0  -8 818.122 195.416   3
   6   0   9 1681.45 334.284   4
  -6   0  -9 1496.38 270.155   7
  -6   0  -9 1946.43 300.258   3
  -6   0  -9 1707.06 287.191   1
  -6   1  11 3762.13 477.501   6
  -6   1  10 43.6747 82.2353   2
  -6   1  10 156.121 138.117   6
  -6   1   9 6242.00 437.695   2
  -6   1   9 7516.30 606.645   6
  -6   1   8 5622.62 404.992   2
  -6   1   8 5018.14 475.400   6
  -6   1   7 197.717 91.1901   2
  -6   1   7 53.6880 92.1250   6
  -6   1   6 688.244 147.827   2
   6   1  -6 554.734 113.619   1
   6   1  -6 324.497 83.4324   4
  -6   1   6 462.854 146.056   6
   6   1  -6 697.677 205.627   5
  -6   1   5 1128.99 187.307   2
   6   1  -5 928.240 138.459   1
   6   1  -5 1721.04 190.495   4
  -6   1   5 1433.84 234.352   6
   6   1  -5 1051.84 246.122   5
  -6   1   4 2446.56 273.258   2
   6   1  -4 2515.51 208.033   1
   6   1  -4 2515.43 205.584   4
   6   1  -4 3021.12 387.443   5
   6   1  -3 20890.9 595.002   4
   6   1  -3 20216.9 998.603   5
   6   1  -3 21835.3 626.615   1
  -6   1   3 19717.3 784.443   2
   6   1  -2 2902.26 224.873   4
   6   1  -2 2549.04 223.720   1
   6   1  -2 2362.19 342.857   5
  -6   1   2 2768.41 302.903   2
   6   1  -1 3961.31 289.001   4
   6   1  -1 4010.94 302.122   1
   6   1  -1 4029.07 448.549   5
  -6   1   1 4109.49 376.788   2
   6   1   0 1340.41 184.054   4
   6   1   0 1353.71 199.945   1
   6   1   0 1250.92 265.286   5
  -6   1   0 1582.05 234.050   2
   6   1   1 4142.87 342.913   4
   6   1   1 4644.75 370.935   1
   6   1   1 3552.17 421.477   5
  -6   1  -1 4679.95 417.574   2
   6   1   2 4275.14 368.589   4
   6   1   2 5208.65 422.013   1
  -6   1  -2 4695.55 254.776   7
   6   1   2 4808.84 502.552   5
   6   1   3 2249.56 284.770   4
   6   1   3 2844.04 329.316   1
  -6   1  -3 2814.68 228.681   7
   6   1   3 2391.11 355.498   5
   6   1   4 6377.52 502.174   4
  -6   1  -4 7259.90 410.287   7
  -6   1  -4 6771.45 464.325   3
   6   1   4 7568.24 653.853   5
   6   1   5 5375.51 484.255   4
  -6   1  -5 5929.90 405.330   7
  -6   1  -5 5700.35 447.332   3
  -6   1  -5 5253.05 378.668   1
   6   1   6 1851.87 311.931   4
  -6   1  -6 1945.03 252.055   7
  -6   1  -6 1186.05 214.117   3
  -6   1  -6 1579.13 229.337   1
   6   1   7 2028.45 338.237   4
  -6   1  -7 1902.08 264.187   7
  -6   1  -7 2141.02 306.184   3
  -6   1  -7 1527.26 232.042   1
   6   1   8 450.936 156.669   4
  -6   1  -8 369.023 133.401   1
  -6   1  -8 486.669 155.104   3
   6   1   9 620.078 230.446   4
  -6   1  -9 1138.88 246.466   3
  -6   2  10 689.987 201.334   6
  -6   2   9 523.220 126.595   2
  -6   2   9 494.842 168.537   6
  -6   2   8 98.9399 56.4113   2
   6   2  -8 66.8182 78.0631   1
   6   2  -8 54.2811 71.8668   4
  -6   2   8 136.024 84.6598   6
  -6   2   7 1446.18 198.623   2
   6   2  -7 903.410 170.704   1
   6   2  -7 1108.93 190.785   4
  -6   2   7 1293.11 236.240   6
   6   2  -6 2359.79 267.231   1
  -6   2   6 3007.80 287.125   2
   6   2  -6 2240.09 262.033   4
  -6   2   6 2389.78 302.039   6
   6   2  -6 2766.66 390.620   5
   6   2  -5 1587.01 216.121   1
  -6   2   5 1500.61 208.581   2
   6   2  -5 1965.79 228.100   4
  -6   2   5 1575.99 236.422   6
   6   2  -5 1934.56 323.380   5
  -6   2   4 8566.67 499.031   2
   6   2  -4 9879.98 514.276   4
  -6   2   4 9880.00 584.821   6
   6   2  -4 9433.71 700.837   5
   6   2  -4 9250.20 509.965   1
   6   2  -3 4464.45 337.502   4
   6   2  -3 4276.18 348.378   1
   6   2  -3 4751.06 492.695   5
  -6   2   3 4696.56 379.662   2
   6   2  -2 2225.85 247.399   4
   6   2  -2 2328.20 265.759   1
   6   2  -2 2208.72 345.504   5
  -6   2   2 1920.28 255.816   2
   6   2  -1 1547.77 216.966   4
   6   2  -1 1113.98 196.477   1
   6   2  -1 1669.91 324.036   5
  -6   2   1 1235.18 210.487   2
   6   2   0 9376.19 548.513   4
   6   2   0 9199.12 560.264   1
   6   2   0 9681.30 708.582   5
  -6   2   0 10180.7 596.807   2
   6   2   1 18549.9 805.744   4
   6   2   1 20908.6 878.631   1
  -6   2  -1 19849.3 858.759   2
   6   2   2 10819.8 637.196   4
   6   2   2 12185.0 698.619   1
   6   2   2 11346.1 784.514   5
   6   2   3 4960.46 448.859   4
   6   2   3 4738.71 454.759   1
   6   2   4 6937.74 557.172   4
   6   2   4 9658.46 774.767   5
   6   2   5 2602.30 351.035   4
  -6   2  -5 2691.30 320.494   3
   6   2   6 1879.46 318.177   4
  -6   2  -6 1628.60 260.489   3
   6   2   7 607.104 212.089   4
  -6   2  -7 1111.99 229.736   3
   6   2   8 721.827 246.804   4
  -6   2  -8 563.064 166.788   3
   6   2   9 2759.42 442.886   4
  -6   2  -9 2912.47 398.998   3
   6   3  -9 121.623 103.743   1
  -6   3   9-48.8050 75.0708   6
  -6   3   8 1067.06 164.215   2
   6   3  -8 615.343 157.440   1
   6   3  -8 975.544 217.716   4
  -6   3   8 839.286 207.238   6
  -6   3   7 1513.30 194.226   2
   6   3  -7 1134.39 217.298   1
  -6   3   7 1730.16 267.119   6
   6   3  -7 1611.25 312.860   5
   6   3  -6 3925.39 383.726   1
  -6   3   6 4362.64 332.739   2
   6   3  -6 3922.20 370.564   4
  -6   3   6 4183.36 397.988   6
   6   3  -6 4425.56 500.921   5
  -6   3   5 2673.36 273.033   2
   6   3  -5 1979.13 266.536   4
  -6   3   5 1853.79 259.854   6
   6   3  -5 1644.45 304.796   5
   6   3  -5 2610.08 319.278   1
  -6   3   4 5704.98 401.370   2
   6   3  -4 5723.90 444.930   4
  -6   3   4 5445.25 423.869   6
   6   3  -4 4775.78 517.250   5
   6   3  -4 5296.98 449.677   1
   6   3  -3 18238.0 782.773   4
  -6   3   3 18483.8 762.286   6
   6   3  -3 17009.1 811.500   1
   6   3  -3 17308.9 960.685   5
  -6   3   3 18027.5 729.545   2
   6   3  -2 3817.12 362.261   4
   6   3  -2 3578.90 374.656   1
   6   3  -2 4148.90 473.890   5
  -6   3   2 4686.54 382.029   2
   6   3  -1 7170.82 516.555   4
   6   3  -1 6946.29 532.215   1
   6   3  -1 7276.28 623.550   5
  -6   3   1 7796.14 512.511   2
   6   3   0 909.483 200.389   4
   6   3   0 1412.81 241.820   1
   6   3   0 1446.55 279.277   5
  -6   3   0 1448.80 230.474   2
   6   3   1 19194.7 886.389   4
   6   3   1 19175.6 910.781   1
   6   3   1 17850.5 1000.61   5
   6   3   2 9711.21 657.350   4
   6   3   2 10751.6 704.625   1
   6   3   2 9945.00 748.832   5
   6   3   3 2270.29 331.401   4
   6   3   3 2419.43 354.173   1
   6   3   3 3038.39 436.842   5
   6   3   4 505.696 168.187   4
   6   3   4 396.160 166.032   5
   6   3   4 448.860 188.038   1
   6   3   5 1007.42 253.334   4
   6   3   6 102.674 86.6667   4
  -6   3  -6 332.671 133.175   3
   6   3   7 1695.68 333.003   4
  -6   3  -7 1147.65 243.835   3
   6   3   8 6764.37 700.428   4
  -6   3  -8 6649.74 588.061   3
   6   3   9 2255.30 421.044   4
   6   4 -10 306.089 162.769   1
   6   4 -10 519.940 183.121   4
   6   4  -9 208.556 106.650   1
   6   4  -9 240.257 135.275   4
   6   4  -8 62.6836 93.4340   1
   6   4  -8 126.228 99.1284   4
  -6   4   8 274.213 130.460   6
   6   4  -7 2001.22 309.781   1
   6   4  -7 1895.25 298.662   4
  -6   4   7 1969.40 277.965   6
   6   4  -7 1574.80 315.827   5
  -6   4   6 2935.77 262.016   2
   6   4  -6 2583.65 345.809   4
  -6   4   6 2809.90 328.165   6
   6   4  -6 2516.07 389.639   5
   6   4  -6 3209.00 393.432   1
  -6   4   5 2072.43 227.690   2
   6   4  -5 2271.43 317.646   4
  -6   4   5 2383.79 293.483   6
   6   4  -5 2163.58 356.641   5
   6   4  -5 2244.25 330.608   1
  -6   4   4 2887.97 282.295   2
   6   4  -4 3170.73 367.581   4
  -6   4   4 2552.28 285.327   6
   6   4  -4 2757.26 361.252   1
   6   4  -4 2437.83 376.024   5
   6   4  -3 2850.80 348.441   4
  -6   4   3 2456.84 269.567   6
   6   4  -3 2851.99 370.754   1
   6   4  -3 2525.88 377.312   5
  -6   4   3 2393.19 261.063   2
   6   4  -2 1115.07 219.584   4
   6   4  -2 2140.01 333.682   1
  -6   4   2 1748.98 216.938   6
   6   4  -2 1558.06 306.695   5
  -6   4   2 1755.21 233.179   2
  -6   4   1 881.188 172.369   2
   6   4  -1 820.236 211.345   1
   6   4  -1 416.503 129.122   4
  -6   4   1 716.843 143.198   6
   6   4  -1 810.072 222.728   5
   6   4   0 4411.94 455.237   4
   6   4   0 4486.54 469.314   1
   6   4   0 2672.48 387.340   5
  -6   4   0 2744.70 310.221   2
   6   4   1 1065.94 245.506   1
   6   4   1 660.364 184.977   4
   6   4   1 1213.99 269.902   5
   6   4   2 2413.83 349.766   4
   6   4   2 2813.65 387.829   1
   6   4   2 2673.18 402.309   5
   6   4   3 2787.11 384.161   4
   6   4   3 3198.79 427.721   1
   6   4   3 4007.72 504.190   5
   6   4   4 3389.21 433.219   4
   6   4   4 3321.19 440.596   1
   6   4   4 2777.69 438.074   5
   6   4   5 7531.18 663.354   4
   6   4   5 7638.33 699.666   1
   6   4   6 2774.95 417.675   4
   6   4   6 3711.64 506.607   1
  -6   4  -6 4405.37 464.472   3
   6   4   7 4201.16 536.651   4
  -6   4  -7 4355.42 485.359   3
   6   4   8 472.268 231.354   4
  -6   4  -8 488.561 196.762   3
   6   4   9 4602.71 618.973   4
   6   5 -10 266.762 185.063   1
   6   5 -10 121.763 134.127   4
   6   5  -9 861.924 240.666   1
   6   5  -9 716.660 230.116   4
   6   5  -8 468.972 178.737   1
   6   5  -8 376.935 160.085   4
   6   5  -7 154.351 122.826   1
   6   5  -7 381.164 160.026   4
   6   5  -7 144.670 134.373   5
   6   5  -6 2921.24 398.197   4
  -6   5   6 3147.79 341.369   6
   6   5  -6 3775.53 488.085   5
   6   5  -6 2396.62 376.966   1
  -6   5   5 8206.39 435.550   2
   6   5  -5 8081.23 639.245   4
  -6   5   5 8456.09 524.231   6
   6   5  -5 8187.76 705.434   5
   6   5  -5 8408.40 683.281   1
  -6   5   4 2579.76 258.134   2
   6   5  -4 2673.21 363.110   4
  -6   5   4 2167.32 257.254   6
   6   5  -4 2313.44 373.787   1
   6   5  -4 2966.31 412.744   5
   6   5  -3 5264.88 519.059   4
  -6   5   3 3960.60 334.828   6
   6   5  -3 3714.50 450.547   1
   6   5  -3 4527.47 511.622   5
  -6   5   3 5125.83 374.989   2
   6   5  -2 13401.0 832.440   4
   6   5  -2 12582.7 836.529   1
  -6   5   2 13431.9 585.652   6
   6   5  -2 13336.1 886.248   5
  -6   5   2 12811.7 629.068   2
  -6   5   1 822.520 168.856   2
   6   5  -1 1126.80 265.164   1
   6   5  -1 1245.07 254.841   4
  -6   5   1 1222.82 171.073   6
   6   5  -1 1113.98 250.102   5
   6   5   0 4631.46 503.806   4
   6   5   0 3821.58 475.896   1
  -6   5   0 4157.08 300.668   6
   6   5   0 4283.11 506.192   5
  -6   5   0 4455.28 402.853   2
   6   5   1 719.004 226.292   1
   6   5   1 847.527 227.111   4
   6   5   1 815.809 233.714   5
   6   5   2 1035.59 259.178   1
   6   5   2 934.049 241.902   4
   6   5   2 1059.28 264.906   5
   6   5   3 2260.29 378.675   4
   6   5   3 2202.40 376.020   1
   6   5   3 1681.05 326.434   5
   6   5   4 1662.61 346.863   1
   6   5   4 1899.68 347.765   4
   6   5   4 2561.12 427.608   5
   6   5   5 4152.19 516.760   4
   6   5   5 3755.29 518.014   1
   6   5   6 2518.11 430.629   4
   6   5   6 2225.84 420.639   1
   6   5   7 662.286 269.742   4
  -6   5  -7 632.524 193.701   3
   6   5   7 419.683 228.996   1
   6   5   8 880.423 276.106   4
   6   5   8 1248.16 351.733   1
   6   6 -10 2737.28 450.939   1
   6   6 -10 3548.85 521.501   4
   6   6  -9 1397.44 312.073   1
   6   6  -9 970.227 265.221   4
   6   6  -8 239.014 153.138   1
   6   6  -8 137.462 153.018   4
   6   6  -7 1334.52 310.042   1
   6   6  -7 819.855 242.312   4
   6   6  -7 958.468 284.903   5
   6   6  -6 1112.64 277.249   1
   6   6  -6 1091.00 254.108   4
   6   6  -6 472.022 174.197   5
   6   6  -5 3168.21 435.689   4
   6   6  -5 2577.18 417.033   1
   6   6  -5 2710.06 416.506   5
   6   6  -4 1309.23 279.454   4
   6   6  -4 1574.65 343.926   1
  -6   6   4 1424.26 210.534   6
   6   6  -4 938.869 243.417   5
   6   6  -3 2345.85 377.316   4
   6   6  -3 1655.43 329.430   1
  -6   6   3 1986.07 230.433   6
   6   6  -3 2820.85 417.347   5
  -6   6   3 2194.22 241.541   2
  -6   6   2 157.146 93.2763   2
   6   6  -2 175.877 154.712   1
   6   6  -2 60.8124 83.3796   4
  -6   6   2 206.409 80.5156   6
   6   6  -2 92.1503 76.0567   5
  -6   6   1 821.263 163.065   2
   6   6  -1 437.099 189.274   1
   6   6  -1 569.640 197.638   4
   6   6  -1 787.102 228.054   5
   6   6   0 63.2251 82.6716   1
   6   6   0 104.030 115.197   4
   6   6   0-50.2233 108.805   5
   6   6   1 425.813 189.702   1
   6   6   1 769.263 250.528   4
   6   6   1 683.818 216.666   5
   6   6   2 249.657 163.279   1
   6   6   2 185.658 140.282   4
   6   6   2 49.4606 125.005   5
   6   6   3 888.892 250.987   1
   6   6   3 557.587 210.387   4
   6   6   3 609.254 238.276   5
   6   6   4 819.647 268.370   1
   6   6   4 845.578 260.484   4
   6   6   4 956.608 268.901   5
   6   6   5 1413.66 356.918   1
   6   6   5 1568.22 345.690   4
   6   6   6 1041.46 279.996   1
   6   6   6 2231.20 415.982   4
   6   6   7 366.257 219.613   4
  -6   6  -7 161.786 108.563   3
   6   6   7 74.3996 131.027   1
   6   7 -10 614.851 260.224   1
   6   7 -10 334.233 192.380   4
   6   7  -9 128.338 129.005   1
   6   7  -9 52.1718 133.826   4
   6   7  -8 72.0286 108.242   1
   6   7  -8 275.492 163.008   4
   6   7  -7 1801.84 374.832   1
   6   7  -7 1442.09 311.395   4
   6   7  -7 1844.75 373.455   5
   6   7  -6 33.8662 124.008   4
   6   7  -6-14.8784 108.788   1
   6   7  -6-2.51199 95.1495   5
   6   7  -5 687.048 238.683   4
   6   7  -5 481.449 228.242   1
   6   7  -5 751.884 229.098   5
   6   7  -4 3123.00 459.171   4
   6   7  -4 2802.81 470.341   1
   6   7  -4 3908.55 505.275   5
   6   7  -3 628.488 234.173   4
   6   7  -3 223.901 152.432   1
   6   7  -3 352.882 143.537   5
   6   7  -2 1101.75 302.567   1
   6   7  -2 1022.46 276.370   4
   6   7  -2 1074.17 271.885   5
   6   7  -1 2193.18 388.712   4
   6   7  -1 1800.46 363.288   1
   6   7  -1 1733.44 342.258   5
  -6   7   1 2339.67 279.319   2
   6   7   0 612.371 218.092   1
   6   7   0 494.912 195.861   4
   6   7   0 452.736 195.769   5
   6   7   1 420.283 186.956   1
   6   7   1 613.046 219.303   4
   6   7   1 843.292 255.584   5
   6   7   2 51.1989 134.636   1
   6   7   2 258.984 152.513   4
   6   7   2 98.4577 79.7660   5
   6   7   3 1750.58 373.637   1
   6   7   3 1427.10 342.153   4
   6   7   3 2069.87 386.804   5
   6   7   4 167.096 185.432   1
   6   7   4-76.9042 111.088   4
   6   7   4-65.4802 132.770   5
   6   7   5 341.157 226.226   1
   6   7   5 242.216 215.690   4
   6   7   5 132.283 143.607   5
   6   7   6 81.3700 175.098   1
   6   7   6 12.7109 130.501   4
   6   7   7 1026.56 324.431   1
   6   7   7 772.164 240.855   4
   6   8  -9 225.150 162.632   1
   6   8  -9 229.383 180.897   4
   6   8  -8 2112.23 459.091   1
   6   8  -8 2116.44 423.240   4
   6   8  -7 61.1719 135.242   1
   6   8  -7 302.561 200.567   4
   6   8  -7 392.214 232.146   5
   6   8  -6 3547.51 512.812   4
   6   8  -6 3566.36 560.016   1
   6   8  -6 3092.80 467.061   5
   6   8  -5 567.560 233.381   4
   6   8  -5 243.223 173.821   1
   6   8  -5 387.434 163.983   5
   6   8  -4 339.627 207.732   4
   6   8  -4 302.636 185.365   1
   6   8  -4 92.3894 90.1658   5
   6   8  -3 160.428 176.865   4
   6   8  -3-4.18331 129.173   1
   6   8  -3 151.622 133.859   5
   6   8  -2 277.172 208.635   1
   6   8  -2 69.9034 87.5411   4
   6   8  -2 34.6322 84.4790   5
   6   8  -1-94.4735 111.582   1
   6   8  -1 113.799 148.453   4
   6   8  -1-44.7184 101.442   5
   6   8   0 3031.84 486.843   4
   6   8   0 3152.57 533.224   1
   6   8   0 3832.36 519.822   5
   6   8   1 142.303 152.315   1
   6   8   1-0.99663 143.035   4
   6   8   1 7.20995 86.0267   5
   6   8   2 1602.80 405.526   1
   6   8   2 1761.34 382.298   4
   6   8   2 1913.76 372.095   5
   6   8   3 1923.52 431.396   1
   6   8   3 1512.03 359.893   4
   6   8   3 1904.07 380.818   5
   6   8   4 1544.32 365.937   1
   6   8   4 1358.49 342.201   4
   6   8   4 1502.14 368.375   5
   6   8   5 263.084 222.517   1
   6   8   5 430.904 232.861   4
   6   8   5 271.505 150.507   5
   6   8   6 446.714 263.408   1
   6   8   6 412.362 218.397   4
   6   9  -8 977.425 350.759   1
   6   9  -8 806.628 273.289   4
   6   9  -7 419.413 250.617   1
   6   9  -7 967.921 323.914   4
   6   9  -7 542.156 211.909   5
   6   9  -6 2730.13 489.595   4
   6   9  -6 2918.84 536.448   1
   6   9  -6 2391.61 408.760   5
   6   9  -5 1712.43 381.632   4
   6   9  -5 1629.62 437.363   1
   6   9  -5 1513.50 335.972   5
   6   9  -4 5057.99 690.838   1
   6   9  -4 4970.29 600.412   5
   6   9  -3 1494.98 357.180   4
   6   9  -3 1585.63 404.804   1
   6   9  -3 1076.76 300.483   5
   6   9  -2 2400.00 461.436   4
   6   9  -2 3454.73 577.911   1
   6   9  -2 2413.40 425.987   5
   6   9  -1 889.066 321.263   1
   6   9  -1 1502.51 386.828   4
   6   9   0 674.626 282.561   1
   6   9   0 582.756 257.523   4
   6   9   0 474.813 201.854   5
   6   9   1 604.700 270.086   1
   6   9   1 631.979 266.405   4
   6   9   1 655.109 239.234   5
   6   9   2 1635.52 406.235   1
   6   9   2 1904.56 410.685   4
   6   9   2 1569.04 352.913   5
   6   9   3 590.052 291.484   1
   6   9   3 918.048 319.930   4
   6   9   3 282.485 156.295   5
   6   9   4 405.648 207.451   1
   6   9   4 227.545 222.330   4
   6  10  -6 57.7804 178.580   4
   6  10  -6 173.055 190.098   1
   6  10  -6 392.155 209.855   5
   6  10  -5 4915.18 696.354   4
   6  10  -5 4714.82 691.314   1
   6  10  -5 5232.05 619.008   5
   6  10  -4 28.9328 119.039   4
   6  10  -4 65.4744 196.405   1
   6  10  -4 92.2959 137.537   5
   6  10  -3 2674.56 498.168   4
   6  10  -3 1814.43 449.363   1
   6  10  -3 1732.67 359.714   5
   6  10  -2 1156.62 370.187   1
   6  10  -2 1287.82 355.377   4
   6  10  -2 1126.99 303.636   5
   6  10  -1 4305.05 632.188   4
   6  10  -1 4355.96 687.118   1
   6  10  -1 5029.96 615.591   5
   6  10   0 953.362 350.722   1
   6  10   0 1806.78 457.898   4
   6  10   0 1723.15 377.684   5
   6  10   1 2215.73 514.643   1
   6  10   1 2747.75 535.831   4
   6  10   1 2929.27 481.367   5
   6  10   2 4628.07 689.185   4
   6  10   2 3011.82 600.876   1
   6  10   2 3836.87 565.338   5
   6  11  -3 3971.24 562.804   5
   6  11  -2 3331.06 528.964   5
   6  11  -1 2398.63 459.861   5
   6  11   0 773.046 265.871   5
  -7  -9   5 2373.13 360.323   7
  -7  -9   4 2999.46 409.476   7
  -7  -9   3 5715.90 542.014   7
  -7  -9   2 348.139 142.844   2
  -7  -9   2 248.722 121.260   7
  -7  -9   1 713.188 191.962   2
  -7  -9   1 400.520 158.565   7
  -7  -9   0 734.704 200.016   2
  -7  -9   0 1151.75 253.213   7
  -7  -9  -1 623.450 186.029   2
  -7  -9  -1 954.009 232.254   7
  -7  -9  -2 940.204 241.436   7
  -7  -8   5 1838.60 310.784   7
  -7  -8   4 295.557 139.111   2
  -7  -8   4 98.9306 87.7085   7
  -7  -8   3 704.389 200.417   2
  -7  -8   3 862.971 213.456   7
  -7  -8   2 84.3048 88.0122   2
  -7  -8   2 64.1843 63.0583   7
  -7  -8   1 214.374 108.805   2
  -7  -8   1-35.9009 82.2784   7
  -7  -8   0 1512.43 280.316   2
  -7  -8   0 1229.60 252.008   7
  -7  -8  -1 332.236 139.839   2
  -7  -8  -1 329.063 151.967   7
  -7  -8  -2 423.813 154.769   2
  -7  -8  -2 645.317 191.256   7
  -7  -8  -3 543.985 175.780   2
  -7  -8  -3 371.818 148.422   7
  -7  -8  -4 577.346 199.707   7
  -7  -7   6 1066.66 248.424   2
  -7  -7   5 371.085 160.048   2
  -7  -7   4 445.959 154.389   2
  -7  -7   4 853.984 196.654   7
  -7  -7   3 311.544 126.979   2
  -7  -7   3 394.356 132.801   7
  -7  -7   2 1177.21 233.255   2
  -7  -7   2 1441.55 249.564   7
  -7  -7   1 541.542 175.000   2
  -7  -7   1 491.254 157.287   7
  -7  -7   0 16.4491 83.8773   2
  -7  -7   0 241.166 116.153   7
  -7  -7  -1 131.158 85.0022   2
  -7  -7  -1 277.279 138.115   7
  -7  -7  -2 2484.92 354.402   2
  -7  -7  -2 2933.07 371.357   7
  -7  -7  -3 75.2228 107.460   2
  -7  -7  -3-16.6827 65.1968   7
  -7  -7  -4 871.843 233.324   2
  -7  -7  -4 508.971 176.321   7
  -7  -7  -5 190.267 133.075   7
  -7  -6   8 2291.66 404.659   6
  -7  -6   7 2596.27 357.328   2
  -7  -6   6 3650.15 418.185   2
  -7  -6   5 5092.32 491.916   2
  -7  -6   4 2213.77 326.674   2
  -7  -6   3 2324.18 326.031   2
  -7  -6   3 1984.93 275.494   7
  -7  -6   2 1524.93 274.417   2
  -7  -6   2 1718.74 256.295   7
  -7  -6   1 2563.87 351.280   2
  -7  -6   1 2438.13 303.579   7
  -7  -6   0 766.747 193.574   2
  -7  -6   0 685.886 164.938   7
  -7  -6  -1 1161.32 229.759   2
  -7  -6  -1 1312.02 231.266   7
  -7  -6  -2 602.576 185.492   2
  -7  -6  -2 564.896 159.027   7
  -7  -6  -3 2665.61 343.731   7
  -7  -6  -3 2514.35 363.204   2
  -7  -6  -4 696.879 197.211   2
  -7  -6  -4 869.900 225.114   7
  -7  -6  -5 480.965 162.842   2
  -7  -6  -5 207.070 105.696   7
  -7  -6  -6 1023.49 235.691   7
  -7  -5   8 619.309 186.776   2
  -7  -5   8 979.018 260.150   6
  -7  -5   7 1869.59 293.811   2
  -7  -5   6 4343.89 450.794   2
  -7  -5   5 2707.89 348.753   2
  -7  -5   4 1682.16 277.931   2
  -7  -5   3 5431.77 491.166   2
  -7  -5   2 803.000 200.319   2
  -7  -5   2 641.795 151.659   7
  -7  -5   1 1523.03 268.802   2
  -7  -5   1 1790.77 238.075   7
   7  -5  -1 1859.70 278.915   5
  -7  -5   0 218.065 102.982   2
  -7  -5   0 509.171 149.517   7
  -7  -5  -1 2408.04 297.059   7
  -7  -5  -1 2247.06 324.853   2
  -7  -5  -2-36.7992 60.4834   2
  -7  -5  -2 80.5343 66.3949   7
  -7  -5  -3 2596.38 327.556   7
  -7  -5  -3 2516.28 361.475   2
  -7  -5  -4 175.191 108.200   2
  -7  -5  -4 362.147 140.823   7
  -7  -5  -5 313.707 141.042   2
  -7  -5  -5 223.522 132.982   7
  -7  -5  -6 1064.06 261.450   2
  -7  -5  -6 1449.76 274.428   7
  -7  -4   9 4094.63 448.611   2
  -7  -4   9 4923.31 569.384   6
  -7  -4   8 644.291 189.001   2
  -7  -4   8 455.438 194.773   6
  -7  -4   7 2580.83 344.154   2
  -7  -4   6-77.1622 86.3626   2
  -7  -4   5 8291.28 597.323   2
  -7  -4   4 16787.9 843.084   2
  -7  -4   3 3119.59 368.061   2
   7  -4  -3 1994.78 317.827   5
  -7  -4   2 183.501 107.803   2
   7  -4  -2 509.680 172.414   5
  -7  -4   1 2334.07 321.501   2
   7  -4  -1 2122.24 314.425   5
   7  -4   0 1038.41 230.146   5
  -7  -4   0 1592.81 263.451   2
  -7  -4  -1 612.416 184.421   2
  -7  -4  -1 425.083 124.258   7
   7  -4   1 342.355 147.118   5
  -7  -4  -2 2682.07 300.757   7
   7  -4   2 2634.17 341.537   5
  -7  -4  -2 2371.46 341.959   2
  -7  -4  -3 249.050 159.254   2
  -7  -4  -3 70.3302 59.8802   7
  -7  -4  -4 2252.54 295.643   7
  -7  -4  -4 2775.14 388.544   2
  -7  -4  -5 2497.96 328.721   7
  -7  -4  -5 3610.52 445.501   2
  -7  -4  -6 52.9952 74.2627   2
  -7  -3  10 3678.61 417.255   2
  -7  -3   9 368.817 162.400   2
  -7  -3   9 153.614 110.766   6
  -7  -3   8 5478.75 491.569   2
  -7  -3   8 5411.46 566.666   6
  -7  -3   7 187.581 109.514   2
  -7  -3   7 322.025 154.687   6
  -7  -3   6 6053.91 503.508   2
  -7  -3   5 2396.65 314.678   2
  -7  -3   4 5501.35 476.396   2
   7  -3  -4 3832.03 444.670   5
  -7  -3   3 1121.36 216.822   2
   7  -3  -3 1394.07 266.758   5
  -7  -3   2 1952.04 290.841   2
   7  -3  -2 1591.05 281.362   5
   7  -3  -1 4835.60 475.875   5
  -7  -3   1 5354.56 485.041   2
  -7  -3   0 566.495 163.967   2
   7  -3   0 242.524 139.696   5
  -7  -3  -1 804.579 197.900   2
   7  -3   1 719.434 200.602   5
  -7  -3  -2 967.847 220.881   2
   7  -3   2 399.513 160.852   5
  -7  -3  -3 135.311 103.091   2
   7  -3   3 202.502 139.295   5
  -7  -3  -4 564.808 191.207   2
   7  -3   4 394.855 163.339   5
  -7  -3  -5 1424.11 280.420   2
  -7  -3  -6 1476.41 293.852   2
  -7  -2  11 1083.91 242.045   2
  -7  -2  10 722.377 198.066   2
  -7  -2   9 7265.27 560.883   2
  -7  -2   9 8222.50 700.955   6
  -7  -2   8 1493.55 258.297   2
  -7  -2   8 1155.30 272.951   6
  -7  -2   7 3825.26 398.663   2
  -7  -2   7 4230.83 481.331   6
  -7  -2   6 890.057 194.484   2
  -7  -2   5 14203.1 748.447   2
   7  -2  -5 11472.9 803.396   5
  -7  -2   4 1623.82 265.748   2
   7  -2  -4 2042.50 330.780   5
  -7  -2   3 1132.11 211.727   2
   7  -2  -3 965.402 241.265   5
  -7  -2   2 1735.95 273.808   2
   7  -2  -2 1591.39 293.201   5
  -7  -2   1 841.556 193.229   2
   7  -2  -1 1160.68 246.586   5
  -7  -2   0 1002.92 206.035   2
   7  -2   0 514.683 177.928   5
  -7  -2  -1 1000.62 212.289   2
   7  -2   1 1221.43 256.242   5
  -7  -2  -2 1271.71 250.814   2
   7  -2   2 1028.81 236.466   5
  -7  -2  -3 160.991 120.895   2
   7  -2   3 195.170 116.817   5
   7  -2   4 2185.05 366.139   5
  -7  -2  -4 2943.97 390.638   2
  -7  -2  -5 163.977 119.291   2
   7  -2   5-80.7442 118.801   5
  -7  -2  -6-6.51876 74.1085   2
   7  -2   6-28.5405 105.234   5
  -7  -1  11 352.671 159.974   2
  -7  -1  10 1012.48 212.947   2
  -7  -1  10 469.225 197.323   6
  -7  -1   9 576.287 163.520   2
  -7  -1   9 460.750 171.728   6
  -7  -1   8 3697.31 387.119   2
  -7  -1   8 3393.97 432.281   6
  -7  -1   7 2971.32 337.332   2
  -7  -1   7 2433.43 358.197   6
  -7  -1   6 1131.72 209.946   2
  -7  -1   6 1180.19 250.155   6
  -7  -1   5 1064.05 206.929   2
   7  -1  -5 1122.50 291.665   5
  -7  -1   4 2085.17 292.974   2
   7  -1  -4 2276.25 361.469   5
  -7  -1   3 1883.55 275.351   2
   7  -1  -3 1620.31 302.141   5
   7  -1  -2 1447.02 290.921   5
  -7  -1   2 1493.12 243.568   2
  -7  -1   1 797.999 185.141   2
   7  -1  -1 769.416 213.544   5
  -7  -1   0 688.215 179.594   2
   7  -1   0 742.038 228.121   5
  -7  -1  -1 1065.44 220.946   2
   7  -1   1 1173.47 249.275   5
  -7  -1  -2-1.18673 83.0108   2
   7  -1   2 60.1189 80.9818   5
  -7  -1  -3-38.4862 94.4950   2
   7  -1   3-32.9301 68.6099   5
  -7  -1  -4 1163.64 252.248   2
   7  -1   4 654.241 195.702   5
   7  -1   5 4714.72 555.430   5
  -7  -1  -5 3969.65 463.838   2
  -7  -1  -6 238.474 165.193   2
   7  -1   6 0.86925 109.202   5
   7  -1   7 574.321 218.286   5
   7  -1   8 238.696 195.055   5
  -7   0  10 6.38744 59.4795   2
  -7   0  10-73.8422 97.6759   6
  -7   0   9 3106.15 348.110   2
  -7   0   9 3658.01 462.107   6
  -7   0   8 583.181 153.852   2
  -7   0   8 758.755 224.637   6
  -7   0   7 1384.12 228.955   2
  -7   0   7 1155.75 243.946   6
  -7   0   6 320.002 116.259   2
  -7   0   6 452.815 133.677   6
   7   0  -6 623.558 210.851   5
  -7   0   5 2896.59 336.298   2
   7   0  -5 2318.38 371.059   5
  -7   0   4 242.394 101.950   2
   7   0  -4 146.713 105.901   5
  -7   0   3 4970.65 437.715   2
   7   0  -3 4425.19 510.592   5
   7   0  -2 1715.70 333.812   5
  -7   0   2 1783.31 266.135   2
   7   0  -1 1954.67 343.549   5
  -7   0   1 2206.52 301.551   2
  -7   0   0 122.068 87.1859   2
   7   0   0 103.761 98.2952   5
   7   0   1 2186.36 365.588   5
  -7   0  -1 2848.88 360.497   2
  -7   0  -2 2015.01 234.083   3
   7   0   2 2335.17 378.665   5
  -7   0  -2 1909.28 302.167   2
  -7   0  -3 120.869 100.191   2
  -7   0  -3 38.5883 56.3769   3
  -7   0  -4 1028.82 181.533   3
  -7   0  -4 1439.37 280.615   2
   7   0   4 1480.83 317.455   5
  -7   0  -5 91.4607 68.5248   3
   7   0   5 170.120 119.994   5
  -7   0  -6 684.133 172.696   3
   7   0   6 1111.24 295.055   5
  -7   0  -7 1990.08 297.544   3
   7   0   7 2410.06 441.369   5
   7   0   8 106.077 121.159   5
  -7   1  10 955.355 252.142   6
  -7   1   9 583.084 150.527   2
  -7   1   9 759.303 222.502   6
  -7   1   8 3346.95 344.962   2
  -7   1   8 3191.30 411.654   6
  -7   1   7 2424.05 294.236   2
  -7   1   7 2194.48 337.296   6
  -7   1   6 1037.91 197.134   2
  -7   1   6 962.638 229.670   6
   7   1  -6 998.627 283.491   5
  -7   1   5 1200.97 211.503   2
  -7   1   5 814.767 202.136   6
   7   1  -5 1138.13 287.040   5
  -7   1   4 2065.91 280.734   2
   7   1  -4 1950.24 345.887   5
   7   1  -3 1881.30 330.406   5
  -7   1   3 1785.03 263.085   2
   7   1  -2 1901.73 340.074   5
  -7   1   2 1474.77 237.416   2
  -7   1   1 929.852 204.166   2
   7   1  -1 669.776 207.548   5
  -7   1   0 714.533 177.898   2
   7   1   0 451.885 179.642   5
  -7   1  -1 1086.60 223.797   2
   7   1   1 1402.04 311.375   5
  -7   1  -2-22.0553 51.7743   2
   7   1   2 224.489 160.641   5
  -7   1  -3 129.794 91.5866   2
  -7   1  -3 20.3363 77.5346   3
   7   1   3-21.2704 85.1160   5
  -7   1  -4 944.319 185.184   3
   7   1   4 1295.30 296.338   5
  -7   1  -5 4592.19 427.203   3
   7   1   5 5241.96 611.322   5
  -7   1  -6-31.7051 72.5627   3
   7   1   6-67.4111 103.503   5
  -7   1  -7 732.086 190.751   3
   7   1   7 149.045 147.224   5
  -7   1  -8 704.775 203.881   3
  -7   2  10 87.6859 90.8108   6
  -7   2   9 6086.69 579.102   6
  -7   2   8 1890.44 254.696   2
  -7   2   8 2562.19 358.581   6
  -7   2   7 2863.04 314.207   2
  -7   2   7 3892.75 434.072   6
   7   2  -7 2818.68 443.250   5
  -7   2   6 772.625 159.700   2
  -7   2   6 808.199 195.934   6
   7   2  -6 712.946 225.666   5
  -7   2   5 13770.1 696.358   2
  -7   2   5 12325.8 739.241   6
   7   2  -5 13800.6 930.408   5
  -7   2   4 1644.58 245.633   2
  -7   2   4 1193.72 225.588   6
   7   2  -4 967.337 246.631   5
  -7   2   3 751.127 174.323   2
   7   2  -3 1229.44 296.691   5
   7   2  -2 1839.34 344.715   5
  -7   2   2 1975.29 276.788   2
  -7   2   1 953.765 202.505   2
   7   2  -1 1319.66 303.405   5
  -7   2   0 1143.29 220.173   2
   7   2   0 758.258 215.142   5
  -7   2  -1 835.843 202.496   2
   7   2   1 482.480 185.379   5
  -7   2  -2 1278.36 246.617   2
   7   2   2 1649.52 343.975   5
   7   2   3 233.356 156.572   5
  -7   2  -4 2288.17 307.750   3
   7   2   4 2659.87 435.302   5
  -7   2  -5 266.019 124.493   3
   7   2   5 234.308 182.836   5
  -7   2  -6 189.587 114.401   3
   7   2   6-160.483 107.721   5
  -7   2  -7 212.467 123.167   3
   7   2   7 389.556 222.849   5
  -7   2  -8 84.1686 114.675   3
  -7   3   9 219.437 143.976   6
  -7   3   8 5304.70 522.221   6
  -7   3   7 505.732 125.736   2
  -7   3   7 542.734 185.769   6
   7   3  -7 550.864 216.223   5
  -7   3   6 5281.57 414.250   2
  -7   3   6 5122.77 474.390   6
   7   3  -6 6323.88 648.747   5
  -7   3   5 2348.76 280.973   2
  -7   3   5 1997.66 289.928   6
   7   3  -5 1786.74 351.109   5
  -7   3   4 4464.34 395.400   2
  -7   3   4 3905.36 392.382   6
   7   3  -4 4346.90 536.686   5
  -7   3   3 1386.98 224.808   6
   7   3  -3 737.863 232.776   5
  -7   3   3 1298.65 217.132   2
  -7   3   2 1356.19 220.841   6
   7   3  -2 1686.19 331.708   5
   7   3  -1 4501.58 543.812   5
  -7   3   1 4783.13 447.517   2
  -7   3   0 502.121 150.960   2
   7   3   0 632.260 220.621   5
  -7   3  -1 1095.98 225.297   2
   7   3   1 600.892 196.412   5
  -7   3  -2 937.061 219.798   2
   7   3   2 462.715 215.417   5
   7   3   3-31.0476 97.3537   5
   7   3   4 544.673 220.917   5
  -7   3  -5 2649.39 354.433   3
   7   3   5 1916.23 392.463   5
  -7   3  -6 1183.59 239.336   3
   7   3   6 1157.82 322.238   5
  -7   3  -7 222.206 121.542   3
  -7   4   8 453.325 150.879   6
  -7   4   7 2146.75 314.517   6
   7   4  -7 2108.39 397.997   5
  -7   4   6-0.54962 49.1695   6
   7   4  -6 106.359 112.527   5
  -7   4   5 8129.17 511.112   2
  -7   4   5 7583.24 562.285   6
   7   4  -5 9021.99 785.623   5
  -7   4   4 14773.7 709.903   2
  -7   4   4 14346.6 735.765   6
   7   4  -4 16760.7 1065.17   5
  -7   4   3 2966.85 326.808   6
   7   4  -3 2771.47 431.562   5
  -7   4   3 2832.34 319.714   2
  -7   4   2 255.012 119.860   2
  -7   4   2 451.310 128.605   6
   7   4  -2 439.778 182.991   5
   7   4  -1 2231.43 332.165   4
  -7   4   1 2077.78 254.542   6
   7   4  -1 1738.31 354.111   5
  -7   4   1 2500.70 319.663   2
   7   4   0 1601.81 305.201   1
   7   4   0 1373.09 283.422   4
  -7   4   0 1317.18 249.739   2
   7   4   0 1298.18 325.052   5
  -7   4  -1 419.226 151.492   2
   7   4   1 472.204 184.485   1
   7   4   1 395.999 152.818   4
   7   4   1 466.236 192.644   5
   7   4   2 2304.94 364.756   4
   7   4   2 2236.42 360.894   1
   7   4   2 2114.32 386.643   5
   7   4   3 43.6230 143.169   1
   7   4   3 113.161 119.340   4
   7   4   3 482.464 216.907   5
   7   4   4 2065.66 387.722   1
   7   4   4 2381.53 398.029   4
   7   4   4 2041.85 400.996   5
   7   4   5 2944.06 446.867   4
   7   4   5 3660.50 531.349   1
   7   4   5 3045.76 516.546   5
   7   4   6 74.4394 107.166   1
   7   4   6 325.156 194.436   4
  -7   4  -6 198.115 129.563   3
   7   4   6 139.837 136.856   5
  -7   4  -7 1198.86 270.876   3
  -7   5   7 1413.48 262.369   6
   7   5  -7 1555.21 357.722   5
  -7   5   6 3304.81 375.448   6
   7   5  -6 3856.73 524.765   5
  -7   5   5 2766.58 329.116   6
   7   5  -5 2015.84 396.438   5
  -7   5   4 1265.43 222.841   6
   7   5  -4 2031.04 382.080   5
   7   5  -3 5222.71 521.354   4
  -7   5   3 5348.29 430.949   6
   7   5  -3 5806.60 582.574   1
   7   5  -3 5419.70 616.239   5
  -7   5   3 4745.67 409.170   2
  -7   5   2 674.047 167.494   2
   7   5  -2 1070.80 248.835   4
   7   5  -2 877.832 220.924   1
  -7   5   2 652.115 151.329   6
   7   5  -2 1160.64 298.804   5
   7   5  -1 1451.93 308.599   1
   7   5  -1 1575.43 297.504   4
  -7   5   1 1519.92 247.436   2
   7   5  -1 1824.15 355.200   5
  -7   5   0 513.487 163.734   2
   7   5   0 288.997 156.526   1
   7   5   0 415.081 146.754   4
   7   5   0 826.058 248.771   5
   7   5   1 1544.20 331.263   1
   7   5   1 1946.17 345.241   4
  -7   5  -1 2559.34 338.368   2
   7   5   1 1314.36 297.853   5
   7   5   2-67.3670 148.350   1
   7   5   2 34.7539 94.6515   4
   7   5   2 225.487 173.085   5
   7   5   3 2133.62 406.436   1
   7   5   3 2053.04 381.651   4
   7   5   3 2276.37 424.102   5
   7   5   4 343.526 226.628   1
   7   5   4-55.4939 162.208   4
   7   5   4 192.264 158.543   5
   7   5   5 489.100 240.010   1
   7   5   5 559.333 249.889   4
   7   5   5 7.47264 132.519   5
   7   5   6 1197.96 325.472   1
   7   5   6 1194.44 308.969   4
  -7   5  -6 1290.99 301.255   3
   7   6  -7 2711.11 462.900   5
   7   6  -6 4214.76 556.086   5
  -7   6   5 6154.25 484.051   6
   7   6  -5 7276.23 728.078   5
   7   6  -4 2459.58 388.053   4
  -7   6   4 2049.56 266.848   6
   7   6  -4 2851.51 456.149   1
   7   6  -4 2705.71 456.714   5
   7   6  -3 2766.67 420.472   4
   7   6  -3 1644.72 340.007   1
   7   6  -3 2498.63 438.999   5
   7   6  -2 1098.78 294.698   1
   7   6  -2 1652.45 325.644   4
  -7   6   2 1310.57 221.175   2
   7   6  -2 1528.23 339.459   5
   7   6  -1 1564.08 348.114   1
   7   6  -1 2230.18 374.363   4
   7   6  -1 2873.56 459.020   5
  -7   6   1 2647.85 327.883   2
  -7   6   0 842.798 192.749   2
   7   6   0 704.495 251.256   1
   7   6   0 566.439 186.359   4
   7   6   0 425.065 197.649   5
   7   6   1 1751.46 379.775   1
   7   6   1 1461.42 344.981   4
  -7   6  -1 2042.17 321.274   2
   7   6   1 1805.45 370.076   5
   7   6   2 333.378 177.111   1
   7   6   2 221.987 136.573   4
   7   6   2 334.910 190.221   5
   7   6   3 1849.48 374.396   4
   7   6   3 2278.60 457.970   1
   7   6   3 2331.46 453.158   5
   7   6   4 1004.15 317.820   1
   7   6   4 351.031 205.926   4
   7   6   4 480.122 213.433   5
   7   6   5 207.487 175.110   1
   7   6   5 388.748 199.733   4
   7   6   6 1864.93 455.430   1
   7   6   6 1425.24 367.239   4
   7   7  -7 486.732 194.470   5
   7   7  -6 995.855 285.927   5
   7   7  -5 190.124 139.776   4
   7   7  -5 144.853 109.165   1
   7   7  -5 451.774 199.288   5
   7   7  -4 97.9996 112.531   4
   7   7  -4 399.386 218.754   1
   7   7  -4 273.710 168.109   5
   7   7  -3 265.434 171.222   4
   7   7  -3 372.482 204.191   1
   7   7  -3 115.213 93.7224   5
   7   7  -2 1070.84 297.442   1
   7   7  -2 1000.42 286.047   4
   7   7  -2 1586.97 375.708   5
   7   7  -1 509.392 219.142   1
   7   7  -1 495.779 217.898   4
   7   7  -1 586.144 235.670   5
  -7   7   0 288.741 146.807   2
   7   7   0 256.619 226.085   1
   7   7   0 96.1784 119.768   4
   7   7   0 180.816 199.004   5
  -7   7  -1 50.3032 86.1702   2
   7   7   1 72.4136 127.669   1
   7   7   1 299.694 188.645   4
   7   7   1 30.1415 109.676   5
   7   7   2 2763.87 469.324   4
   7   7   2 3158.09 534.244   1
   7   7   2 3733.76 569.245   5
   7   7   3 309.279 204.803   1
   7   7   3 136.813 146.590   4
   7   7   3 104.373 119.569   5
   7   7   4 787.223 301.385   1
   7   7   4 85.3077 169.893   4
   7   7   5 322.434 247.263   1
   7   7   5-40.3493 186.618   4
   7   8  -6 135.712 163.486   4
   7   8  -6 225.198 146.029   5
   7   8  -5 1295.16 329.729   4
   7   8  -5 2147.69 443.750   1
   7   8  -5 2630.08 464.008   5
   7   8  -4 185.095 140.216   4
   7   8  -4 368.239 238.665   1
   7   8  -4 501.307 234.656   5
   7   8  -3 497.564 243.617   4
   7   8  -3 991.275 326.971   1
   7   8  -3 675.702 247.530   5
   7   8  -2 42.9247 155.031   1
   7   8  -2 93.2744 146.649   4
   7   8  -2 276.184 181.933   5
   7   8  -1 131.702 168.945   1
   7   8  -1 71.0917 117.665   4
   7   8  -1 319.533 195.533   5
   7   8   0 1161.56 349.637   1
   7   8   0 1405.80 340.419   4
   7   8   0 408.723 198.280   5
   7   8   1 498.234 270.390   1
   7   8   1 197.223 194.981   4
   7   8   1 88.9057 165.010   5
   7   8   2 669.097 301.019   1
   7   8   2 949.760 314.541   4
   7   8   3 550.301 269.837   1
   7   8   3 884.209 316.061   4
   7   8   4 425.549 271.856   1
   7   8   4 153.093 167.015   4
   7   9  -5 1661.71 418.811   4
   7   9  -5 2211.97 477.106   1
   7   9  -4 2710.87 493.277   4
   7   9  -4 2015.39 462.982   1
   7   9  -3 4377.78 631.582   4
   7   9  -3 6111.22 774.680   1
   7   9  -3 6158.66 721.718   5
   7   9  -2 109.151 164.031   4
   7   9  -2 171.804 158.589   1
   7   9  -2 225.921 207.685   5
   7   9  -1 964.581 347.637   1
   7   9  -1 797.812 275.514   4
   7   9   0 896.659 315.928   1
   7   9   0 908.383 296.770   4
   7   9   1 1320.37 399.712   1
   7   9   1 762.497 336.971   4
   7   9   2 873.866 357.659   1
   7   9   2 1396.40 405.777   4
  -8  -6   3 127.259 103.301   2
  -8  -6   2 566.267 191.137   2
  -8  -6   1 3133.11 415.885   2
  -8  -6   0 264.281 145.732   2
  -8  -5   5 3955.26 457.567   2
  -8  -5   4 1320.76 269.366   2
  -8  -5   3 146.907 123.890   2
  -8  -5   2 1648.42 301.040   2
  -8  -5   1 1845.62 326.218   2
  -8  -5   0 814.364 215.558   2
  -8  -5  -1 2323.43 358.018   2
  -8  -5  -2 4339.14 507.250   2
  -8  -4   6 822.980 210.329   2
  -8  -4   5 5036.31 500.497   2
  -8  -4   4 240.506 139.621   2
  -8  -4   3 7384.23 625.868   2
   8  -4  -3 6075.93 580.365   5
  -8  -4   2 892.822 229.622   2
   8  -4  -2 513.013 193.272   5
  -8  -4   1 2553.23 370.715   2
   8  -4  -1 2596.47 383.590   5
  -8  -4   0 287.728 129.783   2
  -8  -4  -1 1727.08 312.794   2
  -8  -4  -2 2006.70 342.791   2
  -8  -4  -3 1029.86 269.428   2
  -8  -3   8 1681.47 286.380   2
  -8  -3   7 4316.78 469.235   2
  -8  -3   7 4567.01 561.093   6
  -8  -3   6 2396.39 348.587   2
  -8  -3   5 779.723 193.136   2
  -8  -3   4 9600.39 692.703   2
   8  -3  -4 9397.20 767.744   5
  -8  -3   3 582.592 160.990   2
   8  -3  -3 1012.52 243.274   5
  -8  -3   2 5993.73 556.442   2
   8  -3  -2 6758.70 624.230   5
  -8  -3   1 365.387 149.988   2
   8  -3  -1 29.8554 115.490   5
  -8  -3   0 1168.82 263.282   2
   8  -3   0 973.080 261.490   5
  -8  -3  -1 603.087 197.710   2
   8  -3   1 986.979 257.976   5
   8  -3   2 4289.19 506.063   5
  -8  -3  -2 4710.95 519.814   2
  -8  -3  -3 4706.50 532.791   2
  -8  -2   8 1156.34 245.141   2
  -8  -2   7 1440.56 268.194   2
  -8  -2   7 2007.27 373.876   6
  -8  -2   6 173.988 112.047   2
  -8  -2   5 804.364 201.717   2
   8  -2  -5 664.781 222.242   5
  -8  -2   4 705.749 203.236   2
   8  -2  -4 415.308 181.510   5
  -8  -2   3 1151.98 239.725   2
   8  -2  -3 1325.69 288.733   5
  -8  -2   2 3333.83 410.027   2
   8  -2  -2 3161.68 445.309   5
   8  -2  -1 2160.80 363.100   5
  -8  -2   1 2380.86 358.454   2
   8  -2   0 3555.86 476.104   5
  -8  -2   0 3249.42 417.610   2
  -8  -2  -1 132.284 109.077   2
   8  -2   1 636.284 227.439   5
  -8  -2  -2 3015.99 411.295   2
   8  -2   2 2156.20 382.401   5
   8  -2   3 6021.25 647.490   5
  -8  -2  -3 7782.01 678.391   2
  -8  -2  -4 1217.90 267.327   2
   8  -2   4 962.116 265.571   5
  -8  -1   9 648.603 179.986   2
  -8  -1   8 2884.79 376.011   2
  -8  -1   8 2745.42 431.904   6
  -8  -1   7 790.008 195.910   2
  -8  -1   7 1573.07 327.944   6
  -8  -1   6 2687.72 357.523   2
  -8  -1   6 2863.64 416.403   6
  -8  -1   5 2759.59 361.034   2
   8  -1  -5 1715.46 345.347   5
  -8  -1   4 1972.47 310.765   2
   8  -1  -4 2325.68 391.747   5
  -8  -1   3 210.430 123.452   2
   8  -1  -3 19.5079 104.440   5
  -8  -1   2 2664.52 360.930   2
   8  -1  -2 1882.55 346.007   5
   8  -1  -1 3832.24 498.478   5
  -8  -1   1 2938.76 378.057   2
  -8  -1   0 478.003 179.045   2
   8  -1   0 185.405 127.237   5
  -8  -1  -1 228.565 112.464   2
   8  -1   1 90.5880 94.9062   5
  -8  -1  -2 1003.10 244.697   2
   8  -1   2 1028.18 291.957   5
  -8  -1  -3 441.822 174.368   2
   8  -1   3 222.360 168.366   5
  -8  -1  -4 18.4064 79.7376   2
   8  -1   4-46.8569 106.070   5
   8  -1   5 14.4209 133.288   5
  -8   0   9 1083.93 222.896   2
  -8   0   8 1635.61 274.360   2
  -8   0   8 1764.05 339.522   6
  -8   0   7 4877.58 468.091   2
  -8   0   7 6406.84 623.638   6
  -8   0   6 116.142 94.4990   2
  -8   0   6 84.9173 100.947   6
   8   0  -6 157.984 142.779   5
  -8   0   5 404.737 150.776   2
  -8   0   5 537.304 184.357   6
   8   0  -5 488.468 196.786   5
  -8   0   4 158.833 92.3757   2
   8   0  -4 6.02035 103.165   5
  -8   0   3 1291.73 253.491   2
   8   0  -3 899.601 250.259   5
  -8   0   2 139.027 96.1357   2
   8   0  -2 14.4461 82.6598   5
  -8   0   1 626.303 186.328   2
   8   0  -1 858.607 254.713   5
  -8   0   0 182.210 132.067   2
   8   0   0 175.681 118.138   5
  -8   0  -1 319.803 161.713   2
   8   0   1 403.905 209.284   5
  -8   0  -2 490.682 189.632   2
   8   0   2 636.666 227.134   5
  -8   0  -3 187.561 135.976   2
   8   0   3 0.92704 95.7063   5
  -8   0  -4 309.588 163.080   2
   8   0   4 246.830 125.855   5
   8   0   5 1004.93 303.593   5
   8   0   6 75.2395 164.708   5
  -8   1   8 2345.47 319.317   2
  -8   1   8 2780.85 423.766   6
  -8   1   7 1117.01 222.759   2
  -8   1   7 1341.41 284.824   6
  -8   1   6 2770.74 343.652   2
  -8   1   6 2423.75 373.474   6
   8   1  -6 2553.12 439.573   5
  -8   1   5 2764.53 349.728   2
  -8   1   5 3382.55 424.946   6
   8   1  -5 3155.37 467.776   5
  -8   1   4 1338.48 248.233   2
   8   1  -4 2022.03 381.042   5
  -8   1   3 12.2365 67.3642   2
   8   1  -3-23.2483 97.7651   5
   8   1  -2 1881.52 365.966   5
  -8   1   2 2654.39 356.273   2
   8   1  -1 3816.19 526.825   5
  -8   1   1 3471.08 418.321   2
  -8   1   0 609.316 191.738   2
   8   1   0 278.501 161.738   5
  -8   1  -1 231.474 95.6469   2
   8   1   1 73.6499 115.260   5
  -8   1  -2 881.286 226.541   2
   8   1   2 487.552 208.204   5
  -8   1  -3 212.566 136.545   2
   8   1   3 588.289 225.020   5
  -8   1  -4 115.896 92.1949   2
   8   1   4 51.6060 106.131   5
   8   1   5 31.3890 150.574   5
  -8   2   8 1362.04 290.479   6
  -8   2   7 1769.67 272.649   2
  -8   2   7 1949.50 334.373   6
   8   2  -7 1062.24 316.728   5
  -8   2   6 17.4035 74.7477   2
  -8   2   6-16.0921 63.1596   6
   8   2  -6 28.5407 124.855   5
  -8   2   5 994.678 206.901   2
  -8   2   5 839.208 208.974   6
   8   2  -5 1181.69 319.321   5
  -8   2   4 1063.15 230.100   2
  -8   2   4 639.832 188.647   6
   8   2  -4 973.497 269.184   5
  -8   2   3 1298.86 248.388   2
  -8   2   3 1233.24 247.378   6
   8   2  -3 1329.00 332.280   5
   8   2  -2 2826.64 458.992   5
  -8   2   2 2648.82 359.587   2
   8   2  -1 2603.57 453.723   5
  -8   2   1 2436.85 353.149   2
   8   2   0 4375.81 593.237   5
  -8   2   0 3582.71 436.737   2
  -8   2  -1 274.575 132.983   2
   8   2   1 373.568 199.275   5
   8   2   2 2335.26 447.805   5
  -8   2  -2 3001.34 410.656   2
   8   2   3 5897.39 694.136   5
  -8   2  -3 6412.61 618.188   2
  -8   2  -4 1526.43 319.965   2
   8   2   4 585.014 197.123   5
  -8   3   8 1836.15 328.953   6
  -8   3   7 4239.62 484.717   6
   8   3  -7 4130.28 602.566   5
  -8   3   6 2576.49 370.111   6
   8   3  -6 2699.58 468.484   5
  -8   3   5 295.040 114.596   2
   8   3  -5 95.4975 91.1358   5
  -8   3   4 8354.74 599.241   2
  -8   3   4 9705.81 693.904   6
   8   3  -4 10974.4 926.911   5
  -8   3   3 504.725 143.182   2
  -8   3   3 694.233 182.320   6
   8   3  -3 446.395 186.296   5
  -8   3   2 6754.05 539.937   6
   8   3  -2 6576.10 704.973   5
  -8   3   2 7485.88 588.423   2
  -8   3   1 127.459 116.802   2
   8   3  -1 151.927 105.798   5
  -8   3   0 1435.04 284.397   2
   8   3   0 1238.52 325.520   5
  -8   3  -1 222.905 113.798   2
   8   3   1 763.518 273.017   5
   8   3   2 4124.42 583.279   5
  -8   3  -2 5141.19 543.024   2
   8   3   3 4194.35 600.949   5
  -8   3  -3 3930.08 482.247   2
  -8   3  -4 3084.31 393.153   3
   8   3   4 3873.42 582.728   5
  -8   3  -4 3370.37 460.865   2
  -8   3  -5 574.309 183.758   3
  -8   4   8 1695.10 313.161   6
  -8   4   7 3780.83 456.173   6
  -8   4   6 722.349 212.467   6
   8   4  -6 902.493 299.931   5
  -8   4   5 4546.89 470.133   6
   8   4  -5 4033.72 573.965   5
  -8   4   4 57.2526 65.7131   2
  -8   4   4 68.1743 69.4465   6
   8   4  -4 156.225 158.118   5
  -8   4   3 8101.73 584.189   6
   8   4  -3 7901.90 784.255   5
  -8   4   3 7968.73 594.867   2
  -8   4   2 884.369 212.428   2
  -8   4   2 721.248 187.520   6
   8   4  -2 425.087 174.370   5
   8   4  -1 3102.74 515.515   5
  -8   4   1 2532.31 361.350   2
  -8   4   0 380.225 150.479   2
   8   4   0 16.4172 96.7358   5
  -8   4  -1 1415.90 283.045   2
   8   4   1 1544.90 363.941   5
  -8   4  -2 1986.50 332.184   2
   8   4   2 2074.46 432.979   5
  -8   4  -3 786.088 227.423   2
   8   4   3 549.300 237.888   5
  -8   4  -5 100.338 108.140   3
  -8   5   7 802.504 208.294   6
  -8   5   6 290.987 137.564   6
  -8   5   5 4166.53 435.515   6
   8   5  -5 4667.51 635.734   5
  -8   5   4 1427.01 249.777   6
   8   5  -4 1328.91 352.422   5
   8   5  -3 300.145 198.440   5
  -8   5   2 1417.93 258.013   2
   8   5  -2 1133.68 329.824   5
  -8   5   1 2315.80 329.471   2
   8   5  -1 2183.53 426.731   5
  -8   5   0 1032.48 235.745   2
   8   5   0 1028.01 324.322   5
  -8   5  -1 2218.93 357.916   2
   8   5   1 1773.53 407.503   5
  -8   5  -2 4352.76 511.413   2
  -8   5  -3 1442.93 307.834   2
   8   6  -3 73.5428 104.359   5
   8   6  -2 569.677 233.984   5
   8   6  -1 2172.98 443.780   5
  -8   6   0 359.126 159.328   2
  -8   6  -1 3134.09 435.940   2
  -8   6  -2 678.394 206.687   2
   9  -3  -3 478.921 206.961   5
   9  -3  -2 319.270 194.556   5
   9  -2  -4 2537.50 438.242   5
   9  -2  -3 1646.92 342.817   5
   9  -2  -2 1196.90 304.738   5
   9  -2  -1 8449.98 786.713   5
   9  -2   0 419.085 214.728   5
   9  -2   1 1012.82 269.025   5
  -9  -1   5 332.284 167.189   2
   9  -1  -5 44.2411 117.593   5
  -9  -1   4 2103.98 356.706   2
   9  -1  -4 2406.41 442.071   5
  -9  -1   3 116.599 129.734   2
   9  -1  -3 430.083 187.153   5
  -9  -1   2 1803.41 327.306   2
   9  -1  -2 1996.98 427.501   5
   9  -1  -1 337.246 176.503   5
   9  -1   0 3994.57 561.405   5
   9  -1   1 815.792 275.633   5
   9  -1   2 181.411 184.879   5
  -9   0   6 2859.47 384.377   2
  -9   0   5 4497.13 492.187   2
  -9   0   4 241.273 126.314   2
   9   0  -4 471.381 230.958   5
  -9   0   3 41.0656 104.903   2
   9   0  -3-27.9518 134.761   5
  -9   0   2 145.040 117.967   2
   9   0  -2 640.724 253.024   5
  -9   0   1 785.667 222.854   2
   9   0  -1 549.812 223.318   5
   9   0   0 541.786 252.405   5
   9   0   1 968.946 291.015   5
   9   0   2 808.068 308.143   5
  -9   1   6 1692.34 296.820   2
  -9   1   5 1395.29 252.505   2
  -9   1   5 289.201 165.526   6
  -9   1   4 2272.01 343.969   2
  -9   1   4 2454.86 385.471   6
  -9   1   3 708.745 212.730   2
   9   1  -3 461.660 219.626   5
  -9   1   2 1463.28 283.769   2
   9   1  -2 2437.44 445.828   5
  -9   1   1 305.790 154.122   2
   9   1  -1 292.741 211.775   5
   9   1   0 4181.49 600.777   5
  -9   1   0 3962.50 493.861   2
   9   1   1 691.493 293.855   5
  -9   2   5 2715.83 381.850   2
  -9   2   5 3593.04 468.073   6
  -9   2   4 1956.83 319.711   2
  -9   2   4 1713.40 327.614   6
  -9   2   3 2206.25 347.382   2
  -9   2   3 1900.07 326.249   6
  -9   2   2 1168.05 251.681   2
  -9   2   1 9662.60 750.013   2
  -9   2   0 315.770 156.864   2
  -9   3   5 537.517 181.537   6
  -9   3   4 864.466 224.814   2
  -9   3   4 670.443 210.820   6
  -9   3   3 623.579 202.006   2
  -9   3   3 403.603 144.361   6
  -9   3   2 512.429 185.410   2
  -9   3   1 1619.33 319.957   2
  -9   3   0 2057.29 369.382   2
  -9   4   2 5134.89 530.939   2
  -9   4   1 748.288 220.084   2
   0   0   0    0.00    0.00   0

TITL SRK-AF-202_Mo in P2(1)
REM P2(1) (#4 in standard setting)
CELL 0.71073   6.576041  10.058753  10.218093  90.0000  98.5269  90.0000
ZERR    2.00   0.000226   0.000322   0.000369   0.0000   0.0033   0.0000
LATT -1
SYMM -x, y+1/2,-z
SFAC C H O
UNIT 36.00 40.00 2.00
TREF
HKLF 4
END
;
_shelx_hkl_checksum              36605
_olex2_submission_special_instructions 'No special instructions were received'
_oxdiff_exptl_absorpt_empirical_details
;
Empirical correction (ABSPACK) includes:
- Absorption correction using spherical harmonics
- Frame scaling
- Detector area scaling
;
_oxdiff_exptl_absorpt_empirical_full_max 1.611
_oxdiff_exptl_absorpt_empirical_full_min 0.577
loop_
_space_group_symop_operation_xyz
'x, y, z'
'-x, y+1/2, -z'
loop_
_atom_site_label
_atom_site_type_symbol
_atom_site_fract_x
_atom_site_fract_y
_atom_site_fract_z
_atom_site_U_iso_or_equiv
_atom_site_adp_type
_atom_site_occupancy
_atom_site_site_symmetry_order
_atom_site_calc_flag
_atom_site_refinement_flags_posn
O2 O -0.4093(2) -0.44712(16) -0.24993(18) 0.0290(4) Uani 1 1 d .
C3 C -0.7468(3) -0.3747(2) -0.2088(2) 0.0200(5) Uani 1 1 d .
C5 C -0.5265(3) -0.3563(2) -0.2364(2) 0.0212(5) Uani 1 1 d .
C7 C -0.7495(3) -0.4230(2) -0.0624(2) 0.0240(5) Uani 1 1 d .
H7 H -0.733037 -0.520797 -0.047071 0.029 Uiso 1 1 calc R
C10 C -0.8737(3) -0.4675(2) -0.3110(2) 0.0248(5) Uani 1 1 d .
H10A H -1.020228 -0.460985 -0.299568 0.030 Uiso 1 1 calc R
H10B H -0.861711 -0.434823 -0.400977 0.030 Uiso 1 1 calc R
C12 C -0.4703(3) -0.2105(2) -0.2439(2) 0.0219(5) Uani 1 1 d .
H12 H -0.358462 -0.185201 -0.170864 0.026 Uiso 1 1 calc R
C13 C -0.8359(3) -0.2308(2) -0.2065(2) 0.0215(5) Uani 1 1 d .
H13 H -0.963143 -0.222014 -0.272907 0.026 Uiso 1 1 calc R
C16 C -0.8115(4) -0.6111(2) -0.3021(3) 0.0289(6) Uani 1 1 d .
H16 H -0.675750 -0.632976 -0.315820 0.035 Uiso 1 1 calc R
C18 C -0.6706(3) -0.1302(2) -0.2366(2) 0.0228(5) Uani 1 1 d .
H18 H -0.645915 -0.062046 -0.164742 0.027 Uiso 1 1 calc R
C19 C -0.9563(3) -0.3633(2) -0.0380(3) 0.0277(5) Uani 1 1 d .
H19A H -0.985254 -0.378325 0.053176 0.033 Uiso 1 1 calc R
H19B H -1.073663 -0.393380 -0.103363 0.033 Uiso 1 1 calc R
C22 C -0.8898(4) -0.2195(2) -0.0619(2) 0.0261(5) Uani 1 1 d .
H22 H -0.991156 -0.148763 -0.047801 0.031 Uiso 1 1 calc R
C23 C -0.6870(4) -0.2153(2) 0.0303(2) 0.0274(5) Uani 1 1 d .
H23 H -0.630824 -0.140924 0.080412 0.033 Uiso 1 1 calc R
C25 C -0.4137(4) -0.1726(3) -0.3824(3) 0.0265(5) Uani 1 1 d .
H25 H -0.311900 -0.231651 -0.417478 0.032 Uiso 1 1 calc R
C28 C -0.7067(4) -0.0609(2) -0.3752(2) 0.0273(5) Uani 1 1 d .
H28 H -0.848681 -0.026433 -0.404911 0.033 Uiso 1 1 calc R
C29 C -0.6029(4) -0.3347(3) 0.0278(2) 0.0280(5) Uani 1 1 d .
H29 H -0.473146 -0.360653 0.074493 0.034 Uiso 1 1 calc R
C31 C -0.6288(4) -0.1662(3) -0.4644(2) 0.0272(5) Uani 1 1 d .
H31A H -0.626941 -0.134380 -0.555918 0.033 Uiso 1 1 calc R
H31B H -0.704579 -0.251267 -0.465212 0.033 Uiso 1 1 calc R
C33 C -0.3614(4) -0.0261(3) -0.3734(3) 0.0309(6) Uani 1 1 d .
H33 H -0.228273 0.011450 -0.370595 0.037 Uiso 1 1 calc R
C35 C -0.9322(4) -0.7081(3) -0.2767(3) 0.0347(6) Uani 1 1 d .
H35A H -1.068895 -0.689623 -0.262444 0.042 Uiso 1 1 calc R
H35B H -0.883134 -0.797071 -0.272389 0.042 Uiso 1 1 calc R
C36 C -0.5342(4) 0.0402(3) -0.3701(3) 0.0328(6) Uani 1 1 d .
H36 H -0.547928 0.133992 -0.365393 0.039 Uiso 1 1 calc R
loop_
_atom_site_aniso_label
_atom_site_aniso_U_11
_atom_site_aniso_U_22
_atom_site_aniso_U_33
_atom_site_aniso_U_23
_atom_site_aniso_U_13
_atom_site_aniso_U_12
O2 0.0240(8) 0.0265(10) 0.0375(10) 0.0010(8) 0.0083(7) 0.0057(7)
C3 0.0203(10) 0.0197(11) 0.0207(11) -0.0026(9) 0.0050(8) -0.0006(9)
C5 0.0222(10) 0.0241(12) 0.0170(11) 0.0010(9) 0.0023(8) 0.0024(9)
C7 0.0293(12) 0.0200(11) 0.0237(12) 0.0006(9) 0.0078(9) -0.0001(9)
C10 0.0254(11) 0.0245(13) 0.0251(12) -0.0050(10) 0.0055(8) -0.0026(9)
C12 0.0184(10) 0.0244(13) 0.0226(11) 0.0008(10) 0.0023(8) -0.0030(9)
C13 0.0204(11) 0.0197(12) 0.0247(12) 0.0007(10) 0.0045(8) 0.0019(9)
C16 0.0281(12) 0.0278(13) 0.0325(14) -0.0108(11) 0.0104(10) -0.0023(10)
C18 0.0271(12) 0.0180(12) 0.0241(12) -0.0012(9) 0.0060(9) 0.0003(9)
C19 0.0294(12) 0.0265(13) 0.0299(12) -0.0033(10) 0.0132(9) -0.0030(10)
C22 0.0274(12) 0.0252(12) 0.0285(12) -0.0033(11) 0.0129(9) 0.0017(10)
C23 0.0366(13) 0.0249(12) 0.0222(12) -0.0047(10) 0.0099(10) -0.0079(10)
C25 0.0262(12) 0.0271(13) 0.0281(13) 0.0010(10) 0.0107(9) 0.0019(10)
C28 0.0288(12) 0.0234(12) 0.0302(13) 0.0050(10) 0.0061(9) 0.0047(10)
C29 0.0333(12) 0.0324(14) 0.0182(11) 0.0022(10) 0.0036(9) -0.0026(11)
C31 0.0302(12) 0.0286(13) 0.0231(12) 0.0021(10) 0.0047(9) 0.0001(10)
C33 0.0347(13) 0.0310(13) 0.0286(13) 0.0046(11) 0.0102(10) -0.0089(11)
C35 0.0414(14) 0.0286(14) 0.0356(15) -0.0038(12) 0.0105(11) -0.0033(11)
C36 0.0486(15) 0.0220(13) 0.0302(13) 0.0053(11) 0.0140(11) -0.0001(11)
loop_
_atom_type_symbol
_atom_type_description
_atom_type_scat_dispersion_real
_atom_type_scat_dispersion_imag
_atom_type_scat_source
C C 0.0033 0.0016 'International Tables Vol C Tables 4.2.6.8 and 6.1.1.4'
H H 0.0000 0.0000 'International Tables Vol C Tables 4.2.6.8 and 6.1.1.4'
O O 0.0106 0.0060 'International Tables Vol C Tables 4.2.6.8 and 6.1.1.4'
loop_
_geom_angle_atom_site_label_1
_geom_angle_atom_site_label_2
_geom_angle_atom_site_label_3
_geom_angle
C5 C3 C7 110.92(17)
C5 C3 C10 112.30(18)
C5 C3 C13 105.01(17)
C10 C3 C7 111.95(18)
C10 C3 C13 113.72(17)
C13 C3 C7 102.33(16)
O2 C5 C3 124.4(2)
O2 C5 C12 123.86(19)
C12 C5 C3 111.76(18)
C19 C7 C3 99.70(18)
C29 C7 C3 107.51(18)
C29 C7 C19 99.83(19)
C16 C10 C3 115.1(2)
C5 C12 C18 106.57(17)
C5 C12 C25 111.96(19)
C18 C12 C25 103.53(18)
C3 C13 C22 102.60(17)
C18 C13 C3 109.01(17)
C18 C13 C22 113.69(19)
C35 C16 C10 124.2(2)
C12 C18 C28 101.73(17)
C13 C18 C12 107.15(18)
C13 C18 C28 117.01(19)
C7 C19 C22 93.55(17)
C19 C22 C13 100.95(19)
C23 C22 C13 106.61(18)
C23 C22 C19 99.91(19)
C29 C23 C22 107.1(2)
C31 C25 C12 100.41(17)
C33 C25 C12 105.4(2)
C33 C25 C31 100.1(2)
C31 C28 C18 102.16(18)
C36 C28 C18 104.78(19)
C36 C28 C31 99.74(19)
C23 C29 C7 108.2(2)
C28 C31 C25 93.84(19)
C36 C33 C25 107.7(2)
C33 C36 C28 107.6(2)
loop_
_geom_bond_atom_site_label_1
_geom_bond_atom_site_label_2
_geom_bond_distance
O2 C5 1.216(3)
C3 C5 1.527(3)
C3 C7 1.575(3)
C3 C10 1.549(3)
C3 C13 1.564(3)
C5 C12 1.517(3)
C7 C19 1.540(3)
C7 C29 1.518(3)
C10 C16 1.501(3)
C12 C18 1.556(3)
C12 C25 1.563(3)
C13 C18 1.549(3)
C13 C22 1.573(3)
C16 C35 1.308(4)
C18 C28 1.566(3)
C19 C22 1.541(3)
C22 C23 1.515(3)
C23 C29 1.324(4)
C25 C31 1.534(3)
C25 C33 1.513(4)
C28 C31 1.534(3)
C28 C36 1.518(3)
C33 C36 1.323(4)
