#------------------------------------------------------------------------------
#$Date: 2019-11-24 02:29:28 +0200 (Sun, 24 Nov 2019) $
#$Revision: 236265 $
#$URL: file:///home/coder/svn-repositories/cod/cif/4/03/75/4037508.cif $
#------------------------------------------------------------------------------
#
# This file is available in the Crystallography Open Database (COD),
# http://www.crystallography.net/
#
# All data on this site have been placed in the public domain by the
# contributors.
#
data_4037508
loop_
_publ_author_name
'Tsai, Meng-Shiue'
'Ou, Chun-Lin'
'Tsai, Chi-Jui'
'Huang, Yen-Chin'
'Cheng, Yuan-Chung'
'Sun, Shih-Sheng'
'Yang, Jye-Shane'
_publ_section_title
;
 Fluorescence Enhancement of Unconstrained GFP Chromophore Analogues Based
 on the Push-Pull Substituent Effect.
;
_journal_issue                   15
_journal_name_full               'The Journal of organic chemistry'
_journal_page_first              8031
_journal_page_last               8039
_journal_paper_doi               10.1021/acs.joc.7b01260
_journal_volume                  82
_journal_year                    2017
_chemical_formula_moiety         'C15 H16 N4 O'
_chemical_formula_sum            'C15 H16 N4 O'
_chemical_formula_weight         268.32
_space_group_crystal_system      triclinic
_space_group_IT_number           2
_space_group_name_Hall           '-P 1'
_space_group_name_H-M_alt        'P -1'
_atom_sites_solution_hydrogens   geom
_audit_creation_method           SHELXL-2013
_cell_angle_alpha                76.276(2)
_cell_angle_beta                 76.546(2)
_cell_angle_gamma                63.9170(10)
_cell_formula_units_Z            2
_cell_length_a                   8.0727(3)
_cell_length_b                   8.1831(3)
_cell_length_c                   11.4988(4)
_cell_measurement_reflns_used    9884
_cell_measurement_temperature    100.0(2)
_cell_measurement_theta_max      32
_cell_measurement_theta_min      2.81
_cell_volume                     655.56(4)
_computing_cell_refinement       'Bruker SAINT'
_computing_data_collection       'Bruker APEX2'
_computing_data_reduction        'Bruker SAINT'
_computing_molecular_graphics    'Bruker SHELXTL'
_computing_publication_material  'Bruker SHELXTL'
_computing_structure_refinement  'SHELXL-2013 (Sheldrick, 2013)'
_computing_structure_solution    'SHELXS-97 (Sheldrick 2008)'
_diffrn_ambient_temperature      100.0(2)
_diffrn_measured_fraction_theta_full 1.000
_diffrn_measured_fraction_theta_max 1.000
_diffrn_measurement_device_type  'Bruker APEX-II CCD'
_diffrn_measurement_method       '\f and \w scans'
_diffrn_radiation_type           MoK\a
_diffrn_radiation_wavelength     0.71073
_diffrn_reflns_av_R_equivalents  0.0352
_diffrn_reflns_av_unetI/netI     0.0194
_diffrn_reflns_Laue_measured_fraction_full 1.000
_diffrn_reflns_Laue_measured_fraction_max 1.000
_diffrn_reflns_limit_h_max       10
_diffrn_reflns_limit_h_min       -10
_diffrn_reflns_limit_k_max       10
_diffrn_reflns_limit_k_min       -10
_diffrn_reflns_limit_l_max       14
_diffrn_reflns_limit_l_min       -14
_diffrn_reflns_number            26539
_diffrn_reflns_point_group_measured_fraction_full 1.000
_diffrn_reflns_point_group_measured_fraction_max 1.000
_diffrn_reflns_theta_full        25.000
_diffrn_reflns_theta_max         27.103
_diffrn_reflns_theta_min         1.843
_exptl_absorpt_coefficient_mu    0.090
_exptl_absorpt_correction_T_max  0.9705
_exptl_absorpt_correction_T_min  0.8795
_exptl_absorpt_correction_type   multi-scan
_exptl_absorpt_process_details   'Bruker SADABS, 1996'
_exptl_crystal_colour            yellow
_exptl_crystal_density_diffrn    1.359
_exptl_crystal_density_meas      ?
_exptl_crystal_description       prism
_exptl_crystal_F_000             284
_exptl_crystal_size_max          0.340
_exptl_crystal_size_mid          0.200
_exptl_crystal_size_min          0.080
_refine_diff_density_max         0.304
_refine_diff_density_min         -0.198
_refine_diff_density_rms         0.042
_refine_ls_extinction_method     none
_refine_ls_goodness_of_fit_ref   1.038
_refine_ls_hydrogen_treatment    constr
_refine_ls_matrix_type           full
_refine_ls_number_parameters     185
_refine_ls_number_reflns         2894
_refine_ls_number_restraints     0
_refine_ls_restrained_S_all      1.038
_refine_ls_R_factor_all          0.0428
_refine_ls_R_factor_gt           0.0367
_refine_ls_shift/su_max          0.000
_refine_ls_shift/su_mean         0.000
_refine_ls_structure_factor_coef Fsqd
_refine_ls_weighting_details
'w=1/[\s^2^(Fo^2^)+(0.0521P)^2^+0.2385P] where P=(Fo^2^+2Fc^2^)/3'
_refine_ls_weighting_scheme      calc
_refine_ls_wR_factor_gt          0.0964
_refine_ls_wR_factor_ref         0.1020
_reflns_Friedel_coverage         0.000
_reflns_number_gt                2531
_reflns_number_total             2894
_reflns_threshold_expression     'I > 2\s(I)'
_cod_data_source_file            jo7b01260_si_003.cif
_cod_data_source_block           i16002
_cod_depositor_comments
;
The following automatic conversions were performed:

data item '_exptl_crystal_density_meas' value 'not measured' was
changed to '?' -- the value is perceived as not measured.

Automatic conversion script
Id: cif_fix_values 6909 2019-04-08 15:41:33Z antanas 
;
_cod_database_code               4037508
_shelx_space_group_comment
;
The symmetry employed for this shelxl refinement is uniquely defined
by the following loop, which should always be used as a source of
symmetry information in preference to the above space-group names.
They are only intended as comments.
;
_shelxl_version_number           2013-4
_shelx_res_file
;
TITL i16002_a.res in P-1
CELL  0.71073   8.0727   8.1831  11.4988   76.276   76.546   63.917
ZERR     2.00   0.0003   0.0003   0.0004    0.002    0.002    0.001
LATT   1
SFAC  O    N    C    H
UNIT  2    8    30   32
MERG   2
FMAP   2
PLAN    2
SIZE     0.080   0.200   0.340
ACTA    50.00
BOND   $H
LIST   6
L.S.  20
TEMP  -173.00
WGHT    0.052100    0.238500
FVAR       0.57930
O2    1   -0.027914    0.676270    0.644767    11.00000    0.02096    0.02642 =
         0.02230   -0.00608    0.00420   -0.01445
N3    2    0.081245    0.893760    0.648936    11.00000    0.01599    0.02221 =
         0.01508   -0.00589    0.00084   -0.00858
N5    2    0.306151    0.852790    0.485862    11.00000    0.01585    0.02078 =
         0.01738   -0.00493   -0.00044   -0.00930
N15   2    0.581973    0.206555    0.116290    11.00000    0.02241    0.02765 =
         0.02263   -0.01239    0.00676   -0.01654
N19   2    0.920614    0.714194    0.105820    11.00000    0.02750    0.03306 =
         0.03554   -0.01190    0.00760   -0.02027
C1    3    0.226634    0.726955    0.496819    11.00000    0.01414    0.01904 =
         0.01526   -0.00278   -0.00061   -0.00735
C2    3    0.076634    0.753785    0.603670    11.00000    0.01531    0.01966 =
         0.01570   -0.00263   -0.00181   -0.00716
C4    3    0.218326    0.945334    0.575034    11.00000    0.01301    0.02152 =
         0.01675   -0.00389   -0.00193   -0.00740
C6    3   -0.039227    0.966999    0.755891    11.00000    0.01978    0.02592 =
         0.01634   -0.00862    0.00249   -0.00899
AFIX 137
H6A   4   -0.164237    1.048776    0.735871    11.00000   -1.50000
H6B   4    0.011507    1.036394    0.784974    11.00000   -1.50000
H6C   4   -0.046457    0.865378    0.819189    11.00000   -1.50000
AFIX   0
C7    3    0.255649    1.094445    0.600868    11.00000    0.02071    0.02724 =
         0.02387   -0.01043    0.00068   -0.01343
AFIX 137
H7A   4    0.354106    1.114336    0.538967    11.00000   -1.50000
H7B   4    0.295780    1.059136    0.680656    11.00000   -1.50000
H7C   4    0.141693    1.208277    0.600032    11.00000   -1.50000
AFIX   0
C8    3    0.270206    0.597705    0.428028    11.00000    0.01485    0.01755 =
         0.01764   -0.00220   -0.00098   -0.00784
AFIX  43
H8    4    0.195617    0.528958    0.450042    11.00000   -1.20000
AFIX   0
C9    3    0.416082    0.548298    0.324272    11.00000    0.01455    0.01610 =
         0.01511   -0.00250   -0.00153   -0.00546
C10   3    0.426250    0.412540    0.265805    11.00000    0.01623    0.01839 =
         0.01662   -0.00252   -0.00051   -0.00902
AFIX  43
H10   4    0.336658    0.360710    0.293166    11.00000   -1.20000
AFIX   0
C11   3    0.565538    0.349801    0.167250    11.00000    0.01698    0.01698 =
         0.01649   -0.00427   -0.00164   -0.00653
C12   3    0.690996    0.434541    0.125557    11.00000    0.01456    0.01830 =
         0.01701   -0.00408    0.00075   -0.00638
AFIX  43
H12   4    0.783235    0.399933    0.057062    11.00000   -1.20000
AFIX   0
C13   3    0.679533    0.569734    0.185182    11.00000    0.01485    0.01819 =
         0.01832   -0.00218   -0.00077   -0.00819
C14   3    0.544816    0.628942    0.284112    11.00000    0.01751    0.01788 =
         0.01749   -0.00410   -0.00130   -0.00828
AFIX  43
H14   4    0.540201    0.721192    0.323252    11.00000   -1.20000
AFIX   0
C16   3    0.430064    0.147659    0.144467    11.00000    0.02545    0.03107 =
         0.02689   -0.01243    0.00462   -0.01876
AFIX 137
H16A  4    0.319017    0.247882    0.114226    11.00000   -1.50000
H16B  4    0.402729    0.115393    0.232346    11.00000   -1.50000
H16C  4    0.465760    0.039889    0.105876    11.00000   -1.50000
AFIX   0
C17   3    0.704539    0.167918    0.002564    11.00000    0.02024    0.02423 =
         0.02001   -0.00899    0.00211   -0.01076
AFIX 137
H17A  4    0.658548    0.273231   -0.060972    11.00000   -1.50000
H17B  4    0.707039    0.058163   -0.019422    11.00000   -1.50000
H17C  4    0.830760    0.146281    0.011326    11.00000   -1.50000
AFIX   0
C18   3    0.814217    0.649894    0.141636    11.00000    0.02008    0.02165 =
         0.02132   -0.00856    0.00363   -0.00988
HKLF    4
 
REM  i16002_a.res in P-1
REM R1 =  0.0367 for    2531 Fo > 4sig(Fo)  and  0.0428 for all    2894 data
REM    185 parameters refined using      0 restraints
 
END
 
WGHT      0.0521      0.2385
 
REM Highest difference peak  0.304,  deepest hole -0.198,  1-sigma level  0.042
Q1    1   0.1533  0.7432  0.5445  11.00000  0.05    0.30
Q2    1   0.2370  1.0175  0.5890  11.00000  0.05    0.28
;
_shelx_res_checksum              37875
_shelx_hkl_file
;
   0   1   0   22.20    0.80
   0   1   0   21.90    0.80
   0   1   0   20.50    0.90
   0   1   0   23.10    0.80
   0   1   0   22.50    0.80
   0   1   0   22.60    0.80
   0   1   0   22.40    0.80
   0   1   0   21.60    0.90
   0   1   0   21.60    0.80
   0  -1   0   21.40    0.80
   0  -1   0   22.60    0.80
   0  -1   0   22.60    0.80
   0  -1   0   22.00    0.80
   0  -1   0   23.10    0.80
   0  -1   0   23.20    0.90
   0  -1   0   22.20    0.80
   0   2   0   41.80    1.60
   0   2   0   41.20    1.40
   0   2   0   41.20    1.60
   0   2   0   43.50    1.40
   0   2   0   39.50    1.60
   0   2   0   42.90    1.60
   0   2   0   40.40    1.60
   0   2   0   38.70    1.70
   0   2   0   42.90    1.50
   0  -2   0   43.50    1.60
   0  -2   0   42.00    1.60
   0  -2   0   41.90    1.40
   0  -2   0   42.90    1.70
   0  -2   0   40.60    1.90
   0  -2   0   42.80    1.40
   0  -2   0   41.00    1.60
   0  -2   0   44.80    1.60
   0   3   0   17.90    0.70
   0   3   0   16.00    0.90
   0   3   0   18.70    0.90
   0   3   0   17.00    0.90
   0   3   0   16.00    1.00
   0   3   0   17.60    0.70
   0   3   0   17.70    0.70
   0   3   0   17.30    0.90
   0   3   0   17.00    0.90
   0  -3   0   17.40    0.70
   0  -3   0   17.60    1.20
   0  -3   0   18.40    0.70
   0  -3   0   16.90    0.80
   0  -3   0   19.00    0.90
   0  -3   0   17.30    0.90
   0  -3   0   17.50    1.20
   0  -3   0   17.60    0.90
   0  -3   0   18.50    1.00
   0   4   0  166.78    5.70
   0   4   0  163.68    5.70
   0   4   0  170.58    5.40
   0   4   0  166.38    5.30
   0   4   0  165.08    5.60
   0   4   0  164.28    5.80
   0   4   0  165.58    5.40
   0   4   0  162.68    5.80
   0   4   0  159.08    5.70
   0   4   0  142.59    5.90
   0  -4   0  166.18    5.40
   0  -4   0  159.58    5.80
   0  -4   0  163.08    5.70
   0  -4   0  159.78    6.30
   0  -4   0  164.68    5.60
   0  -4   0  164.48    5.40
   0  -4   0  163.48    6.30
   0   5   0    1.40    0.40
   0   5   0    2.10    0.60
   0   5   0    2.00    0.50
   0   5   0    1.80    0.20
   0   5   0    2.20    0.40
   0   5   0    1.80    0.30
   0   5   0    1.60    0.40
   0   5   0    2.50    0.50
   0   5   0    2.60    0.50
   0  -5   0    1.40    0.40
   0  -5   0    1.00    0.60
   0  -5   0    1.30    0.20
   0  -5   0    1.80    0.60
   0  -5   0    1.70    0.50
   0  -5   0    1.60    0.70
   0   6   0   14.10    1.30
   0   6   0   13.30    1.00
   0   6   0   15.60    1.00
   0   6   0   11.30    1.20
   0   6   0   13.10    0.80
   0   6   0   15.00    1.10
   0   6   0   13.20    1.10
   0   6   0   13.00    1.00
   0  -6   0   14.60    1.00
   0  -6   0   13.70    1.20
   0  -6   0   14.70    0.90
   0  -6   0   12.60    1.70
   0  -6   0   13.30    1.70
   0  -6   0   13.80    0.70
   0  -6   0   13.70    1.70
   0   7   0   14.00    1.40
   0   7   0   14.10    1.00
   0   7   0   15.70    1.70
   0   7   0   16.00    1.20
   0  -7   0   17.20    1.90
   0  -7   0    9.60    1.60
   0  -7   0   14.60    2.00
   0   8   0    3.60    0.90
   0   8   0    3.70    0.80
   0   8   0    2.40    0.90
   0  -8   0    2.80    1.10
   0  -8   0    1.10    0.80
   0   9   0    2.00    0.80
   0   9   0    0.70    0.50
   0   9   0    0.00    0.80
   0  -9   0    0.90    1.00
   0  -9   0    2.20    1.20
  -1  -9   0    1.00    1.00
  -1  -9   0   -0.20    0.70
   1   9   0    0.70    0.60
   1   9   0    0.70    0.50
   1   9   0    0.80    0.80
  -1  -8   0   18.30    2.40
  -1  -8   0   18.30    2.40
  -1  -8   0   21.00    2.40
   1   8   0   15.90    1.90
   1   8   0   17.40    1.30
   1   8   0   17.50    1.40
  -1  -7   0    0.70    0.60
  -1  -7   0    0.00    0.60
  -1  -7   0   -0.60    0.50
   1   7   0   -0.30    0.30
   1   7   0    0.00    0.20
   1   7   0    0.10    0.50
   1   7   0    0.00    0.30
   1   7   0   -0.30    0.30
   1   7   0    0.10    0.20
   1   7   0    0.10    0.40
  -1  -6   0    1.00    0.50
  -1  -6   0    1.10    0.40
  -1  -6   0    0.40    0.50
  -1  -6   0    0.50    0.20
  -1  -6   0    0.50    0.20
  -1  -6   0    0.30    0.50
   1   6   0    0.30    0.30
   1   6   0    0.70    0.20
   1   6   0    0.20    0.40
   1   6   0    0.10    0.20
   1   6   0    1.00    0.40
   1   6   0    0.70    0.30
   1   6   0    0.60    0.20
   1   6   0    0.30    0.20
   1   6   0    0.30    0.30
  -1  -5   0   85.29    2.90
  -1  -5   0   79.89    3.80
  -1  -5   0   86.19    3.80
  -1  -5   0   78.29    3.00
  -1  -5   0   82.89    3.00
  -1  -5   0   85.49    3.40
  -1  -5   0   78.89    3.70
   1   5   0   81.39    2.80
   1   5   0   77.99    3.50
   1   5   0   82.29    3.10
   1   5   0   82.09    3.10
   1   5   0   82.99    3.40
   1   5   0   83.79    2.90
   1   5   0   84.39    3.10
   1   5   0   82.29    3.20
   1   5   0   79.19    2.90
  -1  -4   0    4.10    0.70
  -1  -4   0    4.90    0.80
  -1  -4   0    4.00    0.30
  -1  -4   0    4.60    0.40
  -1  -4   0    3.80    0.70
  -1  -4   0    4.60    0.40
  -1  -4   0    4.80    0.60
  -1  -4   0    4.60    0.40
   1   4   0    3.70    0.30
   1   4   0    4.30    0.30
   1   4   0    4.80    0.50
   1   4   0    4.40    0.70
   1   4   0    4.90    0.50
   1   4   0    4.20    0.40
   1   4   0    2.50    0.40
   1   4   0    4.70    0.50
  -1  -3   0  286.27    9.70
  -1  -3   0  285.67    9.00
  -1  -3   0  284.17    9.30
  -1  -3   0  281.37    9.00
  -1  -3   0  278.07    9.60
  -1  -3   0  281.47    9.60
  -1  -3   0  273.77    9.10
  -1  -3   0  283.67    9.10
   1   3   0  278.27    9.10
   1   3   0  281.17    9.10
   1   3   0  280.57    9.10
   1   3   0  278.97    9.10
   1   3   0  273.47    9.10
   1   3   0  274.77    9.10
   1   3   0  273.87    9.30
  -1  -2   0    7.10    0.50
  -1  -2   0    7.10    0.30
  -1  -2   0    6.80    0.30
  -1  -2   0    6.30    0.40
   1   2   0    7.10    0.30
   1   2   0    7.10    0.40
   1   2   0    7.00    0.40
   1   2   0    7.30    0.30
   1   2   0    7.00    0.30
   1   2   0    6.80    0.50
   1   2   0    6.90    0.30
  -1  -1   0 1156.28   37.40
   1   1   0 1130.59   37.50
   1   1   0 1136.09   37.30
   1   1   0 1164.98   36.80
   1   1   0 1164.28   36.90
  -1   0   0   70.59    2.40
  -1   0   0   72.29    2.40
  -1   0   0   70.29    2.30
  -1   0   0   69.79    2.40
  -1   0   0   70.29    2.40
  -1   0   0   70.79    2.40
  -1   0   0   63.79    2.30
   1   0   0   72.09    2.40
   1   0   0   69.49    2.40
   1   0   0   71.09    2.40
   1   0   0   69.49    2.30
   1   0   0   69.79    2.30
   1   0   0   68.89    2.40
   1   0   0   69.49    2.40
   1   0   0   71.39    2.40
   1   0   0   69.89    2.40
  -1   1   0   20.90    1.00
  -1   1   0   23.90    1.00
  -1   1   0   22.20    0.90
  -1   1   0   22.30    0.90
  -1   1   0   21.20    1.00
  -1   1   0   22.40    1.00
  -1   1   0   22.60    0.90
  -1   1   0   23.20    1.00
  -1   1   0   21.50    0.90
   1  -1   0   22.20    0.90
   1  -1   0   23.50    0.90
   1  -1   0   22.40    1.00
   1  -1   0   24.50    1.20
   1  -1   0   22.00    1.00
   1  -1   0   22.10    1.00
   1  -1   0   23.20    1.00
   1  -1   0   21.90    0.90
   1  -1   0   24.10    1.00
   1  -1   0   23.10    1.00
  -1   2   0  226.48    7.60
  -1   2   0  231.08    7.60
  -1   2   0  226.88    7.60
  -1   2   0  223.18    7.50
  -1   2   0  223.08    7.50
  -1   2   0  199.88    7.60
  -1   2   0  224.38    7.60
  -1   2   0  223.08    7.60
  -1   2   0  229.38    7.40
   1  -2   0  235.28    7.60
   1  -2   0  235.18    8.00
   1  -2   0  232.48    7.60
   1  -2   0  231.48    7.40
   1  -2   0  209.88    7.60
   1  -2   0  226.88    7.60
   1  -2   0  229.68    7.60
   1  -2   0  224.28    7.60
   1  -2   0  229.18    7.30
  -1   3   0  148.29    5.30
  -1   3   0  142.89    5.30
  -1   3   0  150.28    5.30
  -1   3   0  148.19    5.10
  -1   3   0  152.98    5.30
  -1   3   0  155.98    5.10
  -1   3   0  143.39    5.30
  -1   3   0  138.49    5.40
  -1   3   0  148.09    5.30
   1  -3   0  149.69    4.90
   1  -3   0  150.98    5.30
   1  -3   0  147.79    5.80
   1  -3   0  156.48    5.30
   1  -3   0  147.89    5.30
   1  -3   0  150.38    5.30
   1  -3   0  149.19    5.40
   1  -3   0  157.58    4.90
   1  -3   0  147.39    5.00
  -1   4   0  235.88    7.80
  -1   4   0  230.58    7.60
  -1   4   0  229.68    7.50
  -1   4   0  210.18    7.90
  -1   4   0  212.98    7.90
  -1   4   0  223.28    7.80
  -1   4   0  220.78    7.80
  -1   4   0  216.68    7.80
   1  -4   0  227.08    7.90
   1  -4   0  228.58    7.80
   1  -4   0  214.68    7.30
   1  -4   0  226.68    8.50
   1  -4   0  228.78    7.30
   1  -4   0  221.58    7.40
  -1   5   0  171.18    6.40
  -1   5   0  175.38    6.10
  -1   5   0  174.08    6.30
  -1   5   0  170.58    6.40
  -1   5   0  177.88    6.40
  -1   5   0  176.18    5.90
  -1   5   0  161.38    6.50
  -1   5   0  180.68    6.30
   1  -5   0  176.98    6.20
   1  -5   0  171.88    6.20
   1  -5   0  170.68    6.40
   1  -5   0  166.18    5.70
   1  -5   0  171.58    7.20
   1  -5   0  176.38    5.70
  -1   6   0    0.30    0.40
  -1   6   0   -0.10    0.30
  -1   6   0    0.60    0.30
  -1   6   0   -0.30    0.40
  -1   6   0    0.60    0.50
   1  -6   0    0.20    0.10
   1  -6   0    0.50    0.60
   1  -6   0    0.30    0.30
  -1   7   0    1.10    0.60
  -1   7   0    1.00    0.70
  -1   7   0    1.70    0.60
  -1   7   0    1.90    0.70
   1  -7   0    3.10    1.10
   1  -7   0    2.50    1.10
  -1   8   0    4.20    1.00
  -1   8   0    2.30    1.00
  -1   8   0    2.70    0.70
   1  -8   0    3.40    1.30
   1  -8   0    3.20    1.40
  -2  -9   0    8.40    1.80
  -2  -9   0    8.00    1.70
  -2  -9   0    5.90    1.40
   2   9   0    6.80    1.40
   2   9   0    7.60    1.00
   2   9   0    7.40    0.90
  -2  -8   0   12.80    1.80
  -2  -8   0   13.10    2.00
  -2  -8   0   12.50    1.90
   2   8   0   13.50    1.00
   2   8   0   18.40    2.00
   2   8   0   13.80    1.10
  -2  -7   0  132.79    6.10
  -2  -7   0  134.89    5.90
  -2  -7   0  136.09    5.90
   2   7   0  136.99    4.90
   2   7   0  119.39    5.50
   2   7   0  134.59    5.00
   2   7   0  135.59    5.00
   2   7   0  138.39    4.70
   2   7   0  147.29    5.50
   2   7   0  139.69    4.70
  -2  -6   0   22.80    1.40
  -2  -6   0   21.20    1.80
  -2  -6   0   23.00    1.70
  -2  -6   0   22.30    1.70
   2   6   0   23.10    1.10
   2   6   0   21.90    1.60
   2   6   0   22.10    1.20
   2   6   0   21.80    1.40
   2   6   0   24.20    1.10
   2   6   0   23.70    1.20
   2   6   0   23.20    1.10
   2   6   0   21.20    1.10
  -2  -5   0    6.00    0.90
  -2  -5   0    5.90    0.40
  -2  -5   0    5.90    0.30
  -2  -5   0    5.70    0.40
  -2  -5   0    6.70    1.10
  -2  -5   0    6.60    1.00
  -2  -5   0    6.80    0.80
   2   5   0    5.20    0.50
   2   5   0    5.70    0.50
   2   5   0    5.70    0.80
   2   5   0    5.00    0.70
   2   5   0    4.60    0.50
   2   5   0    4.80    0.50
   2   5   0    5.60    0.50
   2   5   0    6.40    0.40
  -2  -4   0   27.10    1.10
  -2  -4   0   26.10    1.50
  -2  -4   0   26.30    0.90
  -2  -4   0   26.20    1.70
  -2  -4   0   27.20    1.60
   2   4   0   27.30    1.20
   2   4   0   25.50    1.10
   2   4   0   27.20    1.20
   2   4   0   25.90    1.30
   2   4   0   25.70    1.00
   2   4   0   27.30    1.00
   2   4   0   27.20    1.10
  -2  -3   0  407.06   13.80
  -2  -3   0  434.16   13.70
  -2  -3   0  431.16   13.80
  -2  -3   0  431.76   13.50
   2   3   0  395.96   13.40
   2   3   0  411.76   13.20
   2   3   0  386.16   13.50
   2   3   0  395.46   13.40
   2   3   0  414.46   13.20
   2   3   0  411.16   13.20
   2   3   0  407.16   13.20
  -2  -2   0    0.60    0.20
  -2  -2   0    0.60    0.30
  -2  -2   0    0.40    0.10
   2   2   0    0.70    0.20
   2   2   0    0.40    0.10
   2   2   0    0.50    0.10
   2   2   0    0.60    0.20
   2   2   0    0.50    0.10
   2   2   0    0.40    0.20
   2   2   0    0.50    0.10
  -2  -1   0  122.19    4.30
  -2  -1   0  123.89    4.10
  -2  -1   0  114.19    4.20
  -2  -1   0  126.79    4.10
  -2  -1   0  131.59    4.10
  -2  -1   0  131.19    4.10
  -2  -1   0  123.99    4.10
   2   1   0  126.69    4.10
   2   1   0  121.89    4.10
   2   1   0  125.19    4.10
   2   1   0  127.99    4.10
   2   1   0  125.99    4.10
   2   1   0  118.39    4.10
   2   1   0  109.89    4.10
   2   1   0  123.29    4.30
  -2   0   0    0.10    0.10
  -2   0   0   -0.10    0.10
  -2   0   0    0.00    0.10
  -2   0   0    0.00    0.10
  -2   0   0    0.30    0.20
  -2   0   0    0.10    0.20
  -2   0   0    0.10    0.10
  -2   0   0   -0.10    0.20
   2   0   0    0.20    0.20
   2   0   0    0.30    0.20
   2   0   0   -0.10    0.20
   2   0   0    0.10    0.20
   2   0   0    0.00    0.10
   2   0   0    0.40    0.20
   2   0   0    0.20    0.20
   2   0   0    0.20    0.20
   2   0   0    0.10    0.10
  -2   1   0   12.70    0.70
  -2   1   0   13.50    0.80
  -2   1   0   14.80    0.80
  -2   1   0   14.70    0.70
  -2   1   0   13.30    0.70
  -2   1   0   13.90    0.80
  -2   1   0   14.70    0.90
  -2   1   0   13.50    0.80
  -2   1   0   12.30    0.70
   2  -1   0   13.70    0.80
   2  -1   0   14.00    0.70
   2  -1   0   13.20    1.00
   2  -1   0   13.20    0.80
   2  -1   0   12.40    0.70
   2  -1   0   13.60    0.80
   2  -1   0   13.90    0.70
   2  -1   0   12.30    0.80
   2  -1   0   13.10    0.70
   2  -1   0   13.30    0.80
  -2   2   0  163.68    5.50
  -2   2   0  151.08    5.60
  -2   2   0  159.58    5.50
  -2   2   0  164.08    5.60
  -2   2   0  161.48    5.40
  -2   2   0  158.48    5.50
  -2   2   0  152.68    5.50
  -2   2   0  144.79    5.50
  -2   2   0  164.58    5.40
   2  -2   0  157.48    5.30
   2  -2   0  145.49    5.50
   2  -2   0  156.28    5.50
   2  -2   0  152.98    5.50
   2  -2   0  160.18    5.50
   2  -2   0  156.28    6.00
   2  -2   0  157.98    5.50
   2  -2   0  163.68    5.60
   2  -2   0  156.78    5.40
   2  -2   0  155.18    5.60
  -2   3   0    5.30    0.70
  -2   3   0    5.80    0.70
  -2   3   0    6.60    0.80
  -2   3   0    4.90    0.70
  -2   3   0    5.50    0.70
  -2   3   0    6.30    0.80
  -2   3   0    5.50    0.60
  -2   3   0    5.10    0.60
   2  -3   0    5.70    0.40
   2  -3   0    7.70    0.80
   2  -3   0    6.20    0.50
   2  -3   0    5.50    0.40
   2  -3   0    6.70    0.70
   2  -3   0    7.00    1.10
   2  -3   0    7.50    0.80
  -2   4   0    1.00    0.40
  -2   4   0    1.00    0.40
  -2   4   0    1.50    0.50
  -2   4   0    1.20    0.40
  -2   4   0    1.20    0.50
  -2   4   0    1.20    0.30
  -2   4   0    0.80    0.30
   2  -4   0    0.10    0.30
   2  -4   0    0.50    0.60
   2  -4   0    1.00    0.40
   2  -4   0    1.10    0.40
   2  -4   0    1.00    0.20
   2  -4   0    0.80    0.30
   2  -4   0    1.10    0.20
  -2   5   0   13.40    0.90
  -2   5   0   10.60    1.20
  -2   5   0   12.90    1.00
  -2   5   0   10.70    1.30
  -2   5   0   13.90    1.10
  -2   5   0   13.30    1.10
   2  -5   0   11.40    1.70
   2  -5   0   11.80    0.80
   2  -5   0   13.00    0.60
   2  -5   0   12.60    1.00
   2  -5   0   13.50    1.20
   2  -5   0   12.90    1.10
   2  -5   0   13.30    0.60
  -2   6   0   15.10    1.60
  -2   6   0   14.40    1.50
  -2   6   0   16.30    1.50
  -2   6   0   15.40    1.20
   2  -6   0   15.20    2.30
   2  -6   0   16.30    1.30
  -2   7   0   12.50    1.60
  -2   7   0    8.60    1.20
  -2   7   0   12.30    1.60
   2  -7   0   11.20    2.00
  -2   8   0    0.50    0.70
  -2   8   0    0.20    0.50
  -2   8   0   -0.30    0.70
   2  -8   0   -0.40    0.70
   2  -8   0    1.80    1.10
  -3 -10   0    2.40    1.20
  -3 -10   0    1.60    1.00
  -3 -10   0    0.80    1.00
   3  10   0    1.00    0.50
   3  10   0    2.10    0.50
   3  10   0    2.20    0.90
  -3  -9   0    6.10    1.40
  -3  -9   0    5.00    1.30
  -3  -9   0    5.80    1.50
   3   9   0    4.40    1.10
   3   9   0    5.90    0.80
   3   9   0    6.80    0.80
  -3  -8   0  348.67   12.90
  -3  -8   0  342.97   13.00
  -3  -8   0  339.87   13.30
   3   8   0  344.47   11.90
   3   8   0  330.67   12.70
   3   8   0  361.16   11.80
   3   8   0  367.36   11.70
   3   8   0  356.16   11.70
  -3  -7   0   27.40    2.00
  -3  -7   0   24.80    2.10
  -3  -7   0   24.80    1.90
  -3  -7   0   26.90    1.30
   3   7   0   25.10    1.30
   3   7   0   24.10    1.30
   3   7   0   23.70    1.80
   3   7   0   26.40    1.70
   3   7   0   26.10    1.20
   3   7   0   26.70    1.30
   3   7   0   25.70    1.30
  -3  -6   0    1.40    0.70
  -3  -6   0    0.80    0.50
  -3  -6   0    1.70    0.30
  -3  -6   0    2.70    0.70
   3   6   0    2.60    0.40
   3   6   0    1.00    0.30
   3   6   0    2.20    0.50
   3   6   0    1.50    0.20
   3   6   0    1.70    0.30
   3   6   0    1.60    0.30
   3   6   0    2.00    0.40
  -3  -5   0    9.60    1.20
  -3  -5   0    9.20    1.00
  -3  -5   0    9.10    0.60
  -3  -5   0    8.40    0.60
  -3  -5   0    9.40    1.20
   3   5   0    7.90    0.40
   3   5   0    9.10    0.50
   3   5   0    9.30    0.70
   3   5   0    9.50    0.70
   3   5   0    9.00    0.50
   3   5   0    8.90    0.90
   3   5   0    9.10    0.70
   3   5   0    9.30    0.40
  -3  -4   0   15.20    0.90
  -3  -4   0   13.20    0.80
  -3  -4   0   13.60    1.10
  -3  -4   0   13.00    1.00
   3   4   0   14.10    0.60
   3   4   0   14.30    0.90
   3   4   0   13.70    0.50
   3   4   0   14.60    0.50
   3   4   0   13.90    0.50
   3   4   0   14.40    0.90
   3   4   0   13.40    0.80
   3   4   0   13.30    0.90
   3   4   0   13.80    0.90
  -3  -3   0  126.89    4.50
  -3  -3   0  128.69    4.80
  -3  -3   0  135.89    4.80
   3   3   0  128.69    4.20
   3   3   0  128.09    4.20
   3   3   0  122.99    4.50
   3   3   0  121.59    4.50
   3   3   0  126.59    4.20
   3   3   0  124.59    4.20
   3   3   0  124.39    4.40
   3   3   0  130.99    4.40
  -3  -2   0  143.09    4.90
  -3  -2   0  135.09    4.70
  -3  -2   0  134.69    4.60
  -3  -2   0  135.39    4.50
  -3  -2   0  137.99    4.70
  -3  -2   0  136.69    4.40
  -3  -2   0  144.19    4.40
   3   2   0  139.19    4.80
   3   2   0  130.99    4.80
   3   2   0  136.59    4.50
   3   2   0  135.29    4.50
   3   2   0  127.09    4.60
   3   2   0  135.19    4.50
   3   2   0  133.99    4.60
   3   2   0  133.39    4.50
   3   2   0  122.39    4.70
  -3  -1   0   67.89    2.50
  -3  -1   0   75.99    2.60
  -3  -1   0   71.19    2.50
  -3  -1   0   68.79    2.60
  -3  -1   0   68.49    2.50
  -3  -1   0   70.19    2.60
  -3  -1   0   72.89    2.70
  -3  -1   0   67.99    2.50
   3   1   0   70.89    2.60
   3   1   0   72.09    2.50
   3   1   0   70.79    2.60
   3   1   0   68.89    2.70
   3   1   0   71.49    2.60
   3   1   0   70.29    2.60
   3   1   0   67.79    2.60
   3   1   0   67.59    2.50
  -3   0   0  162.88    5.50
  -3   0   0  164.68    5.50
  -3   0   0  151.88    5.50
  -3   0   0  175.28    5.50
  -3   0   0  156.28    5.50
  -3   0   0  163.38    5.30
  -3   0   0  154.38    5.50
  -3   0   0  162.18    5.60
   3   0   0  152.18    5.50
   3   0   0  165.58    5.70
   3   0   0  167.48    5.60
   3   0   0  167.18    5.60
   3   0   0  156.88    5.50
   3   0   0  154.68    5.40
   3   0   0  154.68    5.40
   3   0   0  148.99    5.40
   3   0   0  150.48    5.50
   3   0   0  155.28    5.40
  -3   1   0   51.39    2.10
  -3   1   0   51.49    2.20
  -3   1   0   53.19    2.10
  -3   1   0   50.59    2.00
  -3   1   0   48.50    2.20
  -3   1   0   53.09    2.20
  -3   1   0   51.99    2.10
  -3   1   0   50.89    2.20
  -3   1   0   55.69    2.10
  -3   1   0   52.79    2.10
   3  -1   0   56.49    2.30
   3  -1   0   48.90    2.20
   3  -1   0   52.99    2.50
   3  -1   0   50.49    2.10
   3  -1   0   49.10    2.10
   3  -1   0   55.09    2.30
   3  -1   0   51.39    2.10
   3  -1   0   48.10    2.00
   3  -1   0   48.20    2.10
   3  -1   0   51.39    2.20
  -3   2   0   13.20    1.00
  -3   2   0   12.40    0.90
  -3   2   0   11.80    1.00
  -3   2   0   13.20    0.90
  -3   2   0   13.70    0.90
  -3   2   0   13.40    0.80
  -3   2   0   12.90    1.00
  -3   2   0   12.80    0.90
   3  -2   0   13.60    0.90
   3  -2   0   12.20    0.90
   3  -2   0   11.40    0.90
   3  -2   0   13.00    1.00
   3  -2   0   12.30    0.80
   3  -2   0   12.40    0.90
   3  -2   0   12.20    0.90
   3  -2   0   11.00    0.90
   3  -2   0   15.20    1.60
  -3   3   0    5.60    0.80
  -3   3   0    4.80    0.70
  -3   3   0    5.20    0.60
  -3   3   0    5.60    0.90
  -3   3   0    5.50    0.80
  -3   3   0    5.30    0.50
  -3   3   0    5.30    0.70
   3  -3   0    4.90    0.60
   3  -3   0    6.60    0.80
   3  -3   0    6.10    0.60
   3  -3   0    5.70    0.50
   3  -3   0    4.30    0.70
   3  -3   0    4.70    0.70
   3  -3   0    4.10    1.00
   3  -3   0    5.30    0.70
  -3   4   0   -0.30    0.40
  -3   4   0    0.80    0.50
  -3   4   0    0.10    0.30
  -3   4   0    0.10    0.40
  -3   4   0    0.20    0.50
  -3   4   0   -0.50    0.30
   3  -4   0    0.80    0.40
   3  -4   0    0.00    0.20
   3  -4   0    0.00    0.30
   3  -4   0    0.20    0.20
   3  -4   0    0.30    0.60
   3  -4   0   -0.10    0.30
   3  -4   0   -0.10    0.30
  -3   5   0    0.00    0.40
  -3   5   0    0.60    0.50
  -3   5   0    0.70    0.50
  -3   5   0    1.40    0.60
   3  -5   0   -1.00    0.40
   3  -5   0   -0.10    0.30
   3  -5   0   -0.10    0.20
  -3   6   0   -0.70    0.40
  -3   6   0   -0.10    0.60
  -3   6   0   -0.50    0.50
   3  -6   0    0.40    0.90
   3  -6   0    0.30    0.40
  -3   7   0   36.30    2.30
  -3   7   0   37.20    2.60
  -3   7   0   32.50    2.40
   3  -7   0   27.40    3.40
  -4 -10   0    0.30    0.80
  -4 -10   0   -0.50    0.70
  -4 -10   0   -0.20    0.60
   4  10   0    0.10    0.60
   4  10   0   -0.10    0.30
  -4  -9   0   -0.40    0.70
  -4  -9   0   -0.20    0.60
  -4  -9   0    1.30    0.80
   4   9   0   -0.20    0.60
   4   9   0   -0.20    0.30
   4   9   0    0.30    0.30
  -4  -8   0    6.00    1.10
  -4  -8   0    5.30    1.20
  -4  -8   0    5.60    1.20
   4   8   0    6.10    0.70
   4   8   0    5.60    0.60
   4   8   0    4.90    0.70
   4   8   0    5.10    0.70
   4   8   0    5.90    0.60
   4   8   0    5.90    0.70
   4   8   0    6.40    1.20
   4   8   0    5.70    0.50
  -4  -7   0   74.29    3.40
  -4  -7   0   81.69    3.80
  -4  -7   0   71.29    2.90
  -4  -7   0   70.99    3.90
   4   7   0   72.39    2.70
   4   7   0   77.29    3.10
   4   7   0   74.39    3.10
   4   7   0   75.19    3.00
   4   7   0   75.59    3.40
   4   7   0   74.29    2.60
   4   7   0   73.09    2.70
   4   7   0   75.19    3.00
  -4  -6   0   -0.40    0.20
  -4  -6   0    0.00    0.50
  -4  -6   0    0.00    0.40
  -4  -6   0    0.00    0.20
  -4  -6   0   -0.10    0.20
   4   6   0   -0.10    0.20
   4   6   0    0.20    0.10
   4   6   0    0.10    0.10
   4   6   0    0.10    0.20
   4   6   0    0.10    0.30
   4   6   0    0.00    0.20
   4   6   0    0.10    0.10
   4   6   0    0.30    0.10
   4   6   0   -0.20    0.20
  -4  -5   0  156.28    6.10
  -4  -5   0  154.48    5.60
  -4  -5   0  162.18    5.50
  -4  -5   0  153.78    6.20
  -4  -5   0  161.48    5.40
   4   5   0  157.48    5.10
   4   5   0  157.18    5.20
   4   5   0  159.08    5.60
   4   5   0  153.38    5.80
   4   5   0  161.08    5.20
   4   5   0  161.28    5.70
   4   5   0  159.18    5.70
   4   5   0  155.18    5.70
   4   5   0  159.88    5.10
  -4  -4   0  204.58    7.10
  -4  -4   0  194.78    7.00
  -4  -4   0  188.28    6.70
  -4  -4   0  199.58    6.40
   4   4   0  184.08    6.70
   4   4   0  191.68    6.60
   4   4   0  170.68    7.10
   4   4   0  193.28    6.80
   4   4   0  188.58    6.30
   4   4   0  193.98    6.60
   4   4   0  194.98    6.20
   4   4   0  187.18    6.20
   4   4   0  188.68    6.20
  -4  -3   0  360.76   11.80
  -4  -3   0  383.46   12.00
  -4  -3   0  386.26   12.50
  -4  -3   0  374.16   11.80
  -4  -3   0  362.16   12.10
  -4  -3   0  372.16   12.40
   4   3   0  333.07   12.30
   4   3   0  342.27   12.00
   4   3   0  370.86   12.00
   4   3   0  369.36   11.90
   4   3   0  346.67   12.20
   4   3   0  367.46   11.90
   4   3   0  374.96   11.90
   4   3   0  365.66   12.30
  -4  -2   0  111.49    4.20
  -4  -2   0  115.79    4.20
  -4  -2   0  112.49    4.00
  -4  -2   0  119.89    4.00
  -4  -2   0  107.09    4.10
  -4  -2   0  110.89    3.90
  -4  -2   0  107.99    3.90
  -4  -2   0  108.19    3.90
   4   2   0  111.29    4.00
   4   2   0  110.99    4.00
   4   2   0  107.19    4.00
   4   2   0  123.29    4.10
   4   2   0  109.69    4.20
   4   2   0  116.39    4.20
   4   2   0  106.89    4.00
   4   2   0  117.89    3.90
   4   2   0  120.49    3.90
   4   2   0  114.59    4.00
  -4  -1   0   35.90    1.60
  -4  -1   0   35.80    1.60
  -4  -1   0   34.40    1.60
  -4  -1   0   34.10    1.50
  -4  -1   0   38.50    1.70
   4   1   0   36.90    1.70
   4   1   0   35.40    1.70
   4   1   0   35.50    1.60
   4   1   0   35.40    1.70
   4   1   0   35.50    1.60
   4   1   0   37.10    1.60
   4   1   0   37.30    1.50
   4   1   0   36.50    1.60
   4   1   0   34.00    1.60
  -4   0   0   68.19    2.70
  -4   0   0   67.29    2.50
  -4   0   0   66.89    2.40
  -4   0   0   68.29    2.80
  -4   0   0   66.29    2.70
  -4   0   0   66.89    2.70
   4   0   0   70.29    2.80
   4   0   0   66.09    2.60
   4   0   0   63.09    2.70
   4   0   0   63.19    2.50
   4   0   0   63.29    2.60
   4   0   0   70.09    2.80
   4   0   0   69.29    2.60
   4   0   0   63.89    2.70
   4   0   0   66.09    2.70
   4   0   0   67.69    2.90
  -4   1   0    0.00    0.20
  -4   1   0    0.30    0.30
  -4   1   0    0.10    0.30
  -4   1   0    0.30    0.30
  -4   1   0    0.10    0.30
   4  -1   0    0.20    0.30
   4  -1   0    0.40    0.30
   4  -1   0    0.20    0.30
   4  -1   0    0.60    0.30
   4  -1   0    1.00    0.40
   4  -1   0    0.60    0.50
   4  -1   0    0.30    0.30
   4  -1   0    0.20    0.30
   4  -1   0    0.20    0.30
  -4   2   0    9.70    1.10
  -4   2   0    9.00    0.90
  -4   2   0    9.90    1.10
  -4   2   0    9.00    0.70
  -4   2   0    7.60    0.90
  -4   2   0    9.60    0.80
   4  -2   0    8.40    1.00
   4  -2   0    9.40    0.80
   4  -2   0    7.50    0.90
   4  -2   0    9.00    0.90
   4  -2   0    9.10    1.10
   4  -2   0    9.70    1.40
   4  -2   0    8.60    0.90
   4  -2   0    8.90    0.80
  -4   3   0   -0.10    0.30
  -4   3   0    1.20    0.50
  -4   3   0   -0.30    0.40
  -4   3   0    1.10    0.40
  -4   3   0    0.70    0.30
  -4   3   0    0.20    0.30
   4  -3   0    0.20    0.60
   4  -3   0    0.70    0.40
   4  -3   0    0.80    0.40
   4  -3   0    1.20    0.50
   4  -3   0    0.70    0.40
   4  -3   0    0.10    0.30
   4  -3   0    0.70    0.40
  -4   4   0   17.10    1.40
  -4   4   0   15.50    1.30
  -4   4   0   16.10    1.60
  -4   4   0   15.90    1.70
   4  -4   0   17.10    1.40
   4  -4   0   16.80    0.90
   4  -4   0   17.90    2.20
   4  -4   0   17.00    1.10
   4  -4   0   16.20    1.60
  -4   5   0   25.20    1.90
  -4   5   0   27.00    2.00
  -4   5   0   28.90    1.90
   4  -5   0   25.70    1.40
   4  -5   0   18.90    2.50
   4  -5   0   26.60    1.80
  -4   6   0   -0.80    0.50
  -4   6   0    0.60    0.60
  -4   6   0    0.40    0.80
   4  -6   0    0.90    0.60
   4  -6   0    0.50    0.80
  -5 -10   0    2.30    1.10
  -5 -10   0    3.60    1.30
   5  10   0    3.80    1.20
   5  10   0    3.20    0.50
  -5  -9   0    4.00    1.20
  -5  -9   0    1.80    0.90
   5   9   0    1.00    0.70
   5   9   0    2.20    0.60
   5   9   0    2.20    0.40
   5   9   0    2.40    0.40
  -5  -8   0   24.60    2.00
  -5  -8   0   23.80    2.20
  -5  -8   0   26.60    1.50
   5   8   0   21.30    2.60
   5   8   0   25.00    1.90
   5   8   0   24.90    1.50
   5   8   0   24.30    1.10
   5   8   0   27.20    1.60
   5   8   0   27.60    1.20
   5   8   0   27.40    1.60
   5   8   0   24.90    1.50
  -5  -7   0   81.49    3.00
  -5  -7   0   76.79    3.20
  -5  -7   0   79.89    3.80
  -5  -7   0   76.59    4.10
   5   7   0   76.09    3.20
   5   7   0   79.89    3.50
   5   7   0   76.59    4.40
   5   7   0   77.79    2.70
   5   7   0   75.79    3.30
   5   7   0   77.19    2.70
   5   7   0   78.29    3.30
   5   7   0   79.89    3.30
  -5  -6   0   48.40    2.80
  -5  -6   0   49.50    2.20
  -5  -6   0   46.80    1.90
  -5  -6   0   47.80    2.60
   5   6   0   42.00    2.90
   5   6   0   45.10    2.20
   5   6   0   47.90    2.10
   5   6   0   47.20    1.70
   5   6   0   47.50    2.10
   5   6   0   43.30    1.70
   5   6   0   45.50    2.20
   5   6   0   45.60    2.30
   5   6   0   45.40    2.20
  -5  -5   0   19.00    1.20
  -5  -5   0   20.80    1.50
  -5  -5   0   24.20    1.10
  -5  -5   0   19.00    1.60
   5   5   0   19.40    0.90
   5   5   0   22.30    1.40
   5   5   0   23.70    1.20
   5   5   0   20.40    1.70
   5   5   0   21.90    1.20
   5   5   0   20.10    1.30
   5   5   0   21.30    1.30
   5   5   0   20.30    0.80
   5   5   0   21.20    0.90
   5   5   0   20.20    0.90
  -5  -4   0    3.30    0.20
  -5  -4   0    3.30    0.20
  -5  -4   0    3.80    0.50
  -5  -4   0    2.70    0.70
  -5  -4   0    3.00    0.70
  -5  -4   0    3.40    0.50
  -5  -4   0    4.80    0.70
   5   4   0    3.70    0.50
   5   4   0    3.80    0.70
   5   4   0    3.20    0.70
   5   4   0    4.10    0.50
   5   4   0    3.60    0.40
   5   4   0    3.40    0.60
   5   4   0    2.80    0.30
   5   4   0    3.20    0.40
  -5  -3   0   26.80    1.20
  -5  -3   0   28.20    1.40
  -5  -3   0   29.40    1.10
  -5  -3   0   25.90    1.50
  -5  -3   0   27.50    1.60
  -5  -3   0   28.30    1.40
  -5  -3   0   27.00    1.30
   5   3   0   28.70    1.40
   5   3   0   26.80    1.30
   5   3   0   26.20    1.20
   5   3   0   29.90    1.30
   5   3   0   26.80    1.50
   5   3   0   26.90    1.30
   5   3   0   26.70    1.30
   5   3   0   26.70    1.60
   5   3   0   27.90    1.30
  -5  -2   0    1.20    0.30
  -5  -2   0    1.80    0.50
  -5  -2   0    1.70    0.50
  -5  -2   0    1.20    0.30
  -5  -2   0    1.30    0.40
  -5  -2   0    1.40    0.30
   5   2   0    1.50    0.30
   5   2   0    1.70    0.50
   5   2   0    1.10    0.30
   5   2   0    1.00    0.40
   5   2   0    1.50    0.40
   5   2   0    1.00    0.30
   5   2   0    1.20    0.30
   5   2   0    2.00    0.50
   5   2   0    1.30    0.40
   5   2   0    1.90    0.40
  -5  -1   0    3.30    0.50
  -5  -1   0    3.90    0.60
  -5  -1   0    2.80    0.50
  -5  -1   0    4.80    0.70
   5   1   0    3.30    0.50
   5   1   0    2.70    0.50
   5   1   0    4.00    0.60
   5   1   0    3.00    0.50
   5   1   0    3.20    0.60
   5   1   0    3.60    0.50
   5   1   0    2.90    0.50
   5   1   0    3.40    0.70
   5   1   0    3.60    0.50
   5   1   0    2.90    0.50
  -5   0   0    0.30    0.30
  -5   0   0    0.20    0.30
  -5   0   0    0.40    0.30
  -5   0   0    0.20    0.30
  -5   0   0    0.10    0.20
  -5   0   0    0.40    0.30
   5   0   0    0.50    0.50
   5   0   0    0.30    0.30
   5   0   0    0.30    0.30
   5   0   0   -0.20    0.30
   5   0   0    0.50    0.30
   5   0   0    0.10    0.30
   5   0   0    0.70    0.40
   5   0   0    0.90    0.40
   5   0   0    0.20    0.30
  -5   1   0    5.40    0.80
  -5   1   0    5.70    0.70
  -5   1   0    4.90    0.70
  -5   1   0    6.80    0.90
  -5   1   0    4.10    0.70
   5  -1   0    5.80    1.10
   5  -1   0    5.30    0.80
   5  -1   0    5.40    0.70
   5  -1   0    4.30    0.80
   5  -1   0    4.30    0.70
   5  -1   0    5.00    0.80
   5  -1   0    5.80    0.80
   5  -1   0    5.70    0.80
  -5   2   0    3.30    0.60
  -5   2   0    4.00    0.70
  -5   2   0    3.60    0.70
  -5   2   0    3.70    0.70
  -5   2   0    3.60    0.70
  -5   2   0    1.80    0.60
   5  -2   0    3.10    1.00
   5  -2   0    2.40    0.60
   5  -2   0    2.90    0.70
   5  -2   0    4.00    0.80
   5  -2   0    3.40    0.60
   5  -2   0    2.20    0.50
   5  -2   0    3.40    0.70
  -5   3   0   52.49    2.90
  -5   3   0   53.29    2.80
  -5   3   0   52.59    2.30
  -5   3   0   51.99    2.50
  -5   3   0   55.59    2.60
   5  -3   0   52.69    3.40
   5  -3   0   51.09    2.70
   5  -3   0   50.79    2.60
   5  -3   0   51.29    2.50
   5  -3   0   53.79    2.50
   5  -3   0   52.19    2.70
  -5   4   0   16.40    1.40
  -5   4   0   15.20    1.70
  -5   4   0   17.30    1.90
   5  -4   0   16.10    1.70
   5  -4   0   14.90    1.20
   5  -4   0   15.90    2.30
  -5   5   0    4.80    1.10
  -5   5   0    6.50    1.20
   5  -5   0    4.40    0.70
   5  -5   0    4.00    1.50
   5  -5   0    8.30    1.30
  -5   6   0    2.10    1.00
  -5   6   0    2.70    0.90
   5  -6   0    1.20    1.10
   5  -6   0    4.30    1.00
  -6  -9   0    0.20    0.60
  -6  -9   0    0.40    0.70
   6   9   0    0.60    0.20
   6   9   0    0.50    0.20
   6   9   0    2.00    0.70
   6   9   0    0.40    0.50
  -6  -8   0    7.00    1.30
  -6  -8   0    8.10    1.00
  -6  -8   0    7.00    1.40
   6   8   0    6.90    0.40
   6   8   0    7.30    1.00
   6   8   0    6.70    0.90
   6   8   0    7.00    0.90
   6   8   0    5.90    1.50
   6   8   0    6.90    1.00
   6   8   0    6.60    0.40
  -6  -7   0   29.50    2.30
  -6  -7   0   28.20    1.40
  -6  -7   0   28.40    2.00
  -6  -7   0   25.70    1.60
   6   7   0   24.80    2.20
   6   7   0   27.10    1.70
   6   7   0   26.60    1.10
   6   7   0   26.90    1.70
   6   7   0   26.40    1.60
   6   7   0   31.40    1.80
   6   7   0   29.60    1.80
   6   7   0   28.80    1.60
   6   7   0   26.60    1.10
  -6  -6   0   59.29    3.00
  -6  -6   0   57.29    3.20
  -6  -6   0   59.69    2.40
  -6  -6   0   60.89    2.80
   6   6   0   59.49    2.10
   6   6   0   59.49    2.10
   6   6   0   59.09    2.00
   6   6   0   58.39    2.50
   6   6   0   55.39    3.30
   6   6   0   59.59    2.20
   6   6   0   54.49    2.70
   6   6   0   61.39    2.60
   6   6   0   59.79    2.80
   6   6   0   57.79    2.80
   6   6   0   59.39    2.80
  -6  -5   0   67.89    3.10
  -6  -5   0   73.69    3.40
  -6  -5   0   70.79    2.80
  -6  -5   0   70.59    3.40
   6   5   0   67.39    3.10
   6   5   0   66.49    3.30
   6   5   0   70.49    2.60
   6   5   0   73.79    2.90
   6   5   0   71.09    2.90
   6   5   0   71.89    2.70
   6   5   0   74.59    3.20
   6   5   0   70.79    2.50
   6   5   0   72.49    2.60
   6   5   0   62.99    3.10
  -6  -4   0    0.00    0.30
  -6  -4   0   -0.30    0.20
  -6  -4   0    0.20    0.30
  -6  -4   0    0.00    0.30
  -6  -4   0    0.20    0.10
   6   4   0    0.10    0.30
   6   4   0   -0.30    0.30
   6   4   0   -0.20    0.20
   6   4   0    0.00    0.20
   6   4   0    0.10    0.30
   6   4   0    0.00    0.20
   6   4   0   -0.20    0.20
   6   4   0    0.20    0.20
   6   4   0    0.20    0.30
  -6  -3   0    0.90    0.30
  -6  -3   0    1.50    0.30
  -6  -3   0    1.10    0.30
  -6  -3   0    1.00    0.40
  -6  -3   0    1.90    0.40
  -6  -3   0    2.40    0.60
   6   3   0    1.30    0.40
   6   3   0    1.10    0.30
   6   3   0    1.60    0.40
   6   3   0    1.20    0.50
   6   3   0    1.10    0.40
   6   3   0    0.80    0.40
   6   3   0    1.70    0.40
   6   3   0    1.10    0.40
  -6  -2   0   17.50    1.30
  -6  -2   0   19.00    1.30
  -6  -2   0   18.70    1.10
  -6  -2   0   20.40    1.10
  -6  -2   0   19.60    1.20
  -6  -2   0   20.00    1.10
   6   2   0   16.90    1.30
   6   2   0   17.80    1.20
   6   2   0   18.20    1.10
   6   2   0   17.60    1.30
   6   2   0   17.80    1.20
   6   2   0   20.20    1.20
   6   2   0   22.70    1.40
   6   2   0   18.00    1.20
   6   2   0   19.80    1.20
  -6  -1   0   30.50    1.60
  -6  -1   0   29.80    1.50
  -6  -1   0   31.70    1.60
  -6  -1   0   31.10    1.70
  -6  -1   0   29.70    1.70
   6   1   0   29.60    1.70
   6   1   0   31.20    1.60
   6   1   0   33.30    1.90
   6   1   0   24.50    1.60
   6   1   0   30.60    1.80
   6   1   0   29.60    1.60
   6   1   0   31.70    1.80
   6   1   0   27.90    1.70
   6   1   0   30.70    1.70
  -6   0   0  121.49    4.80
  -6   0   0  126.79    4.80
  -6   0   0  122.79    4.80
  -6   0   0  133.99    4.50
  -6   0   0  125.59    4.90
   6   0   0  120.29    4.90
   6   0   0  119.19    4.70
   6   0   0  118.79    4.90
   6   0   0  127.29    4.80
   6   0   0  117.99    4.80
   6   0   0  125.19    4.90
   6   0   0  119.39    4.70
   6   0   0  125.99    5.20
  -6   1   0    1.50    0.50
  -6   1   0    1.20    0.40
  -6   1   0    1.20    0.50
  -6   1   0    2.00    0.60
  -6   1   0    0.90    0.30
  -6   1   0    1.00    0.40
   6  -1   0    1.60    0.80
   6  -1   0    0.90    0.50
   6  -1   0    1.10    0.50
   6  -1   0    1.60    0.60
   6  -1   0    0.60    0.40
   6  -1   0    1.10    0.50
  -6   2   0    2.30    0.60
  -6   2   0    2.00    0.60
  -6   2   0    1.60    0.60
   6  -2   0    2.20    0.60
   6  -2   0    2.30    0.70
   6  -2   0    1.10    0.50
   6  -2   0    1.70    0.60
   6  -2   0    2.30    0.70
   6  -2   0    2.30    0.90
  -6   3   0    3.10    0.80
  -6   3   0    3.10    0.80
  -6   3   0    3.80    0.70
   6  -3   0    3.90    1.10
   6  -3   0    3.50    0.80
   6  -3   0    3.10    0.70
   6  -3   0    3.50    0.90
  -6   4   0    0.20    0.60
  -6   4   0    1.90    0.70
   6  -4   0    1.20    0.60
   6  -4   0    1.80    0.80
   6  -4   0    0.10    0.90
  -6   5   0    5.20    1.20
  -6   5   0    1.10    0.90
   6  -5   0    3.80    1.00
   6  -5   0    5.10    1.60
  -7  -9   0    1.00    0.90
  -7  -9   0    0.60    0.50
  -7  -9   0    0.60    0.70
   7   9   0    0.90    0.60
  -7  -8   0    0.90    0.70
  -7  -8   0    2.20    1.00
  -7  -8   0    1.20    0.50
   7   8   0    1.70    0.30
   7   8   0    2.00    0.70
   7   8   0    2.50    0.30
   7   8   0    1.40    0.70
   7   8   0    2.20    0.70
  -7  -7   0    0.00    0.20
  -7  -7   0    0.90    0.70
  -7  -7   0    0.80    0.50
  -7  -7   0    0.30    0.60
   7   7   0    0.10    0.40
   7   7   0   -0.20    0.30
   7   7   0    0.40    0.50
   7   7   0    0.20    0.20
   7   7   0    0.10    0.20
   7   7   0    0.10    0.30
  -7  -6   0    0.80    0.50
  -7  -6   0    0.80    0.60
  -7  -6   0    1.50    0.70
  -7  -6   0    0.60    0.30
   7   6   0    0.50    0.40
   7   6   0    1.20    0.60
   7   6   0   -0.20    0.40
   7   6   0    0.40    0.60
   7   6   0    0.80    0.30
   7   6   0    0.50    0.40
   7   6   0    0.70    0.20
   7   6   0    0.40    0.20
  -7  -5   0   48.80    2.30
  -7  -5   0   45.60    2.40
  -7  -5   0   47.50    2.70
  -7  -5   0   48.60    2.10
   7   5   0   46.10    2.00
   7   5   0   47.00    1.90
   7   5   0   45.30    2.50
   7   5   0   45.30    2.80
   7   5   0   51.09    2.30
   7   5   0   47.10    2.10
   7   5   0   46.70    2.50
   7   5   0   46.50    2.10
  -7  -4   0  114.99    4.40
  -7  -4   0  123.89    5.00
  -7  -4   0  113.29    4.70
  -7  -4   0  110.49    4.60
   7   4   0  112.69    4.30
   7   4   0  118.79    4.90
   7   4   0  119.79    4.50
   7   4   0  110.89    4.80
   7   4   0  122.69    4.40
   7   4   0  115.69    4.50
  -7  -3   0   40.90    2.30
  -7  -3   0   39.50    1.80
  -7  -3   0   39.70    2.20
  -7  -3   0   44.70    2.30
  -7  -3   0   40.90    1.90
   7   3   0   43.90    2.40
   7   3   0   39.10    2.30
   7   3   0   40.40    2.30
   7   3   0   42.30    2.00
   7   3   0   41.50    2.00
   7   3   0   43.80    2.10
   7   3   0   38.60    1.90
  -7  -2   0   78.89    3.60
  -7  -2   0   78.89    3.60
  -7  -2   0   82.99    3.30
  -7  -2   0   77.99    3.30
   7   2   0   83.79    3.30
   7   2   0   78.49    3.40
   7   2   0   80.59    3.70
   7   2   0   81.29    3.30
   7   2   0   77.49    3.40
   7   2   0   82.49    3.40
   7   2   0   87.79    3.70
  -7  -1   0   85.49    3.70
  -7  -1   0   91.59    3.90
  -7  -1   0   87.59    3.60
   7   1   0   92.19    3.70
   7   1   0   83.39    3.70
   7   1   0   99.89    4.10
   7   1   0   91.49    4.00
   7   1   0   91.39    3.90
   7   1   0   87.49    3.90
   7   1   0   86.29    3.80
  -7   0   0   24.50    1.30
  -7   0   0   20.80    1.50
  -7   0   0   22.60    1.60
   7   0   0   22.60    1.50
   7   0   0   22.10    1.60
   7   0   0   22.50    1.60
   7   0   0   24.30    1.70
   7   0   0   21.90    1.60
   7   0   0   22.60    1.90
  -7   1   0    1.60    0.50
  -7   1   0    0.50    0.50
  -7   1   0    0.90    0.60
   7  -1   0    0.50    0.40
   7  -1   0    1.80    0.70
   7  -1   0    2.50    0.70
   7  -1   0    0.50    0.70
   7  -1   0    1.40    0.70
   7  -1   0    1.30    0.60
  -7   2   0   11.60    1.30
  -7   2   0   11.70    1.10
  -7   2   0   11.30    1.50
   7  -2   0   10.80    1.40
   7  -2   0   12.10    1.50
   7  -2   0   10.40    1.30
   7  -2   0   14.20    1.50
   7  -2   0   14.00    1.20
   7  -2   0   12.90    2.00
  -7   3   0    3.80    0.80
  -7   3   0    4.10    1.00
  -7   3   0    3.40    0.80
   7  -3   0    3.50    1.30
   7  -3   0    3.90    0.90
   7  -3   0    4.20    1.10
  -8  -8   0   -0.20    0.60
  -8  -8   0    1.20    0.80
  -8  -8   0   -0.40    0.40
   8   8   0    0.20    0.50
   8   8   0   -0.20    0.50
   8   8   0    0.20    0.20
   8   8   0    0.30    0.20
  -8  -7   0    9.80    1.00
  -8  -7   0   10.50    1.40
  -8  -7   0    6.60    1.30
   8   7   0    5.40    1.00
   8   7   0    8.50    1.30
   8   7   0    8.20    0.60
  -8  -6   0    3.10    0.80
  -8  -6   0    2.70    0.80
  -8  -6   0    2.50    0.60
   8   6   0    2.10    0.40
   8   6   0    0.90    0.60
   8   6   0    1.70    0.70
   8   6   0    2.10    0.60
   8   6   0    2.70    0.60
   8   6   0    2.10    0.40
  -8  -5   0   30.60    1.60
  -8  -5   0   30.30    2.00
  -8  -5   0   28.20    2.00
   8   5   0   28.40    2.00
   8   5   0   29.70    1.90
   8   5   0   29.30    2.00
   8   5   0   29.30    1.50
   8   5   0   26.70    1.60
   8   5   0   29.50    1.50
  -8  -4   0   23.00    1.40
  -8  -4   0   19.30    1.60
  -8  -4   0   20.90    1.60
   8   4   0   24.30    1.40
   8   4   0   23.60    1.80
   8   4   0   22.20    1.40
  -8  -3   0    4.00    0.80
  -8  -3   0    4.60    0.90
  -8  -3   0    4.70    0.70
   8   3   0    4.30    0.80
   8   3   0    4.20    0.70
   8   3   0    5.00    1.00
  -8  -2   0    3.50    0.80
  -8  -2   0    3.80    0.70
  -8  -2   0    2.40    0.70
   8   2   0    3.50    0.90
   8   2   0    4.40    0.80
   8   2   0    4.40    0.80
   8   2   0    4.40    0.80
  -8  -1   0    5.60    0.90
  -8  -1   0    7.60    1.00
  -8  -1   0    8.40    1.20
   8   1   0    6.80    1.00
   8   1   0    5.10    0.90
   8   1   0    6.40    1.00
   8   1   0    6.80    1.10
  -8   0   0  134.69    5.60
  -8   0   0  134.39    5.40
  -8   0   0  142.79    5.60
   8   0   0  135.99    5.50
   8   0   0  132.09    5.60
   8   0   0  144.69    6.10
   8   0   0  131.19    5.60
   8   0   0  132.09    5.60
  -8   1   0   11.40    1.40
  -8   1   0   10.90    1.40
   8  -1   0   12.10    1.90
   8  -1   0   10.00    1.40
   8  -1   0   11.40    1.50
   8  -1   0   11.90    1.50
   8  -1   0   11.70    1.50
  -8   2   0   10.40    1.50
  -8   2   0   10.60    1.30
   8  -2   0    8.10    1.40
   8  -2   0    9.50    1.40
   8  -2   0   12.10    2.10
   8  -2   0    8.50    1.30
  -9  -7   0    4.80    1.00
   9   7   0    6.10    1.20
   9   7   0    4.50    1.10
   9   7   0    5.50    0.70
  -9  -6   0    1.10    0.60
  -9  -6   0    0.90    0.40
   9   6   0    0.50    0.30
   9   6   0    1.50    0.70
   9   6   0    0.90    0.40
   9   6   0    0.50    0.60
  -9  -5   0    0.50    0.40
  -9  -5   0   -0.10    0.40
   9   5   0    0.00    0.30
   9   5   0    0.30    0.40
   9   5   0   -0.20    0.40
   9   5   0    0.50    0.50
   9   5   0   -0.20    0.50
  -9  -4   0   -0.70    0.30
  -9  -4   0    0.10    0.40
   9   4   0   -0.20    0.40
   9   4   0    0.60    0.40
   9   4   0    0.30    0.40
   9   4   0   -0.20    0.40
  -9  -3   0    1.20    0.70
  -9  -3   0    1.10    0.50
   9   3   0    0.90    0.60
   9   3   0    0.90    0.50
  -9  -2   0   18.40    1.40
  -9  -2   0   21.60    2.10
   9   2   0   21.30    1.80
   9   2   0   17.60    1.50
  -9  -1   0   40.90    2.30
  -9  -1   0   40.60    2.50
   9   1   0   39.80    2.40
   9   1   0   40.30    2.60
   9   1   0   39.60    2.30
  -9   0   0    9.10    1.30
  -9   0   0    6.40    1.00
   9   0   0    5.50    1.10
   9   0   0    5.80    1.00
   9   0   0    5.90    1.10
 -10  -5   0    2.10    0.80
 -10  -5   0    1.70    0.60
  10   5   0    1.90    0.90
  10   5   0    1.20    0.80
  10   5   0    4.10    0.90
  10   5   0    2.60    0.60
 -10  -4   0   11.00    1.30
 -10  -4   0    9.10    1.40
  10   4   0    9.70    1.50
  10   4   0   13.70    1.40
  10   4   0   11.30    1.60
  10   4   0    9.50    1.10
   9   0  -1   13.20    1.70
   9   0  -1   12.30    1.40
   9   0  -1   13.00    1.60
   9   0  -1   11.60    1.50
  -9   0   1   12.80    1.60
  -9   0   1   11.80    1.40
   9   1  -1    7.40    1.20
   9   1  -1    8.50    1.30
   9   1  -1    6.70    1.00
   9   1  -1    2.90    0.90
  -9  -1   1    5.40    1.00
  -9  -1   1    9.50    1.40
   9   2  -1   -0.10    0.40
   9   2  -1   -0.20    0.30
   9   2  -1    0.00    0.50
   9   2  -1    0.30    0.50
   9   2  -1    0.90    0.60
  -9  -2   1    0.30    0.40
  -9  -2   1   -0.90    0.50
  -9  -2   1   -0.50    0.40
   9   3  -1   13.80    1.60
   9   3  -1   15.40    1.50
   9   3  -1   15.40    1.80
   9   3  -1   15.80    1.60
   9   3  -1   16.20    1.30
  -9  -3   1   14.30    1.20
  -9  -3   1   12.70    1.70
  -9  -3   1   13.70    1.70
   9   4  -1   14.60    1.70
   9   4  -1   11.00    1.50
   9   4  -1   14.00    1.10
   9   4  -1   14.70    1.40
  -9  -4   1   11.80    1.20
  -9  -4   1   10.30    1.40
  -9  -4   1   12.30    1.70
   9   5  -1    3.40    0.70
   9   5  -1    3.20    0.60
   9   5  -1    1.80    0.80
   9   5  -1    2.00    0.80
  -9  -5   1    3.30    0.70
  -9  -5   1    3.00    0.90
  -9  -5   1    1.80    0.80
   9   6  -1   17.60    1.90
   9   6  -1   19.10    1.10
   9   6  -1   20.10    1.80
   9   6  -1   18.30    1.20
  -9  -6   1   18.80    2.20
  -9  -6   1   20.80    1.70
  -9  -6   1   17.70    1.30
   9   7  -1    1.50    0.80
   9   7  -1    3.80    0.60
   9   7  -1    2.80    0.90
  -9  -7   1    5.80    1.40
  -9  -7   1    2.70    0.90
   8  -2  -1    4.10    1.00
   8  -2  -1    1.80    1.10
   8  -2  -1    3.30    0.90
  -8   2   1    4.00    0.90
  -8   2   1    4.50    1.00
   8  -1  -1    2.80    0.80
   8  -1  -1    1.90    0.80
   8  -1  -1    2.20    0.80
   8  -1  -1    4.40    1.20
  -8   1   1    3.70    0.70
  -8   1   1    4.20    1.00
  -8   1   1    1.20    0.70
   8   0  -1    8.70    1.20
   8   0  -1    8.70    1.30
   8   0  -1    8.30    1.20
  -8   0   1   10.30    1.30
  -8   0   1   10.90    1.40
   8   1  -1   10.60    1.40
   8   1  -1   14.50    1.30
  -8  -1   1   16.40    1.70
  -8  -1   1   13.50    1.40
   8   2  -1    2.80    0.70
   8   2  -1    2.70    0.80
  -8  -2   1    2.20    0.80
  -8  -2   1    1.10    0.70
  -8  -2   1    2.20    0.60
   8   3  -1   10.10    1.00
   8   3  -1   11.70    1.20
   8   3  -1    8.50    1.00
   8   3  -1   11.00    1.40
  -8  -3   1   11.20    1.10
  -8  -3   1   14.40    1.60
  -8  -3   1   12.20    1.50
   8   4  -1   18.50    1.60
   8   4  -1   18.70    1.30
   8   4  -1   17.90    1.80
   8   4  -1   17.80    1.20
   8   4  -1   18.40    1.20
  -8  -4   1   20.30    1.30
  -8  -4   1   18.60    1.70
  -8  -4   1   18.80    1.50
   8   5  -1    0.40    0.30
   8   5  -1    0.30    0.50
   8   5  -1    0.50    0.50
   8   5  -1    0.30    0.40
   8   5  -1    0.50    0.40
   8   5  -1    0.40    0.30
  -8  -5   1   -0.30    0.40
  -8  -5   1    0.20    0.40
  -8  -5   1    0.50    0.40
   8   6  -1    2.60    0.60
   8   6  -1    2.70    0.80
   8   6  -1    4.20    0.50
   8   6  -1    3.50    0.60
   8   6  -1    2.80    0.80
  -8  -6   1    4.00    0.90
  -8  -6   1    4.80    1.20
  -8  -6   1    3.30    0.60
   8   7  -1   26.70    1.90
   8   7  -1   29.00    1.40
   8   7  -1   28.30    2.00
  -8  -7   1   30.80    2.50
  -8  -7   1   24.90    1.90
   8   8  -1    1.40    0.70
   8   8  -1    2.30    0.40
   8   8  -1    2.40    0.80
  -8  -8   1    0.80    0.70
  -8  -8   1    1.20    0.90
   7  -3  -1    1.10    0.70
   7  -3  -1    0.50    0.80
   7  -3  -1    0.50    0.60
  -7   3   1    0.70    0.70
  -7   3   1    0.30    0.60
  -7   3   1    0.60    0.60
   7  -2  -1    4.40    0.90
   7  -2  -1    5.90    1.40
   7  -2  -1    4.00    0.90
   7  -2  -1    2.20    0.70
  -7   2   1    3.50    0.80
  -7   2   1    4.00    0.80
  -7   2   1    4.60    0.90
   7  -1  -1   45.70    2.50
   7  -1  -1   40.60    2.30
   7  -1  -1   50.19    3.00
   7  -1  -1   43.70    2.40
   7  -1  -1   41.70    2.50
  -7   1   1   44.00    2.40
  -7   1   1   49.00    2.20
  -7   1   1   45.30    2.50
   7   0  -1   11.90    1.20
   7   0  -1   13.30    1.40
   7   0  -1   11.80    1.30
   7   0  -1   11.20    1.50
   7   0  -1   14.30    1.50
   7   0  -1   12.00    1.30
  -7   0   1   12.50    1.30
  -7   0   1   13.10    1.40
   7   1  -1  214.18    8.20
   7   1  -1  230.78    8.00
   7   1  -1  220.08    8.20
   7   1  -1  215.98    8.00
   7   1  -1  230.08    7.90
  -7  -1   1  217.98    8.10
  -7  -1   1  212.58    7.90
   7   2  -1  126.49    4.60
   7   2  -1  116.69    4.90
   7   2  -1  131.89    4.80
   7   2  -1  119.69    5.00
  -7  -2   1  118.29    5.00
  -7  -2   1  118.49    4.60
  -7  -2   1  116.89    4.60
  -7  -2   1  118.89    4.90
   7   3  -1   20.80    1.30
   7   3  -1   18.20    1.40
   7   3  -1   20.70    1.20
   7   3  -1   18.80    1.20
   7   3  -1   17.80    1.40
   7   3  -1   17.70    1.20
  -7  -3   1   16.90    1.50
  -7  -3   1   19.40    1.50
  -7  -3   1   18.70    1.40
  -7  -3   1   19.00    1.10
  -7  -3   1   19.50    1.20
   7   4  -1   19.30    1.40
   7   4  -1   17.80    1.40
   7   4  -1   18.80    1.20
   7   4  -1   16.40    1.20
   7   4  -1   18.10    1.40
   7   4  -1   18.50    1.10
   7   4  -1   18.40    1.10
   7   4  -1   15.70    1.20
  -7  -4   1   18.20    1.40
  -7  -4   1   17.10    1.10
  -7  -4   1   19.90    1.30
  -7  -4   1   19.60    1.60
   7   5  -1   25.80    1.40
   7   5  -1   25.60    1.50
   7   5  -1   26.90    1.80
   7   5  -1   26.60    1.30
   7   5  -1   25.50    1.40
   7   5  -1   23.20    1.70
   7   5  -1   24.70    1.20
  -7  -5   1   25.30    1.70
  -7  -5   1   26.80    1.60
  -7  -5   1   24.20    1.90
  -7  -5   1   24.60    1.30
   7   6  -1    0.40    0.50
   7   6  -1   -0.10    0.10
   7   6  -1    0.30    0.20
   7   6  -1    0.20    0.40
   7   6  -1    0.00    0.30
   7   6  -1   -0.40    0.30
   7   6  -1   -0.20    0.20
  -7  -6   1    0.00    0.30
  -7  -6   1   -0.10    0.20
  -7  -6   1   -0.10    0.40
   7   7  -1    0.30    0.50
   7   7  -1    0.60    0.20
   7   7  -1    0.50    0.30
   7   7  -1   -0.20    0.50
   7   7  -1    0.40    0.50
  -7  -7   1    0.80    0.50
  -7  -7   1    0.50    0.60
  -7  -7   1   -0.50    0.50
   7   8  -1    8.40    1.20
   7   8  -1    9.70    0.60
   7   8  -1    9.40    0.70
   7   8  -1   11.00    1.30
  -7  -8   1   11.00    1.90
  -7  -8   1   12.30    1.40
  -7  -8   1   12.20    1.70
   7   9  -1    8.10    0.60
   7   9  -1    9.00    0.60
   7   9  -1    6.00    1.00
  -7  -9   1    7.70    1.70
  -7  -9   1    8.20    1.20
  -7  -9   1   11.60    1.80
   6  -4  -1   -0.30    0.40
   6  -4  -1   -0.20    0.80
   6  -4  -1   -0.30    0.50
  -6   4   1   -0.50    0.60
  -6   4   1    1.20    0.60
   6  -3  -1   10.30    1.40
   6  -3  -1    8.80    1.10
   6  -3  -1    9.10    1.70
  -6   3   1   11.60    1.20
  -6   3   1   11.50    1.40
  -6   3   1   10.10    1.20
   6  -2  -1   28.10    1.80
   6  -2  -1   29.80    1.70
   6  -2  -1   26.90    1.80
   6  -2  -1   26.50    1.70
   6  -2  -1   29.80    1.90
   6  -2  -1   24.80    2.20
  -6   2   1   26.40    1.60
  -6   2   1   26.20    1.60
  -6   2   1   25.90    1.80
   6  -1  -1    5.10    0.80
   6  -1  -1    5.60    0.80
   6  -1  -1    5.60    0.90
   6  -1  -1    7.00    1.00
   6  -1  -1    5.60    0.90
   6  -1  -1    4.90    1.10
   6  -1  -1    4.40    0.80
  -6   1   1    6.40    0.80
  -6   1   1    3.60    0.80
  -6   1   1    8.00    1.00
  -6   1   1    6.70    1.00
   6   0  -1   65.49    3.00
   6   0  -1   68.99    2.90
   6   0  -1   68.39    2.90
   6   0  -1   60.39    2.80
   6   0  -1   63.89    3.00
   6   0  -1   66.89    3.00
   6   0  -1   61.89    2.90
   6   0  -1   63.99    3.20
  -6   0   1   68.09    2.70
  -6   0   1   63.09    2.90
  -6   0   1   69.49    3.10
  -6   0   1   65.69    3.00
  -6   0   1   76.49    3.90
   6   1  -1   92.19    3.60
   6   1  -1   89.29    3.50
   6   1  -1   84.99    3.80
   6   1  -1   93.49    3.90
   6   1  -1   87.69    3.50
   6   1  -1   87.89    3.80
   6   1  -1   87.29    3.70
   6   1  -1   91.39    3.80
   6   1  -1   89.69    3.70
  -6  -1   1   97.69    3.70
  -6  -1   1   88.09    3.60
  -6  -1   1   92.49    3.70
  -6  -1   1   88.79    3.70
   6   2  -1   10.10    1.00
   6   2  -1    5.70    0.70
   6   2  -1    6.50    0.70
   6   2  -1    8.90    0.90
   6   2  -1    8.30    0.90
   6   2  -1    4.70    0.80
   6   2  -1    7.80    0.90
  -6  -2   1    6.20    0.80
  -6  -2   1    6.90    0.90
  -6  -2   1    5.70    0.70
  -6  -2   1    6.90    1.00
  -6  -2   1    7.80    0.70
  -6  -2   1    8.30    0.70
   6   3  -1   11.60    1.00
   6   3  -1   14.60    1.00
   6   3  -1   10.40    1.10
   6   3  -1   11.80    1.30
   6   3  -1   13.10    0.90
   6   3  -1   11.20    0.80
   6   3  -1   11.90    0.90
  -6  -3   1   13.90    1.00
  -6  -3   1   12.20    0.80
  -6  -3   1   12.30    1.40
  -6  -3   1   14.50    0.80
  -6  -3   1   13.90    0.80
  -6  -3   1   13.60    1.10
   6   4  -1   -0.10    0.20
   6   4  -1   -0.20    0.20
   6   4  -1    0.40    0.30
   6   4  -1   -0.30    0.30
   6   4  -1   -0.20    0.20
   6   4  -1    0.20    0.40
   6   4  -1   -0.10    0.20
   6   4  -1    0.20    0.40
   6   4  -1    0.30    0.20
   6   4  -1    0.10    0.20
  -6  -4   1    1.10    0.50
  -6  -4   1    0.10    0.10
  -6  -4   1    0.00    0.20
  -6  -4   1    0.20    0.30
  -6  -4   1    0.00    0.20
   6   5  -1    4.90    0.80
   6   5  -1    4.10    0.50
   6   5  -1    4.30    0.50
   6   5  -1    4.20    0.70
   6   5  -1    5.30    0.50
   6   5  -1    5.10    0.60
   6   5  -1    4.90    0.80
   6   5  -1    4.20    0.90
   6   5  -1    4.30    0.60
  -6  -5   1    3.90    0.70
  -6  -5   1    5.00    1.00
  -6  -5   1    4.40    0.60
   6   6  -1  100.19    3.50
   6   6  -1   83.99    4.50
   6   6  -1   94.39    3.40
   6   6  -1   99.39    4.10
   6   6  -1  100.19    4.00
   6   6  -1   97.19    3.70
   6   6  -1   94.69    4.00
   6   6  -1   93.09    3.70
   6   6  -1   94.39    3.30
  -6  -6   1   99.59    4.00
  -6  -6   1   99.69    4.30
  -6  -6   1   98.09    3.60
  -6  -6   1   94.79    4.60
   6   7  -1    0.50    0.40
   6   7  -1    0.20    0.30
   6   7  -1    0.50    0.50
   6   7  -1    0.30    0.40
   6   7  -1    0.40    0.20
   6   7  -1    0.10    0.40
   6   7  -1    0.70    0.20
   6   7  -1    0.00    0.40
  -6  -7   1    0.60    0.40
  -6  -7   1    0.80    0.70
  -6  -7   1   -0.10    0.50
   6   8  -1    0.10    0.20
   6   8  -1    0.80    0.50
   6   8  -1    0.60    0.50
   6   8  -1    0.90    0.50
   6   8  -1    0.30    0.20
  -6  -8   1   -0.90    0.50
  -6  -8   1   -0.30    0.50
  -6  -8   1    0.00    0.40
   6   9  -1    2.90    0.70
   6   9  -1    4.10    0.50
  -6  -9   1    3.70    1.20
  -6  -9   1    3.50    1.10
   5  -6  -1    4.70    1.50
   5  -6  -1    4.30    1.00
  -5   6   1    3.90    1.20
  -5   6   1    3.50    1.00
   5  -5  -1   43.40    2.20
   5  -5  -1   41.00    3.40
   5  -5  -1   41.10    2.60
  -5   5   1   47.00    2.80
  -5   5   1   44.00    2.60
   5  -4  -1   13.90    1.20
   5  -4  -1   14.90    2.20
   5  -4  -1   13.60    1.50
  -5   4   1   14.70    1.60
  -5   4   1   13.20    1.70
  -5   4   1   11.80    1.50
  -5   4   1   12.50    1.40
   5  -3  -1   10.80    1.30
   5  -3  -1   11.40    1.30
   5  -3  -1   12.00    0.90
   5  -3  -1   11.20    1.70
   5  -3  -1   12.00    1.20
   5  -3  -1   11.40    1.00
  -5   3   1   12.40    0.90
  -5   3   1    9.70    1.30
  -5   3   1   10.90    1.30
  -5   3   1   11.30    1.10
  -5   3   1   12.60    1.40
  -5   3   1   12.30    1.30
   5  -2  -1   13.30    1.10
   5  -2  -1   11.50    1.00
   5  -2  -1   16.20    1.90
   5  -2  -1   11.40    1.20
   5  -2  -1   12.30    1.10
   5  -2  -1   12.20    0.90
   5  -2  -1   11.30    1.20
   5  -2  -1   13.10    1.10
  -5   2   1   12.70    1.30
  -5   2   1   12.10    1.00
  -5   2   1   12.40    1.00
  -5   2   1   10.60    1.10
  -5   2   1   13.00    1.40
   5  -1  -1    1.10    0.50
   5  -1  -1    2.80    0.70
   5  -1  -1    2.40    0.60
   5  -1  -1    3.40    0.60
   5  -1  -1    1.40    0.50
   5  -1  -1    2.50    0.50
   5  -1  -1    2.20    0.70
   5  -1  -1    2.60    0.50
   5  -1  -1    3.30    0.60
  -5   1   1    4.10    0.70
  -5   1   1    3.00    0.70
  -5   1   1    2.30    0.50
  -5   1   1    2.20    0.50
  -5   1   1    3.00    0.60
  -5   1   1    2.40    0.50
   5   0  -1    0.30    0.30
   5   0  -1   -0.50    0.20
   5   0  -1   -0.10    0.30
   5   0  -1    0.10    0.30
   5   0  -1    0.50    0.30
   5   0  -1    0.20    0.40
   5   0  -1    0.70    0.40
   5   0  -1   -0.10    0.30
   5   0  -1    0.20    0.30
  -5   0   1    0.30    0.30
  -5   0   1   -0.10    0.20
  -5   0   1    0.40    0.30
  -5   0   1    0.20    0.30
  -5   0   1    0.30    0.30
   5   1  -1    7.70    0.70
   5   1  -1    8.90    1.00
   5   1  -1    7.00    0.90
   5   1  -1    8.00    0.90
   5   1  -1    8.00    0.80
   5   1  -1    9.10    0.80
   5   1  -1   10.40    1.00
   5   1  -1    8.60    0.70
   5   1  -1    7.60    0.80
   5   1  -1    8.00    0.90
  -5  -1   1    7.90    0.80
  -5  -1   1    8.00    0.80
  -5  -1   1    9.00    0.70
  -5  -1   1    8.40    0.90
   5   2  -1    0.10    0.30
   5   2  -1   -0.20    0.20
   5   2  -1   -0.20    0.20
   5   2  -1    0.10    0.20
   5   2  -1   -0.40    0.20
   5   2  -1    0.00    0.20
   5   2  -1    0.10    0.20
  -5  -2   1   -0.30    0.20
  -5  -2   1    0.00    0.30
  -5  -2   1    0.10    0.20
  -5  -2   1   -0.10    0.20
  -5  -2   1    0.00    0.20
  -5  -2   1   -0.30    0.10
  -5  -2   1    0.10    0.20
   5   3  -1   16.80    0.90
   5   3  -1   18.10    1.00
   5   3  -1   17.30    1.20
   5   3  -1   18.10    1.00
   5   3  -1   17.10    1.20
   5   3  -1   17.00    0.90
   5   3  -1   16.30    1.00
   5   3  -1   19.40    1.10
   5   3  -1   17.30    1.00
  -5  -3   1   17.30    1.00
  -5  -3   1   17.70    0.90
  -5  -3   1   18.50    0.80
  -5  -3   1   17.90    1.20
  -5  -3   1   18.70    1.00
  -5  -3   1   17.80    1.30
   5   4  -1   16.40    1.10
   5   4  -1   15.50    1.10
   5   4  -1   15.00    0.80
   5   4  -1   15.00    0.90
   5   4  -1   17.00    1.00
   5   4  -1   13.10    1.20
   5   4  -1   14.90    1.10
   5   4  -1   15.50    0.80
   5   4  -1   15.00    0.90
   5   4  -1   16.00    0.80
  -5  -4   1   16.00    1.20
  -5  -4   1   16.00    0.90
  -5  -4   1   16.20    0.70
  -5  -4   1   15.90    1.00
  -5  -4   1   17.00    1.10
  -5  -4   1   16.20    0.70
  -5  -4   1   16.10    1.30
   5   5  -1    0.70    0.20
   5   5  -1    0.70    0.20
   5   5  -1    0.30    0.40
   5   5  -1    0.60    0.40
   5   5  -1    0.10    0.20
   5   5  -1    1.00    0.30
   5   5  -1    0.40    0.20
   5   5  -1    0.50    0.40
   5   5  -1    0.80    0.20
  -5  -5   1    0.80    0.20
  -5  -5   1    0.50    0.50
  -5  -5   1    0.60    0.30
  -5  -5   1    0.80    0.50
   5   6  -1   51.29    2.20
   5   6  -1   47.70    2.40
   5   6  -1   49.00    2.40
   5   6  -1   49.30    1.90
   5   6  -1   49.30    1.80
   5   6  -1   52.49    2.40
   5   6  -1   49.20    1.90
   5   6  -1   49.80    1.80
   5   6  -1   54.69    2.20
   5   6  -1   53.49    2.50
  -5  -6   1   50.39    2.00
  -5  -6   1   51.29    2.70
  -5  -6   1   50.19    2.40
  -5  -6   1   52.19    3.00
   5   7  -1   44.20    2.20
   5   7  -1   42.70    1.60
   5   7  -1   43.10    1.70
   5   7  -1   44.10    2.40
   5   7  -1   41.40    2.10
   5   7  -1   41.70    2.10
   5   7  -1   42.40    1.70
   5   7  -1   47.20    2.00
  -5  -7   1   44.10    2.60
  -5  -7   1   44.10    2.90
  -5  -7   1   41.60    2.10
   5   8  -1    0.50    0.30
   5   8  -1    0.30    0.30
   5   8  -1    0.60    0.40
   5   8  -1    0.40    0.20
  -5  -8   1    1.10    0.40
  -5  -8   1   -0.10    0.50
  -5  -8   1    1.10    0.80
   5   9  -1    1.60    0.60
   5   9  -1    1.00    0.60
   5   9  -1    0.60    0.30
  -5  -9   1    0.70    0.80
  -5  -9   1    0.60    0.80
   4  -6  -1   73.19    3.70
   4  -6  -1   69.99    4.60
  -4   6   1   73.19    3.90
  -4   6   1   72.19    3.70
  -4   6   1   77.89    3.80
   4  -5  -1   -0.50    0.30
   4  -5  -1   -0.50    0.60
   4  -5  -1    0.30    0.40
  -4   5   1    0.40    0.50
  -4   5   1    0.20    0.50
  -4   5   1   -0.70    0.50
  -4   5   1    0.00    0.50
   4  -4  -1   16.40    1.40
   4  -4  -1   16.60    2.10
   4  -4  -1   13.50    0.80
   4  -4  -1   14.10    1.10
  -4   4   1   12.90    1.30
  -4   4   1   15.50    1.20
  -4   4   1   11.50    1.30
  -4   4   1   11.50    1.50
  -4   4   1   11.20    1.40
   4  -3  -1   19.40    1.30
   4  -3  -1   21.60    1.40
   4  -3  -1   18.10    1.20
   4  -3  -1   19.30    1.40
   4  -3  -1   18.60    2.10
   4  -3  -1   19.80    1.10
   4  -3  -1   20.80    1.30
  -4   3   1   20.90    1.30
  -4   3   1   17.00    1.60
  -4   3   1   19.10    1.30
  -4   3   1   15.40    1.30
  -4   3   1   20.00    1.10
  -4   3   1   20.60    1.50
  -4   3   1   19.70    1.40
   4  -2  -1    0.00    0.30
   4  -2  -1    0.00    0.30
   4  -2  -1    0.20    0.30
   4  -2  -1    0.90    0.40
   4  -2  -1    0.50    0.40
   4  -2  -1    0.50    0.30
   4  -2  -1    1.20    0.40
   4  -2  -1    0.20    0.30
   4  -2  -1    1.00    0.60
  -4   2   1    0.40    0.30
  -4   2   1    1.60    0.50
  -4   2   1    0.50    0.40
  -4   2   1    0.90    0.30
  -4   2   1    0.70    0.40
  -4   2   1    0.90    0.40
  -4   2   1    0.90    0.40
   4  -1  -1   47.70    2.50
   4  -1  -1   48.90    2.30
   4  -1  -1   50.89    2.20
   4  -1  -1   50.99    2.20
   4  -1  -1   51.49    2.40
   4  -1  -1   48.80    2.20
   4  -1  -1   47.80    2.10
   4  -1  -1   48.70    2.10
   4  -1  -1   49.50    2.30
  -4   1   1   43.90    2.10
  -4   1   1   49.40    2.30
  -4   1   1   52.19    2.10
  -4   1   1   55.79    2.20
  -4   1   1   51.69    2.30
  -4   1   1   49.40    2.10
   4   0  -1  147.09    5.20
   4   0  -1  139.49    5.20
   4   0  -1  130.99    4.90
   4   0  -1  146.49    5.30
   4   0  -1  137.49    4.90
   4   0  -1  140.79    5.00
   4   0  -1  137.69    5.10
   4   0  -1  137.29    5.00
   4   0  -1  143.69    5.10
   4   0  -1  134.39    5.10
   4   0  -1  134.59    5.10
  -4   0   1  140.09    5.10
  -4   0   1  158.28    5.10
  -4   0   1  141.39    5.00
  -4   0   1  136.69    5.00
  -4   0   1  141.39    4.90
  -4   0   1  136.69    5.10
   4   1  -1    6.30    0.60
   4   1  -1    6.00    0.70
   4   1  -1    5.20    0.60
   4   1  -1    6.80    0.70
   4   1  -1    5.80    0.60
   4   1  -1    7.40    0.80
   4   1  -1    7.70    0.70
   4   1  -1    7.10    0.60
   4   1  -1    7.40    0.60
   4   1  -1    7.10    0.50
  -4  -1   1    6.80    0.60
  -4  -1   1    6.60    0.60
  -4  -1   1    7.50    0.60
  -4  -1   1    7.00    0.50
  -4  -1   1    6.50    0.70
   4   2  -1   88.49    3.20
   4   2  -1   77.09    3.00
   4   2  -1   89.49    3.20
   4   2  -1   83.69    3.40
   4   2  -1   92.89    3.20
   4   2  -1   86.29    3.40
   4   2  -1   86.59    3.10
   4   2  -1   79.99    3.10
  -4  -2   1   88.39    3.50
  -4  -2   1   84.79    3.10
  -4  -2   1   87.49    3.30
  -4  -2   1   84.09    3.10
  -4  -2   1   88.69    3.10
  -4  -2   1   91.09    3.10
  -4  -2   1   83.09    3.10
  -4  -2   1   85.39    3.20
   4   3  -1   94.19    3.50
   4   3  -1   94.69    3.70
   4   3  -1   94.89    3.40
   4   3  -1   93.19    3.30
   4   3  -1   95.89    3.40
   4   3  -1   95.59    3.70
   4   3  -1   90.69    3.30
   4   3  -1   97.39    3.70
   4   3  -1   97.19    3.40
  -4  -3   1  102.49    3.80
  -4  -3   1   94.89    3.60
  -4  -3   1   99.49    4.00
  -4  -3   1   97.09    3.10
  -4  -3   1   90.49    3.50
  -4  -3   1   96.79    3.30
   4   4  -1   22.50    1.00
   4   4  -1   21.10    1.30
   4   4  -1   20.00    1.30
   4   4  -1   22.40    1.00
   4   4  -1   23.40    1.10
   4   4  -1   23.90    1.30
   4   4  -1   21.70    1.00
   4   4  -1   23.20    0.90
   4   4  -1   23.50    1.10
  -4  -4   1   23.60    1.60
  -4  -4   1   23.10    0.80
  -4  -4   1   24.70    1.40
  -4  -4   1   24.90    1.30
  -4  -4   1   22.00    0.80
   4   5  -1   54.69    2.00
   4   5  -1   53.09    1.90
   4   5  -1   55.79    2.50
   4   5  -1   55.69    2.40
   4   5  -1   53.89    2.20
   4   5  -1   52.19    2.40
   4   5  -1   54.29    2.00
   4   5  -1   55.59    1.90
   4   5  -1   52.19    2.40
  -4  -5   1   58.19    2.40
  -4  -5   1   53.99    2.90
  -4  -5   1   56.49    2.20
  -4  -5   1   54.19    2.60
   4   6  -1   84.99    3.10
   4   6  -1   87.39    3.00
   4   6  -1   85.99    3.70
   4   6  -1   86.79    3.50
   4   6  -1   86.59    3.10
   4   6  -1   86.59    3.40
   4   6  -1   84.99    3.00
   4   6  -1   89.29    3.50
   4   6  -1   85.39    3.30
  -4  -6   1   82.49    3.40
  -4  -6   1   89.89    4.30
  -4  -6   1   89.09    3.10
  -4  -6   1   84.09    3.50
  -4  -6   1   87.09    3.90
   4   7  -1    0.50    0.30
   4   7  -1    0.30    0.20
   4   7  -1    0.90    0.40
   4   7  -1    0.30    0.40
   4   7  -1    0.30    0.20
   4   7  -1    0.00    0.30
   4   7  -1    0.40    0.30
   4   7  -1    0.20    0.20
  -4  -7   1    0.40    0.60
  -4  -7   1    0.20    0.50
  -4  -7   1    1.10    0.40
  -4  -7   1    0.20    0.40
   4   8  -1   15.90    1.10
   4   8  -1   15.90    1.00
   4   8  -1   15.30    1.80
   4   8  -1   16.60    1.00
   4   8  -1   15.10    1.10
   4   8  -1   15.00    0.90
  -4  -8   1   17.60    2.00
  -4  -8   1   16.30    2.20
  -4  -8   1   16.50    1.80
   4   9  -1    0.50    0.40
   4   9  -1    0.60    0.30
   4   9  -1    1.00    0.70
  -4  -9   1    2.90    1.10
  -4  -9   1    0.60    0.70
  -4  -9   1    0.90    0.80
   3  -7  -1    2.60    1.40
  -3   7   1    3.20    1.00
  -3   7   1    5.20    1.00
  -3   7   1    5.90    1.20
   3  -6  -1   72.69    3.00
   3  -6  -1   78.69    3.50
   3  -6  -1   69.19    4.40
  -3   6   1   62.89    4.40
  -3   6   1   75.39    3.60
  -3   6   1   79.69    3.80
  -3   6   1   73.39    3.70
   3  -5  -1   23.30    1.60
   3  -5  -1   22.60    1.30
   3  -5  -1   21.80    2.50
  -3   5   1   23.30    1.70
  -3   5   1   18.40    1.50
  -3   5   1   19.60    2.10
  -3   5   1   20.90    1.50
  -3   5   1   23.70    1.80
   3  -4  -1    0.30    0.20
   3  -4  -1    0.90    0.70
   3  -4  -1   -0.10    0.10
   3  -4  -1    0.10    0.30
   3  -4  -1   -0.20    0.30
   3  -4  -1   -0.20    0.30
   3  -4  -1    0.30    0.30
  -3   4   1   -0.10    0.30
  -3   4   1   -0.20    0.30
  -3   4   1   -0.50    0.30
  -3   4   1   -0.10    0.20
  -3   4   1    0.10    0.30
  -3   4   1   -0.20    0.30
  -3   4   1   -0.40    0.40
   3  -3  -1    3.70    0.70
   3  -3  -1    3.00    0.80
   3  -3  -1    4.30    0.60
   3  -3  -1    3.60    0.50
   3  -3  -1    4.40    0.70
  -3   3   1    4.40    0.70
  -3   3   1    4.00    0.70
  -3   3   1    4.60    0.50
  -3   3   1    2.90    0.70
  -3   3   1    3.90    0.70
  -3   3   1    3.50    0.60
  -3   3   1    3.70    0.60
   3  -2  -1  564.64   19.90
   3  -2  -1  583.04   19.20
   3  -2  -1  557.24   19.20
   3  -2  -1  611.54   19.60
   3  -2  -1  595.94   19.30
   3  -2  -1  589.94   19.40
   3  -2  -1  588.64   19.40
   3  -2  -1  555.24   19.20
  -3   2   1  553.54   19.50
  -3   2   1  590.74   19.20
  -3   2   1  620.94   19.10
  -3   2   1  590.24   19.40
  -3   2   1  610.94   19.50
  -3   2   1  597.24   19.30
   3  -1  -1   52.89    2.30
   3  -1  -1   49.70    2.40
   3  -1  -1   49.60    2.00
   3  -1  -1   48.40    2.10
   3  -1  -1   51.49    2.20
   3  -1  -1   47.80    2.00
   3  -1  -1   49.99    2.10
   3  -1  -1   53.49    2.20
   3  -1  -1   50.69    2.20
   3  -1  -1   48.60    2.10
  -3   1   1   51.39    2.00
  -3   1   1   51.09    2.10
  -3   1   1   45.90    2.10
  -3   1   1   50.29    2.10
  -3   1   1   50.19    2.20
  -3   1   1   51.39    2.20
  -3   1   1   54.89    2.10
  -3   1   1   52.69    2.20
  -3   1   1   50.09    2.20
   3   0  -1    1.10    0.30
   3   0  -1    1.10    0.30
   3   0  -1    0.90    0.30
   3   0  -1    1.30    0.40
   3   0  -1    1.00    0.30
   3   0  -1    0.90    0.30
   3   0  -1    1.10    0.30
   3   0  -1    1.30    0.30
   3   0  -1    1.30    0.40
   3   0  -1    1.10    0.30
   3   0  -1    0.90    0.30
  -3   0   1    1.50    0.30
  -3   0   1    1.20    0.30
  -3   0   1    1.00    0.30
  -3   0   1    1.40    0.30
  -3   0   1    0.80    0.30
  -3   0   1    1.30    0.30
  -3   0   1    1.70    0.30
  -3   0   1    1.40    0.30
  -3   0   1    1.20    0.30
   3   1  -1   42.80    1.80
   3   1  -1   47.60    1.70
   3   1  -1   43.30    1.70
   3   1  -1   41.10    1.60
   3   1  -1   44.40    1.70
   3   1  -1   42.80    1.70
   3   1  -1   39.00    1.80
   3   1  -1   43.10    1.70
   3   1  -1   42.60    1.80
  -3  -1   1   43.00    1.70
  -3  -1   1   45.40    1.70
  -3  -1   1   40.80    1.70
  -3  -1   1   43.70    1.70
  -3  -1   1   45.00    1.80
  -3  -1   1   44.40    1.70
  -3  -1   1   46.00    1.90
  -3  -1   1   42.60    1.70
   3   2  -1   12.30    0.80
   3   2  -1   12.00    0.60
   3   2  -1   13.80    0.80
   3   2  -1   12.50    0.70
   3   2  -1   12.70    0.60
   3   2  -1   12.00    0.60
   3   2  -1   12.40    0.70
   3   2  -1   12.80    0.70
  -3  -2   1   12.80    0.90
  -3  -2   1   12.70    0.60
  -3  -2   1   13.00    0.60
  -3  -2   1   12.60    0.70
  -3  -2   1   12.70    0.60
  -3  -2   1   13.60    0.80
  -3  -2   1   11.90    0.60
  -3  -2   1   11.70    0.80
   3   3  -1   74.29    2.60
   3   3  -1   74.09    2.60
   3   3  -1   76.69    2.90
   3   3  -1   75.99    2.70
   3   3  -1   73.59    2.60
   3   3  -1   73.79    2.90
   3   3  -1   71.49    2.90
   3   3  -1   74.79    2.60
   3   3  -1   75.39    2.70
  -3  -3   1   77.69    2.90
  -3  -3   1   73.59    2.50
  -3  -3   1   77.59    2.50
  -3  -3   1   75.19    2.70
  -3  -3   1   76.29    3.20
  -3  -3   1   78.59    3.00
  -3  -3   1   75.39    3.00
   3   4  -1  167.08    5.50
   3   4  -1  166.48    6.00
   3   4  -1  167.28    5.50
   3   4  -1  164.18    5.90
   3   4  -1  169.08    5.50
   3   4  -1  165.48    5.80
   3   4  -1  166.98    5.70
   3   4  -1  159.98    5.80
   3   4  -1  169.28    5.50
  -3  -4   1  168.98    5.80
  -3  -4   1  161.38    5.90
  -3  -4   1  175.58    5.80
  -3  -4   1  165.18    6.40
  -3  -4   1  166.98    6.10
   3   5  -1    5.90    0.50
   3   5  -1    7.00    0.70
   3   5  -1    7.00    0.60
   3   5  -1    6.10    0.40
   3   5  -1    8.20    0.90
   3   5  -1    6.80    0.50
   3   5  -1    6.60    0.70
   3   5  -1    6.30    0.40
   3   5  -1    6.80    0.40
  -3  -5   1    6.80    0.80
  -3  -5   1    7.50    0.60
  -3  -5   1    7.40    0.80
  -3  -5   1    6.90    1.00
  -3  -5   1    5.70    1.00
   3   6  -1   15.90    0.90
   3   6  -1   17.30    1.00
   3   6  -1   16.90    0.90
   3   6  -1   18.10    1.00
   3   6  -1   16.70    1.20
   3   6  -1   16.50    0.90
   3   6  -1   17.00    1.00
   3   6  -1   16.70    0.80
   3   6  -1   16.30    1.00
  -3  -6   1   16.20    1.90
  -3  -6   1   17.80    1.00
  -3  -6   1   14.40    1.30
  -3  -6   1   15.30    1.40
   3   7  -1   88.39    3.40
   3   7  -1   81.99    4.00
   3   7  -1   91.89    3.90
   3   7  -1   95.79    3.40
   3   7  -1   89.89    3.30
   3   7  -1   95.39    3.50
   3   7  -1   90.89    3.40
   3   7  -1   86.29    3.40
  -3  -7   1   80.39    4.10
  -3  -7   1   91.09    4.60
  -3  -7   1   90.49    3.40
  -3  -7   1   87.29    4.20
   3   8  -1   56.09    2.40
   3   8  -1   59.89    2.60
   3   8  -1   60.89    2.40
   3   8  -1   54.79    3.20
  -3  -8   1   57.39    3.30
  -3  -8   1   56.79    3.70
  -3  -8   1   59.29    3.40
   3   9  -1    0.90    0.50
   3   9  -1    1.00    0.40
   3   9  -1   -0.10    0.60
  -3  -9   1   -0.10    0.60
  -3  -9   1   -0.70    0.70
  -3  -9   1    0.90    0.90
   2  -8  -1    1.90    1.20
   2  -8  -1    0.60    0.90
  -2   8   1    2.40    0.70
  -2   8   1    0.10    0.60
  -2   8   1    1.80    0.80
   2  -7  -1    4.00    1.30
  -2   7   1    4.20    0.90
  -2   7   1    3.40    1.00
  -2   7   1    4.70    1.00
   2  -6  -1    0.60    0.70
   2  -6  -1    0.90    0.40
  -2   6   1    0.50    0.60
  -2   6   1    0.90    0.60
  -2   6   1    0.90    0.60
   2  -5  -1   39.00    2.10
   2  -5  -1   42.00    2.80
   2  -5  -1   39.10    1.70
   2  -5  -1   37.40    2.10
  -2   5   1   40.70    2.30
  -2   5   1   37.50    2.00
  -2   5   1   40.40    2.30
  -2   5   1   37.60    2.10
  -2   5   1   40.50    1.90
   2  -4  -1    3.10    0.50
   2  -4  -1    3.90    1.00
   2  -4  -1    2.90    0.20
   2  -4  -1    2.50    0.20
   2  -4  -1    3.50    0.60
   2  -4  -1    2.60    0.50
  -2   4   1    4.10    0.70
  -2   4   1    2.40    0.50
  -2   4   1    4.10    0.80
  -2   4   1    2.40    0.50
  -2   4   1    3.70    0.70
  -2   4   1    3.30    0.60
   2  -3  -1   21.90    1.30
   2  -3  -1   24.20    1.70
   2  -3  -1   21.10    1.80
   2  -3  -1   21.90    1.20
   2  -3  -1   22.80    1.20
   2  -3  -1   22.10    1.10
  -2   3   1   21.80    1.30
  -2   3   1   21.70    1.20
  -2   3   1   21.70    1.40
  -2   3   1   22.40    1.20
  -2   3   1   21.70    1.10
  -2   3   1   23.70    1.30
  -2   3   1   21.40    1.30
  -2   3   1   19.60    1.20
   2  -2  -1    2.00    0.40
   2  -2  -1    2.20    0.40
   2  -2  -1    2.10    0.40
   2  -2  -1    2.30    0.40
   2  -2  -1    2.00    0.40
   2  -2  -1    2.10    0.40
   2  -2  -1    1.80    0.50
   2  -2  -1    1.70    0.40
   2  -2  -1    2.30    0.40
  -2   2   1    1.70    0.30
  -2   2   1    1.50    0.40
  -2   2   1    1.80    0.40
  -2   2   1    1.70    0.40
  -2   2   1    1.80    0.40
  -2   2   1    1.60    0.40
  -2   2   1    2.20    0.30
  -2   2   1    2.80    0.40
  -2   2   1    2.60    0.40
   2  -1  -1   31.10    1.30
   2  -1  -1   31.20    1.40
   2  -1  -1   31.30    1.40
   2  -1  -1   33.10    1.40
   2  -1  -1   32.00    1.40
   2  -1  -1   33.00    1.50
   2  -1  -1   32.20    1.50
   2  -1  -1   34.30    1.40
   2  -1  -1   34.80    1.40
   2  -1  -1   35.00    1.70
   2  -1  -1   34.40    1.50
  -2   1   1   36.00    1.50
  -2   1   1   35.50    1.40
  -2   1   1   34.40    1.40
  -2   1   1   33.40    1.40
  -2   1   1   34.60    1.50
  -2   1   1   37.50    1.50
  -2   1   1   33.30    1.50
  -2   1   1   34.50    1.50
  -2   1   1   29.30    1.50
  -2   1   1   33.70    1.40
  -2   1   1   34.20    1.50
   2   0  -1    9.00    0.60
   2   0  -1    9.80    0.50
   2   0  -1   10.00    0.60
   2   0  -1    8.20    0.50
   2   0  -1    9.60    0.60
   2   0  -1   10.20    0.60
   2   0  -1    8.20    0.50
   2   0  -1    9.60    0.60
   2   0  -1   10.40    0.60
  -2   0   1    8.30    0.60
  -2   0   1    9.60    0.60
  -2   0   1    9.50    0.60
  -2   0   1    9.50    0.60
  -2   0   1    9.40    0.60
  -2   0   1    9.40    0.60
  -2   0   1    9.50    0.50
  -2   0   1    9.30    0.40
  -2   0   1   10.10    0.60
  -2   0   1   10.00    0.50
   2   1  -1  137.99    4.50
   2   1  -1  117.19    4.40
   2   1  -1  130.19    4.40
   2   1  -1  132.69    4.40
   2   1  -1  139.89    4.60
   2   1  -1  127.29    4.30
   2   1  -1  130.99    4.40
   2   1  -1  133.29    4.40
  -2  -1   1  134.19    4.40
  -2  -1   1  129.39    4.30
  -2  -1   1  126.49    4.40
  -2  -1   1  135.29    4.60
  -2  -1   1  130.59    4.50
  -2  -1   1  135.19    4.50
  -2  -1   1  132.69    4.40
  -2  -1   1  132.29    4.40
  -2  -1   1  131.69    4.40
   2   2  -1   34.70    1.30
   2   2  -1   37.30    1.50
   2   2  -1   35.40    1.30
   2   2  -1   36.90    1.40
   2   2  -1   36.80    1.30
   2   2  -1   35.10    1.30
   2   2  -1   35.50    1.40
   2   2  -1   36.50    1.50
   2   2  -1   35.40    1.50
  -2  -2   1   37.40    1.30
  -2  -2   1   36.80    1.50
  -2  -2   1   38.50    1.90
  -2  -2   1   35.40    1.30
  -2  -2   1   36.70    1.30
  -2  -2   1   37.60    1.40
  -2  -2   1   36.00    1.50
  -2  -2   1   36.30    1.50
  -2  -2   1   37.10    1.50
   2   3  -1  249.97    8.30
   2   3  -1  248.98    8.40
   2   3  -1  248.18    8.40
   2   3  -1  257.47    8.20
   2   3  -1  237.28    8.40
   2   3  -1  251.87    8.20
   2   3  -1  254.57    8.20
   2   3  -1  248.98    8.20
   2   3  -1  251.27    8.50
  -2  -3   1  264.07    8.70
  -2  -3   1  253.07    8.20
  -2  -3   1  264.07    8.70
  -2  -3   1  255.77    8.90
  -2  -3   1  249.58    8.50
  -2  -3   1  245.38    8.20
  -2  -3   1  263.47    8.40
   2   4  -1    0.30    0.20
   2   4  -1    0.10    0.10
   2   4  -1    0.20    0.10
   2   4  -1    0.40    0.20
   2   4  -1   -0.10    0.10
   2   4  -1    0.20    0.20
   2   4  -1    0.30    0.10
   2   4  -1    0.00    0.10
  -2  -4   1    0.20    0.10
  -2  -4   1   -0.10    0.10
  -2  -4   1    0.00    0.20
  -2  -4   1   -0.10    0.10
  -2  -4   1    0.20    0.30
  -2  -4   1    0.00    0.30
  -2  -4   1    0.30    0.30
   2   5  -1   17.70    0.90
   2   5  -1   16.90    1.20
   2   5  -1   17.50    0.90
   2   5  -1   18.50    0.90
   2   5  -1   18.50    1.00
   2   5  -1   17.40    0.90
   2   5  -1   19.10    0.90
   2   5  -1   19.20    1.00
  -2  -5   1   16.20    1.50
  -2  -5   1   17.60    0.80
  -2  -5   1   16.80    1.30
  -2  -5   1   17.50    1.00
  -2  -5   1   17.70    1.30
  -2  -5   1   18.50    0.90
  -2  -5   1   18.40    0.80
   2   6  -1    3.20    0.40
   2   6  -1    2.10    0.40
   2   6  -1    2.00    0.40
   2   6  -1    1.90    0.40
   2   6  -1    2.00    0.50
   2   6  -1    2.30    0.40
   2   6  -1    2.10    0.60
   2   6  -1    2.20    0.40
   2   6  -1    2.50    0.40
  -2  -6   1    1.70    0.70
  -2  -6   1    3.10    0.80
  -2  -6   1    2.80    0.40
  -2  -6   1    2.20    0.40
  -2  -6   1    1.90    0.70
   2   7  -1   -0.20    0.20
   2   7  -1    0.30    0.50
   2   7  -1    0.10    0.20
   2   7  -1    0.60    0.30
   2   7  -1   -0.10    0.20
   2   7  -1   -0.30    0.30
   2   7  -1    0.50    0.30
   2   7  -1    0.30    0.30
  -2  -7   1    0.50    0.50
  -2  -7   1    0.00    0.60
  -2  -7   1    1.90    0.80
  -2  -7   1    0.50    0.30
   2   8  -1    0.40    0.40
   2   8  -1    0.80    0.70
   2   8  -1    0.50    0.30
  -2  -8   1    0.70    0.70
  -2  -8   1    0.50    0.70
  -2  -8   1    0.20    0.60
   2   9  -1   11.40    1.30
   2   9  -1    8.80    1.50
   2   9  -1   10.00    1.10
  -2  -9   1   11.30    1.80
  -2  -9   1    8.80    1.70
  -2  -9   1   12.90    2.10
   1  -8  -1   23.10    2.90
   1  -8  -1   29.30    3.40
  -1   8   1   28.60    1.90
  -1   8   1   33.50    2.20
  -1   8   1   27.80    2.30
   1  -7  -1    0.80    0.80
   1  -7  -1    1.40    0.50
   1  -7  -1    1.40    0.80
  -1   7   1    1.00    0.60
  -1   7   1    1.90    0.80
  -1   7   1    2.10    0.60
   1  -6  -1    2.80    0.60
   1  -6  -1    1.40    0.80
  -1   6   1    1.20    0.60
  -1   6   1    1.10    0.60
  -1   6   1    1.50    0.50
  -1   6   1    1.80    0.50
  -1   6   1    1.70    0.50
   1  -5  -1   -0.10    0.20
   1  -5  -1    0.30    0.60
   1  -5  -1    0.50    0.40
   1  -5  -1   -0.20    0.30
  -1   5   1    0.00    0.20
  -1   5   1    0.00    0.40
  -1   5   1   -0.20    0.30
  -1   5   1    0.10    0.30
  -1   5   1   -0.10    0.30
  -1   5   1    0.40    0.30
  -1   5   1    0.30    0.40
  -1   5   1    0.10    0.30
   1  -4  -1    0.10    0.50
   1  -4  -1   -0.20    0.10
   1  -4  -1    0.20    0.20
   1  -4  -1    0.10    0.20
  -1   4   1    0.10    0.30
  -1   4   1    0.10    0.20
  -1   4   1    0.10    0.20
  -1   4   1   -0.10    0.20
  -1   4   1    0.10    0.30
  -1   4   1    0.40    0.30
  -1   4   1    0.00    0.20
  -1   4   1   -0.10    0.30
   1  -3  -1   23.40    1.20
   1  -3  -1   21.00    1.20
   1  -3  -1   20.80    1.20
   1  -3  -1   22.70    0.80
   1  -3  -1   22.70    1.10
   1  -3  -1   21.50    1.10
   1  -3  -1   20.00    1.20
   1  -3  -1   21.80    1.50
   1  -3  -1   23.30    0.80
   1  -3  -1   22.40    1.00
  -1   3   1   22.30    1.20
  -1   3   1   23.50    1.30
  -1   3   1   23.40    1.10
  -1   3   1   22.10    1.20
  -1   3   1   22.70    1.30
  -1   3   1   23.80    1.30
  -1   3   1   23.00    1.20
  -1   3   1   21.70    1.10
  -1   3   1   22.70    1.20
   1  -2  -1   10.00    0.70
   1  -2  -1    9.90    0.70
   1  -2  -1   10.20    0.60
   1  -2  -1   11.00    0.70
   1  -2  -1   10.30    0.60
   1  -2  -1   10.10    0.90
   1  -2  -1    9.50    0.70
   1  -2  -1   10.20    0.70
  -1   2   1   10.20    0.70
  -1   2   1   11.10    0.70
  -1   2   1   10.80    0.60
  -1   2   1   10.30    0.60
  -1   2   1   11.50    0.60
  -1   2   1   10.50    0.60
  -1   2   1   10.30    0.70
  -1   2   1   10.30    0.70
  -1   2   1   10.70    0.70
   1  -1  -1   23.70    1.20
   1  -1  -1   23.30    1.00
   1  -1  -1   22.80    1.00
   1  -1  -1   22.80    0.90
   1  -1  -1   22.30    1.00
   1  -1  -1   23.40    1.00
   1  -1  -1   22.10    1.00
   1  -1  -1   23.10    1.10
   1  -1  -1   24.60    1.00
  -1   1   1   23.30    1.00
  -1   1   1   24.60    1.10
  -1   1   1   22.50    1.00
  -1   1   1   20.40    1.10
  -1   1   1   24.00    1.00
  -1   1   1   23.90    1.00
  -1   1   1   22.40    1.00
  -1   1   1   23.40    1.00
  -1   1   1   22.70    1.00
  -1   1   1   24.60    1.00
   1   0  -1 1135.59   34.20
   1   0  -1  985.90   33.80
   1   0  -1  990.60   34.00
   1   0  -1 1026.60   34.20
   1   0  -1 1023.60   34.20
   1   0  -1 1054.09   34.00
   1   0  -1 1032.30   33.90
   1   0  -1 1017.10   33.60
   1   0  -1 1040.40   34.30
   1   0  -1 1034.60   34.20
   1   0  -1 1020.20   33.80
  -1   0   1 1156.78   34.00
  -1   0   1 1012.20   34.10
  -1   0   1 1054.29   34.00
  -1   0   1 1028.30   34.10
  -1   0   1 1051.39   34.00
  -1   0   1 1104.19   34.40
  -1   0   1 1039.70   34.30
  -1   0   1 1057.89   34.00
  -1   0   1 1081.09   34.10
   1   1  -1  242.88    7.70
   1   1  -1  234.58    7.80
   1   1  -1  230.48    7.70
   1   1  -1  238.48    7.70
   1   1  -1  232.38    7.80
   1   1  -1  242.38    7.70
   1   1  -1  234.88    7.70
   1   1  -1  243.28    7.70
  -1  -1   1  237.98    7.70
  -1  -1   1  239.78    7.70
  -1  -1   1  236.68    7.70
  -1  -1   1  235.48    7.70
  -1  -1   1  236.38    7.70
  -1  -1   1  240.38    7.70
  -1  -1   1  239.88    7.80
  -1  -1   1  239.58    7.80
   1   2  -1  167.08    5.60
   1   2  -1  165.18    5.50
   1   2  -1  162.48    5.40
   1   2  -1  163.68    5.40
   1   2  -1  162.08    5.50
   1   2  -1  159.68    5.40
   1   2  -1  164.78    5.40
   1   2  -1  162.28    5.40
  -1  -2   1  163.78    5.40
  -1  -2   1  171.58    5.40
  -1  -2   1  161.28    5.40
  -1  -2   1  168.08    5.30
  -1  -2   1  159.78    5.50
   1   3  -1   22.90    1.00
   1   3  -1   22.80    1.00
   1   3  -1   22.60    1.00
   1   3  -1   22.10    1.00
   1   3  -1   23.70    1.00
   1   3  -1   24.00    1.20
   1   3  -1   23.70    1.00
  -1  -3   1   24.30    1.30
  -1  -3   1   24.00    1.30
  -1  -3   1   24.10    1.50
  -1  -3   1   24.50    1.00
  -1  -3   1   23.50    0.90
  -1  -3   1   23.50    1.20
  -1  -3   1   23.00    1.00
  -1  -3   1   22.70    0.90
  -1  -3   1   24.50    1.00
  -1  -3   1   23.50    1.00
   1   4  -1   15.90    0.80
   1   4  -1   17.90    0.80
   1   4  -1   16.30    0.80
   1   4  -1   15.20    0.80
   1   4  -1   17.10    1.10
   1   4  -1   15.90    0.90
   1   4  -1   16.10    0.90
  -1  -4   1   17.10    1.30
  -1  -4   1   17.30    1.40
  -1  -4   1   17.20    0.80
  -1  -4   1   15.90    0.80
  -1  -4   1   16.20    0.80
  -1  -4   1   17.00    1.20
  -1  -4   1   16.60    0.80
  -1  -4   1   17.10    1.00
  -1  -4   1   17.60    0.80
   1   5  -1    2.70    0.30
   1   5  -1    2.80    0.50
   1   5  -1    2.10    0.40
   1   5  -1    2.40    0.40
   1   5  -1    2.40    0.50
   1   5  -1    3.00    0.50
   1   5  -1    2.60    0.60
   1   5  -1    2.70    0.30
   1   5  -1    3.10    0.40
  -1  -5   1    3.70    0.60
  -1  -5   1    3.30    0.40
  -1  -5   1    3.20    0.40
  -1  -5   1    2.20    0.70
  -1  -5   1    2.90    0.70
  -1  -5   1    3.50    0.80
  -1  -5   1    3.50    0.40
  -1  -5   1    3.10    0.40
   1   6  -1    8.40    0.90
   1   6  -1    8.40    0.80
   1   6  -1    9.80    1.10
   1   6  -1    8.20    0.60
   1   6  -1    9.30    0.80
   1   6  -1    7.80    0.60
   1   6  -1    8.70    0.50
   1   6  -1    9.80    0.80
   1   6  -1    8.00    1.20
   1   6  -1    8.90    0.60
  -1  -6   1    7.70    1.30
  -1  -6   1    8.00    1.00
  -1  -6   1    8.10    0.70
  -1  -6   1    7.70    0.60
  -1  -6   1    8.90    1.30
  -1  -6   1    6.40    1.20
   1   7  -1   50.49    2.30
   1   7  -1   51.29    2.60
   1   7  -1   44.60    2.70
   1   7  -1   50.49    2.00
   1   7  -1   50.79    2.50
   1   7  -1   52.69    2.20
   1   7  -1   52.09    2.00
  -1  -7   1   47.40    2.90
  -1  -7   1   48.80    3.10
  -1  -7   1   46.70    3.20
  -1  -7   1   48.80    2.10
   1   8  -1   13.90    1.40
   1   8  -1   15.50    1.90
   1   8  -1   14.40    1.20
  -1  -8   1   14.90    2.20
  -1  -8   1   11.50    1.80
  -1  -8   1   14.20    2.10
   1   9  -1   18.90    1.60
   1   9  -1   19.20    1.40
   1   9  -1   18.40    2.20
  -1  -9   1   20.60    2.70
  -1  -9   1   20.10    2.50
  -1  -9   1   16.70    2.50
   0  -9  -1    1.00    0.90
   0  -9  -1    2.50    1.20
   0   9   1    2.20    0.90
   0   9   1    1.50    0.70
   0   9   1    1.70    0.60
   0  -8  -1    9.40    1.80
   0  -8  -1   13.20    2.00
   0   8   1   10.30    1.60
   0   8   1   12.50    1.40
   0   8   1   12.50    1.30
   0  -7  -1    1.90    0.90
   0  -7  -1    2.50    1.00
   0   7   1    3.00    0.70
   0   7   1    3.60    0.70
   0   7   1    2.60    0.80
   0   7   1    2.70    0.50
   0   7   1    1.70    0.60
   0  -6  -1    8.60    1.40
   0  -6  -1   12.80    1.80
   0  -6  -1   11.80    0.90
   0  -6  -1   13.60    0.90
   0  -6  -1   12.70    1.10
   0   6   1   15.10    1.10
   0   6   1   13.30    1.00
   0   6   1   11.60    1.00
   0   6   1   16.10    1.20
   0   6   1   14.30    1.00
   0   6   1   13.80    1.30
   0   6   1   12.50    0.80
   0   6   1   12.70    1.00
   0  -5  -1   65.69    2.60
   0  -5  -1   66.19    2.60
   0  -5  -1   66.89    3.30
   0  -5  -1   66.39    2.80
   0  -5  -1   66.99    3.40
   0   5   1   66.39    2.70
   0   5   1   65.79    2.80
   0   5   1   59.39    2.90
   0   5   1   67.89    2.70
   0   5   1   66.99    2.70
   0   5   1   67.39    2.80
   0   5   1   65.99    2.60
   0   5   1   64.09    2.50
   0  -4  -1    1.80    0.30
   0  -4  -1    2.00    0.60
   0  -4  -1    1.90    0.60
   0  -4  -1    2.10    0.40
   0  -4  -1    2.30    0.50
   0   4   1    1.10    0.40
   0   4   1    1.00    0.20
   0   4   1    1.60    0.40
   0   4   1    1.40    0.30
   0   4   1    1.90    0.40
   0   4   1    1.20    0.30
   0   4   1    1.70    0.40
   0  -3  -1    7.50    0.50
   0  -3  -1    8.30    0.70
   0  -3  -1    7.80    0.90
   0  -3  -1    7.80    1.00
   0  -3  -1    7.50    0.50
   0  -3  -1    6.90    0.50
   0  -3  -1    7.10    0.50
   0  -3  -1    7.60    0.60
   0   3   1    7.20    0.60
   0   3   1    7.80    0.60
   0   3   1    7.60    0.70
   0   3   1    6.70    0.60
   0   3   1    8.00    0.50
   0   3   1    7.90    0.50
   0   3   1    8.10    0.50
   0  -2  -1  361.76   11.70
   0  -2  -1  359.76   11.60
   0  -2  -1  344.27   11.80
   0  -2  -1  353.66   11.60
   0  -2  -1  358.06   11.60
   0  -2  -1  365.06   12.00
   0  -2  -1  366.76   11.70
   0   2   1  362.86   11.70
   0   2   1  380.76   11.60
   0   2   1  327.97   11.70
   0   2   1  357.76   11.60
   0   2   1  352.96   11.60
   0   2   1  355.26   11.60
   0   2   1  363.56   11.70
   0  -1  -1  448.06   13.40
   0  -1  -1  433.26   13.40
   0  -1  -1  404.36   13.50
   0  -1  -1  402.56   13.40
   0  -1  -1  406.36   13.40
   0  -1  -1  420.56   13.40
   0  -1  -1  456.55   14.00
   0  -1  -1  419.76   13.40
   0  -1  -1  384.66   13.60
   0   1   1  423.56   13.40
   0   1   1  417.06   13.70
   0   1   1  427.96   13.60
   0   1   1  386.66   13.40
   0   1   1  447.26   13.40
   0   1   1  422.96   13.40
   0   1   1  366.96   13.60
   0   1   1  420.26   13.80
   0   1   1  405.46   13.70
   0   0  -1  146.69    4.80
   0   0  -1  147.19    4.70
   0   0  -1  151.48    4.80
   0   0  -1  147.19    4.80
   0   0   1  148.69    4.70
   0   0   1  147.59    4.90
   0   0   1  141.69    4.80
   0   0   1  143.99    4.80
   0   0   1  146.89    4.70
   0   1  -1   17.60    0.70
   0   1  -1   17.00    0.70
   0   1  -1   17.40    0.70
   0   1  -1   17.50    0.70
   0   1  -1   17.10    0.60
   0   1  -1   17.00    0.70
   0   1  -1   17.50    0.70
   0   1  -1   18.20    0.70
   0   1  -1   18.60    0.70
   0  -1   1   17.50    0.80
   0  -1   1   17.90    0.70
   0  -1   1   17.70    0.70
   0  -1   1   18.40    0.70
   0  -1   1   17.90    0.70
   0  -1   1   17.80    0.70
   0  -1   1   18.00    0.70
   0   2  -1   48.10    1.80
   0   2  -1   47.50    1.80
   0   2  -1   48.50    1.70
   0   2  -1   46.20    1.70
   0   2  -1   45.10    1.80
   0   2  -1   43.80    1.80
   0   2  -1   47.70    1.60
   0   2  -1   49.70    1.70
   0   2  -1   47.10    1.80
   0   2  -1   46.50    1.80
   0  -2   1   47.40    1.80
   0  -2   1   46.90    1.80
   0  -2   1   47.50    1.70
   0  -2   1   50.19    1.70
   0  -2   1   48.40    1.90
   0  -2   1   48.20    2.40
   0  -2   1   47.20    1.80
   0  -2   1   47.90    1.80
   0   3  -1   10.50    0.50
   0   3  -1   10.70    0.60
   0   3  -1    9.40    0.60
   0   3  -1   10.40    0.50
   0   3  -1   10.80    0.50
   0   3  -1   10.40    0.40
   0   3  -1   10.30    0.70
   0   3  -1    8.80    0.70
   0   3  -1   10.40    0.70
   0   3  -1    9.30    0.60
   0   3  -1   10.00    0.80
   0  -3   1   10.30    0.60
   0  -3   1   10.30    0.90
   0  -3   1   10.80    0.50
   0  -3   1   10.10    0.60
   0  -3   1   11.10    0.60
   0  -3   1   10.50    0.70
   0  -3   1   11.00    1.20
   0  -3   1   10.10    0.50
   0  -3   1   11.10    0.60
   0   4  -1   15.10    1.10
   0   4  -1   18.70    1.10
   0   4  -1   15.00    1.00
   0   4  -1   17.50    0.80
   0   4  -1   18.20    1.00
   0   4  -1   18.10    0.90
   0   4  -1   15.60    1.00
   0   4  -1   18.60    1.10
   0   4  -1   17.20    0.80
   0   4  -1   17.30    0.70
   0  -4   1   15.00    0.90
   0  -4   1   16.40    1.40
   0  -4   1   18.00    1.10
   0  -4   1   18.70    0.80
   0  -4   1   17.50    1.40
   0  -4   1   17.10    0.80
   0  -4   1   17.50    0.90
   0   5  -1   25.80    1.70
   0   5  -1   25.20    1.50
   0   5  -1   28.10    1.60
   0   5  -1   26.30    1.50
   0   5  -1   30.70    1.50
   0   5  -1   27.60    1.20
   0   5  -1   27.70    1.60
   0   5  -1   27.60    1.10
   0   5  -1   29.40    1.20
   0   5  -1   29.70    1.30
   0  -5   1   27.90    1.20
   0  -5   1   27.80    2.00
   0  -5   1   28.20    1.40
   0  -5   1   28.70    2.00
   0  -5   1   27.50    1.60
   0  -5   1   29.20    1.40
   0  -5   1   30.70    1.20
   0  -5   1   29.60    1.90
   0   6  -1   62.89    2.70
   0   6  -1   53.49    3.00
   0   6  -1   61.89    2.50
   0   6  -1   58.89    2.70
   0   6  -1   59.19    2.80
   0   6  -1   62.99    2.20
   0   6  -1   61.29    2.70
   0   6  -1   61.69    2.90
   0  -6   1   52.39    3.30
   0  -6   1   60.99    2.60
   0  -6   1   59.59    2.50
   0  -6   1   64.89    3.20
   0  -6   1   60.09    2.30
   0  -6   1   55.79    2.30
   0  -6   1   61.09    3.30
   0  -6   1   61.19    3.50
   0   7  -1    1.00    0.50
   0   7  -1    1.30    0.70
   0   7  -1    1.00    0.40
   0   7  -1    0.30    0.40
   0  -7   1   -0.10    0.50
   0  -7   1    0.90    0.80
   0  -7   1    0.20    0.60
   0   8  -1    3.80    0.80
   0   8  -1    4.10    0.90
   0   8  -1    1.30    0.70
   0  -8   1    3.70    1.30
   0  -8   1    2.10    0.90
   0  -8   1    5.00    1.50
   0   9  -1    1.50    0.70
   0   9  -1    1.70    0.70
   0   9  -1    0.30    0.80
   0  -9   1    0.20    0.90
   0  -9   1    0.70    0.90
  -1  -9  -1   16.40    2.40
  -1  -9  -1   16.70    2.40
   1   9   1   16.80    1.70
   1   9   1   16.30    2.00
   1   9   1   19.40    1.40
  -1  -8  -1    6.40    1.50
  -1  -8  -1    7.50    1.50
   1   8   1    7.50    1.00
   1   8   1    7.50    1.30
   1   8   1    7.00    0.80
   1   8   1    7.50    0.90
  -1  -7  -1    0.80    0.70
  -1  -7  -1    1.20    0.70
  -1  -7  -1    2.00    0.90
   1   7   1    1.30    0.50
   1   7   1    1.10    0.40
   1   7   1    1.20    0.60
   1   7   1    1.10    0.50
   1   7   1    1.20    0.60
  -1  -6  -1    0.70    0.20
  -1  -6  -1    0.90    0.60
  -1  -6  -1   -0.10    0.40
  -1  -6  -1    0.40    0.30
  -1  -6  -1    1.20    0.60
   1   6   1    1.00    0.50
   1   6   1    0.90    0.40
   1   6   1    0.50    0.30
   1   6   1    0.20    0.30
   1   6   1    0.60    0.20
   1   6   1    0.60    0.20
   1   6   1    0.70    0.30
   1   6   1    0.10    0.10
   1   6   1    0.50    0.30
  -1  -5  -1   71.69    2.90
  -1  -5  -1   66.39    3.30
  -1  -5  -1   66.49    3.30
  -1  -5  -1   69.99    3.40
  -1  -5  -1   76.29    2.50
   1   5   1   71.09    2.70
   1   5   1   70.59    2.90
   1   5   1   71.79    2.60
   1   5   1   67.89    2.70
   1   5   1   71.79    2.40
   1   5   1   64.59    3.10
   1   5   1   64.89    2.70
   1   5   1   74.39    2.70
   1   5   1   71.49    2.40
  -1  -4  -1  161.38    5.40
  -1  -4  -1  161.98    6.10
  -1  -4  -1  166.78    6.10
  -1  -4  -1  158.08    5.60
  -1  -4  -1  155.18    6.00
  -1  -4  -1  165.38    5.30
  -1  -4  -1  171.58    5.50
   1   4   1  160.08    5.30
   1   4   1  157.68    5.30
   1   4   1  157.88    5.50
   1   4   1  160.78    5.40
   1   4   1  157.28    5.60
   1   4   1  156.38    5.40
   1   4   1  151.48    5.80
   1   4   1  157.28    5.40
  -1  -3  -1    2.60    0.50
  -1  -3  -1    1.70    0.20
  -1  -3  -1    2.40    0.40
  -1  -3  -1    3.00    0.20
  -1  -3  -1    3.60    0.60
  -1  -3  -1    3.10    0.20
  -1  -3  -1    2.80    0.60
  -1  -3  -1    3.20    0.30
   1   3   1    2.50    0.30
   1   3   1    2.70    0.30
   1   3   1    3.00    0.20
   1   3   1    3.10    0.40
   1   3   1    2.70    0.30
   1   3   1    2.30    0.40
   1   3   1    3.00    0.20
   1   3   1    2.50    0.30
  -1  -2  -1  153.18    4.70
  -1  -2  -1  154.48    5.20
  -1  -2  -1  154.78    4.70
  -1  -2  -1  143.09    4.90
  -1  -2  -1  146.69    4.80
   1   2   1  136.19    5.30
   1   2   1  145.09    4.80
   1   2   1  154.18    4.90
   1   2   1  147.29    4.80
   1   2   1  138.69    5.00
   1   2   1  149.19    4.80
  -1  -1  -1  290.47   10.50
  -1  -1  -1  338.47   10.40
  -1  -1  -1  312.77   10.40
  -1  -1  -1  326.57   10.40
   1   1   1  301.57   10.40
   1   1   1  325.27   10.40
   1   1   1  326.37   10.30
   1   1   1  336.97   10.40
   1   1   1  345.27   10.50
   1   1   1  298.17   11.00
  -1   0  -1    1.80    0.20
  -1   0  -1    1.70    0.20
  -1   0  -1    2.00    0.20
  -1   0  -1    2.10    0.20
  -1   0  -1    2.00    0.20
  -1   0  -1    2.20    0.20
  -1   0  -1    2.10    0.20
  -1   0  -1    2.30    0.20
  -1   0  -1    1.90    0.10
   1   0   1    2.40    0.20
   1   0   1    1.90    0.20
   1   0   1    2.00    0.20
   1   0   1    2.10    0.20
   1   0   1    1.60    0.20
   1   0   1    2.00    0.20
   1   0   1    1.90    0.20
   1   0   1    2.00    0.20
  -1   1  -1   29.10    1.10
  -1   1  -1   29.80    1.10
  -1   1  -1   28.80    1.20
  -1   1  -1   30.80    1.30
  -1   1  -1   29.10    1.20
  -1   1  -1   30.70    1.20
  -1   1  -1   30.70    1.20
  -1   1  -1   28.70    1.20
  -1   1  -1   25.60    1.20
   1  -1   1   26.70    1.10
   1  -1   1   30.50    1.20
   1  -1   1   31.60    1.10
   1  -1   1   29.80    1.20
   1  -1   1   27.40    1.10
   1  -1   1   30.40    1.20
   1  -1   1   30.30    1.20
   1  -1   1   28.40    1.10
   1  -1   1   29.80    1.20
  -1   2  -1    0.20    0.20
  -1   2  -1    0.20    0.20
  -1   2  -1    0.10    0.10
  -1   2  -1   -0.10    0.20
  -1   2  -1    0.10    0.10
  -1   2  -1    0.00    0.20
  -1   2  -1    0.10    0.10
  -1   2  -1   -0.20    0.10
  -1   2  -1    0.00    0.20
  -1   2  -1    0.10    0.20
   1  -2   1    0.10    0.10
   1  -2   1   -0.10    0.20
   1  -2   1   -0.10    0.30
   1  -2   1    0.00    0.10
   1  -2   1    0.00    0.10
   1  -2   1    0.10    0.20
   1  -2   1    0.10    0.20
   1  -2   1   -0.20    0.10
   1  -2   1    0.10    0.20
   1  -2   1    0.20    0.20
   1  -2   1    0.10    0.20
  -1   3  -1   73.39    2.90
  -1   3  -1   69.99    2.80
  -1   3  -1   68.89    2.50
  -1   3  -1   70.79    2.80
  -1   3  -1   70.69    2.90
  -1   3  -1   74.19    2.70
  -1   3  -1   64.89    2.90
  -1   3  -1   73.09    2.50
  -1   3  -1   73.59    2.80
  -1   3  -1   73.39    2.90
   1  -3   1   71.99    2.50
   1  -3   1   76.09    2.90
   1  -3   1   72.29    2.50
   1  -3   1   74.69    2.90
   1  -3   1   79.39    2.50
   1  -3   1   74.89    2.80
   1  -3   1   72.69    3.20
   1  -3   1   71.29    3.30
  -1   4  -1   27.80    1.50
  -1   4  -1   28.10    1.70
  -1   4  -1   27.70    1.60
  -1   4  -1   31.40    1.50
  -1   4  -1   27.50    1.50
  -1   4  -1   31.90    1.20
  -1   4  -1   29.60    1.40
  -1   4  -1   30.30    1.60
   1  -4   1   29.30    1.20
   1  -4   1   27.60    1.50
   1  -4   1   30.20    1.20
   1  -4   1   28.60    1.90
   1  -4   1   30.00    1.50
   1  -4   1   30.50    1.60
   1  -4   1   25.50    1.90
  -1   5  -1   11.10    1.20
  -1   5  -1   12.10    1.00
  -1   5  -1   13.80    0.70
  -1   5  -1   15.60    0.90
  -1   5  -1   12.20    1.00
  -1   5  -1   11.90    1.20
  -1   5  -1   13.20    1.10
   1  -5   1   13.60    1.00
   1  -5   1   12.10    1.60
   1  -5   1   11.00    1.60
   1  -5   1   13.30    0.70
   1  -5   1   12.90    0.70
   1  -5   1   14.90    1.10
   1  -5   1   14.60    1.10
  -1   6  -1   15.30    1.40
  -1   6  -1   18.00    1.30
  -1   6  -1   18.20    1.40
  -1   6  -1   17.40    1.10
  -1   6  -1   16.90    1.30
   1  -6   1   21.30    2.40
   1  -6   1   17.60    0.90
   1  -6   1   17.30    1.20
   1  -6   1   18.90    2.20
  -1   7  -1    0.90    0.60
  -1   7  -1    2.40    0.70
  -1   7  -1    1.40    0.50
  -1   7  -1    1.40    0.60
   1  -7   1    2.60    1.10
   1  -7   1    2.10    0.90
  -1   8  -1    1.00    0.70
  -1   8  -1    1.20    0.60
  -1   8  -1    1.20    0.60
   1  -8   1    2.50    1.20
   1  -8   1    1.70    1.00
  -2 -10  -1    0.90    0.90
  -2 -10  -1    0.50    0.80
   2  10   1    0.70    0.40
   2  10   1    0.20    0.70
   2  10   1    0.90    0.60
  -2  -9  -1   12.60    2.00
  -2  -9  -1   10.10    1.80
  -2  -9  -1   10.90    1.90
   2   9   1   13.10    1.00
   2   9   1   11.30    1.20
   2   9   1   11.20    1.60
  -2  -8  -1   42.50    2.80
  -2  -8  -1   35.00    2.70
  -2  -8  -1   33.20    2.60
   2   8   1   34.80    2.40
   2   8   1   38.60    1.80
   2   8   1   35.10    1.90
  -2  -7  -1   25.20    2.00
  -2  -7  -1   25.90    2.10
  -2  -7  -1   23.00    2.00
  -2  -7  -1   25.20    1.60
   2   7   1   26.20    1.30
   2   7   1   24.00    1.30
   2   7   1   25.80    1.60
   2   7   1   24.20    1.10
   2   7   1   21.90    1.70
   2   7   1   25.80    1.10
   2   7   1   21.20    2.30
   2   7   1   23.80    1.40
  -2  -6  -1   89.39    3.20
  -2  -6  -1   94.09    4.20
  -2  -6  -1   93.19    4.30
  -2  -6  -1   83.29    4.10
  -2  -6  -1   90.29    3.70
   2   6   1   87.09    3.40
   2   6   1   83.59    3.90
   2   6   1   94.49    3.20
   2   6   1   89.29    3.30
   2   6   1   93.99    3.30
   2   6   1   93.49    3.40
   2   6   1   92.29    3.70
   2   6   1   94.89    3.20
  -2  -5  -1   59.49    2.90
  -2  -5  -1   61.79    3.00
  -2  -5  -1   62.49    2.10
  -2  -5  -1   65.69    3.00
  -2  -5  -1   61.99    2.60
  -2  -5  -1   59.69    2.10
   2   5   1   60.59    2.20
   2   5   1   57.79    2.20
   2   5   1   56.49    2.30
   2   5   1   60.29    2.30
   2   5   1   63.49    2.30
   2   5   1   63.59    2.20
   2   5   1   62.59    2.60
   2   5   1   53.69    2.70
  -2  -4  -1  124.39    4.60
  -2  -4  -1  128.39    4.80
  -2  -4  -1  121.79    3.90
  -2  -4  -1  124.49    3.90
  -2  -4  -1  118.79    4.80
  -2  -4  -1  123.89    4.40
   2   4   1  123.89    4.10
   2   4   1  122.79    4.10
   2   4   1  114.59    4.50
   2   4   1  123.29    4.10
   2   4   1  121.59    4.10
   2   4   1  119.89    4.20
   2   4   1  117.59    4.40
   2   4   1  122.69    4.20
  -2  -3  -1   59.49    2.50
  -2  -3  -1   58.49    2.30
   2   3   1   58.79    2.20
   2   3   1   50.59    2.60
   2   3   1   56.39    2.20
   2   3   1   57.89    1.90
   2   3   1   58.29    1.90
  -2  -2  -1   16.40    0.90
   2   2   1   16.60    0.60
   2   2   1   15.40    1.00
   2   2   1   16.00    0.60
   2   2   1   16.20    0.60
   2   2   1   15.70    0.60
   2   2   1   16.30    0.80
  -2  -1  -1  288.47    9.30
  -2  -1  -1  280.77    9.10
  -2  -1  -1  284.07    9.20
  -2  -1  -1  284.27    9.10
  -2  -1  -1  268.67    9.20
  -2  -1  -1  286.97    9.10
  -2  -1  -1  280.17    9.20
  -2  -1  -1  287.17    9.10
   2   1   1  278.17    9.20
   2   1   1  266.27    9.20
   2   1   1  279.87    9.10
   2   1   1  261.37    9.10
   2   1   1  282.47    9.10
   2   1   1  290.27    9.10
  -2   0  -1  244.58    8.30
  -2   0  -1  263.57    8.30
  -2   0  -1  262.67    8.30
  -2   0  -1  262.87    8.30
  -2   0  -1  256.47    8.30
  -2   0  -1  257.77    8.30
  -2   0  -1  246.88    8.20
  -2   0  -1  252.17    8.40
  -2   0  -1  247.48    8.20
  -2   0  -1  242.38    8.40
   2   0   1  249.08    8.30
   2   0   1  247.28    8.30
   2   0   1  260.87    8.30
   2   0   1  251.37    8.30
   2   0   1  249.88    8.30
   2   0   1  235.58    8.20
   2   0   1  241.98    8.30
   2   0   1  255.37    8.20
   2   0   1  260.47    8.40
  -2   1  -1 1428.56   43.80
  -2   1  -1 1392.66   43.90
  -2   1  -1 1428.66   44.40
  -2   1  -1 1300.87   43.60
  -2   1  -1 1409.86   44.00
  -2   1  -1 1377.06   43.80
  -2   1  -1 1357.06   43.80
  -2   1  -1 1253.37   44.50
  -2   1  -1 1457.85   43.80
   2  -1   1 1328.67   44.50
   2  -1   1 1317.77   44.30
   2  -1   1 1452.05   43.80
   2  -1   1 1347.67   44.50
   2  -1   1 1351.36   44.30
   2  -1   1 1337.17   43.80
   2  -1   1 1296.47   45.00
   2  -1   1 1250.87   44.20
   2  -1   1 1403.76   43.80
  -2   2  -1    0.20    0.20
  -2   2  -1    0.30    0.20
  -2   2  -1    0.10    0.20
  -2   2  -1    0.40    0.30
  -2   2  -1    0.50    0.30
  -2   2  -1    0.20    0.20
  -2   2  -1    0.90    0.30
  -2   2  -1    0.40    0.30
  -2   2  -1    0.10    0.20
   2  -2   1    0.20    0.20
   2  -2   1    0.10    0.20
   2  -2   1    0.50    0.20
   2  -2   1    0.30    0.20
   2  -2   1    0.20    0.20
   2  -2   1    0.50    0.20
   2  -2   1    0.00    0.20
   2  -2   1   -0.10    0.20
   2  -2   1    0.40    0.20
   2  -2   1    0.40    0.20
  -2   3  -1   11.50    0.90
  -2   3  -1   10.70    0.70
  -2   3  -1   10.40    0.80
  -2   3  -1   10.70    0.90
  -2   3  -1   10.10    0.80
  -2   3  -1   10.90    0.90
  -2   3  -1   10.70    0.70
  -2   3  -1   10.00    0.90
   2  -3   1   11.00    0.80
   2  -3   1    9.40    0.80
   2  -3   1    9.50    0.60
   2  -3   1    9.30    0.60
   2  -3   1   10.50    0.80
   2  -3   1   12.00    0.70
   2  -3   1   12.30    1.50
   2  -3   1   10.60    0.80
   2  -3   1   11.10    0.60
  -2   4  -1   23.00    1.50
  -2   4  -1   24.70    1.50
  -2   4  -1   22.20    1.50
  -2   4  -1   24.10    1.20
  -2   4  -1   24.00    1.30
  -2   4  -1   25.80    1.50
  -2   4  -1   24.20    1.40
   2  -4   1   24.70    1.00
   2  -4   1   24.40    1.40
   2  -4   1   23.00    2.00
   2  -4   1   22.60    1.40
   2  -4   1   23.80    1.00
   2  -4   1   23.70    1.10
   2  -4   1   26.20    1.50
  -2   5  -1   15.70    1.20
  -2   5  -1   11.40    1.30
  -2   5  -1   15.50    1.20
  -2   5  -1   17.30    1.10
  -2   5  -1   14.90    1.30
   2  -5   1   11.80    1.80
   2  -5   1   13.50    0.70
   2  -5   1   14.00    1.10
   2  -5   1   15.80    1.20
   2  -5   1   19.40    2.30
   2  -5   1   14.90    0.80
   2  -5   1   15.00    0.80
  -2   6  -1    3.50    0.80
  -2   6  -1    2.10    0.50
  -2   6  -1    2.00    0.80
  -2   6  -1    3.60    0.80
   2  -6   1    3.10    0.70
   2  -6   1    3.30    1.10
  -2   7  -1    1.10    0.70
  -2   7  -1    1.30    0.60
  -2   7  -1    1.10    0.70
   2  -7   1    3.10    1.20
  -2   8  -1   -0.10    0.60
  -2   8  -1    0.40    0.50
  -2   8  -1    1.20    0.90
   2  -8   1    1.40    1.00
   2  -8   1    3.00    1.40
  -3 -10  -1    6.40    1.60
  -3 -10  -1    5.90    1.60
  -3 -10  -1    5.00    1.50
   3  10   1    4.20    0.80
   3  10   1    3.50    1.10
   3  10   1    4.90    0.70
  -3  -9  -1   22.10    2.40
  -3  -9  -1   21.10    2.50
  -3  -9  -1   21.20    2.60
   3   9   1   18.50    2.10
   3   9   1   17.00    1.30
   3   9   1   17.40    1.10
  -3  -8  -1   22.50    2.20
  -3  -8  -1   29.10    2.20
  -3  -8  -1   26.00    2.10
   3   8   1   26.10    1.30
   3   8   1   27.30    1.80
   3   8   1   25.00    1.40
   3   8   1   23.90    2.00
   3   8   1   25.10    1.20
   3   8   1   26.70    1.40
  -3  -7  -1   18.30    1.70
  -3  -7  -1   19.50    1.70
  -3  -7  -1   18.20    1.60
   3   7   1   20.40    1.10
   3   7   1   16.30    1.90
   3   7   1   20.60    1.10
   3   7   1   18.20    1.00
   3   7   1   17.90    1.50
   3   7   1   19.60    1.00
   3   7   1   20.00    1.00
   3   7   1   17.30    1.30
  -3  -6  -1   -0.40    0.30
  -3  -6  -1   -0.10    0.40
  -3  -6  -1   -0.10    0.40
  -3  -6  -1   -0.20    0.20
  -3  -6  -1    0.40    0.20
   3   6   1   -0.20    0.20
   3   6   1    0.10    0.10
   3   6   1    0.10    0.40
   3   6   1    0.10    0.40
   3   6   1    0.20    0.20
   3   6   1    0.50    0.30
   3   6   1    0.10    0.20
   3   6   1    0.00    0.20
   3   6   1    0.10    0.20
  -3  -5  -1   13.10    1.00
  -3  -5  -1   13.70    0.70
  -3  -5  -1   12.50    1.20
  -3  -5  -1   12.00    1.10
  -3  -5  -1   12.80    0.80
   3   5   1   12.40    0.50
   3   5   1   13.00    0.50
   3   5   1   12.70    0.60
   3   5   1   12.90    0.90
   3   5   1    9.70    1.20
   3   5   1   12.70    0.80
   3   5   1   12.70    0.60
   3   5   1   10.60    0.80
  -3  -4  -1   13.10    0.70
  -3  -4  -1   12.70    0.70
  -3  -4  -1   12.50    1.00
  -3  -4  -1   12.20    0.80
  -3  -4  -1   11.00    1.00
   3   4   1   10.90    1.10
   3   4   1   11.80    0.70
   3   4   1   11.10    0.80
   3   4   1    9.60    0.70
  -3  -3  -1    0.60    0.20
  -3  -3  -1    0.80    0.40
   3   3   1    1.10    0.10
   3   3   1    1.60    0.30
   3   3   1    0.90    0.10
   3   3   1    0.90    0.10
   3   3   1    1.20    0.30
   3   3   1    1.10    0.10
   3   3   1    0.80    0.40
  -3  -2  -1  307.57    9.70
  -3  -2  -1  320.07   10.20
  -3  -2  -1  270.57   10.10
  -3  -2  -1  315.27    9.70
  -3  -2  -1  306.27   10.00
  -3  -2  -1  305.87    9.80
  -3  -2  -1  305.67   10.00
  -3  -2  -1  303.47   10.00
   3   2   1  299.87    9.80
   3   2   1  304.67   10.10
   3   2   1  305.27    9.80
   3   2   1  292.27   10.10
   3   2   1  290.67    9.80
   3   2   1  295.77   10.00
   3   2   1  305.47    9.90
   3   2   1  299.07   10.00
  -3  -1  -1   37.80    1.60
  -3  -1  -1   37.50    1.50
  -3  -1  -1   38.40    1.50
  -3  -1  -1   37.40    1.60
  -3  -1  -1   37.30    1.50
  -3  -1  -1   36.30    1.50
  -3  -1  -1   36.50    1.50
  -3  -1  -1   35.80    1.50
   3   1   1   36.50    1.60
   3   1   1   37.50    1.50
   3   1   1   36.90    1.50
   3   1   1   37.00    1.50
   3   1   1   35.50    1.50
   3   1   1   39.60    1.60
   3   1   1   40.80    1.40
   3   1   1   40.50    1.50
   3   1   1   37.60    1.50
  -3   0  -1   12.10    0.60
  -3   0  -1   12.60    0.80
  -3   0  -1   12.20    0.70
  -3   0  -1   12.30    0.70
  -3   0  -1   13.20    0.80
  -3   0  -1   12.60    0.70
  -3   0  -1   12.00    0.70
  -3   0  -1   12.90    0.80
  -3   0  -1   11.70    0.80
  -3   0  -1   12.70    0.70
   3   0   1   11.50    0.80
   3   0   1   13.40    0.80
   3   0   1   12.40    0.60
   3   0   1   12.50    0.70
   3   0   1   11.50    0.70
   3   0   1   11.60    0.70
   3   0   1   11.30    0.80
   3   0   1   11.40    0.80
   3   0   1   11.20    0.70
  -3   1  -1   12.50    0.70
  -3   1  -1   14.10    0.90
  -3   1  -1   13.30    0.90
  -3   1  -1   12.70    0.80
  -3   1  -1   14.50    0.90
  -3   1  -1   13.40    0.80
  -3   1  -1   12.20    0.90
  -3   1  -1   11.60    0.70
  -3   1  -1   12.40    0.90
  -3   1  -1   12.70    0.80
   3  -1   1   12.50    0.90
   3  -1   1   12.70    0.80
   3  -1   1   13.50    0.90
   3  -1   1   13.00    0.80
   3  -1   1   13.80    0.90
   3  -1   1   13.40    0.90
   3  -1   1   11.40    0.80
   3  -1   1   11.70    0.80
   3  -1   1   12.90    0.80
  -3   2  -1   25.90    1.30
  -3   2  -1   26.00    1.40
  -3   2  -1   23.80    1.30
  -3   2  -1   24.00    1.50
  -3   2  -1   26.50    1.50
  -3   2  -1   24.40    1.20
  -3   2  -1   24.40    1.30
  -3   2  -1   25.30    1.30
   3  -2   1   25.80    1.40
   3  -2   1   23.80    1.30
   3  -2   1   26.60    1.40
   3  -2   1   25.80    1.80
   3  -2   1   26.80    1.30
   3  -2   1   25.80    1.40
   3  -2   1   25.40    1.50
   3  -2   1   25.60    1.20
   3  -2   1   25.30    1.40
  -3   3  -1    0.30    0.30
  -3   3  -1   -0.20    0.30
  -3   3  -1    0.00    0.30
  -3   3  -1    0.10    0.30
  -3   3  -1    0.20    0.20
  -3   3  -1    0.10    0.30
  -3   3  -1    0.10    0.30
   3  -3   1   -0.50    0.40
   3  -3   1    0.00    0.20
   3  -3   1    0.00    0.30
   3  -3   1    0.30    0.30
   3  -3   1    0.20    0.20
   3  -3   1    0.10    0.40
   3  -3   1    0.00    0.20
   3  -3   1   -0.30    0.20
  -3   4  -1   44.00    2.20
  -3   4  -1   41.50    2.20
  -3   4  -1   39.60    1.90
  -3   4  -1   39.50    2.00
  -3   4  -1   39.10    2.30
  -3   4  -1   41.50    2.00
  -3   4  -1   38.60    2.10
   3  -4   1   39.30    2.80
   3  -4   1   39.90    1.70
   3  -4   1   39.40    1.60
   3  -4   1   39.80    2.10
   3  -4   1   39.80    2.10
   3  -4   1   41.20    1.60
   3  -4   1   41.50    2.20
  -3   5  -1    0.60    0.50
  -3   5  -1   -0.30    0.40
  -3   5  -1    0.30    0.40
  -3   5  -1   -0.50    0.30
  -3   5  -1    1.10    0.60
   3  -5   1    0.40    0.80
   3  -5   1    0.10    0.40
   3  -5   1    0.40    0.30
  -3   6  -1   21.40    1.80
  -3   6  -1   19.90    1.60
  -3   6  -1   18.10    1.90
   3  -6   1   20.10    2.70
   3  -6   1   24.10    1.70
  -3   7  -1    3.70    0.90
  -3   7  -1    3.20    1.00
  -3   7  -1    2.10    0.90
   3  -7   1    3.20    1.30
  -4 -10  -1    8.90    1.80
  -4 -10  -1    7.80    1.50
  -4 -10  -1    7.50    1.70
   4  10   1    8.50    0.90
   4  10   1    7.40    1.40
  -4  -9  -1    3.60    1.20
  -4  -9  -1    5.60    1.20
  -4  -9  -1    5.70    1.40
   4   9   1    8.30    1.40
   4   9   1    5.50    0.70
   4   9   1    5.30    0.60
  -4  -8  -1    6.60    1.40
  -4  -8  -1    5.70    1.30
  -4  -8  -1    2.20    0.80
   4   8   1    4.60    0.40
   4   8   1    4.30    0.50
   4   8   1    3.80    0.90
   4   8   1    4.80    0.50
   4   8   1    2.60    0.70
   4   8   1    4.20    0.70
   4   8   1    5.10    0.70
   4   8   1    3.70    0.60
  -4  -7  -1  118.49    4.70
  -4  -7  -1  114.19    4.10
  -4  -7  -1  113.69    4.10
  -4  -7  -1  110.79    5.10
  -4  -7  -1  109.09    5.00
   4   7   1  113.79    4.20
   4   7   1  111.19    3.70
   4   7   1  110.79    3.90
   4   7   1  112.09    4.20
   4   7   1  101.99    5.60
   4   7   1  110.89    4.30
   4   7   1  109.49    4.50
   4   7   1  107.39    4.70
   4   7   1  113.49    3.70
   4   7   1  107.59    3.80
  -4  -6  -1   52.39    2.40
  -4  -6  -1   51.09    2.80
  -4  -6  -1   51.39    2.10
  -4  -6  -1   52.19    2.20
  -4  -6  -1   55.19    2.90
   4   6   1   51.69    1.80
   4   6   1   53.19    3.30
   4   6   1   54.49    2.30
   4   6   1   54.29    2.30
   4   6   1   50.29    2.30
   4   6   1   52.89    1.80
   4   6   1   55.99    2.50
  -4  -5  -1    3.40    0.50
  -4  -5  -1    3.40    0.50
  -4  -5  -1    3.30    0.80
  -4  -5  -1    2.90    0.50
  -4  -5  -1    2.60    0.70
   4   5   1    2.70    0.50
   4   5   1    3.50    0.60
   4   5   1    2.80    0.80
   4   5   1    4.00    0.60
  -4  -4  -1    8.60    0.80
  -4  -4  -1    7.40    1.00
  -4  -4  -1    6.10    0.50
  -4  -4  -1    7.70    1.00
   4   4   1    6.20    0.90
   4   4   1    5.30    0.30
   4   4   1    5.30    0.30
   4   4   1    5.90    0.80
   4   4   1    5.20    0.70
   4   4   1    5.70    0.60
   4   4   1    6.00    0.30
   4   4   1    5.70    0.70
  -4  -3  -1  194.18    6.90
  -4  -3  -1  228.18    7.20
  -4  -3  -1  209.88    7.30
  -4  -3  -1  198.78    6.60
  -4  -3  -1  203.48    6.80
  -4  -3  -1  200.78    7.00
  -4  -3  -1  203.78    6.60
   4   3   1  194.48    6.70
   4   3   1  194.38    6.90
   4   3   1  192.78    7.20
   4   3   1  208.48    6.70
   4   3   1  203.88    6.70
   4   3   1  203.48    6.90
   4   3   1  194.18    7.10
   4   3   1  201.88    6.70
  -4  -2  -1  157.38    5.50
  -4  -2  -1  158.38    5.40
  -4  -2  -1  151.78    5.50
  -4  -2  -1  156.58    5.40
  -4  -2  -1  158.38    5.60
  -4  -2  -1  156.38    5.30
  -4  -2  -1  154.68    5.40
   4   2   1  164.68    5.40
   4   2   1  163.78    5.50
   4   2   1  150.48    5.40
   4   2   1  153.68    5.40
   4   2   1  150.08    5.40
   4   2   1  152.38    5.70
   4   2   1  166.98    5.40
   4   2   1  157.58    5.50
   4   2   1  172.38    5.30
  -4  -1  -1   29.70    1.40
  -4  -1  -1   27.50    1.30
  -4  -1  -1   25.80    1.20
  -4  -1  -1   28.30    1.30
  -4  -1  -1   28.20    1.30
  -4  -1  -1   26.90    1.40
  -4  -1  -1   28.00    1.30
  -4  -1  -1   30.00    1.30
   4   1   1   28.10    1.30
   4   1   1   27.60    1.30
   4   1   1   24.70    1.30
   4   1   1   29.30    1.40
   4   1   1   26.90    1.20
   4   1   1   27.80    1.10
   4   1   1   24.30    1.30
   4   1   1   30.30    1.40
   4   1   1   25.30    1.40
  -4   0  -1   61.99    2.60
  -4   0  -1   63.59    2.60
  -4   0  -1   64.39    2.30
  -4   0  -1   63.39    2.70
  -4   0  -1   67.89    2.40
  -4   0  -1   65.09    2.60
   4   0   1   63.89    2.60
   4   0   1   64.39    2.60
   4   0   1   60.99    2.60
   4   0   1   63.99    2.50
   4   0   1   62.79    2.50
   4   0   1   66.29    2.70
   4   0   1   60.89    2.60
   4   0   1   63.19    2.40
   4   0   1   61.39    2.50
  -4   1  -1    0.10    0.30
  -4   1  -1    0.00    0.20
  -4   1  -1    0.00    0.30
  -4   1  -1   -0.10    0.20
  -4   1  -1    0.50    0.30
  -4   1  -1    0.10    0.30
   4  -1   1    0.00    0.30
   4  -1   1    0.20    0.20
   4  -1   1    0.10    0.30
   4  -1   1   -0.20    0.40
   4  -1   1   -0.10    0.20
   4  -1   1    0.20    0.30
   4  -1   1    0.40    0.30
   4  -1   1    0.10    0.20
   4  -1   1    0.10    0.20
  -4   2  -1   26.70    1.70
  -4   2  -1   26.10    1.40
  -4   2  -1   25.50    1.40
  -4   2  -1   28.90    1.60
  -4   2  -1   27.90    1.50
  -4   2  -1   28.40    1.40
   4  -2   1   31.40    1.60
   4  -2   1   28.20    1.50
   4  -2   1   25.10    1.40
   4  -2   1   26.40    1.60
   4  -2   1   26.80    1.60
   4  -2   1   31.20    1.80
   4  -2   1   28.20    1.60
   4  -2   1   30.40    2.10
  -4   3  -1  195.28    7.20
  -4   3  -1  206.88    7.20
  -4   3  -1  202.98    7.60
  -4   3  -1  198.28    7.20
  -4   3  -1  198.18    7.40
   4  -3   1  192.48    7.40
   4  -3   1  205.98    7.40
   4  -3   1  196.18    8.20
   4  -3   1  205.58    7.00
   4  -3   1  202.78    7.10
   4  -3   1  209.98    7.50
   4  -3   1  192.78    7.30
  -4   4  -1    3.40    0.80
  -4   4  -1    4.70    0.90
  -4   4  -1    3.20    0.70
  -4   4  -1    3.90    0.70
   4  -4   1    5.20    0.90
   4  -4   1    5.00    0.90
   4  -4   1    5.40    0.70
   4  -4   1    3.60    1.10
   4  -4   1    4.90    0.50
  -4   5  -1    0.80    0.60
  -4   5  -1    0.30    0.60
  -4   5  -1    0.50    0.70
   4  -5   1    0.40    0.50
   4  -5   1    0.40    0.30
   4  -5   1    1.20    1.00
  -4   6  -1   19.30    2.10
  -4   6  -1   20.50    1.80
  -4   6  -1   20.10    1.80
   4  -6   1   18.70    2.70
   4  -6   1   21.50    1.80
  -5 -10  -1    2.40    1.20
  -5 -10  -1    6.40    1.60
   5  10   1    1.90    0.40
   5  10   1    3.10    1.00
  -5  -9  -1    8.60    1.60
  -5  -9  -1    8.70    1.60
   5   9   1    9.40    0.60
   5   9   1   13.90    1.80
   5   9   1   12.50    1.60
   5   9   1    9.40    0.70
  -5  -8  -1    0.00    0.60
  -5  -8  -1    1.40    0.40
  -5  -8  -1    1.20    0.40
  -5  -8  -1    1.30    0.80
   5   8   1    0.40    0.30
   5   8   1    1.10    0.60
   5   8   1    0.80    0.40
   5   8   1    1.40    0.20
   5   8   1    0.40    0.30
   5   8   1    1.10    0.20
   5   8   1    1.30    0.50
   5   8   1    0.80    0.70
   5   8   1    1.50    0.50
  -5  -7  -1   74.89    3.20
  -5  -7  -1   72.09    3.70
  -5  -7  -1   80.09    2.90
  -5  -7  -1   75.69    3.90
  -5  -7  -1   73.39    3.10
   5   7   1   72.49    3.10
   5   7   1   76.99    3.30
   5   7   1   72.49    3.30
   5   7   1   75.29    3.10
   5   7   1   75.49    2.50
   5   7   1   72.79    2.50
   5   7   1   74.19    3.20
   5   7   1   73.99    4.30
  -5  -6  -1    0.30    0.30
  -5  -6  -1    0.30    0.50
  -5  -6  -1    0.70    0.40
  -5  -6  -1   -0.60    0.30
  -5  -6  -1    0.00    0.20
   5   6   1    0.10    0.30
   5   6   1    0.00    0.30
   5   6   1    0.50    0.30
   5   6   1    0.30    0.30
   5   6   1    0.40    0.50
   5   6   1    0.20    0.30
   5   6   1    0.20    0.30
  -5  -5  -1   19.10    1.40
  -5  -5  -1   16.40    1.40
  -5  -5  -1   17.90    1.00
  -5  -5  -1   16.50    1.10
   5   5   1   17.30    0.70
   5   5   1   17.80    0.60
   5   5   1   18.20    0.70
   5   5   1   17.90    0.80
   5   5   1   17.80    1.20
   5   5   1   16.30    1.50
   5   5   1   17.50    1.10
   5   5   1   17.30    1.10
   5   5   1   17.40    1.20
  -5  -4  -1   67.29    2.60
  -5  -4  -1   61.59    2.70
  -5  -4  -1   64.99    2.90
  -5  -4  -1   65.79    3.00
  -5  -4  -1   66.99    2.70
   5   4   1   64.69    2.70
   5   4   1   61.79    2.80
   5   4   1   66.79    2.90
   5   4   1   65.09    2.40
   5   4   1   59.49    2.90
   5   4   1   66.19    2.40
   5   4   1   67.89    2.40
   5   4   1   66.69    2.60
   5   4   1   63.49    2.30
  -5  -3  -1    4.00    0.60
  -5  -3  -1    4.20    0.30
  -5  -3  -1    3.80    0.40
  -5  -3  -1    4.80    0.70
  -5  -3  -1    4.10    0.50
  -5  -3  -1    5.70    0.70
  -5  -3  -1    4.70    0.40
   5   3   1    4.90    0.60
   5   3   1    4.40    0.50
   5   3   1    4.40    0.50
   5   3   1    5.30    0.60
   5   3   1    4.10    0.60
   5   3   1    3.90    0.50
   5   3   1    4.20    0.70
   5   3   1    4.20    0.50
  -5  -2  -1   65.69    2.60
  -5  -2  -1   67.79    2.70
  -5  -2  -1   67.59    2.80
  -5  -2  -1   65.19    2.80
  -5  -2  -1   67.49    2.60
  -5  -2  -1   69.09    2.70
   5   2   1   68.29    2.70
   5   2   1   68.29    2.70
   5   2   1   69.09    2.40
   5   2   1   72.49    2.50
   5   2   1   69.79    2.80
   5   2   1   63.79    2.60
   5   2   1   67.19    2.80
   5   2   1   64.49    2.90
   5   2   1   68.79    2.70
  -5  -1  -1    1.10    0.30
  -5  -1  -1    0.90    0.30
  -5  -1  -1    1.40    0.40
  -5  -1  -1    1.10    0.20
  -5  -1  -1    1.10    0.30
  -5  -1  -1    0.50    0.30
   5   1   1    0.60    0.30
   5   1   1    0.70    0.40
   5   1   1    1.40    0.30
   5   1   1    1.20    0.30
   5   1   1    0.70    0.30
   5   1   1    0.90    0.40
   5   1   1    0.10    0.30
   5   1   1    0.80    0.30
   5   1   1    0.80    0.30
  -5   0  -1    3.10    0.60
  -5   0  -1    2.70    0.40
  -5   0  -1    2.10    0.50
  -5   0  -1    2.70    0.40
  -5   0  -1    0.90    0.40
  -5   0  -1    3.00    0.50
   5   0   1    2.20    0.50
   5   0   1    2.30    0.40
   5   0   1    2.70    0.70
   5   0   1    2.30    0.50
   5   0   1    2.70    0.60
   5   0   1    1.80    0.50
   5   0   1    2.70    0.50
   5   0   1    2.00    0.50
   5   0   1    1.70    0.50
  -5   1  -1  106.99    4.30
  -5   1  -1  105.59    3.90
  -5   1  -1  102.59    4.00
  -5   1  -1  104.99    3.80
  -5   1  -1  100.59    4.10
  -5   1  -1  102.59    3.90
   5  -1   1   99.99    4.00
   5  -1   1   95.09    4.10
   5  -1   1   98.89    4.00
   5  -1   1   94.29    4.50
   5  -1   1  102.29    3.90
   5  -1   1  108.39    4.30
   5  -1   1   96.69    4.00
   5  -1   1  103.09    4.20
  -5   2  -1   38.70    1.90
  -5   2  -1   36.90    2.10
  -5   2  -1   35.80    2.20
  -5   2  -1   36.80    1.90
  -5   2  -1   36.10    1.90
  -5   2  -1   36.80    1.80
   5  -2   1   37.80    2.10
   5  -2   1   38.90    2.00
   5  -2   1   39.00    1.90
   5  -2   1   39.80    2.70
   5  -2   1   39.50    1.90
   5  -2   1   39.10    2.00
   5  -2   1   35.00    2.10
  -5   3  -1    2.30    0.70
  -5   3  -1    2.20    0.70
  -5   3  -1    2.40    0.80
   5  -3   1    4.40    0.80
   5  -3   1    3.60    0.60
   5  -3   1    0.20    0.70
   5  -3   1    3.20    0.80
   5  -3   1    3.90    0.70
   5  -3   1    3.00    0.70
  -5   4  -1   16.60    1.40
  -5   4  -1   17.60    1.90
  -5   4  -1   12.40    1.50
   5  -4   1   20.70    2.70
   5  -4   1   14.50    1.60
   5  -4   1   15.00    1.10
  -5   5  -1    2.40    0.80
  -5   5  -1    1.70    0.80
   5  -5   1    1.50    0.70
   5  -5   1    1.10    1.00
  -6 -10  -1   34.20    2.90
  -6 -10  -1   36.20    2.80
   6  10   1   32.00    1.20
   6  10   1   33.00    1.30
   6  10   1   31.80    2.50
  -6  -9  -1   -0.20    0.60
  -6  -9  -1    0.20    0.60
   6   9   1    0.90    0.50
   6   9   1    0.60    0.80
   6   9   1    0.50    0.50
  -6  -8  -1    4.40    0.80
  -6  -8  -1    3.30    1.10
  -6  -8  -1    4.80    0.60
  -6  -8  -1    4.40    1.10
   6   8   1    4.20    0.80
   6   8   1    3.50    0.70
   6   8   1    4.70    0.80
   6   8   1    5.20    1.00
   6   8   1    5.10    0.90
   6   8   1    2.90    1.10
   6   8   1    3.70    0.70
  -6  -7  -1    9.40    1.40
  -6  -7  -1    6.60    0.90
  -6  -7  -1    8.70    0.80
  -6  -7  -1    6.80    1.30
   6   7   1    7.10    1.00
   6   7   1    7.30    0.90
   6   7   1    6.00    1.30
   6   7   1    8.50    1.10
   6   7   1    7.90    1.00
   6   7   1    7.70    1.00
   6   7   1    6.60    0.90
  -6  -6  -1   65.19    3.00
  -6  -6  -1   68.39    3.40
  -6  -6  -1   68.49    3.40
  -6  -6  -1   69.49    2.80
   6   6   1   73.39    3.00
   6   6   1   71.49    3.20
   6   6   1   68.99    3.00
   6   6   1   73.49    3.10
   6   6   1   70.09    3.20
   6   6   1   63.69    3.60
   6   6   1   66.59    2.40
   6   6   1   71.99    2.50
  -6  -5  -1   50.69    2.20
  -6  -5  -1   50.89    2.70
  -6  -5  -1   50.19    2.40
  -6  -5  -1   50.99    2.60
   6   5   1   52.39    2.30
   6   5   1   51.29    2.50
   6   5   1   51.79    2.60
   6   5   1   53.59    1.90
   6   5   1   52.49    1.90
   6   5   1   49.50    2.00
   6   5   1   52.89    2.10
   6   5   1   48.30    2.70
   6   5   1   52.89    2.40
  -6  -4  -1   24.80    1.50
  -6  -4  -1   26.10    1.50
  -6  -4  -1   25.10    1.00
  -6  -4  -1   25.80    1.60
  -6  -4  -1   27.40    1.40
   6   4   1   25.50    1.60
   6   4   1   29.10    1.70
   6   4   1   25.80    1.40
   6   4   1   24.10    1.40
   6   4   1   29.00    1.30
   6   4   1   26.20    1.30
   6   4   1   24.60    1.30
   6   4   1   27.60    1.20
   6   4   1   27.50    1.50
  -6  -3  -1    1.40    0.50
  -6  -3  -1    1.20    0.50
  -6  -3  -1    1.00    0.40
  -6  -3  -1    1.50    0.30
  -6  -3  -1    1.10    0.30
  -6  -3  -1    1.50    0.30
   6   3   1    1.00    0.50
   6   3   1    1.80    0.40
   6   3   1    0.60    0.40
   6   3   1    1.30    0.40
   6   3   1    1.40    0.40
   6   3   1    1.30    0.30
   6   3   1    1.10    0.30
   6   3   1    1.40    0.30
   6   3   1    1.50    0.40
   6   3   1    1.20    0.40
  -6  -2  -1   36.60    2.00
  -6  -2  -1   37.80    1.80
  -6  -2  -1   41.10    2.00
  -6  -2  -1   39.90    1.80
  -6  -2  -1   35.30    1.80
  -6  -2  -1   36.20    1.80
   6   2   1   43.40    2.00
   6   2   1   36.00    1.80
   6   2   1   37.70    1.70
   6   2   1   36.50    1.90
   6   2   1   40.30    1.90
   6   2   1   40.30    1.70
   6   2   1   40.80    1.90
   6   2   1   40.00    2.10
   6   2   1   37.60    1.80
  -6  -1  -1    8.90    0.90
  -6  -1  -1   11.00    0.90
  -6  -1  -1   10.10    0.80
  -6  -1  -1    9.30    1.00
  -6  -1  -1   10.50    1.10
   6   1   1    9.40    1.10
   6   1   1    8.90    0.70
   6   1   1   10.40    1.10
   6   1   1    7.60    0.90
   6   1   1    9.90    0.80
   6   1   1   11.70    1.30
   6   1   1   10.20    0.90
   6   1   1    7.80    0.90
   6   1   1    8.80    1.10
  -6   0  -1   -0.30    0.20
  -6   0  -1    0.40    0.30
  -6   0  -1    0.00    0.30
  -6   0  -1    0.30    0.30
  -6   0  -1    0.00    0.30
  -6   0  -1   -0.20    0.30
   6   0   1    0.40    0.40
   6   0   1   -0.10    0.30
   6   0   1   -0.20    0.30
   6   0   1   -0.30    0.30
   6   0   1    0.40    0.30
   6   0   1    0.00    0.30
   6   0   1    0.20    0.50
   6   0   1   -0.10    0.30
  -6   1  -1    0.70    0.30
  -6   1  -1    1.10    0.40
  -6   1  -1    0.80    0.50
  -6   1  -1    1.30    0.50
  -6   1  -1    0.20    0.30
   6  -1   1    0.20    0.40
   6  -1   1    0.80    0.50
   6  -1   1    0.60    0.40
   6  -1   1    0.20    0.50
   6  -1   1    0.90    0.40
   6  -1   1    0.90    0.50
   6  -1   1    1.20    0.80
  -6   2  -1    0.00    0.40
  -6   2  -1    0.70    0.50
  -6   2  -1    0.70    0.40
   6  -2   1    0.00    0.40
   6  -2   1    0.80    0.50
   6  -2   1    1.40    0.60
   6  -2   1    0.80    0.70
   6  -2   1    1.20    0.60
  -6   3  -1   11.10    1.40
  -6   3  -1   10.70    1.20
   6  -3   1   11.10    1.40
   6  -3   1   10.10    2.00
   6  -3   1   11.00    1.30
   6  -3   1   12.70    2.10
   6  -3   1    9.60    1.10
  -6   4  -1    5.70    1.10
  -6   4  -1    5.40    1.00
   6  -4   1    3.30    1.30
   6  -4   1    5.60    0.90
   6  -4   1    7.20    1.20
  -7  -9  -1    0.40    0.40
  -7  -9  -1    0.50    0.70
  -7  -9  -1    1.30    0.80
   7   9   1    0.90    0.50
   7   9   1    1.80    0.60
   7   9   1    2.20    0.70
   7   9   1    0.90    0.50
  -7  -8  -1   -0.30    0.50
  -7  -8  -1    0.90    0.70
  -7  -8  -1    0.00    0.30
  -7  -8  -1   -0.20    0.40
   7   8   1   -0.40    0.30
   7   8   1   -0.50    0.40
   7   8   1    0.00    0.40
   7   8   1   -0.20    0.30
   7   8   1    0.20    0.40
  -7  -7  -1    9.00    1.40
  -7  -7  -1    6.20    1.00
  -7  -7  -1    8.60    1.40
  -7  -7  -1    7.10    0.80
   7   7   1    5.40    0.80
   7   7   1    5.90    1.00
   7   7   1    6.20    0.40
   7   7   1    8.00    1.10
   7   7   1    5.60    0.40
   7   7   1    6.80    0.90
   7   7   1    8.70    1.10
   7   7   1    5.10    1.20
  -7  -6  -1   13.80    1.60
  -7  -6  -1   16.30    1.80
  -7  -6  -1   11.60    1.30
  -7  -6  -1   10.60    0.90
   7   6   1   11.90    1.00
   7   6   1   12.10    0.70
   7   6   1   12.90    1.40
   7   6   1   10.90    0.60
   7   6   1    9.50    1.20
   7   6   1   10.30    0.70
   7   6   1   10.20    0.90
   7   6   1   12.50    1.30
  -7  -5  -1   94.09    3.80
  -7  -5  -1   98.19    4.10
  -7  -5  -1   98.79    4.30
  -7  -5  -1   97.19    4.10
   7   5   1   98.09    3.60
   7   5   1   99.09    4.10
   7   5   1   98.49    4.30
   7   5   1   98.39    3.70
   7   5   1  105.09    3.90
   7   5   1   98.99    3.80
   7   5   1   99.79    4.00
   7   5   1  101.79    4.30
  -7  -4  -1    1.70    0.50
  -7  -4  -1    2.70    0.60
  -7  -4  -1    1.20    0.50
  -7  -4  -1    2.20    0.50
   7   4   1    1.80    0.40
   7   4   1    1.30    0.50
   7   4   1    1.70    0.40
   7   4   1    1.40    0.40
   7   4   1    2.50    0.70
   7   4   1    2.10    0.60
   7   4   1    1.30    0.50
   7   4   1    2.10    0.50
  -7  -3  -1    4.60    1.00
  -7  -3  -1    3.10    0.50
  -7  -3  -1    4.30    0.70
  -7  -3  -1    5.30    0.80
  -7  -3  -1    5.00    0.80
   7   3   1    5.50    0.90
   7   3   1    4.80    0.80
   7   3   1    4.10    0.60
   7   3   1    5.70    0.80
   7   3   1    4.80    0.90
   7   3   1    4.50    0.80
   7   3   1    3.80    0.60
  -7  -2  -1    0.90    0.40
  -7  -2  -1    1.50    0.50
  -7  -2  -1    1.50    0.40
   7   2   1    1.50    0.60
   7   2   1    0.80    0.40
   7   2   1    1.50    0.50
   7   2   1    1.10    0.50
   7   2   1    0.80    0.40
   7   2   1    1.00    0.40
   7   2   1    0.50    0.40
  -7  -1  -1   15.40    1.10
  -7  -1  -1   15.90    1.20
  -7  -1  -1   13.90    1.10
   7   1   1   14.30    1.60
   7   1   1   13.70    1.20
   7   1   1   14.10    1.10
   7   1   1   13.80    1.30
   7   1   1   13.90    1.20
   7   1   1   14.30    1.20
   7   1   1   16.00    1.30
  -7   0  -1   22.00    1.50
  -7   0  -1   25.20    1.30
  -7   0  -1   21.20    1.60
  -7   0  -1   22.40    1.50
   7   0   1   23.80    1.70
   7   0   1   23.10    1.60
   7   0   1   24.30    1.70
   7   0   1   22.40    1.60
   7   0   1   20.20    1.90
  -7   1  -1    8.90    1.10
  -7   1  -1    8.80    0.80
  -7   1  -1    6.80    1.10
   7  -1   1    5.60    0.90
   7  -1   1    8.60    1.10
   7  -1   1    7.40    1.10
   7  -1   1    8.80    1.20
   7  -1   1   10.10    1.70
  -7   2  -1   -0.30    0.40
  -7   2  -1   -0.20    0.40
  -7   2  -1   -0.20    0.30
   7  -2   1    0.20    0.50
   7  -2   1   -0.90    0.30
   7  -2   1   -0.40    0.40
   7  -2   1    0.40    0.50
   7  -2   1    0.50    0.90
  -7   3  -1    2.20    1.00
  -7   3  -1    3.10    1.00
   7  -3   1    2.20    0.90
   7  -3   1    3.70    0.90
   7  -3   1    1.50    1.00
   7  -3   1    3.00    0.80
  -8  -9  -1    5.50    1.30
  -8  -9  -1    6.80    1.50
  -8  -9  -1    4.40    0.90
   8   9   1    5.10    1.00
   8   9   1    4.90    1.00
   8   9   1    4.00    1.00
  -8  -8  -1   11.80    1.80
  -8  -8  -1   10.50    1.60
  -8  -8  -1   10.30    1.30
  -8  -8  -1    9.60    1.10
   8   8   1    8.10    0.50
   8   8   1    9.20    1.30
   8   8   1    9.20    1.30
   8   8   1    8.80    0.50
   8   8   1    9.00    1.20
  -8  -7  -1   14.10    1.90
  -8  -7  -1   11.60    0.90
  -8  -7  -1   11.20    1.40
  -8  -7  -1   11.80    1.60
   8   7   1   11.70    1.50
   8   7   1   10.00    0.80
   8   7   1   12.70    1.10
   8   7   1   13.70    1.50
   8   7   1   10.00    0.70
  -8  -6  -1    2.30    0.80
  -8  -6  -1    2.90    0.80
  -8  -6  -1    1.90    0.50
   8   6   1    1.90    0.80
   8   6   1    1.80    0.40
   8   6   1    1.60    0.50
   8   6   1    2.40    0.40
  -8  -5  -1   14.50    1.10
  -8  -5  -1   15.50    1.70
   8   5   1   14.10    1.00
   8   5   1   13.10    0.90
   8   5   1   12.90    1.10
   8   5   1   17.10    1.50
  -8  -4  -1   31.60    2.00
  -8  -4  -1   32.90    1.80
   8   4   1   32.80    1.70
   8   4   1   40.20    2.00
   8   4   1   34.00    1.80
   8   4   1   34.20    2.20
  -8  -3  -1   29.90    1.70
  -8  -3  -1   32.00    2.00
   8   3   1   26.90    1.70
   8   3   1   29.40    1.70
   8   3   1   32.40    1.80
   8   3   1   29.60    2.00
  -8  -2  -1   10.10    1.10
  -8  -2  -1   10.90    1.80
  -8  -2  -1   10.50    1.30
   8   2   1   12.40    1.30
   8   2   1   13.30    1.40
   8   2   1   10.70    1.20
   8   2   1   12.80    1.50
  -8  -1  -1  101.49    4.30
  -8  -1  -1  100.19    4.20
  -8  -1  -1   96.19    4.30
   8   1   1   97.39    4.40
   8   1   1  101.69    4.20
   8   1   1  103.79    4.40
   8   1   1  107.59    5.90
   8   1   1   97.39    4.40
  -8   0  -1  128.39    5.40
  -8   0  -1  130.39    5.30
  -8   0  -1  126.89    5.20
   8   0   1  122.89    5.80
   8   0   1  128.39    5.40
   8   0   1  130.69    5.50
   8   0   1  130.09    5.50
   8   0   1  134.99    5.30
  -8   1  -1    8.50    1.30
  -8   1  -1   11.70    1.40
  -8   1  -1    8.80    1.20
   8  -1   1    9.10    1.30
   8  -1   1    8.20    1.70
   8  -1   1    5.80    1.10
   8  -1   1    9.70    1.30
   8  -1   1   10.00    1.40
  -8   2  -1   28.10    1.80
  -8   2  -1   25.80    2.10
   8  -2   1   25.60    2.10
   8  -2   1   27.20    2.00
   8  -2   1   32.40    2.80
   8  -2   1   26.70    2.00
  -9  -8  -1    1.50    0.70
   9   8   1    2.10    0.80
   9   8   1    4.10    1.10
   9   8   1    2.50    0.40
  -9  -7  -1    0.20    0.40
  -9  -7  -1   -0.20    0.50
   9   7   1   -0.10    0.50
   9   7   1   -0.20    0.50
   9   7   1    0.10    0.20
  -9  -6  -1   30.40    2.10
  -9  -6  -1   28.20    1.70
   9   6   1   31.70    2.30
   9   6   1   32.00    1.80
   9   6   1   32.60    1.70
   9   6   1   32.80    1.50
  -9  -5  -1    8.40    1.30
  -9  -5  -1    8.60    1.10
   9   5   1    6.70    1.00
   9   5   1    9.20    0.90
   9   5   1    6.50    1.20
  -9  -4  -1    0.20    0.30
  -9  -4  -1   -0.40    0.40
   9   4   1   -0.50    0.50
   9   4   1    0.00    0.40
   9   4   1    0.60    0.40
  -9  -3  -1   13.80    1.40
  -9  -3  -1   14.90    1.70
   9   3   1   14.20    1.40
   9   3   1   14.70    1.50
   9   3   1   15.90    1.30
   9   3   1   13.40    1.60
  -9  -2  -1   23.40    1.70
  -9  -2  -1   20.50    1.50
   9   2   1   22.90    1.70
   9   2   1   24.40    1.90
   9   2   1   18.00    1.50
   9   2   1   18.70    1.60
  -9  -1  -1   -0.10    0.40
  -9  -1  -1    0.00    0.50
   9   1   1   -0.20    0.50
   9   1   1    0.90    0.60
   9   1   1    0.30    0.50
   9   1   1   -0.30    0.50
  -9   0  -1   16.50    1.50
  -9   0  -1   18.20    1.90
   9   0   1   20.20    2.10
   9   0   1   18.20    1.70
   9   0   1   18.40    2.00
   9   0   1   17.90    1.60
 -10  -6  -1    0.10    0.40
 -10  -6  -1    0.50    0.60
  10   6   1    0.10    0.70
  10   6   1    0.60    0.40
  10   6   1    0.50    0.50
  10   6   1    1.30    0.80
 -10  -5  -1    6.50    1.00
 -10  -5  -1    6.30    1.20
  10   5   1    5.10    1.20
  10   5   1    7.20    0.90
  10   5   1    6.60    1.20
 -10  -4  -1    1.50    0.60
 -10  -4  -1    1.60    0.80
  10   4   1    0.30    0.60
  10   4   1    3.00    0.80
 -10  -3  -1    2.50    0.90
 -10  -3  -1    4.60    0.90
  10   3   1    2.70    0.90
  10   3   1    4.60    0.90
  10   3   1    3.80    0.90
   9   1  -2    0.00    0.50
   9   1  -2    0.70    0.50
   9   1  -2    0.30    0.50
   9   1  -2   -0.10    0.70
   9   1  -2   -0.20    0.40
  -9  -1   2    0.00    0.50
  -9  -1   2    0.20    0.50
   9   2  -2    5.10    1.10
   9   2  -2    2.40    0.70
   9   2  -2    2.00    0.80
   9   2  -2    3.30    0.80
  -9  -2   2    2.90    0.90
  -9  -2   2    3.80    0.80
  -9  -2   2    2.70    1.00
   9   3  -2    5.60    1.10
   9   3  -2    5.60    1.00
   9   3  -2    7.60    1.30
   9   3  -2    5.90    0.90
  -9  -3   2    5.70    0.90
  -9  -3   2    5.30    1.20
  -9  -3   2    6.90    1.20
   9   4  -2   84.19    4.00
   9   4  -2   76.79    3.90
   9   4  -2   77.29    3.40
   9   4  -2   75.79    3.50
  -9  -4   2   70.69    3.80
  -9  -4   2   78.99    3.40
  -9  -4   2   83.19    4.30
   9   5  -2    6.10    0.80
   9   5  -2    7.50    1.30
   9   5  -2    7.80    1.00
   9   5  -2    3.70    0.90
  -9  -5   2    7.10    0.90
  -9  -5   2    7.90    1.50
  -9  -5   2    5.90    1.10
   9   6  -2    1.10    0.40
   9   6  -2    2.10    0.80
   9   6  -2    1.20    0.40
   9   6  -2    0.40    0.60
  -9  -6   2   -0.20    0.60
  -9  -6   2    1.20    0.70
   8  -1  -2    9.20    1.40
   8  -1  -2    8.00    1.30
   8  -1  -2    9.00    1.20
   8  -1  -2   12.00    1.60
  -8   1   2   10.60    1.40
  -8   1   2    9.20    1.30
   8   0  -2    7.70    1.20
   8   0  -2    7.90    1.20
   8   0  -2    9.30    1.20
   8   0  -2    7.60    1.20
   8   0  -2    8.70    1.10
  -8   0   2    8.00    1.20
  -8   0   2    9.90    1.30
   8   1  -2    4.10    0.80
   8   1  -2    4.30    0.90
   8   1  -2    3.00    0.80
   8   1  -2    2.40    0.60
   8   1  -2    1.70    0.60
  -8  -1   2    4.00    0.80
  -8  -1   2    2.60    0.80
   8   2  -2   22.80    1.60
   8   2  -2   23.10    1.60
   8   2  -2   25.20    1.80
   8   2  -2   23.10    1.50
   8   2  -2   24.40    1.80
  -8  -2   2   23.10    1.50
  -8  -2   2   22.50    1.90
  -8  -2   2   22.60    1.70
   8   3  -2   17.70    1.40
   8   3  -2   16.90    1.50
   8   3  -2   19.40    1.30
   8   3  -2   20.90    1.30
   8   3  -2   21.10    1.60
  -8  -3   2   18.90    1.60
  -8  -3   2   18.50    1.30
  -8  -3   2   16.20    1.90
   8   4  -2    2.80    0.60
   8   4  -2    1.90    0.70
   8   4  -2    3.10    0.60
   8   4  -2    1.80    0.70
  -8  -4   2    2.40    0.90
  -8  -4   2    3.20    0.60
  -8  -4   2    3.50    0.90
   8   5  -2    0.50    0.30
   8   5  -2   -0.30    0.30
   8   5  -2    0.00    0.50
   8   5  -2    0.40    0.50
   8   5  -2    0.00    0.30
  -8  -5   2    0.20    0.30
  -8  -5   2    0.10    0.40
  -8  -5   2    0.30    0.60
   8   6  -2    7.20    1.10
   8   6  -2    7.20    1.20
   8   6  -2    5.20    0.60
   8   6  -2    6.50    0.70
  -8  -6   2    5.50    1.30
  -8  -6   2    5.40    1.10
   8   7  -2    0.50    0.60
   8   7  -2    0.70    0.30
   8   7  -2   -0.20    0.50
  -8  -7   2    0.40    0.50
  -8  -7   2    1.10    0.80
   8   8  -2    9.00    0.70
   8   8  -2    7.90    1.20
   8   8  -2   10.30    1.40
  -8  -8   2    9.70    1.90
  -8  -8   2    7.70    1.30
   7  -3  -2   73.69    4.60
   7  -3  -2   77.09    3.70
  -7   3   2   79.29    3.60
  -7   3   2   77.79    4.00
  -7   3   2   79.09    3.80
   7  -2  -2    3.20    0.80
   7  -2  -2    6.10    1.00
   7  -2  -2    5.10    1.30
   7  -2  -2    7.70    1.00
  -7   2   2    4.90    1.00
  -7   2   2    6.20    1.00
  -7   2   2    5.00    0.90
   7  -1  -2   46.00    2.60
   7  -1  -2   40.10    2.40
   7  -1  -2   43.40    2.30
   7  -1  -2   44.70    2.40
   7  -1  -2   41.80    2.80
   7  -1  -2   44.20    2.40
  -7   1   2   45.70    2.50
  -7   1   2   47.70    2.30
  -7   1   2   44.30    2.40
   7   0  -2   58.89    2.90
   7   0  -2   59.79    3.10
   7   0  -2   61.79    2.90
   7   0  -2   58.79    3.00
   7   0  -2   52.49    2.80
   7   0  -2   62.49    2.80
  -7   0   2   56.59    2.90
  -7   0   2   61.69    2.90
   7   1  -2  257.77    9.10
   7   1  -2  241.98    9.20
   7   1  -2  252.77    9.20
   7   1  -2  246.88    9.20
   7   1  -2  274.07    9.40
   7   1  -2  256.57    8.90
   7   1  -2  252.67    9.30
  -7  -1   2  256.57    9.30
  -7  -1   2  249.48    9.00
   7   2  -2    0.30    0.40
   7   2  -2    0.20    0.40
   7   2  -2    1.20    0.50
   7   2  -2    0.70    0.40
   7   2  -2    0.90    0.40
   7   2  -2    0.40    0.50
   7   2  -2    0.90    0.40
  -7  -2   2    0.50    0.30
  -7  -2   2    1.00    0.50
  -7  -2   2    0.80    0.60
  -7  -2   2    0.60    0.30
   7   3  -2    0.30    0.30
   7   3  -2    0.50    0.30
   7   3  -2    0.30    0.40
   7   3  -2    0.00    0.40
   7   3  -2   -0.10    0.30
   7   3  -2    0.20    0.40
   7   3  -2   -0.20    0.30
  -7  -3   2    0.20    0.40
  -7  -3   2   -0.20    0.40
  -7  -3   2    0.00    0.20
  -7  -3   2    0.00    0.30
   7   4  -2    0.30    0.50
   7   4  -2    0.30    0.40
   7   4  -2   -0.10    0.30
   7   4  -2    0.40    0.30
   7   4  -2    0.70    0.30
   7   4  -2    0.50    0.30
  -7  -4   2    0.10    0.30
  -7  -4   2   -0.30    0.20
  -7  -4   2   -0.10    0.40
  -7  -4   2    0.60    0.40
   7   5  -2   20.10    1.10
   7   5  -2   20.90    1.60
   7   5  -2   20.30    1.30
   7   5  -2   21.00    1.10
   7   5  -2   21.20    1.60
   7   5  -2   18.40    1.10
  -7  -5   2   20.40    1.10
  -7  -5   2   20.30    1.30
  -7  -5   2   19.30    1.80
  -7  -5   2   20.40    1.50
   7   6  -2    6.10    0.80
   7   6  -2    5.20    0.60
   7   6  -2    4.80    0.90
   7   6  -2    6.40    0.50
   7   6  -2    5.90    1.00
  -7  -6   2    4.20    1.10
  -7  -6   2    5.80    1.00
   7   7  -2    3.20    0.80
   7   7  -2    3.70    0.90
   7   7  -2    2.30    0.40
  -7  -7   2    2.20    0.70
  -7  -7   2    1.60    0.90
   7   8  -2    2.40    0.40
   7   8  -2    1.30    0.70
  -7  -8   2    4.40    1.10
  -7  -8   2    3.60    0.80
  -7  -8   2    3.90    1.30
   6  -4  -2   61.89    4.10
   6  -4  -2   63.29    3.10
  -6   4   2   63.19    3.40
   6  -3  -2    1.30    0.60
   6  -3  -2    1.10    0.80
  -6   3   2    0.70    0.60
  -6   3   2    0.80    0.50
  -6   3   2    0.40    0.60
   6  -2  -2    3.70    0.70
   6  -2  -2    3.50    0.80
   6  -2  -2    2.00    0.60
   6  -2  -2    3.10    0.60
   6  -2  -2    4.00    1.10
   6  -2  -2    2.80    0.70
  -6   2   2    3.60    0.70
  -6   2   2    3.90    0.90
  -6   2   2    5.40    0.90
   6  -1  -2   15.10    1.30
   6  -1  -2   14.80    1.80
   6  -1  -2   13.50    1.10
   6  -1  -2   16.20    1.60
   6  -1  -2   15.60    1.20
   6  -1  -2   14.00    1.20
  -6   1   2   14.30    1.20
  -6   1   2   14.10    1.40
  -6   1   2   15.30    1.10
   6   0  -2    0.70    0.40
   6   0  -2    1.50    0.60
   6   0  -2    0.90    0.40
   6   0  -2    1.00    0.50
   6   0  -2    0.00    0.40
   6   0  -2    0.80    0.50
  -6   0   2    0.30    0.40
  -6   0   2    1.30    0.50
  -6   0   2    1.40    0.40
  -6   0   2    0.60    0.40
   6   1  -2   24.40    1.50
   6   1  -2   22.90    1.40
   6   1  -2   22.80    1.50
   6   1  -2   22.60    1.30
   6   1  -2   25.10    1.40
   6   1  -2   24.90    1.40
   6   1  -2   21.70    1.50
   6   1  -2   24.20    1.40
   6   1  -2   21.70    1.50
  -6  -1   2   22.30    1.40
  -6  -1   2   22.90    1.40
  -6  -1   2   23.00    1.50
  -6  -1   2   22.70    1.40
   6   2  -2   66.29    2.80
   6   2  -2   70.99    3.00
   6   2  -2   69.49    3.20
   6   2  -2   70.49    3.10
   6   2  -2   66.39    2.90
   6   2  -2   72.19    3.20
   6   2  -2   66.79    2.90
   6   2  -2   78.09    3.20
   6   2  -2   71.39    3.00
  -6  -2   2   72.49    2.90
  -6  -2   2   72.29    3.40
  -6  -2   2   72.89    3.00
  -6  -2   2   70.09    3.10
  -6  -2   2   67.19    2.80
  -6  -2   2   72.49    2.90
   6   3  -2  166.38    6.30
   6   3  -2  165.48    5.90
   6   3  -2  165.68    5.80
   6   3  -2  159.38    6.20
   6   3  -2  166.48    6.00
   6   3  -2  161.28    5.90
   6   3  -2  163.18    6.00
   6   3  -2  170.98    5.70
   6   3  -2  162.98    6.20
  -6  -3   2  158.98    5.70
  -6  -3   2  169.48    5.70
  -6  -3   2  165.38    5.80
  -6  -3   2  162.68    6.20
  -6  -3   2  164.08    6.00
  -6  -3   2  156.28    6.40
   6   4  -2   55.79    2.40
   6   4  -2   55.09    2.20
   6   4  -2   55.49    2.30
   6   4  -2   59.69    2.20
   6   4  -2   56.49    2.70
   6   4  -2   55.59    2.70
   6   4  -2   49.99    2.50
   6   4  -2   51.89    2.60
   6   4  -2   54.09    2.40
  -6  -4   2   57.99    2.50
  -6  -4   2   54.79    3.00
  -6  -4   2   52.69    2.20
  -6  -4   2   53.89    2.60
   6   5  -2  195.88    7.30
   6   5  -2  167.78    7.40
   6   5  -2  204.38    6.70
   6   5  -2  201.48    6.80
   6   5  -2  198.58    6.80
   6   5  -2  200.98    7.20
   6   5  -2  202.78    7.20
   6   5  -2  189.38    6.70
   6   5  -2  194.88    6.60
  -6  -5   2  181.18    7.70
  -6  -5   2  188.88    7.20
  -6  -5   2  200.28    6.70
   6   6  -2   15.30    1.60
   6   6  -2   18.70    1.00
   6   6  -2   19.90    1.20
   6   6  -2   20.40    1.10
   6   6  -2   20.30    1.40
   6   6  -2   19.10    0.90
   6   6  -2   19.20    1.40
   6   6  -2   20.00    1.40
   6   6  -2   18.50    1.10
  -6  -6   2   18.70    1.40
  -6  -6   2   19.00    1.50
  -6  -6   2   21.30    2.30
   6   7  -2    0.10    0.20
   6   7  -2   -0.20    0.40
   6   7  -2    0.10    0.20
   6   7  -2    0.30    0.50
   6   7  -2    0.20    0.20
  -6  -7   2   -0.30    0.50
  -6  -7   2    0.30    0.40
  -6  -7   2    0.10    0.50
   6   8  -2    0.70    0.30
   6   8  -2    1.30    0.60
  -6  -8   2    1.60    1.00
  -6  -8   2    1.00    0.80
  -6  -8   2    0.50    0.50
   6   9  -2    0.80    0.60
   6   9  -2    1.70    0.40
  -6  -9   2    1.60    0.90
  -6  -9   2    1.40    0.90
   5  -5  -2   33.00    3.00
   5  -5  -2   29.80    1.90
  -5   5   2   30.10    2.20
  -5   5   2   32.10    2.20
   5  -4  -2    5.40    0.90
   5  -4  -2    6.60    1.40
   5  -4  -2    6.30    1.10
  -5   4   2    5.30    1.00
  -5   4   2    4.20    1.00
  -5   4   2    7.00    1.10
   5  -3  -2    4.00    0.60
   5  -3  -2    3.50    0.80
   5  -3  -2    3.80    0.80
   5  -3  -2    2.50    0.50
   5  -3  -2    2.90    0.90
   5  -3  -2    3.10    0.70
  -5   3   2    2.70    0.70
  -5   3   2    2.50    0.70
  -5   3   2    3.40    0.60
  -5   3   2    2.90    0.70
  -5   3   2    3.70    0.80
   5  -2  -2    1.90    0.80
   5  -2  -2    2.00    0.50
   5  -2  -2    1.90    0.60
   5  -2  -2    2.30    0.60
   5  -2  -2    2.00    0.50
   5  -2  -2    1.50    0.50
  -5   2   2    2.50    0.60
  -5   2   2    1.40    0.50
  -5   2   2    2.40    0.60
  -5   2   2    2.00    0.60
  -5   2   2    0.80    0.50
   5  -1  -2    0.70    0.40
   5  -1  -2   -0.20    0.40
   5  -1  -2    0.60    0.40
   5  -1  -2   -0.30    0.30
   5  -1  -2    1.40    0.50
   5  -1  -2    0.40    0.50
   5  -1  -2    0.80    0.30
   5  -1  -2    0.30    0.30
  -5   1   2    0.10    0.30
  -5   1   2    0.90    0.50
  -5   1   2    0.90    0.40
  -5   1   2    1.40    0.50
  -5   1   2    0.60    0.30
  -5   1   2    0.90    0.40
   5   0  -2   19.10    1.20
   5   0  -2   19.30    1.40
   5   0  -2   20.70    1.30
   5   0  -2   19.40    1.40
   5   0  -2   20.50    1.30
   5   0  -2   20.50    1.30
   5   0  -2   21.50    1.40
   5   0  -2   20.30    1.20
  -5   0   2   21.90    1.20
  -5   0   2   20.70    1.30
  -5   0   2   20.00    1.20
  -5   0   2   24.40    1.40
  -5   0   2   20.50    1.30
   5   1  -2  180.38    6.60
   5   1  -2  180.78    6.60
   5   1  -2  183.28    6.70
   5   1  -2  186.08    6.40
   5   1  -2  188.88    6.80
   5   1  -2  193.78    6.60
   5   1  -2  189.08    6.60
   5   1  -2  188.98    6.70
   5   1  -2  179.28    6.70
   5   1  -2  178.78    6.70
  -5  -1   2  187.58    6.70
  -5  -1   2  194.98    6.60
  -5  -1   2  190.48    6.60
  -5  -1   2  188.08    6.60
   5   2  -2   77.29    3.10
   5   2  -2   79.99    3.20
   5   2  -2   73.89    3.30
   5   2  -2   73.29    3.30
   5   2  -2   82.29    3.10
   5   2  -2   75.99    3.30
   5   2  -2   81.79    3.00
   5   2  -2   81.99    3.20
   5   2  -2   80.79    3.10
  -5  -2   2   79.69    3.00
  -5  -2   2   82.59    3.20
  -5  -2   2   83.89    3.00
  -5  -2   2   81.79    3.00
  -5  -2   2   80.29    3.30
  -5  -2   2   79.09    3.00
  -5  -2   2   78.89    3.50
   5   3  -2   20.00    1.30
   5   3  -2   19.40    1.10
   5   3  -2   21.90    1.10
   5   3  -2   19.40    1.10
   5   3  -2   17.90    1.20
   5   3  -2   19.40    1.00
   5   3  -2   18.60    1.00
   5   3  -2   19.00    1.30
   5   3  -2   18.40    1.10
  -5  -3   2   20.10    0.90
  -5  -3   2   18.20    1.10
  -5  -3   2   19.20    1.00
  -5  -3   2   17.60    1.20
  -5  -3   2   21.40    1.00
  -5  -3   2   20.50    1.50
   5   4  -2    1.80    0.40
   5   4  -2    1.30    0.30
   5   4  -2    1.30    0.30
   5   4  -2    2.10    0.50
   5   4  -2    0.80    0.40
   5   4  -2    1.10    0.40
   5   4  -2    1.70    0.30
   5   4  -2    1.50    0.30
   5   4  -2    1.80    0.30
  -5  -4   2    1.90    0.30
  -5  -4   2    1.40    0.40
  -5  -4   2    1.20    0.60
  -5  -4   2    1.90    0.30
  -5  -4   2    2.20    0.60
   5   5  -2    0.00    0.20
   5   5  -2    0.10    0.20
   5   5  -2   -0.10    0.20
   5   5  -2   -0.10    0.30
   5   5  -2    0.30    0.20
   5   5  -2    0.20    0.20
   5   5  -2    0.30    0.40
   5   5  -2   -0.30    0.30
   5   5  -2    0.10    0.20
  -5  -5   2    0.10    0.30
  -5  -5   2    0.10    0.20
  -5  -5   2    0.20    0.10
  -5  -5   2    0.80    0.60
  -5  -5   2    0.50    0.40
   5   6  -2   45.40    1.90
   5   6  -2   42.80    2.30
   5   6  -2   42.90    2.20
   5   6  -2   46.50    2.20
   5   6  -2   43.10    1.70
   5   6  -2   45.90    2.20
   5   6  -2   45.60    1.80
   5   6  -2   45.50    1.90
   5   6  -2   43.60    1.80
  -5  -6   2   43.20    2.20
  -5  -6   2   47.30    2.40
  -5  -6   2   39.20    2.80
   5   7  -2   31.00    1.30
   5   7  -2   28.50    1.40
   5   7  -2   30.10    1.60
   5   7  -2   29.20    1.70
   5   7  -2   31.80    1.70
   5   7  -2   29.40    1.40
   5   7  -2   26.90    1.70
  -5  -7   2   30.70    2.50
  -5  -7   2   30.90    2.00
  -5  -7   2   28.90    1.70
   5   8  -2   33.00    1.90
   5   8  -2   31.70    1.80
   5   8  -2   30.80    1.40
   5   8  -2   31.50    1.50
  -5  -8   2   35.10    1.80
  -5  -8   2   29.90    2.70
  -5  -8   2   31.20    2.20
   5   9  -2    4.00    0.60
   5   9  -2    3.90    0.70
  -5  -9   2    6.80    1.30
  -5  -9   2    3.80    1.40
   4  -6  -2    0.10    0.90
   4  -6  -2    0.30    0.40
  -4   6   2    0.70    0.70
  -4   6   2   -1.00    0.70
  -4   6   2    0.40    0.50
   4  -5  -2    0.10    0.80
   4  -5  -2    0.50    0.40
   4  -5  -2   -0.70    0.30
  -4   5   2   -0.70    0.60
  -4   5   2   -0.30    0.50
  -4   5   2    0.60    0.50
  -4   5   2   -0.40    0.50
   4  -4  -2    6.90    0.60
   4  -4  -2    9.70    1.20
   4  -4  -2    6.50    0.60
   4  -4  -2    7.10    1.50
   4  -4  -2    6.40    1.00
   4  -4  -2    6.60    0.80
  -4   4   2    7.70    1.20
  -4   4   2    8.40    1.10
  -4   4   2    7.10    1.40
  -4   4   2    7.60    1.10
  -4   4   2    8.00    1.40
   4  -3  -2   38.60    2.10
   4  -3  -2   39.70    2.10
   4  -3  -2   39.40    2.00
   4  -3  -2   40.30    2.10
   4  -3  -2   39.90    1.80
   4  -3  -2   40.40    2.70
  -4   3   2   38.40    2.20
  -4   3   2   34.70    2.30
  -4   3   2   41.60    2.10
  -4   3   2   43.60    2.10
  -4   3   2   39.40    2.00
  -4   3   2   42.20    1.90
  -4   3   2   42.30    2.30
   4  -2  -2   46.20    2.00
   4  -2  -2   47.20    2.70
   4  -2  -2   41.30    2.10
   4  -2  -2   42.60    2.10
   4  -2  -2   45.40    2.20
   4  -2  -2   47.50    2.40
   4  -2  -2   40.50    2.20
  -4   2   2   48.00    2.30
  -4   2   2   48.00    2.40
  -4   2   2   43.60    2.30
  -4   2   2   47.40    2.20
  -4   2   2   49.10    2.20
  -4   2   2   48.40    2.10
   4  -1  -2    0.70    0.40
   4  -1  -2    1.10    0.30
   4  -1  -2    1.60    0.40
   4  -1  -2    1.00    0.40
   4  -1  -2    1.80    0.40
   4  -1  -2    0.60    0.30
   4  -1  -2    0.10    0.40
   4  -1  -2    0.70    0.40
  -4   1   2    1.00    0.30
  -4   1   2    0.70    0.30
  -4   1   2    0.70    0.40
  -4   1   2    0.70    0.40
  -4   1   2    0.80    0.30
  -4   1   2    1.10    0.40
   4   0  -2   33.20    1.60
   4   0  -2   29.10    1.60
   4   0  -2   30.00    1.60
   4   0  -2   30.70    1.40
   4   0  -2   29.40    1.50
   4   0  -2   30.60    1.50
   4   0  -2   30.00    1.50
   4   0  -2   30.20    1.50
   4   0  -2   29.60    1.70
  -4   0   2   30.70    1.60
  -4   0   2   32.90    1.50
  -4   0   2   32.40    1.50
  -4   0   2   31.90    1.40
  -4   0   2   28.40    1.50
  -4   0   2   31.00    1.50
   4   1  -2   18.80    1.10
   4   1  -2   19.50    1.00
   4   1  -2   20.60    1.20
   4   1  -2   22.60    1.20
   4   1  -2   21.50    1.10
   4   1  -2   19.80    1.10
   4   1  -2   20.90    1.10
   4   1  -2   19.00    1.10
   4   1  -2   21.80    1.20
   4   1  -2   18.30    1.10
  -4  -1   2   22.10    1.10
  -4  -1   2   20.00    1.20
  -4  -1   2   20.60    1.10
  -4  -1   2   20.70    1.00
  -4  -1   2   18.90    1.10
   4   2  -2    9.30    0.50
   4   2  -2    8.80    0.80
   4   2  -2    9.50    0.70
   4   2  -2    8.90    0.80
   4   2  -2    8.60    0.70
   4   2  -2    8.50    0.60
   4   2  -2    9.80    0.60
   4   2  -2    9.50    0.60
   4   2  -2    9.30    0.80
   4   2  -2    8.60    0.60
  -4  -2   2    8.60    0.60
  -4  -2   2    9.50    0.60
  -4  -2   2    9.80    0.60
  -4  -2   2    9.20    0.70
  -4  -2   2    9.40    1.10
  -4  -2   2    8.30    0.70
  -4  -2   2    8.60    0.60
   4   3  -2   -0.10    0.20
   4   3  -2    0.10    0.30
   4   3  -2    0.00    0.20
   4   3  -2    0.40    0.20
   4   3  -2    0.30    0.30
   4   3  -2    0.10    0.20
   4   3  -2    0.20    0.20
   4   3  -2    0.10    0.20
   4   3  -2   -0.20    0.10
  -4  -3   2   -0.20    0.20
  -4  -3   2    0.00    0.10
  -4  -3   2   -0.10    0.10
  -4  -3   2   -0.30    0.30
  -4  -3   2    0.10    0.20
  -4  -3   2    0.20    0.20
   4   4  -2   18.10    0.90
   4   4  -2   17.20    0.90
   4   4  -2   17.30    0.90
   4   4  -2   18.50    0.90
   4   4  -2   17.60    1.10
   4   4  -2   20.20    1.20
   4   4  -2   16.10    1.10
   4   4  -2   17.00    0.80
   4   4  -2   16.50    0.90
  -4  -4   2   17.10    1.10
  -4  -4   2   17.50    1.20
  -4  -4   2   18.00    1.20
  -4  -4   2   18.10    1.50
  -4  -4   2   18.10    0.80
  -4  -4   2   18.10    0.80
   4   5  -2    0.10    0.30
   4   5  -2    0.10    0.10
   4   5  -2   -0.10    0.30
   4   5  -2    0.30    0.30
   4   5  -2    0.00    0.20
   4   5  -2    0.00    0.10
   4   5  -2    0.30    0.30
   4   5  -2    0.50    0.20
   4   5  -2   -0.10    0.10
  -4  -5   2    0.00    0.20
  -4  -5   2    0.00    0.10
  -4  -5   2    0.10    0.10
  -4  -5   2    0.10    0.30
  -4  -5   2    0.20    0.20
  -4  -5   2    0.50    0.40
  -4  -5   2    0.20    0.40
   4   6  -2   32.70    1.50
   4   6  -2   32.30    1.40
   4   6  -2   33.30    1.50
   4   6  -2   32.00    1.40
   4   6  -2   35.00    1.50
   4   6  -2   34.20    1.80
   4   6  -2   33.80    1.80
   4   6  -2   34.70    2.00
   4   6  -2   35.30    1.70
  -4  -6   2   34.70    1.90
  -4  -6   2   33.70    2.00
  -4  -6   2   36.50    1.80
  -4  -6   2   34.10    2.50
  -4  -6   2   34.20    1.70
   4   7  -2   42.40    1.90
   4   7  -2   40.10    1.90
   4   7  -2   48.50    2.70
   4   7  -2   46.00    2.10
   4   7  -2   45.50    2.00
   4   7  -2   42.90    1.90
   4   7  -2   41.70    1.80
   4   7  -2   44.50    2.10
  -4  -7   2   43.50    2.10
  -4  -7   2   46.80    2.50
  -4  -7   2   44.40    3.10
  -4  -7   2   44.70    2.40
   4   8  -2   28.20    1.60
   4   8  -2   27.40    1.50
   4   8  -2   25.50    1.30
   4   8  -2   23.20    1.50
  -4  -8   2   26.30    2.00
  -4  -8   2   26.70    2.50
   4   9  -2   12.40    1.00
   4   9  -2   11.50    1.70
   4   9  -2   12.50    0.90
  -4  -9   2   11.40    2.10
  -4  -9   2   15.10    1.90
   3  -7  -2   15.00    2.50
  -3   7   2   12.20    1.60
  -3   7   2   15.00    1.90
  -3   7   2   12.70    1.50
   3  -6  -2   11.90    2.10
   3  -6  -2   10.90    1.00
  -3   6   2   11.50    1.50
  -3   6   2   11.00    2.00
  -3   6   2   11.70    1.60
  -3   6   2   11.40    1.40
   3  -5  -2    3.20    1.10
   3  -5  -2    2.20    0.60
   3  -5  -2    2.40    0.50
  -3   5   2    2.70    1.00
  -3   5   2    2.30    0.80
  -3   5   2    2.80    0.70
  -3   5   2    2.80    0.90
  -3   5   2    2.40    0.90
   3  -4  -2   64.59    2.80
   3  -4  -2   59.49    3.40
   3  -4  -2   58.19    2.10
   3  -4  -2   60.99    2.70
   3  -4  -2   56.99    2.10
   3  -4  -2   58.29    2.10
   3  -4  -2   57.39    2.70
   3  -4  -2   53.19    2.50
  -3   4   2   59.99    2.30
  -3   4   2   54.49    2.70
  -3   4   2   56.49    2.90
  -3   4   2   64.59    2.70
  -3   4   2   54.59    3.30
  -3   4   2   62.79    2.90
  -3   4   2   57.09    2.60
  -3   4   2   59.29    2.80
   3  -3  -2  122.09    4.70
   3  -3  -2  133.29    4.50
   3  -3  -2  124.69    5.50
   3  -3  -2  128.09    4.90
   3  -3  -2  128.89    4.40
   3  -3  -2  127.29    4.90
   3  -3  -2  128.69    4.90
  -3   3   2  131.19    4.80
  -3   3   2  122.19    5.40
  -3   3   2  127.99    5.00
  -3   3   2  131.99    4.60
  -3   3   2  132.39    4.80
  -3   3   2  131.69    5.10
  -3   3   2  125.49    4.90
  -3   3   2  126.69    4.90
   3  -2  -2    7.80    0.90
   3  -2  -2    6.80    0.70
   3  -2  -2    7.90    0.60
   3  -2  -2    9.90    1.00
   3  -2  -2    8.00    1.10
   3  -2  -2    7.80    0.70
   3  -2  -2    7.90    0.80
   3  -2  -2    9.00    0.90
  -3   2   2    6.50    0.90
  -3   2   2    8.40    0.90
  -3   2   2    8.50    0.70
  -3   2   2   11.20    1.10
  -3   2   2    8.70    0.70
  -3   2   2    8.20    0.90
  -3   2   2    7.30    0.80
  -3   2   2    9.70    0.70
   3  -1  -2   79.59    3.10
   3  -1  -2   79.09    3.00
   3  -1  -2   72.49    3.00
   3  -1  -2   75.59    2.90
   3  -1  -2   74.19    3.10
   3  -1  -2   74.59    2.90
   3  -1  -2   75.69    2.90
   3  -1  -2   74.29    3.00
   3  -1  -2   74.69    2.90
   3  -1  -2   75.39    3.30
   3  -1  -2   73.89    2.80
  -3   1   2   82.89    2.90
  -3   1   2   75.99    3.00
  -3   1   2   67.99    2.90
  -3   1   2   75.79    2.90
  -3   1   2   75.79    2.90
  -3   1   2   80.69    3.00
  -3   1   2   74.09    2.90
  -3   1   2   74.59    3.10
   3   0  -2    3.10    0.50
   3   0  -2    2.90    0.40
   3   0  -2    2.70    0.50
   3   0  -2    2.40    0.40
   3   0  -2    2.20    0.40
   3   0  -2    2.80    0.40
   3   0  -2    2.50    0.40
   3   0  -2    2.50    0.40
   3   0  -2    1.80    0.30
   3   0  -2    3.00    0.50
   3   0  -2    2.00    0.40
  -3   0   2    3.20    0.40
  -3   0   2    3.20    0.50
  -3   0   2    3.20    0.40
  -3   0   2    2.50    0.40
  -3   0   2    2.70    0.30
  -3   0   2    2.40    0.40
  -3   0   2    1.90    0.40
  -3   0   2    2.70    0.40
  -3   0   2    3.30    0.50
  -3   0   2    3.10    0.50
   3   1  -2   51.49    2.20
   3   1  -2   49.00    2.00
   3   1  -2   52.19    2.20
   3   1  -2   50.99    2.10
   3   1  -2   51.19    2.00
   3   1  -2   53.69    2.10
   3   1  -2   55.29    1.90
   3   1  -2   53.79    1.90
   3   1  -2   56.69    2.10
   3   1  -2   52.49    2.10
   3   1  -2   52.19    2.20
  -3  -1   2   54.09    1.90
  -3  -1   2   53.29    2.10
  -3  -1   2   54.19    2.20
  -3  -1   2   51.79    2.20
  -3  -1   2   55.09    2.00
  -3  -1   2   51.39    2.20
  -3  -1   2   53.29    2.10
  -3  -1   2   55.19    2.10
  -3  -1   2   52.49    2.00
   3   2  -2    2.70    0.30
   3   2  -2    3.80    0.40
   3   2  -2    3.00    0.40
   3   2  -2    2.60    0.40
   3   2  -2    2.60    0.30
   3   2  -2    3.40    0.50
   3   2  -2    3.00    0.30
   3   2  -2    2.60    0.40
   3   2  -2    2.80    0.40
  -3  -2   2    3.20    0.40
  -3  -2   2    4.20    0.60
  -3  -2   2    3.50    0.60
  -3  -2   2    2.80    0.40
  -3  -2   2    3.00    0.50
  -3  -2   2    3.50    0.40
  -3  -2   2    3.10    0.30
  -3  -2   2    2.60    0.30
  -3  -2   2    3.60    0.50
   3   3  -2   44.00    2.00
   3   3  -2   47.00    2.00
   3   3  -2   48.10    1.70
   3   3  -2   46.50    1.80
   3   3  -2   44.50    1.70
   3   3  -2   46.10    1.70
   3   3  -2   45.60    1.70
   3   3  -2   46.90    1.70
   3   3  -2   46.70    1.90
  -3  -3   2   46.70    1.60
  -3  -3   2   45.20    2.30
  -3  -3   2   45.00    1.80
  -3  -3   2   43.30    1.70
  -3  -3   2   48.40    2.00
  -3  -3   2   46.80    2.10
  -3  -3   2   45.90    2.00
  -3  -3   2   47.00    2.00
   3   4  -2  245.88    8.50
   3   4  -2  249.78    8.70
   3   4  -2  249.08    8.40
   3   4  -2  252.27    8.50
   3   4  -2  254.07    8.30
   3   4  -2  248.08    8.20
   3   4  -2  255.07    8.30
   3   4  -2  245.08    8.20
   3   4  -2  245.48    8.20
  -3  -4   2  242.88    8.50
  -3  -4   2  247.68    8.60
  -3  -4   2  251.27    8.20
  -3  -4   2  238.28    9.20
  -3  -4   2  262.07    8.70
  -3  -4   2  253.07    8.20
  -3  -4   2  252.67    8.50
   3   5  -2   37.60    1.80
   3   5  -2   39.70    1.70
   3   5  -2   39.60    2.00
   3   5  -2   40.10    1.60
   3   5  -2   40.00    1.60
   3   5  -2   39.70    1.60
   3   5  -2   39.40    1.60
   3   5  -2   39.60    1.60
   3   5  -2   38.70    1.80
  -3  -5   2   38.70    1.50
  -3  -5   2   41.90    2.00
  -3  -5   2   40.20    2.50
  -3  -5   2   40.50    1.80
  -3  -5   2   39.90    1.40
  -3  -5   2   40.80    2.10
  -3  -5   2   38.10    2.00
   3   6  -2   37.30    1.70
   3   6  -2   38.30    1.70
   3   6  -2   38.10    1.80
   3   6  -2   35.20    1.70
   3   6  -2   39.90    2.10
   3   6  -2   38.90    1.60
   3   6  -2   37.70    1.60
   3   6  -2   39.00    1.60
   3   6  -2   38.20    1.60
  -3  -6   2   37.90    2.60
  -3  -6   2   37.60    1.80
  -3  -6   2   35.60    2.10
  -3  -6   2   39.60    2.20
  -3  -6   2   38.00    1.40
  -3  -6   2   38.00    1.90
   3   7  -2    1.10    0.30
   3   7  -2    0.50    0.30
   3   7  -2    0.30    0.30
   3   7  -2    0.40    0.30
   3   7  -2    0.70    0.30
   3   7  -2    0.20    0.40
   3   7  -2    0.10    0.30
  -3  -7   2    1.70    0.90
  -3  -7   2    0.20    0.40
  -3  -7   2    0.80    0.40
  -3  -7   2    0.60    0.30
  -3  -7   2    0.00    0.50
   3   8  -2   63.79    2.90
   3   8  -2   47.80    3.00
   3   8  -2   48.40    2.50
   3   8  -2   56.99    2.40
   3   8  -2   54.09    2.40
  -3  -8   2   58.69    3.30
  -3  -8   2   58.29    3.20
  -3  -8   2   52.49    3.60
   3   9  -2    4.30    0.70
   3   9  -2    4.60    1.20
   3   9  -2    4.60    0.80
  -3  -9   2    4.80    1.30
  -3  -9   2    2.60    1.10
  -3  -9   2    5.10    1.30
   2  -8  -2    1.40    1.20
   2  -8  -2    0.00    1.00
  -2   8   2    0.70    0.90
  -2   8   2    0.00    0.50
  -2   8   2    1.10    0.70
   2  -7  -2   41.20    3.30
  -2   7   2   44.90    2.70
  -2   7   2   45.20    2.50
  -2   7   2   39.80    2.70
   2  -6  -2   99.29    5.30
  -2   6   2  107.99    4.60
  -2   6   2  111.69    4.70
  -2   6   2  104.09    4.40
  -2   6   2  101.29    5.60
   2  -5  -2    2.00    0.50
   2  -5  -2    1.60    0.50
   2  -5  -2    1.10    0.50
   2  -5  -2    0.50    0.70
   2  -5  -2    1.90    0.50
  -2   5   2    1.70    0.50
  -2   5   2    1.20    0.50
  -2   5   2    2.00    0.70
  -2   5   2    2.20    0.70
  -2   5   2    1.80    0.70
  -2   5   2    1.40    0.50
   2  -4  -2    7.00    0.90
   2  -4  -2    7.40    0.40
   2  -4  -2    8.50    0.90
   2  -4  -2    8.80    0.90
   2  -4  -2    6.00    1.20
   2  -4  -2    7.70    0.70
   2  -4  -2    7.20    0.30
   2  -4  -2    7.20    0.30
   2  -4  -2    7.40    0.30
  -2   4   2    7.50    0.90
  -2   4   2    9.40    1.00
  -2   4   2    7.70    1.30
  -2   4   2    7.00    0.90
  -2   4   2    7.60    1.00
  -2   4   2    6.10    0.70
  -2   4   2    8.30    1.00
   2  -3  -2   19.90    1.10
   2  -3  -2   19.00    1.00
   2  -3  -2   18.10    1.50
   2  -3  -2   18.10    1.10
   2  -3  -2   18.40    0.80
   2  -3  -2   19.10    1.10
   2  -3  -2   17.90    0.80
  -2   3   2   18.90    1.10
  -2   3   2   19.80    0.90
  -2   3   2   19.40    1.20
  -2   3   2   19.60    1.10
  -2   3   2   17.60    1.20
  -2   3   2   16.80    1.50
  -2   3   2   18.10    1.20
  -2   3   2   18.30    1.20
   2  -2  -2   23.00    1.20
   2  -2  -2   22.40    1.30
   2  -2  -2   24.60    1.30
   2  -2  -2   25.10    1.60
   2  -2  -2   23.00    1.00
   2  -2  -2   22.90    1.20
   2  -2  -2   23.60    1.00
   2  -2  -2   24.90    1.20
   2  -2  -2   25.10    1.30
   2  -2  -2   24.60    1.30
  -2   2   2   24.80    1.30
  -2   2   2   26.20    1.20
  -2   2   2   21.10    1.40
  -2   2   2   26.70    1.20
  -2   2   2   24.70    1.30
  -2   2   2   22.90    1.30
  -2   2   2   24.10    1.20
  -2   2   2   27.00    1.30
  -2   2   2   25.20    1.10
  -2   2   2   24.70    1.20
  -2   2   2   24.90    1.30
   2  -1  -2   29.90    1.20
   2  -1  -2   29.80    1.30
   2  -1  -2   30.80    1.40
   2  -1  -2   27.40    1.30
   2  -1  -2   29.80    1.30
   2  -1  -2   30.10    1.40
   2  -1  -2   26.50    1.30
   2  -1  -2   26.80    1.20
   2  -1  -2   29.50    1.60
   2  -1  -2   28.80    1.30
  -2   1   2   29.20    1.40
  -2   1   2   29.60    1.30
  -2   1   2   30.90    1.30
  -2   1   2   27.70    1.40
  -2   1   2   32.70    1.30
  -2   1   2   31.30    1.40
  -2   1   2   26.50    1.40
  -2   1   2   31.30    1.30
  -2   1   2   31.30    1.40
   2   0  -2  431.06   13.50
   2   0  -2  387.06   13.40
   2   0  -2  403.16   13.30
   2   0  -2  417.16   13.50
   2   0  -2  396.26   13.50
   2   0  -2  407.96   13.40
   2   0  -2  403.36   13.40
   2   0  -2  397.16   13.40
   2   0  -2  406.36   13.50
   2   0  -2  431.96   13.60
   2   0  -2  398.46   13.40
   2   0  -2  407.46   13.50
  -2   0   2  395.46   13.40
  -2   0   2  413.56   13.50
  -2   0   2  405.26   13.50
  -2   0   2  438.26   13.40
  -2   0   2  425.76   13.40
  -2   0   2  422.26   13.50
  -2   0   2  400.06   13.30
  -2   0   2  416.76   13.50
  -2   0   2  425.66   13.50
  -2   0   2  430.56   13.50
  -2   0   2  410.06   13.50
   2   1  -2  394.16   13.20
   2   1  -2  402.06   13.10
   2   1  -2  397.36   13.30
   2   1  -2  426.76   13.20
   2   1  -2  422.36   13.30
   2   1  -2  400.76   13.40
   2   1  -2  398.06   13.30
   2   1  -2  401.46   13.30
   2   1  -2  411.26   13.30
   2   1  -2  407.56   13.30
  -2  -1   2  431.16   13.40
  -2  -1   2  412.86   13.30
  -2  -1   2  385.76   13.20
  -2  -1   2  420.96   13.30
  -2  -1   2  411.66   13.30
  -2  -1   2  402.86   13.20
  -2  -1   2  405.16   13.40
  -2  -1   2  407.46   13.30
  -2  -1   2  389.66   13.10
  -2  -1   2  430.26   13.60
   2   2  -2   32.60    1.30
   2   2  -2   32.60    1.30
   2   2  -2   33.60    1.30
   2   2  -2   33.30    1.20
   2   2  -2   32.50    1.40
   2   2  -2   30.90    1.40
   2   2  -2   33.20    1.20
   2   2  -2   33.10    1.30
   2   2  -2   33.30    1.40
  -2  -2   2   37.30    1.80
  -2  -2   2   35.30    1.40
  -2  -2   2   32.30    1.20
  -2  -2   2   32.70    1.30
  -2  -2   2   32.10    1.30
  -2  -2   2   33.90    1.30
  -2  -2   2   33.30    1.50
  -2  -2   2   33.70    1.40
  -2  -2   2   34.10    1.30
  -2  -2   2   32.80    1.40
   2   3  -2  274.57    9.50
   2   3  -2  285.87    9.40
   2   3  -2  283.07    9.30
   2   3  -2  272.57    9.50
   2   3  -2  284.07    9.20
   2   3  -2  284.17    9.30
   2   3  -2  280.77    9.30
   2   3  -2  281.57    9.30
  -2  -3   2  291.27    9.20
  -2  -3   2  290.37   10.10
  -2  -3   2  295.77    9.50
  -2  -3   2  288.47    9.30
  -2  -3   2  285.67    9.50
  -2  -3   2  283.87    9.60
  -2  -3   2  289.27    9.60
  -2  -3   2  285.57    9.20
  -2  -3   2  278.77    9.30
   2   4  -2   90.79    3.20
   2   4  -2   91.19    3.30
   2   4  -2   91.89    3.20
   2   4  -2   90.59    3.30
   2   4  -2   89.19    3.30
   2   4  -2   89.49    3.20
   2   4  -2   90.59    3.30
   2   4  -2   92.69    3.10
   2   4  -2   94.69    3.60
  -2  -4   2   92.69    3.60
  -2  -4   2   85.79    3.20
  -2  -4   2   85.79    3.40
  -2  -4   2   94.89    4.10
  -2  -4   2   89.59    3.30
  -2  -4   2   93.19    3.10
  -2  -4   2   91.49    3.40
  -2  -4   2   92.49    3.70
  -2  -4   2   92.69    3.10
   2   5  -2   31.10    1.40
   2   5  -2   33.30    1.50
   2   5  -2   31.40    1.40
   2   5  -2   29.20    1.40
   2   5  -2   28.60    1.70
   2   5  -2   31.30    1.40
   2   5  -2   30.10    1.40
   2   5  -2   31.90    1.30
  -2  -5   2   31.30    1.90
  -2  -5   2   31.60    1.60
  -2  -5   2   32.40    1.30
  -2  -5   2   32.60    1.40
  -2  -5   2   31.60    2.10
  -2  -5   2   31.80    1.80
   2   6  -2    0.50    0.20
   2   6  -2    0.40    0.40
   2   6  -2    0.90    0.30
   2   6  -2    0.40    0.30
   2   6  -2    0.50    0.30
   2   6  -2    0.70    0.30
   2   6  -2    0.70    0.30
   2   6  -2    0.00    0.20
  -2  -6   2    0.30    0.20
  -2  -6   2    0.30    0.30
  -2  -6   2   -0.30    0.50
  -2  -6   2    0.00    0.40
  -2  -6   2   -0.10    0.20
  -2  -6   2   -0.30    0.40
   2   7  -2   10.70    1.10
   2   7  -2    8.20    1.20
   2   7  -2   10.10    1.30
   2   7  -2   11.20    0.80
   2   7  -2   11.20    0.80
   2   7  -2   10.50    0.90
  -2  -7   2   11.10    1.80
  -2  -7   2    7.70    1.40
  -2  -7   2    9.70    0.90
  -2  -7   2   11.10    1.50
   2   8  -2   31.80    2.40
   2   8  -2   37.00    2.00
   2   8  -2   33.60    1.80
  -2  -8   2   37.00    2.90
  -2  -8   2   33.70    2.70
  -2  -8   2   37.30    2.60
   2   9  -2  134.79    5.60
   2   9  -2  137.59    6.30
   2   9  -2  145.79    5.40
  -2  -9   2  129.49    6.90
  -2  -9   2  141.99    6.70
  -2  -9   2  144.59    6.50
   1  -8  -2   30.10    3.40
   1  -8  -2   20.90    2.70
  -1   8   2   27.90    2.00
  -1   8   2   27.50    1.90
  -1   8   2   25.60    2.10
   1  -7  -2    2.70    1.10
   1  -7  -2    3.50    0.70
   1  -7  -2    2.80    1.10
  -1   7   2    4.20    0.90
  -1   7   2    3.80    0.70
  -1   7   2    3.80    1.00
   1  -6  -2   43.70    2.90
  -1   6   2   41.40    2.00
  -1   6   2   37.40    2.10
  -1   6   2   40.50    2.30
  -1   6   2   38.60    3.00
  -1   6   2   39.50    2.30
  -1   6   2   42.90    2.20
   1  -5  -2   30.80    1.70
   1  -5  -2   31.00    1.60
   1  -5  -2   31.90    2.30
   1  -5  -2   31.20    1.60
  -1   5   2   33.00    1.70
  -1   5   2   28.20    2.40
  -1   5   2   30.10    1.80
  -1   5   2   33.10    1.70
  -1   5   2   29.20    1.80
  -1   5   2   29.10    1.50
  -1   5   2   30.80    1.70
   1  -4  -2   43.30    2.60
   1  -4  -2   44.80    2.00
   1  -4  -2   44.40    1.90
   1  -4  -2   45.20    2.10
  -1   4   2   44.80    2.80
  -1   4   2   46.40    2.20
  -1   4   2   47.60    2.00
  -1   4   2   45.40    2.10
  -1   4   2   48.20    2.30
  -1   4   2   45.30    2.10
  -1   4   2   46.30    2.10
  -1   4   2   47.30    2.10
  -1   4   2   48.30    2.00
   1  -3  -2   41.30    1.40
   1  -3  -2   44.90    1.70
   1  -3  -2   43.20    2.30
   1  -3  -2   42.40    1.80
   1  -3  -2   42.50    1.80
   1  -3  -2   42.40    1.80
   1  -3  -2   41.90    1.90
  -1   3   2   35.70    1.80
  -1   3   2   41.60    1.80
  -1   3   2   43.20    1.70
  -1   3   2   40.00    1.70
  -1   3   2   43.00    1.80
  -1   3   2   38.80    2.30
  -1   3   2   42.10    1.80
  -1   3   2   43.70    1.90
  -1   3   2   41.70    1.90
   1  -2  -2   17.50    1.20
   1  -2  -2   18.70    1.00
   1  -2  -2   20.50    1.00
   1  -2  -2   19.30    0.70
   1  -2  -2   19.20    0.90
   1  -2  -2   18.90    0.70
   1  -2  -2   18.60    1.00
   1  -2  -2   20.20    1.10
   1  -2  -2   19.10    1.10
  -1   2   2   18.10    1.00
  -1   2   2   21.30    1.00
  -1   2   2   19.90    1.00
  -1   2   2   20.20    1.10
  -1   2   2   19.80    1.00
  -1   2   2   19.90    0.90
  -1   2   2   16.50    1.20
  -1   2   2   21.20    1.00
  -1   2   2   20.30    1.00
   1  -1  -2  471.65   17.20
   1  -1  -2  529.35   16.80
   1  -1  -2  540.35   16.90
   1  -1  -2  532.05   17.00
   1  -1  -2  523.45   17.00
   1  -1  -2  523.75   17.00
   1  -1  -2  528.05   16.90
   1  -1  -2  525.25   17.00
   1  -1  -2  535.75   17.20
   1  -1  -2  532.35   17.00
   1  -1  -2  501.05   17.00
  -1   1   2  516.05   17.00
  -1   1   2  525.85   16.90
  -1   1   2  521.35   16.90
  -1   1   2  515.75   17.00
  -1   1   2  531.45   17.00
  -1   1   2  511.55   16.90
  -1   1   2  552.44   17.00
  -1   1   2  573.24   17.00
  -1   1   2  529.65   17.00
  -1   1   2  485.25   17.20
   1   0  -2   20.20    0.90
   1   0  -2   20.90    0.90
   1   0  -2   20.30    0.90
   1   0  -2   21.20    0.90
   1   0  -2   20.50    0.90
   1   0  -2   19.70    0.80
   1   0  -2   20.00    0.90
   1   0  -2   19.10    0.90
   1   0  -2   19.70    0.90
   1   0  -2   21.20    0.90
  -1   0   2   20.80    0.90
  -1   0   2   21.00    0.90
  -1   0   2   20.70    0.90
  -1   0   2   20.60    0.90
  -1   0   2   20.10    0.80
  -1   0   2   20.90    0.90
  -1   0   2   20.50    0.90
  -1   0   2   20.60    0.80
  -1   0   2   20.00    0.90
  -1   0   2   18.50    0.90
  -1   0   2   19.20    0.90
   1   1  -2   22.00    0.90
   1   1  -2   21.90    0.90
   1   1  -2   22.80    1.00
   1   1  -2   23.30    0.80
   1   1  -2   23.90    0.90
   1   1  -2   21.30    0.90
   1   1  -2   23.40    1.00
   1   1  -2   22.50    0.90
  -1  -1   2   22.30    0.90
  -1  -1   2   23.40    0.90
  -1  -1   2   23.80    0.80
  -1  -1   2   23.90    1.00
  -1  -1   2   24.00    1.00
  -1  -1   2   22.90    0.90
  -1  -1   2   24.70    0.90
  -1  -1   2   23.10    0.90
   1   2  -2   14.40    0.80
   1   2  -2   15.40    0.70
   1   2  -2   15.60    0.80
   1   2  -2   14.50    0.50
   1   2  -2   14.60    0.70
   1   2  -2   15.20    0.70
   1   2  -2   14.10    0.70
   1   2  -2   15.50    0.60
   1   2  -2   15.10    0.60
   1   2  -2   15.70    0.70
  -1  -2   2   15.40    0.70
  -1  -2   2   15.70    0.70
  -1  -2   2   14.30    0.80
  -1  -2   2   16.30    0.70
  -1  -2   2   15.20    0.70
  -1  -2   2   15.80    0.70
  -1  -2   2   13.90    1.00
  -1  -2   2   14.00    0.70
  -1  -2   2   14.00    0.60
   1   3  -2   12.80    0.70
   1   3  -2   11.90    0.50
   1   3  -2   13.00    0.70
   1   3  -2   12.00    0.70
   1   3  -2   12.50    0.80
   1   3  -2   11.50    0.70
   1   3  -2   11.30    0.70
   1   3  -2   12.50    0.70
   1   3  -2   11.80    0.70
  -1  -3   2   12.70    0.60
  -1  -3   2   12.90    1.10
  -1  -3   2   12.00    0.70
  -1  -3   2   12.40    0.70
  -1  -3   2   12.60    0.70
  -1  -3   2   12.60    0.60
  -1  -3   2   12.20    0.60
  -1  -3   2   12.80    0.60
  -1  -3   2   12.70    0.80
   1   4  -2  100.39    3.30
   1   4  -2  101.79    3.80
   1   4  -2   98.29    3.60
   1   4  -2   98.39    3.60
   1   4  -2   97.69    3.60
   1   4  -2   96.79    3.60
   1   4  -2   95.99    3.50
   1   4  -2   99.99    3.50
   1   4  -2  102.29    3.60
  -1  -4   2   97.99    3.60
  -1  -4   2   97.99    3.60
  -1  -4   2  102.89    4.20
  -1  -4   2   98.49    4.30
  -1  -4   2  102.39    3.50
  -1  -4   2  106.09    3.90
  -1  -4   2   98.49    3.60
  -1  -4   2   96.19    3.90
  -1  -4   2   96.89    3.50
   1   5  -2    7.00    0.60
   1   5  -2    6.30    0.50
   1   5  -2    6.00    0.50
   1   5  -2    7.30    0.70
   1   5  -2    5.80    0.50
   1   5  -2    6.20    0.70
   1   5  -2    7.20    0.90
   1   5  -2    5.90    0.70
  -1  -5   2    7.50    1.20
  -1  -5   2    7.70    1.10
  -1  -5   2    6.40    0.70
  -1  -5   2    6.80    0.70
  -1  -5   2    6.50    0.50
  -1  -5   2    5.90    0.50
  -1  -5   2    5.50    1.10
  -1  -5   2    4.60    0.60
  -1  -5   2    6.60    0.90
   1   6  -2    6.90    0.90
   1   6  -2    7.40    0.60
   1   6  -2    7.00    0.60
   1   6  -2    8.50    0.60
   1   6  -2    7.00    0.80
   1   6  -2    8.60    0.90
   1   6  -2    6.20    1.00
   1   6  -2    7.50    0.80
   1   6  -2    8.50    0.90
  -1  -6   2    9.50    1.60
  -1  -6   2    7.00    1.20
  -1  -6   2    7.40    1.30
  -1  -6   2    6.10    0.70
  -1  -6   2    7.40    1.00
  -1  -6   2    7.40    0.60
  -1  -6   2    7.10    0.70
  -1  -6   2    7.70    0.80
   1   7  -2   14.40    1.70
   1   7  -2   18.80    1.30
   1   7  -2   17.30    1.00
   1   7  -2   15.20    0.90
   1   7  -2   16.40    1.20
  -1  -7   2   17.00    1.90
  -1  -7   2   14.40    2.00
  -1  -7   2   15.10    2.10
  -1  -7   2   16.00    1.00
   1   8  -2  133.09    5.30
   1   8  -2  137.89    5.50
   1   8  -2  126.89    5.90
  -1  -8   2  132.29    6.40
  -1  -8   2  139.99    6.20
  -1  -8   2  138.79    6.70
   1   9  -2    6.00    1.10
   1   9  -2    5.70    0.90
   1   9  -2    6.40    1.40
  -1  -9   2    4.50    1.40
  -1  -9   2    4.80    1.40
  -1  -9   2    6.20    1.60
   0  -9  -2   18.10    2.70
   0  -9  -2   13.40    2.40
   0   9   2   13.60    1.60
   0   9   2   18.00    1.40
   0   9   2   16.50    2.10
   0  -8  -2   -0.30    0.60
   0  -8  -2    1.20    0.90
   0   8   2    0.70    0.70
   0   8   2    0.90    0.50
   0   8   2    0.10    0.50
   0  -7  -2    2.60    1.00
   0  -7  -2    4.90    0.70
   0  -7  -2    4.90    1.30
   0   7   2    2.70    0.80
   0   7   2    3.20    0.60
   0   7   2    4.10    0.70
   0   7   2    3.70    0.80
   0   7   2    2.80    1.10
   0   7   2    3.00    0.70
   0  -6  -2    3.30    0.70
   0  -6  -2    2.70    0.90
   0  -6  -2    3.50    0.50
   0  -6  -2    3.20    0.50
   0  -6  -2    1.90    0.80
   0   6   2    3.10    0.60
   0   6   2    2.60    0.50
   0   6   2    4.00    0.70
   0   6   2    3.70    0.60
   0   6   2    2.80    0.60
   0   6   2    3.60    1.10
   0   6   2    3.20    0.80
   0   6   2    4.00    0.70
   0  -5  -2    7.70    1.20
   0  -5  -2    7.30    1.20
   0  -5  -2    6.40    0.60
   0  -5  -2    7.00    0.80
   0   5   2    7.70    0.80
   0   5   2    8.10    0.90
   0   5   2    7.70    0.60
   0   5   2    7.30    0.80
   0   5   2    8.30    1.40
   0   5   2    7.40    0.80
   0   5   2    6.60    0.90
   0   5   2    8.50    0.90
   0  -4  -2  441.66   15.50
   0  -4  -2  461.95   15.60
   0  -4  -2  459.15   14.80
   0  -4  -2  454.85   15.00
   0   4   2  452.95   15.00
   0   4   2  453.25   14.90
   0   4   2  468.45   14.70
   0   4   2  406.56   15.80
   0   4   2  454.95   14.90
   0   4   2  455.65   14.90
   0   4   2  434.86   15.10
   0   4   2  459.75   14.90
   0  -3  -2  513.95   16.90
   0  -3  -2  472.45   16.40
   0  -3  -2  524.75   16.40
   0  -3  -2  516.65   16.30
   0  -3  -2  502.25   16.30
   0  -3  -2  471.85   16.50
   0  -3  -2  516.65   16.40
   0   3   2  529.95   16.30
   0   3   2  514.45   16.30
   0   3   2  464.45   17.10
   0   3   2  492.05   16.30
   0   3   2  464.55   16.50
   0   3   2  507.25   16.40
   0   3   2  516.95   16.40
   0   3   2  503.95   16.30
   0  -2  -2  512.65   19.40
   0  -2  -2  556.84   19.10
   0  -2  -2  619.94   19.00
   0  -2  -2  588.34   19.00
   0  -2  -2  617.24   19.30
   0  -2  -2  571.44   19.00
   0  -2  -2  581.94   18.80
   0  -2  -2  599.14   18.90
   0   2   2  608.34   19.00
   0   2   2  559.74   19.00
   0   2   2  605.14   19.00
   0   2   2  567.84   18.90
   0   2   2  610.94   18.90
   0   2   2  557.84   19.50
   0   2   2  590.64   18.90
   0   2   2  597.84   19.00
   0   2   2  612.54   18.90
   0   2   2  600.54   19.00
   0  -1  -2  259.27    9.40
   0  -1  -2  286.77    9.20
   0  -1  -2  297.97    9.50
   0  -1  -2  271.57    9.20
   0  -1  -2  280.47    9.20
   0  -1  -2  284.57    9.20
   0  -1  -2  250.67    9.20
   0  -1  -2  278.97    9.10
   0  -1  -2  295.77    9.10
   0  -1  -2  281.67    9.20
   0  -1  -2  278.67    9.10
   0   1   2  276.47    9.50
   0   1   2  297.07    9.20
   0   1   2  288.57    9.20
   0   1   2  287.37    9.20
   0   1   2  282.87    9.20
   0   1   2  292.87    9.10
   0   1   2  283.27    9.20
   0   1   2  284.07    9.20
   0   1   2  297.67    9.20
   0   1   2  272.27    9.10
   0   0  -2    7.80    0.40
   0   0  -2    7.80    0.40
   0   0  -2    7.60    0.40
   0   0  -2    7.30    0.40
   0   0  -2    7.10    0.40
   0   0  -2    7.60    0.50
   0   0  -2    7.20    0.40
   0   0  -2    7.40    0.40
   0   0  -2    7.40    0.40
   0   0   2    7.00    0.40
   0   0   2    7.20    0.40
   0   0   2    6.90    0.30
   0   0   2    6.90    0.40
   0   0   2    7.10    0.50
   0   0   2    7.40    0.40
   0   0   2    6.50    0.40
   0   0   2    7.20    0.40
   0   0   2    7.30    0.40
   0   1  -2  198.78    6.60
   0   1  -2  201.38    6.70
   0   1  -2  193.38    6.70
   0   1  -2  208.18    6.60
   0   1  -2  196.38    6.50
   0   1  -2  197.48    6.60
   0   1  -2  203.28    6.60
   0   1  -2  201.68    6.60
   0   1  -2  200.58    6.70
   0  -1   2  198.48    6.50
   0  -1   2  206.58    6.60
   0  -1   2  199.88    6.60
   0  -1   2  206.48    6.60
   0  -1   2  198.08    6.60
   0  -1   2  210.88    6.50
   0  -1   2  202.38    6.70
   0  -1   2  209.38    6.60
   0   2  -2   85.39    2.90
   0   2  -2   82.49    3.00
   0   2  -2   82.19    3.00
   0   2  -2   81.29    3.00
   0   2  -2   84.69    3.00
   0   2  -2   82.49    2.90
   0   2  -2   83.09    3.00
   0   2  -2   81.49    2.90
   0   2  -2   83.99    2.80
   0  -2   2   82.49    2.90
   0  -2   2   83.09    3.00
   0  -2   2   87.39    3.40
   0  -2   2   86.79    3.00
   0  -2   2   80.99    3.00
   0  -2   2   87.09    3.00
   0  -2   2   81.09    2.90
   0  -2   2   79.89    2.90
   0  -2   2   83.39    2.90
   0   3  -2    4.80    0.40
   0   3  -2    4.00    0.50
   0   3  -2    3.90    0.50
   0   3  -2    3.70    0.50
   0   3  -2    5.00    0.60
   0   3  -2    4.30    0.50
   0   3  -2    3.70    0.50
   0   3  -2    3.60    0.30
   0   3  -2    3.90    0.40
   0  -3   2    5.00    0.50
   0  -3   2    4.00    0.50
   0  -3   2    4.40    0.60
   0  -3   2    4.50    0.50
   0  -3   2    4.50    0.40
   0  -3   2    4.00    0.50
   0  -3   2    4.90    0.80
   0  -3   2    4.50    0.40
   0   4  -2  130.69    4.40
   0   4  -2  126.29    4.40
   0   4  -2  123.99    4.70
   0   4  -2  121.59    4.70
   0   4  -2  124.99    4.60
   0   4  -2  127.89    4.40
   0   4  -2  125.79    4.80
   0   4  -2  131.79    4.60
   0  -4   2  131.09    4.60
   0  -4   2  132.89    5.00
   0  -4   2  134.29    4.50
   0  -4   2  131.49    4.50
   0  -4   2  129.69    4.80
   0  -4   2  130.19    4.60
   0  -4   2  124.19    5.20
   0  -4   2  128.29    5.30
   0   5  -2   21.50    1.30
   0   5  -2   22.60    1.10
   0   5  -2   22.10    1.10
   0   5  -2   21.10    1.50
   0   5  -2   21.20    1.40
   0   5  -2   23.00    1.40
   0   5  -2   22.70    1.30
   0   5  -2   22.20    1.10
   0   5  -2   22.70    1.30
   0  -5   2   21.70    1.10
   0  -5   2   23.20    1.60
   0  -5   2   21.70    1.20
   0  -5   2   21.80    1.20
   0  -5   2   22.80    1.10
   0  -5   2   21.70    1.80
   0  -5   2   22.60    1.40
   0  -5   2   20.30    2.10
   0   6  -2    4.10    0.50
   0   6  -2    3.90    0.70
   0   6  -2    4.50    0.80
   0   6  -2    3.80    0.50
   0   6  -2    4.10    0.70
   0   6  -2    4.50    0.90
   0   6  -2    4.60    0.50
   0  -6   2    4.60    1.00
   0  -6   2    3.50    1.10
   0  -6   2    4.40    0.50
   0  -6   2    2.40    0.90
   0  -6   2    3.20    0.60
   0  -6   2    4.00    0.50
   0   7  -2    5.20    0.90
   0   7  -2    6.50    1.30
   0   7  -2    4.20    0.80
   0  -7   2    7.60    1.30
   0  -7   2    8.10    1.70
   0  -7   2    5.40    1.30
   0   8  -2    0.20    0.70
   0   8  -2    0.60    0.50
   0   8  -2   -0.50    0.40
   0  -8   2   -0.40    0.70
   0  -8   2   -0.30    0.70
   0  -8   2    0.40    0.80
   0   9  -2   15.50    1.60
   0   9  -2   12.50    1.60
   0   9  -2   14.90    2.00
   0  -9   2   11.80    2.20
   0  -9   2   14.40    2.20
  -1  -9  -2   10.30    1.90
  -1  -9  -2   12.50    2.10
   1   9   2   13.20    1.50
   1   9   2   12.30    1.30
   1   9   2   12.70    1.80
  -1  -8  -2    1.00    0.80
  -1  -8  -2   -0.10    0.60
   1   8   2    0.40    0.60
   1   8   2    1.70    0.60
   1   8   2    0.50    0.40
  -1  -7  -2   24.80    2.10
  -1  -7  -2   23.80    2.10
   1   7   2   22.50    2.40
   1   7   2   21.30    1.70
   1   7   2   27.30    1.80
   1   7   2   28.70    1.70
   1   7   2   25.70    1.50
   1   7   2   27.10    1.60
  -1  -6  -2   13.20    1.10
  -1  -6  -2   12.50    1.60
  -1  -6  -2   14.50    0.80
  -1  -6  -2   13.10    0.70
  -1  -6  -2   14.10    1.70
   1   6   2   12.90    1.20
   1   6   2   12.60    1.00
   1   6   2   11.60    1.00
   1   6   2   12.60    1.60
   1   6   2   13.70    0.90
   1   6   2   13.60    0.90
   1   6   2   15.10    1.00
  -1  -5  -2   50.69    1.90
  -1  -5  -2   49.10    2.70
  -1  -5  -2   50.19    2.00
  -1  -5  -2   49.50    2.70
  -1  -5  -2   50.29    2.20
   1   5   2   51.49    1.70
   1   5   2   48.00    2.10
   1   5   2   46.50    3.00
   1   5   2   53.29    2.20
   1   5   2   48.80    2.00
   1   5   2   54.79    2.00
   1   5   2   46.70    2.40
   1   5   2   48.40    1.70
   1   5   2   49.60    2.10
   1   5   2   48.80    2.10
  -1  -4  -2   25.50    1.60
  -1  -4  -2   27.20    1.10
  -1  -4  -2   23.40    1.20
  -1  -4  -2   25.70    1.60
  -1  -4  -2   25.50    1.00
  -1  -4  -2   26.30    1.10
   1   4   2   26.10    1.30
   1   4   2   24.70    1.10
   1   4   2   22.60    1.80
   1   4   2   26.20    1.00
   1   4   2   23.70    1.40
   1   4   2   25.60    1.00
   1   4   2   24.70    1.20
   1   4   2   24.50    1.10
   1   4   2   27.30    1.20
  -1  -3  -2  136.89    4.70
  -1  -3  -2  139.09    4.50
  -1  -3  -2  133.69    4.90
  -1  -3  -2  137.59    4.60
  -1  -3  -2  137.09    4.60
  -1  -3  -2  137.99    4.50
  -1  -3  -2  138.89    5.10
  -1  -3  -2  143.69    5.20
   1   3   2  128.99    4.80
   1   3   2  122.49    5.30
   1   3   2  140.69    4.70
   1   3   2  137.59    4.60
   1   3   2  135.29    4.60
   1   3   2  135.79    4.60
   1   3   2  140.19    4.60
  -1  -2  -2   35.10    1.60
  -1  -2  -2   35.30    1.50
  -1  -2  -2   35.10    1.20
  -1  -2  -2   32.90    1.20
  -1  -2  -2   33.70    1.20
  -1  -2  -2   30.00    1.70
  -1  -2  -2   32.70    1.20
  -1  -2  -2   30.80    1.30
  -1  -2  -2   32.80    1.20
   1   2   2   32.90    1.20
   1   2   2   31.40    1.30
   1   2   2   34.70    1.30
   1   2   2   33.70    1.20
   1   2   2   30.50    1.60
   1   2   2   32.70    1.20
   1   2   2   33.70    1.20
  -1  -1  -2   57.79    2.30
  -1  -1  -2   61.09    2.10
  -1  -1  -2   59.79    2.10
  -1  -1  -2   58.49    2.00
  -1  -1  -2   59.99    2.10
  -1  -1  -2   60.99    2.10
  -1  -1  -2   61.99    2.10
   1   1   2   61.39    2.10
   1   1   2   58.99    2.00
   1   1   2   61.59    2.10
   1   1   2   60.69    2.30
   1   1   2   61.89    2.10
   1   1   2   61.99    2.10
   1   1   2   60.09    2.10
   1   1   2   59.89    2.00
  -1   0  -2  388.26   12.50
  -1   0  -2  391.26   12.40
  -1   0  -2  386.46   12.50
  -1   0  -2  371.76   12.40
  -1   0  -2  382.06   12.40
  -1   0  -2  386.26   12.50
  -1   0  -2  377.06   12.40
  -1   0  -2  384.16   12.50
  -1   0  -2  408.06   13.10
   1   0   2  391.96   12.40
   1   0   2  384.76   12.40
   1   0   2  386.16   12.50
   1   0   2  377.46   12.40
   1   0   2  372.86   12.40
   1   0   2  376.16   13.10
   1   0   2  383.16   12.50
   1   0   2  392.46   12.50
   1   0   2  383.66   12.50
   1   0   2  388.76   12.40
  -1   1  -2 9999.00  320.17
  -1   2  -2    1.40    0.30
  -1   2  -2    1.90    0.40
  -1   2  -2    1.70    0.20
  -1   2  -2    0.80    0.30
  -1   2  -2    1.20    0.30
  -1   2  -2    1.60    0.30
  -1   2  -2    1.50    0.30
  -1   2  -2    1.80    0.40
   1  -2   2    1.50    0.20
   1  -2   2    1.60    0.40
   1  -2   2    1.10    0.30
   1  -2   2    1.00    0.20
   1  -2   2    1.40    0.30
   1  -2   2    1.20    0.20
   1  -2   2    0.60    0.30
   1  -2   2    1.40    0.30
   1  -2   2    1.60    0.30
   1  -2   2    1.20    0.30
   1  -2   2    1.50    0.20
  -1   3  -2   -0.30    0.20
  -1   3  -2    0.00    0.20
  -1   3  -2    0.10    0.20
  -1   3  -2    0.10    0.20
  -1   3  -2   -0.20    0.20
  -1   3  -2    0.10    0.20
  -1   3  -2    0.00    0.20
  -1   3  -2    0.20    0.20
  -1   3  -2    0.00    0.30
   1  -3   2    0.10    0.10
   1  -3   2    0.10    0.30
   1  -3   2   -0.20    0.20
   1  -3   2    0.00    0.10
   1  -3   2   -0.30    0.20
   1  -3   2    0.20    0.20
   1  -3   2   -0.20    0.20
   1  -3   2   -0.20    0.10
  -1   4  -2   15.10    1.00
  -1   4  -2   15.20    1.00
  -1   4  -2   14.80    0.80
  -1   4  -2   14.20    1.10
  -1   4  -2   11.70    1.00
  -1   4  -2   12.70    1.00
  -1   4  -2   15.00    0.80
  -1   4  -2   16.10    1.10
   1  -4   2   12.60    0.90
   1  -4   2   15.10    1.70
   1  -4   2   13.30    1.50
   1  -4   2   13.90    0.80
   1  -4   2   14.40    0.80
   1  -4   2   13.60    1.00
   1  -4   2   13.80    0.90
  -1   5  -2   83.09    3.60
  -1   5  -2   78.39    3.70
  -1   5  -2   85.59    3.10
  -1   5  -2   82.29    3.50
  -1   5  -2   86.39    3.60
  -1   5  -2   86.39    3.20
  -1   5  -2   83.19    3.70
   1  -5   2   90.09    4.30
   1  -5   2   85.19    3.50
   1  -5   2   86.89    4.30
   1  -5   2   85.99    3.10
   1  -5   2   87.59    3.10
   1  -5   2   91.09    3.50
   1  -5   2   86.39    3.70
  -1   6  -2    0.00    0.30
  -1   6  -2    0.70    0.40
  -1   6  -2    0.20    0.50
  -1   6  -2    0.80    0.50
  -1   6  -2    0.40    0.40
   1  -6   2    0.80    0.70
   1  -6   2    0.20    0.20
   1  -6   2   -0.40    0.60
   1  -6   2    0.30    0.30
  -1   7  -2    3.30    0.80
  -1   7  -2    2.70    0.70
  -1   7  -2    3.60    1.00
   1  -7   2    3.60    1.30
   1  -7   2    4.00    1.10
   1  -7   2    2.90    1.20
  -1   8  -2   11.30    1.70
  -1   8  -2   13.00    1.50
  -1   8  -2   13.50    1.70
   1  -8   2   13.90    2.30
   1  -8   2   16.90    2.40
  -2 -10  -2    8.60    1.90
  -2 -10  -2    7.50    1.80
   2  10   2    4.60    1.20
   2  10   2    6.80    1.10
   2  10   2    7.60    1.00
  -2  -9  -2    4.60    1.40
  -2  -9  -2    2.90    1.10
   2   9   2    6.50    1.30
   2   9   2    5.60    0.80
   2   9   2    4.80    0.80
  -2  -8  -2    0.00    0.60
  -2  -8  -2    2.40    1.00
   2   8   2    2.60    1.00
   2   8   2    1.60    0.40
   2   8   2    1.80    0.70
   2   8   2    1.50    0.50
  -2  -7  -2    7.70    1.40
  -2  -7  -2    7.60    0.90
  -2  -7  -2    7.20    1.40
  -2  -7  -2   11.40    1.60
   2   7   2    9.20    1.30
   2   7   2    6.70    0.80
   2   7   2    7.70    0.80
   2   7   2    7.90    0.50
   2   7   2    7.50    0.50
   2   7   2    7.90    0.80
   2   7   2    6.90    1.50
   2   7   2    8.00    1.00
  -2  -6  -2    0.40    0.40
  -2  -6  -2    0.10    0.50
  -2  -6  -2    0.10    0.40
  -2  -6  -2    0.10    0.10
  -2  -6  -2   -0.10    0.30
   2   6   2    0.00    0.20
   2   6   2    0.20    0.20
   2   6   2    0.20    0.20
   2   6   2   -0.30    0.20
   2   6   2   -0.40    0.40
   2   6   2    0.20    0.20
   2   6   2    0.00    0.40
   2   6   2    0.30    0.20
   2   6   2   -0.10    0.30
  -2  -5  -2    0.40    0.40
  -2  -5  -2    1.00    0.20
  -2  -5  -2    1.10    0.50
  -2  -5  -2    1.00    0.20
  -2  -5  -2    0.70    0.30
  -2  -5  -2    0.20    0.40
  -2  -5  -2    0.80    0.20
   2   5   2    0.90    0.20
   2   5   2    1.10    0.20
   2   5   2    0.70    0.40
   2   5   2    0.80    0.30
   2   5   2    0.50    0.20
   2   5   2    0.90    0.60
   2   5   2    1.10    0.20
   2   5   2    0.70    0.20
   2   5   2    1.00    0.30
  -2  -4  -2  307.57   11.20
  -2  -4  -2  338.07   10.60
  -2  -4  -2  336.67   11.10
  -2  -4  -2  327.27   10.40
  -2  -4  -2  330.17   10.70
  -2  -4  -2  319.57   11.10
  -2  -4  -2  326.97   10.40
   2   4   2  305.27   11.60
   2   4   2  296.87   10.90
   2   4   2  331.27   10.50
   2   4   2  318.07   10.60
   2   4   2  329.67   10.50
   2   4   2  325.87   10.50
   2   4   2  312.57   10.70
   2   4   2  323.37   10.50
  -2  -3  -2   11.40    0.50
  -2  -3  -2   11.30    0.80
  -2  -3  -2   11.70    0.40
  -2  -3  -2   11.80    0.60
  -2  -3  -2   10.40    1.00
  -2  -3  -2   12.20    0.90
   2   3   2   11.20    0.60
   2   3   2   11.80    0.50
   2   3   2   10.70    1.00
   2   3   2   11.50    0.50
   2   3   2   11.20    0.70
   2   3   2   10.90    0.50
   2   3   2   11.30    0.50
  -2  -2  -2  177.88    5.70
  -2  -2  -2  172.88    6.10
  -2  -2  -2  179.58    5.70
  -2  -2  -2  157.38    6.20
  -2  -2  -2  180.48    5.70
   2   2   2  177.58    5.70
   2   2   2  168.88    6.20
   2   2   2  179.48    5.70
   2   2   2  180.18    5.70
   2   2   2  162.48    5.80
   2   2   2  173.98    5.90
   2   2   2  181.58    5.70
   2   2   2  178.58    5.70
  -2  -1  -2   18.10    0.80
  -2  -1  -2   19.60    0.80
  -2  -1  -2   18.50    0.80
  -2  -1  -2   18.90    0.80
  -2  -1  -2   19.50    1.00
  -2  -1  -2   19.80    0.90
  -2  -1  -2   18.70    0.90
  -2  -1  -2   20.90    1.00
  -2  -1  -2   18.40    0.90
   2   1   2   18.20    0.80
   2   1   2   18.50    0.80
   2   1   2   20.40    0.80
   2   1   2   18.40    0.70
   2   1   2   21.20    1.00
   2   1   2   19.30    0.90
   2   1   2   19.90    0.90
   2   1   2   18.90    0.90
  -2   0  -2 2284.27   73.99
  -2   0  -2 2148.19   72.19
  -2   0  -2 2215.48   72.49
  -2   0  -2 2336.07   72.89
  -2   0  -2 2273.87   72.89
  -2   0  -2 2274.37   72.49
  -2   0  -2 2092.39   72.09
  -2   0  -2 2240.18   72.89
  -2   0  -2 2218.58   72.39
   2   0   2 2179.68   72.89
   2   0   2 2313.87   72.49
   2   0   2 2209.88   72.99
   2   0   2 2256.27   72.99
   2   0   2 2297.37   72.59
   2   0   2 2183.68   72.69
   2   0   2 2367.96   72.79
  -2   1  -2    0.70    0.20
  -2   1  -2    0.70    0.20
  -2   1  -2    0.80    0.30
  -2   1  -2    0.50    0.20
  -2   1  -2    0.90    0.30
  -2   1  -2    0.70    0.30
  -2   1  -2    0.80    0.30
  -2   1  -2    0.60    0.20
   2  -1   2    0.40    0.20
   2  -1   2    0.80    0.20
   2  -1   2    1.00    0.30
   2  -1   2    1.00    0.30
   2  -1   2    1.20    0.30
   2  -1   2    0.50    0.20
   2  -1   2    0.50    0.20
   2  -1   2    0.90    0.20
   2  -1   2    0.80    0.20
  -2   2  -2   10.10    0.60
  -2   2  -2   10.80    0.80
  -2   2  -2   10.10    0.70
  -2   2  -2   10.00    0.80
  -2   2  -2   10.00    0.80
  -2   2  -2   11.40    0.90
  -2   2  -2   11.80    0.80
  -2   2  -2   11.00    0.80
   2  -2   2   10.00    0.60
   2  -2   2   10.90    0.80
   2  -2   2   10.50    0.80
   2  -2   2   11.70    1.00
   2  -2   2   10.40    0.80
   2  -2   2   11.00    0.60
   2  -2   2   10.40    0.70
   2  -2   2   11.50    0.60
   2  -2   2   10.10    0.70
   2  -2   2   10.20    0.60
  -2   3  -2   84.39    3.40
  -2   3  -2   87.09    3.10
  -2   3  -2   82.19    3.30
  -2   3  -2   75.69    3.30
  -2   3  -2   83.19    3.40
  -2   3  -2   82.49    3.40
   2  -3   2   80.99    3.30
   2  -3   2   83.99    3.70
   2  -3   2   83.49    2.90
   2  -3   2   83.89    3.30
   2  -3   2   80.09    3.00
   2  -3   2   86.39    3.40
   2  -3   2   85.79    3.00
   2  -3   2   80.49    3.20
   2  -3   2   85.59    3.00
  -2   4  -2   11.40    1.20
  -2   4  -2   12.30    1.20
  -2   4  -2    8.20    1.00
  -2   4  -2    9.40    1.10
  -2   4  -2    8.10    0.70
  -2   4  -2   11.10    0.90
   2  -4   2   10.70    1.10
   2  -4   2    8.90    0.60
   2  -4   2   10.00    0.60
   2  -4   2    8.10    1.40
   2  -4   2    9.50    1.00
   2  -4   2   10.20    1.40
   2  -4   2    8.80    1.00
   2  -4   2    9.00    0.50
  -2   5  -2   79.89    3.40
  -2   5  -2   70.99    3.40
  -2   5  -2   79.19    3.50
  -2   5  -2   76.89    3.00
  -2   5  -2   75.79    3.30
   2  -5   2   70.69    3.80
   2  -5   2   67.89    4.00
   2  -5   2   72.69    2.80
   2  -5   2   77.79    3.30
  -2   6  -2   51.39    2.40
  -2   6  -2   53.29    2.90
  -2   6  -2   49.20    2.70
  -2   6  -2   53.99    2.90
   2  -6   2   50.69    2.60
   2  -6   2   54.59    3.60
  -2   7  -2    0.20    0.50
  -2   7  -2    0.50    0.50
  -2   7  -2    0.00    0.60
   2  -7   2    0.60    0.90
  -2   8  -2    5.20    1.30
  -2   8  -2    2.80    0.90
  -2   8  -2    3.30    1.00
   2  -8   2    4.80    1.30
   2  -8   2    4.40    1.60
  -3 -10  -2    7.70    1.70
  -3 -10  -2    7.60    1.60
   3  10   2    8.10    1.50
   3  10   2    8.80    1.10
   3  10   2    9.30    0.90
  -3  -9  -2    1.60    0.90
  -3  -9  -2    3.30    1.10
  -3  -9  -2    3.00    1.10
   3   9   2    2.30    0.50
   3   9   2    2.10    0.90
   3   9   2    1.90    0.50
  -3  -8  -2   21.80    1.90
  -3  -8  -2   20.90    2.00
  -3  -8  -2   20.70    2.30
   3   8   2   20.70    1.50
   3   8   2   21.80    1.10
   3   8   2   20.90    1.20
   3   8   2   18.00    1.70
   3   8   2   24.30    1.30
  -3  -7  -2   22.20    1.80
  -3  -7  -2   23.70    2.00
  -3  -7  -2   23.20    1.90
   3   7   2   24.60    1.30
   3   7   2   20.90    2.20
   3   7   2   23.40    1.10
   3   7   2   23.00    1.10
   3   7   2   23.00    1.70
   3   7   2   24.40    1.20
   3   7   2   23.60    1.20
   3   7   2   22.70    1.20
   3   7   2   25.60    1.50
  -3  -6  -2   78.09    3.90
  -3  -6  -2   78.39    3.70
  -3  -6  -2   87.29    3.20
  -3  -6  -2   87.59    3.90
  -3  -6  -2   84.59    3.00
   3   6   2   81.89    3.10
   3   6   2   76.49    4.40
   3   6   2   84.89    2.90
   3   6   2   84.89    2.90
   3   6   2   88.59    3.40
   3   6   2   82.49    3.10
   3   6   2   86.39    3.00
   3   6   2   86.89    3.00
   3   6   2   79.99    3.60
  -3  -5  -2   15.50    0.90
  -3  -5  -2   16.50    1.20
  -3  -5  -2   16.70    0.90
  -3  -5  -2   17.40    1.30
  -3  -5  -2   14.40    1.30
   3   5   2   15.90    0.90
   3   5   2   14.90    1.50
   3   5   2   15.40    0.70
   3   5   2   15.60    0.60
   3   5   2   15.40    0.70
   3   5   2   16.00    1.00
   3   5   2   15.20    0.70
   3   5   2   13.90    1.10
  -3  -4  -2    1.70    0.30
  -3  -4  -2    2.20    0.50
  -3  -4  -2    2.20    0.40
  -3  -4  -2    1.90    0.60
  -3  -4  -2    1.80    0.30
   3   4   2    1.50    0.30
   3   4   2    1.90    0.20
   3   4   2    1.60    0.10
   3   4   2    1.50    0.60
   3   4   2    1.20    0.40
   3   4   2    1.60    0.10
   3   4   2    1.70    0.10
  -3  -3  -2   11.60    0.70
  -3  -3  -2   10.00    1.00
  -3  -3  -2   11.40    0.90
  -3  -3  -2   12.10    0.70
   3   3   2   10.40    1.00
   3   3   2   11.60    0.50
   3   3   2   10.70    0.60
   3   3   2   11.90    0.50
   3   3   2   11.80    0.50
   3   3   2   10.10    0.70
   3   3   2   12.10    0.80
   3   3   2   11.30    0.50
  -3  -2  -2  251.87    8.70
  -3  -2  -2  234.08    8.90
  -3  -2  -2  269.27    8.70
  -3  -2  -2  264.77    8.70
  -3  -2  -2  258.77    8.40
  -3  -2  -2  259.77    8.90
  -3  -2  -2  264.97    8.40
  -3  -2  -2  263.67    8.40
  -3  -2  -2  257.77    8.50
   3   2   2  268.97    8.50
   3   2   2  260.27    8.80
   3   2   2  255.37    8.50
   3   2   2  265.77    8.50
   3   2   2  261.17    8.50
   3   2   2  253.47    8.70
   3   2   2  252.87    8.60
  -3  -1  -2   12.30    0.70
  -3  -1  -2   12.70    0.70
  -3  -1  -2   11.80    0.70
  -3  -1  -2   12.70    0.70
  -3  -1  -2   15.20    0.70
  -3  -1  -2   12.90    0.70
  -3  -1  -2   12.30    0.70
  -3  -1  -2   13.20    0.70
  -3  -1  -2   12.80    0.80
   3   1   2   12.50    0.60
   3   1   2   12.70    0.70
   3   1   2   11.50    0.70
   3   1   2   12.70    0.70
   3   1   2   12.30    0.70
   3   1   2   11.90    0.50
   3   1   2   13.00    0.70
   3   1   2   13.70    0.80
   3   1   2   11.60    0.70
  -3   0  -2   29.90    1.30
  -3   0  -2   30.20    1.20
  -3   0  -2   30.70    1.30
  -3   0  -2   29.30    1.20
  -3   0  -2   31.70    1.40
  -3   0  -2   31.40    1.40
  -3   0  -2   31.20    1.50
  -3   0  -2   30.90    1.40
  -3   0  -2   30.20    1.30
  -3   0  -2   29.70    1.40
  -3   0  -2   31.40    1.40
   3   0   2   31.30    1.30
   3   0   2   29.60    1.40
   3   0   2   28.90    1.40
   3   0   2   33.30    1.40
   3   0   2   30.90    1.40
   3   0   2   29.10    1.40
   3   0   2   29.90    1.30
   3   0   2   30.80    1.50
   3   0   2   26.60    1.20
  -3   1  -2    2.20    0.40
  -3   1  -2    2.50    0.40
  -3   1  -2    1.90    0.40
  -3   1  -2    3.30    0.40
  -3   1  -2    1.80    0.30
  -3   1  -2    3.20    0.50
  -3   1  -2    2.30    0.40
   3  -1   2    2.80    0.50
   3  -1   2    3.40    0.50
   3  -1   2    2.20    0.40
   3  -1   2    2.00    0.40
   3  -1   2    2.00    0.30
   3  -1   2    1.50    0.30
   3  -1   2    2.00    0.40
   3  -1   2    1.80    0.40
   3  -1   2    2.10    0.40
  -3   2  -2    1.80    0.40
  -3   2  -2    1.20    0.40
  -3   2  -2    2.00    0.40
  -3   2  -2    1.00    0.40
  -3   2  -2    1.90    0.50
  -3   2  -2    1.40    0.40
   3  -2   2    2.10    0.30
   3  -2   2    2.30    0.50
   3  -2   2    1.70    0.50
   3  -2   2    1.20    0.30
   3  -2   2    2.30    0.40
   3  -2   2    1.30    0.40
   3  -2   2    1.90    0.40
   3  -2   2    0.90    0.40
  -3   3  -2    7.60    0.90
  -3   3  -2    6.20    0.90
  -3   3  -2    6.70    0.60
  -3   3  -2    6.40    0.80
  -3   3  -2    5.70    0.90
  -3   3  -2    6.60    0.80
  -3   3  -2    7.80    0.80
   3  -3   2    7.60    1.30
   3  -3   2    6.20    0.80
   3  -3   2    5.70    0.80
   3  -3   2    5.80    0.70
   3  -3   2    6.80    0.50
   3  -3   2    6.70    0.60
   3  -3   2    7.80    0.90
   3  -3   2    6.60    0.80
   3  -3   2    7.40    0.60
  -3   4  -2   10.50    1.10
  -3   4  -2   11.90    1.40
  -3   4  -2    9.90    1.30
  -3   4  -2    9.90    1.20
  -3   4  -2   10.80    0.90
  -3   4  -2   13.00    1.30
   3  -4   2   11.50    0.70
   3  -4   2   13.20    1.30
   3  -4   2   13.40    1.30
   3  -4   2   10.90    1.20
   3  -4   2    9.30    1.60
   3  -4   2    9.80    0.70
  -3   5  -2    0.10    0.40
  -3   5  -2    1.10    0.60
  -3   5  -2    0.50    0.50
  -3   5  -2    0.80    0.60
  -3   5  -2   -0.60    0.40
   3  -5   2    1.60    0.90
   3  -5   2    1.70    0.60
   3  -5   2    0.50    0.20
  -3   6  -2    6.50    1.20
  -3   6  -2    4.70    1.00
  -3   6  -2    6.50    1.20
   3  -6   2    3.70    1.40
   3  -6   2    5.60    1.00
  -3   7  -2    1.50    0.80
  -3   7  -2    1.90    0.80
  -3   7  -2    1.70    0.90
   3  -7   2    0.30    1.00
  -4 -10  -2    8.40    1.60
  -4 -10  -2   13.20    2.10
  -4 -10  -2   12.20    2.00
   4  10   2    7.90    0.90
   4  10   2   11.70    1.70
  -4  -9  -2   11.40    1.90
  -4  -9  -2   13.00    1.80
  -4  -9  -2   11.60    1.90
   4   9   2   14.70    1.80
   4   9   2   10.60    0.90
   4   9   2   11.60    0.70
  -4  -8  -2   28.00    2.30
  -4  -8  -2   30.60    2.30
  -4  -8  -2   31.00    2.10
   4   8   2   28.20    1.40
   4   8   2   29.70    1.20
   4   8   2   31.00    1.90
   4   8   2   29.70    1.50
   4   8   2   28.70    1.50
   4   8   2   32.40    2.20
   4   8   2   30.50    1.40
  -4  -7  -2  581.64   20.50
  -4  -7  -2  606.74   19.40
  -4  -7  -2  595.74   20.50
  -4  -7  -2  609.24   19.30
  -4  -7  -2  589.24   20.00
   4   7   2  591.44   19.40
   4   7   2  541.05   20.00
   4   7   2  592.84   18.90
   4   7   2  604.94   19.10
   4   7   2  601.54   18.90
   4   7   2  600.24   19.80
   4   7   2  609.74   19.50
   4   7   2  589.64   19.10
   4   7   2  546.25   21.20
  -4  -6  -2    4.90    0.80
  -4  -6  -2    3.80    0.50
  -4  -6  -2    3.60    0.80
  -4  -6  -2    5.00    1.00
  -4  -6  -2    4.90    0.60
   4   6   2    4.20    0.60
   4   6   2    4.20    0.60
   4   6   2    4.00    0.30
   4   6   2    4.90    0.80
   4   6   2    3.80    0.30
   4   6   2    3.10    0.60
   4   6   2    4.10    1.10
  -4  -5  -2   25.00    1.30
  -4  -5  -2   25.80    1.20
  -4  -5  -2   21.50    1.50
  -4  -5  -2   25.20    1.70
  -4  -5  -2   26.30    1.30
   4   5   2   24.40    1.30
   4   5   2   21.80    1.80
   4   5   2   20.40    1.30
   4   5   2   24.80    1.30
   4   5   2   23.20    1.30
   4   5   2   24.70    0.80
  -4  -4  -2   59.99    2.40
  -4  -4  -2   60.79    2.90
  -4  -4  -2   59.39    2.60
  -4  -4  -2   60.79    2.50
   4   4   2   60.99    2.10
   4   4   2   62.49    2.50
   4   4   2   60.29    2.40
   4   4   2   60.79    2.10
   4   4   2   61.39    2.10
   4   4   2   57.39    3.00
   4   4   2   62.19    2.10
   4   4   2   64.59    2.60
  -4  -3  -2   11.00    0.50
  -4  -3  -2   11.30    0.50
  -4  -3  -2   12.60    1.00
  -4  -3  -2   11.80    1.00
  -4  -3  -2   11.20    0.80
  -4  -3  -2   10.90    0.80
  -4  -3  -2   13.00    0.70
   4   3   2   11.00    0.60
   4   3   2   10.80    0.60
   4   3   2   11.10    0.60
   4   3   2   11.60    0.90
   4   3   2   11.20    0.80
   4   3   2   11.90    0.80
   4   3   2   11.10    0.60
  -4  -2  -2   81.59    3.10
  -4  -2  -2   70.99    3.10
  -4  -2  -2   84.29    3.30
  -4  -2  -2   76.59    2.90
  -4  -2  -2   82.29    3.00
  -4  -2  -2   81.69    2.90
  -4  -2  -2   77.79    3.10
  -4  -2  -2   73.89    2.90
  -4  -2  -2   78.99    3.00
   4   2   2   77.39    2.90
   4   2   2   83.39    2.90
   4   2   2   87.19    2.70
   4   2   2   79.69    3.00
   4   2   2   80.69    3.00
   4   2   2   81.99    3.20
   4   2   2   78.89    3.00
   4   2   2   78.59    2.90
   4   2   2   78.09    3.00
  -4  -1  -2   12.20    0.70
  -4  -1  -2   12.90    0.80
  -4  -1  -2   13.10    0.80
  -4  -1  -2   13.00    0.80
  -4  -1  -2   13.40    0.80
  -4  -1  -2   12.00    0.80
   4   1   2   13.40    0.90
   4   1   2   13.10    0.80
   4   1   2   12.00    0.90
   4   1   2   13.30    0.80
   4   1   2   11.70    0.80
   4   1   2   12.60    0.80
   4   1   2   12.20    0.80
   4   1   2   11.90    0.70
   4   1   2   12.00    0.60
  -4   0  -2   34.50    1.30
  -4   0  -2   33.60    1.60
  -4   0  -2   33.80    1.60
  -4   0  -2   33.10    1.50
  -4   0  -2   34.10    1.70
  -4   0  -2   36.40    1.60
  -4   0  -2   33.50    1.60
   4   0   2   33.90    1.70
   4   0   2   34.40    1.60
   4   0   2   33.10    1.50
   4   0   2   32.70    1.40
   4   0   2   32.30    1.60
   4   0   2   34.20    1.60
   4   0   2   35.80    1.70
   4   0   2   32.10    1.60
   4   0   2   32.20    1.50
  -4   1  -2   14.50    0.90
  -4   1  -2   16.50    1.10
  -4   1  -2   15.30    1.00
  -4   1  -2   15.80    0.90
  -4   1  -2   14.30    0.90
  -4   1  -2   15.30    1.10
  -4   1  -2   15.80    1.10
   4  -1   2   17.00    1.20
   4  -1   2   13.70    1.00
   4  -1   2   14.50    1.00
   4  -1   2   14.90    1.00
   4  -1   2   15.60    1.00
   4  -1   2   14.80    0.90
   4  -1   2   14.00    1.00
   4  -1   2   14.80    1.10
  -4   2  -2   -0.10    0.30
  -4   2  -2    0.40    0.40
  -4   2  -2    0.80    0.40
  -4   2  -2    0.40    0.30
  -4   2  -2    0.20    0.30
   4  -2   2    0.00    0.30
   4  -2   2    0.40    0.40
   4  -2   2    0.30    0.30
   4  -2   2    0.30    0.30
   4  -2   2    0.20    0.30
   4  -2   2    1.10    0.40
   4  -2   2    0.00    0.30
  -4   3  -2   -0.10    0.30
  -4   3  -2    0.30    0.40
  -4   3  -2    0.50    0.40
  -4   3  -2   -0.10    0.40
  -4   3  -2    0.20    0.40
   4  -3   2    0.50    0.70
   4  -3   2    0.20    0.30
   4  -3   2   -0.10    0.30
   4  -3   2   -0.20    0.30
   4  -3   2   -0.20    0.30
   4  -3   2    0.50    0.30
   4  -3   2    0.10    0.40
   4  -3   2    0.00    0.20
  -4   4  -2    1.30    0.50
  -4   4  -2    0.40    0.40
  -4   4  -2    1.30    0.60
  -4   4  -2    0.90    0.50
  -4   4  -2    1.20    0.60
   4  -4   2    1.30    0.60
   4  -4   2   -0.20    0.70
   4  -4   2    0.90    0.30
   4  -4   2    1.20    0.40
   4  -4   2    0.70    0.30
   4  -4   2    1.00    0.50
   4  -4   2    1.40    0.50
  -4   5  -2    2.80    0.80
  -4   5  -2    2.80    0.80
  -4   5  -2    1.20    0.70
   4  -5   2    1.40    0.60
   4  -5   2    1.20    1.00
  -4   6  -2    3.50    1.00
  -4   6  -2    3.50    1.00
  -4   6  -2    3.70    1.10
   4  -6   2    5.70    1.10
   4  -6   2    2.10    1.30
  -5 -10  -2   13.20    2.10
  -5 -10  -2   12.40    2.00
   5  10   2   12.10    0.80
   5  10   2    9.70    1.60
  -5  -9  -2    0.20    0.70
  -5  -9  -2    1.00    0.60
  -5  -9  -2    0.90    0.80
   5   9   2    0.50    0.40
   5   9   2    1.00    0.30
   5   9   2    0.20    0.20
   5   9   2    0.00    0.50
  -5  -8  -2    7.20    1.10
  -5  -8  -2    4.60    1.10
  -5  -8  -2    7.80    0.80
  -5  -8  -2    8.00    0.80
  -5  -8  -2    6.20    1.30
   5   8   2    7.90    0.90
   5   8   2    6.30    1.00
   5   8   2    6.90    0.40
   5   8   2    8.10    0.90
   5   8   2    8.60    1.00
   5   8   2    6.90    1.10
   5   8   2    4.70    1.30
   5   8   2    6.30    0.40
  -5  -7  -2    2.90    0.90
  -5  -7  -2    2.10    0.50
  -5  -7  -2    2.20    0.80
  -5  -7  -2    3.20    0.60
  -5  -7  -2    3.50    0.70
   5   7   2    2.00    0.50
   5   7   2    1.90    0.50
   5   7   2    2.50    0.60
   5   7   2    2.10    0.50
   5   7   2    2.40    0.90
   5   7   2    2.10    0.70
  -5  -6  -2   62.59    2.50
  -5  -6  -2   62.59    2.50
  -5  -6  -2   60.09    2.60
  -5  -6  -2   62.19    3.20
  -5  -6  -2   59.89    3.00
   5   6   2   61.79    2.60
   5   6   2   62.59    2.60
   5   6   2   53.89    2.70
   5   6   2   57.79    2.70
   5   6   2   58.29    2.70
   5   6   2   52.99    3.30
  -5  -5  -2    1.80    0.40
  -5  -5  -2    1.50    0.40
  -5  -5  -2    2.10    0.70
  -5  -5  -2    1.20    0.50
   5   5   2    1.70    0.10
   5   5   2    1.30    0.40
   5   5   2    1.70    0.20
   5   5   2    1.40    0.20
   5   5   2    1.80    0.40
   5   5   2    1.40    0.60
   5   5   2    1.30    0.40
   5   5   2    0.60    0.30
   5   5   2    1.20    0.20
  -5  -4  -2  218.98    7.70
  -5  -4  -2  226.88    7.50
  -5  -4  -2  225.68    8.10
  -5  -4  -2  215.28    7.70
   5   4   2  228.58    7.70
   5   4   2  224.98    7.30
   5   4   2  214.88    7.60
   5   4   2  210.48    7.80
   5   4   2  217.28    7.30
   5   4   2  211.58    7.30
   5   4   2  217.58    7.30
   5   4   2  217.88    8.00
  -5  -3  -2  241.88    8.30
  -5  -3  -2  248.18    8.70
  -5  -3  -2  262.77    8.30
  -5  -3  -2  217.28    8.80
  -5  -3  -2  249.28    8.50
  -5  -3  -2  261.37    9.00
  -5  -3  -2  252.67    8.20
  -5  -3  -2  248.78    8.70
   5   3   2  259.07    8.70
   5   3   2  262.77    8.60
   5   3   2  256.77    8.50
   5   3   2  248.18    8.60
   5   3   2  259.37    8.90
   5   3   2  257.47    8.40
   5   3   2  243.28    8.40
   5   3   2  243.58    8.40
  -5  -2  -2  166.98    5.90
  -5  -2  -2  155.78    6.00
  -5  -2  -2  167.08    5.90
  -5  -2  -2  176.28    6.00
  -5  -2  -2  164.48    6.10
  -5  -2  -2  173.28    6.10
   5   2   2  170.38    5.80
   5   2   2  174.28    6.10
   5   2   2  170.28    6.00
   5   2   2  165.78    5.90
   5   2   2  178.48    5.90
   5   2   2  180.48    6.10
   5   2   2  160.48    6.20
   5   2   2  172.58    5.70
   5   2   2  176.38    6.00
   5   2   2  167.28    6.00
  -5  -1  -2   50.59    2.10
  -5  -1  -2   48.40    2.20
  -5  -1  -2   51.79    2.10
  -5  -1  -2   50.49    2.20
  -5  -1  -2   48.70    2.20
  -5  -1  -2   52.39    2.20
   5   1   2   47.80    2.20
   5   1   2   46.70    2.20
   5   1   2   49.60    2.20
   5   1   2   47.30    1.90
   5   1   2   46.60    2.30
   5   1   2   50.79    2.30
   5   1   2   50.39    2.20
   5   1   2   46.50    2.10
   5   1   2   50.19    2.00
  -5   0  -2   62.79    2.80
  -5   0  -2   62.89    2.80
  -5   0  -2   63.99    2.70
  -5   0  -2   65.69    2.60
  -5   0  -2   68.29    2.40
  -5   0  -2   65.29    2.60
  -5   0  -2   63.69    2.70
   5   0   2   65.89    2.90
   5   0   2   62.79    2.70
   5   0   2   62.09    2.50
   5   0   2   65.09    2.80
   5   0   2   64.19    2.60
   5   0   2   60.99    2.80
   5   0   2   62.89    2.70
   5   0   2   61.89    2.70
  -5   1  -2   43.00    2.20
  -5   1  -2   44.50    2.00
  -5   1  -2   48.00    2.20
  -5   1  -2   44.00    2.00
  -5   1  -2   41.30    2.10
  -5   1  -2   44.20    1.90
  -5   1  -2   42.30    2.30
   5  -1   2   45.70    2.30
   5  -1   2   45.30    2.20
   5  -1   2   45.10    2.10
   5  -1   2   44.90    2.00
   5  -1   2   43.90    2.10
   5  -1   2   42.30    2.10
   5  -1   2   42.00    2.10
   5  -1   2   47.00    2.40
  -5   2  -2    9.50    1.10
  -5   2  -2    8.60    1.00
  -5   2  -2    8.30    0.90
  -5   2  -2    8.90    0.90
  -5   2  -2   11.00    1.30
   5  -2   2    8.30    0.90
   5  -2   2   11.20    1.20
   5  -2   2    8.30    1.10
   5  -2   2   13.10    1.80
   5  -2   2    9.60    1.00
   5  -2   2    8.80    1.10
   5  -2   2   10.10    1.00
  -5   3  -2    2.10    0.70
  -5   3  -2    1.90    0.60
  -5   3  -2    3.10    0.80
  -5   3  -2    0.70    0.50
   5  -3   2    0.70    0.70
   5  -3   2    1.80    0.60
   5  -3   2    1.10    0.40
   5  -3   2    1.60    0.50
   5  -3   2    1.30    0.50
   5  -3   2    2.20    0.70
  -5   4  -2    0.40    0.60
  -5   4  -2   -0.10    0.50
  -5   4  -2    0.40    0.60
   5  -4   2    0.60    0.40
   5  -4   2    1.40    0.90
   5  -4   2    0.60    0.60
   5  -4   2    0.80    0.60
  -5   5  -2    0.00    0.60
  -5   5  -2   -0.10    0.50
   5  -5   2    0.30    0.80
   5  -5   2    0.10    0.50
  -6 -10  -2    2.40    1.10
  -6 -10  -2    2.80    1.20
   6  10   2    1.20    0.80
  -6  -9  -2    4.90    0.70
  -6  -9  -2    3.80    1.20
  -6  -9  -2    2.60    1.00
   6   9   2    2.80    0.70
   6   9   2    3.00    0.70
   6   9   2    1.70    0.70
   6   9   2    1.90    0.90
  -6  -8  -2   15.20    1.90
  -6  -8  -2   13.60    1.00
  -6  -8  -2    9.40    1.60
  -6  -8  -2   13.90    1.10
   6   8   2   14.20    1.30
   6   8   2   14.00    1.20
   6   8   2   12.80    1.10
   6   8   2   13.20    1.20
   6   8   2   11.70    1.10
   6   8   2   14.60    1.20
   6   8   2   14.00    1.80
   6   8   2   10.70    1.40
  -6  -7  -2   31.10    1.70
  -6  -7  -2   25.40    2.00
  -6  -7  -2   29.50    2.10
  -6  -7  -2   29.00    1.50
   6   7   2   26.00    1.70
   6   7   2   29.90    1.90
   6   7   2   32.30    1.80
   6   7   2   27.60    1.70
   6   7   2   28.00    2.40
   6   7   2   27.90    1.70
   6   7   2   27.20    1.80
   6   7   2   31.20    1.70
  -6  -6  -2  135.69    5.00
  -6  -6  -2  133.09    5.50
  -6  -6  -2  132.59    5.70
  -6  -6  -2  135.09    5.10
   6   6   2  140.09    5.40
   6   6   2  136.49    5.10
   6   6   2  134.79    4.50
   6   6   2  134.29    4.50
   6   6   2  128.09    5.90
   6   6   2  143.69    5.20
   6   6   2  135.29    5.20
   6   6   2  135.19    5.30
  -6  -5  -2    3.80    0.60
  -6  -5  -2    4.80    0.90
  -6  -5  -2    4.40    0.70
  -6  -5  -2    5.30    0.90
   6   5   2    3.50    0.70
   6   5   2    3.40    0.60
   6   5   2    5.20    0.50
   6   5   2    5.00    0.40
   6   5   2    4.70    0.50
   6   5   2    4.80    0.40
   6   5   2    5.20    0.70
   6   5   2    5.30    0.90
   6   5   2    5.60    0.90
  -6  -4  -2    0.00    0.30
  -6  -4  -2    0.20    0.10
  -6  -4  -2    1.30    0.60
  -6  -4  -2    1.00    0.30
  -6  -4  -2    0.30    0.30
  -6  -4  -2    0.40    0.40
   6   4   2    0.70    0.20
   6   4   2    0.40    0.30
   6   4   2    0.40    0.20
   6   4   2    0.10    0.30
   6   4   2    0.00    0.30
   6   4   2    0.00    0.20
   6   4   2    0.60    0.40
   6   4   2    0.90    0.40
  -6  -3  -2    0.00    0.20
  -6  -3  -2    0.20    0.40
  -6  -3  -2   -0.10    0.20
  -6  -3  -2    0.30    0.20
  -6  -3  -2    0.00    0.30
  -6  -3  -2   -0.10    0.20
   6   3   2    0.20    0.30
   6   3   2   -0.10    0.20
   6   3   2    0.30    0.20
   6   3   2    0.10    0.30
   6   3   2    0.00    0.20
   6   3   2   -0.10    0.20
   6   3   2   -0.10    0.20
   6   3   2    0.40    0.20
   6   3   2    0.10    0.30
  -6  -2  -2   50.99    2.20
  -6  -2  -2   43.40    2.10
  -6  -2  -2   53.49    2.20
  -6  -2  -2   47.00    2.30
  -6  -2  -2   54.19    2.40
  -6  -2  -2   51.49    2.20
  -6  -2  -2   48.50    2.20
   6   2   2   49.00    2.10
   6   2   2   48.30    2.20
   6   2   2   44.40    2.20
   6   2   2   46.80    2.40
   6   2   2   49.99    2.30
   6   2   2   49.10    1.90
   6   2   2   51.39    2.20
   6   2   2   49.30    2.30
   6   2   2   49.90    2.20
  -6  -1  -2    0.90    0.40
  -6  -1  -2    0.60    0.30
  -6  -1  -2    0.50    0.30
  -6  -1  -2    1.20    0.50
  -6  -1  -2    0.10    0.20
  -6  -1  -2    0.20    0.30
   6   1   2    0.50    0.30
   6   1   2    0.40    0.40
   6   1   2    0.50    0.30
   6   1   2    0.50    0.40
   6   1   2   -0.10    0.30
   6   1   2    0.60    0.40
   6   1   2    0.30    0.40
   6   1   2    0.80    0.30
  -6   0  -2    0.50    0.40
  -6   0  -2    0.40    0.40
  -6   0  -2    0.70    0.40
  -6   0  -2    0.10    0.30
  -6   0  -2    0.30    0.30
  -6   0  -2    0.00    0.30
  -6   0  -2    1.00    0.40
   6   0   2    1.20    0.50
   6   0   2    0.10    0.40
   6   0   2    0.30    0.40
   6   0   2   -0.10    0.40
   6   0   2    0.50    0.40
   6   0   2    0.10    0.30
   6   0   2    0.70    0.30
   6   0   2    0.10    0.30
  -6   1  -2    0.80    0.40
  -6   1  -2    0.70    0.50
  -6   1  -2    0.30    0.30
  -6   1  -2    0.60    0.40
  -6   1  -2    1.00    0.40
   6  -1   2    0.90    0.50
   6  -1   2    1.80    0.60
   6  -1   2    0.40    0.40
   6  -1   2    0.30    0.40
   6  -1   2    1.30    0.50
   6  -1   2    1.10    0.70
   6  -1   2    0.80    0.40
  -6   2  -2    1.20    0.50
  -6   2  -2    1.00    0.60
  -6   2  -2    1.30    0.50
  -6   2  -2    0.40    0.40
   6  -2   2    0.00    0.70
   6  -2   2    1.00    0.50
   6  -2   2    1.30    0.70
   6  -2   2    0.60    0.50
   6  -2   2    1.80    0.70
  -6   3  -2    2.80    0.90
  -6   3  -2    1.50    0.60
   6  -3   2    1.80    0.70
   6  -3   2    1.30    0.50
   6  -3   2    2.30    1.10
   6  -3   2    2.00    0.70
  -6   4  -2   31.30    2.10
  -6   4  -2   28.90    2.20
   6  -4   2   34.10    3.60
   6  -4   2   33.60    2.30
  -7  -9  -2   24.90    2.20
  -7  -9  -2   26.00    1.70
  -7  -9  -2   29.60    1.60
  -7  -9  -2   30.50    2.40
   7   9   2   23.80    2.00
   7   9   2   29.50    1.80
   7   9   2   26.70    1.90
   7   9   2   30.50    1.90
  -7  -8  -2    0.00    0.50
  -7  -8  -2    0.10    0.30
  -7  -8  -2    0.10    0.40
  -7  -8  -2   -0.10    0.50
   7   8   2    0.10    0.50
   7   8   2    0.30    0.40
   7   8   2    0.20    0.40
   7   8   2    0.40    0.40
   7   8   2    0.10    0.30
   7   8   2    0.30    0.40
   7   8   2    1.90    0.60
  -7  -7  -2   10.80    1.30
  -7  -7  -2   14.30    1.80
  -7  -7  -2   11.70    1.00
  -7  -7  -2   13.40    1.60
   7   7   2   13.20    1.60
   7   7   2   12.60    0.60
   7   7   2   11.90    1.10
   7   7   2   14.40    1.70
   7   7   2   12.60    0.60
   7   7   2   14.10    1.50
   7   7   2   13.30    1.10
   7   7   2   15.20    1.40
  -7  -6  -2   18.60    1.10
  -7  -6  -2   15.00    1.30
  -7  -6  -2   17.70    1.60
  -7  -6  -2   17.10    1.40
   7   6   2   17.20    1.60
   7   6   2   16.00    1.20
   7   6   2   16.80    0.70
   7   6   2   16.70    1.40
   7   6   2   17.10    0.90
   7   6   2   17.80    1.40
   7   6   2   15.80    1.20
   7   6   2   17.50    0.90
  -7  -5  -2   46.30    2.10
  -7  -5  -2   44.90    2.60
  -7  -5  -2   46.70    2.40
  -7  -5  -2   43.80    2.30
   7   5   2   46.00    2.00
   7   5   2   44.20    1.90
   7   5   2   46.10    1.90
   7   5   2   47.60    2.30
   7   5   2   42.80    2.20
   7   5   2   48.50    2.40
   7   5   2   44.60    2.50
   7   5   2   44.40    2.40
  -7  -4  -2   42.40    2.30
  -7  -4  -2   43.00    2.00
  -7  -4  -2   40.40    2.20
  -7  -4  -2   42.50    2.20
   7   4   2   41.30    1.90
   7   4   2   39.40    2.00
   7   4   2   44.20    2.40
   7   4   2   42.70    2.00
   7   4   2   44.60    2.00
   7   4   2   40.70    1.90
   7   4   2   40.70    2.10
  -7  -3  -2    1.10    0.30
  -7  -3  -2    0.80    0.50
  -7  -3  -2    0.70    0.30
  -7  -3  -2    0.80    0.30
  -7  -3  -2    0.90    0.50
   7   3   2    0.70    0.40
   7   3   2    0.40    0.30
   7   3   2    0.60    0.50
   7   3   2    1.00    0.40
   7   3   2    0.20    0.30
   7   3   2    0.30    0.40
   7   3   2    1.20    0.40
  -7  -2  -2    0.00    0.30
  -7  -2  -2   -0.50    0.30
  -7  -2  -2   -0.10    0.30
  -7  -2  -2   -0.40    0.30
   7   2   2   -0.20    0.30
   7   2   2   -0.40    0.20
   7   2   2   -0.10    0.30
   7   2   2    0.10    0.40
   7   2   2   -0.10    0.40
   7   2   2   -0.40    0.30
  -7  -1  -2    9.20    1.00
  -7  -1  -2   10.30    1.20
  -7  -1  -2   10.50    1.10
   7   1   2   11.10    1.10
   7   1   2   10.70    1.40
   7   1   2    8.40    1.10
   7   1   2   11.40    1.30
   7   1   2    8.10    1.00
   7   1   2    6.30    0.90
   7   1   2    7.50    1.00
  -7   0  -2    2.90    0.70
  -7   0  -2    3.00    0.50
  -7   0  -2    3.10    0.60
  -7   0  -2    1.80    0.60
   7   0   2    2.40    0.60
   7   0   2    4.70    1.10
   7   0   2    1.80    0.70
   7   0   2    5.20    0.90
   7   0   2    2.30    0.70
   7   0   2    5.00    0.90
  -7   1  -2   47.10    2.70
  -7   1  -2   54.19    2.30
  -7   1  -2   51.59    2.50
  -7   1  -2   53.09    2.60
   7  -1   2   51.69    2.70
   7  -1   2   53.69    3.40
   7  -1   2   51.09    2.80
   7  -1   2   53.69    2.70
   7  -1   2   51.49    2.80
  -7   2  -2    0.30    0.50
  -7   2  -2   -0.80    0.50
   7  -2   2   -0.20    0.40
   7  -2   2   -0.10    0.40
   7  -2   2   -0.50    0.70
   7  -2   2    0.80    0.60
   7  -2   2   -0.10    0.40
  -7   3  -2    3.60    1.00
   7  -3   2    4.50    0.90
   7  -3   2    5.30    1.50
   7  -3   2    4.00    1.00
   7  -3   2    3.40    0.90
  -8  -9  -2   25.50    1.70
  -8  -9  -2   23.00    2.60
   8   9   2   22.70    1.80
   8   9   2   24.60    1.80
   8   9   2   17.80    1.70
   8   9   2   25.00    1.70
  -8  -8  -2    1.70    0.60
  -8  -8  -2    0.80    0.40
  -8  -8  -2    1.40    0.80
   8   8   2    2.70    0.80
   8   8   2    0.80    0.50
   8   8   2    0.70    0.50
   8   8   2    2.80    0.70
  -8  -7  -2    4.50    0.70
  -8  -7  -2    3.00    1.00
  -8  -7  -2    3.80    0.90
   8   7   2    2.70    0.60
   8   7   2    3.40    0.50
   8   7   2    3.40    0.90
   8   7   2    4.20    0.80
  -8  -6  -2   10.00    1.30
  -8  -6  -2    8.20    1.00
   8   6   2    8.40    0.80
   8   6   2    8.70    0.60
   8   6   2    9.80    1.40
   8   6   2    8.80    1.10
   8   6   2    9.90    0.80
  -8  -5  -2    6.30    1.00
  -8  -5  -2    5.90    0.80
   8   5   2    5.70    0.90
   8   5   2    5.00    1.00
   8   5   2    5.80    0.70
   8   5   2    7.30    0.80
  -8  -4  -2   51.99    2.70
  -8  -4  -2   53.89    2.50
   8   4   2   54.49    2.40
   8   4   2   51.79    2.50
   8   4   2   53.09    2.50
   8   4   2   54.69    2.90
  -8  -3  -2   34.00    1.90
  -8  -3  -2   33.50    2.10
   8   3   2   38.50    1.90
   8   3   2   34.70    1.90
   8   3   2   37.40    2.00
   8   3   2   36.70    2.00
   8   3   2   33.50    2.20
  -8  -2  -2   22.20    1.50
  -8  -2  -2   22.00    1.60
   8   2   2   18.60    1.50
   8   2   2   19.20    1.50
   8   2   2   21.90    1.60
   8   2   2   20.40    1.50
   8   2   2   24.80    1.80
  -8  -1  -2   26.00    1.80
  -8  -1  -2   27.90    1.80
  -8  -1  -2   28.40    1.80
   8   1   2   28.80    1.90
   8   1   2   26.10    1.80
   8   1   2   25.40    1.90
   8   1   2   26.10    2.10
   8   1   2   29.40    1.90
  -8   0  -2   92.69    4.00
  -8   0  -2   84.89    4.10
  -8   0  -2   91.59    3.90
   8   0   2   91.79    4.20
   8   0   2   95.89    4.80
   8   0   2   88.99    4.00
   8   0   2   88.49    4.10
   8   0   2   92.19    4.10
  -8   1  -2    9.50    1.20
  -8   1  -2   11.80    1.40
  -8   1  -2    9.60    1.40
   8  -1   2    8.60    1.30
   8  -1   2    7.30    1.10
   8  -1   2   11.20    1.50
   8  -1   2   12.20    2.10
   8  -1   2    7.90    1.30
  -8   2  -2    0.90    0.70
  -8   2  -2    1.20    0.60
   8  -2   2    0.80    0.60
   8  -2   2    0.10    0.90
   8  -2   2    0.50    0.60
   8  -2   2   -0.40    0.50
  -9  -8  -2    6.90    1.20
  -9  -8  -2    6.10    0.90
   9   8   2    6.40    1.40
   9   8   2    6.90    1.30
   9   8   2    5.60    0.50
   9   8   2    6.00    1.20
  -9  -7  -2    0.30    0.50
  -9  -7  -2    0.10    0.40
   9   7   2    0.10    0.50
   9   7   2   -0.30    0.50
   9   7   2    0.50    0.30
  -9  -6  -2    9.10    1.10
  -9  -6  -2    8.10    1.30
   9   6   2    8.50    0.90
   9   6   2    6.50    1.00
   9   6   2    9.00    0.80
   9   6   2    6.10    1.20
  -9  -5  -2    0.10    0.30
  -9  -5  -2   -0.10    0.50
   9   5   2    0.80    0.50
   9   5   2   -0.40    0.30
   9   5   2   -0.40    0.40
  -9  -4  -2   47.50    2.70
  -9  -4  -2   48.20    2.50
   9   4   2   48.80    2.40
   9   4   2   50.49    2.50
   9   4   2   53.59    3.00
   9   4   2   48.00    2.60
  -9  -3  -2   10.10    1.20
  -9  -3  -2   10.00    1.40
   9   3   2    8.60    1.20
   9   3   2    9.90    1.20
   9   3   2    8.50    1.30
   9   3   2    9.60    1.20
  -9  -2  -2   15.60    1.30
  -9  -2  -2   14.40    1.60
   9   2   2   14.20    1.50
   9   2   2   15.90    1.70
   9   2   2   12.60    1.50
   9   2   2   16.50    1.60
  -9  -1  -2   16.10    1.70
  -9  -1  -2   10.50    1.40
   9   1   2   13.30    1.60
   9   1   2   14.90    1.60
   9   1   2   13.50    1.50
   9   1   2   17.30    1.60
  -9   0  -2   18.50    1.60
  -9   0  -2   16.30    1.70
   9   0   2   16.30    2.20
   9   0   2   12.20    1.60
   9   0   2   21.60    1.70
   9   0   2   16.20    1.80
   9   0   2   16.10    1.80
 -10  -6  -2    0.50    0.50
 -10  -6  -2    1.40    0.60
  10   6   2    0.80    0.60
  10   6   2    1.50    0.80
  10   6   2    0.80    0.40
 -10  -5  -2    3.50    0.80
 -10  -5  -2    2.80    0.90
  10   5   2    2.70    0.90
  10   5   2    2.60    0.80
  10   5   2    3.60    0.70
 -10  -4  -2    9.70    1.20
 -10  -4  -2   11.20    1.60
  10   4   2    9.70    1.30
  10   4   2   11.80    1.70
  10   4   2   10.50    1.40
  10   4   2   11.00    1.30
 -10  -3  -2    0.70    0.70
 -10  -3  -2    0.40    0.50
  10   3   2    0.30    0.50
  10   3   2    0.60    0.70
  10   3   2    0.50    0.60
  10   3   2    1.40    0.60
   9   1  -3   33.30    2.60
   9   1  -3   34.10    2.30
   9   1  -3   34.00    2.30
   9   1  -3   36.50    2.30
  -9  -1   3   37.90    2.50
  -9  -1   3   34.00    2.10
   9   2  -3    0.10    0.60
   9   2  -3    0.70    0.50
   9   2  -3   -0.50    0.60
   9   2  -3    0.00    0.50
  -9  -2   3    0.50    0.60
  -9  -2   3   -0.10    0.70
  -9  -2   3    0.60    0.50
   9   3  -3   18.30    1.90
   9   3  -3   18.50    1.40
   9   3  -3   20.30    1.60
   9   3  -3   19.50    1.80
  -9  -3   3   16.60    1.90
  -9  -3   3   19.10    2.30
  -9  -3   3   16.90    1.30
   9   4  -3    0.10    0.40
   9   4  -3    0.20    0.60
   9   4  -3    0.30    0.40
   9   4  -3   -0.40    0.50
  -9  -4   3    0.70    0.60
  -9  -4   3    0.20    0.70
  -9  -4   3    0.60    0.40
   9   5  -3   16.40    1.80
   9   5  -3   13.80    1.10
   9   5  -3   16.30    1.90
   9   5  -3   14.50    1.20
  -9  -5   3    8.20    1.40
  -9  -5   3   11.20    1.90
   8  -1  -3    3.40    1.00
   8  -1  -3    0.70    0.70
   8  -1  -3    2.70    0.70
   8  -1  -3    3.10    0.90
  -8   1   3    1.50    0.70
  -8   1   3    2.90    0.80
   8   0  -3   17.70    1.50
   8   0  -3   18.60    1.90
   8   0  -3   19.20    1.60
   8   0  -3   19.60    1.90
  -8   0   3   17.70    1.50
   8   1  -3   16.40    1.60
   8   1  -3   14.80    1.60
   8   1  -3   13.70    1.70
   8   1  -3   17.60    1.30
   8   1  -3   18.80    1.80
  -8  -1   3   16.90    1.80
   8   2  -3    7.10    1.10
   8   2  -3    8.40    1.20
   8   2  -3    6.00    0.90
   8   2  -3    6.20    1.10
  -8  -2   3    5.50    1.20
  -8  -2   3    6.70    0.90
  -8  -2   3    6.40    1.10
   8   3  -3    0.00    0.60
   8   3  -3   -0.20    0.30
   8   3  -3   -0.20    0.50
   8   3  -3    0.20    0.40
  -8  -3   3    0.80    0.50
  -8  -3   3    0.30    0.70
  -8  -3   3    0.00    0.30
   8   4  -3    6.20    1.10
   8   4  -3    5.30    0.80
   8   4  -3    6.40    0.80
   8   4  -3    6.00    1.10
  -8  -4   3    5.90    1.30
  -8  -4   3    6.70    0.80
  -8  -4   3    5.00    1.00
   8   5  -3    7.20    1.10
   8   5  -3    8.60    0.90
   8   5  -3    7.20    0.90
   8   5  -3   10.30    1.40
  -8  -5   3    6.90    1.40
  -8  -5   3    5.10    1.00
   8   6  -3    2.30    0.50
   8   6  -3    1.30    0.70
   8   6  -3    2.10    0.50
   8   6  -3    1.50    0.70
  -8  -6   3    1.50    0.90
  -8  -6   3    1.50    0.60
   8   7  -3   23.40    1.80
   8   7  -3   27.60    2.00
   8   7  -3   24.10    1.40
  -8  -7   3   28.10    2.00
  -8  -7   3   21.10    2.60
   7  -3  -3   14.60    1.70
   7  -3  -3   11.70    1.50
   7  -3  -3   13.00    2.10
  -7   3   3   15.10    1.60
  -7   3   3   15.10    1.50
  -7   3   3   12.90    1.70
   7  -2  -3    2.90    0.80
   7  -2  -3    4.40    1.20
   7  -2  -3    3.40    0.70
   7  -2  -3    1.60    0.70
   7  -2  -3    2.40    0.80
  -7   2   3    2.20    0.70
  -7   2   3    2.90    0.80
  -7   2   3    0.60    0.60
   7  -1  -3    0.80    0.50
   7  -1  -3    2.00    0.90
   7  -1  -3    1.70    0.60
   7  -1  -3    0.50    0.40
   7  -1  -3    1.60    0.70
   7  -1  -3    0.40    0.60
  -7   1   3   -0.10    0.40
  -7   1   3    0.40    0.50
  -7   1   3    2.00    0.60
   7   0  -3    1.30    0.50
   7   0  -3    1.00    0.50
   7   0  -3    1.50    0.70
   7   0  -3    1.10    0.50
   7   0  -3    1.30    0.50
   7   0  -3    2.00    0.60
  -7   0   3    1.80    0.70
  -7   0   3    1.30    0.50
   7   1  -3   10.10    1.20
   7   1  -3    8.50    1.10
   7   1  -3    6.30    1.00
   7   1  -3    8.30    0.90
   7   1  -3    7.80    1.10
   7   1  -3    7.30    1.00
  -7  -1   3    6.90    1.10
  -7  -1   3    9.10    1.10
   7   2  -3    4.20    0.80
   7   2  -3    4.30    0.60
   7   2  -3    4.30    0.70
   7   2  -3    2.90    0.60
   7   2  -3    4.70    0.90
   7   2  -3    3.60    0.70
  -7  -2   3    4.50    0.70
  -7  -2   3    4.10    0.70
  -7  -2   3    2.90    0.80
  -7  -2   3    3.60    0.80
   7   3  -3   10.80    0.90
   7   3  -3   12.40    0.90
   7   3  -3   11.60    1.30
   7   3  -3   11.80    1.40
   7   3  -3   10.70    1.10
   7   3  -3   10.90    1.10
  -7  -3   3   13.40    1.80
  -7  -3   3   10.50    0.90
  -7  -3   3   12.00    1.40
   7   4  -3    1.50    0.50
   7   4  -3    1.30    0.40
   7   4  -3    2.90    0.70
   7   4  -3    1.40    0.40
   7   4  -3    0.90    0.50
  -7  -4   3    2.30    0.80
  -7  -4   3    1.50    0.40
  -7  -4   3    1.80    0.70
  -7  -4   3    2.60    0.50
   7   5  -3   13.50    1.40
   7   5  -3   10.80    1.30
   7   5  -3   11.80    0.90
   7   5  -3   14.00    1.00
   7   5  -3   12.70    1.00
  -7  -5   3   15.00    2.00
  -7  -5   3   12.80    1.00
  -7  -5   3   10.30    1.30
   7   6  -3    0.60    0.50
   7   6  -3    0.50    0.50
   7   6  -3    0.90    0.30
   7   6  -3    1.20    0.40
  -7  -6   3    1.30    0.80
  -7  -6   3    0.30    0.50
   7   7  -3    4.00    0.60
   7   7  -3    4.20    0.90
   7   7  -3    3.80    0.90
   7   7  -3    3.40    0.50
  -7  -7   3    3.00    0.70
  -7  -7   3    3.50    1.20
   7   8  -3    6.50    1.10
   7   8  -3    5.10    0.70
  -7  -8   3    4.30    1.40
  -7  -8   3    8.20    1.30
   6  -4  -3    6.40    1.60
   6  -4  -3    5.90    1.10
   6  -4  -3    5.50    1.00
  -6   4   3    6.40    1.20
  -6   4   3    5.10    1.10
   6  -3  -3   35.50    2.80
   6  -3  -3   32.70    2.10
   6  -3  -3   35.90    2.20
  -6   3   3   34.70    2.10
  -6   3   3   33.40    1.90
  -6   3   3   32.50    2.20
   6  -2  -3    1.50    0.50
   6  -2  -3    1.80    0.80
   6  -2  -3    2.00    0.70
   6  -2  -3    1.30    0.60
   6  -2  -3    1.00    0.50
   6  -2  -3    1.60    0.50
  -6   2   3    2.50    0.70
  -6   2   3    1.20    0.60
  -6   2   3    1.60    0.60
   6  -1  -3   -0.30    0.40
   6  -1  -3    0.70    0.50
   6  -1  -3    0.20    0.40
   6  -1  -3   -0.30    0.30
   6  -1  -3    0.10    0.50
   6  -1  -3    0.50    0.40
  -6   1   3    1.10    0.50
  -6   1   3   -0.40    0.30
  -6   1   3    0.10    0.40
   6   0  -3   52.39    2.60
   6   0  -3   48.70    2.40
   6   0  -3   50.79    2.50
   6   0  -3   46.20    2.40
   6   0  -3   50.79    2.40
   6   0  -3   48.60    2.30
   6   0  -3   45.50    2.50
   6   0  -3   49.80    2.40
  -6   0   3   48.30    2.40
  -6   0   3   50.99    2.50
   6   1  -3    3.10    0.60
   6   1  -3    2.90    0.70
   6   1  -3    3.10    0.70
   6   1  -3    2.30    0.60
   6   1  -3    2.90    0.50
   6   1  -3    1.60    0.50
   6   1  -3    2.20    0.60
  -6  -1   3    3.30    0.70
  -6  -1   3    3.80    0.70
  -6  -1   3    3.40    0.70
   6   2  -3  244.78    8.60
   6   2  -3  236.68    8.40
   6   2  -3  244.08    8.60
   6   2  -3  241.98    8.50
   6   2  -3  231.88    8.20
   6   2  -3  241.18    8.00
   6   2  -3  235.08    8.30
  -6  -2   3  236.88    8.20
  -6  -2   3  224.38    8.50
  -6  -2   3  230.38    8.30
  -6  -2   3  230.28    8.90
   6   3  -3   81.69    3.20
   6   3  -3   77.09    2.90
   6   3  -3   80.89    3.50
   6   3  -3   79.19    3.10
   6   3  -3   76.49    3.30
   6   3  -3   73.69    3.10
   6   3  -3   76.59    3.40
   6   3  -3   78.79    3.40
  -6  -3   3   73.69    3.40
  -6  -3   3   73.99    3.80
  -6  -3   3   78.59    3.00
  -6  -3   3   79.49    3.20
  -6  -3   3   77.89    3.00
   6   4  -3    7.60    0.60
   6   4  -3    5.70    0.90
   6   4  -3    7.80    0.80
   6   4  -3    7.70    0.60
   6   4  -3    7.90    1.00
   6   4  -3    7.80    1.00
   6   4  -3    7.50    0.70
   6   4  -3    9.20    0.80
   6   4  -3    7.20    0.80
  -6  -4   3    8.00    0.60
  -6  -4   3    8.80    1.20
  -6  -4   3    7.90    0.80
  -6  -4   3    8.00    1.30
   6   5  -3    5.60    0.60
   6   5  -3    6.00    0.60
   6   5  -3    5.10    0.90
   6   5  -3    5.20    0.80
   6   5  -3    5.20    0.70
   6   5  -3    5.50    0.90
   6   5  -3    5.30    0.70
  -6  -5   3    6.70    1.00
  -6  -5   3    6.90    1.30
   6   6  -3   11.80    0.80
   6   6  -3   13.00    1.40
   6   6  -3   11.80    0.80
   6   6  -3   12.30    1.00
   6   6  -3   12.00    1.10
  -6  -6   3   11.10    1.70
  -6  -6   3   13.80    1.40
   6   7  -3   13.80    0.80
   6   7  -3   14.20    0.90
   6   7  -3   14.00    1.20
   6   7  -3   18.30    1.40
  -6  -7   3   14.20    1.30
  -6  -7   3   13.90    2.10
  -6  -7   3   14.40    1.50
   6   8  -3   -0.20    0.20
   6   8  -3   -0.30    0.50
  -6  -8   3    0.50    0.80
  -6  -8   3    0.30    0.40
  -6  -8   3   -0.20    0.60
   6   9  -3    6.10    0.70
   6   9  -3    5.80    1.00
  -6  -9   3    6.00    1.10
  -6  -9   3    4.80    1.50
   5  -5  -3    2.90    1.40
   5  -5  -3    1.80    0.70
   5  -5  -3    1.60    0.60
  -5   5   3    1.90    0.80
  -5   5   3    1.60    0.90
   5  -4  -3    0.90    0.90
   5  -4  -3    3.20    0.80
   5  -4  -3    2.30    0.60
  -5   4   3    2.20    0.80
  -5   4   3    2.10    0.80
   5  -3  -3    1.20    0.50
   5  -3  -3    1.10    0.50
   5  -3  -3    0.90    0.80
   5  -3  -3    0.70    0.50
   5  -3  -3    0.70    0.30
   5  -3  -3    1.00    0.30
  -5   3   3    0.70    0.60
  -5   3   3    0.70    0.40
  -5   3   3    0.20    0.50
  -5   3   3    0.70    0.60
   5  -2  -3   29.40    1.80
   5  -2  -3   27.90    2.10
   5  -2  -3   30.60    1.60
   5  -2  -3   29.10    1.70
   5  -2  -3   28.30    1.70
   5  -2  -3   30.10    1.80
   5  -2  -3   28.70    1.60
  -5   2   3   27.40    1.70
  -5   2   3   31.60    1.70
  -5   2   3   30.20    1.80
  -5   2   3   30.80    1.90
  -5   2   3   30.00    1.60
   5  -1  -3   66.39    3.40
   5  -1  -3   67.79    3.10
   5  -1  -3   72.19    3.40
   5  -1  -3   68.49    3.10
   5  -1  -3   71.99    3.10
   5  -1  -3   69.39    2.90
   5  -1  -3   69.39    2.90
   5  -1  -3   68.59    3.00
  -5   1   3   70.39    3.10
  -5   1   3   72.89    3.00
  -5   1   3   63.59    3.10
  -5   1   3   73.39    2.70
  -5   1   3   71.79    3.10
  -5   1   3   72.59    3.10
   5   0  -3   32.10    1.90
   5   0  -3   37.20    1.90
   5   0  -3   37.10    1.80
   5   0  -3   36.30    2.10
   5   0  -3   35.10    1.70
   5   0  -3   37.90    1.90
   5   0  -3   40.70    1.90
   5   0  -3   36.60    1.80
   5   0  -3   34.20    1.80
   5   0  -3   36.90    2.00
  -5   0   3   34.40    1.90
  -5   0   3   35.20    1.90
  -5   0   3   38.80    1.80
  -5   0   3   35.40    1.80
  -5   0   3   38.80    1.90
   5   1  -3  214.68    7.70
   5   1  -3  225.78    8.10
   5   1  -3  212.98    7.70
   5   1  -3  216.88    7.80
   5   1  -3  221.28    7.60
   5   1  -3  227.58    7.80
   5   1  -3  219.28    7.60
   5   1  -3  226.28    7.90
   5   1  -3  203.58    7.80
   5   1  -3  213.08    7.40
  -5  -1   3  216.88    7.60
  -5  -1   3  215.58    7.60
  -5  -1   3  218.48    7.70
  -5  -1   3  223.48    7.40
  -5  -1   3  221.18    7.80
   5   2  -3  214.28    7.80
   5   2  -3  231.18    7.90
   5   2  -3  226.68    7.80
   5   2  -3  218.38    7.70
   5   2  -3  215.28    7.60
   5   2  -3  225.18    7.90
   5   2  -3  205.98    7.60
   5   2  -3  213.98    7.40
   5   2  -3  215.98    7.80
  -5  -2   3  228.08    7.40
  -5  -2   3  222.58    7.70
  -5  -2   3  219.48    8.20
  -5  -2   3  219.38    7.60
  -5  -2   3  215.78    7.90
  -5  -2   3  233.78    7.60
   5   3  -3    0.60    0.30
   5   3  -3    0.30    0.30
   5   3  -3   -0.30    0.30
   5   3  -3    0.20    0.30
   5   3  -3    1.00    0.30
   5   3  -3    0.50    0.40
   5   3  -3    0.50    0.30
   5   3  -3    0.00    0.20
   5   3  -3    0.50    0.30
   5   3  -3    0.30    0.20
  -5  -3   3    0.30    0.20
  -5  -3   3    0.30    0.20
  -5  -3   3    0.00    0.40
  -5  -3   3    0.50    0.30
  -5  -3   3    0.60    0.20
  -5  -3   3    0.80    0.30
   5   4  -3   26.00    1.60
   5   4  -3   28.10    1.60
   5   4  -3   29.20    1.60
   5   4  -3   28.80    1.30
   5   4  -3   26.50    1.30
   5   4  -3   30.20    1.50
   5   4  -3   27.40    1.20
   5   4  -3   27.90    1.30
   5   4  -3   26.10    1.30
  -5  -4   3   27.50    1.40
  -5  -4   3   28.10    1.20
  -5  -4   3   26.60    1.20
  -5  -4   3   25.70    1.60
  -5  -4   3   28.60    2.10
   5   5  -3    4.80    0.60
   5   5  -3    3.90    0.70
   5   5  -3    4.40    0.70
   5   5  -3    4.90    0.50
   5   5  -3    4.90    0.50
   5   5  -3    4.80    0.50
   5   5  -3    4.50    0.50
   5   5  -3    4.10    0.70
  -5  -5   3    4.80    0.80
  -5  -5   3    4.20    1.00
   5   6  -3   -0.60    0.30
   5   6  -3    0.30    0.40
   5   6  -3    0.10    0.20
   5   6  -3   -0.30    0.20
   5   6  -3    0.00    0.30
   5   6  -3   -0.10    0.20
   5   6  -3    0.30    0.40
   5   6  -3   -0.30    0.20
   5   6  -3    0.20    0.20
  -5  -6   3    0.20    0.40
  -5  -6   3    0.00    0.30
  -5  -6   3    0.50    0.50
   5   7  -3   39.40    1.80
   5   7  -3   41.50    2.00
   5   7  -3   38.90    1.70
   5   7  -3   39.40    2.10
   5   7  -3   45.40    2.50
   5   7  -3   41.50    2.00
  -5  -7   3   41.90    2.20
  -5  -7   3   39.90    3.00
  -5  -7   3   41.00    2.30
   5   8  -3   -0.10    0.20
   5   8  -3   -0.10    0.40
   5   8  -3    0.20    0.30
  -5  -8   3    0.60    0.50
  -5  -8   3   -0.40    0.60
  -5  -8   3    0.00    0.30
   5   9  -3    0.60    0.40
   5   9  -3    1.10    0.60
  -5  -9   3    2.30    1.20
   4  -6  -3    0.40    0.50
   4  -6  -3   -0.30    0.70
   4  -6  -3    0.40    0.40
  -4   6   3    0.10    0.50
  -4   6   3   -0.70    0.70
  -4   6   3   -0.20    0.50
   4  -5  -3    3.70    0.70
   4  -5  -3    4.60    1.30
   4  -5  -3    3.50    0.80
  -4   5   3    2.30    0.90
  -4   5   3    4.30    1.00
  -4   5   3    3.50    0.90
  -4   5   3    4.90    1.10
   4  -4  -3   49.30    2.50
   4  -4  -3   45.70    3.10
   4  -4  -3   47.50    2.10
   4  -4  -3   43.50    2.20
   4  -4  -3   45.40    2.40
  -4   4   3   45.10    2.50
  -4   4   3   48.70    2.50
  -4   4   3   45.00    2.50
  -4   4   3   45.20    2.90
  -4   4   3   47.50    2.70
   4  -3  -3   15.30    1.20
   4  -3  -3   12.20    1.80
   4  -3  -3   14.50    0.90
   4  -3  -3   13.20    1.10
   4  -3  -3   13.20    0.80
  -4   3   3   14.40    1.20
  -4   3   3   12.60    1.30
  -4   3   3   14.40    1.50
  -4   3   3   14.20    1.40
  -4   3   3   13.30    1.00
   4  -2  -3    2.50    0.40
   4  -2  -3    3.50    0.70
   4  -2  -3    2.60    0.50
   4  -2  -3    3.70    0.70
   4  -2  -3    2.10    0.50
   4  -2  -3    2.70    0.60
   4  -2  -3    1.80    0.70
   4  -2  -3    3.60    0.70
  -4   2   3    3.00    0.50
  -4   2   3    2.50    0.60
  -4   2   3    2.30    0.50
  -4   2   3    2.50    0.60
  -4   2   3    2.70    0.60
  -4   2   3    2.60    0.60
   4  -1  -3   21.60    1.30
   4  -1  -3   19.60    1.30
   4  -1  -3   21.30    1.30
   4  -1  -3   21.40    1.30
   4  -1  -3   22.80    1.30
   4  -1  -3   22.40    1.60
   4  -1  -3   22.90    1.20
   4  -1  -3   21.30    1.40
   4  -1  -3   21.70    1.20
  -4   1   3   20.40    1.30
  -4   1   3   23.80    1.30
  -4   1   3   23.00    1.30
  -4   1   3   20.70    1.30
  -4   1   3   21.60    1.30
  -4   1   3   21.60    1.20
   4   0  -3    0.10    0.30
   4   0  -3    0.10    0.20
   4   0  -3    0.60    0.30
   4   0  -3    0.10    0.20
   4   0  -3    0.20    0.30
   4   0  -3    0.00    0.30
   4   0  -3    0.20    0.20
   4   0  -3    0.50    0.30
   4   0  -3   -0.20    0.20
   4   0  -3    0.30    0.30
  -4   0   3    0.20    0.20
  -4   0   3   -0.10    0.20
  -4   0   3    0.10    0.20
  -4   0   3    0.70    0.30
  -4   0   3    0.30    0.30
  -4   0   3    0.20    0.20
  -4   0   3    0.20    0.30
   4   1  -3   -0.10    0.20
   4   1  -3   -0.20    0.20
   4   1  -3    0.50    0.30
   4   1  -3    0.00    0.20
   4   1  -3    0.00    0.20
   4   1  -3   -0.20    0.20
   4   1  -3    0.10    0.20
   4   1  -3    0.10    0.20
   4   1  -3    0.00    0.20
   4   1  -3    0.10    0.30
   4   1  -3    0.30    0.20
  -4  -1   3   -0.10    0.20
  -4  -1   3   -0.30    0.20
  -4  -1   3    0.20    0.20
  -4  -1   3    0.00    0.20
  -4  -1   3    0.20    0.20
   4   2  -3   13.10    1.00
   4   2  -3   14.40    0.90
   4   2  -3   14.80    0.80
   4   2  -3   13.80    0.90
   4   2  -3   14.30    0.70
   4   2  -3   15.70    1.00
   4   2  -3   15.00    0.80
   4   2  -3   13.50    1.00
   4   2  -3   14.00    0.90
   4   2  -3   13.90    0.80
  -4  -2   3   13.80    1.00
  -4  -2   3   13.60    1.20
  -4  -2   3   14.20    0.80
  -4  -2   3   13.40    0.70
  -4  -2   3   14.30    0.80
  -4  -2   3   14.10    0.80
  -4  -2   3   14.20    1.00
   4   3  -3   15.00    1.10
   4   3  -3   18.50    0.80
   4   3  -3   18.50    0.90
   4   3  -3   17.20    1.00
   4   3  -3   16.40    0.90
   4   3  -3   19.00    1.20
   4   3  -3   18.90    1.10
   4   3  -3   17.70    1.00
   4   3  -3   18.00    1.00
  -4  -3   3   16.90    0.90
  -4  -3   3   15.90    1.20
  -4  -3   3   18.10    0.90
  -4  -3   3   15.90    1.40
  -4  -3   3   19.50    0.90
  -4  -3   3   18.60    1.20
   4   4  -3    2.40    0.30
   4   4  -3    2.10    0.30
   4   4  -3    1.80    0.30
   4   4  -3    1.50    0.40
   4   4  -3    1.90    0.40
   4   4  -3    2.20    0.40
   4   4  -3    1.20    0.40
   4   4  -3    1.80    0.40
   4   4  -3    1.90    0.40
  -4  -4   3    1.50    0.30
  -4  -4   3    2.00    0.70
  -4  -4   3    3.10    0.60
  -4  -4   3    1.60    0.50
   4   5  -3   44.00    1.70
   4   5  -3   42.50    1.80
   4   5  -3   43.70    1.80
   4   5  -3   43.30    2.10
   4   5  -3   40.80    1.70
   4   5  -3   43.70    2.20
   4   5  -3   38.90    2.00
   4   5  -3   44.20    1.90
   4   5  -3   42.40    1.70
   4   5  -3   42.30    1.70
  -4  -5   3   41.80    2.10
  -4  -5   3   41.40    2.00
  -4  -5   3   39.50    2.00
  -4  -5   3   40.40    1.60
  -4  -5   3   41.30    2.70
  -4  -5   3   43.70    2.20
   4   6  -3   42.40    2.00
   4   6  -3   39.20    2.20
   4   6  -3   39.70    1.80
   4   6  -3   41.70    1.80
   4   6  -3   44.60    1.90
   4   6  -3   39.80    2.00
   4   6  -3   40.60    1.80
   4   6  -3   42.50    1.70
  -4  -6   3   42.00    2.20
  -4  -6   3   39.80    2.00
  -4  -6   3   43.80    2.90
   4   7  -3   22.90    1.50
   4   7  -3   25.70    1.50
   4   7  -3   23.90    1.30
   4   7  -3   23.80    1.30
   4   7  -3   26.00    1.40
  -4  -7   3   25.50    1.50
  -4  -7   3   24.00    1.70
  -4  -7   3   25.20    2.30
   4   8  -3   16.80    1.30
   4   8  -3   18.90    1.20
   4   8  -3   19.80    1.30
   4   8  -3   17.90    1.10
  -4  -8   3   19.90    1.70
  -4  -8   3   15.60    2.30
   4   9  -3    0.00    0.30
   4   9  -3    0.20    0.40
   4   9  -3    1.50    0.70
  -4  -9   3   -0.80    0.50
   3  -7  -3   10.70    2.10
  -3   7   3   11.20    1.70
  -3   7   3    8.40    1.30
  -3   7   3   11.60    1.60
   3  -6  -3  235.68    8.60
   3  -6  -3  210.78    9.70
   3  -6  -3  232.68    8.30
  -3   6   3  239.48    8.80
  -3   6   3  241.18    9.10
  -3   6   3  240.88    8.90
  -3   6   3  225.68   10.10
   3  -5  -3  118.69    4.70
   3  -5  -3  112.49    4.40
   3  -5  -3  111.39    5.60
  -3   5   3  117.99    4.90
  -3   5   3  105.59    5.60
  -3   5   3  124.19    5.10
  -3   5   3  119.79    4.90
   3  -4  -3    0.00    0.30
   3  -4  -3   -0.30    0.50
   3  -4  -3    0.20    0.20
   3  -4  -3    0.90    0.40
   3  -4  -3    0.40    0.20
  -3   4   3    0.50    0.50
  -3   4   3    0.30    0.30
  -3   4   3   -0.10    0.40
  -3   4   3    0.10    0.40
  -3   4   3    0.00    0.50
  -3   4   3    0.70    0.40
  -3   4   3   -0.60    0.30
  -3   4   3    0.10    0.40
   3  -3  -3   34.90    1.90
   3  -3  -3   36.70    1.50
   3  -3  -3   35.90    1.80
   3  -3  -3   37.20    1.90
   3  -3  -3   36.70    1.90
   3  -3  -3   37.80    1.50
   3  -3  -3   37.50    2.40
  -3   3   3   38.40    1.90
  -3   3   3   36.20    1.60
  -3   3   3   38.20    1.80
  -3   3   3   40.10    2.00
  -3   3   3   36.20    1.90
  -3   3   3   33.50    1.80
  -3   3   3   30.90    2.10
  -3   3   3   38.40    2.10
   3  -2  -3   22.40    1.30
   3  -2  -3   23.60    1.30
   3  -2  -3   22.90    1.70
   3  -2  -3   24.40    1.50
   3  -2  -3   22.80    1.10
   3  -2  -3   23.40    1.30
   3  -2  -3   24.00    1.30
   3  -2  -3   24.30    1.10
  -3   2   3   22.30    1.30
  -3   2   3   25.20    1.40
  -3   2   3   25.00    1.40
  -3   2   3   23.80    1.20
  -3   2   3   25.30    1.50
  -3   2   3   24.20    1.40
  -3   2   3   22.90    1.50
   3  -1  -3    4.70    0.80
   3  -1  -3    3.90    0.50
   3  -1  -3    5.50    0.70
   3  -1  -3    4.30    0.50
   3  -1  -3    4.90    0.60
   3  -1  -3    4.20    0.50
   3  -1  -3    6.10    0.70
   3  -1  -3    5.50    0.70
   3  -1  -3    5.70    0.70
  -3   1   3    5.10    0.70
  -3   1   3    5.10    0.70
  -3   1   3    6.30    0.70
  -3   1   3    5.10    0.60
  -3   1   3    6.50    0.70
  -3   1   3    6.80    0.70
  -3   1   3    5.00    0.60
  -3   1   3    5.40    0.70
   3   0  -3   65.39    2.60
   3   0  -3   65.09    2.70
   3   0  -3   68.79    2.80
   3   0  -3   67.19    2.60
   3   0  -3   66.09    2.70
   3   0  -3   64.59    2.60
   3   0  -3   66.79    2.70
   3   0  -3   63.29    2.60
   3   0  -3   61.59    2.60
   3   0  -3   68.79    2.80
  -3   0   3   69.99    2.70
  -3   0   3   70.99    2.50
  -3   0   3   70.09    2.60
  -3   0   3   68.69    2.70
  -3   0   3   69.09    2.70
  -3   0   3   65.59    2.70
  -3   0   3   72.79    2.50
  -3   0   3   67.99    2.60
  -3   0   3   70.39    2.70
   3   1  -3   55.89    2.30
   3   1  -3   52.79    2.30
   3   1  -3   53.49    2.20
   3   1  -3   53.49    2.20
   3   1  -3   56.49    2.10
   3   1  -3   62.79    2.40
   3   1  -3   56.09    2.30
   3   1  -3   52.39    2.30
   3   1  -3   58.59    2.20
   3   1  -3   58.89    2.20
   3   1  -3   55.59    2.30
   3   1  -3   55.59    2.00
  -3  -1   3   55.79    2.40
  -3  -1   3   53.39    2.20
  -3  -1   3   54.69    2.20
  -3  -1   3   59.19    2.30
  -3  -1   3   59.69    2.20
  -3  -1   3   58.49    2.00
   3   2  -3   13.10    0.80
   3   2  -3   12.90    0.80
   3   2  -3   13.90    0.90
   3   2  -3   14.30    0.60
   3   2  -3   13.60    0.80
   3   2  -3   14.80    0.80
   3   2  -3   14.40    0.90
   3   2  -3   14.20    0.90
   3   2  -3   14.10    0.90
   3   2  -3   13.10    0.70
  -3  -2   3   14.60    0.90
  -3  -2   3   13.50    0.70
  -3  -2   3   14.50    1.10
  -3  -2   3   15.30    0.90
  -3  -2   3   14.20    0.70
  -3  -2   3   14.50    0.80
  -3  -2   3   15.50    0.90
  -3  -2   3   13.30    0.90
   3   3  -3  118.39    4.40
   3   3  -3  117.39    4.10
   3   3  -3  119.09    4.40
   3   3  -3  121.09    4.20
   3   3  -3  117.29    4.20
   3   3  -3  118.39    4.20
   3   3  -3  120.29    3.90
   3   3  -3  116.99    4.30
   3   3  -3  113.69    4.00
  -3  -3   3  122.39    4.40
  -3  -3   3  117.39    4.90
  -3  -3   3  122.09    4.10
  -3  -3   3  118.79    4.10
  -3  -3   3  119.79    4.50
  -3  -3   3  123.69    4.40
  -3  -3   3  121.09    4.10
   3   4  -3   73.49    2.90
   3   4  -3   71.89    2.70
   3   4  -3   75.89    2.80
   3   4  -3   73.79    2.70
   3   4  -3   72.99    2.80
   3   4  -3   73.69    2.80
   3   4  -3   69.49    2.90
   3   4  -3   74.39    2.60
  -3  -4   3   77.19    3.10
  -3  -4   3   74.39    2.70
  -3  -4   3   72.59    3.60
  -3  -4   3   75.69    2.60
  -3  -4   3   72.59    2.90
  -3  -4   3   78.89    3.00
   3   5  -3    6.20    0.40
   3   5  -3    5.20    0.60
   3   5  -3    5.70    0.60
   3   5  -3    5.70    0.50
   3   5  -3    6.40    0.50
   3   5  -3    7.10    0.80
   3   5  -3    6.50    0.80
   3   5  -3    5.90    0.50
   3   5  -3    7.20    0.90
  -3  -5   3    5.70    1.10
  -3  -5   3    6.30    0.80
  -3  -5   3    7.10    0.90
  -3  -5   3    5.70    0.70
  -3  -5   3    7.10    0.90
   3   6  -3   11.30    0.90
   3   6  -3   11.10    0.60
   3   6  -3   12.40    0.90
   3   6  -3   14.20    1.40
   3   6  -3   11.70    0.70
   3   6  -3   10.00    0.80
   3   6  -3   11.80    0.80
   3   6  -3   10.80    0.80
  -3  -6   3   10.00    1.60
  -3  -6   3   10.90    1.00
  -3  -6   3   12.10    1.40
  -3  -6   3   12.70    0.90
  -3  -6   3   11.80    1.10
   3   7  -3  101.69    4.00
   3   7  -3  102.19    3.90
   3   7  -3   99.89    4.00
   3   7  -3  101.79    3.90
  -3  -7   3  108.29    4.50
  -3  -7   3  103.59    3.90
  -3  -7   3  100.89    4.60
  -3  -7   3   98.29    4.20
  -3  -7   3  107.09    5.40
   3   8  -3    0.50    0.40
   3   8  -3   -0.10    0.30
   3   8  -3    0.10    0.60
   3   8  -3   -0.50    0.30
  -3  -8   3   -0.10    0.60
  -3  -8   3   -0.50    0.70
  -3  -8   3    1.30    0.80
   3   9  -3    0.50    0.40
   3   9  -3    0.10    0.40
   3   9  -3    0.00    0.50
  -3  -9   3    0.40    0.80
  -3  -9   3   -0.50    0.80
   2  -8  -3    7.90    1.80
   2  -8  -3    4.70    1.50
  -2   8   3    4.60    1.10
  -2   8   3    4.60    1.00
  -2   8   3    5.00    1.30
   2  -7  -3   74.89    4.80
   2  -7  -3   80.99    4.50
  -2   7   3   86.09    4.10
  -2   7   3   81.59    4.10
  -2   7   3   83.19    3.80
   2  -6  -3   34.80    1.90
   2  -6  -3   30.90    2.60
  -2   6   3   29.90    1.90
  -2   6   3   28.70    2.70
  -2   6   3   27.70    2.00
  -2   6   3   33.80    2.10
   2  -5  -3   79.89    3.30
   2  -5  -3   84.59    3.50
   2  -5  -3   86.09    3.50
   2  -5  -3   79.49    4.30
  -2   5   3   81.59    3.70
  -2   5   3   82.49    3.70
  -2   5   3   76.99    4.40
  -2   5   3   79.79    3.40
  -2   5   3   83.19    3.60
  -2   5   3   89.29    3.50
   2  -4  -3   16.10    1.10
   2  -4  -3   14.10    1.00
   2  -4  -3   15.10    1.80
   2  -4  -3   16.40    1.10
   2  -4  -3   15.20    0.60
   2  -4  -3   15.30    0.60
   2  -4  -3   17.60    1.10
  -2   4   3   14.50    1.00
  -2   4   3   17.10    1.20
  -2   4   3   15.40    1.10
  -2   4   3   16.70    1.20
  -2   4   3   16.10    0.80
  -2   4   3   15.40    1.60
  -2   4   3   16.40    1.30
  -2   4   3   16.20    1.10
   2  -3  -3    0.20    0.30
   2  -3  -3   -0.10    0.40
   2  -3  -3    0.40    0.30
   2  -3  -3    0.40    0.20
   2  -3  -3    0.20    0.10
   2  -3  -3    0.40    0.30
   2  -3  -3    0.40    0.30
  -2   3   3    0.50    0.20
  -2   3   3    0.80    0.40
  -2   3   3    0.30    0.20
  -2   3   3    0.40    0.30
  -2   3   3    0.30    0.40
  -2   3   3    0.30    0.30
  -2   3   3    0.20    0.30
  -2   3   3    0.20    0.30
   2  -2  -3    8.00    0.80
   2  -2  -3    7.90    0.50
   2  -2  -3    7.10    0.60
   2  -2  -3    5.80    0.70
   2  -2  -3    8.20    0.70
   2  -2  -3    7.40    0.70
   2  -2  -3    8.00    0.50
   2  -2  -3    8.50    1.10
  -2   2   3    7.60    0.80
  -2   2   3    8.40    0.70
  -2   2   3    7.30    0.80
  -2   2   3    8.30    0.60
  -2   2   3    7.40    0.70
  -2   2   3    7.60    0.60
  -2   2   3    7.60    0.60
  -2   2   3    7.30    0.60
  -2   2   3    7.80    0.80
  -2   2   3    9.50    0.90
   2  -1  -3 1094.09   34.40
   2  -1  -3 1090.39   34.50
   2  -1  -3 1098.99   34.40
   2  -1  -3 1044.20   34.30
   2  -1  -3  938.91   34.50
   2  -1  -3 1050.49   34.20
   2  -1  -3 1065.19   34.60
   2  -1  -3 1022.70   34.20
   2  -1  -3 1063.99   34.40
   2  -1  -3 1059.49   34.40
  -2   1   3 1087.99   34.40
  -2   1   3 1081.49   34.40
  -2   1   3 1102.09   34.30
  -2   1   3 1031.70   34.30
  -2   1   3 1058.19   34.50
  -2   1   3 1120.09   34.30
  -2   1   3 1047.70   34.20
  -2   1   3 1117.99   34.40
  -2   1   3 1076.29   34.40
  -2   1   3 1059.99   34.30
  -2   1   3 1044.20   34.40
   2   0  -3   25.70    1.30
   2   0  -3   27.40    1.30
   2   0  -3   28.30    1.30
   2   0  -3   27.20    1.30
   2   0  -3   29.10    1.20
   2   0  -3   26.50    1.20
   2   0  -3   27.80    1.30
   2   0  -3   29.00    1.20
   2   0  -3   27.40    1.30
   2   0  -3   28.30    1.30
   2   0  -3   29.40    1.40
  -2   0   3   28.30    1.30
  -2   0   3   27.50    1.30
  -2   0   3   30.50    1.30
  -2   0   3   29.40    1.10
  -2   0   3   28.00    1.30
  -2   0   3   29.20    1.30
  -2   0   3   27.90    1.30
  -2   0   3   28.60    1.30
  -2   0   3   29.20    1.30
  -2   0   3   31.00    1.20
  -2   0   3   27.70    1.30
   2   1  -3    2.50    0.40
   2   1  -3    2.90    0.40
   2   1  -3    2.60    0.30
   2   1  -3    2.80    0.40
   2   1  -3    2.80    0.40
   2   1  -3    3.00    0.40
   2   1  -3    2.20    0.30
   2   1  -3    2.20    0.40
   2   1  -3    2.70    0.40
   2   1  -3    3.50    0.40
  -2  -1   3    2.70    0.30
  -2  -1   3    2.70    0.40
  -2  -1   3    2.50    0.40
  -2  -1   3    2.80    0.50
  -2  -1   3    2.30    0.30
  -2  -1   3    3.00    0.40
  -2  -1   3    2.90    0.30
  -2  -1   3    3.80    0.50
  -2  -1   3    3.30    0.40
  -2  -1   3    3.50    0.50
  -2  -1   3    2.70    0.20
   2   2  -3    8.70    0.60
   2   2  -3    8.20    0.50
   2   2  -3    9.00    0.50
   2   2  -3    8.10    0.60
   2   2  -3    8.80    0.60
   2   2  -3    9.20    0.60
   2   2  -3    7.60    0.50
   2   2  -3    7.80    0.40
  -2  -2   3    7.80    0.60
  -2  -2   3    8.60    0.60
  -2  -2   3    7.60    0.50
  -2  -2   3    8.70    0.60
  -2  -2   3    8.50    0.40
  -2  -2   3    8.50    0.50
  -2  -2   3    9.30    1.10
  -2  -2   3    9.00    0.60
  -2  -2   3    7.80    0.50
  -2  -2   3    9.00    0.50
   2   3  -3    0.40    0.20
   2   3  -3    0.20    0.20
   2   3  -3    0.30    0.20
   2   3  -3    0.20    0.20
   2   3  -3    0.40    0.20
   2   3  -3    0.20    0.10
   2   3  -3    0.20    0.20
   2   3  -3    0.30    0.10
   2   3  -3    0.40    0.20
  -2  -3   3    0.60    0.40
  -2  -3   3    0.30    0.20
  -2  -3   3    0.20    0.10
  -2  -3   3    0.10    0.20
  -2  -3   3    0.20    0.20
  -2  -3   3    0.30    0.10
  -2  -3   3    0.10    0.10
  -2  -3   3    0.20    0.20
   2   4  -3    0.80    0.30
   2   4  -3    0.50    0.30
   2   4  -3    0.50    0.30
   2   4  -3    0.30    0.10
   2   4  -3    0.70    0.20
   2   4  -3    0.50    0.20
   2   4  -3    1.40    0.40
   2   4  -3    0.60    0.20
   2   4  -3    0.70    0.20
   2   4  -3    0.30    0.20
  -2  -4   3    0.10    0.20
  -2  -4   3    0.70    0.30
  -2  -4   3    0.90    0.30
  -2  -4   3    0.40    0.20
  -2  -4   3    0.70    0.20
  -2  -4   3    0.10    0.40
   2   5  -3  110.39    3.90
   2   5  -3  108.79    3.70
   2   5  -3  108.29    4.00
   2   5  -3  105.09    3.90
   2   5  -3  109.19    3.70
   2   5  -3  107.29    3.90
   2   5  -3  104.49    4.00
   2   5  -3  106.49    4.00
   2   5  -3  108.59    4.30
   2   5  -3  106.79    4.00
  -2  -5   3  106.09    3.90
  -2  -5   3  106.89    5.00
  -2  -5   3  108.99    3.80
  -2  -5   3  108.79    3.90
  -2  -5   3  110.29    4.30
  -2  -5   3  111.69    4.60
  -2  -5   3  109.19    4.10
   2   6  -3    0.30    0.20
   2   6  -3    0.00    0.30
   2   6  -3   -0.30    0.20
   2   6  -3   -0.10    0.20
   2   6  -3    0.20    0.30
   2   6  -3    0.30    0.30
   2   6  -3    0.10    0.30
   2   6  -3    0.50    0.20
  -2  -6   3   -0.20    0.50
  -2  -6   3    0.50    0.30
  -2  -6   3    0.30    0.40
  -2  -6   3    0.70    0.30
  -2  -6   3    0.40    0.60
  -2  -6   3    0.40    0.20
   2   7  -3   19.70    1.20
   2   7  -3   19.10    1.20
   2   7  -3   19.10    1.20
   2   7  -3   18.70    1.30
  -2  -7   3   20.20    1.60
  -2  -7   3   18.50    2.40
  -2  -7   3   22.10    2.30
  -2  -7   3   19.20    1.30
   2   8  -3   71.09    3.30
   2   8  -3   75.79    3.20
   2   8  -3   69.49    3.90
  -2  -8   3   72.89    4.20
  -2  -8   3   72.99    4.50
  -2  -8   3   84.69    4.00
   2   9  -3   18.20    1.40
   2   9  -3   19.70    2.30
   2   9  -3   18.50    1.50
  -2  -9   3   18.40    2.70
  -2  -9   3   17.30    2.40
  -2  -9   3   23.30    3.20
   1  -8  -3   11.20    2.10
   1  -8  -3   15.20    2.40
  -1   8   3   12.40    1.60
  -1   8   3   13.70    1.60
  -1   8   3   11.30    1.40
   1  -7  -3    9.40    1.00
   1  -7  -3    7.80    1.60
   1  -7  -3    6.50    1.50
  -1   7   3    9.00    1.30
  -1   7   3    7.80    1.20
  -1   7   3    9.60    1.10
   1  -6  -3   47.10    2.20
   1  -6  -3   44.10    3.00
  -1   6   3   42.50    3.20
  -1   6   3   44.00    2.50
  -1   6   3   45.90    2.30
  -1   6   3   44.70    2.30
  -1   6   3   42.70    2.40
   1  -5  -3    1.10    0.70
   1  -5  -3    1.00    0.40
   1  -5  -3    1.00    0.40
   1  -5  -3    1.20    0.40
  -1   5   3    1.30    0.40
  -1   5   3    0.80    0.40
  -1   5   3    0.80    0.60
  -1   5   3    0.40    0.40
  -1   5   3    1.50    0.50
  -1   5   3    1.40    0.50
  -1   5   3    1.20    0.40
   1  -4  -3   29.30    1.60
   1  -4  -3   29.80    1.40
   1  -4  -3   28.40    2.00
   1  -4  -3   29.70    1.50
   1  -4  -3   28.80    1.50
  -1   4   3   28.60    1.70
  -1   4   3   28.90    2.10
  -1   4   3   29.80    1.60
  -1   4   3   32.40    1.60
  -1   4   3   29.90    1.60
  -1   4   3   31.70    1.60
  -1   4   3   29.30    1.50
  -1   4   3   28.30    1.40
   1  -3  -3   59.89    2.30
   1  -3  -3   56.49    2.50
   1  -3  -3   57.39    2.40
   1  -3  -3   57.69    2.00
   1  -3  -3   55.99    2.00
   1  -3  -3   59.19    2.40
   1  -3  -3   58.99    2.40
   1  -3  -3   56.49    2.80
  -1   3   3   56.79    3.00
  -1   3   3   60.69    2.50
  -1   3   3   63.19    2.40
  -1   3   3   57.19    2.50
  -1   3   3   60.69    2.50
  -1   3   3   60.49    2.30
  -1   3   3   60.49    2.40
  -1   3   3   61.69    2.50
  -1   3   3   61.09    2.40
   1  -2  -3   82.99    3.20
   1  -2  -3   87.39    3.20
   1  -2  -3   85.19    2.90
   1  -2  -3   75.19    3.50
   1  -2  -3   89.59    3.60
   1  -2  -3   84.69    3.10
   1  -2  -3   86.89    3.20
   1  -2  -3   84.69    2.90
   1  -2  -3   87.19    3.10
   1  -2  -3   85.99    3.10
   1  -2  -3   80.69    3.10
  -1   2   3   82.09    3.00
  -1   2   3   88.59    3.30
  -1   2   3   87.09    3.20
  -1   2   3   83.39    3.20
  -1   2   3   85.39    2.90
  -1   2   3   92.39    3.20
  -1   2   3   80.29    3.50
  -1   2   3   83.69    3.10
  -1   2   3   87.49    3.20
  -1   2   3   87.39    3.00
  -1   2   3   83.49    3.20
   1  -1  -3    9.40    0.60
   1  -1  -3    9.70    0.70
   1  -1  -3    9.70    0.60
   1  -1  -3    9.80    0.50
   1  -1  -3    9.90    0.60
   1  -1  -3    9.10    0.80
   1  -1  -3    9.60    0.60
   1  -1  -3   10.90    0.60
   1  -1  -3   10.80    0.70
   1  -1  -3    9.50    0.50
   1  -1  -3   10.10    0.80
  -1   1   3   10.70    0.60
  -1   1   3    7.70    0.60
  -1   1   3    8.40    0.60
  -1   1   3   10.50    0.60
  -1   1   3    9.50    0.50
  -1   1   3   10.60    0.60
  -1   1   3   10.10    0.50
  -1   1   3   10.10    0.60
  -1   1   3    9.50    0.70
  -1   1   3    9.80    0.60
  -1   1   3    9.00    0.60
   1   0  -3    6.30    0.50
   1   0  -3    6.40    0.40
   1   0  -3    5.50    0.40
   1   0  -3    6.50    0.50
   1   0  -3    6.60    0.50
   1   0  -3    5.30    0.40
   1   0  -3    5.80    0.50
   1   0  -3    5.80    0.40
   1   0  -3    6.20    0.60
   1   0  -3    6.40    0.40
  -1   0   3    6.30    0.40
  -1   0   3    5.10    0.40
  -1   0   3    6.00    0.50
  -1   0   3    5.60    0.40
  -1   0   3    4.50    0.50
  -1   0   3    6.30    0.40
  -1   0   3    5.90    0.40
  -1   0   3    6.30    0.40
  -1   0   3    5.50    0.40
  -1   0   3    6.80    0.50
   1   1  -3   54.29    2.00
   1   1  -3   56.09    2.00
   1   1  -3   53.79    2.00
   1   1  -3   52.59    2.10
   1   1  -3   55.39    2.20
   1   1  -3   54.29    2.10
   1   1  -3   52.19    2.00
   1   1  -3   52.99    2.00
  -1  -1   3   54.79    2.00
  -1  -1   3   54.99    2.10
  -1  -1   3   57.29    2.00
  -1  -1   3   59.49    2.40
  -1  -1   3   54.99    2.00
  -1  -1   3   54.59    2.00
  -1  -1   3   56.89    2.10
  -1  -1   3   55.99    1.90
   1   2  -3   47.60    1.90
   1   2  -3   51.29    1.90
   1   2  -3   48.00    1.90
   1   2  -3   51.39    1.70
   1   2  -3   51.29    1.80
   1   2  -3   49.30    1.90
   1   2  -3   49.50    1.90
   1   2  -3   49.70    1.90
  -1  -2   3   49.80    1.80
  -1  -2   3   49.70    2.40
  -1  -2   3   48.40    1.90
  -1  -2   3   49.40    1.90
  -1  -2   3   51.39    2.00
  -1  -2   3   49.40    1.90
  -1  -2   3   50.09    2.00
  -1  -2   3   49.99    1.90
   1   3  -3    3.70    0.50
   1   3  -3    3.60    0.40
   1   3  -3    4.00    0.30
   1   3  -3    3.30    0.40
   1   3  -3    3.70    0.40
   1   3  -3    4.00    0.60
   1   3  -3    3.60    0.40
   1   3  -3    3.50    0.30
   1   3  -3    3.50    0.40
  -1  -3   3    4.00    0.50
  -1  -3   3    4.10    0.40
  -1  -3   3    3.30    0.70
  -1  -3   3    5.00    0.50
  -1  -3   3    3.30    0.40
  -1  -3   3    3.80    0.40
  -1  -3   3    3.40    0.40
   1   4  -3   91.59    3.50
   1   4  -3   91.39    3.50
   1   4  -3   95.49    3.50
   1   4  -3   93.99    3.10
   1   4  -3   90.89    3.40
   1   4  -3   93.39    3.50
   1   4  -3   93.59    3.70
   1   4  -3   93.39    3.40
   1   4  -3   98.59    3.40
  -1  -4   3   99.29    3.40
  -1  -4   3   91.69    3.50
  -1  -4   3   91.59    4.20
  -1  -4   3   95.09    3.40
  -1  -4   3   93.99    3.50
  -1  -4   3   94.09    3.70
   1   5  -3    0.50    0.20
   1   5  -3    1.10    0.30
   1   5  -3    0.30    0.30
   1   5  -3    0.40    0.30
   1   5  -3    0.60    0.30
   1   5  -3    0.50    0.30
   1   5  -3    0.40    0.30
   1   5  -3    0.70    0.30
  -1  -5   3    0.20    0.50
  -1  -5   3    0.40    0.20
  -1  -5   3    0.00    0.20
  -1  -5   3    0.70    0.30
  -1  -5   3    0.50    0.40
  -1  -5   3    0.70    0.30
  -1  -5   3   -0.20    0.40
   1   6  -3    6.60    0.80
   1   6  -3    6.80    0.90
   1   6  -3    7.90    1.10
   1   6  -3    7.00    0.70
   1   6  -3    7.90    0.90
   1   6  -3    7.30    0.70
   1   6  -3    7.50    0.50
  -1  -6   3    6.80    0.60
  -1  -6   3    6.20    0.70
  -1  -6   3    7.80    1.20
  -1  -6   3    8.90    1.40
  -1  -6   3    7.40    0.80
  -1  -6   3    5.10    1.30
  -1  -6   3    8.10    0.90
   1   7  -3    0.50    0.40
   1   7  -3    0.20    0.50
   1   7  -3   -0.20    0.30
   1   7  -3   -0.50    0.20
   1   7  -3    0.20    0.40
  -1  -7   3    0.40    0.70
  -1  -7   3    0.20    0.50
  -1  -7   3   -0.70    0.60
  -1  -7   3   -0.30    0.20
   1   8  -3    0.50    0.70
   1   8  -3    1.10    0.60
   1   8  -3   -0.10    0.40
  -1  -8   3    0.40    0.60
  -1  -8   3    0.80    0.90
  -1  -8   3   -1.00    0.60
   1   9  -3    0.10    0.70
   1   9  -3   -0.40    0.50
   1   9  -3    0.00    0.40
  -1  -9   3   -0.40    0.80
  -1  -9   3   -0.30    0.80
  -1  -9   3    1.30    0.80
   0  -9  -3   -0.40    0.70
   0  -9  -3    0.10    0.90
   0   9   3   -0.30    0.40
   0   9   3    1.30    0.80
   0   9   3   -0.50    0.50
   0  -8  -3   11.20    2.00
   0  -8  -3    7.80    1.70
   0   8   3    8.50    1.40
   0   8   3   12.80    1.30
   0   8   3    8.90    1.20
   0  -7  -3   25.40    2.30
   0  -7  -3   26.30    2.30
   0   7   3   19.90    2.30
   0   7   3   22.00    1.50
   0   7   3   21.90    1.70
   0   7   3   21.80    1.60
   0   7   3   23.90    1.60
   0  -6  -3   10.70    1.10
   0  -6  -3    9.20    1.50
   0  -6  -3   10.00    0.80
   0  -6  -3    8.60    1.50
   0  -6  -3    9.80    0.80
   0   6   3    8.40    1.60
   0   6   3    8.20    0.90
   0   6   3   10.10    1.10
   0   6   3   10.10    1.00
   0   6   3    7.90    1.20
   0   6   3    8.60    0.90
   0   6   3    7.10    0.90
   0  -5  -3   29.30    2.10
   0  -5  -3   29.50    1.60
   0  -5  -3   29.20    1.50
   0  -5  -3   30.90    2.10
   0  -5  -3   32.40    1.50
   0   5   3   33.00    1.60
   0   5   3   28.50    1.70
   0   5   3   31.20    1.70
   0   5   3   30.90    1.60
   0   5   3   31.00    1.60
   0   5   3   28.70    2.30
   0   5   3   32.20    1.60
   0  -4  -3   13.30    1.20
   0  -4  -3   14.10    0.90
   0  -4  -3   13.20    0.80
   0  -4  -3   14.00    1.20
   0  -4  -3   11.50    0.80
   0   4   3   12.40    1.00
   0   4   3   14.10    0.90
   0   4   3   14.10    0.90
   0   4   3   12.80    0.90
   0   4   3   13.40    0.80
   0   4   3   10.50    1.30
   0   4   3   12.30    0.80
   0   4   3   13.00    0.90
   0  -3  -3   29.70    1.70
   0  -3  -3   29.50    1.40
   0  -3  -3   28.50    1.50
   0  -3  -3   32.30    1.80
   0  -3  -3   29.90    1.30
   0  -3  -3   32.90    1.40
   0  -3  -3   29.10    1.40
   0  -3  -3   30.40    1.30
   0   3   3   27.00    1.40
   0   3   3   31.10    1.10
   0   3   3   30.10    1.90
   0   3   3   31.90    1.40
   0   3   3   29.20    1.40
   0   3   3   30.80    1.40
   0   3   3   30.30    1.10
   0   3   3   31.30    1.30
   0   3   3   31.00    1.40
   0   3   3   30.80    1.40
   0  -2  -3    3.20    0.40
   0  -2  -3    2.90    0.40
   0  -2  -3    2.40    0.50
   0  -2  -3    3.50    0.40
   0  -2  -3    2.70    0.30
   0  -2  -3    2.80    0.30
   0  -2  -3    3.80    0.60
   0  -2  -3    3.00    0.20
   0  -2  -3    3.40    0.40
   0  -2  -3    3.10    0.20
   0  -2  -3    3.00    0.50
   0   2   3    3.10    0.40
   0   2   3    2.90    0.40
   0   2   3    4.10    0.40
   0   2   3    3.80    0.40
   0   2   3    3.70    0.20
   0   2   3    3.80    0.40
   0   2   3    3.90    0.50
   0   2   3    3.20    0.40
   0   2   3    2.80    0.60
   0   2   3    3.30    0.20
   0  -1  -3    0.50    0.20
   0  -1  -3    0.70    0.20
   0  -1  -3    0.90    0.20
   0  -1  -3    0.70    0.20
   0  -1  -3    0.50    0.30
   0  -1  -3    0.70    0.20
   0  -1  -3    0.40    0.20
   0  -1  -3    0.30    0.20
   0  -1  -3    0.50    0.10
   0  -1  -3    0.60    0.20
   0  -1  -3    0.70    0.30
   0   1   3    0.90    0.20
   0   1   3    0.10    0.20
   0   1   3    0.90    0.20
   0   1   3    0.50    0.20
   0   1   3    0.60    0.20
   0   1   3    0.90    0.20
   0   1   3    0.70    0.20
   0   1   3    0.50    0.20
   0   1   3    0.50    0.30
   0   0  -3   99.59    3.50
   0   0  -3  102.39    3.50
   0   0  -3  107.99    3.50
   0   0  -3  103.79    3.70
   0   0  -3  100.79    3.50
   0   0  -3  101.39    3.40
   0   0  -3  103.49    3.50
   0   0  -3  100.59    3.40
   0   0  -3  100.39    3.40
   0   0   3   91.59    3.50
   0   0   3  100.49    3.40
   0   0   3  104.29    3.50
   0   0   3  102.69    3.50
   0   0   3  101.49    3.70
   0   0   3  101.69    3.50
   0   0   3  103.79    3.50
   0   0   3   95.19    3.40
   0   0   3   98.59    3.50
   0   1  -3   39.70    1.60
   0   1  -3   40.00    1.60
   0   1  -3   42.10    1.60
   0   1  -3   42.20    1.80
   0   1  -3   39.00    1.60
   0   1  -3   41.80    1.60
   0   1  -3   42.40    1.50
   0   1  -3   41.10    1.60
   0   1  -3   40.60    1.60
   0  -1   3   39.90    1.40
   0  -1   3   40.60    1.50
   0  -1   3   40.80    1.60
   0  -1   3   42.90    1.60
   0  -1   3   41.10    1.50
   0  -1   3   42.30    1.60
   0  -1   3   43.80    2.10
   0  -1   3   41.30    1.60
   0  -1   3   40.50    1.60
   0  -1   3   39.30    1.60
   0   2  -3   69.89    2.40
   0   2  -3   70.19    2.60
   0   2  -3   67.29    2.60
   0   2  -3   66.89    2.60
   0   2  -3   66.99    2.30
   0   2  -3   68.39    2.50
   0   2  -3   68.39    2.50
   0   2  -3   68.79    2.50
   0   2  -3   65.39    2.50
   0  -2   3   67.59    2.50
   0  -2   3   74.99    3.10
   0  -2   3   72.29    2.50
   0  -2   3   70.39    2.50
   0  -2   3   66.59    2.30
   0  -2   3   66.09    2.40
   0  -2   3   67.99    2.60
   0  -2   3   68.89    2.50
   0   3  -3   10.20    0.80
   0   3  -3    9.10    0.70
   0   3  -3   11.20    0.70
   0   3  -3    9.50    0.70
   0   3  -3    9.80    0.70
   0   3  -3   10.20    0.70
   0   3  -3   10.20    0.60
   0   3  -3   10.50    0.50
   0   3  -3    9.80    0.60
   0  -3   3   11.80    0.70
   0  -3   3   10.70    0.70
   0  -3   3    9.90    0.70
   0  -3   3   10.30    0.80
   0  -3   3    8.80    0.70
   0  -3   3    9.80    1.20
   0   4  -3    8.30    0.50
   0   4  -3    7.10    0.80
   0   4  -3    7.90    0.60
   0   4  -3    7.10    0.70
   0   4  -3    8.20    0.90
   0   4  -3    6.30    0.70
   0   4  -3    8.20    0.60
   0   4  -3    8.50    0.70
   0  -4   3    7.50    0.60
   0  -4   3    7.60    1.20
   0  -4   3    9.40    1.00
   0  -4   3    8.30    0.70
   0  -4   3    7.10    0.80
   0  -4   3    8.60    0.60
   0  -4   3    6.10    0.70
   0   5  -3    2.80    0.40
   0   5  -3    1.90    0.50
   0   5  -3    2.50    0.40
   0   5  -3    2.40    0.50
   0   5  -3    2.50    0.60
   0   5  -3    2.80    0.40
   0   5  -3    1.70    0.50
   0   5  -3    2.00    0.70
   0   5  -3    2.30    0.50
   0  -5   3    2.90    0.50
   0  -5   3    4.70    1.10
   0  -5   3    3.50    0.90
   0  -5   3    2.30    0.60
   0  -5   3    2.60    0.50
   0  -5   3    2.60    0.40
   0  -5   3    2.30    0.70
   0   6  -3    0.40    0.30
   0   6  -3    1.40    0.60
   0   6  -3    0.40    0.40
   0   6  -3   -0.20    0.40
   0   6  -3    0.30    0.30
   0   6  -3    0.90    0.30
   0   6  -3    1.30    0.50
   0  -6   3    0.30    0.50
   0  -6   3    0.60    0.30
   0  -6   3    0.80    0.70
   0  -6   3   -0.50    0.60
   0  -6   3    0.00    0.30
   0   7  -3    0.90    0.60
   0   7  -3    0.90    0.60
   0   7  -3    1.50    0.60
   0   7  -3    1.10    0.50
   0  -7   3    1.30    0.90
   0  -7   3    0.90    0.70
   0  -7   3    1.40    0.90
   0   8  -3   12.40    1.80
   0   8  -3   15.20    1.50
   0   8  -3   10.20    1.40
   0  -8   3   13.40    2.00
   0  -8   3   12.40    2.20
   0  -8   3   11.20    2.10
  -1  -9  -3   30.60    2.90
  -1  -9  -3   33.80    2.90
   1   9   3   32.00    2.10
   1   9   3   33.70    1.90
   1   9   3   33.50    2.50
  -1  -8  -3    8.60    1.60
  -1  -8  -3   10.70    1.90
   1   8   3    8.40    1.30
   1   8   3    8.90    1.00
   1   8   3    7.60    1.10
  -1  -7  -3    5.20    0.60
  -1  -7  -3    4.90    1.10
  -1  -7  -3    4.20    1.10
  -1  -7  -3    6.90    1.40
   1   7   3    3.60    0.70
   1   7   3    4.60    1.30
   1   7   3    4.50    1.00
   1   7   3    3.80    0.60
   1   7   3    4.30    0.70
  -1  -6  -3    2.00    0.70
  -1  -6  -3    2.10    0.40
  -1  -6  -3    2.80    0.90
  -1  -6  -3    2.80    0.40
  -1  -6  -3    3.30    0.60
   1   6   3    2.10    0.90
   1   6   3    2.90    0.50
   1   6   3    2.30    0.50
   1   6   3    2.00    0.40
   1   6   3    2.80    0.60
   1   6   3    2.30    0.50
   1   6   3    3.20    0.80
  -1  -5  -3   41.90    1.70
  -1  -5  -3   42.00    1.90
  -1  -5  -3   41.70    2.40
  -1  -5  -3   42.40    1.70
  -1  -5  -3   43.00    2.50
   1   5   3   41.50    1.90
   1   5   3   45.00    1.90
   1   5   3   41.00    2.70
   1   5   3   42.90    1.80
   1   5   3   41.80    1.80
   1   5   3   38.30    2.10
   1   5   3   43.70    1.90
  -1  -4  -3   68.49    2.60
  -1  -4  -3   71.29    2.70
  -1  -4  -3   69.79    3.20
  -1  -4  -3   74.19    2.50
  -1  -4  -3   66.59    3.20
  -1  -4  -3   68.39    2.50
   1   4   3   74.19    2.40
   1   4   3   70.49    2.60
   1   4   3   70.99    2.60
   1   4   3   71.99    2.70
   1   4   3   70.59    2.70
   1   4   3   69.69    2.70
   1   4   3   70.69    2.70
   1   4   3   66.89    3.50
   1   4   3   70.69    2.90
  -1  -3  -3    0.20    0.20
  -1  -3  -3    0.40    0.20
  -1  -3  -3    0.90    0.30
  -1  -3  -3    0.40    0.30
  -1  -3  -3    0.40    0.40
  -1  -3  -3    0.20    0.30
  -1  -3  -3    0.40    0.20
  -1  -3  -3    0.50    0.20
  -1  -3  -3    0.60    0.20
  -1  -3  -3    0.40    0.20
   1   3   3    0.10    0.10
   1   3   3    0.70    0.30
   1   3   3    0.50    0.20
   1   3   3    0.50    0.20
   1   3   3    0.50    0.30
   1   3   3    0.40    0.10
   1   3   3    0.50    0.20
   1   3   3    1.00    0.20
  -1  -2  -3   13.30    0.70
  -1  -2  -3   11.70    1.00
  -1  -2  -3   14.70    0.60
  -1  -2  -3   14.60    0.70
  -1  -2  -3   13.00    0.60
  -1  -2  -3   13.70    0.70
  -1  -2  -3   14.00    0.90
  -1  -2  -3   13.40    0.70
  -1  -2  -3   13.90    0.90
   1   2   3   14.10    0.70
   1   2   3   14.40    0.60
   1   2   3   12.70    0.60
   1   2   3   13.90    0.60
   1   2   3   13.20    0.70
   1   2   3   14.10    0.70
   1   2   3   14.40    0.70
   1   2   3   13.00    1.00
   1   2   3   14.30    0.70
  -1  -1  -3  428.56   13.70
  -1  -1  -3  413.76   13.60
  -1  -1  -3  412.36   13.60
  -1  -1  -3  413.26   13.60
  -1  -1  -3  412.16   14.00
  -1  -1  -3  416.46   13.60
   1   1   3  416.26   13.60
   1   1   3  428.36   13.60
   1   1   3  431.56   13.60
   1   1   3  416.36   13.70
   1   1   3  432.46   14.00
   1   1   3  429.86   13.50
   1   1   3  416.86   13.70
   1   1   3  419.86   13.60
   1   1   3  420.56   13.60
  -1   0  -3  985.50   30.80
  -1   0  -3  942.51   30.80
  -1   0  -3  975.60   31.00
  -1   0  -3  881.81   30.80
  -1   0  -3 1001.50   30.80
  -1   0  -3  906.11   30.90
  -1   0  -3  957.20   31.00
  -1   0  -3 1004.20   32.50
  -1   0  -3  916.31   31.00
   1   0   3  981.20   31.20
   1   0   3 1018.00   31.60
   1   0   3  966.40   30.80
   1   0   3  973.20   32.40
   1   0   3  923.11   31.00
   1   0   3  945.71   30.80
   1   0   3  923.11   31.00
   1   0   3  986.70   31.90
   1   0   3  962.80   31.10
  -1   1  -3  162.68    5.60
  -1   1  -3  173.18    5.60
  -1   1  -3  165.08    5.50
  -1   1  -3  167.28    5.70
  -1   1  -3  166.28    5.70
  -1   1  -3  161.38    5.70
  -1   1  -3  161.68    5.60
  -1   1  -3  163.38    5.70
  -1   1  -3  161.98    5.60
  -1   1  -3  166.48    5.90
   1  -1   3  173.58    5.70
   1  -1   3  161.88    5.50
   1  -1   3  160.98    5.70
   1  -1   3  175.18    5.70
   1  -1   3  167.08    5.60
   1  -1   3  177.98    5.60
   1  -1   3  159.68    5.60
   1  -1   3  166.18    5.70
   1  -1   3  169.78    5.60
  -1   2  -3   34.00    1.40
  -1   2  -3   32.30    1.50
  -1   2  -3   32.40    1.50
  -1   2  -3   33.50    1.40
  -1   2  -3   33.00    1.30
  -1   2  -3   31.00    1.50
  -1   2  -3   34.80    1.50
  -1   2  -3   33.40    1.40
  -1   2  -3   33.00    1.50
   1  -2   3   32.40    1.30
   1  -2   3   32.80    1.40
   1  -2   3   31.60    1.20
   1  -2   3   33.40    1.80
   1  -2   3   32.80    1.50
   1  -2   3   32.00    1.50
   1  -2   3   31.70    1.50
   1  -2   3   32.50    1.20
   1  -2   3   35.80    1.50
   1  -2   3   32.00    1.30
   1  -2   3   33.90    1.50
  -1   3  -3    3.10    0.50
  -1   3  -3    2.90    0.30
  -1   3  -3    2.70    0.50
  -1   3  -3    2.10    0.40
  -1   3  -3    2.80    0.50
  -1   3  -3    2.90    0.50
  -1   3  -3    2.50    0.40
  -1   3  -3    2.40    0.40
  -1   3  -3    3.20    0.60
   1  -3   3    2.80    0.50
   1  -3   3    3.10    0.50
   1  -3   3    2.70    0.50
   1  -3   3    2.50    0.50
   1  -3   3    3.10    0.40
   1  -3   3    3.30    0.70
   1  -3   3    3.10    0.40
  -1   4  -3   -0.10    0.20
  -1   4  -3    0.60    0.30
  -1   4  -3   -0.10    0.30
  -1   4  -3    0.10    0.30
  -1   4  -3    0.00    0.30
  -1   4  -3    0.10    0.20
  -1   4  -3    0.20    0.20
  -1   4  -3    0.20    0.30
   1  -4   3   -0.20    0.20
   1  -4   3   -0.10    0.10
   1  -4   3    0.50    0.30
   1  -4   3    0.00    0.20
   1  -4   3   -0.10    0.40
   1  -4   3    0.20    0.20
  -1   5  -3   10.30    1.30
  -1   5  -3    9.10    1.10
  -1   5  -3   11.80    0.80
  -1   5  -3    9.50    1.00
  -1   5  -3   10.30    0.80
  -1   5  -3   13.30    1.30
  -1   5  -3   11.00    1.20
   1  -5   3    9.00    1.50
   1  -5   3    9.80    1.10
   1  -5   3   11.30    0.80
   1  -5   3   10.80    1.10
   1  -5   3   10.20    1.50
   1  -5   3   10.70    0.90
  -1   6  -3    4.40    0.60
  -1   6  -3    2.70    0.70
  -1   6  -3    3.90    0.90
  -1   6  -3    3.20    0.50
  -1   6  -3    4.90    0.80
   1  -6   3    3.00    0.50
   1  -6   3    2.50    0.90
   1  -6   3    5.20    1.30
   1  -6   3    3.10    0.70
   1  -6   3    3.50    1.10
  -1   7  -3   32.00    2.10
  -1   7  -3   31.40    2.20
  -1   7  -3   34.30    2.40
   1  -7   3   37.50    2.70
   1  -7   3   36.40    2.90
   1  -7   3   32.00    2.80
  -1   8  -3   -0.80    0.50
  -1   8  -3    0.00    0.50
  -1   8  -3    0.80    0.70
   1  -8   3    0.00    0.80
   1  -8   3   -0.10    0.80
   1  -8   3    0.50    0.90
  -2 -10  -3    3.70    1.40
  -2 -10  -3    2.80    1.10
   2  10   3    2.50    0.60
   2  10   3    2.60    1.00
   2  10   3    2.20    0.70
  -2  -9  -3   -0.30    0.70
  -2  -9  -3   -0.50    0.70
   2   9   3    0.30    0.40
   2   9   3   -0.20    0.60
   2   9   3   -0.40    0.30
  -2  -8  -3   20.90    2.30
  -2  -8  -3   17.70    2.20
   2   8   3   17.90    1.40
   2   8   3   18.40    1.20
   2   8   3   18.10    1.60
   2   8   3   17.80    1.30
  -2  -7  -3   19.80    2.20
  -2  -7  -3   18.40    1.70
  -2  -7  -3   19.70    1.40
   2   7   3   17.70    2.10
   2   7   3   19.60    1.10
   2   7   3   19.00    1.20
   2   7   3   18.40    1.50
   2   7   3   19.60    0.80
   2   7   3   18.70    1.30
   2   7   3   21.60    1.20
   2   7   3   20.10    0.80
  -2  -6  -3    0.00    0.10
  -2  -6  -3    0.20    0.40
  -2  -6  -3   -0.20    0.30
  -2  -6  -3    0.00    0.50
   2   6   3   -0.10    0.20
   2   6   3   -0.30    0.30
   2   6   3    0.00    0.20
   2   6   3    0.20    0.20
   2   6   3    0.10    0.40
   2   6   3    0.00    0.10
   2   6   3   -0.20    0.20
   2   6   3    0.10    0.30
   2   6   3    0.20    0.10
  -2  -5  -3   22.70    1.00
  -2  -5  -3   22.80    0.80
  -2  -5  -3   23.20    1.20
  -2  -5  -3   22.70    1.10
  -2  -5  -3   20.30    1.50
  -2  -5  -3   19.60    1.60
   2   5   3   22.90    1.10
   2   5   3   21.50    1.00
   2   5   3   21.60    1.00
   2   5   3   20.20    1.80
   2   5   3   19.70    1.30
   2   5   3   22.40    1.00
   2   5   3   22.10    1.00
   2   5   3   22.60    1.20
  -2  -4  -3   42.10    2.00
  -2  -4  -3   44.00    1.80
  -2  -4  -3   47.90    1.60
  -2  -4  -3   47.40    1.70
  -2  -4  -3   46.20    1.60
  -2  -4  -3   46.00    2.20
  -2  -4  -3   48.60    2.40
  -2  -4  -3   44.30    1.80
   2   4   3   51.69    1.90
   2   4   3   44.40    1.70
   2   4   3   44.60    1.70
   2   4   3   43.80    2.00
   2   4   3   42.90    2.60
   2   4   3   47.30    1.80
   2   4   3   44.60    1.70
  -2  -3  -3  261.47    8.40
  -2  -3  -3  236.78    8.70
  -2  -3  -3  226.68    9.20
  -2  -3  -3  284.57    8.90
  -2  -3  -3  263.57    8.50
  -2  -3  -3  263.07    8.40
  -2  -3  -3  267.67    9.10
  -2  -3  -3  268.37    8.60
  -2  -3  -3  259.57    8.50
  -2  -3  -3  265.67    8.40
   2   3   3  260.47    8.50
   2   3   3  265.87    8.50
   2   3   3  263.17    8.50
   2   3   3  263.27    8.50
   2   3   3  266.37    8.50
   2   3   3  253.77    9.30
   2   3   3  243.58    8.70
  -2  -2  -3   16.00    0.70
  -2  -2  -3   14.40    1.10
  -2  -2  -3   14.90    0.70
  -2  -2  -3   15.70    0.70
  -2  -2  -3   14.30    0.70
  -2  -2  -3   15.30    0.70
  -2  -2  -3   16.30    1.00
   2   2   3   16.10    0.70
   2   2   3   13.80    0.80
   2   2   3   15.70    0.70
   2   2   3   15.70    1.10
   2   2   3   15.80    0.60
   2   2   3   15.40    0.70
   2   2   3   15.00    0.70
   2   2   3   15.80    0.70
  -2  -1  -3   82.49    3.20
  -2  -1  -3   90.39    3.10
  -2  -1  -3   90.19    3.10
  -2  -1  -3   88.59    3.30
  -2  -1  -3   89.99    3.40
  -2  -1  -3   86.79    2.90
  -2  -1  -3   87.19    3.10
   2   1   3   88.19    3.20
   2   1   3   88.09    3.20
   2   1   3   88.69    3.10
   2   1   3   88.49    3.10
   2   1   3   88.79    2.90
   2   1   3   90.69    3.10
   2   1   3   88.49    3.10
   2   1   3   89.09    3.10
   2   1   3   92.79    3.40
  -2   0  -3  681.43   22.40
  -2   0  -3  692.93   22.30
  -2   0  -3  677.53   22.30
  -2   0  -3  718.83   22.60
  -2   0  -3  683.43   22.40
  -2   0  -3  686.33   22.30
  -2   0  -3  668.53   22.40
  -2   0  -3  672.23   22.40
   2   0   3  720.13   22.40
   2   0   3  683.63   22.40
   2   0   3  692.23   22.30
   2   0   3  689.63   22.20
   2   0   3  688.83   22.40
   2   0   3  722.63   22.30
   2   0   3  718.63   22.40
   2   0   3  686.13   22.30
   2   0   3  657.23   22.50
  -2   1  -3   29.50    1.50
  -2   1  -3   27.80    1.30
  -2   1  -3   28.50    1.20
  -2   1  -3   27.60    1.40
  -2   1  -3   30.00    1.30
  -2   1  -3   28.00    1.40
  -2   1  -3   28.40    1.30
  -2   1  -3   28.30    1.20
  -2   1  -3   29.80    1.40
   2  -1   3   30.10    1.40
   2  -1   3   30.50    1.50
   2  -1   3   27.50    1.20
   2  -1   3   28.40    1.20
   2  -1   3   30.00    1.40
   2  -1   3   28.90    1.20
   2  -1   3   27.40    1.30
   2  -1   3   27.50    1.30
   2  -1   3   29.00    1.40
   2  -1   3   26.90    1.20
   2  -1   3   29.70    1.30
  -2   2  -3   18.40    1.10
  -2   2  -3   16.90    0.90
  -2   2  -3   16.20    1.10
  -2   2  -3   18.40    1.10
  -2   2  -3   17.60    1.10
  -2   2  -3   17.60    1.00
  -2   2  -3   15.70    1.00
   2  -2   3   16.80    1.00
   2  -2   3   18.30    1.30
   2  -2   3   18.90    0.90
   2  -2   3   17.40    0.90
   2  -2   3   16.40    1.00
   2  -2   3   19.80    1.10
   2  -2   3   16.60    0.90
   2  -2   3   19.10    1.10
   2  -2   3   17.20    1.00
   2  -2   3   18.00    0.80
  -2   3  -3   28.00    1.60
  -2   3  -3   28.40    1.60
  -2   3  -3   26.90    1.60
  -2   3  -3   28.90    1.30
  -2   3  -3   30.60    1.50
  -2   3  -3   30.00    1.70
   2  -3   3   26.90    1.40
   2  -3   3   28.30    1.90
   2  -3   3   29.30    1.30
   2  -3   3   27.80    1.10
   2  -3   3   29.00    1.50
   2  -3   3   30.00    1.60
   2  -3   3   30.70    1.30
   2  -3   3   29.90    1.60
   2  -3   3   28.10    1.30
  -2   4  -3   15.30    1.20
  -2   4  -3   12.40    1.10
  -2   4  -3   14.50    1.10
  -2   4  -3   14.10    0.90
  -2   4  -3   15.20    1.50
  -2   4  -3   13.90    1.10
   2  -4   3   15.00    1.10
   2  -4   3   14.30    1.60
   2  -4   3   15.80    1.10
   2  -4   3   15.60    0.90
   2  -4   3   16.00    1.20
   2  -4   3   13.90    0.60
  -2   5  -3   23.90    1.60
  -2   5  -3   26.90    1.80
  -2   5  -3   26.30    1.80
  -2   5  -3   25.00    1.40
  -2   5  -3   28.10    1.70
   2  -5   3   24.30    1.20
   2  -5   3   23.80    2.20
   2  -5   3   26.30    2.10
   2  -5   3   25.40    1.60
  -2   6  -3   24.60    1.90
  -2   6  -3   25.30    1.80
  -2   6  -3   27.70    2.00
   2  -6   3   21.50    2.60
   2  -6   3   25.90    1.70
   2  -6   3   26.70    2.40
  -2   7  -3    1.00    0.60
  -2   7  -3    1.80    0.70
  -2   7  -3    1.60    0.90
   2  -7   3    1.60    1.10
  -3 -10  -3    0.80    0.90
  -3 -10  -3   -0.60    0.60
   3  10   3    0.20    0.30
   3  10   3    0.30    0.40
   3  10   3    0.70    0.80
  -3  -9  -3    3.40    1.10
  -3  -9  -3    6.40    1.40
   3   9   3    6.10    0.70
   3   9   3    3.40    0.90
   3   9   3    4.90    0.70
  -3  -8  -3   33.20    2.40
  -3  -8  -3   33.40    2.60
   3   8   3   34.60    1.70
   3   8   3   33.70    2.30
   3   8   3   35.10    1.60
   3   8   3   41.20    2.10
   3   8   3   33.50    1.70
  -3  -7  -3   28.50    2.00
  -3  -7  -3   31.00    1.70
  -3  -7  -3   28.80    2.10
  -3  -7  -3   27.50    2.20
   3   7   3   32.10    1.40
   3   7   3   25.90    1.80
   3   7   3   31.50    1.40
   3   7   3   29.30    1.30
   3   7   3   26.60    2.50
   3   7   3   29.20    1.30
   3   7   3   28.80    1.40
   3   7   3   28.90    1.70
  -3  -6  -3   34.10    1.70
  -3  -6  -3   33.60    1.60
  -3  -6  -3   32.70    2.10
  -3  -6  -3   34.60    2.20
  -3  -6  -3   34.00    2.00
   3   6   3   33.60    1.30
   3   6   3   30.50    1.90
   3   6   3   31.70    1.40
   3   6   3   33.80    1.70
   3   6   3   34.10    1.40
   3   6   3   32.50    1.50
   3   6   3   32.00    2.50
  -3  -5  -3   73.29    2.80
  -3  -5  -3   68.09    3.40
  -3  -5  -3   74.99    3.20
  -3  -5  -3   76.39    3.20
   3   5   3   70.59    2.80
   3   5   3   72.79    2.50
   3   5   3   73.49    2.60
   3   5   3   74.19    2.50
   3   5   3   66.69    3.00
   3   5   3   63.89    3.60
   3   5   3   74.89    2.50
  -3  -4  -3  160.28    5.60
  -3  -4  -3  155.38    5.30
  -3  -4  -3  153.18    5.40
  -3  -4  -3  159.08    5.00
  -3  -4  -3  168.68    6.00
  -3  -4  -3  159.58    5.60
  -3  -4  -3  148.99    5.00
   3   4   3  145.09    5.50
   3   4   3  158.38    5.10
   3   4   3  153.48    5.30
   3   4   3  146.09    6.20
   3   4   3  153.48    5.10
   3   4   3  157.28    5.10
   3   4   3  155.88    5.20
  -3  -3  -3  302.57    9.90
  -3  -3  -3  261.87   10.40
  -3  -3  -3  301.27    9.50
  -3  -3  -3  299.87    9.50
  -3  -3  -3  301.97    9.80
  -3  -3  -3  294.77   10.30
  -3  -3  -3  301.07    9.60
   3   3   3  299.27    9.70
   3   3   3  299.37    9.70
   3   3   3  298.17   10.00
   3   3   3  283.67    9.80
   3   3   3  303.97    9.60
   3   3   3  292.77   10.40
   3   3   3  309.57    9.70
   3   3   3  300.87   10.00
   3   3   3  295.07    9.70
  -3  -2  -3   11.30    0.60
  -3  -2  -3   11.50    0.70
  -3  -2  -3   12.30    0.70
  -3  -2  -3   12.60    0.60
  -3  -2  -3   13.00    0.90
  -3  -2  -3   12.20    0.70
  -3  -2  -3   12.90    0.80
  -3  -2  -3   11.90    0.90
  -3  -2  -3   13.40    0.60
   3   2   3   12.40    0.60
   3   2   3   12.40    0.70
   3   2   3   11.90    0.80
   3   2   3   12.50    0.70
   3   2   3   13.90    0.80
   3   2   3   12.50    0.50
   3   2   3   14.00    1.00
   3   2   3   12.20    0.70
  -3  -1  -3    0.50    0.20
  -3  -1  -3    0.40    0.20
  -3  -1  -3   -0.30    0.10
  -3  -1  -3    0.00    0.10
  -3  -1  -3    0.40    0.20
  -3  -1  -3    0.20    0.10
  -3  -1  -3    0.20    0.20
  -3  -1  -3    0.40    0.20
  -3  -1  -3    0.30    0.20
   3   1   3    0.10    0.20
   3   1   3    0.10    0.20
   3   1   3    0.30    0.10
   3   1   3    0.00    0.20
   3   1   3    0.00    0.20
   3   1   3    0.10    0.20
   3   1   3    0.20    0.20
   3   1   3    0.20    0.20
  -3   0  -3  141.19    4.90
  -3   0  -3  138.29    4.90
  -3   0  -3  136.79    4.90
  -3   0  -3  127.89    4.60
  -3   0  -3  141.59    4.90
  -3   0  -3  134.49    5.00
  -3   0  -3  143.39    4.90
  -3   0  -3  143.49    5.10
  -3   0  -3  140.69    4.80
  -3   0  -3  136.99    4.70
   3   0   3  147.79    5.00
   3   0   3  135.29    4.80
   3   0   3  142.79    5.00
   3   0   3  132.99    4.90
   3   0   3  149.49    5.10
   3   0   3  137.39    4.80
   3   0   3  137.29    4.90
   3   0   3  137.59    4.90
  -3   1  -3   36.80    1.60
  -3   1  -3   38.40    1.60
  -3   1  -3   40.40    1.80
  -3   1  -3   39.80    1.70
  -3   1  -3   37.90    1.80
  -3   1  -3   36.60    1.80
  -3   1  -3   39.60    1.90
   3  -1   3   41.70    1.90
   3  -1   3   37.40    1.80
   3  -1   3   36.80    1.70
   3  -1   3   36.60    1.60
   3  -1   3   39.30    1.80
   3  -1   3   37.20    1.70
   3  -1   3   39.50    1.60
   3  -1   3   41.50    1.70
  -3   2  -3  465.15   16.70
  -3   2  -3  509.95   16.70
  -3   2  -3  523.15   17.00
  -3   2  -3  499.95   16.90
  -3   2  -3  506.05   17.10
  -3   2  -3  519.75   16.70
   3  -2   3  520.85   17.20
   3  -2   3  524.35   17.10
   3  -2   3  507.35   16.80
   3  -2   3  489.65   16.80
   3  -2   3  523.15   17.00
   3  -2   3  493.05   16.90
   3  -2   3  520.65   16.60
   3  -2   3  501.25   16.60
   3  -2   3  507.45   16.60
  -3   3  -3    0.10    0.30
  -3   3  -3    0.00    0.30
  -3   3  -3   -0.20    0.30
  -3   3  -3    0.00    0.30
  -3   3  -3   -0.40    0.30
  -3   3  -3   -0.20    0.20
   3  -3   3    0.20    0.30
   3  -3   3   -0.40    0.30
   3  -3   3    0.10    0.20
   3  -3   3    0.30    0.30
   3  -3   3    0.20    0.30
   3  -3   3    0.40    0.40
   3  -3   3    0.20    0.20
  -3   4  -3    3.30    0.70
  -3   4  -3    4.40    0.60
  -3   4  -3    3.50    0.70
  -3   4  -3    5.00    0.90
  -3   4  -3    3.30    0.70
   3  -4   3    3.50    0.50
   3  -4   3    4.60    0.80
   3  -4   3    4.00    1.20
   3  -4   3    5.50    0.90
   3  -4   3    4.40    0.80
   3  -4   3    4.50    0.80
   3  -4   3    3.50    0.40
  -3   5  -3   16.50    1.20
  -3   5  -3   16.60    1.50
  -3   5  -3   18.00    1.50
  -3   5  -3   17.40    1.40
   3  -5   3   13.30    2.00
   3  -5   3   16.70    1.40
  -3   6  -3   14.20    1.70
  -3   6  -3   13.10    1.50
  -3   6  -3   15.20    1.80
   3  -6   3   13.70    2.20
   3  -6   3   13.00    1.50
  -3   7  -3    3.90    1.10
  -3   7  -3    1.80    0.80
  -3   7  -3    2.20    0.90
   3  -7   3    3.00    1.50
  -4 -10  -3    4.40    1.30
  -4 -10  -3    5.00    1.50
   4  10   3    6.30    0.80
   4  10   3    5.20    1.20
  -4  -9  -3    6.90    1.40
  -4  -9  -3    7.20    1.60
   4   9   3    5.00    1.10
   4   9   3    7.80    0.60
   4   9   3    8.00    0.80
  -4  -8  -3    1.40    0.80
  -4  -8  -3    1.40    0.80
  -4  -8  -3    0.60    0.60
   4   8   3    1.50    0.30
   4   8   3    0.70    0.30
   4   8   3    0.40    0.20
   4   8   3    0.80    0.50
   4   8   3    0.60    0.50
   4   8   3    0.60    0.30
   4   8   3    0.40    0.30
  -4  -7  -3   56.59    2.40
  -4  -7  -3   51.39    3.00
  -4  -7  -3   58.49    2.90
  -4  -7  -3   55.49    3.20
   4   7   3   54.89    2.40
   4   7   3   56.49    2.10
   4   7   3   61.89    2.60
   4   7   3   52.99    3.60
   4   7   3   56.39    2.00
   4   7   3   56.69    2.10
   4   7   3   49.90    2.70
   4   7   3   57.99    2.40
   4   7   3   53.89    2.00
  -4  -6  -3   76.79    3.80
  -4  -6  -3   80.29    3.40
  -4  -6  -3   80.29    3.60
  -4  -6  -3   83.69    3.00
  -4  -6  -3   80.39    3.10
   4   6   3   80.99    2.70
   4   6   3   82.79    2.70
   4   6   3   71.69    4.10
   4   6   3   73.09    3.10
   4   6   3   79.39    3.20
   4   6   3   80.69    2.70
   4   6   3   74.49    3.40
   4   6   3   81.69    2.80
  -4  -5  -3    1.80    0.70
  -4  -5  -3    2.90    0.60
  -4  -5  -3    2.10    0.40
  -4  -5  -3    2.50    0.60
  -4  -5  -3    2.90    0.50
   4   5   3    2.70    0.50
   4   5   3    2.30    0.40
   4   5   3    2.40    0.30
   4   5   3    1.80    0.60
   4   5   3    2.80    0.30
   4   5   3    3.00    0.20
   4   5   3    1.00    0.30
   4   5   3    2.60    0.20
  -4  -4  -3    1.20    0.50
  -4  -4  -3    1.40    0.40
  -4  -4  -3    1.00    0.50
  -4  -4  -3    1.60    0.30
   4   4   3    1.70    0.20
   4   4   3    1.90    0.40
   4   4   3    1.70    0.30
   4   4   3    1.60    0.20
   4   4   3    2.30    0.60
   4   4   3    1.50    0.20
   4   4   3    1.40    0.30
   4   4   3    1.70    0.30
   4   4   3    1.90    0.40
  -4  -3  -3    7.20    0.80
  -4  -3  -3    9.40    0.70
  -4  -3  -3    9.70    0.70
  -4  -3  -3   10.60    0.90
  -4  -3  -3   10.00    0.50
  -4  -3  -3    8.70    0.50
   4   3   3    9.40    0.60
   4   3   3    8.50    0.50
   4   3   3    9.90    0.60
   4   3   3    8.80    0.70
   4   3   3    9.60    0.70
   4   3   3    9.90    0.60
   4   3   3    9.10    0.50
   4   3   3    9.80    0.90
  -4  -2  -3    0.70    0.20
  -4  -2  -3    0.20    0.20
  -4  -2  -3    0.70    0.20
  -4  -2  -3    1.10    0.30
  -4  -2  -3    1.00    0.40
  -4  -2  -3    0.70    0.30
  -4  -2  -3    0.40    0.20
  -4  -2  -3    0.40    0.20
   4   2   3    0.00    0.20
   4   2   3    0.40    0.20
   4   2   3    0.50    0.30
   4   2   3    0.50    0.20
   4   2   3    0.00    0.20
   4   2   3    0.40    0.20
   4   2   3    0.40    0.10
   4   2   3    0.80    0.20
   4   2   3    0.50    0.20
  -4  -1  -3   58.59    2.30
  -4  -1  -3   54.39    2.20
  -4  -1  -3   54.29    2.30
  -4  -1  -3   51.39    2.30
  -4  -1  -3   55.59    2.30
  -4  -1  -3   56.59    2.40
   4   1   3   55.49    2.40
   4   1   3   59.89    2.30
   4   1   3   51.89    2.20
   4   1   3   53.09    2.10
   4   1   3   51.49    2.20
   4   1   3   55.59    2.30
   4   1   3   54.99    2.30
   4   1   3   54.49    2.20
   4   1   3   58.29    2.40
  -4   0  -3    0.00    0.20
  -4   0  -3    0.30    0.20
  -4   0  -3    0.10    0.20
  -4   0  -3    0.20    0.20
  -4   0  -3    0.00    0.20
  -4   0  -3    0.90    0.40
  -4   0  -3    0.20    0.20
  -4   0  -3    0.20    0.20
   4   0   3   -0.10    0.20
   4   0   3    0.20    0.30
   4   0   3   -0.20    0.20
   4   0   3    0.20    0.20
   4   0   3   -0.20    0.20
   4   0   3   -0.20    0.20
   4   0   3    0.50    0.30
   4   0   3    0.50    0.30
  -4   1  -3    7.40    0.70
  -4   1  -3    7.80    0.60
  -4   1  -3    8.00    0.90
  -4   1  -3   10.10    1.00
  -4   1  -3    8.10    0.70
  -4   1  -3    8.30    0.90
   4  -1   3    7.20    0.70
   4  -1   3    7.80    0.70
   4  -1   3    8.10    0.90
   4  -1   3    7.30    0.80
   4  -1   3    8.90    0.80
   4  -1   3    8.70    1.00
   4  -1   3    7.80    0.90
  -4   2  -3   32.60    1.80
  -4   2  -3   30.80    1.60
  -4   2  -3   28.00    1.50
  -4   2  -3   30.90    1.90
  -4   2  -3   28.60    1.50
   4  -2   3   30.80    1.50
   4  -2   3   31.70    1.80
   4  -2   3   30.30    1.70
   4  -2   3   30.10    1.50
   4  -2   3   33.00    1.80
   4  -2   3   32.30    1.70
  -4   3  -3    6.80    1.10
  -4   3  -3    6.70    0.90
  -4   3  -3    5.60    0.80
  -4   3  -3    5.60    0.90
  -4   3  -3    5.10    0.80
   4  -3   3    6.40    0.90
   4  -3   3    6.20    0.90
   4  -3   3    5.80    0.90
   4  -3   3    5.30    0.60
   4  -3   3    7.50    1.00
   4  -3   3    6.30    0.70
   4  -3   3    5.50    0.70
  -4   4  -3   -0.50    0.40
  -4   4  -3    0.60    0.50
  -4   4  -3    0.00    0.50
  -4   4  -3    0.60    0.50
  -4   4  -3    0.00    0.30
   4  -4   3    0.20    0.40
   4  -4   3    0.20    0.30
   4  -4   3    0.50    0.30
   4  -4   3    1.50    1.00
   4  -4   3    0.50    0.50
   4  -4   3    0.50    0.30
  -4   5  -3   12.20    1.50
  -4   5  -3    7.60    1.30
  -4   5  -3   10.70    1.40
   4  -5   3   10.80    1.40
   4  -5   3   13.10    2.20
  -4   6  -3    0.40    0.60
  -4   6  -3   -0.40    0.50
  -4   6  -3   -0.10    0.70
   4  -6   3   -0.20    0.80
   4  -6   3    0.10    0.50
  -5 -10  -3    5.90    1.30
  -5 -10  -3    5.50    1.40
   5  10   3    3.50    1.00
   5  10   3    3.30    0.50
  -5  -9  -3   27.40    2.10
  -5  -9  -3   30.20    2.50
  -5  -9  -3   26.60    2.30
   5   9   3   28.10    2.10
   5   9   3   31.40    1.30
   5   9   3   26.20    1.30
  -5  -8  -3   23.00    1.70
  -5  -8  -3   19.50    1.80
  -5  -8  -3   20.50    2.00
  -5  -8  -3   20.50    1.20
  -5  -8  -3   22.90    1.30
   5   8   3   20.90    1.70
   5   8   3   22.10    0.90
   5   8   3   22.10    2.40
   5   8   3   20.40    0.90
   5   8   3   20.90    1.50
   5   8   3   22.10    1.30
   5   8   3   21.50    1.30
   5   8   3   19.40    1.40
  -5  -7  -3   15.80    1.50
  -5  -7  -3   17.70    1.10
  -5  -7  -3   18.90    1.10
  -5  -7  -3   18.20    1.30
  -5  -7  -3   19.50    2.10
   5   7   3   16.80    1.20
   5   7   3   15.80    1.80
   5   7   3   17.40    0.70
   5   7   3   15.20    1.30
   5   7   3   19.50    1.30
   5   7   3   18.00    1.20
  -5  -6  -3  138.99    5.40
  -5  -6  -3  133.29    4.90
  -5  -6  -3  127.69    4.90
  -5  -6  -3  139.39    5.00
  -5  -6  -3  135.39    5.70
   5   6   3  136.69    5.10
   5   6   3  138.89    5.00
   5   6   3  124.29    5.10
   5   6   3  136.79    5.20
   5   6   3  134.19    5.10
   5   6   3  134.89    4.40
   5   6   3  132.19    6.00
   5   6   3  130.69    4.40
  -5  -5  -3    4.70    0.70
  -5  -5  -3    6.00    0.70
  -5  -5  -3    4.50    0.70
  -5  -5  -3    6.50    1.10
   5   5   3    5.20    0.60
   5   5   3    4.40    0.30
   5   5   3    6.00    0.80
   5   5   3    4.60    0.40
   5   5   3    4.30    0.30
   5   5   3    5.30    1.00
   5   5   3    4.80    0.40
   5   5   3    5.60    0.70
   5   5   3    4.90    0.70
  -5  -4  -3    0.70    0.30
  -5  -4  -3    0.50    0.10
  -5  -4  -3    0.50    0.10
  -5  -4  -3    0.60    0.40
  -5  -4  -3    0.70    0.30
  -5  -4  -3    0.70    0.40
   5   4   3    0.70    0.20
   5   4   3    0.90    0.30
   5   4   3    0.50    0.30
   5   4   3    0.80    0.40
   5   4   3    0.60    0.20
   5   4   3    0.70    0.20
   5   4   3    0.90    0.40
  -5  -3  -3    0.50    0.30
  -5  -3  -3    0.80    0.30
  -5  -3  -3    0.00    0.30
  -5  -3  -3    0.30    0.20
  -5  -3  -3    0.60    0.20
  -5  -3  -3    0.80    0.30
  -5  -3  -3    0.80    0.40
   5   3   3    0.90    0.30
   5   3   3    0.30    0.20
   5   3   3    0.70    0.30
   5   3   3    0.70    0.40
   5   3   3    0.90    0.30
   5   3   3    0.50    0.30
   5   3   3    0.60    0.30
  -5  -2  -3  189.78    6.80
  -5  -2  -3  197.58    6.80
  -5  -2  -3  199.88    6.80
  -5  -2  -3  188.98    7.10
  -5  -2  -3  190.48    6.90
  -5  -2  -3  201.18    7.00
   5   2   3  189.78    6.80
   5   2   3  208.08    6.90
   5   2   3  200.68    6.90
   5   2   3  196.08    6.80
   5   2   3  200.18    6.90
   5   2   3  185.08    7.10
   5   2   3  199.78    6.90
   5   2   3  196.68    6.60
   5   2   3  209.38    6.90
   5   2   3  191.48    6.40
  -5  -1  -3   73.19    2.90
  -5  -1  -3   71.59    2.90
  -5  -1  -3   70.09    3.00
  -5  -1  -3   70.69    2.80
  -5  -1  -3   72.99    2.90
  -5  -1  -3   70.39    3.00
   5   1   3   69.99    2.90
   5   1   3   71.69    2.90
   5   1   3   73.29    3.10
   5   1   3   69.49    2.90
   5   1   3   72.19    3.00
   5   1   3   78.49    3.00
   5   1   3   71.99    2.70
   5   1   3   66.69    2.50
   5   1   3   70.39    2.90
  -5   0  -3   14.10    0.70
  -5   0  -3   15.00    1.00
  -5   0  -3   15.20    1.10
  -5   0  -3   13.80    1.10
  -5   0  -3   15.10    1.00
  -5   0  -3   15.00    1.10
  -5   0  -3   12.30    1.00
   5   0   3   12.50    1.10
   5   0   3   14.70    1.10
   5   0   3   13.20    1.00
   5   0   3   14.40    1.00
   5   0   3   14.20    1.00
   5   0   3   13.70    1.10
   5   0   3   14.40    1.00
  -5   1  -3   18.20    1.40
  -5   1  -3   21.30    1.10
  -5   1  -3   21.20    1.20
  -5   1  -3   20.10    1.30
  -5   1  -3   20.40    1.20
  -5   1  -3   19.90    1.40
  -5   1  -3   22.10    1.40
   5  -1   3   21.40    1.30
   5  -1   3   21.30    1.30
   5  -1   3   21.60    1.50
   5  -1   3   22.10    1.30
   5  -1   3   21.00    1.40
   5  -1   3   18.00    1.30
   5  -1   3   17.40    1.30
  -5   2  -3    0.50    0.40
  -5   2  -3    1.80    0.50
  -5   2  -3    1.20    0.50
  -5   2  -3    2.80    0.70
  -5   2  -3    2.50    0.70
  -5   2  -3    1.10    0.50
   5  -2   3    2.80    0.60
   5  -2   3    2.90    0.70
   5  -2   3    0.70    0.40
   5  -2   3    2.10    0.60
   5  -2   3    1.10    0.50
   5  -2   3    1.30    0.40
  -5   3  -3    8.70    1.10
  -5   3  -3    8.30    1.20
  -5   3  -3    6.20    0.90
  -5   3  -3   10.00    1.30
   5  -3   3    8.80    0.90
   5  -3   3    8.30    1.20
   5  -3   3    8.30    1.00
   5  -3   3   10.70    0.80
   5  -3   3    9.30    1.20
   5  -3   3   10.40    1.30
   5  -3   3    8.90    1.70
  -5   4  -3   45.90    2.60
  -5   4  -3   52.19    3.00
  -5   4  -3   55.49    2.90
   5  -4   3   50.29    2.80
   5  -4   3   47.90    3.50
   5  -4   3   53.59    2.80
  -5   5  -3    1.90    0.70
  -5   5  -3    3.60    0.90
   5  -5   3    4.20    1.60
   5  -5   3    2.10    0.80
  -6 -10  -3    0.60    0.90
  -6 -10  -3    0.60    0.90
   6  10   3    0.40    0.60
   6  10   3    0.10    0.10
   6  10   3    0.30    0.10
  -6  -9  -3   -0.30    0.60
  -6  -9  -3    0.30    0.70
  -6  -9  -3    0.10    0.30
   6   9   3    0.00    0.50
   6   9   3    0.20    0.40
  -6  -8  -3   12.50    1.00
  -6  -8  -3   14.00    1.90
  -6  -8  -3   12.20    1.00
  -6  -8  -3   11.90    1.60
   6   8   3   13.20    1.10
   6   8   3   13.60    1.30
   6   8   3   12.10    2.00
   6   8   3   11.00    1.20
   6   8   3   13.40    1.10
   6   8   3   12.90    1.10
   6   8   3   12.50    1.40
  -6  -7  -3   21.50    1.60
  -6  -7  -3   17.30    1.70
  -6  -7  -3   18.80    1.30
  -6  -7  -3   18.50    1.20
   6   7   3   19.50    0.70
   6   7   3   17.50    1.40
   6   7   3   18.90    1.30
   6   7   3   17.70    1.40
   6   7   3   21.50    2.10
   6   7   3   19.90    1.40
   6   7   3   20.60    1.40
  -6  -6  -3  130.99    5.20
  -6  -6  -3  136.69    5.40
  -6  -6  -3  135.89    5.10
  -6  -6  -3  136.19    5.80
   6   6   3  125.29    5.20
   6   6   3  148.09    5.40
   6   6   3  135.69    4.50
   6   6   3  137.29    5.30
   6   6   3  141.99    4.50
   6   6   3  142.49    4.60
   6   6   3  134.19    5.30
   6   6   3  137.69    4.60
   6   6   3  137.49    6.00
   6   6   3  138.59    5.10
  -6  -5  -3    1.40    0.40
  -6  -5  -3    0.20    0.30
  -6  -5  -3    0.70    0.40
  -6  -5  -3    1.00    0.60
   6   5   3    0.90    0.40
   6   5   3    1.30    0.30
   6   5   3    0.40    0.20
   6   5   3    1.00    0.50
   6   5   3    0.70    0.20
   6   5   3    0.90    0.30
   6   5   3    0.60    0.50
   6   5   3    0.70    0.40
  -6  -4  -3    1.20    0.40
  -6  -4  -3    2.90    0.80
  -6  -4  -3    1.40    0.40
  -6  -4  -3    1.40    0.50
  -6  -4  -3    1.40    0.30
   6   4   3    2.20    0.50
   6   4   3    1.60    0.30
   6   4   3    0.90    0.30
   6   4   3    0.70    0.30
   6   4   3    1.10    0.30
   6   4   3    1.00    0.30
   6   4   3    0.00    0.40
   6   4   3    0.90    0.40
  -6  -3  -3   44.80    2.20
  -6  -3  -3   44.00    2.00
  -6  -3  -3   39.50    2.20
  -6  -3  -3   45.00    1.90
  -6  -3  -3   45.10    1.90
  -6  -3  -3   47.40    2.20
   6   3   3   45.10    2.10
   6   3   3   46.30    1.70
   6   3   3   45.50    2.20
   6   3   3   44.50    2.00
   6   3   3   42.80    2.10
   6   3   3   46.90    2.00
   6   3   3   50.29    2.10
   6   3   3   46.00    2.00
   6   3   3   45.00    2.30
  -6  -2  -3    3.30    0.60
  -6  -2  -3    3.50    0.60
  -6  -2  -3    3.50    0.60
  -6  -2  -3    1.80    0.50
  -6  -2  -3    2.80    0.50
  -6  -2  -3    3.30    0.60
   6   2   3    3.30    0.70
   6   2   3    4.00    0.60
   6   2   3    3.20    0.60
   6   2   3    1.80    0.50
   6   2   3    3.10    0.30
   6   2   3    3.50    0.60
   6   2   3    4.50    0.70
   6   2   3    3.60    0.60
   6   2   3    3.10    0.50
  -6  -1  -3   25.40    1.50
  -6  -1  -3   25.40    1.40
  -6  -1  -3   22.30    1.40
  -6  -1  -3   22.30    1.40
  -6  -1  -3   22.80    1.40
  -6  -1  -3   24.90    1.50
   6   1   3   23.30    1.50
   6   1   3   24.30    1.30
   6   1   3   26.10    1.60
   6   1   3   23.10    1.50
   6   1   3   22.90    1.40
   6   1   3   24.80    1.40
   6   1   3   22.30    1.10
   6   1   3   22.40    1.40
  -6   0  -3    8.40    1.10
  -6   0  -3    7.40    0.90
  -6   0  -3    8.40    0.60
  -6   0  -3    8.10    1.00
  -6   0  -3    9.40    1.00
  -6   0  -3    6.50    0.90
  -6   0  -3    8.00    1.00
   6   0   3    8.40    1.00
   6   0   3    7.80    0.90
   6   0   3    8.60    1.00
   6   0   3    6.80    0.80
   6   0   3    5.90    0.90
   6   0   3    6.90    0.90
   6   0   3    8.80    1.10
  -6   1  -3   14.80    1.10
  -6   1  -3   14.20    1.50
  -6   1  -3   13.40    0.90
  -6   1  -3   15.20    1.20
  -6   1  -3   15.70    1.30
   6  -1   3   12.80    1.10
   6  -1   3   14.60    1.50
   6  -1   3   14.40    1.10
   6  -1   3   11.80    1.30
   6  -1   3   13.30    1.10
   6  -1   3   15.30    1.50
  -6   2  -3   29.40    1.70
  -6   2  -3   29.80    1.60
  -6   2  -3   27.60    1.90
   6  -2   3   31.30    2.00
   6  -2   3   27.50    2.40
   6  -2   3   28.60    1.90
   6  -2   3   30.20    2.00
   6  -2   3   31.20    1.90
   6  -2   3   31.90    1.80
  -6   3  -3   30.40    1.80
  -6   3  -3   34.10    2.20
   6  -3   3   28.30    2.10
   6  -3   3   30.40    1.70
   6  -3   3   30.90    2.00
   6  -3   3   33.60    2.90
  -6   4  -3    0.40    0.70
  -6   4  -3   -0.50    0.50
   6  -4   3    0.20    0.60
   6  -4   3    1.50    1.10
   6  -4   3    1.20    0.70
  -7 -10  -3    0.30    0.40
  -7 -10  -3    1.40    0.90
  -7 -10  -3    1.60    0.90
   7  10   3    0.70    0.60
   7  10   3    0.90    0.50
  -7  -9  -3   35.50    1.90
  -7  -9  -3   33.40    1.80
  -7  -9  -3   33.30    2.50
  -7  -9  -3   30.70    2.50
   7   9   3   33.90    2.00
   7   9   3   28.90    2.20
   7   9   3   32.70    2.20
   7   9   3   35.80    2.20
  -7  -8  -3    1.40    0.70
  -7  -8  -3    0.50    0.40
  -7  -8  -3    0.70    0.40
  -7  -8  -3    0.90    0.70
   7   8   3    0.10    0.50
   7   8   3    1.80    0.60
   7   8   3    0.80    0.50
   7   8   3   -0.10    0.50
   7   8   3    1.10    0.50
  -7  -7  -3    4.40    0.70
  -7  -7  -3    5.40    0.90
  -7  -7  -3    5.60    1.30
  -7  -7  -3    5.80    1.30
   7   7   3    3.80    0.70
   7   7   3    4.50    0.40
   7   7   3    5.00    0.80
   7   7   3    5.20    0.80
   7   7   3    4.30    1.10
   7   7   3    4.00    0.80
   7   7   3    3.80    0.70
   7   7   3    3.90    0.30
   7   7   3    5.90    1.10
  -7  -6  -3   26.70    1.50
  -7  -6  -3   26.90    2.00
  -7  -6  -3   26.60    1.70
   7   6   3   25.10    1.70
   7   6   3   26.40    2.00
   7   6   3   30.40    1.70
   7   6   3   24.80    1.50
   7   6   3   23.90    1.80
   7   6   3   25.30    1.10
   7   6   3   26.10    1.60
   7   6   3   25.80    1.20
   7   6   3   26.10    1.20
  -7  -5  -3   56.49    2.60
  -7  -5  -3   57.19    2.80
  -7  -5  -3   55.89    3.10
   7   5   3   57.89    2.40
   7   5   3   61.79    2.40
   7   5   3   60.79    2.90
   7   5   3   58.19    2.70
   7   5   3   61.69    2.80
   7   5   3   61.69    3.00
   7   5   3   58.39    2.50
  -7  -4  -3   21.30    1.30
  -7  -4  -3   22.00    1.50
  -7  -4  -3   23.80    1.30
   7   4   3   22.30    1.60
   7   4   3   23.70    1.40
   7   4   3   24.30    1.50
   7   4   3   23.50    1.50
   7   4   3   26.60    1.50
   7   4   3   22.30    1.30
   7   4   3   22.30    1.30
  -7  -3  -3   45.30    2.40
  -7  -3  -3   48.10    2.50
  -7  -3  -3   54.09    2.30
  -7  -3  -3   46.90    2.30
  -7  -3  -3   48.70    2.20
   7   3   3   52.09    2.30
   7   3   3   53.79    2.40
   7   3   3   51.89    2.20
   7   3   3   52.59    2.20
   7   3   3   49.90    2.60
   7   3   3   54.99    2.50
   7   3   3   48.80    2.40
   7   3   3   52.89    2.40
  -7  -2  -3   22.40    1.30
  -7  -2  -3   16.00    1.30
  -7  -2  -3   18.00    1.20
  -7  -2  -3   16.80    1.20
   7   2   3   18.00    1.30
   7   2   3   16.60    1.40
   7   2   3   17.10    1.30
   7   2   3   18.30    1.30
   7   2   3   19.30    1.20
   7   2   3   18.90    1.30
  -7  -1  -3   17.30    1.20
  -7  -1  -3   17.60    1.30
  -7  -1  -3   15.50    1.20
  -7  -1  -3   15.90    1.30
   7   1   3   16.70    1.20
   7   1   3   12.70    1.20
   7   1   3   18.00    1.20
   7   1   3   15.10    1.30
   7   1   3   17.30    1.30
   7   1   3   17.70    1.30
  -7   0  -3    8.20    1.00
  -7   0  -3    7.90    1.10
  -7   0  -3    5.80    0.90
  -7   0  -3    9.50    0.70
   7   0   3    9.60    1.10
   7   0   3    7.60    1.10
   7   0   3    7.80    1.10
   7   0   3    8.70    1.20
   7   0   3    8.10    1.10
  -7   1  -3    5.60    0.90
  -7   1  -3    4.10    0.90
   7  -1   3    6.20    1.10
   7  -1   3    8.70    1.60
   7  -1   3    5.60    0.90
   7  -1   3    6.70    1.10
   7  -1   3    5.90    1.00
  -7   2  -3    0.20    0.50
  -7   2  -3    2.30    0.70
   7  -2   3    1.00    0.70
   7  -2   3    2.30    0.70
   7  -2   3    0.10    0.80
   7  -2   3    0.30    0.50
   7  -2   3    1.30    0.70
  -7   3  -3    0.40    0.50
  -7   3  -3   -0.10    0.50
   7  -3   3   -0.20    0.90
   7  -3   3    0.60    0.60
   7  -3   3   -0.30    0.40
   7  -3   3    0.20    0.50
  -8  -9  -3   44.40    3.20
  -8  -9  -3   51.19    2.70
  -8  -9  -3   53.29    2.50
   8   9   3   49.99    3.00
   8   9   3   54.79    2.80
   8   9   3   50.59    2.80
  -8  -8  -3    0.50    0.40
  -8  -8  -3    2.20    0.70
  -8  -8  -3    0.80    0.70
   8   8   3    1.60    0.20
   8   8   3    0.80    0.50
   8   8   3    0.80    0.50
  -8  -7  -3    2.60    0.90
  -8  -7  -3    2.80    0.60
  -8  -7  -3    1.70    0.60
   8   7   3    3.10    0.40
   8   7   3    1.90    0.80
   8   7   3    2.90    0.40
   8   7   3    3.60    0.80
   8   7   3    2.20    0.60
  -8  -6  -3   17.10    1.40
  -8  -6  -3   20.00    1.80
  -8  -6  -3   18.30    1.30
   8   6   3   16.50    1.00
   8   6   3   16.70    1.50
   8   6   3   18.70    1.10
   8   6   3   19.30    1.00
   8   6   3   17.20    1.40
  -8  -5  -3   39.60    2.10
  -8  -5  -3   36.90    2.20
   8   5   3   40.10    1.90
   8   5   3   40.50    1.90
   8   5   3   39.50    2.10
   8   5   3   39.90    2.40
  -8  -4  -3   49.10    2.60
  -8  -4  -3   50.69    2.40
   8   4   3   52.89    2.80
   8   4   3   51.19    2.40
   8   4   3   52.69    2.30
   8   4   3   46.10    2.40
   8   4   3   53.29    2.40
  -8  -3  -3   -0.10    0.30
  -8  -3  -3    0.00    0.40
   8   3   3    0.30    0.40
   8   3   3   -0.30    0.40
   8   3   3   -0.10    0.30
   8   3   3    0.20    0.50
   8   3   3    0.70    0.40
  -8  -2  -3    6.70    0.90
  -8  -2  -3    6.70    1.00
   8   2   3    6.80    1.00
   8   2   3    6.30    0.90
   8   2   3    5.20    0.90
   8   2   3    7.00    1.00
   8   2   3    8.50    1.20
  -8  -1  -3    0.50    0.40
  -8  -1  -3    0.70    0.50
  -8  -1  -3    0.80    0.50
   8   1   3    0.30    0.40
   8   1   3    0.20    0.50
   8   1   3    1.20    0.80
   8   1   3    1.00    0.60
   8   1   3    0.50    0.60
  -8   0  -3    6.40    1.00
  -8   0  -3    7.60    1.00
  -8   0  -3    7.40    1.10
   8   0   3    7.10    1.10
   8   0   3    6.80    1.10
   8   0   3   10.00    1.40
   8   0   3    9.30    1.30
   8   0   3    8.40    1.60
  -8   1  -3    5.80    1.00
  -8   1  -3    6.80    1.10
   8  -1   3    7.30    1.20
   8  -1   3    9.50    1.80
   8  -1   3    5.80    1.10
   8  -1   3    4.80    1.00
   8  -1   3    6.30    1.20
  -8   2  -3    0.60    0.60
  -8   2  -3    0.20    0.60
   8  -2   3    0.00    0.60
   8  -2   3   -0.30    0.90
   8  -2   3    2.00    0.80
   8  -2   3    0.60    0.60
  -9  -8  -3    5.90    0.90
  -9  -8  -3    4.00    0.90
  -9  -8  -3    3.50    1.20
   9   8   3    5.20    1.00
   9   8   3    5.40    1.10
   9   8   3    4.30    0.50
  -9  -7  -3   14.00    1.20
  -9  -7  -3   13.70    1.60
   9   7   3   16.60    1.60
   9   7   3   10.50    1.50
   9   7   3   12.00    0.90
  -9  -6  -3   11.10    1.20
  -9  -6  -3   10.40    1.40
   9   6   3   12.20    1.60
   9   6   3   12.10    1.00
   9   6   3   13.40    1.40
  -9  -5  -3    1.80    0.70
  -9  -5  -3    1.70    0.60
   9   5   3    1.70    0.50
   9   5   3    1.20    0.70
   9   5   3    1.80    0.60
   9   5   3    1.40    0.50
  -9  -4  -3   20.30    1.60
  -9  -4  -3   20.30    1.40
   9   4   3   20.20    1.50
   9   4   3   19.50    1.40
   9   4   3   19.20    1.50
   9   4   3   18.10    1.70
  -9  -3  -3   23.80    1.80
  -9  -3  -3   24.90    1.70
   9   3   3   23.70    2.00
   9   3   3   24.60    1.70
   9   3   3   25.90    1.70
   9   3   3   24.40    1.70
  -9  -2  -3   26.30    1.70
  -9  -2  -3   26.00    1.90
   9   2   3   27.30    2.10
   9   2   3   26.80    1.90
   9   2   3   26.60    1.80
   9   2   3   27.40    1.90
  -9  -1  -3    1.60    0.60
  -9  -1  -3    1.90    0.70
   9   1   3    1.60    0.70
   9   1   3    1.90    0.70
   9   1   3    2.50    0.90
   9   1   3    2.40    0.80
  -9   0  -3   48.50    2.70
  -9   0  -3   52.99    2.80
   9   0   3   47.70    2.90
   9   0   3   56.29    3.00
   9   0   3   52.29    3.60
   9   0   3   54.09    3.10
 -10  -6  -3    3.00    0.70
 -10  -6  -3    5.40    1.10
  10   6   3    3.30    0.70
  10   6   3    1.70    0.80
  10   6   3    3.30    0.80
 -10  -5  -3    9.50    1.20
 -10  -5  -3    9.30    1.40
  10   5   3    6.10    1.30
  10   5   3    8.10    1.10
  10   5   3    8.40    1.00
  10   5   3    9.30    1.30
 -10  -4  -3   18.10    1.40
 -10  -4  -3   14.50    1.70
  10   4   3   13.30    1.50
  10   4   3   12.80    1.70
  10   4   3   14.70    1.60
  10   4   3   14.30    1.50
 -10  -3  -3   -0.20    0.60
 -10  -3  -3   -0.40    0.40
  10   3   3   -0.40    0.60
  10   3   3    0.20    0.50
  10   3   3    0.80    0.70
  10   3   3    0.30    0.60
   9   3  -4    0.10    0.60
   9   3  -4    0.20    0.40
   9   3  -4    0.20    0.60
   9   3  -4    0.80    0.60
  -9  -3   4    1.40    0.70
  -9  -3   4    0.50    0.50
  -9  -3   4    1.10    0.90
   9   4  -4   10.20    1.50
   9   4  -4    7.60    1.10
   9   4  -4    8.80    1.00
   9   4  -4   10.10    1.50
  -9  -4   4    8.20    1.30
  -9  -4   4   10.60    1.90
   8  -1  -4   34.10    2.30
   8  -1  -4   31.10    2.00
   8  -1  -4   32.20    2.20
   8  -1  -4   33.50    2.30
  -8   1   4   33.50    2.30
   8   0  -4    6.80    1.20
   8   0  -4    6.70    1.20
   8   0  -4    6.90    1.10
   8   0  -4    6.50    1.10
  -8   0   4    5.60    1.10
   8   1  -4    4.20    0.90
   8   1  -4    5.00    0.90
   8   1  -4    4.00    1.00
   8   1  -4    4.10    0.90
  -8  -1   4    2.60    0.80
   8   2  -4    5.90    0.90
   8   2  -4    3.70    0.80
   8   2  -4    5.70    1.00
   8   2  -4    6.20    1.10
  -8  -2   4    5.20    1.00
  -8  -2   4    5.70    0.80
  -8  -2   4    6.00    1.30
   8   3  -4    7.70    1.20
   8   3  -4    9.10    1.20
   8   3  -4    9.90    1.30
   8   3  -4    7.00    0.90
  -8  -3   4    6.60    1.10
  -8  -3   4    6.80    0.90
  -8  -3   4    7.90    1.50
   8   4  -4   21.50    1.40
   8   4  -4   19.30    1.70
   8   4  -4   24.40    1.60
   8   4  -4   21.10    1.80
  -8  -4   4   20.50    1.70
  -8  -4   4   21.90    2.50
   8   5  -4  102.59    4.10
   8   5  -4   93.99    4.40
   8   5  -4  103.99    3.90
  -8  -5   4   88.19    5.00
  -8  -5   4   97.79    4.50
   8   6  -4    1.20    0.70
   8   6  -4    0.70    0.40
   8   6  -4   -1.10    0.50
   8   6  -4    0.50    0.30
  -8  -6   4    0.70    0.60
  -8  -6   4    0.60    0.70
   7  -3  -4    3.70    1.30
   7  -3  -4    3.10    0.90
   7  -3  -4    3.60    0.90
  -7   3   4    3.10    0.90
  -7   3   4    4.60    1.00
  -7   3   4    3.90    1.20
   7  -2  -4    2.70    0.80
   7  -2  -4    2.90    0.80
   7  -2  -4    2.90    1.10
  -7   2   4    4.10    0.90
  -7   2   4    3.30    0.80
  -7   2   4    3.00    0.80
   7  -1  -4   10.40    1.40
   7  -1  -4   10.50    1.40
   7  -1  -4   12.20    1.30
   7  -1  -4   11.80    1.60
   7  -1  -4   10.50    1.30
   7  -1  -4   11.20    1.40
  -7   1   4   11.70    1.40
  -7   1   4   12.60    1.40
  -7   1   4   13.50    1.20
   7   0  -4    8.50    1.20
   7   0  -4    6.50    1.00
   7   0  -4    6.70    1.00
   7   0  -4    6.60    1.00
  -7   0   4    6.30    1.00
  -7   0   4    5.90    1.00
   7   1  -4    4.60    0.90
   7   1  -4    3.20    0.70
   7   1  -4    2.90    0.80
   7   1  -4    3.50    0.80
  -7  -1   4    4.10    0.80
  -7  -1   4    3.90    0.90
   7   2  -4    1.00    0.50
   7   2  -4    0.50    0.40
   7   2  -4    0.20    0.40
   7   2  -4    0.30    0.50
   7   2  -4    0.50    0.40
  -7  -2   4    0.00    0.30
  -7  -2   4    0.20    0.60
  -7  -2   4    0.50    0.50
   7   3  -4    1.80    0.50
   7   3  -4    0.30    0.50
   7   3  -4    1.40    0.70
   7   3  -4   -0.20    0.30
   7   3  -4    1.60    0.50
  -7  -3   4    1.60    0.80
  -7  -3   4    1.40    0.60
  -7  -3   4    2.10    0.50
   7   4  -4   10.30    1.30
   7   4  -4    6.70    1.10
   7   4  -4    9.00    0.90
   7   4  -4    9.20    0.90
   7   4  -4    8.30    1.00
  -7  -4   4    8.50    1.20
  -7  -4   4    7.20    0.90
  -7  -4   4    6.80    1.40
   7   5  -4    3.00    0.50
   7   5  -4    2.90    0.80
   7   5  -4    2.50    0.60
   7   5  -4    4.00    0.90
  -7  -5   4    4.40    1.20
  -7  -5   4    3.90    0.90
   7   6  -4   -0.30    0.40
   7   6  -4   -0.20    0.50
   7   6  -4    0.50    0.30
   7   6  -4    0.20    0.30
  -7  -6   4   -0.60    0.40
  -7  -6   4    0.40    0.70
   7   7  -4    8.80    0.70
   7   7  -4    8.60    0.90
   7   7  -4    8.50    1.30
   7   7  -4    9.50    1.20
  -7  -7   4    9.10    1.30
  -7  -7   4    7.30    1.70
   6  -4  -4    2.40    1.20
   6  -4  -4    3.10    0.80
   6  -4  -4    3.60    0.90
  -6   4   4    3.30    1.00
  -6   4   4    4.70    1.00
   6  -3  -4    3.70    0.90
   6  -3  -4    1.80    0.70
   6  -3  -4    3.20    1.20
  -6   3   4    3.90    0.90
  -6   3   4    2.60    0.70
  -6   3   4    2.90    0.90
   6  -2  -4   74.39    3.20
   6  -2  -4   75.89    3.60
   6  -2  -4   76.59    3.20
   6  -2  -4   74.09    4.00
   6  -2  -4   76.29    3.60
   6  -2  -4   72.49    3.50
  -6   2   4   82.39    3.50
  -6   2   4   78.89    3.50
  -6   2   4   78.49    3.70
   6  -1  -4    5.90    1.10
   6  -1  -4    5.40    0.90
   6  -1  -4    5.70    0.90
   6  -1  -4    5.80    0.80
   6  -1  -4    6.90    0.90
   6  -1  -4    4.30    0.90
  -6   1   4    5.50    0.90
  -6   1   4    6.20    0.90
  -6   1   4    7.30    1.00
   6   0  -4   81.49    3.60
   6   0  -4   77.79    3.40
   6   0  -4   75.59    3.30
   6   0  -4   74.79    3.50
   6   0  -4   76.29    3.30
   6   0  -4   78.69    3.40
   6   0  -4   77.19    3.50
  -6   0   4   72.49    3.40
  -6   0   4   80.19    3.40
   6   1  -4  127.79    5.00
   6   1  -4  136.09    5.30
   6   1  -4  135.69    5.20
   6   1  -4  135.69    5.30
   6   1  -4  132.99    5.10
   6   1  -4  136.39    5.20
  -6  -1   4  132.49    5.10
  -6  -1   4  130.39    5.30
  -6  -1   4  135.19    5.20
   6   2  -4  302.77   10.50
   6   2  -4  297.47    9.90
   6   2  -4  296.97   10.50
   6   2  -4  293.27   10.20
   6   2  -4  295.37   10.30
   6   2  -4  309.37   10.50
   6   2  -4  297.97   10.20
  -6  -2   4  279.67   10.50
  -6  -2   4  302.37   10.20
  -6  -2   4  291.27   10.20
  -6  -2   4  289.77   11.00
   6   3  -4   21.90    1.50
   6   3  -4   21.90    1.50
   6   3  -4   21.30    1.30
   6   3  -4   21.00    1.30
   6   3  -4   21.90    1.40
   6   3  -4   22.70    1.00
   6   3  -4   21.60    1.50
  -6  -3   4   20.10    1.50
  -6  -3   4   22.70    1.90
  -6  -3   4   22.60    1.20
  -6  -3   4   21.90    1.20
  -6  -3   4   22.00    1.30
   6   4  -4    0.40    0.30
   6   4  -4    0.30    0.40
   6   4  -4   -0.50    0.30
   6   4  -4    0.40    0.30
   6   4  -4   -0.50    0.20
  -6  -4   4    0.00    0.50
  -6  -4   4    0.30    0.30
  -6  -4   4   -0.60    0.20
   6   5  -4   -0.10    0.30
   6   5  -4   -0.50    0.30
   6   5  -4    0.00    0.30
   6   5  -4    0.00    0.40
   6   5  -4    0.10    0.30
  -6  -5   4   -0.10    0.40
  -6  -5   4    0.20    0.40
   6   6  -4    3.30    0.80
   6   6  -4    3.60    0.50
   6   6  -4    4.70    0.60
   6   6  -4    4.00    0.80
  -6  -6   4    4.50    0.90
  -6  -6   4    5.80    1.40
   6   7  -4    0.10    0.20
   6   7  -4    0.40    0.60
   6   7  -4    0.70    0.40
  -6  -7   4    0.00    0.70
  -6  -7   4    0.30    0.40
   6   8  -4    0.60    0.60
   6   8  -4    1.20    0.40
  -6  -8   4    1.60    1.10
  -6  -8   4    1.00    0.60
   5  -5  -4    0.50    0.50
   5  -5  -4    3.20    1.30
   5  -5  -4    1.40    0.70
  -5   5   4    3.20    1.00
  -5   5   4    0.30    0.70
   5  -4  -4    3.10    0.80
   5  -4  -4    1.90    0.70
   5  -4  -4    2.50    1.00
  -5   4   4    1.70    0.70
  -5   4   4    2.80    0.90
   5  -3  -4  113.39    4.70
   5  -3  -4  113.79    4.80
   5  -3  -4  102.59    4.60
   5  -3  -4  111.49    4.20
   5  -3  -4  106.19    5.30
  -5   3   4  121.99    4.70
  -5   3   4  115.99    4.90
  -5   3   4  118.39    5.40
  -5   3   4  112.59    4.40
   5  -2  -4   10.00    1.20
   5  -2  -4   13.20    1.30
   5  -2  -4   11.20    1.20
   5  -2  -4   12.40    0.90
   5  -2  -4   12.50    0.90
   5  -2  -4   11.90    1.60
  -5   2   4   11.50    1.30
  -5   2   4   12.10    1.40
  -5   2   4   12.20    1.30
  -5   2   4   11.80    1.20
  -5   2   4   13.00    1.10
   5  -1  -4    0.20    0.50
   5  -1  -4   -0.10    0.30
   5  -1  -4    0.70    0.40
   5  -1  -4   -0.40    0.30
   5  -1  -4    0.00    0.30
   5  -1  -4    0.00    0.30
   5  -1  -4    0.00    0.40
  -5   1   4    0.20    0.40
  -5   1   4    0.20    0.30
  -5   1   4    0.00    0.30
  -5   1   4    0.30    0.30
  -5   1   4   -0.30    0.20
   5   0  -4    4.10    0.60
   5   0  -4    4.70    0.80
   5   0  -4    5.30    0.70
   5   0  -4    4.00    0.70
   5   0  -4    3.80    0.60
   5   0  -4    5.40    0.80
   5   0  -4    4.30    0.80
   5   0  -4    5.70    0.80
   5   0  -4    5.60    0.90
  -5   0   4    4.70    0.70
  -5   0   4    4.60    0.80
  -5   0   4    5.00    0.80
  -5   0   4    5.60    0.80
   5   1  -4    2.60    0.60
   5   1  -4    2.80    0.50
   5   1  -4    3.60    0.60
   5   1  -4    3.80    0.60
   5   1  -4    3.30    0.70
   5   1  -4    3.10    0.70
   5   1  -4    3.20    0.60
   5   1  -4    2.70    0.60
  -5  -1   4    2.90    0.60
  -5  -1   4    3.10    0.60
  -5  -1   4    3.40    0.60
  -5  -1   4    2.80    0.40
  -5  -1   4    4.50    0.60
   5   2  -4    7.90    0.50
   5   2  -4    7.50    0.80
   5   2  -4    7.10    0.90
   5   2  -4    8.40    0.90
   5   2  -4    7.70    0.90
   5   2  -4    7.80    0.80
   5   2  -4    7.00    0.90
   5   2  -4    7.80    0.60
   5   2  -4    5.90    0.80
   5   2  -4    8.00    1.00
  -5  -2   4   10.50    1.10
  -5  -2   4    7.80    0.50
  -5  -2   4    6.70    0.70
  -5  -2   4   10.20    1.40
  -5  -2   4    8.40    0.70
  -5  -2   4    7.80    0.80
   5   3  -4   44.10    2.10
   5   3  -4   46.00    1.70
   5   3  -4   46.90    2.00
   5   3  -4   43.00    2.10
   5   3  -4   47.80    2.00
   5   3  -4   45.80    2.30
   5   3  -4   44.60    2.20
   5   3  -4   42.90    2.00
   5   3  -4   47.90    2.10
   5   3  -4   44.00    2.20
  -5  -3   4   45.30    1.90
  -5  -3   4   47.30    2.70
  -5  -3   4   43.80    1.80
  -5  -3   4   44.70    2.00
  -5  -3   4   46.30    1.90
  -5  -3   4   42.50    2.30
  -5  -3   4   46.00    2.30
   5   4  -4  160.58    5.80
   5   4  -4  161.98    5.50
   5   4  -4  155.38    5.70
   5   4  -4  160.88    5.60
   5   4  -4  156.08    6.00
   5   4  -4  165.28    6.00
   5   4  -4  160.68    5.90
   5   4  -4  159.18    5.20
   5   4  -4  165.68    6.00
  -5  -4   4  164.28    5.60
  -5  -4   4  150.48    6.00
  -5  -4   4  157.88    5.50
  -5  -4   4  145.89    6.60
   5   5  -4   55.29    2.60
   5   5  -4   52.99    2.60
   5   5  -4   51.69    2.20
   5   5  -4   53.29    2.30
   5   5  -4   52.69    2.40
   5   5  -4   53.89    2.10
   5   5  -4   51.89    2.20
  -5  -5   4   51.99    3.20
  -5  -5   4   51.59    2.60
   5   6  -4  185.38    6.50
   5   6  -4  178.08    6.70
   5   6  -4  178.38    6.40
   5   6  -4  178.18    6.20
  -5  -6   4  174.08    7.80
  -5  -6   4  184.28    6.80
   5   7  -4    3.60    0.80
   5   7  -4    2.20    0.50
   5   7  -4    2.30    0.50
  -5  -7   4    1.70    1.00
  -5  -7   4    2.80    0.70
   5   8  -4   -0.20    0.30
   5   8  -4    0.40    0.50
   5   8  -4   -0.10    0.30
  -5  -8   4   -0.50    0.60
  -5  -8   4    0.70    0.40
   4  -6  -4    0.10    0.90
   4  -6  -4    0.30    0.50
   4  -6  -4   -0.40    0.40
  -4   6   4   -0.20    0.50
  -4   6   4   -0.30    0.50
  -4   6   4    0.00    0.70
   4  -5  -4   35.70    2.10
   4  -5  -4   31.60    1.90
   4  -5  -4   29.50    2.70
  -4   5   4   33.10    2.30
  -4   5   4   36.40    2.30
  -4   5   4   32.90    2.20
  -4   5   4   33.90    3.00
   4  -4  -4   46.30    2.40
   4  -4  -4   51.79    2.60
   4  -4  -4   45.70    3.10
  -4   4   4   49.40    2.60
  -4   4   4   48.80    2.60
  -4   4   4   50.19    2.80
  -4   4   4   45.00    2.10
  -4   4   4   45.10    2.90
   4  -3  -4    1.90    0.60
   4  -3  -4    1.70    0.40
   4  -3  -4    2.90    0.70
   4  -3  -4    3.10    0.60
   4  -3  -4    2.30    0.40
   4  -3  -4    3.00    1.00
  -4   3   4    3.10    0.80
  -4   3   4    2.40    0.70
  -4   3   4    3.50    0.80
  -4   3   4    2.50    0.50
  -4   3   4    1.70    0.60
   4  -2  -4    3.60    0.50
   4  -2  -4    3.40    0.70
   4  -2  -4    4.90    0.70
   4  -2  -4    3.40    0.70
   4  -2  -4    4.30    0.60
   4  -2  -4    4.80    1.00
   4  -2  -4    3.20    0.60
  -4   2   4    4.10    0.70
  -4   2   4    4.70    0.80
  -4   2   4    3.80    0.70
  -4   2   4    4.30    0.70
  -4   2   4    3.70    0.60
  -4   2   4    5.10    0.80
   4  -1  -4   29.30    1.70
   4  -1  -4   30.00    1.60
   4  -1  -4   28.70    1.60
   4  -1  -4   29.10    1.50
   4  -1  -4   30.00    1.80
   4  -1  -4   28.80    1.50
   4  -1  -4   31.90    1.70
   4  -1  -4   28.10    1.50
   4  -1  -4   32.20    1.90
  -4   1   4   29.90    1.60
  -4   1   4   30.00    1.70
  -4   1   4   29.90    1.60
  -4   1   4   31.20    1.60
  -4   1   4   31.00    1.80
  -4   1   4   31.10    1.50
   4   0  -4    0.20    0.30
   4   0  -4    0.50    0.30
   4   0  -4    0.10    0.30
   4   0  -4    0.00    0.30
   4   0  -4    0.30    0.30
   4   0  -4    0.20    0.30
   4   0  -4   -0.50    0.20
   4   0  -4    0.00    0.30
   4   0  -4    0.40    0.20
   4   0  -4    0.10    0.30
  -4   0   4    0.10    0.30
  -4   0   4    0.10    0.20
  -4   0   4    0.50    0.30
  -4   0   4    0.30    0.20
  -4   0   4    0.30    0.30
  -4   0   4    0.30    0.20
  -4   0   4    0.70    0.30
   4   1  -4   47.30    2.20
   4   1  -4   51.89    2.20
   4   1  -4   46.50    2.10
   4   1  -4   47.10    2.10
   4   1  -4   44.50    2.10
   4   1  -4   49.40    2.00
   4   1  -4   49.99    2.00
   4   1  -4   47.70    2.10
   4   1  -4   47.50    2.00
   4   1  -4   47.00    2.20
  -4  -1   4   47.70    2.00
  -4  -1   4   46.90    2.10
  -4  -1   4   46.40    2.20
  -4  -1   4   50.29    2.10
  -4  -1   4   46.30    2.20
  -4  -1   4   44.60    1.80
   4   2  -4  134.99    5.00
   4   2  -4  129.69    5.00
   4   2  -4  140.49    4.70
   4   2  -4  140.69    4.90
   4   2  -4  132.89    4.80
   4   2  -4  135.99    5.00
   4   2  -4  130.99    5.00
   4   2  -4  130.69    4.90
   4   2  -4  138.49    4.90
  -4  -2   4  139.19    4.80
  -4  -2   4  136.89    5.20
  -4  -2   4  128.69    5.00
  -4  -2   4  137.99    4.90
  -4  -2   4  128.29    5.40
  -4  -2   4  135.19    4.80
   4   3  -4   40.20    1.90
   4   3  -4   37.50    1.90
   4   3  -4   39.70    1.60
   4   3  -4   38.50    1.90
   4   3  -4   37.50    1.90
   4   3  -4   37.80    1.70
   4   3  -4   36.10    1.80
   4   3  -4   36.80    1.70
   4   3  -4   39.60    1.70
  -4  -3   4   40.10    1.70
  -4  -3   4   36.20    2.00
  -4  -3   4   39.40    1.70
  -4  -3   4   38.40    1.60
  -4  -3   4   35.10    2.30
  -4  -3   4   36.50    1.90
   4   4  -4    5.30    0.60
   4   4  -4    5.60    0.80
   4   4  -4    5.80    0.70
   4   4  -4    6.60    0.80
   4   4  -4    5.60    0.50
   4   4  -4    5.50    0.60
   4   4  -4    5.80    0.60
   4   4  -4    5.70    0.70
  -4  -4   4    5.80    0.60
  -4  -4   4    5.30    0.80
  -4  -4   4    6.20    1.20
  -4  -4   4    4.80    0.80
   4   5  -4    2.00    0.60
   4   5  -4    2.10    0.60
   4   5  -4    2.00    0.40
   4   5  -4    2.40    0.50
   4   5  -4    2.30    0.30
   4   5  -4    1.50    0.40
   4   5  -4    2.10    0.40
   4   5  -4    2.40    0.30
   4   5  -4    2.20    0.60
  -4  -5   4    0.90    0.20
  -4  -5   4    2.60    0.80
  -4  -5   4    2.40    0.60
  -4  -5   4    2.20    0.50
  -4  -5   4    2.10    0.50
   4   6  -4    1.80    0.40
   4   6  -4    1.30    0.40
   4   6  -4    2.60    0.60
   4   6  -4    1.60    0.50
   4   6  -4    1.80    0.40
   4   6  -4    1.40    0.40
  -4  -6   4    1.60    0.50
  -4  -6   4    1.50    0.50
  -4  -6   4    0.70    0.80
   4   7  -4   16.90    1.00
   4   7  -4   16.10    1.20
   4   7  -4   16.00    1.20
   4   7  -4   14.20    1.10
  -4  -7   4   13.70    2.00
  -4  -7   4   14.20    1.20
   4   8  -4   10.20    1.10
   4   8  -4   10.30    1.00
   4   8  -4   11.10    1.10
  -4  -8   4   14.90    2.40
  -4  -8   4   12.00    1.20
   4   9  -4   19.70    1.50
   4   9  -4   21.50    1.30
  -4  -9   4   14.20    2.40
   3  -7  -4    5.10    1.50
  -3   7   4    4.20    1.00
  -3   7   4    3.50    1.00
  -3   7   4    5.00    1.10
   3  -6  -4   39.10    2.10
   3  -6  -4   35.90    2.20
   3  -6  -4   38.60    3.10
  -3   6   4   38.00    2.50
  -3   6   4   34.80    3.00
  -3   6   4   34.90    2.40
  -3   6   4   38.40    2.30
   3  -5  -4   27.20    1.60
   3  -5  -4   25.80    2.40
   3  -5  -4   29.20    1.80
  -3   5   4   26.40    2.30
  -3   5   4   27.40    1.80
  -3   5   4   25.80    1.90
  -3   5   4   26.70    2.00
   3  -4  -4    4.80    0.80
   3  -4  -4    5.40    0.80
   3  -4  -4    4.60    0.40
   3  -4  -4    4.00    1.00
   3  -4  -4    5.60    0.90
   3  -4  -4    4.30    0.40
  -3   4   4    4.00    0.80
  -3   4   4    5.00    0.90
  -3   4   4    4.80    0.90
  -3   4   4    5.00    0.60
  -3   4   4    4.80    0.80
  -3   4   4    5.20    1.10
   3  -3  -4   11.70    0.70
   3  -3  -4   13.70    1.10
   3  -3  -4   11.50    1.50
   3  -3  -4   13.20    1.00
   3  -3  -4   13.70    0.80
   3  -3  -4   12.60    1.00
   3  -3  -4   11.60    1.00
  -3   3   4   13.20    0.90
  -3   3   4   14.40    1.20
  -3   3   4   13.30    1.00
  -3   3   4   14.00    1.20
  -3   3   4   13.90    1.10
  -3   3   4   14.00    1.10
  -3   3   4   13.40    1.30
   3  -2  -4   53.59    2.10
   3  -2  -4   49.50    2.40
   3  -2  -4   54.19    2.10
   3  -2  -4   51.29    2.50
   3  -2  -4   54.29    2.40
   3  -2  -4   53.89    2.80
   3  -2  -4   51.29    2.40
   3  -2  -4   51.09    2.30
  -3   2   4   53.69    2.50
  -3   2   4   53.99    2.30
  -3   2   4   53.29    2.40
  -3   2   4   55.19    2.40
  -3   2   4   53.19    2.50
  -3   2   4   53.19    2.20
  -3   2   4   53.19    2.60
   3  -1  -4   19.90    1.20
   3  -1  -4   20.60    1.30
   3  -1  -4   20.80    1.30
   3  -1  -4   23.00    1.10
   3  -1  -4   22.30    1.10
   3  -1  -4   19.50    1.20
   3  -1  -4   22.00    1.20
   3  -1  -4   18.90    1.30
   3  -1  -4   21.10    1.40
  -3   1   4   25.70    1.30
  -3   1   4   21.60    1.30
  -3   1   4   21.20    1.20
  -3   1   4   23.60    1.30
  -3   1   4   23.80    1.10
  -3   1   4   21.10    1.30
  -3   1   4   21.90    1.20
   3   0  -4    1.40    0.40
   3   0  -4    1.00    0.30
   3   0  -4    1.30    0.30
   3   0  -4    1.00    0.30
   3   0  -4    1.30    0.30
   3   0  -4    0.60    0.30
   3   0  -4    1.60    0.40
   3   0  -4    1.10    0.30
   3   0  -4    1.00    0.30
   3   0  -4    1.50    0.40
  -3   0   4    0.90    0.30
  -3   0   4    1.40    0.30
  -3   0   4    1.20    0.30
  -3   0   4    1.80    0.40
  -3   0   4    1.20    0.30
  -3   0   4    0.90    0.30
  -3   0   4    0.50    0.30
  -3   0   4    1.60    0.40
   3   1  -4   60.69    2.50
   3   1  -4   54.79    2.40
   3   1  -4   59.99    2.40
   3   1  -4   58.29    2.40
   3   1  -4   62.09    2.30
   3   1  -4   60.39    2.50
   3   1  -4   57.69    2.40
   3   1  -4   63.89    2.50
   3   1  -4   59.09    2.50
  -3  -1   4   59.99    2.10
  -3  -1   4   60.59    2.40
  -3  -1   4   60.39    2.50
  -3  -1   4   60.39    2.30
  -3  -1   4   61.09    2.50
   3   2  -4   56.39    2.30
   3   2  -4   59.19    2.50
   3   2  -4   58.79    2.10
   3   2  -4   55.79    2.30
   3   2  -4   56.49    2.30
   3   2  -4   57.69    2.20
   3   2  -4   56.49    2.40
   3   2  -4   57.99    2.40
   3   2  -4   55.19    2.30
  -3  -2   4   59.49    2.80
  -3  -2   4   57.29    2.20
  -3  -2   4   54.49    2.40
  -3  -2   4   56.99    2.10
  -3  -2   4   55.39    2.50
  -3  -2   4   53.79    2.20
   3   3  -4    2.00    0.30
   3   3  -4    2.00    0.40
   3   3  -4    3.00    0.50
   3   3  -4    2.40    0.50
   3   3  -4    2.60    0.40
   3   3  -4    2.90    0.40
   3   3  -4    2.40    0.50
   3   3  -4    2.10    0.40
  -3  -3   4    2.70    0.50
  -3  -3   4    2.80    0.40
  -3  -3   4    2.80    0.80
  -3  -3   4    1.70    0.30
  -3  -3   4    1.80    0.50
  -3  -3   4    2.10    0.40
  -3  -3   4    3.20    0.50
   3   4  -4    1.10    0.30
   3   4  -4    0.70    0.20
   3   4  -4    0.50    0.20
   3   4  -4    0.80    0.30
   3   4  -4    0.90    0.40
   3   4  -4    0.60    0.30
   3   4  -4    0.30    0.20
   3   4  -4    0.80    0.40
   3   4  -4    0.70    0.20
   3   4  -4    0.60    0.30
  -3  -4   4    0.50    0.20
  -3  -4   4    0.50    0.20
  -3  -4   4    0.60    0.50
  -3  -4   4    0.40    0.30
  -3  -4   4    0.30    0.30
  -3  -4   4    0.80    0.30
  -3  -4   4    0.40    0.30
   3   5  -4   12.50    1.00
   3   5  -4   11.80    0.80
   3   5  -4   12.70    0.90
   3   5  -4   12.80    0.80
   3   5  -4   12.00    0.70
   3   5  -4   11.30    0.80
   3   5  -4   11.60    1.00
   3   5  -4   10.90    0.90
   3   5  -4   12.10    0.80
  -3  -5   4   13.40    1.80
  -3  -5   4   11.20    0.90
  -3  -5   4   11.30    1.00
  -3  -5   4   11.00    0.70
  -3  -5   4   10.10    0.80
   3   6  -4    2.20    0.50
   3   6  -4    4.30    0.40
   3   6  -4    2.80    0.50
   3   6  -4    2.60    0.60
   3   6  -4    4.60    0.90
   3   6  -4    3.80    0.60
   3   6  -4    3.50    0.60
  -3  -6   4    4.90    0.70
  -3  -6   4    4.50    0.80
  -3  -6   4    2.30    0.80
  -3  -6   4    4.00    1.20
  -3  -6   4    4.80    0.80
   3   7  -4   16.00    1.20
   3   7  -4   19.50    1.20
   3   7  -4   18.30    1.20
   3   7  -4   17.80    1.20
  -3  -7   4   19.30    1.20
  -3  -7   4   18.20    2.40
  -3  -7   4   20.20    1.80
   3   8  -4   13.70    1.80
   3   8  -4   14.50    1.20
   3   8  -4   15.70    1.20
   3   8  -4   14.10    1.10
  -3  -8   4   17.80    2.60
  -3  -8   4   14.60    1.90
   3   9  -4    5.50    1.20
   3   9  -4    4.10    0.70
   3   9  -4    4.80    0.90
  -3  -9   4    6.00    1.70
   2  -8  -4    8.30    1.90
   2  -8  -4    6.60    1.70
  -2   8   4    5.90    1.20
  -2   8   4    5.30    1.20
  -2   8   4    6.40    1.10
   2  -7  -4   51.29    3.70
   2  -7  -4   50.89    3.70
  -2   7   4   54.49    2.90
  -2   7   4   54.09    3.10
  -2   7   4   52.99    3.10
   2  -6  -4   14.70    2.10
   2  -6  -4   18.40    1.30
  -2   6   4   15.70    2.00
  -2   6   4   16.70    1.60
  -2   6   4   18.70    1.50
  -2   6   4   18.10    1.50
   2  -5  -4    6.60    0.90
   2  -5  -4    6.50    1.30
   2  -5  -4    8.30    1.00
   2  -5  -4    6.20    0.80
  -2   5   4    5.70    0.80
  -2   5   4    6.60    1.40
  -2   5   4    5.50    0.90
  -2   5   4    7.30    1.10
  -2   5   4    6.10    1.00
   2  -4  -4   25.90    1.00
   2  -4  -4   26.50    1.50
   2  -4  -4   26.30    1.50
   2  -4  -4   24.60    1.00
   2  -4  -4   26.80    1.50
   2  -4  -4   29.60    2.10
   2  -4  -4   27.20    1.50
  -2   4   4   27.10    1.70
  -2   4   4   24.90    1.60
  -2   4   4   26.00    2.10
  -2   4   4   25.70    1.50
  -2   4   4   28.70    1.60
  -2   4   4   27.00    1.50
  -2   4   4   26.20    1.20
  -2   4   4   26.80    1.60
   2  -3  -4  115.29    4.30
   2  -3  -4  111.59    3.90
   2  -3  -4  115.79    4.30
   2  -3  -4  112.39    3.90
   2  -3  -4  115.19    4.30
   2  -3  -4  108.09    4.80
   2  -3  -4  107.69    4.20
  -2   3   4  115.59    4.30
  -2   3   4  113.79    4.40
  -2   3   4  118.29    4.50
  -2   3   4  115.69    4.20
  -2   3   4  114.19    4.40
  -2   3   4  116.99    4.10
  -2   3   4  122.79    4.50
  -2   3   4  109.29    4.90
   2  -2  -4  382.16   12.40
   2  -2  -4  388.86   12.50
   2  -2  -4  386.16   12.90
   2  -2  -4  378.26   12.70
   2  -2  -4  366.36   12.70
   2  -2  -4  381.06   12.80
   2  -2  -4  337.37   13.20
   2  -2  -4  371.16   12.70
   2  -2  -4  375.66   13.20
  -2   2   4  388.36   12.70
  -2   2   4  381.26   12.80
  -2   2   4  387.36   12.60
  -2   2   4  379.36   13.10
  -2   2   4  420.56   12.80
  -2   2   4  358.66   12.90
  -2   2   4  396.96   12.60
  -2   2   4  395.56   12.80
   2  -1  -4   20.70    1.30
   2  -1  -4   21.20    1.20
   2  -1  -4   22.10    1.10
   2  -1  -4   22.40    1.30
   2  -1  -4   20.20    1.20
   2  -1  -4   23.50    1.10
   2  -1  -4   19.80    1.30
   2  -1  -4   23.10    1.20
   2  -1  -4   22.40    1.10
   2  -1  -4   22.40    1.20
  -2   1   4   22.00    1.20
  -2   1   4   20.60    1.20
  -2   1   4   23.30    1.10
  -2   1   4   22.70    1.10
  -2   1   4   23.70    1.20
  -2   1   4   23.80    1.10
  -2   1   4   23.40    1.10
  -2   1   4   23.30    1.30
  -2   1   4   22.40    1.20
  -2   1   4   24.20    1.10
   2   0  -4  204.08    7.00
   2   0  -4  204.78    6.90
   2   0  -4  194.48    6.80
   2   0  -4  202.08    6.90
   2   0  -4  190.58    6.90
   2   0  -4  193.68    6.90
   2   0  -4  193.88    7.10
   2   0  -4  222.08    7.10
   2   0  -4  205.28    7.00
   2   0  -4  195.68    6.90
  -2   0   4  206.58    6.80
  -2   0   4  199.98    6.90
  -2   0   4  194.68    6.90
  -2   0   4  214.18    6.70
  -2   0   4  205.28    7.00
  -2   0   4  197.38    6.90
  -2   0   4  190.98    6.90
  -2   0   4  205.58    7.10
  -2   0   4  204.08    6.90
  -2   0   4  204.38    6.90
  -2   0   4  209.98    7.00
  -2   0   4  198.68    6.90
   2   1  -4    0.00    0.20
   2   1  -4    0.10    0.20
   2   1  -4    0.30    0.30
   2   1  -4    0.00    0.20
   2   1  -4   -0.10    0.20
   2   1  -4    0.00    0.20
   2   1  -4    0.00    0.20
   2   1  -4    0.10    0.20
  -2  -1   4    0.10    0.10
  -2  -1   4   -0.10    0.10
  -2  -1   4   -0.10    0.10
  -2  -1   4    0.30    0.30
  -2  -1   4   -0.10    0.20
  -2  -1   4    0.10    0.20
  -2  -1   4    0.10    0.10
  -2  -1   4    0.10    0.20
  -2  -1   4   -0.10    0.10
  -2  -1   4    0.00    0.10
   2   2  -4    6.20    0.50
   2   2  -4    6.10    0.60
   2   2  -4    6.30    0.60
   2   2  -4    6.10    0.60
   2   2  -4    5.00    0.50
   2   2  -4    5.40    0.60
   2   2  -4    6.00    0.60
   2   2  -4    5.50    0.50
  -2  -2   4    6.80    0.70
  -2  -2   4    6.90    0.70
  -2  -2   4    7.00    1.00
  -2  -2   4    5.70    0.30
  -2  -2   4    5.30    0.50
  -2  -2   4    5.40    0.50
  -2  -2   4    5.50    0.50
   2   3  -4    0.70    0.30
   2   3  -4    1.00    0.30
   2   3  -4    0.50    0.20
   2   3  -4    0.60    0.20
   2   3  -4    0.40    0.30
   2   3  -4    0.50    0.20
   2   3  -4    1.00    0.10
   2   3  -4    0.60    0.20
  -2  -3   4    0.70    0.50
  -2  -3   4    0.80    0.20
  -2  -3   4    1.00    0.20
  -2  -3   4    1.00    0.30
  -2  -3   4    1.30    0.30
  -2  -3   4    0.60    0.30
   2   4  -4   12.10    0.60
   2   4  -4   11.30    0.80
   2   4  -4   11.90    0.80
   2   4  -4   11.30    0.80
   2   4  -4   11.80    0.90
   2   4  -4   10.70    0.60
   2   4  -4   11.20    0.80
   2   4  -4   10.60    0.90
   2   4  -4   11.40    0.80
  -2  -4   4   10.20    1.40
  -2  -4   4   11.00    0.70
  -2  -4   4   11.50    0.90
  -2  -4   4   13.40    0.80
  -2  -4   4   11.80    0.70
  -2  -4   4   10.80    0.80
   2   5  -4  100.59    3.30
   2   5  -4   97.09    3.50
   2   5  -4   98.89    3.70
   2   5  -4   98.29    3.70
   2   5  -4   92.59    3.70
   2   5  -4   95.89    3.60
   2   5  -4   94.39    3.70
   2   5  -4   95.19    3.60
   2   5  -4   95.79    4.00
  -2  -5   4   95.99    3.50
  -2  -5   4   94.29    3.60
  -2  -5   4  100.69    3.80
  -2  -5   4   88.59    4.60
  -2  -5   4   96.19    3.60
  -2  -5   4   99.19    3.90
   2   6  -4    0.40    0.30
   2   6  -4    0.20    0.30
   2   6  -4    0.10    0.30
   2   6  -4    0.20    0.30
   2   6  -4    0.40    0.30
   2   6  -4    0.00    0.40
  -2  -6   4    0.20    0.40
  -2  -6   4    0.30    0.30
  -2  -6   4    0.00    0.20
  -2  -6   4   -0.10    0.50
  -2  -6   4   -0.30    0.50
   2   7  -4    2.10    0.50
   2   7  -4    2.50    0.70
   2   7  -4    2.80    0.60
   2   7  -4    2.80    0.60
  -2  -7   4    1.70    0.90
  -2  -7   4    3.60    1.20
  -2  -7   4    2.20    0.50
  -2  -7   4    2.00    0.70
   2   8  -4   -0.60    0.40
   2   8  -4    1.00    0.50
   2   8  -4   -0.10    0.40
   2   8  -4    0.20    0.60
  -2  -8   4    0.30    0.80
  -2  -8   4   -0.20    0.80
   2   9  -4   25.70    2.50
   2   9  -4   28.80    1.80
   2   9  -4   29.10    2.00
  -2  -9   4   25.70    3.20
  -2  -9   4   27.50    3.00
   1  -8  -4    7.10    1.70
   1  -8  -4    5.80    1.70
  -1   8   4    5.00    0.90
  -1   8   4    5.50    1.10
  -1   8   4    4.50    1.10
   1  -7  -4   20.30    2.60
   1  -7  -4   24.50    1.60
   1  -7  -4   28.60    3.10
  -1   7   4   24.30    1.90
  -1   7   4   25.60    1.80
  -1   7   4   23.30    1.70
   1  -6  -4   16.90    1.20
   1  -6  -4   17.60    2.20
   1  -6  -4   15.30    2.10
  -1   6   4   16.80    1.30
  -1   6   4   18.10    1.30
  -1   6   4   17.10    1.40
  -1   6   4   16.60    1.50
  -1   6   4   15.20    1.90
   1  -5  -4  217.78    8.90
   1  -5  -4  230.78    8.10
   1  -5  -4  236.78    8.20
  -1   5   4  235.18    8.20
  -1   5   4  225.28    8.30
  -1   5   4  219.58    9.30
  -1   5   4  238.88    8.20
  -1   5   4  234.78    8.10
  -1   5   4  227.18    8.00
  -1   5   4  224.38    8.30
   1  -4  -4    0.90    0.40
   1  -4  -4    0.30    0.50
   1  -4  -4    0.30    0.30
   1  -4  -4    0.10    0.30
   1  -4  -4    0.40    0.10
   1  -4  -4    0.60    0.30
  -1   4   4    0.00    0.40
  -1   4   4    0.80    0.50
  -1   4   4    0.00    0.30
  -1   4   4   -0.20    0.30
  -1   4   4    0.40    0.30
  -1   4   4    0.40    0.30
  -1   4   4    0.10    0.30
  -1   4   4    0.50    0.20
   1  -3  -4    6.30    1.10
   1  -3  -4    5.60    1.00
   1  -3  -4    6.10    0.40
   1  -3  -4    6.10    0.70
   1  -3  -4    7.60    0.80
   1  -3  -4    5.70    0.40
   1  -3  -4    7.30    0.60
   1  -3  -4    7.00    0.70
  -1   3   4    7.10    0.60
  -1   3   4    5.60    0.90
  -1   3   4    6.50    0.50
  -1   3   4    7.30    0.80
  -1   3   4    6.70    0.60
  -1   3   4    6.60    0.80
  -1   3   4    6.10    0.70
  -1   3   4    6.70    0.40
  -1   3   4    7.10    0.80
   1  -2  -4   78.69    3.10
   1  -2  -4   81.89    3.20
   1  -2  -4   82.59    2.90
   1  -2  -4   86.29    3.90
   1  -2  -4   81.29    3.10
   1  -2  -4   83.69    3.10
   1  -2  -4   75.99    3.60
   1  -2  -4   83.59    3.50
   1  -2  -4   86.59    2.90
   1  -2  -4   82.89    3.00
   1  -2  -4   82.69    3.10
  -1   2   4   81.79    3.50
  -1   2   4   84.29    2.90
  -1   2   4   81.19    3.20
  -1   2   4   84.79    3.20
  -1   2   4   80.29    3.10
  -1   2   4   82.79    2.90
  -1   2   4   83.89    2.90
  -1   2   4   82.39    3.10
   1  -1  -4   64.09    2.30
   1  -1  -4   64.39    2.30
   1  -1  -4   63.09    2.40
   1  -1  -4   62.09    2.40
   1  -1  -4   65.19    2.50
   1  -1  -4   58.99    2.70
   1  -1  -4   62.69    2.40
   1  -1  -4   63.49    2.50
   1  -1  -4   67.09    2.70
   1  -1  -4   64.69    2.50
   1  -1  -4   60.39    2.30
  -1   1   4   58.99    2.40
  -1   1   4   67.39    2.50
  -1   1   4   64.79    2.50
  -1   1   4   61.59    2.30
  -1   1   4   65.09    2.40
  -1   1   4   66.49    2.40
  -1   1   4   63.69    2.70
  -1   1   4   65.79    2.50
   1   0  -4   10.20    0.80
   1   0  -4    8.80    0.60
   1   0  -4    7.70    0.60
   1   0  -4    9.70    0.60
   1   0  -4    9.50    0.60
   1   0  -4   10.20    0.60
   1   0  -4    9.10    0.60
   1   0  -4    8.80    0.60
   1   0  -4   10.10    0.60
  -1   0   4    9.70    0.60
  -1   0   4    9.60    0.50
  -1   0   4   10.40    0.60
  -1   0   4    9.50    0.60
  -1   0   4   10.40    0.60
  -1   0   4    9.30    0.70
  -1   0   4    9.60    0.60
  -1   0   4   10.50    0.80
  -1   0   4    9.80    0.60
   1   1  -4  419.16   13.90
   1   1  -4  430.16   13.90
   1   1  -4  407.96   13.80
   1   1  -4  419.66   13.90
   1   1  -4  406.66   13.80
   1   1  -4  433.46   14.10
   1   1  -4  409.06   13.90
   1   1  -4  411.36   13.80
  -1  -1   4  425.76   13.80
  -1  -1   4  419.66   13.90
  -1  -1   4  420.96   14.30
  -1  -1   4  433.86   13.50
  -1  -1   4  435.96   13.90
  -1  -1   4  418.66   13.80
  -1  -1   4  436.06   13.80
  -1  -1   4  437.66   13.80
  -1  -1   4  427.16   13.90
  -1  -1   4  422.46   13.90
   1   2  -4  202.28    6.90
   1   2  -4  198.78    6.90
   1   2  -4  201.48    6.70
   1   2  -4  200.28    7.30
   1   2  -4  194.98    6.90
   1   2  -4  202.98    6.90
   1   2  -4  201.38    6.60
   1   2  -4  197.78    6.90
   1   2  -4  199.08    6.80
  -1  -2   4  207.58    6.80
  -1  -2   4  199.08    6.90
  -1  -2   4  203.88    6.90
  -1  -2   4  211.48    6.80
  -1  -2   4  198.38    7.40
  -1  -2   4  207.48    7.00
  -1  -2   4  208.38    6.90
  -1  -2   4  212.68    7.00
   1   3  -4    8.40    0.60
   1   3  -4    8.70    0.50
   1   3  -4   10.00    0.80
   1   3  -4    8.80    0.70
   1   3  -4    8.50    0.60
   1   3  -4    7.40    0.60
   1   3  -4    8.60    0.40
   1   3  -4    8.90    0.60
   1   3  -4    8.40    0.60
  -1  -3   4   10.30    1.30
  -1  -3   4    8.40    0.60
  -1  -3   4    9.40    0.70
  -1  -3   4    9.00    0.50
  -1  -3   4    8.70    0.60
   1   4  -4  178.38    6.60
   1   4  -4  186.78    6.40
   1   4  -4  184.48    6.40
   1   4  -4  180.18    6.30
   1   4  -4  181.08    6.50
   1   4  -4  186.68    6.20
   1   4  -4  180.68    6.50
   1   4  -4  182.98    6.30
  -1  -4   4  190.58    6.50
  -1  -4   4  179.98    7.30
  -1  -4   4  182.38    6.30
  -1  -4   4  187.08    6.40
  -1  -4   4  181.48    6.40
  -1  -4   4  183.88    6.50
   1   5  -4   60.79    2.60
   1   5  -4   60.09    2.10
   1   5  -4   63.19    2.60
   1   5  -4   60.99    2.60
   1   5  -4   57.29    2.70
   1   5  -4   59.29    2.80
   1   5  -4   62.09    2.50
   1   5  -4   57.69    2.50
  -1  -5   4   58.89    2.60
  -1  -5   4   63.79    2.60
  -1  -5   4   65.29    2.50
  -1  -5   4   58.69    2.40
  -1  -5   4   62.19    2.80
  -1  -5   4   65.89    3.60
   1   6  -4   14.00    1.00
   1   6  -4   14.50    1.50
   1   6  -4   14.40    1.10
   1   6  -4   14.40    1.00
   1   6  -4   14.20    1.20
  -1  -6   4   15.20    1.10
  -1  -6   4   13.80    1.20
  -1  -6   4   15.30    1.00
  -1  -6   4   18.40    2.30
  -1  -6   4   17.30    2.10
  -1  -6   4   15.60    0.90
   1   7  -4    0.50    0.50
   1   7  -4    0.20    0.30
   1   7  -4    0.20    0.40
   1   7  -4   -0.10    0.30
   1   7  -4    0.70    0.60
  -1  -7   4    0.30    0.30
  -1  -7   4    0.50    0.50
  -1  -7   4    0.20    0.70
  -1  -7   4   -0.30    0.70
   1   8  -4   30.60    1.90
   1   8  -4   30.10    2.40
   1   8  -4   33.10    2.10
  -1  -8   4   30.10    2.80
  -1  -8   4   29.80    2.70
   0  -9  -4    3.00    1.20
   0  -9  -4    2.30    1.20
   0   9   4    3.40    0.80
   0   9   4    3.70    0.90
   0   9   4    1.90    1.00
   0  -8  -4    1.50    0.90
   0  -8  -4    2.80    1.10
   0   8   4    0.50    0.40
   0   8   4    1.80    0.60
   0   8   4    1.30    0.80
   0  -7  -4   54.29    3.40
   0  -7  -4   48.40    3.30
   0   7   4   54.59    2.60
   0   7   4   55.39    2.80
   0   7   4   55.89    2.70
   0   7   4   50.79    2.90
   0   7   4   51.19    4.70
   0  -6  -4   17.60    1.30
   0  -6  -4   19.80    1.90
   0  -6  -4   20.60    2.30
   0  -6  -4   18.20    1.10
   0  -6  -4   18.40    1.10
   0   6   4   16.50    1.30
   0   6   4   17.30    2.00
   0   6   4   17.20    1.30
   0   6   4   18.00    1.30
   0   6   4   18.10    1.40
   0   6   4   17.00    1.40
   0   6   4   18.00    1.20
   0  -5  -4   77.59    3.90
   0  -5  -4   77.69    3.00
   0  -5  -4   75.09    3.80
   0  -5  -4   78.09    3.20
   0  -5  -4   80.59    3.00
   0   5   4   77.99    3.30
   0   5   4   73.19    4.10
   0   5   4   81.09    3.10
   0   5   4   72.99    3.30
   0   5   4   77.19    3.20
   0   5   4   74.59    3.10
   0   5   4   76.59    3.20
   0  -4  -4   24.90    1.80
   0  -4  -4   26.60    1.30
   0  -4  -4   26.00    1.80
   0  -4  -4   26.20    1.40
   0  -4  -4   27.50    1.30
   0   4   4   27.40    1.40
   0   4   4   26.80    1.00
   0   4   4   26.90    1.30
   0   4   4   28.00    1.50
   0   4   4   28.10    1.40
   0   4   4   26.70    1.40
   0   4   4   27.10    1.00
   0   4   4   25.00    1.90
   0   4   4   27.40    1.50
   0  -3  -4   90.59    3.00
   0  -3  -4   88.99    3.30
   0  -3  -4   88.29    3.80
   0  -3  -4   77.29    3.90
   0  -3  -4   91.59    3.20
   0  -3  -4   85.39    3.20
   0  -3  -4   86.99    3.70
   0   3   4   90.09    3.30
   0   3   4   90.49    3.00
   0   3   4   87.19    3.30
   0   3   4   88.99    3.00
   0   3   4   90.29    3.20
   0   3   4   85.69    3.90
   0   3   4   86.49    3.40
   0   3   4   87.59    3.30
   0   3   4   92.79    3.30
   0   3   4   83.59    3.30
   0  -2  -4  107.99    3.60
   0  -2  -4  103.49    3.70
   0  -2  -4   90.09    3.40
   0  -2  -4  106.39    3.50
   0  -2  -4   97.09    3.70
   0  -2  -4  102.89    3.60
   0  -2  -4  103.79    3.60
   0  -2  -4  111.99    4.00
   0  -2  -4  100.29    3.60
   0  -2  -4   94.79    4.10
   0  -2  -4   96.99    3.90
   0   2   4   98.19    3.70
   0   2   4  102.99    3.60
   0   2   4  102.99    3.70
   0   2   4   95.99    3.60
   0   2   4  109.89    3.50
   0   2   4  106.39    3.70
   0   2   4  104.29    3.60
   0   2   4   97.59    4.10
   0   2   4  100.99    3.50
   0  -1  -4   26.90    1.20
   0  -1  -4   27.90    1.10
   0  -1  -4   26.30    1.20
   0  -1  -4   25.90    1.30
   0  -1  -4   26.10    1.50
   0  -1  -4   25.80    1.10
   0  -1  -4   27.30    1.30
   0  -1  -4   27.00    1.20
   0  -1  -4   24.80    1.10
   0  -1  -4   23.20    1.20
   0   1   4   26.10    1.40
   0   1   4   26.70    1.10
   0   1   4   27.50    1.20
   0   1   4   24.10    1.10
   0   1   4   25.20    1.10
   0   1   4   23.20    1.20
   0   1   4   25.50    1.10
   0   1   4   26.10    1.10
   0   1   4   25.20    1.20
   0   0  -4  352.26   11.40
   0   0  -4  363.16   11.30
   0   0  -4  332.97   11.40
   0   0  -4  345.77   11.40
   0   0  -4  340.27   11.30
   0   0  -4  365.16   11.70
   0   0  -4  333.27   11.30
   0   0  -4  335.07   11.30
   0   0   4  335.47   11.60
   0   0   4  347.67   11.30
   0   0   4  348.17   11.30
   0   0   4  350.56   11.60
   0   0   4  342.17   11.40
   0   0   4  332.57   11.20
   0   0   4  342.77   11.40
   0   0   4  341.17   11.40
   0   0   4  356.66   11.30
   0   0   4  355.66   11.30
   0   1  -4   53.49    2.30
   0   1  -4   50.79    2.00
   0   1  -4   50.19    2.00
   0   1  -4   49.70    1.80
   0   1  -4   51.59    2.00
   0   1  -4   49.70    1.90
   0   1  -4   50.09    2.00
   0   1  -4   49.80    1.90
   0  -1   4   52.09    2.00
   0  -1   4   52.69    2.00
   0  -1   4   50.39    1.80
   0  -1   4   51.09    2.00
   0  -1   4   50.49    2.00
   0  -1   4   51.29    2.30
   0  -1   4   51.39    1.80
   0  -1   4   46.90    2.00
   0  -1   4   49.50    1.70
   0  -1   4   53.49    2.00
   0   2  -4   45.30    1.80
   0   2  -4   45.60    1.90
   0   2  -4   47.10    2.00
   0   2  -4   46.10    2.00
   0   2  -4   45.80    1.90
   0   2  -4   47.40    1.70
   0   2  -4   44.40    1.80
   0   2  -4   45.50    2.00
   0  -2   4   47.70    1.90
   0  -2   4   46.90    1.90
   0  -2   4   46.50    1.90
   0  -2   4   48.60    1.90
   0  -2   4   45.70    1.70
   0  -2   4   47.80    1.70
   0  -2   4   48.90    2.40
   0  -2   4   46.60    1.90
   0   3  -4    5.90    0.30
   0   3  -4    6.20    0.60
   0   3  -4    6.50    0.70
   0   3  -4    5.70    0.50
   0   3  -4    6.80    0.70
   0   3  -4    6.00    0.70
   0   3  -4    5.80    0.50
   0   3  -4    5.60    0.70
   0   3  -4    4.50    0.50
   0  -3   4    6.10    0.60
   0  -3   4    6.10    1.00
   0  -3   4    4.60    0.60
   0  -3   4    6.30    0.60
   0  -3   4    6.40    0.70
   0   4  -4   14.30    0.90
   0   4  -4   13.20    1.00
   0   4  -4   12.90    1.00
   0   4  -4   12.50    0.90
   0   4  -4   12.90    1.00
   0   4  -4   12.90    0.80
   0   4  -4   14.30    0.60
   0   4  -4   13.90    0.90
   0  -4   4   12.80    0.90
   0  -4   4   13.60    1.00
   0  -4   4   12.90    1.00
   0  -4   4   12.80    0.90
   0  -4   4   18.40    2.00
   0  -4   4   12.60    0.90
   0   5  -4    8.20    0.70
   0   5  -4    8.10    0.90
   0   5  -4    8.70    1.00
   0   5  -4    7.50    0.70
   0   5  -4    7.70    0.50
   0   5  -4    7.10    0.90
   0   5  -4    7.00    0.90
   0   5  -4    5.90    0.80
   0  -5   4    7.80    0.70
   0  -5   4    8.70    0.90
   0  -5   4    7.70    1.10
   0  -5   4    7.40    1.00
   0  -5   4   10.10    0.80
   0  -5   4    9.60    1.60
   0   6  -4    0.10    0.30
   0   6  -4   -0.10    0.30
   0   6  -4    0.00    0.40
   0   6  -4    0.50    0.50
   0   6  -4   -0.20    0.30
   0   6  -4    0.10    0.40
   0  -6   4   -0.40    0.20
   0  -6   4   -0.40    0.50
   0  -6   4   -0.30    0.60
   0  -6   4   -0.10    0.20
   0  -6   4   -0.20    0.40
   0   7  -4    0.40    0.60
   0   7  -4    0.50    0.50
   0   7  -4   -0.20    0.50
   0   7  -4   -0.20    0.30
   0  -7   4   -0.20    0.60
   0  -7   4   -0.30    0.70
   0  -7   4    0.10    0.60
   0   8  -4    9.50    1.40
   0   8  -4    8.50    1.50
   0   8  -4    9.60    1.30
   0  -8   4    8.40    1.70
   0  -8   4   10.40    2.00
   0  -8   4    8.90    1.90
  -1  -9  -4    4.20    1.50
  -1  -9  -4    3.60    1.30
   1   9   4    4.50    0.90
   1   9   4    4.00    1.10
   1   9   4    3.90    0.80
  -1  -8  -4   47.70    3.40
  -1  -8  -4   49.40    3.40
   1   8   4   53.39    3.10
   1   8   4   49.90    2.60
   1   8   4   56.49    2.60
  -1  -7  -4    1.30    0.30
  -1  -7  -4    1.10    0.80
  -1  -7  -4    0.90    0.40
  -1  -7  -4    1.70    0.80
   1   7   4    1.00    0.60
   1   7   4    0.70    0.70
   1   7   4    1.10    0.50
   1   7   4    1.20    0.50
   1   7   4    0.90    0.40
  -1  -6  -4    0.00    0.50
  -1  -6  -4    0.40    0.50
  -1  -6  -4    0.00    0.20
  -1  -6  -4    0.20    0.30
  -1  -6  -4    0.10    0.20
   1   6   4   -0.20    0.20
   1   6   4    0.00    0.30
   1   6   4   -0.40    0.30
   1   6   4    0.20    0.30
   1   6   4   -0.30    0.30
   1   6   4   -0.50    0.40
   1   6   4    0.40    0.30
  -1  -5  -4   41.50    1.70
  -1  -5  -4   40.40    2.40
  -1  -5  -4   37.80    1.80
  -1  -5  -4   41.10    1.70
  -1  -5  -4   43.90    2.50
   1   5   4   39.20    2.10
   1   5   4   40.90    1.80
   1   5   4   40.20    1.40
   1   5   4   38.90    2.70
   1   5   4   40.40    1.80
   1   5   4   39.00    1.80
   1   5   4   40.40    1.40
   1   5   4   40.20    1.40
   1   5   4   42.30    1.90
   1   5   4   43.40    1.90
  -1  -4  -4   40.60    2.50
  -1  -4  -4   39.60    1.70
  -1  -4  -4   45.00    1.80
  -1  -4  -4   42.70    1.70
  -1  -4  -4   41.30    1.80
  -1  -4  -4   43.80    2.30
  -1  -4  -4   37.40    2.20
   1   4   4   41.30    1.80
   1   4   4   37.50    2.40
   1   4   4   41.70    1.80
   1   4   4   43.70    1.80
   1   4   4   41.90    2.00
   1   4   4   43.10    1.80
   1   4   4   41.10    1.50
   1   4   4   42.60    1.50
  -1  -3  -4  492.85   15.60
  -1  -3  -4  419.66   16.30
  -1  -3  -4  484.15   15.50
  -1  -3  -4  477.25   15.60
  -1  -3  -4  476.85   16.10
  -1  -3  -4  462.05   15.70
  -1  -3  -4  479.25   15.50
  -1  -3  -4  469.35   15.60
  -1  -3  -4  472.45   16.10
  -1  -3  -4  477.75   15.50
   1   3   4  490.75   15.60
   1   3   4  464.45   15.70
   1   3   4  471.75   16.40
   1   3   4  486.55   15.50
   1   3   4  486.25   15.40
   1   3   4  488.15   15.60
   1   3   4  489.35   15.60
   1   3   4  487.05   15.40
   1   3   4  487.95   15.60
   1   3   4  485.95   15.70
  -1  -2  -4  353.66   11.60
  -1  -2  -4  353.86   11.60
  -1  -2  -4  322.57   12.20
  -1  -2  -4  361.96   12.00
  -1  -2  -4  362.76   11.60
  -1  -2  -4  352.66   11.50
  -1  -2  -4  368.46   12.00
  -1  -2  -4  356.66   11.70
  -1  -2  -4  348.87   11.70
   1   2   4  357.76   11.70
   1   2   4  350.86   11.50
   1   2   4  363.86   11.60
   1   2   4  361.56   11.60
   1   2   4  350.26   11.60
   1   2   4  360.36   11.60
   1   2   4  357.26   12.20
   1   2   4  352.06   11.50
  -1  -1  -4  232.28    7.60
  -1  -1  -4  220.58    7.70
  -1  -1  -4  226.58    7.60
  -1  -1  -4  226.38    8.00
  -1  -1  -4  231.48    7.60
  -1  -1  -4  226.38    7.60
  -1  -1  -4  245.38    8.00
  -1  -1  -4  214.98    7.60
   1   1   4  232.38    7.70
   1   1   4  240.38    7.60
   1   1   4  219.98    7.60
   1   1   4  236.88    7.60
   1   1   4  239.28    7.50
   1   1   4  225.38    7.60
   1   1   4  208.58    7.70
   1   1   4  236.98    8.00
   1   1   4  233.88    7.60
  -1   0  -4  230.58    7.80
  -1   0  -4  230.28    7.70
  -1   0  -4  232.48    7.90
  -1   0  -4  232.58    7.80
  -1   0  -4  240.18    7.90
  -1   0  -4  240.78    8.20
  -1   0  -4  230.58    7.80
  -1   0  -4  224.78    7.80
  -1   0  -4  233.38    7.80
   1   0   4  240.78    8.20
   1   0   4  230.68    7.80
   1   0   4  246.38    7.80
   1   0   4  231.68    7.80
   1   0   4  230.18    7.70
   1   0   4  233.38    7.90
   1   0   4  246.48    7.80
   1   0   4  237.08    7.90
   1   0   4  232.88    7.70
  -1   1  -4    5.50    0.60
  -1   1  -4    4.70    0.50
  -1   1  -4    5.30    0.50
  -1   1  -4    4.80    0.40
  -1   1  -4    4.90    0.40
  -1   1  -4    5.60    0.60
  -1   1  -4    5.50    0.70
  -1   1  -4    4.80    0.50
  -1   1  -4    5.10    0.40
  -1   1  -4    5.20    0.50
   1  -1   4    4.90    0.50
   1  -1   4    5.00    0.30
   1  -1   4    5.50    0.60
   1  -1   4    6.60    0.80
   1  -1   4    5.20    0.40
   1  -1   4    6.10    0.60
   1  -1   4    6.10    0.60
   1  -1   4    5.60    0.50
   1  -1   4    5.40    0.40
  -1   2  -4   64.39    2.60
  -1   2  -4   60.19    2.60
  -1   2  -4   64.39    2.30
  -1   2  -4   64.89    2.60
  -1   2  -4   64.19    2.40
  -1   2  -4   63.39    2.50
  -1   2  -4   64.49    2.40
  -1   2  -4   69.49    2.60
  -1   2  -4   62.29    2.60
   1  -2   4   64.39    2.40
   1  -2   4   63.09    2.60
   1  -2   4   65.99    2.60
   1  -2   4   64.89    2.60
   1  -2   4   66.29    2.60
   1  -2   4   61.09    2.90
   1  -2   4   63.29    2.30
   1  -2   4   70.79    2.50
   1  -2   4   67.09    2.50
  -1   3  -4    1.00    0.30
  -1   3  -4    1.20    0.20
  -1   3  -4    0.90    0.40
  -1   3  -4    1.00    0.30
  -1   3  -4    1.10    0.40
  -1   3  -4    1.00    0.40
  -1   3  -4    1.40    0.30
  -1   3  -4    0.60    0.30
   1  -3   4    0.80    0.40
   1  -3   4    0.80    0.30
   1  -3   4    0.80    0.30
   1  -3   4    1.10    0.30
   1  -3   4    1.40    0.40
   1  -3   4    1.20    0.60
  -1   4  -4    1.30    0.30
  -1   4  -4    1.30    0.30
  -1   4  -4    1.20    0.40
  -1   4  -4    0.70    0.30
  -1   4  -4    1.80    0.50
  -1   4  -4    0.80    0.40
  -1   4  -4    0.60    0.40
   1  -4   4    1.60    0.70
   1  -4   4    0.60    0.30
   1  -4   4    0.60    0.40
   1  -4   4    1.60    0.40
   1  -4   4    0.10    0.20
  -1   5  -4   29.60    1.80
  -1   5  -4   25.70    1.80
  -1   5  -4   30.30    1.90
  -1   5  -4   33.40    1.80
  -1   5  -4   31.80    1.50
  -1   5  -4   30.70    1.40
   1  -5   4   31.00    2.30
   1  -5   4   29.20    1.50
   1  -5   4   30.90    1.70
   1  -5   4   33.50    2.60
  -1   6  -4   21.10    1.70
  -1   6  -4   24.50    1.30
  -1   6  -4   22.00    1.80
  -1   6  -4   25.30    1.70
   1  -6   4   25.00    2.80
   1  -6   4   24.00    1.30
   1  -6   4   25.30    2.00
   1  -6   4   25.60    2.30
   1  -6   4   23.50    1.60
  -1   7  -4    2.00    0.70
  -1   7  -4    2.30    0.90
  -1   7  -4    2.50    0.80
   1  -7   4    1.90    0.90
   1  -7   4    3.20    1.20
   1  -7   4    2.60    1.10
  -1   8  -4   12.20    1.60
  -1   8  -4   12.30    1.90
  -1   8  -4   10.80    1.40
   1  -8   4    9.20    1.70
   1  -8   4   10.00    2.00
   1  -8   4    8.40    1.90
  -2 -10  -4    2.20    1.10
  -2 -10  -4    0.70    0.80
   2  10   4    0.30    0.50
   2  10   4    1.20    0.90
   2  10   4    0.80    0.40
  -2  -9  -4    4.50    1.30
  -2  -9  -4    5.70    1.50
   2   9   4    4.60    0.80
   2   9   4    5.00    0.80
   2   9   4    5.30    1.20
  -2  -8  -4   12.50    1.90
  -2  -8  -4   12.50    1.90
   2   8   4   13.30    1.60
   2   8   4   16.00    1.30
   2   8   4   13.40    1.00
   2   8   4   13.40    1.10
  -2  -7  -4    6.70    0.90
  -2  -7  -4   10.80    1.50
  -2  -7  -4    9.10    1.50
  -2  -7  -4    9.60    0.70
   2   7   4    7.70    1.10
   2   7   4    8.20    0.90
   2   7   4    8.90    1.00
   2   7   4    8.00    0.90
   2   7   4    8.50    0.40
   2   7   4    8.30    0.40
   2   7   4    9.50    0.80
   2   7   4    8.60    1.60
  -2  -6  -4   56.39    2.10
  -2  -6  -4   57.09    3.00
  -2  -6  -4   59.49    2.50
  -2  -6  -4   53.29    3.10
   2   6   4   57.09    2.50
   2   6   4   59.89    2.00
   2   6   4   51.99    3.40
   2   6   4   55.19    2.10
   2   6   4   55.59    2.30
   2   6   4   57.29    2.30
   2   6   4   54.69    2.40
   2   6   4   54.09    2.70
  -2  -5  -4   14.10    0.90
  -2  -5  -4   14.50    0.70
  -2  -5  -4   14.50    1.30
  -2  -5  -4   15.20    1.40
  -2  -5  -4   13.00    0.70
  -2  -5  -4   13.50    0.90
   2   5   4   14.10    0.80
   2   5   4   12.10    1.50
   2   5   4   14.00    0.90
   2   5   4   13.90    0.80
   2   5   4   15.10    0.80
   2   5   4   12.00    1.00
   2   5   4   14.10    0.90
   2   5   4   14.20    0.70
  -2  -4  -4  122.59    4.10
  -2  -4  -4  121.49    4.20
  -2  -4  -4  122.59    4.10
  -2  -4  -4  115.79    4.90
  -2  -4  -4  108.19    5.10
  -2  -4  -4  121.09    4.70
  -2  -4  -4  113.19    4.50
  -2  -4  -4  122.79    4.30
  -2  -4  -4  122.49    4.20
   2   4   4  121.19    5.20
   2   4   4  120.99    4.40
   2   4   4  119.69    4.10
   2   4   4  128.59    4.20
   2   4   4  122.59    4.20
   2   4   4  120.99    4.20
   2   4   4  121.79    4.20
   2   4   4  120.69    4.20
  -2  -3  -4  122.39    4.20
  -2  -3  -4  115.09    4.30
  -2  -3  -4  123.49    4.70
  -2  -3  -4  125.69    4.30
  -2  -3  -4  119.89    4.20
  -2  -3  -4  120.29    4.20
  -2  -3  -4  128.89    4.60
  -2  -3  -4  118.89    4.10
  -2  -3  -4  110.79    4.90
  -2  -3  -4  122.89    4.10
   2   3   4  120.99    4.20
   2   3   4  119.49    4.90
   2   3   4  126.19    4.20
   2   3   4  117.89    4.30
   2   3   4  125.59    4.20
   2   3   4  119.49    4.20
   2   3   4  129.99    4.10
   2   3   4  120.79    4.20
  -2  -2  -4   15.00    0.80
  -2  -2  -4   13.50    1.10
  -2  -2  -4   13.70    1.00
  -2  -2  -4   14.70    0.70
  -2  -2  -4   14.10    0.70
  -2  -2  -4   14.80    0.70
  -2  -2  -4   14.20    0.70
  -2  -2  -4   15.00    0.80
   2   2   4   14.50    0.80
   2   2   4   14.00    0.70
   2   2   4   13.60    0.80
   2   2   4   15.30    0.80
   2   2   4   14.80    0.70
   2   2   4   14.30    0.70
   2   2   4   14.30    1.10
   2   2   4   14.90    0.80
  -2  -1  -4   17.50    0.80
  -2  -1  -4   16.80    0.90
  -2  -1  -4   15.80    0.90
  -2  -1  -4   18.20    0.90
  -2  -1  -4   17.90    1.20
  -2  -1  -4   18.20    0.90
  -2  -1  -4   17.60    0.70
  -2  -1  -4   16.50    1.00
  -2  -1  -4   16.80    0.60
   2   1   4   17.70    0.90
   2   1   4   18.20    1.10
   2   1   4   15.90    0.90
   2   1   4   17.20    0.90
   2   1   4   15.40    0.90
   2   1   4   16.50    0.90
   2   1   4   17.80    0.90
   2   1   4   17.50    0.90
  -2   0  -4   28.60    1.30
  -2   0  -4   28.20    1.30
  -2   0  -4   30.10    1.40
  -2   0  -4   31.00    1.30
  -2   0  -4   29.00    1.20
  -2   0  -4   29.60    1.30
  -2   0  -4   30.60    1.40
  -2   0  -4   31.10    1.60
  -2   0  -4   30.10    1.30
   2   0   4   29.00    1.20
   2   0   4   28.70    1.40
   2   0   4   31.60    1.40
   2   0   4   31.60    1.40
   2   0   4   28.30    1.30
   2   0   4   32.20    1.30
   2   0   4   29.00    1.50
   2   0   4   29.70    1.40
   2   0   4   30.90    1.30
   2   0   4   29.80    1.30
  -2   1  -4  526.55   17.00
  -2   1  -4  533.45   16.90
  -2   1  -4  508.65   16.80
  -2   1  -4  525.65   17.30
  -2   1  -4  504.45   16.80
  -2   1  -4  526.65   16.90
  -2   1  -4  513.95   16.70
  -2   1  -4  474.55   17.00
  -2   1  -4  495.35   16.90
   2  -1   4  515.85   16.80
   2  -1   4  527.45   16.80
   2  -1   4  511.15   17.00
   2  -1   4  545.05   17.00
   2  -1   4  492.95   16.90
   2  -1   4  507.35   16.70
   2  -1   4  527.35   17.20
   2  -1   4  517.85   17.00
   2  -1   4  522.45   16.80
   2  -1   4  510.55   16.80
  -2   2  -4 1575.94   51.09
  -2   2  -4 1606.14   50.99
  -2   2  -4 1619.74   51.39
  -2   2  -4 1594.94   50.99
  -2   2  -4 1490.15   51.29
  -2   2  -4 1586.84   51.19
  -2   2  -4 1576.84   51.39
   2  -2   4 1694.63   51.39
   2  -2   4 1604.44   51.29
   2  -2   4 1609.44   51.69
   2  -2   4 1548.84   51.19
   2  -2   4 1580.04   51.39
   2  -2   4 1611.34   51.09
   2  -2   4 1624.34   51.29
   2  -2   4 1582.74   50.99
   2  -2   4 1561.04   51.29
  -2   3  -4   -0.20    0.20
  -2   3  -4   -0.30    0.20
  -2   3  -4    0.10    0.30
  -2   3  -4   -0.40    0.30
  -2   3  -4   -0.30    0.20
  -2   3  -4   -0.40    0.20
  -2   3  -4    0.20    0.30
   2  -3   4   -0.20    0.20
   2  -3   4    0.00    0.20
   2  -3   4    0.10    0.20
   2  -3   4    0.10    0.40
   2  -3   4    0.30    0.20
   2  -3   4    0.30    0.30
   2  -3   4    0.20    0.10
   2  -3   4   -0.10    0.30
  -2   4  -4    7.40    1.00
  -2   4  -4    7.50    1.00
  -2   4  -4    4.60    0.70
  -2   4  -4    8.70    1.00
  -2   4  -4    7.00    0.70
  -2   4  -4    8.40    1.00
   2  -4   4    8.70    1.00
   2  -4   4    8.70    1.00
   2  -4   4    8.20    0.70
   2  -4   4    8.70    1.00
   2  -4   4   10.70    1.50
   2  -4   4    9.50    1.10
  -2   5  -4    8.90    1.20
  -2   5  -4    9.30    0.80
  -2   5  -4    8.20    1.10
  -2   5  -4    8.10    1.10
  -2   5  -4   10.90    1.40
   2  -5   4   11.80    1.30
   2  -5   4    9.20    1.60
   2  -5   4   10.10    1.70
   2  -5   4    9.30    0.80
  -2   6  -4   26.50    2.00
  -2   6  -4   26.90    2.10
  -2   6  -4   28.40    1.90
   2  -6   4   28.50    1.90
   2  -6   4   31.50    2.60
   2  -6   4   28.50    2.60
  -2   7  -4    0.30    0.60
  -2   7  -4   -0.30    0.50
  -2   7  -4    0.40    0.60
   2  -7   4    0.50    0.90
   2  -7   4    0.80    0.90
   2  -7   4   -0.40    0.70
  -3 -10  -4    1.40    0.80
  -3 -10  -4    1.10    0.90
   3  10   4    1.70    0.60
   3  10   4    1.40    0.40
   3  10   4    1.60    0.80
  -3  -9  -4   18.90    2.30
  -3  -9  -4   13.40    2.10
   3   9   4   15.60    1.90
   3   9   4   17.00    1.10
   3   9   4   16.20    1.20
  -3  -8  -4   15.40    1.90
  -3  -8  -4   14.40    2.10
   3   8   4   14.00    0.90
   3   8   4   14.10    1.20
   3   8   4   10.00    1.40
   3   8   4   13.50    1.00
   3   8   4   13.00    1.60
  -3  -7  -4    2.20    0.80
  -3  -7  -4    2.10    0.50
  -3  -7  -4    1.40    0.40
  -3  -7  -4    1.10    0.70
   3   7   4    1.00    0.30
   3   7   4    1.00    0.30
   3   7   4    1.40    0.70
   3   7   4    1.20    0.40
   3   7   4    1.10    0.30
   3   7   4    0.90    0.30
   3   7   4    1.20    0.30
   3   7   4    0.50    0.50
  -3  -6  -4    0.60    0.50
  -3  -6  -4    0.20    0.10
  -3  -6  -4    0.30    0.10
  -3  -6  -4    0.60    0.30
  -3  -6  -4    0.90    0.30
  -3  -6  -4    0.70    0.50
   3   6   4    0.10    0.20
   3   6   4    0.00    0.30
   3   6   4    0.00    0.20
   3   6   4    1.10    0.70
   3   6   4    0.40    0.20
   3   6   4    0.00    0.20
   3   6   4    0.50    0.20
   3   6   4    0.40    0.20
  -3  -5  -4   13.40    1.10
  -3  -5  -4   13.40    0.60
  -3  -5  -4   13.20    0.60
  -3  -5  -4   13.70    1.30
  -3  -5  -4   12.60    0.80
  -3  -5  -4   13.40    0.80
   3   5   4   12.30    0.70
   3   5   4   13.50    0.70
   3   5   4   13.30    0.70
   3   5   4   12.80    1.40
   3   5   4   14.80    0.90
   3   5   4   13.40    0.70
   3   5   4   13.10    1.00
  -3  -4  -4    0.40    0.10
  -3  -4  -4    0.50    0.40
  -3  -4  -4    0.90    0.30
  -3  -4  -4    0.40    0.10
  -3  -4  -4    0.20    0.40
  -3  -4  -4    0.70    0.40
   3   4   4    0.40    0.20
   3   4   4    0.40    0.20
   3   4   4    0.70    0.20
   3   4   4    1.00    0.50
   3   4   4    0.40    0.20
   3   4   4    0.20    0.20
   3   4   4    0.60    0.20
  -3  -3  -4  344.87   11.60
  -3  -3  -4  338.47   11.00
  -3  -3  -4  286.57   11.70
  -3  -3  -4  354.66   11.00
  -3  -3  -4  342.37   11.10
  -3  -3  -4  341.67   11.00
  -3  -3  -4  340.87   11.00
   3   3   4  328.77   10.90
   3   3   4  339.67   11.00
   3   3   4  325.17   11.70
   3   3   4  339.77   11.00
   3   3   4  328.47   11.00
   3   3   4  338.87   11.00
   3   3   4  352.16   11.00
   3   3   4  340.67   11.30
   3   3   4  334.77   11.30
  -3  -2  -4    4.40    0.50
  -3  -2  -4    4.80    0.50
  -3  -2  -4    4.80    0.40
  -3  -2  -4    5.20    0.50
  -3  -2  -4    4.90    0.70
  -3  -2  -4    4.40    0.70
  -3  -2  -4    5.90    0.60
   3   2   4    4.50    0.50
   3   2   4    4.90    0.40
   3   2   4    4.90    0.30
   3   2   4    3.50    0.40
   3   2   4    4.80    0.70
   3   2   4    4.50    0.50
   3   2   4    3.70    0.50
   3   2   4    4.10    0.50
  -3  -1  -4   23.80    1.20
  -3  -1  -4   21.20    1.10
  -3  -1  -4   24.90    1.10
  -3  -1  -4   23.00    1.10
  -3  -1  -4   21.20    1.10
  -3  -1  -4   22.20    1.40
  -3  -1  -4   24.00    1.10
  -3  -1  -4   23.20    1.10
   3   1   4   23.50    1.10
   3   1   4   23.20    1.20
   3   1   4   20.00    1.10
   3   1   4   22.20    1.10
   3   1   4   25.10    1.10
   3   1   4   23.30    1.20
   3   1   4   23.70    1.30
   3   1   4   22.10    0.90
   3   1   4   21.10    1.10
  -3   0  -4    0.70    0.20
  -3   0  -4    0.40    0.20
  -3   0  -4    0.80    0.20
  -3   0  -4    0.70    0.30
  -3   0  -4    0.60    0.20
  -3   0  -4    0.60    0.20
  -3   0  -4    0.40    0.30
  -3   0  -4    0.60    0.30
   3   0   4    0.20    0.20
   3   0   4    0.20    0.20
   3   0   4    0.50    0.20
   3   0   4    0.50    0.30
   3   0   4    0.50    0.20
   3   0   4    1.10    0.30
   3   0   4    0.80    0.30
  -3   1  -4 1244.78   39.70
  -3   1  -4 1220.68   40.00
  -3   1  -4 1220.08   39.70
  -3   1  -4 1247.68   39.70
  -3   1  -4 1285.47   39.90
  -3   1  -4 1279.27   40.20
  -3   1  -4 1117.89   39.60
  -3   1  -4 1201.08   39.90
   3  -1   4 1228.48   39.70
   3  -1   4 1247.98   39.70
   3  -1   4 1202.28   39.80
   3  -1   4 1263.27   39.70
   3  -1   4 1182.88   39.90
   3  -1   4 1219.48   39.70
   3  -1   4 1222.68   39.90
   3  -1   4 1316.77   40.00
   3  -1   4 1251.57   40.00
  -3   2  -4    4.80    0.70
  -3   2  -4    4.10    0.70
  -3   2  -4    4.60    0.60
  -3   2  -4    2.70    0.70
  -3   2  -4    3.20    0.50
  -3   2  -4    3.90    0.60
  -3   2  -4    5.20    0.70
  -3   2  -4    3.80    0.50
   3  -2   4    4.00    0.70
   3  -2   4    4.30    0.50
   3  -2   4    4.20    0.50
   3  -2   4    3.20    0.60
   3  -2   4    3.10    0.70
   3  -2   4    4.30    0.50
   3  -2   4    4.40    0.70
   3  -2   4    3.90    0.60
  -3   3  -4   10.40    1.20
  -3   3  -4   10.50    0.90
  -3   3  -4    9.60    0.90
  -3   3  -4    9.70    1.20
  -3   3  -4   11.60    1.20
  -3   3  -4   10.80    0.80
   3  -3   4   12.20    1.50
   3  -3   4   11.50    1.00
   3  -3   4    9.40    0.60
   3  -3   4   10.40    0.80
   3  -3   4   11.30    0.80
   3  -3   4   11.20    1.10
   3  -3   4   11.30    1.20
   3  -3   4   11.90    1.20
  -3   4  -4   16.50    1.60
  -3   4  -4   14.60    1.00
  -3   4  -4   14.70    1.30
  -3   4  -4   14.80    1.20
  -3   4  -4   16.00    1.30
   3  -4   4   14.30    0.90
   3  -4   4   16.70    1.30
   3  -4   4   17.50    1.30
   3  -4   4   15.30    0.80
   3  -4   4   14.70    1.00
   3  -4   4   14.60    1.70
   3  -4   4   13.70    1.20
   3  -4   4   15.50    1.30
  -3   5  -4    0.60    0.50
  -3   5  -4    1.30    0.70
  -3   5  -4   -0.20    0.30
  -3   5  -4    0.50    0.60
   3  -5   4    1.30    0.60
   3  -5   4   -0.30    0.50
   3  -5   4    0.30    0.90
  -3   6  -4   22.40    1.90
  -3   6  -4   26.30    2.10
  -3   6  -4   24.30    1.90
   3  -6   4   23.70    3.00
   3  -6   4   24.70    1.80
  -3   7  -4   14.00    1.80
  -3   7  -4   12.40    1.70
  -3   7  -4   10.80    1.70
   3  -7   4    9.60    2.10
  -4 -10  -4   15.00    2.30
  -4 -10  -4   16.90    2.20
   4  10   4   17.10    1.20
   4  10   4   17.70    2.10
  -4  -9  -4   21.30    2.60
  -4  -9  -4   29.20    2.30
   4   9   4   28.10    1.50
   4   9   4   28.90    1.30
   4   9   4   27.40    2.10
  -4  -8  -4    3.10    0.90
  -4  -8  -4    6.30    1.40
  -4  -8  -4    3.40    0.60
   4   8   4    3.00    0.60
   4   8   4    5.00    1.00
   4   8   4    4.40    0.40
   4   8   4    4.40    0.60
   4   8   4    4.60    0.60
   4   8   4    4.20    0.50
  -4  -7  -4   21.60    1.60
  -4  -7  -4   20.90    1.90
  -4  -7  -4   22.80    1.30
   4   7   4   19.70    1.50
   4   7   4   21.80    1.00
   4   7   4   21.00    0.90
   4   7   4   18.20    2.10
   4   7   4   21.90    1.10
   4   7   4   19.00    1.30
   4   7   4   22.30    1.20
  -4  -6  -4   26.70    1.60
  -4  -6  -4   25.80    1.30
  -4  -6  -4   23.80    1.90
   4   6   4   25.40    1.00
   4   6   4   25.60    1.10
   4   6   4   22.60    2.10
   4   6   4   23.60    1.10
   4   6   4   22.40    1.50
   4   6   4   25.50    1.30
  -4  -5  -4   29.50    1.50
  -4  -5  -4   29.90    1.60
  -4  -5  -4   29.70    2.00
   4   5   4   30.10    1.20
   4   5   4   30.50    1.20
   4   5   4   28.40    1.20
   4   5   4   32.80    1.40
   4   5   4   29.30    1.60
   4   5   4   28.50    1.20
   4   5   4   27.30    2.10
   4   5   4   27.80    1.50
  -4  -4  -4    0.10    0.20
  -4  -4  -4    0.00    0.10
  -4  -4  -4    0.30    0.10
  -4  -4  -4    0.20    0.30
  -4  -4  -4    0.00    0.30
  -4  -4  -4   -0.30    0.20
   4   4   4    0.20    0.10
   4   4   4    0.70    0.20
   4   4   4    0.10    0.30
   4   4   4    0.20    0.20
   4   4   4    0.50    0.40
   4   4   4    0.00    0.10
   4   4   4    0.10    0.10
   4   4   4    0.40    0.20
   4   4   4    0.40    0.30
  -4  -3  -4   17.30    0.80
  -4  -3  -4   18.80    0.80
  -4  -3  -4   13.80    1.20
  -4  -3  -4   17.60    1.00
  -4  -3  -4   17.10    0.80
  -4  -3  -4   16.00    1.20
  -4  -3  -4   16.30    0.90
   4   3   4   19.10    0.90
   4   3   4   15.30    1.00
   4   3   4   16.20    1.00
   4   3   4   17.90    0.80
   4   3   4   16.20    0.80
   4   3   4   16.60    0.90
   4   3   4   16.90    0.90
   4   3   4   17.10    1.30
  -4  -2  -4    1.40    0.50
  -4  -2  -4    1.40    0.30
  -4  -2  -4    2.60    0.60
  -4  -2  -4    1.20    0.30
  -4  -2  -4    1.60    0.30
  -4  -2  -4    2.00    0.40
   4   2   4    1.30    0.30
   4   2   4    1.10    0.30
   4   2   4    1.30    0.40
   4   2   4    1.30    0.30
   4   2   4    1.60    0.30
   4   2   4    1.30    0.30
   4   2   4    1.00    0.30
   4   2   4    1.80    0.20
  -4  -1  -4   44.40    1.90
  -4  -1  -4   44.60    2.10
  -4  -1  -4   42.10    1.80
  -4  -1  -4   41.20    1.90
   4   1   4   43.70    1.90
   4   1   4   40.20    1.90
   4   1   4   39.90    1.90
   4   1   4   44.40    2.00
   4   1   4   42.80    1.70
   4   1   4   42.80    1.90
   4   1   4   42.00    1.90
   4   1   4   42.60    2.00
  -4   0  -4   57.79    2.30
  -4   0  -4   59.89    2.50
  -4   0  -4   60.39    2.60
  -4   0  -4   64.29    2.80
  -4   0  -4   60.29    2.50
  -4   0  -4   61.19    2.20
  -4   0  -4   62.89    2.70
   4   0   4   55.79    2.50
   4   0   4   62.59    2.50
   4   0   4   68.59    2.80
   4   0   4   62.59    2.40
   4   0   4   61.69    2.60
   4   0   4   64.09    2.70
   4   0   4   61.29    2.60
  -4   1  -4    3.40    0.60
  -4   1  -4    3.60    0.70
  -4   1  -4    3.00    0.50
  -4   1  -4    2.50    0.60
  -4   1  -4    3.50    0.50
  -4   1  -4    2.70    0.50
  -4   1  -4    3.10    0.50
   4  -1   4    2.20    0.50
   4  -1   4    3.60    0.50
   4  -1   4    2.70    0.50
   4  -1   4    3.60    0.60
   4  -1   4    3.20    0.60
   4  -1   4    2.80    0.60
   4  -1   4    4.00    0.70
  -4   2  -4    2.50    0.50
  -4   2  -4    3.90    0.80
  -4   2  -4    2.60    0.60
  -4   2  -4    2.70    0.50
  -4   2  -4    2.40    0.60
  -4   2  -4    3.70    0.60
  -4   2  -4    3.80    0.60
   4  -2   4    3.50    0.70
   4  -2   4    2.90    0.60
   4  -2   4    4.30    0.60
   4  -2   4    4.40    0.80
   4  -2   4    4.10    0.60
   4  -2   4    3.50    0.60
   4  -2   4    2.50    0.50
  -4   3  -4   -0.10    0.40
  -4   3  -4    0.10    0.40
  -4   3  -4   -0.40    0.40
  -4   3  -4   -0.20    0.40
  -4   3  -4   -0.40    0.30
   4  -3   4    0.10    0.30
   4  -3   4    0.00    0.40
   4  -3   4   -0.10    0.30
   4  -3   4   -0.10    0.30
   4  -3   4    0.20    0.30
   4  -3   4    0.50    0.40
   4  -3   4   -0.10    0.30
  -4   4  -4    3.20    0.60
  -4   4  -4    2.10    0.70
  -4   4  -4    2.20    0.70
  -4   4  -4    2.30    0.70
  -4   4  -4    0.40    0.40
   4  -4   4    2.90    0.70
   4  -4   4    2.30    0.50
   4  -4   4    2.80    0.80
   4  -4   4    2.40    1.00
   4  -4   4    1.70    0.40
  -4   5  -4   10.50    1.40
  -4   5  -4    8.10    1.20
  -4   5  -4    7.70    1.30
   4  -5   4    7.50    1.80
   4  -5   4    9.00    1.20
  -4   6  -4    2.70    1.00
  -4   6  -4    2.20    0.80
  -4   6  -4    1.20    0.70
   4  -6   4    1.20    0.70
   4  -6   4    0.50    0.90
  -5 -10  -4   18.70    2.50
  -5 -10  -4   21.60    2.00
   5  10   4   17.20    2.10
   5  10   4   19.30    1.10
  -5  -9  -4   19.20    1.30
  -5  -9  -4   19.10    1.70
  -5  -9  -4   18.50    2.40
   5   9   4   21.00    1.50
   5   9   4   18.00    1.70
   5   9   4   18.30    1.00
   5   9   4   20.20    1.00
  -5  -8  -4   27.20    1.50
  -5  -8  -4   24.60    2.20
  -5  -8  -4   25.40    1.80
   5   8   4   27.30    1.20
   5   8   4   27.20    1.90
   5   8   4   25.50    1.10
   5   8   4   26.60    1.70
   5   8   4   29.10    1.70
   5   8   4   28.10    1.20
   5   8   4   29.10    1.60
  -5  -7  -4   76.09    3.20
  -5  -7  -4   81.79    3.70
  -5  -7  -4   84.69    3.60
   5   7   4   73.59    3.50
   5   7   4   79.39    2.80
   5   7   4   77.29    3.30
   5   7   4   78.19    2.60
   5   7   4   79.29    2.80
   5   7   4   79.09    3.40
   5   7   4   80.39    2.70
   5   7   4   75.09    3.20
   5   7   4   81.99    4.60
  -5  -6  -4  557.64   20.00
  -5  -6  -4  578.34   19.10
  -5  -6  -4  567.14   19.10
  -5  -6  -4  594.64   19.50
   5   6   4  586.24   18.70
   5   6   4  549.85   19.30
   5   6   4  591.54   19.40
   5   6   4  583.64   18.70
   5   6   4  587.34   18.60
   5   6   4  577.24   20.50
   5   6   4  597.24   19.10
   5   6   4  570.24   19.40
   5   6   4  584.44   18.60
  -5  -5  -4    0.10    0.20
  -5  -5  -4    0.20    0.30
  -5  -5  -4    0.20    0.40
  -5  -5  -4    0.10    0.30
  -5  -5  -4    0.00    0.40
   5   5   4    0.10    0.10
   5   5   4    0.10    0.30
   5   5   4    0.10    0.20
   5   5   4    0.30    0.10
   5   5   4    0.30    0.40
   5   5   4    0.10    0.20
   5   5   4    0.30    0.30
   5   5   4    0.10    0.20
   5   5   4    0.00    0.30
  -5  -4  -4   23.00    1.20
  -5  -4  -4   21.50    1.20
  -5  -4  -4   19.90    1.60
  -5  -4  -4   22.20    0.90
  -5  -4  -4   20.90    1.00
  -5  -4  -4   21.80    1.60
   5   4   4   21.20    1.00
   5   4   4   22.70    1.10
   5   4   4   20.50    1.30
   5   4   4   22.00    1.00
   5   4   4   22.00    1.60
   5   4   4   22.60    1.30
   5   4   4   21.50    1.10
   5   4   4   21.20    1.10
  -5  -3  -4   59.69    2.30
  -5  -3  -4   56.19    2.50
  -5  -3  -4   51.59    2.80
  -5  -3  -4   62.99    2.80
  -5  -3  -4   58.59    2.30
  -5  -3  -4   57.69    2.40
  -5  -3  -4   57.09    2.50
   5   3   4   59.39    2.30
   5   3   4   57.69    2.50
   5   3   4   61.39    2.40
   5   3   4   56.89    2.00
   5   3   4   65.09    2.80
   5   3   4   56.19    2.40
   5   3   4   62.29    2.60
   5   3   4   60.99    2.30
  -5  -2  -4   50.49    2.20
  -5  -2  -4   48.70    2.20
  -5  -2  -4   49.30    2.10
  -5  -2  -4   50.19    2.20
  -5  -2  -4   49.70    2.20
  -5  -2  -4   47.60    2.40
   5   2   4   52.59    2.20
   5   2   4   52.99    2.30
   5   2   4   48.40    2.20
   5   2   4   50.09    2.20
   5   2   4   54.49    2.40
   5   2   4   46.40    2.10
   5   2   4   47.20    2.20
   5   2   4   51.29    1.90
  -5  -1  -4   16.10    1.10
  -5  -1  -4   16.60    1.10
  -5  -1  -4   16.50    1.00
  -5  -1  -4   17.00    1.30
  -5  -1  -4   17.60    1.10
   5   1   4   15.20    1.10
   5   1   4   16.40    1.10
   5   1   4   18.20    1.20
   5   1   4   19.10    1.20
   5   1   4   17.40    1.10
   5   1   4   18.60    1.00
   5   1   4   16.30    1.10
   5   1   4   20.20    1.30
  -5   0  -4    0.20    0.30
  -5   0  -4    0.20    0.30
  -5   0  -4   -0.10    0.20
  -5   0  -4    0.20    0.30
  -5   0  -4   -0.10    0.20
  -5   0  -4    0.00    0.40
  -5   0  -4    0.10    0.20
   5   0   4    0.10    0.20
   5   0   4   -0.10    0.30
   5   0   4    0.60    0.40
   5   0   4    0.00    0.30
   5   0   4    0.20    0.30
   5   0   4    0.50    0.40
   5   0   4    0.30    0.30
  -5   1  -4   16.00    1.10
  -5   1  -4   14.10    1.00
  -5   1  -4   13.50    1.20
  -5   1  -4   15.60    1.00
  -5   1  -4   16.50    1.30
  -5   1  -4   15.50    0.90
  -5   1  -4   15.20    1.30
   5  -1   4   16.50    1.20
   5  -1   4   14.80    1.20
   5  -1   4   16.00    1.10
   5  -1   4   14.90    1.10
   5  -1   4   16.60    1.10
   5  -1   4   16.10    1.30
   5  -1   4   13.90    1.20
  -5   2  -4   -0.50    0.30
  -5   2  -4   -0.40    0.30
  -5   2  -4   -0.30    0.30
  -5   2  -4   -0.20    0.30
  -5   2  -4   -0.30    0.30
  -5   2  -4   -0.10    0.30
  -5   2  -4    0.10    0.30
   5  -2   4   -0.10    0.30
   5  -2   4   -0.20    0.40
   5  -2   4    0.10    0.40
   5  -2   4    0.30    0.40
   5  -2   4   -0.40    0.20
   5  -2   4   -0.30    0.30
  -5   3  -4    2.10    0.70
  -5   3  -4    3.00    0.80
  -5   3  -4    2.70    0.60
  -5   3  -4    2.50    0.60
  -5   3  -4    2.10    0.70
   5  -3   4    2.10    0.70
   5  -3   4    2.70    0.50
   5  -3   4    1.80    0.50
   5  -3   4    2.90    0.70
   5  -3   4    3.00    0.50
   5  -3   4    1.90    0.70
  -5   4  -4    3.20    0.90
  -5   4  -4    3.00    0.80
  -5   4  -4    2.50    0.80
   5  -4   4    3.50    0.80
   5  -4   4    4.20    0.90
   5  -4   4    3.60    1.40
  -5   5  -4    1.00    0.60
  -5   5  -4   -0.10    0.60
   5  -5   4    0.10    0.50
   5  -5   4    0.10    1.00
  -6 -10  -4    2.00    1.10
   6  10   4    2.10    0.30
   6  10   4    3.40    1.00
   6  10   4    2.30    0.30
  -6  -9  -4    9.40    1.00
  -6  -9  -4   11.30    1.90
   6   9   4   10.60    1.50
   6   9   4    8.50    0.50
   6   9   4    8.60    0.50
   6   9   4    7.90    1.10
   6   9   4   10.00    1.10
  -6  -8  -4    3.40    0.60
  -6  -8  -4    2.80    1.00
  -6  -8  -4    1.20    0.70
  -6  -8  -4    3.50    0.70
   6   8   4    1.80    0.90
   6   8   4    2.80    0.70
   6   8   4    2.20    0.60
   6   8   4    2.10    0.60
   6   8   4    2.30    0.30
   6   8   4    1.10    0.50
  -6  -7  -4   42.40    2.40
  -6  -7  -4   40.60    2.00
  -6  -7  -4   39.10    2.00
  -6  -7  -4   41.80    2.70
   6   7   4   45.10    2.30
   6   7   4   41.10    2.20
   6   7   4   38.90    2.20
   6   7   4   42.70    1.60
   6   7   4   44.80    3.10
   6   7   4   42.30    2.20
   6   7   4   42.80    1.60
   6   7   4   43.20    2.10
  -6  -6  -4   -0.10    0.30
  -6  -6  -4   -0.20    0.30
  -6  -6  -4   -0.10    0.30
  -6  -6  -4   -0.20    0.50
   6   6   4    0.10    0.20
   6   6   4    0.00    0.10
   6   6   4    0.00    0.20
   6   6   4    0.60    0.40
   6   6   4   -0.40    0.30
   6   6   4   -0.20    0.40
   6   6   4    0.30    0.20
   6   6   4    0.00    0.30
   6   6   4    0.20    0.10
  -6  -5  -4   16.80    1.50
  -6  -5  -4   15.60    1.10
  -6  -5  -4   15.70    1.10
   6   5   4   14.10    0.90
   6   5   4   15.00    0.90
   6   5   4   15.60    0.80
   6   5   4   14.50    1.20
   6   5   4   15.20    1.20
   6   5   4   15.80    1.00
   6   5   4   16.60    0.80
   6   5   4   13.10    0.90
   6   5   4   17.00    1.50
  -6  -4  -4   23.30    1.40
  -6  -4  -4   22.90    1.30
  -6  -4  -4   18.50    1.60
  -6  -4  -4   23.30    1.70
   6   4   4   22.40    1.20
   6   4   4   24.10    1.10
   6   4   4   23.20    1.40
   6   4   4   24.50    1.30
   6   4   4   24.70    1.60
   6   4   4   23.60    1.20
   6   4   4   22.40    1.40
   6   4   4   20.30    1.00
  -6  -3  -4   74.29    3.20
  -6  -3  -4   79.29    3.00
  -6  -3  -4   78.29    3.20
  -6  -3  -4   71.59    3.50
  -6  -3  -4   80.39    3.10
  -6  -3  -4   79.99    3.30
   6   3   4   84.19    3.10
   6   3   4   78.59    3.10
   6   3   4   82.09    3.20
   6   3   4   86.89    3.40
   6   3   4   76.39    3.30
   6   3   4   80.59    2.90
   6   3   4   74.79    3.30
   6   3   4   75.49    3.50
   6   3   4   76.99    3.10
  -6  -2  -4  130.09    4.80
  -6  -2  -4  128.79    4.90
  -6  -2  -4  130.19    5.00
  -6  -2  -4  128.39    4.80
  -6  -2  -4  129.59    4.80
  -6  -2  -4  121.99    5.10
   6   2   4  123.39    4.80
   6   2   4  134.79    4.60
   6   2   4  122.39    5.00
   6   2   4  129.09    4.90
   6   2   4  126.19    4.90
   6   2   4  134.59    4.90
   6   2   4  124.89    4.90
   6   2   4  124.19    4.80
   6   2   4  135.89    5.00
  -6  -1  -4   24.10    1.40
  -6  -1  -4   22.50    1.50
  -6  -1  -4   23.40    1.50
  -6  -1  -4   26.00    1.50
  -6  -1  -4   23.80    1.60
  -6  -1  -4   25.60    1.50
   6   1   4   23.90    1.50
   6   1   4   26.00    1.60
   6   1   4   25.50    1.30
   6   1   4   25.30    1.60
   6   1   4   25.30    1.50
   6   1   4   24.40    1.60
   6   1   4   22.70    1.50
  -6   0  -4    1.20    0.50
  -6   0  -4    2.60    0.60
  -6   0  -4    3.40    0.60
  -6   0  -4    2.20    0.60
  -6   0  -4    3.20    0.40
  -6   0  -4    2.80    0.60
   6   0   4    1.50    0.50
   6   0   4    3.00    0.70
   6   0   4    3.50    0.70
   6   0   4    3.50    0.80
   6   0   4    3.70    0.70
   6   0   4    3.10    0.60
  -6   1  -4   35.90    1.90
  -6   1  -4   39.80    1.70
  -6   1  -4   36.70    1.90
  -6   1  -4   40.80    2.30
  -6   1  -4   40.80    2.40
  -6   1  -4   37.80    2.20
   6  -1   4   39.60    2.30
   6  -1   4   40.50    2.10
   6  -1   4   38.60    2.10
   6  -1   4   41.80    2.20
   6  -1   4   39.10    2.20
   6  -1   4   37.90    2.00
  -6   2  -4   13.30    1.10
  -6   2  -4   10.20    1.10
  -6   2  -4   15.20    1.40
  -6   2  -4   14.00    1.50
  -6   2  -4   13.00    1.00
   6  -2   4   14.30    1.50
   6  -2   4   10.70    1.20
   6  -2   4   10.00    1.30
   6  -2   4   14.40    1.10
   6  -2   4   13.10    1.40
  -6   3  -4   18.00    1.40
  -6   3  -4   15.00    1.70
  -6   3  -4   14.40    1.70
   6  -3   4   17.10    1.50
   6  -3   4   16.10    1.80
   6  -3   4   16.60    1.20
   6  -3   4   16.50    2.50
  -6   4  -4   -0.30    0.50
  -6   4  -4    0.50    0.50
   6  -4   4    0.00    0.50
   6  -4   4    0.50    1.10
   6  -4   4    0.40    0.60
  -7 -10  -4    0.00    0.40
  -7 -10  -4   -0.30    0.70
   7  10   4    1.00    0.60
   7  10   4    0.10    0.60
   7  10   4    0.20    0.50
  -7  -9  -4    1.00    0.50
  -7  -9  -4    1.70    0.90
   7   9   4    0.30    0.50
   7   9   4    0.20    0.50
   7   9   4    1.10    0.60
  -7  -8  -4    5.30    0.80
  -7  -8  -4    6.90    1.40
  -7  -8  -4    6.90    0.90
   7   8   4    6.60    1.50
   7   8   4    4.80    1.20
   7   8   4    4.50    0.90
   7   8   4    4.70    0.90
   7   8   4    4.90    0.30
   7   8   4    5.20    0.30
  -7  -7  -4   10.90    1.60
  -7  -7  -4   11.30    1.00
  -7  -7  -4   11.30    1.20
   7   7   4   12.10    1.30
   7   7   4   10.90    0.90
   7   7   4   10.70    1.60
   7   7   4   10.90    0.60
   7   7   4   12.20    1.30
   7   7   4   10.80    1.20
   7   7   4   10.60    0.60
  -7  -6  -4   16.80    1.60
  -7  -6  -4   19.20    1.40
  -7  -6  -4   19.30    1.30
   7   6   4   19.70    1.60
   7   6   4   19.70    1.40
   7   6   4   21.00    1.80
   7   6   4   19.10    1.00
   7   6   4   19.50    1.40
   7   6   4   19.80    1.20
   7   6   4   19.00    0.90
   7   6   4   17.00    1.00
   7   6   4   18.80    1.20
  -7  -5  -4  124.89    4.90
  -7  -5  -4  132.59    5.60
  -7  -5  -4  120.39    5.10
   7   5   4  125.19    5.40
   7   5   4  131.59    4.80
   7   5   4  132.49    4.70
   7   5   4  137.99    5.40
   7   5   4  143.49    5.20
   7   5   4  124.69    4.70
   7   5   4  132.89    5.20
   7   5   4  131.09    4.80
  -7  -4  -4   11.40    0.90
  -7  -4  -4   12.30    1.30
  -7  -4  -4   12.10    1.00
  -7  -4  -4    9.20    1.10
   7   4   4   11.90    1.00
   7   4   4   12.60    0.90
   7   4   4   10.50    1.30
   7   4   4   11.40    0.70
   7   4   4   13.20    1.10
   7   4   4   12.10    1.10
   7   4   4   13.20    0.80
   7   4   4   10.90    0.90
   7   4   4   12.70    1.10
  -7  -3  -4    7.20    0.90
  -7  -3  -4    6.50    0.80
  -7  -3  -4    6.90    0.90
  -7  -3  -4    7.20    1.00
   7   3   4    8.70    0.80
   7   3   4    8.10    1.10
   7   3   4    5.20    0.80
   7   3   4    8.30    1.00
   7   3   4    7.40    1.10
   7   3   4    7.80    1.00
   7   3   4    7.50    0.70
   7   3   4    7.30    0.90
  -7  -2  -4    1.50    0.50
  -7  -2  -4    2.20    0.60
  -7  -2  -4    0.70    0.40
  -7  -2  -4    1.70    0.50
   7   2   4    0.70    0.40
   7   2   4    1.50    0.60
   7   2   4    1.50    0.40
   7   2   4    1.70    0.60
   7   2   4    2.20    0.60
   7   2   4    1.20    0.40
  -7  -1  -4   36.20    2.00
  -7  -1  -4   33.10    1.90
  -7  -1  -4   37.20    1.90
  -7  -1  -4   37.60    2.00
   7   1   4   32.90    1.90
   7   1   4   34.70    2.10
   7   1   4   34.30    2.00
   7   1   4   41.60    2.20
   7   1   4   36.10    2.10
   7   1   4   37.70    1.90
  -7   0  -4    0.00    0.40
  -7   0  -4    0.30    0.40
   7   0   4    0.30    0.40
   7   0   4    0.30    0.40
   7   0   4    0.80    0.50
   7   0   4    0.90    0.60
   7   0   4    0.40    0.40
  -7   1  -4    5.20    1.00
  -7   1  -4    6.50    1.00
   7  -1   4    7.00    1.10
   7  -1   4    4.20    0.90
   7  -1   4    5.00    1.00
   7  -1   4    5.70    0.90
  -7   2  -4    0.00    0.40
  -7   2  -4   -0.20    0.50
   7  -2   4   -0.20    0.50
   7  -2   4    0.00    0.50
   7  -2   4    0.30    0.50
   7  -2   4    0.00    0.90
   7  -2   4   -0.20    0.40
  -7   3  -4    1.00    0.60
  -7   3  -4    1.40    0.70
   7  -3   4    0.40    0.90
   7  -3   4    0.60    0.70
   7  -3   4    1.00    0.70
  -8  -9  -4    0.50    0.40
  -8  -9  -4   -0.30    0.60
  -8  -9  -4    0.10    0.50
   8   9   4    0.10    0.50
   8   9   4    0.60    0.50
   8   9   4    0.90    0.60
  -8  -8  -4    4.50    1.20
  -8  -8  -4    5.70    0.90
  -8  -8  -4    6.30    1.00
   8   8   4    6.60    1.20
   8   8   4    5.70    0.40
   8   8   4    5.70    0.40
   8   8   4    5.40    1.00
  -8  -7  -4   -0.40    0.30
  -8  -7  -4    0.30    0.40
  -8  -7  -4    0.80    0.60
   8   7   4   -0.20    0.50
   8   7   4   -0.10    0.40
   8   7   4    0.00    0.20
   8   7   4   -0.20    0.20
  -8  -6  -4   24.10    2.00
  -8  -6  -4   18.80    1.40
  -8  -6  -4   20.50    1.50
   8   6   4   19.90    1.70
   8   6   4   21.20    1.50
   8   6   4   20.00    1.10
   8   6   4   18.90    1.20
  -8  -5  -4   11.30    1.30
  -8  -5  -4   11.10    1.20
   8   5   4   11.60    0.90
   8   5   4   11.80    1.30
   8   5   4   11.40    0.90
   8   5   4   12.30    1.50
  -8  -4  -4    9.00    1.00
  -8  -4  -4    7.30    1.10
   8   4   4    8.00    1.00
   8   4   4    8.10    1.20
   8   4   4    8.80    1.00
   8   4   4    8.70    1.10
  -8  -3  -4    8.80    1.10
  -8  -3  -4    6.40    1.00
   8   3   4    9.50    1.10
   8   3   4    9.20    1.10
   8   3   4    9.30    0.90
   8   3   4   10.00    1.30
   8   3   4    8.00    1.00
  -8  -2  -4    2.80    0.90
  -8  -2  -4    2.60    0.70
  -8  -2  -4    1.90    0.60
   8   2   4    2.00    0.80
   8   2   4    2.30    0.60
   8   2   4    3.10    0.80
   8   2   4    3.40    0.80
   8   2   4    2.20    0.60
  -8  -1  -4    1.50    0.50
  -8  -1  -4    1.10    0.50
  -8  -1  -4    0.30    0.40
   8   1   4    0.80    0.60
   8   1   4    0.50    0.50
   8   1   4    0.60    0.50
   8   1   4    0.60    0.60
   8   1   4    1.00    0.60
  -8   0  -4    2.30    0.80
  -8   0  -4    2.00    0.60
   8   0   4    2.40    0.80
   8   0   4    2.20    0.80
   8   0   4    4.20    0.90
   8   0   4    2.40    0.70
  -8   1  -4    0.20    0.50
  -8   1  -4    0.70    0.60
   8  -1   4   -0.40    0.40
   8  -1   4    0.00    0.60
   8  -1   4    1.30    0.80
   8  -1   4    0.40    0.60
   8  -1   4   -1.00    0.80
  -8   2  -4   11.30    1.60
  -8   2  -4   13.50    1.50
   8  -2   4   13.20    1.50
   8  -2   4   12.10    1.60
   8  -2   4   12.40    2.30
   8  -2   4    9.90    1.60
  -9  -8  -4   27.30    1.70
  -9  -8  -4   27.80    2.40
  -9  -8  -4   29.10    2.00
   9   8   4   25.60    1.30
   9   8   4   26.30    2.20
   9   8   4   28.50    1.90
  -9  -7  -4   12.10    1.30
  -9  -7  -4   10.50    1.40
   9   7   4   13.00    1.50
   9   7   4   10.90    1.60
   9   7   4   10.90    0.90
  -9  -6  -4    5.10    1.00
  -9  -6  -4    6.30    1.00
   9   6   4    7.50    0.90
   9   6   4    7.00    0.80
   9   6   4    7.20    1.10
   9   6   4    6.90    1.20
  -9  -5  -4   32.80    2.20
  -9  -5  -4   34.90    2.00
   9   5   4   32.90    1.90
   9   5   4   36.00    2.10
   9   5   4   32.30    2.30
   9   5   4   35.80    1.90
  -9  -4  -4    8.70    1.30
  -9  -4  -4    7.90    1.00
   9   4   4    6.10    0.90
   9   4   4    6.20    1.20
   9   4   4    6.70    1.00
   9   4   4    7.80    1.10
  -9  -3  -4   35.50    2.20
  -9  -3  -4   38.80    2.20
   9   3   4   34.70    2.10
   9   3   4   34.30    2.40
   9   3   4   37.60    2.30
   9   3   4   33.40    2.10
  -9  -2  -4    6.00    1.00
  -9  -2  -4    5.00    1.00
   9   2   4    3.40    0.90
   9   2   4    3.00    0.80
   9   2   4    4.10    1.00
   9   2   4    3.80    0.90
  -9  -1  -4    6.50    1.00
  -9  -1  -4    8.80    1.30
   9   1   4   10.70    1.40
   9   1   4    8.10    1.30
   9   1   4   10.20    1.80
   9   1   4   11.10    1.50
   9   1   4    9.10    1.30
  -9   0  -4    6.00    1.10
   9   0   4    6.60    1.20
   9   0   4    7.30    1.30
   9   0   4    9.10    1.40
   9   0   4    7.50    1.80
   9   0   4    7.50    1.30
 -10  -6  -4    0.20    0.50
 -10  -6  -4   -0.40    0.40
  10   6   4    0.50    0.60
  10   6   4    0.20    0.40
  10   6   4    0.20    0.30
  10   6   4    0.40    0.60
 -10  -5  -4    0.20    0.50
 -10  -5  -4    0.50    0.50
  10   5   4    1.80    0.60
  10   5   4    1.20    0.50
  10   5   4    0.40    0.60
  10   5   4    1.00    0.70
 -10  -4  -4    4.20    0.90
 -10  -4  -4    2.80    0.80
  10   4   4    2.90    0.80
  10   4   4    3.00    0.90
  10   4   4    3.60    1.00
  10   4   4    0.90    0.50
 -10  -3  -4   43.60    2.70
 -10  -3  -4   45.20    2.60
  10   3   4   41.20    2.50
  10   3   4   44.50    2.60
  10   3   4   47.40    2.70
  10   3   4   40.90    2.80
   8   0  -5   12.50    1.50
   8   0  -5   10.90    1.30
   8   0  -5   13.30    1.70
   8   0  -5    9.60    1.40
  -8   0   5   12.80    1.60
   8   1  -5    0.60    0.60
   8   1  -5    0.50    0.60
   8   1  -5   -0.10    0.40
   8   1  -5    0.00    0.70
  -8  -1   5    1.00    0.80
  -8  -1   5    0.50    0.60
   8   2  -5   39.40    2.20
   8   2  -5   35.00    2.40
   8   2  -5   38.10    2.30
   8   2  -5   37.20    2.30
  -8  -2   5   39.00    2.90
  -8  -2   5   39.30    2.50
  -8  -2   5   38.30    2.00
   8   3  -5   -0.40    0.60
   8   3  -5   -0.10    0.40
   8   3  -5   -0.10    0.50
   8   3  -5   -0.30    0.30
  -8  -3   5    0.00    0.50
  -8  -3   5   -0.10    0.30
  -8  -3   5    0.10    0.60
   8   4  -5   17.10    1.30
   8   4  -5   13.10    1.40
   8   4  -5   15.60    1.70
   8   4  -5   13.20    1.60
  -8  -4   5   20.00    2.60
  -8  -4   5   15.50    1.80
   8   5  -5   -0.40    0.30
   8   5  -5    0.50    0.60
   8   5  -5   -0.10    0.40
   8   5  -5    0.50    0.70
  -8  -5   5   -0.80    0.60
  -8  -5   5    0.60    0.60
   7  -2  -5    0.60    0.70
   7  -2  -5    1.00    0.70
   7  -2  -5    0.70    0.80
  -7   2   5    1.00    0.60
  -7   2   5    0.60    0.60
  -7   2   5    1.60    0.70
   7  -1  -5    2.00    0.70
   7  -1  -5    2.80    0.80
   7  -1  -5    1.70    0.70
   7  -1  -5    3.30    0.70
  -7   1   5    0.90    0.60
  -7   1   5    1.60    0.60
   7   0  -5   -0.20    0.60
   7   0  -5   -0.10    0.50
   7   0  -5    0.20    0.50
   7   0  -5    0.30    0.50
  -7   0   5    0.10    0.40
  -7   0   5    0.30    0.50
   7   1  -5    6.90    1.10
   7   1  -5    6.50    1.00
   7   1  -5    5.20    1.00
   7   1  -5    6.80    1.00
  -7  -1   5    5.20    1.00
   7   2  -5    9.40    1.10
   7   2  -5    7.60    1.00
   7   2  -5    9.10    1.20
   7   2  -5    8.20    1.20
   7   2  -5    5.20    0.80
  -7  -2   5    8.60    1.20
  -7  -2   5    6.20    1.30
   7   3  -5    1.60    0.60
   7   3  -5    2.10    0.80
   7   3  -5    1.00    0.40
   7   3  -5    1.90    0.50
   7   3  -5    1.50    0.50
  -7  -3   5    1.00    0.60
  -7  -3   5    2.10    0.50
  -7  -3   5    1.80    0.80
   7   4  -5    2.90    0.60
   7   4  -5    3.00    0.80
   7   4  -5    3.10    0.60
   7   4  -5    2.00    0.80
  -7  -4   5    2.40    0.80
  -7  -4   5    2.20    0.90
   7   5  -5    0.60    0.60
   7   5  -5   -0.40    0.50
   7   5  -5    0.20    0.30
   7   5  -5    0.00    0.30
  -7  -5   5   -0.80    0.40
  -7  -5   5   -0.20    0.40
   7   6  -5    0.60    0.40
   7   6  -5    0.70    0.40
   7   6  -5    0.20    0.60
   7   6  -5    0.30    0.60
  -7  -6   5    0.40    0.70
  -7  -6   5    1.10    0.60
   7   7  -5    0.20    0.30
   7   7  -5   -0.10    0.50
   7   7  -5   -0.10    0.30
  -7  -7   5    0.10    0.80
  -7  -7   5    0.30    0.50
   6  -4  -5    5.60    1.10
   6  -4  -5    4.80    1.60
   6  -4  -5    5.80    1.10
  -6   4   5    7.60    1.30
  -6   4   5    7.20    1.30
   6  -3  -5    4.40    0.90
   6  -3  -5    5.00    1.00
   6  -3  -5    2.90    1.20
  -6   3   5    4.90    0.90
  -6   3   5    6.00    1.20
  -6   3   5    5.20    1.00
   6  -2  -5   24.00    1.80
   6  -2  -5   23.30    1.50
   6  -2  -5   22.60    1.70
   6  -2  -5   25.60    1.90
   6  -2  -5   25.20    2.20
  -6   2   5   23.70    1.70
  -6   2   5   26.80    1.90
  -6   2   5   27.30    1.80
   6  -1  -5    1.20    0.50
   6  -1  -5    2.20    0.80
   6  -1  -5    1.40    0.60
   6  -1  -5    0.80    0.50
   6  -1  -5    1.60    0.50
   6  -1  -5    0.80    0.60
  -6   1   5    1.70    0.60
  -6   1   5    2.00    0.70
  -6   1   5    1.30    0.60
   6   0  -5    1.50    0.50
   6   0  -5    1.60    0.50
   6   0  -5    1.40    0.60
   6   0  -5    1.80    0.60
   6   0  -5    1.50    0.60
   6   0  -5    0.90    0.50
   6   0  -5    1.60    0.60
  -6   0   5    1.60    0.60
  -6   0   5    1.20    0.50
   6   1  -5    0.40    0.50
   6   1  -5    0.80    0.40
   6   1  -5    1.10    0.50
   6   1  -5    0.10    0.40
   6   1  -5    1.70    0.50
   6   1  -5   -0.10    0.40
  -6  -1   5    0.70    0.40
  -6  -1   5    0.50    0.40
   6   2  -5   11.60    1.10
   6   2  -5   11.60    1.20
   6   2  -5    9.70    1.10
   6   2  -5   12.20    1.30
   6   2  -5   10.90    0.90
   6   2  -5    7.30    1.00
  -6  -2   5   10.40    1.30
  -6  -2   5   10.80    0.90
  -6  -2   5   13.80    1.80
  -6  -2   5   10.30    0.90
   6   3  -5    0.40    0.30
   6   3  -5    0.30    0.30
   6   3  -5   -0.50    0.30
   6   3  -5    0.80    0.50
   6   3  -5    0.20    0.30
  -6  -3   5   -0.10    0.20
  -6  -3   5    0.20    0.30
  -6  -3   5   -0.50    0.40
  -6  -3   5   -0.50    0.30
   6   4  -5   22.50    1.20
   6   4  -5   22.10    1.40
   6   4  -5   22.60    1.30
   6   4  -5   21.60    1.50
   6   4  -5   21.30    1.60
  -6  -4   5   22.90    1.60
  -6  -4   5   20.30    2.30
   6   5  -5   -0.40    0.40
   6   5  -5    0.00    0.30
   6   5  -5    0.10    0.30
   6   5  -5   -0.20    0.40
  -6  -5   5   -0.20    0.40
  -6  -5   5   -0.30    0.60
   6   6  -5    1.10    0.40
   6   6  -5    2.50    0.70
   6   6  -5    1.70    0.40
   6   6  -5    1.10    0.60
  -6  -6   5    2.50    0.70
  -6  -6   5    1.60    0.90
   6   7  -5    0.10    0.30
   6   7  -5    0.30    0.60
   6   7  -5   -0.20    0.30
  -6  -7   5    1.30    0.90
  -6  -7   5    0.80    0.60
   6   8  -5    5.40    1.00
   6   8  -5    4.70    0.80
  -6  -8   5    4.70    1.50
  -6  -8   5    6.20    1.10
   5  -5  -5    5.60    1.60
   5  -5  -5    5.20    1.00
   5  -5  -5    3.20    0.80
  -5   5   5    3.40    0.90
  -5   5   5    4.00    1.10
   5  -4  -5    2.00    1.00
   5  -4  -5    1.40    0.70
   5  -4  -5    1.50    0.70
  -5   4   5    1.20    0.70
  -5   4   5    0.90    0.60
   5  -3  -5   16.60    1.40
   5  -3  -5   18.20    2.20
   5  -3  -5   16.40    1.10
   5  -3  -5   15.80    1.40
   5  -3  -5   14.40    1.50
  -5   3   5   14.70    1.20
  -5   3   5   14.40    1.30
  -5   3   5   17.40    1.70
   5  -2  -5   45.10    2.10
   5  -2  -5   45.90    2.50
   5  -2  -5   46.30    2.50
   5  -2  -5   42.30    2.40
   5  -2  -5   45.80    2.10
   5  -2  -5   47.70    2.90
  -5   2   5   48.10    2.40
  -5   2   5   52.09    2.60
  -5   2   5   51.09    2.50
   5  -1  -5   -0.40    0.30
   5  -1  -5    0.20    0.40
   5  -1  -5    0.60    0.50
   5  -1  -5    0.10    0.40
   5  -1  -5   -0.30    0.20
   5  -1  -5    0.40    0.40
  -5   1   5    0.00    0.30
  -5   1   5   -0.20    0.20
  -5   1   5    0.10    0.30
  -5   1   5    0.00    0.50
  -5   1   5    0.00    0.50
   5   0  -5    8.80    1.10
   5   0  -5    7.30    0.90
   5   0  -5    7.60    1.00
   5   0  -5    5.50    0.80
   5   0  -5    8.70    0.90
   5   0  -5    7.60    0.90
   5   0  -5    6.80    0.90
  -5   0   5    5.50    0.80
  -5   0   5    9.90    1.00
  -5   0   5    5.60    0.90
  -5   0   5    7.60    0.90
   5   1  -5   57.99    2.60
   5   1  -5   60.49    2.50
   5   1  -5   56.49    2.60
   5   1  -5   56.99    2.60
   5   1  -5   57.29    2.50
   5   1  -5   51.79    2.40
   5   1  -5   56.19    2.70
   5   1  -5   59.19    2.60
  -5  -1   5   61.19    2.50
  -5  -1   5   56.19    2.30
  -5  -1   5   62.89    2.80
  -5  -1   5   57.79    2.60
  -5  -1   5   55.89    2.70
   5   2  -5    2.50    0.60
   5   2  -5    2.00    0.60
   5   2  -5    2.50    0.50
   5   2  -5    2.20    0.50
   5   2  -5    2.00    0.50
   5   2  -5    2.90    0.60
   5   2  -5    1.50    0.40
  -5  -2   5    3.40    0.50
  -5  -2   5    1.90    0.60
  -5  -2   5    0.90    0.60
  -5  -2   5    1.40    0.40
  -5  -2   5    2.40    0.60
   5   3  -5  161.28    6.20
   5   3  -5  161.28    5.80
   5   3  -5  165.58    6.20
   5   3  -5  165.18    6.00
   5   3  -5  167.48    6.20
   5   3  -5  173.58    6.10
   5   3  -5  157.38    5.90
  -5  -3   5  168.98    5.90
  -5  -3   5  163.88    5.80
  -5  -3   5  167.28    6.90
  -5  -3   5  165.28    5.80
  -5  -3   5  167.48    6.30
   5   4  -5   13.80    1.20
   5   4  -5   12.30    1.00
   5   4  -5   16.20    1.30
   5   4  -5   14.90    0.90
   5   4  -5   12.80    1.10
   5   4  -5   13.20    1.10
   5   4  -5   12.70    0.90
  -5  -4   5   15.00    2.00
  -5  -4   5   14.80    0.90
  -5  -4   5   11.20    1.30
   5   5  -5    0.80    0.40
   5   5  -5    0.40    0.50
   5   5  -5    0.70    0.30
   5   5  -5   -0.60    0.30
   5   5  -5    0.60    0.40
  -5  -5   5    0.80    0.50
  -5  -5   5    0.50    0.60
   5   6  -5    1.20    0.40
   5   6  -5    0.70    0.40
   5   6  -5    1.40    0.70
   5   6  -5    1.90    0.50
  -5  -6   5    1.60    0.90
  -5  -6   5    1.10    0.50
   5   7  -5    6.20    0.80
   5   7  -5    8.20    0.80
   5   7  -5    6.70    1.00
  -5  -7   5    8.10    1.10
  -5  -7   5    6.10    1.50
   5   8  -5   16.90    1.50
   5   8  -5   17.30    1.20
   5   8  -5   17.10    1.30
  -5  -8   5   24.40    3.00
  -5  -8   5   21.40    1.60
   4  -6  -5   12.50    1.50
   4  -6  -5   10.20    2.00
   4  -6  -5    8.50    1.10
  -4   6   5    8.10    1.40
  -4   6   5    9.60    1.40
   4  -5  -5   13.60    1.50
   4  -5  -5   16.60    2.40
   4  -5  -5   14.10    1.30
  -4   5   5   15.40    1.70
  -4   5   5   14.50    1.70
  -4   5   5   14.70    1.70
   4  -4  -5    5.50    0.90
   4  -4  -5    6.80    1.00
   4  -4  -5    4.10    1.20
  -4   4   5    5.90    0.80
  -4   4   5    4.90    1.00
  -4   4   5    6.90    1.10
  -4   4   5    5.20    0.90
  -4   4   5    4.30    1.00
   4  -3  -5    9.20    1.10
   4  -3  -5    9.10    1.00
   4  -3  -5    8.50    1.40
   4  -3  -5   11.00    1.20
   4  -3  -5    8.40    0.70
   4  -3  -5    7.60    0.70
  -4   3   5    9.20    1.00
  -4   3   5    8.80    1.20
  -4   3   5    9.40    1.10
  -4   3   5    7.90    1.10
  -4   3   5    8.60    1.10
   4  -2  -5    0.80    0.30
   4  -2  -5    0.60    0.30
   4  -2  -5    0.50    0.50
   4  -2  -5    0.20    0.40
   4  -2  -5    0.20    0.40
   4  -2  -5    0.50    0.50
  -4   2   5    0.60    0.40
  -4   2   5   -0.20    0.30
  -4   2   5   -0.40    0.40
  -4   2   5    0.20    0.30
  -4   2   5    0.10    0.40
  -4   2   5    0.10    0.30
   4  -1  -5   40.90    2.10
   4  -1  -5   43.20    2.40
   4  -1  -5   42.00    2.10
   4  -1  -5   43.20    2.00
   4  -1  -5   41.30    2.10
   4  -1  -5   41.10    2.30
   4  -1  -5   42.40    2.00
   4  -1  -5   41.50    2.10
  -4   1   5   45.10    2.10
  -4   1   5   45.20    2.10
  -4   1   5   41.80    2.10
  -4   1   5   45.80    2.10
  -4   1   5   45.90    2.30
  -4   1   5   45.10    2.20
   4   0  -5   74.89    3.30
   4   0  -5   72.69    3.20
   4   0  -5   70.69    3.20
   4   0  -5   74.99    3.20
   4   0  -5   78.09    3.10
   4   0  -5   77.09    3.10
   4   0  -5   75.39    3.10
   4   0  -5   75.19    3.20
  -4   0   5   72.49    3.00
  -4   0   5   81.49    3.20
  -4   0   5   80.49    3.30
  -4   0   5   78.69    2.90
  -4   0   5   77.99    3.20
  -4   0   5   78.99    3.00
  -4   0   5   79.29    3.30
   4   1  -5   73.69    2.90
   4   1  -5   66.29    2.80
   4   1  -5   67.19    2.90
   4   1  -5   67.49    2.60
   4   1  -5   67.39    2.80
   4   1  -5   63.69    2.90
   4   1  -5   64.99    2.80
   4   1  -5   64.49    2.80
  -4  -1   5   66.89    2.70
  -4  -1   5   67.19    2.40
  -4  -1   5   69.39    3.00
  -4  -1   5   65.29    2.80
  -4  -1   5   64.89    2.90
   4   2  -5  371.56   12.70
   4   2  -5  384.46   12.40
   4   2  -5  371.36   12.70
   4   2  -5  392.06   12.80
   4   2  -5  366.26   12.60
   4   2  -5  360.16   12.50
   4   2  -5  362.16   12.70
   4   2  -5  376.86   12.60
   4   2  -5  387.56   12.80
  -4  -2   5  387.36   13.00
  -4  -2   5  380.06   12.60
  -4  -2   5  369.46   12.60
  -4  -2   5  369.76   12.80
  -4  -2   5  381.76   12.40
  -4  -2   5  361.96   13.40
   4   3  -5  301.07   10.50
   4   3  -5  301.67   10.40
   4   3  -5  328.07   10.80
   4   3  -5  310.77   10.50
   4   3  -5  299.07   10.40
   4   3  -5  307.67   10.60
   4   3  -5  303.77   10.30
   4   3  -5  313.37   10.10
   4   3  -5  304.57   10.60
  -4  -3   5  307.87   10.20
  -4  -3   5  305.77   11.40
  -4  -3   5  295.67   10.30
  -4  -3   5  304.87   10.70
  -4  -3   5  316.07   10.40
  -4  -3   5  301.67   10.80
   4   4  -5    1.00    0.50
   4   4  -5    0.60    0.30
   4   4  -5    1.10    0.40
   4   4  -5    0.80    0.30
   4   4  -5    0.90    0.20
   4   4  -5    0.70    0.40
   4   4  -5    0.90    0.50
   4   4  -5    0.50    0.40
  -4  -4   5    1.80    0.70
  -4  -4   5    0.20    0.20
  -4  -4   5    1.10    0.40
  -4  -4   5    0.30    0.20
  -4  -4   5    0.30    0.30
   4   5  -5   26.50    1.70
   4   5  -5   27.40    1.60
   4   5  -5   27.70    1.40
   4   5  -5   28.90    1.40
   4   5  -5   26.70    2.10
   4   5  -5   26.20    1.60
   4   5  -5   24.70    1.40
  -4  -5   5   27.80    2.30
  -4  -5   5   26.80    1.60
   4   6  -5   11.90    1.70
   4   6  -5   11.60    1.00
   4   6  -5   11.30    1.20
   4   6  -5   13.30    0.90
  -4  -6   5   12.40    1.30
  -4  -6   5   15.40    2.10
   4   7  -5   10.20    1.20
   4   7  -5    7.20    0.90
   4   7  -5    8.70    0.90
  -4  -7   5   10.00    1.10
  -4  -7   5   10.90    2.10
   4   8  -5    3.60    0.80
   4   8  -5    6.20    0.90
   4   8  -5    5.20    0.80
  -4  -8   5    4.30    0.80
  -4  -8   5    3.40    1.30
   3  -7  -5    4.50    1.50
  -3   7   5    2.80    1.10
  -3   7   5    5.30    1.20
  -3   7   5    4.50    1.00
   3  -6  -5   -0.30    0.40
   3  -6  -5   -0.20    0.40
   3  -6  -5   -1.00    0.50
  -3   6   5   -0.50    0.40
  -3   6   5    0.10    0.80
  -3   6   5   -1.20    0.50
  -3   6   5    0.00    0.40
   3  -5  -5   -0.20    0.60
   3  -5  -5    0.80    0.50
   3  -5  -5    0.90    0.50
  -3   5   5    0.80    0.50
  -3   5   5    0.80    0.70
  -3   5   5    1.40    0.60
  -3   5   5    0.30    0.60
   3  -4  -5    3.40    0.70
   3  -4  -5    3.70    0.70
   3  -4  -5    4.20    0.40
   3  -4  -5    4.00    0.40
   3  -4  -5    3.60    0.70
   3  -4  -5    3.00    1.00
  -3   4   5    4.90    0.90
  -3   4   5    4.10    0.60
  -3   4   5    4.50    0.80
  -3   4   5    3.70    1.00
  -3   4   5    5.60    1.00
   3  -3  -5   33.00    1.80
   3  -3  -5   36.70    1.90
   3  -3  -5   33.20    1.40
   3  -3  -5   31.40    1.80
   3  -3  -5   32.20    2.20
   3  -3  -5   30.00    1.40
   3  -3  -5   29.50    1.70
  -3   3   5   31.20    2.10
  -3   3   5   29.40    1.70
  -3   3   5   35.60    1.90
  -3   3   5   32.80    1.90
  -3   3   5   34.90    1.90
  -3   3   5   33.10    1.60
   3  -2  -5   -0.10    0.30
   3  -2  -5    0.00    0.30
   3  -2  -5   -0.20    0.30
   3  -2  -5    0.10    0.30
   3  -2  -5    0.30    0.40
   3  -2  -5    0.20    0.20
   3  -2  -5    0.20    0.20
   3  -2  -5    0.10    0.30
  -3   2   5   -0.10    0.30
  -3   2   5    0.40    0.30
  -3   2   5    0.00    0.30
  -3   2   5    0.30    0.40
  -3   2   5    0.50    0.30
  -3   2   5    0.00    0.30
   3  -1  -5    5.40    0.80
   3  -1  -5    6.90    0.60
   3  -1  -5    6.50    0.80
   3  -1  -5    5.30    0.60
   3  -1  -5    6.50    0.80
   3  -1  -5    6.90    0.80
   3  -1  -5    4.80    0.80
   3  -1  -5    5.30    0.70
   3  -1  -5    7.30    0.70
  -3   1   5    6.80    0.90
  -3   1   5    5.80    0.60
  -3   1   5    7.40    0.80
  -3   1   5    7.10    0.80
  -3   1   5    6.40    0.70
  -3   1   5    5.90    0.80
  -3   1   5    8.20    0.70
  -3   1   5    5.60    0.70
   3   0  -5   27.90    1.50
   3   0  -5   30.80    1.50
   3   0  -5   26.70    1.40
   3   0  -5   29.50    1.60
   3   0  -5   27.90    1.60
   3   0  -5   27.90    1.50
   3   0  -5   28.00    1.40
   3   0  -5   26.10    1.60
  -3   0   5   28.60    1.50
  -3   0   5   30.50    1.50
  -3   0   5   30.40    1.50
  -3   0   5   26.80    1.20
  -3   0   5   28.50    1.50
  -3   0   5   26.30    1.40
  -3   0   5   27.00    1.30
   3   1  -5   26.10    1.40
   3   1  -5   26.80    1.40
   3   1  -5   25.80    1.50
   3   1  -5   24.20    1.30
   3   1  -5   25.40    1.30
   3   1  -5   26.80    1.40
   3   1  -5   25.30    1.40
   3   1  -5   25.70    1.50
  -3  -1   5   26.20    1.30
  -3  -1   5   26.70    1.00
  -3  -1   5   26.90    1.40
  -3  -1   5   24.00    1.70
  -3  -1   5   26.60    1.50
  -3  -1   5   26.70    1.20
   3   2  -5    0.50    0.30
   3   2  -5    0.50    0.30
   3   2  -5    0.30    0.30
   3   2  -5   -0.20    0.20
   3   2  -5    0.30    0.30
   3   2  -5    0.30    0.20
   3   2  -5    0.30    0.30
   3   2  -5    0.50    0.30
  -3  -2   5    0.30    0.20
  -3  -2   5    0.40    0.30
  -3  -2   5    0.10    0.20
  -3  -2   5   -0.10    0.30
  -3  -2   5    0.20    0.30
  -3  -2   5    0.40    0.20
   3   3  -5    0.50    0.40
   3   3  -5    1.50    0.40
   3   3  -5    1.20    0.30
   3   3  -5    1.40    0.50
   3   3  -5    1.00    0.30
   3   3  -5    1.30    0.40
   3   3  -5    1.20    0.40
   3   3  -5    1.10    0.40
  -3  -3   5    1.00    0.40
  -3  -3   5    0.70    0.30
  -3  -3   5    1.00    0.60
  -3  -3   5    1.00    0.20
  -3  -3   5    0.40    0.20
  -3  -3   5    1.30    0.40
   3   4  -5   20.90    1.30
   3   4  -5   19.80    1.10
   3   4  -5   19.90    1.30
   3   4  -5   20.60    1.10
   3   4  -5   20.90    1.20
   3   4  -5   19.80    1.10
   3   4  -5   20.20    1.20
  -3  -4   5   22.00    1.40
  -3  -4   5   20.40    1.80
  -3  -4   5   18.80    1.10
  -3  -4   5   21.20    1.30
  -3  -4   5   21.10    1.20
  -3  -4   5   20.20    1.10
   3   5  -5   14.70    1.20
   3   5  -5   17.50    1.20
   3   5  -5   15.40    1.10
   3   5  -5   13.90    1.00
   3   5  -5   17.20    1.10
   3   5  -5   16.10    1.00
   3   5  -5   17.00    0.90
  -3  -5   5   16.50    1.00
  -3  -5   5   15.80    2.10
  -3  -5   5   15.60    1.10
  -3  -5   5   18.00    1.30
   3   6  -5   30.60    1.70
   3   6  -5   30.00    1.70
   3   6  -5   31.90    1.70
   3   6  -5   33.20    1.60
  -3  -6   5   32.40    2.60
  -3  -6   5   27.50    1.60
  -3  -6   5   31.20    2.10
   3   7  -5   67.79    3.00
   3   7  -5   73.59    3.20
   3   7  -5   72.49    3.40
   3   7  -5   73.39    3.10
  -3  -7   5   70.49    3.70
  -3  -7   5   71.09    3.10
  -3  -7   5   69.29    4.40
   3   8  -5    6.00    0.90
   3   8  -5    5.70    0.90
   3   8  -5    6.10    0.90
  -3  -8   5    4.50    1.50
   2  -8  -5    0.90    1.00
   2  -8  -5    2.80    1.40
  -2   8   5    0.90    0.90
  -2   8   5    1.20    0.80
  -2   8   5    0.30    0.50
   2  -7  -5    0.40    1.00
   2  -7  -5    1.10    1.00
  -2   7   5    1.90    0.60
  -2   7   5    2.70    0.90
  -2   7   5    2.40    0.80
   2  -6  -5   39.70    2.20
   2  -6  -5   38.30    2.90
  -2   6   5   37.60    3.10
  -2   6   5   38.80    2.30
  -2   6   5   41.60    2.50
  -2   6   5   36.70    2.30
   2  -5  -5  268.77    9.40
   2  -5  -5  246.78   10.30
   2  -5  -5  270.47    9.30
  -2   5   5  272.77    9.60
  -2   5   5  251.47    9.70
  -2   5   5  267.97    9.30
  -2   5   5  262.27   10.60
  -2   5   5  280.37    9.70
   2  -4  -5  119.09    4.70
   2  -4  -5  117.49    4.70
   2  -4  -5  120.69    5.40
   2  -4  -5  120.29    4.70
   2  -4  -5  127.19    4.80
   2  -4  -5  122.19    4.10
   2  -4  -5  120.99    4.10
  -2   4   5  122.69    4.90
  -2   4   5  128.69    4.40
  -2   4   5  129.09    4.90
  -2   4   5  130.59    4.90
  -2   4   5  119.09    5.50
  -2   4   5  125.09    4.60
  -2   4   5  112.59    4.60
  -2   4   5  127.49    5.00
   2  -3  -5    0.30    0.20
   2  -3  -5    0.30    0.50
   2  -3  -5    0.20    0.30
   2  -3  -5    0.20    0.20
   2  -3  -5    0.40    0.30
   2  -3  -5    0.50    0.30
   2  -3  -5    0.50    0.40
  -2   3   5    0.30    0.20
  -2   3   5   -0.10    0.20
  -2   3   5    0.30    0.40
  -2   3   5    0.50    0.30
  -2   3   5   -0.20    0.30
  -2   3   5    0.50    0.40
  -2   3   5    0.20    0.40
  -2   3   5    0.10    0.20
   2  -2  -5   18.60    1.40
   2  -2  -5   19.40    1.00
   2  -2  -5   19.00    1.10
   2  -2  -5   19.90    1.20
   2  -2  -5   19.10    1.00
   2  -2  -5   19.50    1.10
   2  -2  -5   16.50    1.40
   2  -2  -5   21.10    1.20
   2  -2  -5   19.50    1.30
  -2   2   5   19.10    1.30
  -2   2   5   18.70    1.00
  -2   2   5   19.60    1.00
  -2   2   5   21.60    1.20
  -2   2   5   18.80    1.40
  -2   2   5   20.90    1.20
   2  -1  -5   39.20    1.90
   2  -1  -5   40.50    1.90
   2  -1  -5   43.90    2.10
   2  -1  -5   43.40    1.80
   2  -1  -5   39.90    2.20
   2  -1  -5   42.20    1.90
   2  -1  -5   41.30    1.70
   2  -1  -5   41.80    2.00
   2  -1  -5   42.50    1.80
  -2   1   5   42.00    1.90
  -2   1   5   44.50    1.90
  -2   1   5   37.70    1.90
  -2   1   5   42.90    1.90
  -2   1   5   44.70    2.10
  -2   1   5   43.90    1.80
  -2   1   5   41.30    1.80
  -2   1   5   43.80    1.80
  -2   1   5   45.40    1.70
  -2   1   5   42.40    1.80
   2   0  -5   43.00    2.10
   2   0  -5   41.90    1.80
   2   0  -5   44.40    1.90
   2   0  -5   37.10    1.90
   2   0  -5   39.30    1.80
   2   0  -5   40.80    1.90
   2   0  -5   40.50    1.80
   2   0  -5   42.50    1.80
  -2   0   5   44.10    1.60
  -2   0   5   41.40    1.80
  -2   0   5   41.30    1.90
  -2   0   5   45.10    2.00
  -2   0   5   42.00    1.70
  -2   0   5   44.00    1.90
  -2   0   5   41.30    1.90
  -2   0   5   43.50    1.90
   2   1  -5   23.90    1.20
   2   1  -5   21.60    1.10
   2   1  -5   19.50    1.10
   2   1  -5   22.90    1.20
   2   1  -5   22.60    1.20
   2   1  -5   21.80    1.20
   2   1  -5   24.00    1.40
   2   1  -5   22.20    1.20
  -2  -1   5   21.70    1.20
  -2  -1   5   22.10    1.20
  -2  -1   5   23.40    1.30
  -2  -1   5   21.50    1.50
  -2  -1   5   23.10    1.20
  -2  -1   5   21.60    1.10
  -2  -1   5   22.10    1.00
   2   2  -5    5.00    0.50
   2   2  -5    3.40    0.50
   2   2  -5    5.20    0.60
   2   2  -5    4.60    0.70
   2   2  -5    3.90    0.50
   2   2  -5    3.90    0.50
   2   2  -5    3.50    0.50
   2   2  -5    3.90    0.50
  -2  -2   5    4.50    0.50
  -2  -2   5    4.10    0.50
  -2  -2   5    3.70    0.30
  -2  -2   5    4.10    0.50
  -2  -2   5    3.90    0.50
  -2  -2   5    4.30    0.60
  -2  -2   5    4.40    0.80
   2   3  -5    0.70    0.50
   2   3  -5    0.40    0.30
   2   3  -5    0.50    0.30
   2   3  -5    0.80    0.30
   2   3  -5    0.70    0.30
   2   3  -5    0.40    0.30
   2   3  -5    0.30    0.20
   2   3  -5   -0.20    0.20
  -2  -3   5    0.30    0.20
  -2  -3   5    0.30    0.20
  -2  -3   5    0.50    0.30
  -2  -3   5    0.20    0.20
  -2  -3   5    0.10    0.20
  -2  -3   5    0.00    0.40
   2   4  -5   41.90    1.50
   2   4  -5   41.80    1.90
   2   4  -5   41.90    1.90
   2   4  -5   38.30    1.80
   2   4  -5   39.40    2.10
   2   4  -5   43.30    1.60
   2   4  -5   40.90    1.80
   2   4  -5   40.80    1.90
   2   4  -5   38.80    1.90
  -2  -4   5   40.70    1.80
  -2  -4   5   40.80    2.00
  -2  -4   5   38.90    1.70
  -2  -4   5   36.30    2.50
  -2  -4   5   40.80    1.80
  -2  -4   5   38.20    1.80
   2   5  -5   30.60    1.10
   2   5  -5   28.10    1.80
   2   5  -5   25.90    1.60
   2   5  -5   28.40    1.50
   2   5  -5   29.50    1.50
   2   5  -5   27.20    1.60
   2   5  -5   29.60    1.50
  -2  -5   5   30.80    1.50
  -2  -5   5   32.10    2.40
  -2  -5   5   30.80    1.60
  -2  -5   5   28.00    1.70
  -2  -5   5   31.60    1.50
   2   6  -5    0.30    0.40
   2   6  -5    1.00    0.50
   2   6  -5    0.60    0.40
   2   6  -5    0.70    0.40
  -2  -6   5    0.50    0.30
  -2  -6   5    0.10    0.30
  -2  -6   5    0.90    0.70
  -2  -6   5    0.60    0.70
   2   7  -5    0.00    0.40
   2   7  -5   -0.20    0.30
   2   7  -5   -0.30    0.30
   2   7  -5    0.30    0.40
  -2  -7   5    0.00    0.30
  -2  -7   5   -0.20    0.60
  -2  -7   5   -0.30    0.60
   2   8  -5   63.69    3.10
   2   8  -5   70.79    3.00
   2   8  -5   62.69    3.20
  -2  -8   5   63.69    4.40
  -2  -8   5   66.99    4.00
   1  -8  -5    0.40    0.90
   1  -8  -5    1.50    1.00
  -1   8   5    0.10    0.80
  -1   8   5    1.50    0.60
  -1   8   5    1.10    0.70
   1  -7  -5    8.00    1.60
   1  -7  -5    5.80    1.50
   1  -7  -5    8.90    1.10
  -1   7   5    6.00    1.20
  -1   7   5    8.20    1.10
  -1   7   5    6.20    1.10
   1  -6  -5  180.88    7.90
   1  -6  -5  184.38    6.80
   1  -6  -5  181.48    8.00
  -1   6   5  180.58    8.30
  -1   6   5  190.98    7.20
  -1   6   5  190.68    7.00
  -1   6   5  183.78    7.10
  -1   6   5  194.08    6.90
   1  -5  -5  122.69    5.60
   1  -5  -5  125.99    4.80
  -1   5   5  123.89    4.90
  -1   5   5  121.69    5.00
  -1   5   5  130.69    4.80
  -1   5   5  126.79    6.00
  -1   5   5  131.09    5.10
  -1   5   5  129.29    5.30
  -1   5   5  128.49    4.80
   1  -4  -5   38.50    2.50
   1  -4  -5   38.60    1.90
   1  -4  -5   40.00    1.50
   1  -4  -5   39.90    1.90
   1  -4  -5   39.00    1.40
   1  -4  -5   39.70    1.90
   1  -4  -5   39.40    1.90
  -1   4   5   39.60    2.00
  -1   4   5   39.00    2.10
  -1   4   5   42.10    1.90
  -1   4   5   41.10    2.00
  -1   4   5   40.40    2.60
  -1   4   5   40.50    1.60
  -1   4   5   38.90    2.00
  -1   4   5   40.30    1.90
   1  -3  -5    0.70    0.20
   1  -3  -5    0.30    0.30
   1  -3  -5    0.60    0.50
   1  -3  -5    1.20    0.30
   1  -3  -5    0.20    0.30
   1  -3  -5    0.80    0.30
   1  -3  -5    0.40    0.40
   1  -3  -5    0.60    0.20
  -1   3   5    0.90    0.40
  -1   3   5    0.60    0.40
  -1   3   5    0.60    0.30
  -1   3   5    0.80    0.20
  -1   3   5    0.80    0.20
  -1   3   5    0.60    0.50
  -1   3   5    0.50    0.30
  -1   3   5    0.80    0.20
   1  -2  -5    0.80    0.40
   1  -2  -5    1.00    0.30
   1  -2  -5    1.00    0.30
   1  -2  -5    0.90    0.20
   1  -2  -5    0.90    0.30
   1  -2  -5    0.30    0.40
   1  -2  -5    0.40    0.30
   1  -2  -5    1.20    0.30
   1  -2  -5    0.70    0.20
  -1   2   5    0.80    0.30
  -1   2   5    1.20    0.50
  -1   2   5    0.90    0.30
  -1   2   5    1.30    0.40
  -1   2   5    1.10    0.30
  -1   2   5    1.20    0.30
  -1   2   5    1.10    0.30
   1  -1  -5   23.50    1.20
   1  -1  -5   21.50    1.10
   1  -1  -5   23.60    1.20
   1  -1  -5   24.00    1.40
   1  -1  -5   22.30    1.10
   1  -1  -5   24.20    1.20
   1  -1  -5   23.10    1.50
   1  -1  -5   22.40    1.10
   1  -1  -5   23.30    1.30
  -1   1   5   23.50    1.10
  -1   1   5   23.50    1.20
  -1   1   5   22.90    1.20
  -1   1   5   24.30    1.20
  -1   1   5   24.20    1.20
  -1   1   5   23.60    1.10
  -1   1   5   21.80    1.20
  -1   1   5   23.50    1.40
   1   0  -5  560.64   18.40
   1   0  -5  536.55   18.40
   1   0  -5  565.14   18.30
   1   0  -5  548.15   18.30
   1   0  -5  536.25   18.40
   1   0  -5  554.04   18.70
   1   0  -5  593.44   18.40
   1   0  -5  544.35   18.30
   1   0  -5  567.64   18.30
  -1   0   5  577.34   18.70
  -1   0   5  579.84   18.20
  -1   0   5  571.44   18.40
  -1   0   5  572.84   18.40
  -1   0   5  556.34   18.30
  -1   0   5  529.05   18.30
  -1   0   5  569.14   18.40
  -1   0   5  581.44   18.40
  -1   0   5  570.84   18.50
   1   1  -5   33.70    1.50
   1   1  -5   32.20    1.50
   1   1  -5   31.90    1.40
   1   1  -5   31.60    1.50
   1   1  -5   31.30    1.40
   1   1  -5   36.20    1.80
   1   1  -5   33.10    1.50
   1   1  -5   31.90    1.50
  -1  -1   5   34.20    1.50
  -1  -1   5   32.80    1.20
  -1  -1   5   32.90    1.90
  -1  -1   5   32.50    1.50
  -1  -1   5   35.00    1.50
  -1  -1   5   33.00    1.50
  -1  -1   5   31.60    1.50
  -1  -1   5   33.10    1.10
   1   2  -5    1.10    0.30
   1   2  -5    1.00    0.20
   1   2  -5    1.30    0.30
   1   2  -5    1.40    0.30
   1   2  -5    1.00    0.30
   1   2  -5    1.70    0.50
   1   2  -5    1.40    0.20
   1   2  -5    1.30    0.40
   1   2  -5    1.10    0.30
  -1  -2   5    1.10    0.30
  -1  -2   5    1.60    0.30
  -1  -2   5    1.00    0.50
  -1  -2   5    1.90    0.40
   1   3  -5   33.50    1.50
   1   3  -5   32.00    1.50
   1   3  -5   29.50    1.50
   1   3  -5   30.60    1.50
   1   3  -5   32.80    1.60
   1   3  -5   32.50    1.20
   1   3  -5   32.10    1.60
   1   3  -5   29.50    1.50
   1   3  -5   30.40    1.20
  -1  -3   5   33.10    2.10
  -1  -3   5   29.70    1.50
  -1  -3   5   31.50    1.60
  -1  -3   5   30.40    1.50
  -1  -3   5   31.00    1.30
   1   4  -5    0.40    0.30
   1   4  -5    0.40    0.30
   1   4  -5    0.00    0.20
   1   4  -5    0.00    0.30
   1   4  -5    0.40    0.30
   1   4  -5    0.00    0.20
   1   4  -5    0.30    0.30
   1   4  -5    0.10    0.30
  -1  -4   5    0.50    0.30
  -1  -4   5   -0.20    0.50
  -1  -4   5    0.50    0.30
  -1  -4   5    0.40    0.40
  -1  -4   5    0.60    0.30
  -1  -4   5    0.40    0.30
   1   5  -5    0.80    0.40
   1   5  -5    1.20    0.40
   1   5  -5    1.20    0.40
   1   5  -5    0.50    0.40
   1   5  -5    1.10    0.40
   1   5  -5    2.00    0.50
  -1  -5   5    1.30    0.40
  -1  -5   5    0.40    0.30
  -1  -5   5    1.60    0.40
  -1  -5   5    2.20    0.80
  -1  -5   5    1.10    0.40
  -1  -5   5    1.20    0.40
   1   6  -5   45.90    2.40
   1   6  -5   48.60    2.20
   1   6  -5   46.90    2.10
   1   6  -5   47.50    2.30
  -1  -6   5   44.50    3.20
  -1  -6   5   43.90    2.20
  -1  -6   5   46.80    2.10
   1   7  -5    3.20    0.80
   1   7  -5    2.40    0.60
   1   7  -5    2.40    0.60
   1   7  -5    1.80    0.50
  -1  -7   5    0.10    0.80
  -1  -7   5    1.20    0.90
   1   8  -5   11.70    1.70
   1   8  -5   10.60    1.30
   1   8  -5    9.70    1.30
  -1  -8   5   11.00    2.20
  -1  -8   5    8.00    1.80
   0  -9  -5   -0.10    0.70
   0  -9  -5   -0.30    0.70
   0   9   5   -0.10    0.40
   0   9   5   -0.20    0.70
   0   9   5   -0.30    0.50
   0  -8  -5    6.00    1.40
   0  -8  -5    9.70    1.90
   0   8   5    7.60    1.20
   0   8   5    6.70    1.30
   0   8   5    7.00    1.00
   0  -7  -5   34.10    1.80
   0  -7  -5   31.10    2.60
   0  -7  -5   34.20    2.60
   0   7   5   31.80    2.20
   0   7   5   32.90    1.90
   0   7   5   36.00    2.00
   0   7   5   33.90    2.10
   0  -6  -5   23.80    1.50
   0  -6  -5   24.00    2.10
   0  -6  -5   24.40    1.40
   0  -6  -5   24.10    2.00
   0   6   5   21.20    1.40
   0   6   5   26.30    1.60
   0   6   5   24.10    1.50
   0   6   5   23.90    1.70
   0   6   5   23.80    2.30
   0  -5  -5   77.49    3.10
   0  -5  -5   78.99    4.00
   0  -5  -5   77.69    3.90
   0  -5  -5   80.79    3.10
   0  -5  -5   83.19    3.30
   0   5   5   80.29    3.50
   0   5   5   76.69    3.30
   0   5   5   78.09    3.20
   0   5   5   77.69    4.30
   0   5   5   81.09    2.80
   0   5   5   78.39    3.40
   0   5   5   78.89    3.30
   0   5   5   79.99    3.20
   0  -4  -5    8.20    0.70
   0  -4  -5    7.60    1.20
   0  -4  -5    7.40    1.10
   0  -4  -5    7.10    0.70
   0  -4  -5    8.60    1.40
   0   4   5    9.00    0.90
   0   4   5    9.50    0.90
   0   4   5    8.10    0.50
   0   4   5    8.20    0.50
   0   4   5    9.40    0.70
   0   4   5    8.70    1.20
   0   4   5    9.20    0.90
   0   4   5    7.40    0.80
   0   4   5    8.90    1.00
   0  -3  -5    0.10    0.20
   0  -3  -5    0.00    0.30
   0  -3  -5    0.70    0.30
   0  -3  -5    0.20    0.20
   0  -3  -5    0.20    0.30
   0  -3  -5    0.10    0.20
   0  -3  -5    0.20    0.40
   0  -3  -5    0.10    0.10
   0   3   5    0.30    0.40
   0   3   5    0.40    0.20
   0   3   5    0.20    0.30
   0   3   5    0.10    0.10
   0   3   5    0.20    0.20
   0   3   5    0.20    0.20
   0   3   5    0.20    0.20
   0   3   5    0.10    0.10
   0   3   5    0.40    0.20
   0  -2  -5  138.59    5.00
   0  -2  -5  124.39    5.40
   0  -2  -5  135.19    4.80
   0  -2  -5  134.09    4.70
   0  -2  -5  137.29    5.20
   0  -2  -5  139.79    4.90
   0  -2  -5  138.69    4.90
   0  -2  -5  133.29    4.80
   0  -2  -5  139.89    5.20
   0  -2  -5  143.99    4.60
   0  -2  -5  134.79    4.60
   0   2   5  134.19    4.60
   0   2   5  140.19    4.70
   0   2   5  134.19    4.90
   0   2   5  134.29    5.30
   0   2   5  131.59    4.80
   0   2   5  134.89    4.80
   0   2   5  136.79    4.80
   0   2   5  141.39    4.80
   0  -1  -5  487.75   16.40
   0  -1  -5  491.45   16.60
   0  -1  -5  510.75   16.50
   0  -1  -5  516.55   16.70
   0  -1  -5  497.85   16.40
   0  -1  -5  495.25   16.50
   0  -1  -5  509.55   16.60
   0  -1  -5  510.15   16.60
   0  -1  -5  493.75   17.00
   0   1   5  521.05   17.00
   0   1   5  521.15   16.50
   0   1   5  477.85   16.50
   0   1   5  511.75   16.60
   0   1   5  502.55   16.50
   0   1   5  515.25   16.60
   0   1   5  524.95   16.50
   0   1   5  517.15   16.60
   0   1   5  505.35   16.50
   0   0  -5   30.90    1.30
   0   0  -5   28.30    1.30
   0   0  -5   33.60    1.30
   0   0  -5   27.60    1.40
   0   0  -5   28.00    1.30
   0   0  -5   27.80    1.30
   0   0  -5   29.70    1.60
   0   0  -5   28.60    1.40
   0   0   5   28.80    1.30
   0   0   5   30.40    1.60
   0   0   5   27.10    1.40
   0   0   5   29.70    1.30
   0   0   5   31.30    1.60
   0   0   5   30.60    1.40
   0   0   5   28.30    1.30
   0   0   5   29.20    1.30
   0   0   5   28.60    1.20
   0   0   5   31.60    1.30
   0   1  -5   12.80    0.80
   0   1  -5   10.90    0.80
   0   1  -5   13.30    0.70
   0   1  -5   13.10    0.80
   0   1  -5   13.20    0.80
   0   1  -5   11.80    1.00
   0   1  -5   12.80    0.80
   0   1  -5   11.50    0.80
   0  -1   5   13.40    0.80
   0  -1   5   13.20    0.70
   0  -1   5   13.10    0.60
   0  -1   5   12.10    0.80
   0  -1   5   12.40    0.80
   0  -1   5   12.80    0.80
   0  -1   5   13.40    1.10
   0  -1   5   12.40    0.60
   0   2  -5   13.20    0.80
   0   2  -5   11.40    0.80
   0   2  -5   10.90    0.70
   0   2  -5   10.90    0.80
   0   2  -5   12.10    0.80
   0   2  -5   11.60    1.10
   0   2  -5   12.20    0.80
   0   2  -5   11.00    0.80
   0   2  -5   11.30    0.60
   0  -2   5   12.10    0.80
   0  -2   5   11.90    0.80
   0  -2   5   12.30    0.60
   0  -2   5   11.30    1.30
   0  -2   5   12.50    0.80
   0  -2   5   12.00    0.60
   0   3  -5    2.10    0.50
   0   3  -5    1.50    0.40
   0   3  -5    1.60    0.40
   0   3  -5    2.40    0.50
   0   3  -5    1.80    0.40
   0   3  -5    1.60    0.40
   0   3  -5    2.30    0.50
   0   3  -5    1.70    0.30
   0  -3   5    1.90    0.30
   0  -3   5    2.10    0.70
   0  -3   5    2.30    0.40
   0  -3   5    2.40    0.50
   0  -3   5    2.20    0.20
   0   4  -5    3.70    0.60
   0   4  -5    3.10    0.50
   0   4  -5    3.30    0.50
   0   4  -5    3.30    0.60
   0   4  -5    2.80    0.60
   0   4  -5    2.10    0.50
   0   4  -5    2.00    0.50
   0  -4   5    2.60    0.50
   0  -4   5    3.00    0.60
   0  -4   5    3.30    0.60
   0  -4   5    3.20    0.50
   0  -4   5    2.50    0.80
   0   5  -5   55.19    1.90
   0   5  -5   56.19    2.40
   0   5  -5   54.09    2.70
   0   5  -5   52.69    2.70
   0   5  -5   50.89    2.50
   0   5  -5   56.19    2.40
   0  -5   5   55.29    2.50
   0  -5   5   52.79    3.30
   0  -5   5   54.49    2.40
   0  -5   5   55.99    2.60
   0   6  -5    0.80    0.40
   0   6  -5    0.40    0.40
   0   6  -5    0.90    0.40
   0   6  -5    0.90    0.50
   0  -6   5    0.60    0.60
   0  -6   5    0.00    0.60
   0  -6   5    1.10    0.40
   0  -6   5    0.60    0.40
   0  -6   5    1.10    0.30
   0  -6   5    1.10    0.80
   0   7  -5    0.80    0.70
   0   7  -5    0.00    0.40
   0   7  -5    0.30    0.50
   0   7  -5    0.00    0.40
   0  -7   5    0.40    0.90
   0  -7   5    0.00    0.80
   0   8  -5    1.50    0.60
   0   8  -5    1.60    0.90
   0   8  -5    1.00    0.70
   0  -8   5    1.50    1.10
   0  -8   5    1.50    1.10
  -1  -9  -5   13.00    2.20
  -1  -9  -5   12.60    2.20
   1   9   5   10.70    1.20
   1   9   5   12.80    1.50
   1   9   5   13.50    1.80
  -1  -8  -5    0.20    0.70
  -1  -8  -5    0.50    0.80
   1   8   5   -0.20    0.60
   1   8   5    0.00    0.30
   1   8   5   -0.20    0.40
  -1  -7  -5   14.30    1.00
  -1  -7  -5   13.70    1.10
  -1  -7  -5   17.00    2.20
  -1  -7  -5   12.40    1.80
   1   7   5   15.20    1.20
   1   7   5   15.30    1.10
   1   7   5   13.80    1.60
   1   7   5   14.30    1.90
   1   7   5   15.20    1.20
  -1  -6  -5   -0.50    0.50
  -1  -6  -5    0.20    0.20
  -1  -6  -5    0.10    0.30
  -1  -6  -5    0.70    0.60
  -1  -6  -5   -0.10    0.20
   1   6   5    0.50    0.50
   1   6   5   -0.10    0.20
   1   6   5   -0.30    0.30
   1   6   5   -0.10    0.30
   1   6   5    0.30    0.50
   1   6   5   -0.40    0.20
   1   6   5    0.00    0.20
  -1  -5  -5    3.60    0.60
  -1  -5  -5    2.90    0.80
  -1  -5  -5    2.30    0.80
  -1  -5  -5    3.20    0.40
  -1  -5  -5    3.50    0.50
   1   5   5    3.10    0.50
   1   5   5    4.20    1.00
   1   5   5    3.90    0.30
   1   5   5    3.20    0.60
   1   5   5    4.60    0.60
   1   5   5    3.70    0.50
   1   5   5    4.40    0.60
   1   5   5    3.50    0.30
   1   5   5    3.60    0.70
  -1  -4  -5  112.09    4.00
  -1  -4  -5  110.39    3.90
  -1  -4  -5  111.09    3.90
  -1  -4  -5  108.59    4.50
  -1  -4  -5  100.19    3.90
  -1  -4  -5   93.49    4.80
  -1  -4  -5  108.39    4.60
   1   4   5  110.99    3.90
   1   4   5  110.69    5.00
   1   4   5  117.29    3.70
   1   4   5  108.79    4.00
   1   4   5  109.39    4.20
   1   4   5  104.99    4.00
   1   4   5  116.39    3.70
   1   4   5  107.09    4.00
   1   4   5  108.09    4.10
  -1  -3  -5   34.40    1.40
  -1  -3  -5   34.20    1.90
  -1  -3  -5   31.50    1.40
  -1  -3  -5   32.40    1.30
  -1  -3  -5   26.80    1.90
  -1  -3  -5   29.20    1.70
  -1  -3  -5   32.40    1.30
  -1  -3  -5   30.30    1.50
  -1  -3  -5   33.10    1.40
   1   3   5   33.30    1.50
   1   3   5   33.30    1.50
   1   3   5   31.60    2.00
   1   3   5   34.30    1.30
   1   3   5   32.30    1.50
   1   3   5   32.60    1.30
   1   3   5   34.40    1.30
   1   3   5   34.60    1.50
   1   3   5   31.20    1.40
  -1  -2  -5   45.50    1.90
  -1  -2  -5   49.20    2.20
  -1  -2  -5   45.20    1.80
  -1  -2  -5   47.30    1.90
  -1  -2  -5   41.20    1.90
  -1  -2  -5   43.30    1.80
  -1  -2  -5   43.90    2.40
  -1  -2  -5   44.50    1.80
  -1  -2  -5   49.30    2.20
  -1  -2  -5   45.20    1.70
  -1  -2  -5   44.10    1.80
   1   2   5   45.80    1.90
   1   2   5   49.00    1.80
   1   2   5   46.00    1.90
   1   2   5   45.20    1.80
   1   2   5   44.40    1.80
   1   2   5   48.20    1.90
   1   2   5   48.10    1.90
   1   2   5   47.80    1.80
   1   2   5   45.50    2.30
  -1  -1  -5   23.00    1.20
  -1  -1  -5   21.30    1.40
  -1  -1  -5   22.00    1.00
  -1  -1  -5   22.00    1.10
  -1  -1  -5   22.10    1.00
  -1  -1  -5   19.50    1.10
  -1  -1  -5   21.90    1.10
  -1  -1  -5   22.20    1.00
  -1  -1  -5   21.70    1.10
   1   1   5   24.60    1.00
   1   1   5   21.80    1.00
   1   1   5   21.10    1.10
   1   1   5   23.80    1.10
   1   1   5   21.10    1.10
   1   1   5   22.80    1.10
   1   1   5   23.40    1.40
   1   1   5   22.10    1.10
  -1   0  -5    2.90    0.60
  -1   0  -5    2.70    0.40
  -1   0  -5    2.50    0.40
  -1   0  -5    2.50    0.40
  -1   0  -5    2.10    0.30
  -1   0  -5    2.20    0.40
  -1   0  -5    2.80    0.30
  -1   0  -5    2.40    0.40
  -1   0  -5    2.30    0.40
  -1   0  -5    2.30    0.40
   1   0   5    3.00    0.40
   1   0   5    3.10    0.60
   1   0   5    2.30    0.40
   1   0   5    3.20    0.40
   1   0   5    2.50    0.40
   1   0   5    2.40    0.50
   1   0   5    2.60    0.30
   1   0   5    3.50    0.40
   1   0   5    2.70    0.30
   1   0   5    1.90    0.40
  -1   1  -5   59.19    2.30
  -1   1  -5   59.49    2.30
  -1   1  -5   59.29    2.70
  -1   1  -5   56.99    2.40
  -1   1  -5   58.79    2.40
  -1   1  -5   59.89    2.50
  -1   1  -5   57.99    2.30
  -1   1  -5   59.39    2.20
  -1   1  -5   58.59    2.30
   1  -1   5   59.69    2.40
   1  -1   5   59.69    2.10
   1  -1   5   58.39    2.40
   1  -1   5   61.89    2.70
   1  -1   5   56.69    2.10
   1  -1   5   61.09    2.30
   1  -1   5   59.79    2.40
   1  -1   5   57.49    2.20
  -1   2  -5   17.10    1.10
  -1   2  -5   16.40    0.80
  -1   2  -5   16.60    1.00
  -1   2  -5   17.20    1.10
  -1   2  -5   16.50    1.00
  -1   2  -5   16.90    1.00
  -1   2  -5   17.30    0.90
  -1   2  -5   16.50    1.10
  -1   2  -5   19.10    1.00
  -1   2  -5   17.70    1.30
   1  -2   5   17.70    1.10
   1  -2   5   17.00    0.70
   1  -2   5   18.50    1.00
   1  -2   5   16.60    0.70
   1  -2   5   18.30    0.90
   1  -2   5   15.30    1.30
   1  -2   5   15.70    1.00
  -1   3  -5   12.50    0.90
  -1   3  -5   14.10    1.10
  -1   3  -5   12.80    1.00
  -1   3  -5   13.00    0.70
  -1   3  -5   13.00    1.00
  -1   3  -5   13.50    1.00
  -1   3  -5   12.40    0.90
   1  -3   5   13.00    0.90
   1  -3   5   14.70    0.90
   1  -3   5   13.20    1.00
   1  -3   5   14.50    1.00
   1  -3   5   16.70    1.80
   1  -3   5   14.30    1.00
  -1   4  -5    1.00    0.40
  -1   4  -5    2.10    0.50
  -1   4  -5    1.40    0.50
  -1   4  -5    1.40    0.40
  -1   4  -5    1.50    0.50
  -1   4  -5    1.80    0.30
  -1   4  -5    1.50    0.30
  -1   4  -5    1.40    0.50
   1  -4   5    1.20    0.40
   1  -4   5    1.40    0.40
   1  -4   5    1.00    0.40
   1  -4   5    2.80    0.90
  -1   5  -5    1.80    0.70
  -1   5  -5    2.70    0.50
  -1   5  -5    0.80    0.50
  -1   5  -5    1.70    0.50
  -1   5  -5    1.80    0.60
   1  -5   5    1.20    0.40
   1  -5   5    1.80    0.50
   1  -5   5    1.30    0.80
  -1   6  -5    0.00    0.60
  -1   6  -5   -0.40    0.40
  -1   6  -5    0.20    0.50
  -1   6  -5   -0.60    0.40
   1  -6   5   -0.10    0.50
   1  -6   5   -0.10    0.60
   1  -6   5    0.50    0.40
   1  -6   5    0.00    0.30
   1  -6   5    1.00    0.80
  -1   7  -5    0.90    0.60
  -1   7  -5    0.90    0.60
  -1   7  -5    0.20    0.60
   1  -7   5    0.80    0.90
   1  -7   5    1.00    1.00
  -2 -10  -5    0.10    0.80
  -2 -10  -5    0.70    0.90
   2  10   5    0.30    0.50
   2  10   5    0.40    0.40
   2  10   5    0.40    0.80
  -2  -9  -5    1.90    1.10
  -2  -9  -5    2.20    1.10
   2   9   5    2.40    0.60
   2   9   5    3.10    1.00
   2   9   5    1.30    0.50
  -2  -8  -5   33.50    2.80
  -2  -8  -5   35.90    2.60
   2   8   5   37.70    2.10
   2   8   5   35.30    1.80
   2   8   5   37.00    2.40
   2   8   5   36.80    2.00
  -2  -7  -5   22.20    1.90
  -2  -7  -5   24.80    2.10
   2   7   5   24.30    1.30
   2   7   5   23.80    1.40
   2   7   5   19.10    2.20
   2   7   5   20.60    1.70
   2   7   5   23.30    1.40
   2   7   5   25.30    1.50
  -2  -6  -5    2.80    0.80
  -2  -6  -5    3.30    0.90
  -2  -6  -5    3.40    0.60
  -2  -6  -5    3.80    0.40
  -2  -6  -5    3.70    0.40
   2   6   5    3.50    0.50
   2   6   5    3.70    0.60
   2   6   5    4.00    0.60
   2   6   5    2.40    0.50
   2   6   5    3.30    0.70
   2   6   5    3.80    0.50
   2   6   5    3.30    0.30
   2   6   5    3.50    0.30
   2   6   5    4.70    1.20
  -2  -5  -5    0.40    0.30
  -2  -5  -5    0.20    0.40
  -2  -5  -5    0.20    0.20
  -2  -5  -5    0.20    0.20
  -2  -5  -5    0.10    0.40
  -2  -5  -5    0.30    0.50
  -2  -5  -5    0.40    0.20
   2   5   5    0.50    0.50
   2   5   5    0.50    0.20
   2   5   5    0.60    0.30
   2   5   5    0.10    0.10
   2   5   5    0.80    0.30
   2   5   5    0.40    0.20
   2   5   5    0.10    0.20
   2   5   5    0.60    0.40
   2   5   5    0.00    0.20
  -2  -4  -5   89.29    3.20
  -2  -4  -5   82.89    3.40
  -2  -4  -5   86.99    3.10
  -2  -4  -5   76.69    4.10
  -2  -4  -5   87.49    3.30
  -2  -4  -5   90.79    3.90
  -2  -4  -5   83.79    3.70
  -2  -4  -5   86.99    3.20
   2   4   5   89.19    4.20
   2   4   5   90.39    3.30
   2   4   5   91.59    3.20
   2   4   5   92.69    3.10
   2   4   5   86.39    3.20
   2   4   5   86.29    3.10
   2   4   5   86.49    3.40
   2   4   5   92.69    3.20
   2   4   5   88.89    3.10
  -2  -3  -5    0.40    0.10
  -2  -3  -5    0.40    0.20
  -2  -3  -5    0.40    0.40
  -2  -3  -5    0.60    0.20
  -2  -3  -5    0.40    0.20
  -2  -3  -5    0.70    0.20
  -2  -3  -5    0.50    0.30
  -2  -3  -5    0.30    0.40
  -2  -3  -5    0.80    0.50
   2   3   5    0.60    0.10
   2   3   5    0.60    0.40
   2   3   5    0.40    0.20
   2   3   5    0.80    0.30
   2   3   5    0.50    0.20
   2   3   5    0.30    0.20
   2   3   5    0.70    0.20
   2   3   5    0.60    0.20
   2   3   5    0.30    0.20
  -2  -2  -5   36.30    2.10
  -2  -2  -5   40.30    1.60
  -2  -2  -5   37.30    1.60
  -2  -2  -5   40.30    1.60
  -2  -2  -5   41.90    1.60
  -2  -2  -5   37.60    1.60
  -2  -2  -5   40.60    1.90
   2   2   5   41.40    1.60
   2   2   5   39.70    1.70
   2   2   5   38.00    1.60
   2   2   5   39.60    2.10
   2   2   5   39.70    1.70
   2   2   5   40.10    1.60
   2   2   5   37.70    1.70
   2   2   5   39.00    1.50
   2   2   5   38.60    1.60
  -2  -1  -5   61.59    2.20
  -2  -1  -5   63.09    2.40
  -2  -1  -5   61.39    2.30
  -2  -1  -5   61.39    2.30
  -2  -1  -5   59.19    2.30
  -2  -1  -5   62.79    2.40
  -2  -1  -5   58.39    2.40
  -2  -1  -5   61.79    2.80
  -2  -1  -5   61.89    2.40
  -2  -1  -5   57.99    2.30
  -2  -1  -5   57.29    2.00
   2   1   5   62.39    2.30
   2   1   5   59.89    2.40
   2   1   5   62.49    2.30
   2   1   5   58.99    2.30
   2   1   5   60.69    2.30
   2   1   5   59.89    2.40
   2   1   5   58.29    2.40
   2   1   5   62.09    2.70
   2   1   5   58.49    2.30
  -2   0  -5   44.40    2.00
  -2   0  -5   44.60    2.00
  -2   0  -5   47.80    1.80
  -2   0  -5   43.80    1.70
  -2   0  -5   47.50    1.90
  -2   0  -5   49.50    2.00
  -2   0  -5   49.50    2.30
  -2   0  -5   45.10    2.00
  -2   0  -5   47.00    1.90
   2   0   5   47.30    1.80
   2   0   5   48.00    1.90
   2   0   5   45.40    2.20
   2   0   5   49.50    2.00
   2   0   5   44.80    1.90
   2   0   5   47.30    2.00
   2   0   5   47.10    2.00
   2   0   5   46.80    2.00
  -2   1  -5  308.87   10.40
  -2   1  -5  302.57   10.20
  -2   1  -5  302.47   10.20
  -2   1  -5  309.47   10.50
  -2   1  -5  303.57   10.30
  -2   1  -5  296.07   10.50
  -2   1  -5  317.07   10.30
  -2   1  -5  325.87   10.90
  -2   1  -5  295.97   10.20
   2  -1   5  318.87   10.50
   2  -1   5  297.57   10.10
   2  -1   5  314.27   10.70
   2  -1   5  320.87   10.30
   2  -1   5  304.27   10.50
   2  -1   5  302.57   10.30
   2  -1   5  317.37   10.30
   2  -1   5  299.97   10.40
  -2   2  -5   57.09    2.60
  -2   2  -5   54.89    2.50
  -2   2  -5   56.49    2.80
  -2   2  -5   57.29    2.20
  -2   2  -5   52.49    2.30
  -2   2  -5   55.69    2.50
  -2   2  -5   55.69    2.10
  -2   2  -5   54.69    2.30
   2  -2   5   53.19    2.30
   2  -2   5   54.99    2.10
   2  -2   5   54.29    2.10
   2  -2   5   57.09    2.30
   2  -2   5   53.19    2.30
   2  -2   5   54.89    2.50
   2  -2   5   60.19    2.80
   2  -2   5   52.29    2.40
  -2   3  -5   20.20    1.30
  -2   3  -5   19.30    1.00
  -2   3  -5   16.70    1.20
  -2   3  -5   17.30    1.30
  -2   3  -5   17.60    1.10
  -2   3  -5   18.20    1.00
  -2   3  -5   19.30    1.40
   2  -3   5   17.90    0.80
   2  -3   5   19.90    1.10
   2  -3   5   17.90    0.90
   2  -3   5   18.40    1.20
   2  -3   5   17.90    1.20
   2  -3   5   18.00    1.20
   2  -3   5   20.40    1.60
   2  -3   5   18.70    1.30
  -2   4  -5    0.00    0.40
  -2   4  -5   -0.10    0.40
  -2   4  -5    0.30    0.20
  -2   4  -5    0.70    0.40
  -2   4  -5    0.40    0.30
  -2   4  -5   -0.20    0.30
  -2   4  -5    0.10    0.30
   2  -4   5    0.50    0.40
   2  -4   5    0.30    0.30
   2  -4   5    0.20    0.40
   2  -4   5    0.10    0.30
   2  -4   5    0.70    0.60
   2  -4   5    0.10    0.30
  -2   5  -5    0.70    0.60
  -2   5  -5    0.60    0.60
  -2   5  -5   -0.30    0.40
  -2   5  -5    0.70    0.50
   2  -5   5    0.10    0.40
   2  -5   5    0.50    0.60
   2  -5   5    0.20    0.30
  -2   6  -5    3.60    0.90
  -2   6  -5    4.20    0.90
  -2   6  -5    4.30    1.00
   2  -6   5    4.10    0.80
   2  -6   5    4.90    1.40
   2  -6   5    4.60    1.40
  -2   7  -5   -0.10    0.50
  -2   7  -5    0.20    0.70
  -2   7  -5    0.80    0.60
   2  -7   5   -0.30    0.60
   2  -7   5   -1.00    0.70
   2  -7   5   -1.50    0.80
  -3 -10  -5    2.10    1.20
  -3 -10  -5    0.70    0.90
   3  10   5    1.30    0.50
   3  10   5    1.50    0.80
   3  10   5    1.50    0.50
  -3  -9  -5   -0.10    0.60
  -3  -9  -5   -0.30    0.60
   3   9   5    0.30    0.40
   3   9   5    0.20    0.30
   3   9   5    0.00    0.60
  -3  -8  -5    0.60    0.40
  -3  -8  -5   -0.40    0.60
  -3  -8  -5    0.40    0.60
   3   8   5    0.00    0.20
   3   8   5    0.00    0.40
   3   8   5   -0.20    0.30
   3   8   5    0.00    0.40
  -3  -7  -5    5.30    1.10
  -3  -7  -5    4.60    0.70
  -3  -7  -5    4.70    0.70
  -3  -7  -5    4.00    1.10
   3   7   5    4.00    1.20
   3   7   5    4.70    0.60
   3   7   5    5.90    0.60
   3   7   5    4.20    0.80
   3   7   5    5.40    0.60
   3   7   5    5.30    0.70
   3   7   5    5.40    0.60
  -3  -6  -5   26.10    2.00
  -3  -6  -5   25.40    1.40
  -3  -6  -5   26.50    1.40
  -3  -6  -5   23.80    1.80
   3   6   5   24.80    1.20
   3   6   5   26.40    1.30
   3   6   5   29.00    1.40
   3   6   5   26.10    2.30
   3   6   5   25.00    1.20
   3   6   5   25.10    1.20
   3   6   5   26.80    1.60
  -3  -5  -5    0.00    0.10
  -3  -5  -5    0.10    0.10
  -3  -5  -5   -0.10    0.40
  -3  -5  -5    0.30    0.20
  -3  -5  -5    0.20    0.20
  -3  -5  -5    0.30    0.40
  -3  -5  -5   -0.30    0.30
   3   5   5   -0.10    0.10
   3   5   5    0.10    0.20
   3   5   5    0.00    0.10
   3   5   5   -0.10    0.10
   3   5   5    0.10    0.40
   3   5   5    0.00    0.20
   3   5   5    0.00    0.20
   3   5   5   -0.10    0.20
  -3  -4  -5   58.29    3.30
  -3  -4  -5   63.39    2.80
  -3  -4  -5   66.09    2.30
  -3  -4  -5   64.19    2.50
  -3  -4  -5   58.99    2.50
  -3  -4  -5   61.69    3.00
  -3  -4  -5   65.19    2.30
   3   4   5   63.29    3.30
   3   4   5   66.69    2.30
   3   4   5   64.49    2.50
   3   4   5   62.79    2.40
   3   4   5   64.79    2.40
   3   4   5   64.89    2.40
   3   4   5   64.79    2.40
   3   4   5   64.49    2.50
  -3  -3  -5    1.50    0.30
  -3  -3  -5    1.70    0.30
  -3  -3  -5    1.20    0.50
  -3  -3  -5    1.80    0.30
  -3  -3  -5    1.10    0.20
  -3  -3  -5    1.40    0.50
  -3  -3  -5    1.70    0.40
   3   3   5    1.40    0.30
   3   3   5    1.40    0.30
   3   3   5    1.80    0.30
   3   3   5    1.40    0.50
   3   3   5    1.20    0.20
   3   3   5    1.20    0.30
   3   3   5    1.50    0.30
   3   3   5    1.20    0.40
  -3  -2  -5  128.89    5.20
  -3  -2  -5  130.09    4.90
  -3  -2  -5  127.79    4.60
  -3  -2  -5  127.79    4.60
  -3  -2  -5  118.19    4.30
  -3  -2  -5  130.19    4.60
   3   2   5  128.39    4.60
   3   2   5  131.99    4.70
   3   2   5  132.89    4.60
   3   2   5  131.49    4.60
   3   2   5  139.59    4.30
   3   2   5  132.79    4.60
   3   2   5  128.79    4.70
   3   2   5  131.09    5.10
  -3  -1  -5    7.60    0.40
  -3  -1  -5    7.30    0.70
  -3  -1  -5    7.60    0.60
  -3  -1  -5    6.60    0.70
  -3  -1  -5    7.00    0.80
  -3  -1  -5    7.00    0.70
  -3  -1  -5    6.60    0.60
  -3  -1  -5    7.20    0.40
   3   1   5    6.90    0.80
   3   1   5    6.70    0.70
   3   1   5    7.20    0.60
   3   1   5    8.20    0.80
   3   1   5    6.80    0.60
   3   1   5    8.00    0.70
   3   1   5    7.20    0.40
   3   1   5    7.10    0.70
  -3   0  -5    3.60    0.50
  -3   0  -5    3.80    0.60
  -3   0  -5    3.40    0.40
  -3   0  -5    3.60    0.50
  -3   0  -5    3.30    0.50
  -3   0  -5    3.10    0.60
  -3   0  -5    3.80    0.70
   3   0   5    3.50    0.60
   3   0   5    2.30    0.50
   3   0   5    3.90    0.60
   3   0   5    3.80    0.50
   3   0   5    3.80    0.60
   3   0   5    4.40    0.50
   3   0   5    3.40    0.40
   3   0   5    3.50    0.50
  -3   1  -5  424.66   14.80
  -3   1  -5  471.55   15.50
  -3   1  -5  442.86   15.10
  -3   1  -5  435.56   15.20
  -3   1  -5  447.56   14.80
  -3   1  -5  437.56   15.10
  -3   1  -5  436.16   14.80
  -3   1  -5  462.65   14.80
   3  -1   5  453.85   15.10
   3  -1   5  460.25   14.90
   3  -1   5  463.15   15.20
   3  -1   5  442.36   14.80
   3  -1   5  473.05   15.20
   3  -1   5  460.95   14.90
   3  -1   5  445.26   15.10
   3  -1   5  444.06   14.90
  -3   2  -5   17.50    1.10
  -3   2  -5   19.10    1.30
  -3   2  -5   20.20    1.30
  -3   2  -5   17.80    1.20
  -3   2  -5   18.90    1.40
  -3   2  -5   18.60    1.00
  -3   2  -5   19.70    1.10
  -3   2  -5   20.00    1.50
   3  -2   5   18.60    1.00
   3  -2   5   19.10    1.10
   3  -2   5   19.60    1.50
   3  -2   5   20.60    1.20
   3  -2   5   18.90    1.00
   3  -2   5   18.70    1.30
   3  -2   5   17.60    1.20
   3  -2   5   16.70    1.20
  -3   3  -5    1.50    0.60
  -3   3  -5    1.60    0.60
  -3   3  -5    2.00    0.70
  -3   3  -5    2.00    0.40
  -3   3  -5    1.60    0.40
  -3   3  -5    1.50    0.40
  -3   3  -5    2.00    0.60
  -3   3  -5    1.60    0.50
   3  -3   5    2.60    0.70
   3  -3   5    1.10    0.50
   3  -3   5    1.80    0.40
   3  -3   5    1.20    0.50
   3  -3   5    2.80    0.80
   3  -3   5    1.30    0.30
   3  -3   5    1.90    0.50
   3  -3   5    1.90    0.30
  -3   4  -5   19.70    1.60
  -3   4  -5   21.80    1.50
  -3   4  -5   22.30    1.30
  -3   4  -5   23.10    1.70
  -3   4  -5   22.90    1.30
  -3   4  -5   21.00    1.60
   3  -4   5   23.80    1.60
   3  -4   5   22.60    1.20
   3  -4   5   28.10    1.40
   3  -4   5   21.20    1.60
   3  -4   5   23.50    2.00
  -3   5  -5    4.30    1.00
  -3   5  -5    5.50    1.00
  -3   5  -5    5.60    1.00
   3  -5   5    4.80    1.20
   3  -5   5    6.40    1.00
  -3   6  -5   12.20    1.60
  -3   6  -5    9.40    1.50
  -3   6  -5   14.90    1.80
   3  -6   5   10.70    1.40
   3  -6   5    9.30    2.10
  -4 -10  -5    1.20    0.90
  -4 -10  -5    2.10    1.10
   4  10   5    1.20    0.70
   4  10   5    1.50    0.50
  -4  -9  -5   -0.20    0.60
  -4  -9  -5    0.10    0.70
   4   9   5   -0.10    0.30
   4   9   5   -0.30    0.50
   4   9   5   -0.10    0.20
   4   9   5   -0.40    0.40
  -4  -8  -5   12.80    1.70
  -4  -8  -5   13.00    1.00
  -4  -8  -5    9.60    1.70
   4   8   5    9.50    0.70
   4   8   5   11.00    0.80
   4   8   5   11.20    1.00
   4   8   5   11.40    1.40
  -4  -7  -5   60.29    2.60
  -4  -7  -5   60.49    3.10
  -4  -7  -5   56.39    3.40
   4   7   5   61.39    2.40
   4   7   5   59.19    2.60
   4   7   5   63.29    2.60
   4   7   5   61.29    3.90
   4   7   5   59.59    2.90
   4   7   5   60.49    2.40
   4   7   5   63.09    2.30
  -4  -6  -5    2.70    0.50
  -4  -6  -5    1.80    0.60
  -4  -6  -5    2.30    0.80
  -4  -6  -5    2.50    0.20
  -4  -6  -5    2.20    0.20
   4   6   5    2.70    0.30
   4   6   5    2.20    0.60
   4   6   5    2.70    0.40
   4   6   5    3.00    0.50
   4   6   5    2.10    0.30
   4   6   5    2.70    0.40
   4   6   5    2.40    0.90
  -4  -5  -5   13.80    1.60
  -4  -5  -5   13.90    1.40
  -4  -5  -5   16.60    1.00
  -4  -5  -5   16.80    0.80
  -4  -5  -5   16.80    0.80
   4   5   5   16.60    0.90
   4   5   5   16.60    0.80
   4   5   5   17.50    1.60
   4   5   5   15.10    1.00
   4   5   5   16.50    0.90
   4   5   5   16.70    0.80
   4   5   5   18.00    0.90
  -4  -4  -5   14.30    0.80
  -4  -4  -5   14.70    0.70
  -4  -4  -5   14.20    1.30
  -4  -4  -5   15.60    0.90
  -4  -4  -5   13.10    1.40
   4   4   5   15.90    0.80
   4   4   5   13.30    0.80
   4   4   5   13.80    0.80
   4   4   5   14.90    0.80
   4   4   5   15.40    1.40
   4   4   5   15.00    1.00
   4   4   5   14.20    1.10
   4   4   5   14.30    0.80
   4   4   5   14.70    0.70
  -4  -3  -5   60.59    2.40
  -4  -3  -5   61.29    2.40
  -4  -3  -5   55.69    2.80
  -4  -3  -5   62.49    2.50
  -4  -3  -5   55.59    3.00
   4   3   5   61.49    2.00
   4   3   5   61.19    2.00
   4   3   5   64.99    3.00
   4   3   5   62.79    2.60
   4   3   5   62.89    2.40
   4   3   5   62.39    2.40
   4   3   5   61.29    2.10
   4   3   5   57.29    2.50
   4   3   5   63.89    2.40
   4   3   5   59.59    2.40
  -4  -2  -5  106.69    4.60
  -4  -2  -5  114.49    4.10
  -4  -2  -5  115.99    4.40
  -4  -2  -5  107.39    4.10
  -4  -2  -5  106.29    4.00
   4   2   5  101.49    4.10
   4   2   5  112.49    3.60
   4   2   5  105.49    4.00
   4   2   5  108.39    4.10
   4   2   5  116.89    4.50
   4   2   5  113.69    4.00
   4   2   5  109.29    4.10
   4   2   5  114.29    4.10
  -4  -1  -5    0.30    0.30
  -4  -1  -5    0.20    0.40
  -4  -1  -5    0.40    0.30
  -4  -1  -5    0.50    0.30
  -4  -1  -5   -0.10    0.20
   4   1   5    0.00    0.20
   4   1   5    0.00    0.20
   4   1   5    0.20    0.10
   4   1   5    0.40    0.30
   4   1   5   -0.20    0.30
   4   1   5    0.00    0.20
   4   1   5    0.10    0.20
   4   1   5    0.40    0.30
  -4   0  -5    1.40    0.40
  -4   0  -5    1.20    0.50
  -4   0  -5    1.10    0.40
  -4   0  -5    0.60    0.30
  -4   0  -5    1.10    0.20
  -4   0  -5    0.90    0.30
  -4   0  -5    1.40    0.40
   4   0   5    1.30    0.40
   4   0   5    0.80    0.30
   4   0   5    1.40    0.50
   4   0   5    0.80    0.40
   4   0   5    1.40    0.30
   4   0   5    1.50    0.40
  -4   1  -5   36.40    1.70
  -4   1  -5   40.20    2.10
  -4   1  -5   41.70    1.90
  -4   1  -5   40.40    1.80
  -4   1  -5   40.90    2.10
  -4   1  -5   43.00    2.30
  -4   1  -5   39.30    1.80
   4  -1   5   42.90    1.90
   4  -1   5   39.50    2.00
   4  -1   5   40.00    2.10
   4  -1   5   42.80    1.90
   4  -1   5   39.30    2.10
   4  -1   5   43.90    1.90
   4  -1   5   41.60    2.10
   4  -1   5   41.30    1.90
   4  -1   5   40.80    2.10
  -4   2  -5    0.20    0.50
  -4   2  -5    0.90    0.30
  -4   2  -5    1.10    0.40
  -4   2  -5    0.30    0.40
  -4   2  -5    0.20    0.40
  -4   2  -5    0.10    0.30
  -4   2  -5    0.60    0.40
   4  -2   5    0.30    0.30
   4  -2   5    0.70    0.50
   4  -2   5    0.10    0.40
   4  -2   5   -0.30    0.40
   4  -2   5    0.80    0.40
   4  -2   5    1.30    0.50
   4  -2   5    0.40    0.30
   4  -2   5    0.20    0.30
  -4   3  -5  124.89    4.70
  -4   3  -5  124.69    4.80
  -4   3  -5  124.09    5.10
  -4   3  -5  125.19    5.30
  -4   3  -5  119.79    4.70
  -4   3  -5  116.69    4.80
   4  -3   5  124.89    4.60
   4  -3   5  122.89    4.40
   4  -3   5  126.49    4.90
   4  -3   5  131.49    4.70
   4  -3   5  121.69    5.10
   4  -3   5  128.29    5.00
   4  -3   5  122.99    5.10
  -4   4  -5   -0.20    0.40
  -4   4  -5    0.00    0.50
  -4   4  -5    0.80    0.60
  -4   4  -5   -0.20    0.30
  -4   4  -5   -0.20    0.40
  -4   4  -5   -0.20    0.50
   4  -4   5    0.20    0.40
   4  -4   5   -0.30    0.20
   4  -4   5    0.90    0.50
   4  -4   5   -0.30    0.20
  -4   5  -5    0.40    0.60
  -4   5  -5    1.40    0.70
  -4   5  -5    1.90    0.60
  -4   5  -5    1.10    0.70
   4  -5   5    0.30    0.90
   4  -5   5    1.10    0.60
  -4   6  -5    9.20    1.60
  -4   6  -5   15.70    1.30
  -4   6  -5   13.90    1.70
  -4   6  -5   11.10    1.60
   4  -6   5   13.50    2.50
  -5 -10  -5   19.90    2.70
  -5 -10  -5   23.40    2.10
   5  10   5   21.10    1.90
   5  10   5   21.00    1.20
  -5  -9  -5    0.00    0.30
  -5  -9  -5    0.90    0.80
  -5  -9  -5   -0.80    0.50
   5   9   5    0.40    0.20
   5   9   5    0.20    0.60
   5   9   5   -0.50    0.30
  -5  -8  -5    4.20    1.10
  -5  -8  -5    2.70    0.80
  -5  -8  -5    2.80    0.60
   5   8   5    3.00    0.60
   5   8   5    2.20    0.70
   5   8   5    3.50    0.70
   5   8   5    3.70    0.50
   5   8   5    3.40    0.40
   5   8   5    3.30    0.30
  -5  -7  -5    9.50    1.20
  -5  -7  -5   13.10    1.80
  -5  -7  -5    8.80    1.00
   5   7   5   10.30    1.00
   5   7   5    8.70    1.60
   5   7   5    9.20    0.50
   5   7   5    9.60    1.10
   5   7   5    9.20    0.60
   5   7   5    9.30    0.60
   5   7   5    8.60    1.10
  -5  -6  -5   89.09    3.50
  -5  -6  -5   83.79    4.20
   5   6   5   85.79    3.00
   5   6   5   91.09    3.30
   5   6   5   88.79    3.20
   5   6   5   80.09    3.50
   5   6   5   85.89    3.10
   5   6   5   88.89    3.10
   5   6   5   85.69    3.70
   5   6   5   83.59    4.50
   5   6   5   87.49    3.70
  -5  -5  -5  135.99    5.60
  -5  -5  -5  116.99    5.80
  -5  -5  -5  134.49    4.60
  -5  -5  -5  134.99    5.00
  -5  -5  -5  135.89    4.50
   5   5   5  139.79    5.90
   5   5   5  137.39    5.20
   5   5   5  136.09    4.70
   5   5   5  129.29    4.80
   5   5   5  140.59    4.70
   5   5   5  131.29    4.60
   5   5   5  133.79    5.20
   5   5   5  136.69    4.70
   5   5   5  138.09    4.60
  -5  -4  -5   16.20    0.90
  -5  -4  -5   16.40    1.40
  -5  -4  -5   15.50    1.00
  -5  -4  -5   13.50    1.40
   5   4   5   15.40    0.90
   5   4   5   15.30    0.90
   5   4   5   16.90    1.10
   5   4   5   15.10    0.90
   5   4   5   16.80    1.20
   5   4   5   15.70    0.80
   5   4   5   15.60    1.40
   5   4   5   17.40    0.90
   5   4   5   16.70    0.80
  -5  -3  -5   12.90    1.10
  -5  -3  -5    9.40    0.80
  -5  -3  -5    9.00    0.70
  -5  -3  -5    9.40    1.10
  -5  -3  -5    9.50    0.70
   5   3   5   10.40    0.80
   5   3   5   11.00    0.50
   5   3   5   11.70    0.80
   5   3   5   10.70    0.80
   5   3   5   11.20    1.00
   5   3   5   10.70    0.80
   5   3   5   11.00    0.90
   5   3   5   11.70    0.90
  -5  -2  -5   28.70    1.50
  -5  -2  -5   30.60    1.60
  -5  -2  -5   29.00    1.90
  -5  -2  -5   27.70    1.50
  -5  -2  -5   29.20    1.50
   5   2   5   28.80    1.70
   5   2   5   29.60    1.20
   5   2   5   26.80    1.50
   5   2   5   27.50    1.50
   5   2   5   29.80    1.60
   5   2   5   27.80    1.50
   5   2   5   27.00    1.50
   5   2   5   31.00    1.50
  -5  -1  -5    7.00    0.80
  -5  -1  -5    6.40    0.80
  -5  -1  -5    5.40    0.90
  -5  -1  -5    7.50    0.90
   5   1   5    7.60    0.80
   5   1   5    6.90    0.50
   5   1   5    6.30    0.80
   5   1   5    5.90    0.80
   5   1   5    6.70    0.90
   5   1   5    4.30    0.70
   5   1   5    6.50    0.80
  -5   0  -5   12.10    0.60
  -5   0  -5   12.90    1.10
  -5   0  -5   12.20    0.90
  -5   0  -5   11.20    1.20
  -5   0  -5   11.50    1.20
  -5   0  -5   12.20    0.80
  -5   0  -5   13.90    1.00
   5   0   5   13.80    1.10
   5   0   5   12.80    0.90
   5   0   5   11.20    1.00
   5   0   5   13.90    1.30
   5   0   5   11.90    1.00
   5   0   5   13.20    1.30
   5   0   5   12.60    0.90
  -5   1  -5    0.70    0.40
  -5   1  -5    0.40    0.30
  -5   1  -5    0.20    0.30
  -5   1  -5    0.30    0.50
  -5   1  -5    0.20    0.40
  -5   1  -5    0.50    0.40
  -5   1  -5    0.50    0.40
   5  -1   5    0.50    0.30
   5  -1   5    0.70    0.50
   5  -1   5    0.60    0.30
   5  -1   5    0.70    0.50
   5  -1   5    0.30    0.40
   5  -1   5    1.10    0.40
   5  -1   5    0.00    0.40
  -5   2  -5   17.80    1.20
  -5   2  -5   20.70    1.30
  -5   2  -5   20.70    1.60
  -5   2  -5   20.50    1.30
  -5   2  -5   19.20    1.50
  -5   2  -5   19.10    1.20
   5  -2   5   20.40    1.50
   5  -2   5   20.50    1.60
   5  -2   5   21.10    1.40
   5  -2   5   19.70    1.30
   5  -2   5   20.90    1.50
   5  -2   5   19.30    1.20
   5  -2   5   20.20    1.30
  -5   3  -5   18.60    1.40
  -5   3  -5   19.90    1.60
  -5   3  -5   21.00    1.40
  -5   3  -5   19.00    1.90
  -5   3  -5   19.50    1.40
   5  -3   5   20.20    1.60
   5  -3   5   22.00    1.50
   5  -3   5   20.90    1.60
   5  -3   5   21.20    1.20
   5  -3   5   21.10    1.30
  -5   4  -5    1.40    0.70
  -5   4  -5    0.60    0.40
  -5   4  -5    1.10    0.60
   5  -4   5    1.40    0.50
   5  -4   5    1.30    1.10
   5  -4   5    0.50    0.60
   5  -4   5    1.00    0.70
  -5   5  -5   -0.80    0.40
  -5   5  -5   -0.10    0.50
   5  -5   5    0.40    0.60
   5  -5   5   -1.00    0.90
  -6 -10  -5   34.70    1.90
  -6 -10  -5   30.00    2.80
   6  10   5   30.60    1.40
   6  10   5   30.40    2.30
  -6  -9  -5    4.70    1.00
  -6  -9  -5    3.60    1.20
  -6  -9  -5    4.70    0.80
   6   9   5    4.10    0.50
   6   9   5    4.80    0.50
   6   9   5    6.30    1.10
  -6  -8  -5   41.40    2.90
  -6  -8  -5   43.60    2.20
   6   8   5   42.60    2.50
   6   8   5   42.40    2.40
   6   8   5   46.90    1.80
   6   8   5   45.90    2.30
   6   8   5   45.40    1.70
   6   8   5   49.40    2.50
  -6  -7  -5   67.99    3.70
  -6  -7  -5   60.19    2.80
   6   7   5   65.39    3.10
   6   7   5   66.09    2.40
   6   7   5   68.19    2.80
   6   7   5   68.49    4.00
   6   7   5   69.59    2.50
   6   7   5   66.79    2.50
   6   7   5   66.89    3.20
   6   7   5   67.19    3.00
  -6  -6  -5   30.10    2.20
  -6  -6  -5   30.80    1.70
   6   6   5   30.10    1.40
   6   6   5   32.80    2.40
   6   6   5   32.00    1.40
   6   6   5   33.30    1.90
   6   6   5   35.40    2.00
   6   6   5   31.40    1.70
   6   6   5   33.20    1.50
   6   6   5   32.00    1.40
  -6  -5  -5   81.79    3.40
  -6  -5  -5   71.49    4.00
  -6  -5  -5   77.29    2.80
  -6  -5  -5   79.59    3.80
  -6  -5  -5   79.89    3.30
   6   5   5   79.79    3.10
   6   5   5   88.29    4.00
   6   5   5   80.59    3.00
   6   5   5   79.59    3.00
   6   5   5   81.69    3.00
   6   5   5   82.09    3.10
   6   5   5   78.79    3.40
   6   5   5   78.69    3.50
   6   5   5   79.89    3.00
  -6  -4  -5    0.60    0.50
  -6  -4  -5    0.10    0.30
  -6  -4  -5    0.20    0.30
  -6  -4  -5    0.00    0.30
  -6  -4  -5    0.30    0.20
   6   4   5    0.40    0.30
   6   4   5    0.20    0.20
   6   4   5   -0.10    0.40
   6   4   5    0.10    0.20
   6   4   5    0.20    0.30
   6   4   5    0.50    0.30
   6   4   5    0.00    0.30
   6   4   5    0.20    0.10
  -6  -3  -5    1.30    0.40
  -6  -3  -5    0.70    0.30
  -6  -3  -5    1.60    0.60
  -6  -3  -5    1.30    0.40
  -6  -3  -5    0.50    0.30
  -6  -3  -5    1.10    0.50
   6   3   5    1.10    0.50
   6   3   5    0.70    0.40
   6   3   5    1.70    0.40
   6   3   5    1.20    0.30
   6   3   5    1.60    0.40
   6   3   5    1.80    0.50
   6   3   5    0.40    0.30
   6   3   5    0.90    0.30
  -6  -2  -5    1.30    0.40
  -6  -2  -5    0.80    0.50
  -6  -2  -5    1.10    0.40
  -6  -2  -5    1.60    0.50
  -6  -2  -5    0.80    0.30
   6   2   5    0.80    0.40
   6   2   5    0.70    0.40
   6   2   5    1.20    0.50
   6   2   5    1.60    0.50
   6   2   5    0.80    0.40
   6   2   5    1.00    0.40
   6   2   5    1.20    0.40
   6   2   5    1.30    0.40
   6   2   5    1.00    0.30
  -6  -1  -5  128.19    5.10
  -6  -1  -5  128.29    4.90
  -6  -1  -5  137.09    5.40
  -6  -1  -5  136.19    5.10
   6   1   5  128.99    5.10
   6   1   5  137.09    4.80
   6   1   5  125.79    5.00
   6   1   5  129.09    5.20
   6   1   5  129.29    5.10
   6   1   5  135.99    5.60
   6   1   5  128.79    5.00
  -6   0  -5   13.10    1.40
  -6   0  -5   15.00    1.20
  -6   0  -5   17.20    1.20
  -6   0  -5   13.60    1.10
  -6   0  -5   14.90    1.40
  -6   0  -5   14.10    0.70
   6   0   5   15.30    1.30
   6   0   5   13.50    1.10
   6   0   5   14.10    1.20
   6   0   5   15.80    1.30
   6   0   5   14.20    1.00
   6   0   5   13.80    1.40
  -6   1  -5    2.70    0.60
  -6   1  -5    1.60    0.60
  -6   1  -5    2.70    0.50
  -6   1  -5    2.00    0.50
  -6   1  -5    1.70    0.70
   6  -1   5    2.20    0.60
   6  -1   5    3.20    0.70
   6  -1   5    2.80    0.60
   6  -1   5    3.50    0.80
   6  -1   5    2.40    0.70
   6  -1   5    2.80    0.60
  -6   2  -5    0.50    0.60
  -6   2  -5    0.40    0.50
  -6   2  -5    0.90    0.60
  -6   2  -5    0.50    0.50
   6  -2   5   -0.30    0.40
   6  -2   5    0.40    0.60
   6  -2   5    0.70    0.50
   6  -2   5    0.20    0.40
   6  -2   5    1.10    0.60
  -6   3  -5    2.00    0.80
  -6   3  -5    1.00    0.60
   6  -3   5    2.90    0.80
   6  -3   5    2.40    0.70
  -6   4  -5    2.90    0.90
  -6   4  -5    2.90    0.80
   6  -4   5    5.40    1.10
   6  -4   5    3.00    1.30
   6  -4   5    3.60    0.90
  -7 -10  -5    7.30    1.00
  -7 -10  -5    7.10    1.60
   7  10   5    8.90    1.40
   7  10   5    6.10    1.20
  -7  -9  -5    0.80    0.90
  -7  -9  -5   -0.10    0.40
   7   9   5    0.40    0.50
   7   9   5    0.90    0.50
   7   9   5    0.40    0.20
  -7  -8  -5    2.60    1.00
  -7  -8  -5    1.40    0.50
   7   8   5    2.60    0.70
   7   8   5    3.10    0.40
   7   8   5    4.10    0.90
   7   8   5    2.70    0.30
   7   8   5    2.40    0.70
  -7  -7  -5   10.50    1.20
  -7  -7  -5   11.40    1.70
  -7  -7  -5    9.60    1.10
   7   7   5    9.90    0.60
   7   7   5   10.00    0.70
   7   7   5   10.60    0.70
   7   7   5   12.30    1.80
   7   7   5   11.70    1.40
   7   7   5    9.90    1.10
  -7  -6  -5   61.59    2.90
  -7  -6  -5   63.79    2.80
  -7  -6  -5   61.39    3.40
   7   6   5   63.09    2.60
   7   6   5   63.49    2.60
   7   6   5   61.99    3.00
   7   6   5   64.09    3.90
   7   6   5   66.79    3.50
   7   6   5   63.29    2.50
   7   6   5   64.69    2.50
   7   6   5   62.99    2.70
  -7  -5  -5  116.59    4.60
  -7  -5  -5  101.09    5.20
  -7  -5  -5  113.79    5.20
  -7  -5  -5  116.29    4.70
   7   5   5  126.09    4.80
   7   5   5  121.69    4.40
   7   5   5  125.19    5.10
   7   5   5  113.89    4.40
   7   5   5  120.39    4.30
   7   5   5  119.19    4.80
  -7  -4  -5    2.40    0.60
  -7  -4  -5    3.40    0.80
  -7  -4  -5    3.20    0.70
   7   4   5    3.30    0.60
   7   4   5    3.30    0.60
   7   4   5    3.10    0.70
   7   4   5    3.50    0.60
   7   4   5    3.50    0.70
   7   4   5    3.60    0.50
   7   4   5    3.90    0.80
   7   4   5    2.70    0.70
  -7  -3  -5    6.30    0.90
  -7  -3  -5    5.40    1.00
  -7  -3  -5    6.00    0.90
  -7  -3  -5    6.10    0.80
   7   3   5    7.60    1.00
   7   3   5    6.60    0.70
   7   3   5    6.30    0.90
   7   3   5    7.70    0.90
   7   3   5    6.50    1.00
   7   3   5    6.70    0.90
   7   3   5    6.10    0.80
  -7  -2  -5   35.40    1.90
  -7  -2  -5   34.40    1.90
  -7  -2  -5   35.50    2.20
   7   2   5   33.80    1.90
   7   2   5   35.90    2.00
   7   2   5   33.90    1.90
   7   2   5   36.50    2.00
   7   2   5   33.30    2.10
   7   2   5   36.20    1.70
  -7  -1  -5    9.80    1.10
  -7  -1  -5    9.60    1.10
  -7  -1  -5   11.70    1.00
   7   1   5   12.40    1.30
   7   1   5   11.10    1.30
   7   1   5   10.20    0.90
   7   1   5    8.80    1.20
   7   1   5    9.70    1.20
   7   1   5    7.30    0.90
  -7   0  -5    8.80    1.20
  -7   0  -5    9.90    1.10
   7   0   5    8.40    1.20
   7   0   5    7.20    1.10
   7   0   5    8.00    1.10
   7   0   5    9.00    1.00
   7   0   5    4.60    0.90
  -7   1  -5    9.90    1.20
  -7   1  -5    9.50    1.30
   7  -1   5    9.90    1.20
   7  -1   5   11.10    1.40
   7  -1   5   11.20    1.50
   7  -1   5   11.60    1.40
  -7   2  -5   16.60    1.80
  -7   2  -5   14.70    1.30
   7  -2   5   14.20    1.60
   7  -2   5   13.30    1.20
   7  -2   5   20.10    2.00
  -7   3  -5    7.60    1.10
  -7   3  -5    6.80    1.20
   7  -3   5    5.10    1.00
   7  -3   5    7.20    1.90
   7  -3   5    8.60    1.40
  -8  -9  -5    1.00    0.50
  -8  -9  -5    0.50    0.70
   8   9   5    1.40    0.70
   8   9   5    0.30    0.50
  -8  -8  -5   19.30    1.50
  -8  -8  -5   14.80    2.10
  -8  -8  -5   17.10    1.30
   8   8   5   17.30    0.90
   8   8   5   17.80    0.90
   8   8   5   20.80    2.20
   8   8   5   17.00    1.50
  -8  -7  -5    3.30    1.00
  -8  -7  -5    5.20    0.90
  -8  -7  -5    2.00    0.60
   8   7   5    2.40    0.80
   8   7   5    3.20    0.50
   8   7   5    2.90    0.80
  -8  -6  -5    2.30    0.60
  -8  -6  -5    1.50    0.60
  -8  -6  -5    2.50    0.90
   8   6   5    2.80    0.80
   8   6   5    2.00    0.50
   8   6   5    1.80    0.40
   8   6   5    1.40    0.60
  -8  -5  -5   26.60    1.70
  -8  -5  -5   26.50    1.60
   8   5   5   22.40    1.40
   8   5   5   24.20    1.70
   8   5   5   23.20    1.50
   8   5   5   28.30    2.00
  -8  -4  -5   23.20    1.50
  -8  -4  -5   25.10    1.70
   8   4   5   25.90    1.50
   8   4   5   27.50    2.00
   8   4   5   24.50    1.60
   8   4   5   23.70    1.70
  -8  -3  -5    5.30    1.00
  -8  -3  -5    5.80    0.90
   8   3   5    5.60    0.80
   8   3   5    6.80    1.00
   8   3   5    4.30    1.00
   8   3   5    4.80    0.80
  -8  -2  -5   27.00    1.70
   8   2   5   31.30    2.00
   8   2   5   29.70    1.90
   8   2   5   26.00    1.80
   8   2   5   29.60    2.00
  -8  -1  -5   12.70    1.30
  -8  -1  -5   14.00    1.50
   8   1   5   17.50    1.50
   8   1   5   15.30    1.60
   8   1   5   13.20    1.50
   8   1   5   14.70    1.60
  -8   0  -5    3.30    0.80
  -8   0  -5    3.80    0.80
   8   0   5    3.10    0.90
   8   0   5    4.00    0.90
   8   0   5    2.50    0.80
   8   0   5    1.60    0.70
  -8   1  -5    1.00    0.60
  -8   1  -5    2.10    0.80
   8  -1   5    1.90    0.70
   8  -1   5    1.50    0.60
   8  -1   5    0.50    0.60
   8  -1   5    0.90    0.70
  -9  -8  -5   28.90    1.90
  -9  -8  -5   32.80    2.70
  -9  -8  -5   33.30    2.10
   9   8   5   32.60    2.40
   9   8   5   30.00    2.10
   9   8   5   32.10    1.50
  -9  -7  -5    0.60    0.50
  -9  -7  -5    1.80    0.70
  -9  -7  -5    2.20    1.00
   9   7   5    1.60    0.70
   9   7   5    1.40    0.40
   9   7   5    1.40    0.70
  -9  -6  -5    2.10    0.70
  -9  -6  -5    1.20    0.50
   9   6   5    1.90    0.50
   9   6   5    1.30    0.60
   9   6   5    1.60    0.50
   9   6   5    1.20    0.60
  -9  -5  -5   26.70    1.90
  -9  -5  -5   27.90    1.80
   9   5   5   24.60    1.60
   9   5   5   27.50    1.60
   9   5   5   28.30    2.20
   9   5   5   24.80    1.80
  -9  -4  -5   49.90    2.60
  -9  -4  -5   50.19    2.80
   9   4   5   52.49    2.70
   9   4   5   54.19    2.80
   9   4   5   51.79    3.00
   9   4   5   55.49    2.70
  -9  -3  -5    8.20    1.10
  -9  -3  -5    8.70    1.20
   9   3   5   11.10    1.30
   9   3   5    9.80    1.30
   9   3   5    9.80    1.30
   9   3   5   11.30    1.60
  -9  -2  -5    1.60    0.60
   9   2   5    1.00    0.60
   9   2   5    1.90    0.80
   9   2   5    1.80    0.70
   9   2   5    0.70    0.70
  -9  -1  -5    1.80    0.70
   9   1   5    1.60    0.80
   9   1   5    3.10    0.90
   9   1   5    5.10    1.10
   9   1   5    3.30    0.90
  -9   0  -5    3.20    0.80
   9   0   5    3.50    1.40
   9   0   5    2.20    0.80
   9   0   5    4.40    1.10
   9   0   5    3.70    1.00
   9   0   5    1.40    0.70
 -10  -6  -5   10.00    1.30
 -10  -6  -5   11.60    1.50
  10   6   5   12.30    1.30
  10   6   5   12.60    1.70
  10   6   5   11.80    1.50
  10   6   5   12.20    1.00
 -10  -5  -5    7.00    1.10
 -10  -5  -5    7.50    1.20
  10   5   5    9.40    1.60
  10   5   5   11.80    1.30
  10   5   5    8.40    1.20
  10   5   5    9.50    1.30
 -10  -4  -5    1.00    0.60
 -10  -4  -5    0.10    0.50
  10   4   5    0.30    0.50
  10   4   5    0.20    0.60
  10   4   5    1.00    0.80
  10   4   5   -0.20    0.40
 -10  -3  -5    6.50    1.20
 -10  -3  -5    8.60    1.20
  10   3   5    9.40    1.50
  10   3   5    9.20    1.40
  10   3   5    7.90    1.20
  10   3   5    7.20    1.30
   8   1  -6    2.70    0.90
   8   1  -6    1.30    0.70
   8   1  -6    1.70    0.70
   8   1  -6    1.60    0.90
  -8  -1   6    0.90    0.70
  -8  -1   6    1.00    0.90
   8   2  -6    3.60    0.90
   8   2  -6    4.30    0.90
   8   2  -6    4.10    1.00
   8   2  -6    3.00    0.90
  -8  -2   6    4.00    0.70
  -8  -2   6    2.20    1.20
  -8  -2   6    4.60    1.10
   8   3  -6   38.10    2.10
   8   3  -6   37.50    2.30
   8   3  -6   34.30    2.40
   8   3  -6   37.40    2.40
  -8  -3   6   38.20    3.10
  -8  -3   6   34.90    2.40
   8   4  -6    0.50    0.50
   8   4  -6    0.20    0.50
   8   4  -6    0.80    0.60
   8   4  -6    0.00    0.60
  -8  -4   6    0.60    0.60
  -8  -4   6    1.40    1.00
   7  -1  -6   13.70    1.40
   7  -1  -6   14.30    1.70
   7  -1  -6   15.10    1.70
   7  -1  -6   14.20    1.60
  -7   1   6   15.30    1.60
  -7   1   6   12.70    1.50
   7   0  -6   52.49    2.90
   7   0  -6   50.59    2.90
   7   0  -6   56.99    2.90
   7   0  -6   50.99    2.70
  -7   0   6   55.89    3.20
  -7   0   6   50.39    2.90
   7   1  -6   33.00    2.00
   7   1  -6   32.40    2.00
   7   1  -6   27.20    2.00
   7   1  -6   30.60    2.00
  -7  -1   6   25.90    1.90
  -7  -1   6   30.00    2.50
   7   2  -6    1.80    0.60
   7   2  -6    1.90    0.70
   7   2  -6    1.90    0.70
   7   2  -6    2.40    0.80
  -7  -2   6    1.10    0.60
  -7  -2   6    0.00    0.80
   7   3  -6   12.10    1.30
   7   3  -6   14.20    1.20
   7   3  -6   14.60    1.60
   7   3  -6   17.30    1.70
  -7  -3   6   14.30    2.00
  -7  -3   6   13.70    1.60
   7   4  -6    2.90    0.90
   7   4  -6    3.20    0.60
   7   4  -6    2.90    0.80
   7   4  -6    3.20    0.70
  -7  -4   6    3.00    0.80
  -7  -4   6    5.50    1.40
   7   5  -6   22.10    1.70
   7   5  -6   19.80    1.70
   7   5  -6   23.20    1.40
   7   5  -6   23.60    1.60
  -7  -5   6   25.40    3.00
  -7  -5   6   18.00    1.90
   7   6  -6   88.79    4.00
   7   6  -6   87.59    3.80
   7   6  -6   91.29    3.70
   7   6  -6   92.79    4.20
  -7  -6   6   91.79    4.30
  -7  -6   6   85.99    5.20
   6  -3  -6    5.00    1.00
   6  -3  -6    6.20    1.10
   6  -3  -6    3.40    1.20
  -6   3   6    6.20    1.10
  -6   3   6    6.90    1.10
  -6   3   6    5.20    1.00
   6  -2  -6    4.60    0.90
   6  -2  -6    5.80    1.10
   6  -2  -6    4.70    0.90
   6  -2  -6    4.20    1.10
   6  -2  -6    4.00    0.70
  -6   2   6    4.40    0.90
  -6   2   6    4.40    0.90
  -6   2   6    5.00    1.00
   6  -1  -6    8.20    1.00
   6  -1  -6    7.90    1.20
   6  -1  -6    6.90    1.20
   6  -1  -6    4.90    1.00
   6  -1  -6    9.50    1.10
   6  -1  -6    6.80    1.00
  -6   1   6    8.30    1.20
  -6   1   6    8.10    1.10
   6   0  -6   30.10    1.90
   6   0  -6   32.20    1.90
   6   0  -6   33.10    2.10
   6   0  -6   33.10    2.10
   6   0  -6   32.20    2.00
  -6   0   6   32.90    2.00
  -6   0   6   33.40    2.00
   6   1  -6    2.90    0.70
   6   1  -6    3.80    0.70
   6   1  -6    2.50    0.80
   6   1  -6    4.70    0.80
  -6  -1   6    2.40    0.90
  -6  -1   6    2.50    0.70
  -6  -1   6    2.80    0.60
   6   2  -6    0.00    0.30
   6   2  -6   -0.10    0.50
   6   2  -6   -0.60    0.20
   6   2  -6   -0.20    0.30
   6   2  -6   -0.40    0.40
  -6  -2   6    0.20    0.30
  -6  -2   6   -0.50    0.50
  -6  -2   6    0.30    0.40
  -6  -2   6   -0.20    0.30
   6   3  -6    0.20    0.40
   6   3  -6    0.70    0.40
   6   3  -6    0.70    0.40
   6   3  -6    0.40    0.50
   6   3  -6    0.30    0.50
  -6  -3   6    0.00    0.60
  -6  -3   6    0.50    0.40
   6   4  -6    6.60    0.80
   6   4  -6    5.40    0.80
   6   4  -6    3.90    0.80
   6   4  -6    4.50    0.90
  -6  -4   6    5.90    1.00
  -6  -4   6    4.10    1.10
   6   5  -6    3.20    0.80
   6   5  -6    2.80    0.70
   6   5  -6    1.90    0.50
   6   5  -6    3.30    0.70
  -6  -5   6    2.00    0.70
  -6  -5   6    2.40    1.10
   6   6  -6    1.20    0.50
   6   6  -6    0.40    0.60
   6   6  -6    2.10    0.50
  -6  -6   6    2.10    0.70
  -6  -6   6    1.30    0.80
   6   7  -6   -0.20    0.60
   6   7  -6    0.90    0.40
   6   7  -6    0.50    0.40
  -6  -7   6    0.30    0.50
  -6  -7   6    0.90    0.90
   5  -5  -6    6.80    1.10
   5  -5  -6    8.30    1.30
   5  -5  -6    8.00    1.80
  -5   5   6    4.80    1.10
  -5   5   6    8.10    1.30
   5  -4  -6    1.50    0.60
   5  -4  -6    0.30    0.60
   5  -4  -6    1.00    0.90
  -5   4   6    1.60    0.70
  -5   4   6    1.10    0.80
   5  -3  -6    3.80    0.80
   5  -3  -6    3.20    0.80
   5  -3  -6    2.10    0.90
  -5   3   6    5.20    1.00
  -5   3   6    2.90    0.80
  -5   3   6    3.70    0.70
   5  -2  -6    4.10    0.70
   5  -2  -6    2.20    0.70
   5  -2  -6    2.60    0.50
   5  -2  -6    3.60    0.80
   5  -2  -6    2.60    0.80
   5  -2  -6    4.60    1.10
  -5   2   6    4.60    0.80
  -5   2   6    5.30    0.90
  -5   2   6    3.40    0.80
   5  -1  -6   35.80    2.10
   5  -1  -6   38.70    2.20
   5  -1  -6   37.80    1.90
   5  -1  -6   37.40    1.90
   5  -1  -6   33.50    2.20
   5  -1  -6   35.00    2.10
  -5   1   6   42.30    2.20
  -5   1   6   40.60    2.20
  -5   1   6   37.50    2.10
   5   0  -6    0.00    0.40
   5   0  -6   -0.10    0.40
   5   0  -6    0.20    0.40
   5   0  -6    1.10    0.50
   5   0  -6    0.00    0.30
   5   0  -6   -0.40    0.30
  -5   0   6    0.00    0.30
  -5   0   6    0.00    0.40
  -5   0   6    0.10    0.30
   5   1  -6   59.19    2.80
   5   1  -6   60.39    2.70
   5   1  -6   61.09    2.70
   5   1  -6   58.09    2.70
   5   1  -6   57.49    2.80
  -5  -1   6   56.29    3.30
  -5  -1   6   55.39    2.80
  -5  -1   6   60.49    2.70
  -5  -1   6   60.09    2.60
   5   2  -6  182.18    6.50
   5   2  -6  175.18    6.30
   5   2  -6  166.18    6.40
   5   2  -6  177.48    6.40
   5   2  -6  173.18    6.40
  -5  -2   6  175.08    6.30
  -5  -2   6  166.08    7.20
  -5  -2   6  175.48    6.20
  -5  -2   6  160.58    6.50
   5   3  -6  196.88    7.30
   5   3  -6  187.48    7.00
   5   3  -6  183.38    6.90
   5   3  -6  185.88    6.80
   5   3  -6  202.08    7.30
   5   3  -6  189.28    6.70
  -5  -3   6  175.38    7.80
  -5  -3   6  190.08    6.70
  -5  -3   6  186.48    6.60
  -5  -3   6  177.88    7.00
   5   4  -6   40.10    2.70
   5   4  -6   35.80    1.90
   5   4  -6   34.50    1.90
   5   4  -6   38.00    2.10
   5   4  -6   35.50    1.80
  -5  -4   6   34.30    2.70
  -5  -4   6   37.40    2.10
   5   5  -6    0.60    0.30
   5   5  -6    1.00    0.40
   5   5  -6    0.60    0.50
   5   5  -6    0.30    0.40
  -5  -5   6   -0.10    0.30
  -5  -5   6    0.10    0.50
   5   6  -6    0.10    0.30
   5   6  -6   -0.40    0.50
   5   6  -6    0.10    0.40
  -5  -6   6    0.00    0.40
  -5  -6   6    0.50    0.70
   5   7  -6   -0.30    0.30
   5   7  -6   -0.30    0.30
   5   7  -6    1.20    0.70
  -5  -7   6    0.60    0.50
  -5  -7   6    0.10    0.80
   4  -6  -6    0.10    0.50
   4  -6  -6    0.80    0.90
   4  -6  -6    0.60    0.50
  -4   6   6    0.20    0.80
  -4   6   6   -0.30    0.50
   4  -5  -6    4.10    0.90
   4  -5  -6    7.30    1.10
   4  -5  -6    5.40    1.40
  -4   5   6    5.70    1.00
  -4   5   6    5.70    1.20
   4  -4  -6    8.70    1.60
   4  -4  -6    9.40    1.20
   4  -4  -6   10.60    1.30
  -4   4   6    7.70    1.20
  -4   4   6    9.90    1.10
  -4   4   6    9.60    1.30
  -4   4   6   10.90    1.40
   4  -3  -6    0.90    0.50
   4  -3  -6    0.60    0.30
   4  -3  -6    0.10    0.40
   4  -3  -6    0.60    0.30
   4  -3  -6    0.40    0.60
   4  -3  -6    0.90    0.50
  -4   3   6    0.70    0.50
  -4   3   6    0.90    0.50
  -4   3   6   -0.20    0.40
  -4   3   6    0.40    0.50
  -4   3   6    0.40    0.40
   4  -2  -6  138.99    6.00
   4  -2  -6  146.59    5.60
   4  -2  -6  133.09    5.50
   4  -2  -6  143.49    5.20
   4  -2  -6  139.29    5.50
   4  -2  -6  141.09    5.20
  -4   2   6  139.79    5.70
  -4   2   6  148.69    5.70
  -4   2   6  152.28    5.70
  -4   2   6  154.78    5.60
  -4   2   6  146.79    5.50
   4  -1  -6   46.00    2.00
   4  -1  -6   47.30    2.30
   4  -1  -6   42.20    2.20
   4  -1  -6   43.50    2.20
   4  -1  -6   43.10    2.40
   4  -1  -6   37.70    2.30
   4  -1  -6   43.40    2.00
  -4   1   6   46.50    2.30
  -4   1   6   43.50    2.20
  -4   1   6   39.70    2.10
  -4   1   6   44.60    2.10
  -4   1   6   44.90    2.20
  -4   1   6   46.30    2.20
  -4   1   6   42.20    2.20
   4   0  -6   14.30    1.10
   4   0  -6   12.30    1.10
   4   0  -6   14.50    1.10
   4   0  -6   15.60    1.30
   4   0  -6   14.20    1.00
   4   0  -6   13.20    1.00
   4   0  -6   12.90    1.10
   4   0  -6   13.20    1.10
  -4   0   6   11.50    1.00
  -4   0   6   13.60    1.00
  -4   0   6   15.40    1.20
  -4   0   6   12.90    1.00
  -4   0   6   14.50    1.00
  -4   0   6   13.00    0.80
  -4   0   6   12.40    1.10
   4   1  -6    1.80    0.50
   4   1  -6    1.70    0.50
   4   1  -6    1.50    0.50
   4   1  -6    1.20    0.40
   4   1  -6    2.00    0.50
   4   1  -6    2.20    0.60
   4   1  -6    1.40    0.50
  -4  -1   6    1.80    0.40
  -4  -1   6    1.70    0.50
  -4  -1   6    1.40    0.20
  -4  -1   6    3.00    0.60
  -4  -1   6    1.80    0.70
  -4  -1   6    1.10    0.40
   4   2  -6   13.30    1.10
   4   2  -6   12.70    1.10
   4   2  -6   13.20    1.10
   4   2  -6   13.80    1.00
   4   2  -6   10.70    1.00
   4   2  -6   12.50    1.10
   4   2  -6   12.10    1.00
  -4  -2   6   11.90    1.00
  -4  -2   6   12.30    0.80
  -4  -2   6   13.60    1.00
  -4  -2   6   14.70    1.20
  -4  -2   6   14.00    1.00
  -4  -2   6   15.20    1.80
   4   3  -6    0.40    0.40
   4   3  -6    0.10    0.40
   4   3  -6    0.00    0.40
   4   3  -6    0.40    0.30
   4   3  -6    0.00    0.40
   4   3  -6    0.10    0.30
  -4  -3   6    0.10    0.20
  -4  -3   6    0.20    0.60
  -4  -3   6    0.40    0.30
  -4  -3   6    0.40    0.20
   4   4  -6   34.30    1.90
   4   4  -6   35.00    1.70
   4   4  -6   34.50    1.90
   4   4  -6   36.60    1.80
   4   4  -6   36.00    2.20
   4   4  -6   33.30    1.80
  -4  -4   6   36.20    1.70
  -4  -4   6   32.30    1.90
  -4  -4   6   37.20    2.60
   4   5  -6   85.69    3.40
   4   5  -6   84.69    3.40
   4   5  -6   86.39    3.50
   4   5  -6   84.29    3.60
   4   5  -6   91.39    4.20
  -4  -5   6   88.59    3.80
  -4  -5   6   82.39    4.60
   4   6  -6   21.70    1.50
   4   6  -6   22.10    1.30
   4   6  -6   21.30    1.40
  -4  -6   6   21.90    1.60
  -4  -6   6   24.00    2.90
   4   7  -6   83.19    3.60
   4   7  -6   82.79    3.50
   4   7  -6   86.99    3.70
  -4  -7   6   81.69    3.70
  -4  -7   6   81.89    5.00
   4   8  -6   -0.30    0.40
   4   8  -6    0.20    0.40
   4   8  -6   -0.40    0.50
  -4  -8   6    0.20    0.40
  -4  -8   6    0.40    0.90
   3  -7  -6    3.20    1.40
   3  -7  -6    1.30    1.00
  -3   7   6    2.00    0.80
  -3   7   6    1.00    0.90
  -3   7   6    2.40    0.70
   3  -6  -6    0.10    0.40
   3  -6  -6    1.00    0.90
  -3   6   6    0.50    0.70
  -3   6   6   -0.50    0.50
  -3   6   6    0.20    0.40
   3  -5  -6    0.20    0.40
   3  -5  -6    0.00    0.70
   3  -5  -6    0.70    0.50
  -3   5   6    0.50    0.70
  -3   5   6    0.20    0.40
  -3   5   6    0.60    0.50
  -3   5   6    0.90    0.70
   3  -4  -6   23.20    1.10
   3  -4  -6   23.00    1.60
   3  -4  -6   25.90    2.20
   3  -4  -6   27.00    1.70
   3  -4  -6   29.70    2.40
  -3   4   6   24.90    2.10
  -3   4   6   26.80    1.80
  -3   4   6   24.60    1.70
  -3   4   6   26.00    1.70
  -3   4   6   25.00    1.40
   3  -3  -6   44.20    2.80
   3  -3  -6   41.80    2.30
   3  -3  -6   48.20    2.40
   3  -3  -6   46.30    1.90
   3  -3  -6   48.30    2.00
   3  -3  -6   47.20    2.40
  -3   3   6   49.70    2.40
  -3   3   6   49.40    2.50
  -3   3   6   50.99    2.20
  -3   3   6   49.70    2.60
  -3   3   6   50.19    2.80
   3  -2  -6    0.60    0.40
   3  -2  -6    1.80    0.40
   3  -2  -6    0.80    0.50
   3  -2  -6    2.40    0.50
   3  -2  -6    1.30    0.50
   3  -2  -6    0.90    0.30
   3  -2  -6    1.70    0.50
   3  -2  -6    0.30    0.40
  -3   2   6    1.50    0.40
  -3   2   6    1.50    0.40
  -3   2   6    1.30    0.50
  -3   2   6    1.60    0.60
  -3   2   6    1.30    0.40
  -3   2   6    1.20    0.50
  -3   2   6    0.80    0.40
   3  -1  -6    0.40    0.30
   3  -1  -6    0.30    0.30
   3  -1  -6    0.70    0.30
   3  -1  -6   -0.30    0.30
   3  -1  -6    0.20    0.40
   3  -1  -6    0.00    0.30
   3  -1  -6    0.30    0.30
   3  -1  -6    0.70    0.50
   3  -1  -6    0.20    0.30
  -3   1   6    0.50    0.30
  -3   1   6    0.50    0.30
  -3   1   6    0.50    0.40
  -3   1   6    0.10    0.20
  -3   1   6    0.50    0.30
  -3   1   6   -0.10    0.20
  -3   1   6    0.70    0.40
  -3   1   6    0.10    0.30
   3   0  -6   33.40    1.70
   3   0  -6   34.10    2.00
   3   0  -6   33.80    1.70
   3   0  -6   33.10    1.70
   3   0  -6   36.50    1.70
   3   0  -6   33.30    1.90
   3   0  -6   34.00    1.70
   3   0  -6   34.80    1.80
  -3   0   6   34.70    1.70
  -3   0   6   34.20    1.80
  -3   0   6   35.30    1.80
  -3   0   6   36.40    1.80
  -3   0   6   34.80    1.40
  -3   0   6   36.90    1.80
  -3   0   6   33.00    1.60
   3   1  -6    0.40    0.30
   3   1  -6    0.50    0.30
   3   1  -6    0.80    0.40
   3   1  -6    1.20    0.40
   3   1  -6    0.80    0.40
   3   1  -6    0.30    0.30
   3   1  -6    0.70    0.30
  -3  -1   6    0.40    0.20
  -3  -1   6    0.50    0.30
  -3  -1   6    0.60    0.40
  -3  -1   6    0.50    0.30
  -3  -1   6   -0.20    0.20
  -3  -1   6    1.50    0.60
   3   2  -6   39.50    1.80
   3   2  -6   37.90    1.80
   3   2  -6   36.80    1.90
   3   2  -6   38.20    1.90
   3   2  -6   36.60    1.90
   3   2  -6   37.30    1.90
   3   2  -6   41.80    2.20
   3   2  -6   39.70    1.90
  -3  -2   6   45.80    2.60
  -3  -2   6   41.90    1.90
  -3  -2   6   40.30    1.80
  -3  -2   6   37.00    1.90
  -3  -2   6   38.40    1.60
  -3  -2   6   43.70    2.10
   3   3  -6   34.00    1.60
   3   3  -6   33.40    1.70
   3   3  -6   31.90    1.70
   3   3  -6   33.00    1.70
   3   3  -6   36.10    2.10
   3   3  -6   30.40    1.60
   3   3  -6   32.30    1.60
   3   3  -6   35.00    1.80
  -3  -3   6   33.40    1.90
  -3  -3   6   30.00    2.20
  -3  -3   6   36.30    1.80
  -3  -3   6   33.80    1.60
  -3  -3   6   31.90    1.30
  -3  -3   6   33.90    1.60
   3   4  -6    1.30    0.50
   3   4  -6    2.00    0.40
   3   4  -6    1.70    0.70
   3   4  -6    1.60    0.50
   3   4  -6    2.30    0.50
   3   4  -6    1.70    0.40
   3   4  -6    0.70    0.40
  -3  -4   6    1.90    0.50
  -3  -4   6    1.00    0.30
  -3  -4   6    0.50    0.70
  -3  -4   6    1.50    0.90
   3   5  -6    2.80    0.40
   3   5  -6    2.20    0.60
   3   5  -6    1.60    0.50
   3   5  -6    2.10    0.60
   3   5  -6    1.50    0.50
   3   5  -6    1.90    0.50
  -3  -5   6    2.00    0.60
  -3  -5   6    2.80    1.10
   3   6  -6   16.90    1.30
   3   6  -6   19.80    1.30
   3   6  -6   16.30    1.30
  -3  -6   6   19.20    2.60
  -3  -6   6   18.70    1.30
   3   7  -6    2.70    0.70
   3   7  -6    3.80    0.80
   3   7  -6    3.50    0.70
  -3  -7   6    1.60    0.50
  -3  -7   6    1.70    1.10
   3   8  -6    5.40    0.90
   3   8  -6    3.90    0.90
   3   8  -6    4.00    0.80
  -3  -8   6    2.00    1.30
   2  -7  -6   -0.90    0.60
   2  -7  -6    2.00    1.10
  -2   7   6    0.60    0.80
  -2   7   6    0.60    0.50
  -2   7   6    0.90    0.60
   2  -6  -6   19.90    2.50
   2  -6  -6   16.80    1.30
  -2   6   6   15.90    2.00
  -2   6   6   20.50    1.70
  -2   6   6   16.60    1.70
  -2   6   6   16.70    1.60
   2  -5  -6   86.89    4.50
   2  -5  -6   89.59    3.70
   2  -5  -6   81.89    3.60
  -2   5   6   89.69    3.90
  -2   5   6   89.19    3.90
  -2   5   6   83.69    4.60
  -2   5   6   87.59    4.00
   2  -4  -6  126.59    5.60
   2  -4  -6  129.39    4.90
   2  -4  -6  115.49    4.80
   2  -4  -6  118.69    4.80
   2  -4  -6  128.29    4.90
   2  -4  -6  115.69    4.20
   2  -4  -6  128.59    4.30
  -2   4   6  127.29    4.60
  -2   4   6  126.69    5.10
  -2   4   6  127.59    5.70
  -2   4   6  124.39    4.90
  -2   4   6  126.89    5.00
   2  -3  -6   18.50    1.00
   2  -3  -6   18.30    1.30
   2  -3  -6   17.50    1.20
   2  -3  -6   19.80    1.20
   2  -3  -6   18.10    1.70
   2  -3  -6   20.10    1.30
   2  -3  -6   19.90    1.70
   2  -3  -6   19.60    1.00
  -2   3   6   19.40    1.60
  -2   3   6   21.00    1.30
  -2   3   6   20.40    1.10
  -2   3   6   18.70    1.40
  -2   3   6   19.10    1.10
  -2   3   6   19.50    1.30
  -2   3   6   19.80    1.20
   2  -2  -6   22.50    1.60
   2  -2  -6   19.90    1.60
   2  -2  -6   22.70    1.30
   2  -2  -6   21.60    1.10
   2  -2  -6   21.70    1.10
   2  -2  -6   20.10    1.20
   2  -2  -6   20.50    1.50
   2  -2  -6   22.80    1.30
   2  -2  -6   22.60    1.30
  -2   2   6   21.60    1.30
  -2   2   6   20.60    1.30
  -2   2   6   22.20    1.20
  -2   2   6   20.40    1.20
  -2   2   6   21.50    1.40
  -2   2   6   20.90    1.20
  -2   2   6   23.60    1.60
  -2   2   6   22.90    1.40
   2  -1  -6   17.60    1.10
   2  -1  -6   18.60    1.20
   2  -1  -6   18.50    1.00
   2  -1  -6   18.70    1.50
   2  -1  -6   19.40    1.30
   2  -1  -6   20.10    1.20
   2  -1  -6   20.00    1.10
   2  -1  -6   19.20    1.30
   2  -1  -6   19.40    1.10
  -2   1   6   20.20    1.20
  -2   1   6   21.50    1.00
  -2   1   6   20.90    1.40
  -2   1   6   18.50    1.10
  -2   1   6   20.20    1.10
  -2   1   6   18.60    1.10
  -2   1   6   21.10    1.20
  -2   1   6   22.10    1.20
   2   0  -6    0.50    0.30
   2   0  -6    0.10    0.30
   2   0  -6    0.20    0.20
   2   0  -6   -0.30    0.20
   2   0  -6   -0.20    0.20
   2   0  -6   -0.20    0.20
   2   0  -6    0.20    0.30
  -2   0   6    0.00    0.20
  -2   0   6   -0.10    0.20
  -2   0   6    0.30    0.30
  -2   0   6    0.00    0.20
  -2   0   6    0.40    0.30
  -2   0   6    0.20    0.10
  -2   0   6    0.00    0.30
   2   1  -6    8.40    0.90
   2   1  -6    8.60    0.70
   2   1  -6    7.30    0.90
   2   1  -6    7.90    0.80
   2   1  -6    7.50    0.80
   2   1  -6    7.10    0.70
   2   1  -6    8.00    0.70
   2   1  -6    7.20    0.80
  -2  -1   6    7.30    0.80
  -2  -1   6    7.80    1.10
  -2  -1   6    7.50    0.80
  -2  -1   6    7.30    0.50
  -2  -1   6    8.20    0.70
  -2  -1   6    7.20    0.80
   2   2  -6   31.50    1.80
   2   2  -6   26.20    1.40
   2   2  -6   25.40    1.40
   2   2  -6   26.90    1.40
   2   2  -6   28.00    1.40
   2   2  -6   27.50    1.30
   2   2  -6   27.50    1.40
   2   2  -6   27.60    1.50
  -2  -2   6   27.00    1.40
  -2  -2   6   27.80    1.50
  -2  -2   6   27.30    1.10
  -2  -2   6   25.50    1.40
  -2  -2   6   28.00    1.40
  -2  -2   6   24.60    1.90
   2   3  -6   27.60    1.50
   2   3  -6   28.00    1.30
   2   3  -6   30.00    1.50
   2   3  -6   29.00    1.50
   2   3  -6   26.90    1.50
   2   3  -6   28.90    1.60
   2   3  -6   27.60    1.50
   2   3  -6   29.70    1.90
  -2  -3   6   31.60    1.50
  -2  -3   6   29.60    1.50
  -2  -3   6   29.40    1.40
  -2  -3   6   30.90    2.20
  -2  -3   6   31.70    1.60
  -2  -3   6   27.70    1.60
   2   4  -6    1.10    0.40
   2   4  -6    1.20    0.30
   2   4  -6    0.90    0.40
   2   4  -6    1.00    0.40
   2   4  -6    1.30    0.20
   2   4  -6    1.00    0.40
   2   4  -6    1.70    0.40
   2   4  -6    1.30    0.60
   2   4  -6    1.00    0.40
   2   4  -6    1.40    0.50
  -2  -4   6    1.20    0.40
  -2  -4   6    1.50    0.50
  -2  -4   6    1.30    0.40
  -2  -4   6    1.20    0.30
  -2  -4   6    0.10    0.60
  -2  -4   6    0.80    0.40
   2   5  -6   -0.40    0.30
   2   5  -6    0.60    0.40
   2   5  -6    0.00    0.40
   2   5  -6    0.20    0.30
   2   5  -6    0.50    0.40
  -2  -5   6    0.30    0.30
  -2  -5   6   -0.30    0.20
  -2  -5   6    0.00    0.50
   2   6  -6    1.80    0.50
   2   6  -6    1.00    0.50
   2   6  -6    2.20    0.60
   2   6  -6    1.70    0.60
  -2  -6   6    2.90    1.10
  -2  -6   6    1.40    0.50
   2   7  -6    6.50    0.90
   2   7  -6    5.60    0.90
   2   7  -6    5.10    0.90
  -2  -7   6    7.30    1.80
  -2  -7   6    5.20    0.80
  -2  -7   6    6.80    1.50
   2   8  -6    4.90    0.90
   2   8  -6    5.10    1.00
   2   8  -6    5.70    0.90
  -2  -8   6    5.50    1.40
  -2  -8   6    6.80    1.70
   1  -8  -6    2.50    1.10
   1  -8  -6    2.10    1.20
  -1   8   6    2.50    0.70
  -1   8   6    2.90    1.10
  -1   8   6    2.00    0.80
   1  -7  -6   19.90    2.50
   1  -7  -6   15.90    2.40
  -1   7   6   17.60    1.70
  -1   7   6   22.00    1.60
  -1   7   6   18.80    1.60
   1  -6  -6   44.90    3.20
   1  -6  -6   47.00    3.20
   1  -6  -6   50.79    2.40
  -1   6   6   52.09    3.60
  -1   6   6   50.39    2.40
  -1   6   6   46.50    2.70
  -1   6   6   48.30    2.50
  -1   6   6   49.60    2.70
   1  -5  -6    1.00    0.40
   1  -5  -6    0.60    0.40
   1  -5  -6    1.60    0.50
   1  -5  -6    2.70    0.90
   1  -5  -6    0.70    0.70
  -1   5   6    0.50    0.40
  -1   5   6    1.30    0.60
  -1   5   6    0.50    0.40
  -1   5   6    1.20    0.50
  -1   5   6    0.70    0.30
  -1   5   6    0.80    0.70
   1  -4  -6    4.60    0.70
   1  -4  -6    5.30    1.10
   1  -4  -6    4.60    0.40
   1  -4  -6    3.40    0.60
   1  -4  -6    4.50    0.70
   1  -4  -6    4.60    1.00
   1  -4  -6    4.30    0.40
  -1   4   6    4.50    0.70
  -1   4   6    4.70    0.50
  -1   4   6    4.40    1.00
  -1   4   6    4.50    0.50
  -1   4   6    5.30    0.80
  -1   4   6    4.00    0.60
  -1   4   6    5.70    0.90
   1  -3  -6   65.19    3.70
   1  -3  -6   78.29    3.10
   1  -3  -6   74.29    2.70
   1  -3  -6   71.59    3.50
   1  -3  -6   73.59    3.00
   1  -3  -6   72.59    2.70
   1  -3  -6   76.59    3.00
   1  -3  -6   72.69    3.00
  -1   3   6   78.29    3.70
  -1   3   6   78.59    2.80
  -1   3   6   77.09    2.90
  -1   3   6   80.09    3.30
  -1   3   6   74.19    2.80
  -1   3   6   78.19    3.20
  -1   3   6   75.89    3.10
  -1   3   6   77.19    3.10
   1  -2  -6  118.09    4.40
   1  -2  -6  123.69    4.30
   1  -2  -6  124.79    4.70
   1  -2  -6  113.99    5.10
   1  -2  -6  123.69    4.30
   1  -2  -6  120.29    4.50
   1  -2  -6  119.69    4.90
   1  -2  -6  119.39    4.50
   1  -2  -6  118.49    4.50
  -1   2   6  122.89    4.60
  -1   2   6  121.19    4.60
  -1   2   6  124.19    4.40
  -1   2   6  131.49    4.60
  -1   2   6  123.29    4.60
  -1   2   6  132.29    5.10
  -1   2   6  121.89    4.40
   1  -1  -6  426.56   14.20
   1  -1  -6  423.56   14.20
   1  -1  -6  433.66   14.10
   1  -1  -6  439.96   14.10
   1  -1  -6  410.26   14.80
   1  -1  -6  431.56   14.50
   1  -1  -6  420.96   14.20
   1  -1  -6  385.86   14.30
  -1   1   6  442.86   14.30
  -1   1   6  474.95   14.70
  -1   1   6  413.26   14.20
  -1   1   6  404.16   14.30
  -1   1   6  439.16   14.20
  -1   1   6  444.36   14.20
   1   0  -6   44.60    2.00
   1   0  -6   43.50    1.90
   1   0  -6   43.40    2.00
   1   0  -6   43.90    1.90
   1   0  -6   44.40    1.90
   1   0  -6   44.00    1.90
   1   0  -6   42.20    2.30
  -1   0   6   48.40    2.30
  -1   0   6   46.30    1.70
  -1   0   6   46.60    2.20
  -1   0   6   44.20    2.00
  -1   0   6   45.10    2.00
  -1   0   6   43.10    1.90
  -1   0   6   40.90    1.90
   1   1  -6  144.79    5.20
   1   1  -6  144.09    5.20
   1   1  -6  146.49    5.30
   1   1  -6  141.89    5.10
   1   1  -6  156.98    5.70
   1   1  -6  136.09    5.20
   1   1  -6  148.59    5.20
   1   1  -6  144.29    5.30
  -1  -1   6  140.89    5.20
  -1  -1   6  150.08    5.30
  -1  -1   6  149.79    5.80
  -1  -1   6  144.79    4.80
  -1  -1   6  150.38    5.30
  -1  -1   6  149.88    4.90
  -1  -1   6  151.18    5.20
   1   2  -6   18.40    0.90
   1   2  -6   19.10    1.10
   1   2  -6   19.60    1.10
   1   2  -6   20.30    1.50
   1   2  -6   19.60    1.10
   1   2  -6   18.00    1.10
   1   2  -6   17.40    1.10
   1   2  -6   17.70    1.10
  -1  -2   6   15.80    1.50
  -1  -2   6   19.80    1.00
  -1  -2   6   19.60    1.10
  -1  -2   6   16.80    1.10
   1   3  -6    3.60    0.50
   1   3  -6    3.50    0.60
   1   3  -6    2.80    0.80
   1   3  -6    3.20    0.60
   1   3  -6    2.20    0.50
   1   3  -6    3.10    0.30
   1   3  -6    2.60    0.60
   1   3  -6    2.60    0.50
   1   3  -6    3.60    0.60
  -1  -3   6    3.30    0.90
  -1  -3   6    3.20    0.40
  -1  -3   6    3.80    0.60
  -1  -3   6    3.00    0.50
  -1  -3   6    3.10    0.50
   1   4  -6    2.30    0.40
   1   4  -6    2.60    0.50
   1   4  -6    3.60    0.60
   1   4  -6    3.60    0.70
   1   4  -6    3.20    0.60
   1   4  -6    3.90    0.70
   1   4  -6    2.00    0.50
   1   4  -6    2.60    0.50
  -1  -4   6    3.50    0.60
  -1  -4   6    3.40    1.00
  -1  -4   6    2.80    0.50
  -1  -4   6    4.20    0.70
   1   5  -6    1.10    0.50
   1   5  -6    0.70    0.40
   1   5  -6    1.40    0.50
   1   5  -6    0.50    0.30
   1   5  -6    0.50    0.40
  -1  -5   6    2.10    1.00
  -1  -5   6    1.20    0.40
  -1  -5   6    1.10    0.40
  -1  -5   6    1.80    0.50
   1   6  -6   30.50    1.70
   1   6  -6   28.10    1.60
   1   6  -6   28.50    1.90
   1   6  -6   30.80    1.80
  -1  -6   6   27.70    3.10
  -1  -6   6   32.30    1.60
   1   7  -6    8.60    1.10
   1   7  -6    9.60    1.10
   1   7  -6    5.50    1.00
  -1  -7   6    9.20    1.80
  -1  -7   6    7.60    1.70
   1   8  -6    1.50    0.60
   1   8  -6    0.50    0.60
   1   8  -6   -0.20    0.50
  -1  -8   6    0.60    1.00
  -1  -8   6   -0.50    0.60
   0  -9  -6    3.00    1.30
   0  -9  -6    1.30    1.10
   0   9   6   -0.30    0.80
   0   9   6    1.40    0.70
   0   9   6    0.70    0.50
   0  -8  -6    0.70    0.90
   0  -8  -6    0.40    1.00
   0   8   6    0.50    0.50
   0   8   6   -0.10    0.40
   0   8   6   -0.60    0.70
   0  -7  -6   16.60    2.20
   0  -7  -6   17.50    2.40
   0   7   6   18.60    1.50
   0   7   6   20.30    1.40
   0   7   6   18.70    1.60
   0   7   6   19.90    1.40
   0  -6  -6   91.79    3.80
   0  -6  -6   90.09    3.60
   0  -6  -6   85.89    4.50
   0  -6  -6   92.29    4.80
   0   6   6   92.99    3.80
   0   6   6   88.29    3.90
   0   6   6   95.19    3.70
   0   6   6   90.99    5.00
   0   6   6   89.29    4.00
   0  -5  -6    0.40    0.50
   0  -5  -6    0.70    0.30
   0  -5  -6    0.50    0.60
   0  -5  -6    0.20    0.20
   0  -5  -6    0.70    0.30
   0   5   6    0.70    0.20
   0   5   6    0.60    0.20
   0   5   6    0.30    0.50
   0   5   6    0.90    0.40
   0   5   6    0.10    0.30
   0   5   6    0.80    0.50
   0   5   6    0.40    0.60
   0   5   6    0.80    0.20
   0   5   6    0.60    0.30
   0  -4  -6  302.97   10.30
   0  -4  -6  270.17   11.40
   0  -4  -6  304.57   10.30
   0  -4  -6  304.77   10.00
   0  -4  -6  293.37   11.10
   0  -4  -6  304.67   11.10
   0   4   6  308.37   10.20
   0   4   6  301.67   10.50
   0   4   6  312.97   10.40
   0   4   6  303.67   10.50
   0   4   6  304.97   10.40
   0   4   6  309.77   10.00
   0   4   6  309.57   10.00
   0   4   6  320.57   11.50
   0  -3  -6   23.60    1.60
   0  -3  -6   20.80    1.10
   0  -3  -6   19.80    1.70
   0  -3  -6   20.50    1.20
   0  -3  -6   21.80    1.10
   0  -3  -6   20.50    1.00
   0  -3  -6   20.60    1.50
   0  -3  -6   21.30    1.00
   0   3   6   20.30    1.20
   0   3   6   17.10    1.20
   0   3   6   22.80    1.30
   0   3   6   21.90    1.20
   0   3   6   22.60    1.70
   0   3   6   20.20    1.00
   0   3   6   21.30    1.30
   0   3   6   21.60    1.00
   0  -2  -6    0.90    0.30
   0  -2  -6    0.70    0.40
   0  -2  -6    0.50    0.20
   0  -2  -6    0.90    0.30
   0  -2  -6    0.70    0.20
   0  -2  -6    0.50    0.30
   0  -2  -6    1.10    0.40
   0  -2  -6    0.80    0.30
   0  -2  -6    0.90    0.50
   0   2   6    1.60    0.40
   0   2   6    0.80    0.40
   0   2   6    1.30    0.40
   0   2   6    1.10    0.30
   0   2   6    0.30    0.20
   0   2   6    1.30    0.30
   0   2   6    0.80    0.30
   0   2   6    0.90    0.30
   0  -1  -6  138.29    5.00
   0  -1  -6  143.09    5.10
   0  -1  -6  136.59    5.00
   0  -1  -6  139.29    4.90
   0  -1  -6  142.79    5.10
   0  -1  -6  133.89    4.90
   0  -1  -6  134.19    5.50
   0  -1  -6  143.79    4.90
   0  -1  -6  154.38    5.20
   0   1   6  140.39    5.10
   0   1   6  139.39    4.90
   0   1   6  144.29    5.00
   0   1   6  148.09    5.50
   0   1   6  141.89    5.10
   0   1   6  138.39    5.00
   0   1   6  144.99    4.90
   0   0  -6   47.80    2.00
   0   0  -6   49.70    2.10
   0   0  -6   48.00    2.00
   0   0  -6   51.59    2.50
   0   0  -6   58.09    2.20
   0   0  -6   46.80    2.20
   0   0  -6   50.49    2.10
   0   0  -6   43.60    2.10
   0   0   6   50.79    2.10
   0   0   6   54.59    2.50
   0   0   6   51.49    2.50
   0   0   6   49.90    2.10
   0   0   6   52.49    2.00
   0   0   6   51.19    1.90
   0   0   6   51.19    2.20
   0   0   6   51.09    2.10
   0   1  -6    4.80    0.60
   0   1  -6    4.60    0.60
   0   1  -6    4.60    0.60
   0   1  -6    5.90    0.90
   0   1  -6    5.60    0.60
   0   1  -6    4.50    0.60
   0   1  -6    4.70    0.60
   0  -1   6    4.60    0.50
   0  -1   6    4.80    0.60
   0  -1   6    3.30    0.50
   0  -1   6    4.40    0.60
   0  -1   6    5.80    0.70
   0  -1   6    6.20    0.90
   0  -1   6    4.70    0.40
   0   2  -6  113.89    4.50
   0   2  -6  102.49    4.00
   0   2  -6  102.09    4.30
   0   2  -6  102.09    4.00
   0   2  -6  105.19    4.00
   0   2  -6  102.49    3.90
   0   2  -6  102.79    4.00
   0   2  -6  101.49    3.90
   0   2  -6  105.99    3.70
   0  -2   6  104.09    4.00
   0  -2   6  109.19    4.00
   0  -2   6  107.29    3.70
   0  -2   6  105.59    4.00
   0  -2   6  106.89    4.60
   0  -2   6  106.59    3.70
   0   3  -6   53.49    2.90
   0   3  -6   52.99    2.40
   0   3  -6   55.29    2.10
   0   3  -6   54.69    2.30
   0   3  -6   54.19    2.40
   0   3  -6   52.79    2.40
   0   3  -6   51.19    2.40
   0   3  -6   49.99    2.20
   0  -3   6   52.89    2.10
   0  -3   6   54.29    2.30
   0  -3   6   52.29    3.00
   0  -3   6   51.79    1.90
   0  -3   6   53.39    2.40
   0   4  -6    2.30    0.60
   0   4  -6    1.40    0.50
   0   4  -6    2.70    0.60
   0   4  -6    1.60    0.40
   0   4  -6    1.70    0.50
   0   4  -6    0.60    0.40
   0  -4   6    1.30    0.80
   0  -4   6    1.70    0.50
   0  -4   6    1.50    0.40
   0  -4   6    2.00    0.50
   0   5  -6   81.19    3.20
   0   5  -6   80.59    3.60
   0   5  -6   78.19    3.40
   0   5  -6   83.29    3.30
   0   5  -6   70.29    3.50
   0  -5   6   78.29    3.30
   0  -5   6   84.39    3.40
   0  -5   6   72.49    4.20
   0   6  -6   38.60    1.90
   0   6  -6   33.10    2.00
   0   6  -6   38.00    1.90
   0   6  -6   35.10    2.20
   0  -6   6   35.30    1.70
   0  -6   6   38.90    3.00
   0   7  -6    2.50    0.60
   0   7  -6    2.40    0.80
   0   7  -6    2.80    0.70
   0   7  -6    4.30    1.10
   0  -7   6    1.70    1.10
   0  -7   6    1.70    1.00
  -1  -9  -6   11.90    2.30
  -1  -9  -6   14.80    2.30
   1   9   6   12.10    1.30
   1   9   6   11.50    1.40
   1   9   6   12.20    1.80
  -1  -8  -6    4.80    1.30
  -1  -8  -6    5.80    1.40
   1   8   6    5.30    1.20
   1   8   6    6.90    1.10
   1   8   6    6.00    0.90
  -1  -7  -6   -0.40    0.50
  -1  -7  -6   -1.00    0.60
  -1  -7  -6   -0.20    0.30
   1   7   6   -0.20    0.50
   1   7   6    0.00    0.40
   1   7   6    0.00    0.40
   1   7   6    0.20    0.30
  -1  -6  -6   45.90    3.10
  -1  -6  -6   52.59    3.10
  -1  -6  -6   52.79    2.30
  -1  -6  -6   54.59    2.50
   1   6   6   55.89    2.40
   1   6   6   52.79    2.70
   1   6   6   56.79    2.60
   1   6   6   56.39    2.50
   1   6   6   51.79    3.50
  -1  -5  -6   49.90    2.80
  -1  -5  -6   49.70    2.90
  -1  -5  -6   45.00    3.10
  -1  -5  -6   50.29    2.20
  -1  -5  -6   49.30    2.10
   1   5   6   49.80    2.20
   1   5   6   51.69    2.30
   1   5   6   51.59    1.80
   1   5   6   48.60    3.10
   1   5   6   46.40    2.40
   1   5   6   50.19    2.10
   1   5   6   50.09    2.20
   1   5   6   49.40    1.80
  -1  -4  -6   77.09    3.00
  -1  -4  -6   79.59    3.00
  -1  -4  -6   73.69    3.60
  -1  -4  -6   76.29    3.50
  -1  -4  -6   76.09    3.00
  -1  -4  -6   69.79    3.90
  -1  -4  -6   78.29    2.90
   1   4   6   78.59    2.90
   1   4   6   80.69    2.80
   1   4   6   79.29    3.20
   1   4   6   78.89    3.90
   1   4   6   77.29    3.00
   1   4   6   76.89    3.10
   1   4   6   78.79    3.10
   1   4   6   74.29    3.00
   1   4   6   79.99    2.80
  -1  -3  -6   15.50    0.90
  -1  -3  -6   13.00    0.80
  -1  -3  -6   15.20    0.80
  -1  -3  -6   14.70    0.90
  -1  -3  -6   13.10    1.40
  -1  -3  -6   14.40    1.20
  -1  -3  -6   13.70    1.20
   1   3   6   14.10    0.90
   1   3   6   15.30    1.30
   1   3   6   15.80    0.80
   1   3   6   14.90    1.00
   1   3   6   14.40    0.90
   1   3   6   16.30    0.80
   1   3   6   16.20    0.90
   1   3   6   14.60    0.90
  -1  -2  -6   63.39    2.80
  -1  -2  -6   65.09    2.60
  -1  -2  -6   67.19    2.60
  -1  -2  -6   65.29    2.50
  -1  -2  -6   65.59    2.30
  -1  -2  -6   63.39    2.60
  -1  -2  -6   61.89    3.20
  -1  -2  -6   63.29    2.50
  -1  -2  -6   66.19    2.60
   1   2   6   69.39    2.50
   1   2   6   68.59    2.50
   1   2   6   69.19    2.50
   1   2   6   67.79    2.60
   1   2   6   65.29    2.70
   1   2   6   64.79    2.60
   1   2   6   71.49    3.20
   1   2   6   66.79    2.60
  -1  -1  -6   34.40    1.50
  -1  -1  -6   31.30    1.30
  -1  -1  -6   32.80    1.50
  -1  -1  -6   32.20    1.40
  -1  -1  -6   32.30    1.50
  -1  -1  -6   34.10    1.40
  -1  -1  -6   32.00    1.90
  -1  -1  -6   31.40    1.50
  -1  -1  -6   29.50    1.40
   1   1   6   31.90    1.40
   1   1   6   29.90    1.40
   1   1   6   26.80    1.40
   1   1   6   34.50    1.70
   1   1   6   29.40    1.50
   1   1   6   35.10    1.50
   1   1   6   30.20    1.40
   1   1   6   31.20    1.50
   1   1   6   32.20    1.80
  -1   0  -6   14.90    1.20
  -1   0  -6   15.20    0.80
  -1   0  -6   13.90    0.80
  -1   0  -6   12.60    0.80
  -1   0  -6   13.90    0.90
  -1   0  -6   13.00    0.80
  -1   0  -6   12.80    0.90
  -1   0  -6   13.20    0.90
   1   0   6   12.50    0.90
   1   0   6   13.50    1.10
   1   0   6   15.60    1.10
   1   0   6   14.10    0.80
   1   0   6   13.40    0.90
   1   0   6   13.90    0.80
   1   0   6   14.30    0.80
   1   0   6   13.70    0.70
   1   0   6   12.90    0.90
  -1   1  -6   37.90    1.60
  -1   1  -6   40.00    2.20
  -1   1  -6   37.80    1.80
  -1   1  -6   38.30    1.70
  -1   1  -6   36.90    1.70
  -1   1  -6   34.20    1.80
  -1   1  -6   38.10    1.80
  -1   1  -6   37.80    1.70
   1  -1   6   37.80    2.10
   1  -1   6   36.70    1.50
   1  -1   6   38.70    1.60
   1  -1   6   36.80    1.80
   1  -1   6   39.10    1.70
   1  -1   6   37.30    1.50
   1  -1   6   40.50    1.80
   1  -1   6   35.00    1.80
  -1   2  -6   29.30    1.60
  -1   2  -6   31.50    2.00
  -1   2  -6   30.00    1.60
  -1   2  -6   28.50    1.50
  -1   2  -6   30.40    1.50
  -1   2  -6   30.00    1.50
  -1   2  -6   31.30    1.40
  -1   2  -6   27.00    1.60
   1  -2   6   29.90    1.40
   1  -2   6   32.20    1.60
   1  -2   6   30.50    1.20
   1  -2   6   29.80    1.20
   1  -2   6   30.30    2.00
   1  -2   6   28.20    1.50
   1  -2   6   30.20    1.50
  -1   3  -6    8.20    1.00
  -1   3  -6    9.60    1.00
  -1   3  -6    9.30    0.80
  -1   3  -6    8.80    0.80
  -1   3  -6    6.60    1.10
  -1   3  -6    7.00    0.80
  -1   3  -6    6.70    0.80
   1  -3   6   10.10    1.00
   1  -3   6    8.90    0.70
   1  -3   6    7.70    1.20
   1  -3   6    7.20    0.90
   1  -3   6    8.00    0.40
   1  -3   6    9.10    0.80
  -1   4  -6   21.50    1.30
  -1   4  -6   21.10    1.30
  -1   4  -6   22.50    1.50
  -1   4  -6   20.60    0.90
  -1   4  -6   22.40    1.60
  -1   4  -6   22.60    1.50
   1  -4   6   20.40    1.30
   1  -4   6   24.70    2.10
   1  -4   6   22.60    1.40
   1  -4   6   22.90    1.30
  -1   5  -6    5.40    0.90
  -1   5  -6    5.00    0.90
  -1   5  -6    4.70    0.80
  -1   5  -6    6.50    0.80
   1  -5   6    5.80    0.90
   1  -5   6    3.20    1.10
   1  -5   6    4.00    0.60
  -1   6  -6    0.70    0.60
  -1   6  -6    0.50    0.50
  -1   6  -6    1.60    0.70
  -1   6  -6   -0.10    0.40
   1  -6   6    1.00    0.80
  -1   7  -6    0.90    0.70
  -1   7  -6    0.10    0.50
  -1   7  -6    1.20    0.70
   1  -7   6    0.60    0.90
   1  -7   6   -0.20    0.90
  -2  -9  -6   10.10    2.00
  -2  -9  -6   11.20    2.00
   2   9   6   10.70    1.30
   2   9   6   11.00    1.60
   2   9   6   10.60    1.10
  -2  -8  -6   10.40    1.80
  -2  -8  -6    9.80    1.70
   2   8   6   12.10    1.20
   2   8   6    9.00    1.10
   2   8   6   12.80    1.00
   2   8   6   12.60    1.60
  -2  -7  -6   90.09    3.90
  -2  -7  -6   88.39    4.80
  -2  -7  -6   88.99    4.60
   2   7   6  102.59    4.00
   2   7   6   99.09    4.30
   2   7   6   99.29    3.90
   2   7   6   99.39    3.80
   2   7   6   98.19    5.40
  -2  -6  -6   15.40    0.90
  -2  -6  -6   14.30    1.00
  -2  -6  -6   14.00    1.60
  -2  -6  -6   14.50    1.90
   2   6   6   13.40    1.00
   2   6   6   12.60    1.20
   2   6   6   16.20    1.00
   2   6   6   13.90    1.00
   2   6   6   14.90    0.70
   2   6   6   14.30    1.00
   2   6   6   15.20    1.00
   2   6   6   15.10    0.70
   2   6   6   15.30    1.80
  -2  -5  -6   11.70    1.50
  -2  -5  -6   11.80    1.80
  -2  -5  -6   13.20    0.80
  -2  -5  -6   12.80    0.80
  -2  -5  -6   10.90    1.30
  -2  -5  -6   12.80    0.80
  -2  -5  -6   12.40    0.90
   2   5   6   12.50    0.90
   2   5   6   13.10    0.70
   2   5   6   13.90    0.90
   2   5   6   11.90    0.80
   2   5   6   13.50    0.70
   2   5   6   12.90    0.80
   2   5   6   13.10    1.50
   2   5   6   12.40    0.80
   2   5   6   14.40    1.10
  -2  -4  -6   51.19    2.70
  -2  -4  -6   48.80    3.00
  -2  -4  -6   53.29    2.20
  -2  -4  -6   53.99    2.10
  -2  -4  -6   50.99    2.60
  -2  -4  -6   56.29    2.20
  -2  -4  -6   54.19    2.10
   2   4   6   52.69    3.00
   2   4   6   55.89    2.30
   2   4   6   52.49    2.30
   2   4   6   54.79    2.00
   2   4   6   54.09    2.20
   2   4   6   55.19    2.10
   2   4   6   52.79    2.10
   2   4   6   55.59    2.20
   2   4   6   52.19    2.20
  -2  -3  -6   45.20    1.60
  -2  -3  -6   45.00    1.80
  -2  -3  -6   45.10    1.90
  -2  -3  -6   46.20    1.90
  -2  -3  -6   42.80    1.90
  -2  -3  -6   44.90    2.30
  -2  -3  -6   40.10    2.50
   2   3   6   47.90    1.90
   2   3   6   46.10    1.90
   2   3   6   46.80    2.50
   2   3   6   45.30    1.80
   2   3   6   42.30    1.90
   2   3   6   46.20    1.80
   2   3   6   44.00    1.90
   2   3   6   47.00    1.90
  -2  -2  -6  215.48    7.20
  -2  -2  -6  209.88    7.30
  -2  -2  -6  210.78    7.30
  -2  -2  -6  213.08    7.60
  -2  -2  -6  209.48    6.90
  -2  -2  -6  204.38    8.00
  -2  -2  -6  216.78    7.40
  -2  -2  -6  207.38    7.30
   2   2   6  213.98    7.40
   2   2   6  212.28    7.30
   2   2   6  220.38    7.40
   2   2   6  227.28    7.20
   2   2   6  204.48    7.40
   2   2   6  215.48    7.30
   2   2   6  226.68    7.30
   2   2   6  231.48    8.00
  -2  -1  -6   27.70    1.20
  -2  -1  -6   27.90    1.30
  -2  -1  -6   27.90    1.40
  -2  -1  -6   27.40    1.40
  -2  -1  -6   26.60    1.70
  -2  -1  -6   26.10    1.00
  -2  -1  -6   27.50    1.30
  -2  -1  -6   28.40    1.20
  -2  -1  -6   27.00    1.40
   2   1   6   27.00    1.40
   2   1   6   27.00    1.30
   2   1   6   26.00    1.30
   2   1   6   27.80    1.40
   2   1   6   27.70    1.40
   2   1   6   30.00    1.40
   2   1   6   26.50    1.30
   2   1   6   26.70    1.30
   2   1   6   27.60    1.70
  -2   0  -6    5.40    0.60
  -2   0  -6    5.40    0.70
  -2   0  -6    5.30    0.40
  -2   0  -6    6.10    1.00
  -2   0  -6    4.80    0.60
  -2   0  -6    4.50    0.60
  -2   0  -6    6.90    0.80
  -2   0  -6    5.40    0.50
   2   0   6    6.10    0.50
   2   0   6    5.00    0.70
   2   0   6    5.60    0.80
   2   0   6    6.30    0.60
   2   0   6    6.40    0.70
   2   0   6    7.10    0.90
   2   0   6    5.80    0.70
   2   0   6    5.80    0.60
  -2   1  -6   50.49    2.10
  -2   1  -6   54.49    2.50
  -2   1  -6   53.69    2.40
  -2   1  -6   53.69    2.40
  -2   1  -6   56.59    2.80
  -2   1  -6   50.29    2.20
  -2   1  -6   54.99    2.10
   2  -1   6   55.49    2.60
   2  -1   6   50.19    2.40
   2  -1   6   50.89    2.00
   2  -1   6   52.59    2.20
   2  -1   6   52.39    2.30
   2  -1   6   52.79    2.20
   2  -1   6   55.79    2.40
  -2   2  -6   12.10    1.30
  -2   2  -6   12.20    0.70
  -2   2  -6   10.60    0.90
  -2   2  -6   11.40    1.20
  -2   2  -6    9.70    1.00
  -2   2  -6   11.90    0.70
  -2   2  -6   10.20    1.00
  -2   2  -6   11.00    0.90
   2  -2   6   11.40    0.70
   2  -2   6   10.70    0.90
   2  -2   6    9.20    1.00
   2  -2   6   11.40    1.00
   2  -2   6   11.90    0.90
   2  -2   6   13.40    1.50
   2  -2   6   10.50    0.80
  -2   3  -6   14.40    1.20
  -2   3  -6   14.60    1.40
  -2   3  -6   13.70    1.00
  -2   3  -6   13.50    0.80
  -2   3  -6   15.60    1.20
  -2   3  -6   15.20    1.20
  -2   3  -6   13.10    0.80
  -2   3  -6   15.00    1.10
   2  -3   6   13.60    1.10
   2  -3   6   13.60    0.80
   2  -3   6   11.30    1.00
   2  -3   6   14.80    1.10
   2  -3   6   16.60    1.50
   2  -3   6   14.20    0.60
   2  -3   6   14.30    0.60
   2  -3   6   14.00    1.00
   2  -3   6   17.10    1.20
  -2   4  -6    0.90    0.50
  -2   4  -6    0.50    0.30
  -2   4  -6   -0.20    0.40
  -2   4  -6    0.10    0.40
  -2   4  -6   -0.10    0.20
  -2   4  -6   -0.20    0.30
  -2   4  -6   -0.40    0.40
   2  -4   6    0.10    0.30
   2  -4   6    0.50    0.40
   2  -4   6    0.20    0.30
   2  -4   6    0.50    0.60
   2  -4   6   -0.40    0.20
  -2   5  -6    0.50    0.40
  -2   5  -6    0.20    0.40
  -2   5  -6    0.00    0.50
  -2   5  -6    0.70    0.50
   2  -5   6    0.20    0.60
   2  -5   6    0.00    0.40
   2  -5   6    0.30    0.30
  -2   6  -6    4.00    1.00
  -2   6  -6    4.60    1.10
  -2   6  -6    3.90    0.90
   2  -6   6    3.80    1.20
   2  -6   6    6.70    1.70
  -2   7  -6    8.20    1.40
  -2   7  -6    9.10    1.50
  -2   7  -6    9.80    1.60
   2  -7   6    7.50    1.80
   2  -7   6    5.00    1.60
  -3 -10  -6    4.70    1.50
  -3 -10  -6    5.20    1.40
   3  10   6    5.50    0.70
   3  10   6    5.60    1.30
   3  10   6    5.60    0.90
  -3  -9  -6    0.10    0.70
  -3  -9  -6    0.10    0.70
   3   9   6    0.50    0.30
   3   9   6    0.20    0.40
   3   9   6   -0.70    0.50
  -3  -8  -6   17.40    2.30
  -3  -8  -6   13.30    1.80
  -3  -8  -6   14.80    1.20
   3   8   6   19.50    1.30
   3   8   6   16.70    1.30
   3   8   6   16.00    1.50
   3   8   6   16.10    1.10
  -3  -7  -6   10.00    1.60
  -3  -7  -6    8.70    1.40
  -3  -7  -6    9.80    1.00
  -3  -7  -6    8.20    0.90
   3   7   6    9.80    0.60
   3   7   6    8.00    1.10
   3   7   6   10.10    1.90
   3   7   6   10.40    0.80
   3   7   6    9.70    1.00
   3   7   6    9.50    0.90
   3   7   6    9.20    0.70
  -3  -6  -6   15.60    1.80
  -3  -6  -6   18.70    1.70
  -3  -6  -6   15.30    1.10
  -3  -6  -6   13.10    1.50
  -3  -6  -6   16.80    0.90
  -3  -6  -6   16.10    1.00
   3   6   6   17.10    1.10
   3   6   6   17.80    1.00
   3   6   6   18.40    1.00
   3   6   6   16.80    1.30
   3   6   6   16.60    0.90
   3   6   6   17.10    1.00
   3   6   6   16.50    1.00
   3   6   6   16.90    1.80
  -3  -5  -6   36.40    1.50
  -3  -5  -6   41.00    2.20
  -3  -5  -6   33.80    2.20
  -3  -5  -6   31.80    2.50
  -3  -5  -6   35.60    1.50
  -3  -5  -6   35.20    1.70
  -3  -5  -6   38.00    1.50
   3   5   6   37.40    2.60
   3   5   6   36.10    1.60
   3   5   6   36.60    1.60
   3   5   6   38.50    1.80
   3   5   6   38.40    1.70
   3   5   6   38.10    1.50
   3   5   6   37.90    1.60
   3   5   6   37.20    1.60
  -3  -4  -6   33.40    1.50
  -3  -4  -6   32.40    1.30
  -3  -4  -6   33.40    2.00
  -3  -4  -6   33.10    1.60
  -3  -4  -6   29.50    2.20
  -3  -4  -6   32.50    1.60
  -3  -4  -6   33.30    1.40
   3   4   6   32.90    1.50
   3   4   6   35.70    2.30
   3   4   6   33.50    1.50
   3   4   6   35.60    1.50
   3   4   6   34.00    1.60
   3   4   6   33.90    1.20
   3   4   6   33.30    1.50
  -3  -3  -6   97.49    4.60
  -3  -3  -6  104.89    3.90
  -3  -3  -6  102.39    3.80
  -3  -3  -6  102.09    3.80
  -3  -3  -6   98.09    3.70
  -3  -3  -6  109.29    4.30
   3   3   6  109.49    3.80
   3   3   6  111.49    4.60
   3   3   6  111.19    3.70
   3   3   6  106.69    3.90
   3   3   6  104.09    3.90
   3   3   6  100.69    4.00
   3   3   6  101.69    3.80
  -3  -2  -6  140.49    5.10
  -3  -2  -6  139.89    5.00
  -3  -2  -6  145.29    5.40
  -3  -2  -6  142.29    5.80
  -3  -2  -6  135.29    4.80
   3   2   6  143.99    5.10
   3   2   6  150.88    5.70
   3   2   6  143.59    5.20
   3   2   6  143.89    5.10
   3   2   6  142.39    5.20
   3   2   6  149.09    5.10
   3   2   6  139.79    5.10
   3   2   6  144.59    5.20
  -3  -1  -6    1.20    0.20
  -3  -1  -6    1.60    0.40
  -3  -1  -6    1.10    0.40
  -3  -1  -6    2.20    0.50
  -3  -1  -6    1.10    0.30
  -3  -1  -6    1.30    0.20
  -3  -1  -6    1.60    0.50
   3   1   6    1.50    0.30
   3   1   6    1.50    0.40
   3   1   6    0.80    0.40
   3   1   6    0.80    0.30
   3   1   6    0.70    0.30
   3   1   6    0.70    0.30
   3   1   6    1.60    0.40
   3   1   6    1.30    0.40
  -3   0  -6    3.30    0.40
  -3   0  -6    3.10    0.60
  -3   0  -6    4.10    0.60
  -3   0  -6    3.20    0.70
  -3   0  -6    4.30    0.50
   3   0   6    3.70    0.50
   3   0   6    4.40    0.70
   3   0   6    4.10    0.60
   3   0   6    3.70    0.50
   3   0   6    2.30    0.50
   3   0   6    3.00    0.60
   3   0   6    2.60    0.50
   3   0   6    3.90    0.40
  -3   1  -6    2.40    0.50
  -3   1  -6    2.10    0.40
  -3   1  -6    2.20    0.40
  -3   1  -6    2.10    0.40
  -3   1  -6    2.90    0.60
  -3   1  -6    3.00    0.70
  -3   1  -6    2.10    0.70
   3  -1   6    2.10    0.40
   3  -1   6    1.60    0.50
   3  -1   6    1.80    0.50
   3  -1   6    1.70    0.40
   3  -1   6    2.80    0.50
   3  -1   6    1.50    0.50
   3  -1   6    2.40    0.50
   3  -1   6    2.20    0.60
  -3   2  -6  238.08    7.90
  -3   2  -6  233.48    7.90
  -3   2  -6  229.08    8.50
  -3   2  -6  241.48    8.40
  -3   2  -6  230.38    8.30
  -3   2  -6  252.17    8.90
  -3   2  -6  219.88    8.00
  -3   2  -6  218.88    8.10
   3  -2   6  225.68    8.60
   3  -2   6  231.58    7.90
   3  -2   6  238.78    8.10
   3  -2   6  237.28    8.10
   3  -2   6  229.38    8.40
   3  -2   6  232.28    8.30
   3  -2   6  223.08    8.10
   3  -2   6  230.08    7.90
  -3   3  -6  287.57   11.70
  -3   3  -6  242.98    9.20
  -3   3  -6  247.08    9.30
  -3   3  -6  265.77    9.00
  -3   3  -6  250.47    9.40
  -3   3  -6  268.47    9.00
  -3   3  -6  263.77    9.60
   3  -3   6  254.67    8.90
   3  -3   6  266.57    8.70
   3  -3   6  259.37    9.20
   3  -3   6  256.97    9.50
   3  -3   6  280.77    9.10
   3  -3   6  262.97    9.40
   3  -3   6  279.57    9.40
   3  -3   6  254.87    9.90
  -3   4  -6    0.40    0.50
  -3   4  -6    0.00    0.40
  -3   4  -6    0.00    0.40
  -3   4  -6    0.30    0.40
  -3   4  -6   -0.60    0.20
   3  -4   6   -0.60    0.40
   3  -4   6    0.00    0.40
   3  -4   6    0.00    0.60
   3  -4   6   -0.10    0.30
   3  -4   6   -0.10    0.20
  -3   5  -6    9.60    1.00
  -3   5  -6    9.40    1.40
  -3   5  -6    9.30    1.40
  -3   5  -6   10.30    1.40
   3  -5   6    9.60    1.70
   3  -5   6    8.70    1.30
  -3   6  -6    7.30    1.30
  -3   6  -6    8.60    1.40
  -3   6  -6    8.70    1.50
   3  -6   6    8.30    1.70
   3  -6   6    8.80    2.00
  -4 -10  -6    9.20    1.70
  -4 -10  -6    7.80    1.70
   4  10   6    7.70    0.90
   4  10   6    8.80    1.50
   4  10   6    8.80    0.90
  -4  -9  -6    2.40    1.10
  -4  -9  -6    2.40    1.00
   4   9   6    3.60    1.00
   4   9   6    3.40    0.60
   4   9   6    3.00    0.50
  -4  -8  -6   33.30    1.80
  -4  -8  -6   30.00    2.60
  -4  -8  -6   35.30    2.40
   4   8   6   30.50    1.60
   4   8   6   33.50    1.80
   4   8   6   31.70    1.50
   4   8   6   30.20    2.00
  -4  -7  -6    8.10    1.20
  -4  -7  -6    9.20    1.00
  -4  -7  -6    9.00    1.60
   4   7   6   10.50    1.80
   4   7   6    8.90    0.70
   4   7   6    9.10    0.70
   4   7   6    7.40    1.00
   4   7   6    8.50    0.90
   4   7   6    8.90    0.70
  -4  -6  -6    0.00    0.30
  -4  -6  -6    0.30    0.20
  -4  -6  -6    0.10    0.50
  -4  -6  -6    0.10    0.40
  -4  -6  -6   -0.40    0.50
   4   6   6   -0.30    0.50
   4   6   6    0.40    0.20
   4   6   6    0.30    0.20
   4   6   6    0.30    0.20
   4   6   6    0.00    0.20
   4   6   6    0.00    0.30
   4   6   6    0.20    0.20
  -4  -5  -6    0.10    0.20
  -4  -5  -6    0.80    0.40
  -4  -5  -6    0.60    0.50
  -4  -5  -6    0.10    0.40
   4   5   6    0.00    0.40
   4   5   6    0.00    0.20
   4   5   6    0.40    0.20
   4   5   6    0.30    0.30
   4   5   6    0.20    0.20
   4   5   6    0.00    0.20
   4   5   6    0.10    0.20
  -4  -4  -6   43.80    2.80
  -4  -4  -6   47.70    2.00
  -4  -4  -6   49.99    2.20
  -4  -4  -6   48.60    2.00
  -4  -4  -6   50.49    2.70
   4   4   6   51.79    2.00
   4   4   6   49.80    2.00
   4   4   6   49.70    2.10
   4   4   6   50.49    2.30
   4   4   6   51.59    2.40
   4   4   6   51.99    2.80
   4   4   6   50.39    2.00
   4   4   6   46.70    2.00
  -4  -3  -6    0.90    0.40
  -4  -3  -6    0.80    0.50
  -4  -3  -6    1.20    0.30
  -4  -3  -6    0.50    0.30
  -4  -3  -6    1.40    0.40
   4   3   6    1.00    0.30
   4   3   6    0.70    0.30
   4   3   6    1.00    0.30
   4   3   6    2.00    0.50
   4   3   6    1.50    0.60
   4   3   6    1.30    0.40
   4   3   6    1.20    0.40
   4   3   6    1.20    0.20
  -4  -2  -6   75.99    3.00
  -4  -2  -6   71.79    3.10
  -4  -2  -6   70.49    2.90
  -4  -2  -6   74.19    2.90
  -4  -2  -6   70.19    3.50
   4   2   6   69.79    3.00
   4   2   6   70.79    3.00
   4   2   6   73.49    3.00
   4   2   6   77.09    2.90
   4   2   6   72.39    2.90
   4   2   6   78.49    3.40
   4   2   6   72.09    3.00
  -4  -1  -6    1.60    0.40
  -4  -1  -6    2.00    0.40
  -4  -1  -6    2.10    0.50
  -4  -1  -6    1.90    0.20
  -4  -1  -6    1.60    0.60
  -4  -1  -6    1.10    0.40
   4   1   6    1.40    0.50
   4   1   6    1.10    0.40
   4   1   6    1.70    0.40
   4   1   6    2.30    0.50
   4   1   6    1.60    0.20
   4   1   6    1.30    0.50
   4   1   6    2.50    0.50
  -4   0  -6    1.50    0.30
  -4   0  -6    2.00    0.40
  -4   0  -6    1.40    0.60
  -4   0  -6    1.40    0.40
  -4   0  -6    1.20    0.30
  -4   0  -6    1.30    0.50
  -4   0  -6    0.70    0.40
   4   0   6    1.00    0.40
   4   0   6    1.80    0.50
   4   0   6    1.80    0.50
   4   0   6    2.10    0.50
   4   0   6    1.70    0.40
   4   0   6    2.00    0.50
   4   0   6    2.80    0.60
   4   0   6    1.80    0.30
  -4   1  -6    6.00    0.70
  -4   1  -6    4.60    0.60
  -4   1  -6    3.80    0.80
  -4   1  -6    4.50    0.60
  -4   1  -6    4.60    0.60
  -4   1  -6    6.30    1.10
  -4   1  -6    6.00    0.90
   4  -1   6    4.30    0.60
   4  -1   6    7.10    0.90
   4  -1   6    5.70    0.70
   4  -1   6    6.00    0.90
   4  -1   6    4.70    0.80
   4  -1   6    4.20    0.70
   4  -1   6    4.80    0.70
   4  -1   6    5.10    0.60
   4  -1   6    6.10    0.90
  -4   2  -6  503.55   17.30
  -4   2  -6  540.75   17.40
  -4   2  -6  492.15   17.80
  -4   2  -6  525.55   17.30
  -4   2  -6  474.75   17.30
  -4   2  -6  502.35   17.70
  -4   2  -6  575.34   18.30
   4  -2   6  559.14   17.50
   4  -2   6  523.25   17.20
   4  -2   6  515.55   17.20
   4  -2   6  512.45   17.90
   4  -2   6  539.05   17.80
   4  -2   6  525.75   17.30
   4  -2   6  520.15   17.70
   4  -2   6  509.45   17.50
  -4   3  -6    0.30    0.30
  -4   3  -6   -0.30    0.40
  -4   3  -6    0.70    0.50
  -4   3  -6    0.20    0.50
  -4   3  -6    0.10    0.40
  -4   3  -6    0.00    0.50
   4  -3   6    0.30    0.50
   4  -3   6    0.40    0.30
   4  -3   6   -0.20    0.40
   4  -3   6    0.80    0.50
   4  -3   6    1.00    0.60
   4  -3   6    0.80    0.30
   4  -3   6    0.50    0.40
   4  -3   6    0.30    0.50
  -4   4  -6    6.10    1.20
  -4   4  -6    9.70    1.30
  -4   4  -6    7.20    0.90
  -4   4  -6    6.50    1.00
   4  -4   6    7.00    1.10
   4  -4   6    8.30    1.00
   4  -4   6    7.50    1.30
   4  -4   6    6.60    1.00
  -4   5  -6    1.00    0.50
  -4   5  -6    1.60    0.80
  -4   5  -6    2.30    0.80
  -4   5  -6    0.10    0.50
   4  -5   6    1.00    0.70
  -5 -10  -6   10.30    1.90
  -5 -10  -6   17.30    2.20
   5  10   6   15.30    1.00
   5  10   6   12.20    1.70
  -5  -9  -6    9.30    1.80
  -5  -9  -6   10.00    1.10
  -5  -9  -6    9.80    1.50
   5   9   6   11.60    1.40
   5   9   6    9.40    0.70
   5   9   6    9.30    0.80
  -5  -8  -6   23.30    2.20
  -5  -8  -6   23.10    1.80
  -5  -8  -6   24.70    1.50
   5   8   6   24.90    1.30
   5   8   6   25.80    1.70
   5   8   6   24.70    1.10
   5   8   6   23.70    1.70
   5   8   6   23.70    1.30
  -5  -7  -6    5.00    0.80
  -5  -7  -6    5.80    1.30
  -5  -7  -6    6.00    1.10
   5   7   6    6.30    0.90
   5   7   6    6.30    0.60
   5   7   6    5.40    0.70
   5   7   6    5.40    0.50
   5   7   6    5.80    1.30
   5   7   6    5.80    0.90
   5   7   6    5.50    0.60
  -5  -6  -6    8.40    1.50
  -5  -6  -6   11.80    1.10
  -5  -6  -6    8.00    1.40
   5   6   6   10.10    0.70
   5   6   6   11.50    1.20
   5   6   6   10.10    1.60
   5   6   6    9.40    0.70
   5   6   6    9.60    1.20
   5   6   6    8.70    0.70
   5   6   6    9.60    0.60
   5   6   6    8.50    0.80
  -5  -5  -6    6.80    1.30
  -5  -5  -6   10.20    1.40
  -5  -5  -6    7.80    0.90
   5   5   6    8.30    1.30
   5   5   6    9.00    0.60
   5   5   6    9.30    1.00
   5   5   6    8.70    0.50
   5   5   6    7.90    0.70
   5   5   6    9.40    0.60
   5   5   6    7.40    0.60
   5   5   6    8.80    1.10
   5   5   6    7.90    0.70
  -5  -4  -6   18.30    1.00
  -5  -4  -6   17.40    1.10
  -5  -4  -6   16.60    0.90
  -5  -4  -6   16.20    1.40
  -5  -4  -6   14.90    1.60
   5   4   6   18.30    1.10
   5   4   6   17.60    1.00
   5   4   6   17.10    1.20
   5   4   6   19.70    1.60
   5   4   6   16.70    1.20
   5   4   6   17.40    1.00
   5   4   6   18.00    0.80
   5   4   6   15.40    1.00
  -5  -3  -6   13.80    0.90
  -5  -3  -6   13.70    1.00
  -5  -3  -6   14.50    1.20
  -5  -3  -6   13.50    0.90
  -5  -3  -6   13.20    1.40
   5   3   6   14.00    0.90
   5   3   6   15.10    1.30
   5   3   6   15.00    1.10
   5   3   6   13.60    1.00
   5   3   6   13.70    1.00
   5   3   6   13.70    1.10
   5   3   6   13.00    0.90
  -5  -2  -6    5.60    0.70
  -5  -2  -6    8.10    0.90
  -5  -2  -6    6.10    0.70
  -5  -2  -6    6.40    1.10
   5   2   6    7.40    0.90
   5   2   6    7.20    0.80
   5   2   6    8.10    0.90
   5   2   6    7.30    0.90
   5   2   6    7.20    0.90
   5   2   6    7.90    0.90
   5   2   6    6.50    0.40
   5   2   6    8.40    0.90
  -5  -1  -6    0.50    0.30
  -5  -1  -6    0.10    0.50
  -5  -1  -6    0.50    0.40
  -5  -1  -6    1.10    0.40
  -5  -1  -6    0.40    0.30
   5   1   6    0.60    0.20
   5   1   6    0.50    0.40
   5   1   6    0.50    0.30
   5   1   6    0.20    0.30
   5   1   6    0.70    0.40
   5   1   6    1.80    0.50
  -5   0  -6    0.40    0.40
  -5   0  -6    0.90    0.30
  -5   0  -6    0.00    0.30
  -5   0  -6    0.90    0.40
  -5   0  -6    0.40    0.20
  -5   0  -6    0.50    0.40
  -5   0  -6    0.30    0.50
   5   0   6    0.10    0.30
   5   0   6    0.80    0.40
   5   0   6    0.20    0.30
   5   0   6    0.30    0.40
   5   0   6    0.00    0.30
   5   0   6    0.60    0.30
   5   0   6   -0.40    0.30
  -5   1  -6   81.99    3.40
  -5   1  -6   81.49    3.10
  -5   1  -6   82.99    3.50
  -5   1  -6   81.69    3.70
  -5   1  -6   83.79    3.30
  -5   1  -6   90.39    3.90
  -5   1  -6   87.69    4.00
   5  -1   6   84.69    3.70
   5  -1   6   85.19    3.40
   5  -1   6   85.89    3.60
   5  -1   6   82.19    3.70
   5  -1   6   81.99    3.40
   5  -1   6   80.29    3.30
   5  -1   6   82.79    3.40
  -5   2  -6   24.60    1.50
  -5   2  -6   28.80    1.90
  -5   2  -6   31.80    2.50
  -5   2  -6   28.00    2.00
  -5   2  -6   28.20    1.60
  -5   2  -6   27.20    1.60
   5  -2   6   27.00    1.50
   5  -2   6   28.70    1.70
   5  -2   6   26.00    1.80
   5  -2   6   26.20    1.80
   5  -2   6   27.80    1.60
   5  -2   6   25.30    1.70
  -5   3  -6    0.40    0.50
  -5   3  -6    0.70    0.50
  -5   3  -6   -0.10    0.40
  -5   3  -6    0.20    0.50
  -5   3  -6    0.80    0.60
   5  -3   6    0.00    0.50
   5  -3   6    0.20    0.30
   5  -3   6    0.60    0.60
  -5   4  -6   -0.20    0.40
  -5   4  -6    0.60    0.60
   5  -4   6    0.50    0.60
   5  -4   6    0.60    0.60
  -6 -10  -6    9.50    1.20
  -6 -10  -6   12.00    1.70
  -6 -10  -6    9.10    1.90
   6  10   6   10.90    0.80
   6  10   6   11.10    1.50
  -6  -9  -6    4.30    1.30
  -6  -9  -6    4.60    0.80
  -6  -9  -6    6.70    1.20
   6   9   6    4.30    0.90
   6   9   6    4.10    0.50
  -6  -8  -6   20.10    1.40
  -6  -8  -6   24.90    2.70
   6   8   6   18.40    1.00
   6   8   6   18.40    0.90
   6   8   6   21.10    1.50
   6   8   6   19.80    1.00
   6   8   6   22.30    1.70
   6   8   6   21.80    1.60
  -6  -7  -6   29.80    2.40
  -6  -7  -6   32.10    1.80
   6   7   6   36.70    2.80
   6   7   6   32.40    1.80
   6   7   6   34.80    1.50
   6   7   6   35.10    1.60
   6   7   6   37.90    2.20
   6   7   6   34.50    1.50
  -6  -6  -6  118.69    4.70
  -6  -6  -6  102.69    5.70
  -6  -6  -6  119.69    5.50
   6   6   6  124.39    4.40
   6   6   6  120.19    4.90
   6   6   6  129.79    5.80
   6   6   6  123.09    4.40
   6   6   6  128.69    4.40
   6   6   6  128.29    5.00
   6   6   6  122.29    4.50
   6   6   6  125.59    4.40
  -6  -5  -6  260.07   10.10
  -6  -5  -6  264.57    9.50
  -6  -5  -6  236.38   10.40
   6   5   6  266.57    9.70
   6   5   6  280.37    9.00
   6   5   6  274.27    9.30
   6   5   6  277.37    9.00
   6   5   6  277.57    9.70
   6   5   6  276.37    9.20
   6   5   6  306.37   10.50
   6   5   6  266.57    9.30
  -6  -4  -6    0.00    0.40
  -6  -4  -6   -0.20    0.30
  -6  -4  -6    0.20    0.30
  -6  -4  -6    0.40    0.30
   6   4   6   -0.10    0.20
   6   4   6    0.10    0.10
   6   4   6   -0.30    0.30
   6   4   6   -0.20    0.20
   6   4   6    0.30    0.40
   6   4   6    0.40    0.30
   6   4   6   -0.30    0.20
   6   4   6    0.10    0.10
   6   4   6    0.40    0.30
  -6  -3  -6    0.40    0.30
  -6  -3  -6    0.10    0.30
  -6  -3  -6    0.30    0.40
  -6  -3  -6    0.60    0.30
   6   3   6    0.20    0.30
   6   3   6    0.40    0.30
   6   3   6    0.30    0.40
   6   3   6    0.30    0.20
   6   3   6    0.00    0.40
   6   3   6    0.10    0.30
   6   3   6    0.40    0.30
   6   3   6    0.20    0.30
  -6  -2  -6   20.00    1.40
  -6  -2  -6   17.50    1.20
  -6  -2  -6   20.90    1.70
  -6  -2  -6   17.90    1.20
  -6  -2  -6   19.80    1.30
   6   2   6   20.00    1.00
   6   2   6   20.20    1.40
   6   2   6   18.20    1.30
   6   2   6   20.80    1.50
   6   2   6   16.80    1.20
   6   2   6   19.00    1.30
   6   2   6   19.90    1.40
  -6  -1  -6   42.80    2.20
  -6  -1  -6   45.30    2.20
  -6  -1  -6   43.20    2.50
  -6  -1  -6   40.80    2.10
  -6  -1  -6   36.20    2.30
   6   1   6   42.90    2.30
   6   1   6   43.90    1.90
   6   1   6   42.30    2.20
   6   1   6   43.60    2.20
   6   1   6   44.90    2.20
   6   1   6   44.20    2.30
  -6   0  -6    3.20    0.70
  -6   0  -6    2.30    0.70
  -6   0  -6    2.90    0.60
   6   0   6    3.20    0.60
   6   0   6    2.10    0.50
   6   0   6    2.40    0.70
   6   0   6    2.30    0.70
   6   0   6    2.40    0.60
   6   0   6    2.80    0.60
  -6   1  -6   -0.20    0.40
  -6   1  -6   -0.20    0.50
  -6   1  -6   -0.30    0.30
  -6   1  -6   -0.10    0.30
   6  -1   6    0.00    0.40
   6  -1   6   -0.40    0.30
   6  -1   6   -0.10    0.30
   6  -1   6    0.50    0.50
   6  -1   6   -0.30    0.40
   6  -1   6    0.20    0.30
  -6   2  -6    5.00    0.80
  -6   2  -6    6.50    1.10
  -6   2  -6    5.50    0.90
   6  -2   6    5.70    0.90
   6  -2   6    6.20    0.80
   6  -2   6    6.70    1.20
   6  -2   6    6.00    1.10
   6  -2   6    6.60    1.10
  -6   3  -6    0.20    0.50
  -6   3  -6    0.70    0.70
   6  -3   6    0.70    0.70
   6  -3   6    1.20    0.60
  -6   4  -6    1.10    0.80
  -6   4  -6    0.90    0.60
   6  -4   6    1.30    0.70
   6  -4   6    2.20    0.80
   6  -4   6    0.90    1.20
  -7  -9  -6    0.90    0.50
  -7  -9  -6    1.50    0.90
   7   9   6    2.00    0.70
   7   9   6    1.50    0.30
  -7  -8  -6    1.90    0.90
  -7  -8  -6    0.90    0.50
   7   8   6    2.40    0.40
   7   8   6    2.50    0.40
   7   8   6    2.20    0.70
  -7  -7  -6    1.60    0.50
  -7  -7  -6    1.70    0.80
   7   7   6    1.70    0.40
   7   7   6    2.00    0.70
   7   7   6    0.70    0.60
   7   7   6    1.70    0.30
   7   7   6    1.30    0.30
  -7  -6  -6   73.69    4.40
  -7  -6  -6   86.99    4.30
  -7  -6  -6   83.49    3.60
   7   6   6   87.39    3.80
   7   6   6   90.79    3.30
   7   6   6   83.69    3.20
   7   6   6   91.99    4.40
   7   6   6   79.69    3.30
  -7  -5  -6    0.40    0.60
  -7  -5  -6    0.30    0.50
  -7  -5  -6    0.90    0.40
   7   5   6    0.20    0.60
   7   5   6    0.00    0.20
   7   5   6    0.70    0.30
   7   5   6    0.40    0.50
   7   5   6    0.80    0.50
  -7  -4  -6    0.30    0.40
  -7  -4  -6    0.10    0.40
   7   4   6    0.20    0.30
   7   4   6    0.20    0.30
   7   4   6   -0.30    0.30
   7   4   6   -0.20    0.30
   7   4   6    0.60    0.50
  -7  -3  -6   42.50    2.10
  -7  -3  -6   37.10    2.50
  -7  -3  -6   40.00    2.00
   7   3   6   40.10    2.10
   7   3   6   36.60    2.10
   7   3   6   40.70    2.20
   7   3   6   44.20    2.20
   7   3   6   44.10    2.30
   7   3   6   42.40    2.40
  -7  -2  -6    5.00    1.00
  -7  -2  -6    6.30    0.90
  -7  -2  -6    6.40    0.90
   7   2   6    8.00    1.20
   7   2   6    7.10    1.00
   7   2   6    5.40    0.90
   7   2   6    6.10    0.90
   7   2   6    6.80    1.00
  -7  -1  -6   36.40    2.00
  -7  -1  -6   36.50    2.40
  -7  -1  -6   34.10    2.10
   7   1   6   39.60    2.20
   7   1   6   39.20    2.20
   7   1   6   37.60    2.20
   7   1   6   37.40    2.20
  -7   0  -6    0.00    0.40
  -7   0  -6    1.10    0.60
  -7   0  -6   -0.50    0.60
   7   0   6    0.70    0.60
   7   0   6    0.50    0.50
   7   0   6   -0.20    0.40
   7   0   6    0.10    0.40
  -7   1  -6    2.30    0.70
  -7   1  -6    1.20    0.60
   7  -1   6    2.40    0.80
   7  -1   6    2.90    0.90
   7  -1   6    2.20    0.70
   7  -1   6    1.00    0.70
  -7   2  -6    8.70    1.10
  -7   2  -6    8.70    1.30
   7  -2   6   10.20    1.50
   7  -2   6   11.50    1.50
  -8  -9  -6    0.50    0.40
  -8  -9  -6   -0.60    0.50
   8   9   6    0.30    0.50
   8   9   6    0.30    0.20
  -8  -8  -6    0.20    0.40
  -8  -8  -6    0.20    0.60
   8   8   6    0.10    0.20
   8   8   6    0.00    0.40
  -8  -7  -6   10.20    1.70
  -8  -7  -6    9.30    1.20
   8   7   6   14.40    1.60
   8   7   6    9.50    0.80
   8   7   6   10.90    1.70
   8   7   6   10.40    0.70
  -8  -6  -6   -0.10    0.30
  -8  -6  -6    0.80    0.70
   8   6   6    0.50    0.30
   8   6   6    0.20    0.30
   8   6   6   -0.60    0.40
   8   6   6    0.20    0.50
   8   6   6    0.90    0.60
  -8  -5  -6    4.90    0.90
   8   5   6    8.10    1.20
   8   5   6    6.80    0.90
   8   5   6    7.70    1.30
   8   5   6    6.00    0.80
   8   5   6    7.50    1.20
  -8  -4  -6   56.09    2.70
   8   4   6   55.09    3.00
   8   4   6   53.09    2.80
   8   4   6   54.89    2.70
   8   4   6   56.19    2.60
  -8  -3  -6   29.80    1.80
   8   3   6   28.70    2.00
   8   3   6   28.20    1.80
   8   3   6   29.90    1.90
   8   3   6   28.70    1.90
  -8  -2  -6   14.80    1.30
   8   2   6   17.00    1.50
   8   2   6   17.40    1.50
   8   2   6   15.60    1.60
   8   2   6   17.30    1.70
  -8  -1  -6    0.90    0.50
  -8  -1  -6    0.40    0.40
   8   1   6    1.20    0.60
   8   1   6   -0.40    0.40
   8   1   6    0.30    0.60
   8   1   6    0.40    0.50
  -8   0  -6   18.70    1.50
  -8   0  -6   19.30    1.60
   8   0   6   20.70    1.70
   8   0   6   18.40    1.60
   8   0   6   18.10    1.90
   8   0   6   21.60    2.10
  -8   1  -6    1.70    0.60
  -8   1  -6    1.20    0.60
   8  -1   6    1.70    0.80
   8  -1   6    2.60    0.80
   8  -1   6    2.60    0.90
  -9  -8  -6   -0.10    0.40
  -9  -8  -6   -0.50    0.70
   9   8   6   -0.40    0.50
   9   8   6   -0.10    0.20
   9   8   6   -0.10    0.40
  -9  -7  -6    0.30    0.80
  -9  -7  -6    0.50    0.40
   9   7   6   -0.30    0.50
   9   7   6    0.50    0.40
   9   7   6    0.10    0.50
  -9  -6  -6    1.10    0.50
   9   6   6    2.10    0.70
   9   6   6    0.90    0.40
   9   6   6    0.40    0.50
   9   6   6    1.00    0.40
  -9  -5  -6   25.40    1.70
   9   5   6   24.00    1.80
   9   5   6   24.60    1.60
   9   5   6   26.50    2.10
   9   5   6   22.20    1.60
  -9  -4  -6    8.20    1.10
   9   4   6   11.10    1.60
   9   4   6    8.20    1.20
   9   4   6    9.40    1.20
   9   4   6   10.00    1.20
  -9  -3  -6   -0.10    0.40
   9   3   6    1.50    0.70
   9   3   6    0.60    0.50
   9   3   6    0.70    0.50
   9   3   6    0.20    0.60
  -9  -2  -6    0.40    0.50
   9   2   6   -0.10    0.50
   9   2   6   -0.20    0.50
   9   2   6    0.50    0.50
   9   2   6   -0.30    0.40
  -9  -1  -6    7.00    1.20
   9   1   6    4.30    1.00
   9   1   6    9.60    1.40
   9   1   6    5.10    1.20
   9   1   6    5.50    1.10
 -10  -6  -6   20.30    1.60
  10   6   6   19.60    1.70
  10   6   6   18.10    1.40
  10   6   6   20.30    2.20
  10   6   6   16.80    1.30
 -10  -5  -6   11.00    1.40
  10   5   6   13.30    1.90
  10   5   6   10.70    1.50
  10   5   6    9.00    1.10
  10   5   6    8.90    1.20
 -10  -4  -6   35.70    2.30
  10   4   6   39.40    2.30
  10   4   6   37.50    2.50
  10   4   6   42.40    2.80
  10   4   6   36.60    2.30
   7  -1  -7    1.10    0.60
   7  -1  -7    1.10    0.70
   7  -1  -7    0.50    0.60
  -7   1   7    0.90    0.70
  -7   1   7    0.50    0.60
   7   0  -7    2.20    0.80
   7   0  -7    1.90    0.70
   7   0  -7    1.40    0.60
   7   0  -7    1.90    0.80
  -7   0   7    2.90    0.80
   7   1  -7    6.20    1.00
   7   1  -7    6.80    1.10
   7   1  -7    7.00    1.20
   7   1  -7    8.90    1.30
  -7  -1   7    8.80    1.30
  -7  -1   7    7.90    1.70
   7   2  -7    0.70    0.50
   7   2  -7    0.50    0.50
   7   2  -7    1.10    0.70
   7   2  -7    1.70    0.80
  -7  -2   7    1.80    1.00
  -7  -2   7    1.10    0.60
   7   3  -7   27.60    1.80
   7   3  -7   30.90    2.00
   7   3  -7   32.00    2.10
   7   3  -7   27.20    2.00
  -7  -3   7   29.80    2.70
  -7  -3   7   30.30    2.10
   7   4  -7   -0.50    0.40
   7   4  -7    0.20    0.60
   7   4  -7    0.40    0.40
   7   4  -7    0.30    0.60
  -7  -4   7   -0.10    0.50
  -7  -4   7   -0.60    0.60
   7   5  -7    3.90    1.00
   7   5  -7    4.90    0.80
   7   5  -7    4.90    0.90
   7   5  -7    6.40    1.10
  -7  -5   7    4.70    1.00
  -7  -5   7    7.20    1.80
   6  -3  -7    4.70    1.30
   6  -3  -7    2.00    0.80
   6  -3  -7    4.80    1.00
  -6   3   7    6.80    1.10
  -6   3   7    4.70    1.00
  -6   3   7    4.70    1.10
   6  -2  -7    9.60    1.30
   6  -2  -7    7.40    1.20
   6  -2  -7   11.30    1.70
   6  -2  -7    6.60    1.30
  -6   2   7    9.00    1.30
  -6   2   7   10.90    1.40
  -6   2   7   10.00    1.30
   6  -1  -7    1.20    0.60
   6  -1  -7    5.10    1.00
   6  -1  -7    3.20    0.80
   6  -1  -7    2.10    0.70
   6  -1  -7    3.70    1.50
  -6   1   7    3.00    0.80
  -6   1   7    3.40    0.80
   6   0  -7    8.60    1.20
   6   0  -7   10.20    1.30
   6   0  -7    5.20    1.00
   6   0  -7    7.50    1.00
  -6   0   7    8.40    1.20
  -6   0   7    7.00    1.00
   6   1  -7    4.40    0.90
   6   1  -7    4.60    0.90
   6   1  -7    2.80    0.80
   6   1  -7    3.30    0.80
  -6  -1   7    2.60    0.70
  -6  -1   7    3.60    0.70
  -6  -1   7    1.30    0.80
   6   2  -7    0.40    0.50
   6   2  -7    0.70    0.60
   6   2  -7    0.10    0.50
   6   2  -7   -0.20    0.30
  -6  -2   7    0.10    0.50
  -6  -2   7    0.40    0.70
   6   3  -7   -0.20    0.30
   6   3  -7   -0.20    0.30
   6   3  -7   -0.20    0.40
   6   3  -7   -0.40    0.40
  -6  -3   7    0.20    0.60
  -6  -3   7   -0.10    0.40
   6   4  -7    0.30    0.40
   6   4  -7    0.70    0.60
   6   4  -7    0.80    0.50
   6   4  -7    0.20    0.50
  -6  -4   7    0.40    0.70
  -6  -4   7    0.40    0.50
   6   5  -7    6.50    0.90
   6   5  -7    4.80    0.90
   6   5  -7    6.90    1.10
   6   5  -7    5.80    1.00
  -6  -5   7    6.50    1.60
  -6  -5   7    6.50    1.20
   6   6  -7    4.30    0.90
   6   6  -7    4.40    0.80
   6   6  -7    4.10    0.70
  -6  -6   7    3.50    0.90
  -6  -6   7    4.50    1.50
   5  -4  -7    2.60    1.10
   5  -4  -7    3.40    0.90
   5  -4  -7    3.10    0.80
  -5   4   7    3.30    0.90
  -5   4   7    2.40    0.80
   5  -3  -7    8.70    1.20
   5  -3  -7    7.90    1.50
   5  -3  -7    9.70    1.30
  -5   3   7    9.00    1.20
  -5   3   7    7.70    1.10
  -5   3   7    5.90    1.10
   5  -2  -7    1.30    0.60
   5  -2  -7    0.90    0.40
   5  -2  -7    0.90    0.60
   5  -2  -7    1.50    0.70
   5  -2  -7    1.00    0.60
   5  -2  -7    1.00    0.40
  -5   2   7    1.70    0.60
  -5   2   7    1.60    0.60
  -5   2   7    2.30    0.80
   5  -1  -7   13.60    1.40
   5  -1  -7   12.40    1.50
   5  -1  -7   10.00    1.10
   5  -1  -7   15.00    1.30
   5  -1  -7   10.50    1.10
   5  -1  -7   12.20    1.40
  -5   1   7   14.00    1.40
  -5   1   7   14.70    1.50
   5   0  -7   14.20    1.30
   5   0  -7   14.30    1.40
   5   0  -7   14.50    1.30
   5   0  -7   14.10    1.20
   5   0  -7   14.30    1.20
   5   0  -7   15.00    1.20
  -5   0   7   14.20    1.20
  -5   0   7   14.40    1.20
   5   1  -7    8.10    1.10
   5   1  -7    8.50    1.00
   5   1  -7   11.80    1.20
   5   1  -7    7.60    1.00
   5   1  -7    7.70    1.00
  -5  -1   7    8.10    1.10
  -5  -1   7    7.90    0.90
  -5  -1   7    8.20    1.40
  -5  -1   7   10.00    1.10
   5   2  -7   11.10    1.20
   5   2  -7   13.90    1.10
   5   2  -7   14.20    1.20
   5   2  -7   12.00    1.20
  -5  -2   7   13.70    1.00
  -5  -2   7   14.30    1.90
  -5  -2   7   13.70    1.50
  -5  -2   7   13.70    1.10
   5   3  -7   17.00    1.20
   5   3  -7   17.00    1.30
   5   3  -7   17.10    1.30
   5   3  -7   16.50    1.40
  -5  -3   7   20.30    2.40
  -5  -3   7   18.10    1.40
   5   4  -7    0.00    0.40
   5   4  -7    0.00    0.30
   5   4  -7    0.50    0.50
   5   4  -7    0.20    0.40
  -5  -4   7   -0.70    0.30
  -5  -4   7   -0.10    0.50
   5   5  -7   20.00    1.50
   5   5  -7   21.40    1.30
   5   5  -7   21.90    1.40
   5   5  -7   18.10    1.40
  -5  -5   7   20.50    1.60
  -5  -5   7   18.80    2.50
   5   6  -7    0.00    0.30
   5   6  -7    0.00    0.40
   5   6  -7   -0.60    0.50
  -5  -6   7   -0.50    0.60
  -5  -6   7   -0.20    0.40
   5   7  -7    0.50    0.50
   5   7  -7    0.50    0.40
   5   7  -7   -0.40    0.50
  -5  -7   7    0.40    0.50
  -5  -7   7    0.20    0.90
   4  -5  -7    0.80    0.60
   4  -5  -7    0.00    0.40
   4  -5  -7   -0.40    0.70
  -4   5   7    0.20    0.60
  -4   5   7    0.30    0.50
   4  -4  -7    0.50    0.50
   4  -4  -7   -0.40    0.40
   4  -4  -7   -0.30    0.60
  -4   4   7   -0.30    0.60
  -4   4   7   -0.40    0.40
  -4   4   7   -0.40    0.30
   4  -3  -7    2.80    0.70
   4  -3  -7    3.30    0.60
   4  -3  -7    2.00    0.70
   4  -3  -7    2.90    0.70
   4  -3  -7    2.10    0.90
  -4   3   7    3.50    0.80
  -4   3   7    1.70    0.60
  -4   3   7    2.50    0.60
   4  -2  -7   38.30    2.20
   4  -2  -7   36.80    1.90
   4  -2  -7   39.60    2.50
   4  -2  -7   39.50    2.20
   4  -2  -7   40.60    1.90
   4  -2  -7   40.20    2.20
  -4   2   7   43.20    2.20
  -4   2   7   44.00    2.30
  -4   2   7   43.30    2.30
  -4   2   7   42.80    2.40
  -4   2   7   38.50    2.20
   4  -1  -7   38.30    1.90
   4  -1  -7   40.30    2.30
   4  -1  -7   33.20    2.20
   4  -1  -7   37.10    1.90
   4  -1  -7   38.30    2.10
   4  -1  -7   35.90    2.10
   4  -1  -7   38.00    2.10
  -4   1   7   38.20    2.10
  -4   1   7   41.00    2.10
  -4   1   7   42.70    2.30
  -4   1   7   38.60    2.00
  -4   1   7   43.40    2.10
  -4   1   7   39.70    2.10
  -4   1   7   37.10    2.00
   4   0  -7    3.00    0.70
   4   0  -7    3.30    0.60
   4   0  -7    3.50    0.70
   4   0  -7    3.10    0.60
   4   0  -7    4.40    0.80
   4   0  -7    3.60    0.70
  -4   0   7    3.20    0.70
  -4   0   7    3.30    0.70
  -4   0   7    3.30    0.60
  -4   0   7    4.50    0.60
  -4   0   7    3.70    1.00
   4   1  -7   31.70    1.70
   4   1  -7   34.20    1.80
   4   1  -7   29.50    1.80
   4   1  -7   34.10    1.80
   4   1  -7   29.50    1.90
   4   1  -7   28.50    1.70
  -4  -1   7   30.60    1.80
  -4  -1   7   28.80    2.20
  -4  -1   7   33.10    1.70
  -4  -1   7   32.30    1.60
   4   2  -7   64.19    2.90
   4   2  -7   65.49    2.90
   4   2  -7   67.59    3.20
   4   2  -7   60.59    2.70
   4   2  -7   69.49    2.90
   4   2  -7   65.69    2.90
  -4  -2   7   60.89    3.50
  -4  -2   7   61.39    2.80
  -4  -2   7   63.99    3.00
  -4  -2   7   66.99    2.60
   4   3  -7   13.70    1.10
   4   3  -7   12.50    1.20
   4   3  -7   12.10    1.00
   4   3  -7   14.20    1.00
   4   3  -7   12.40    1.00
   4   3  -7   12.80    1.30
  -4  -3   7   12.60    1.00
  -4  -3   7   12.30    1.00
  -4  -3   7   12.20    1.80
  -4  -3   7   10.40    1.30
   4   4  -7   85.99    3.70
   4   4  -7   84.29    3.50
   4   4  -7   86.69    3.70
   4   4  -7   94.09    4.20
   4   4  -7   88.79    3.50
  -4  -4   7   84.09    3.80
  -4  -4   7   86.79    4.70
   4   5  -7    0.30    0.40
   4   5  -7    0.20    0.40
   4   5  -7    0.30    0.40
   4   5  -7    0.30    0.30
  -4  -5   7    0.00    0.70
  -4  -5   7    0.00    0.30
   4   6  -7    4.80    0.80
   4   6  -7    7.80    0.90
   4   6  -7    6.20    1.00
  -4  -6   7    6.00    1.00
  -4  -6   7    7.30    1.60
   4   7  -7    0.40    0.40
   4   7  -7    0.30    0.50
   4   7  -7    0.40    0.60
  -4  -7   7    0.40    0.50
  -4  -7   7   -0.20    0.80
   3  -6  -7    8.30    1.20
   3  -6  -7    6.90    1.60
  -3   6   7    6.60    1.20
  -3   6   7   12.00    1.60
  -3   6   7    9.40    1.30
   3  -5  -7    9.40    1.70
   3  -5  -7    8.10    1.10
   3  -5  -7   11.10    1.30
  -3   5   7    8.80    1.60
  -3   5   7   10.40    1.40
  -3   5   7    9.20    1.20
  -3   5   7   10.40    1.40
   3  -4  -7    9.60    1.20
   3  -4  -7    9.80    1.20
   3  -4  -7    9.10    1.60
  -3   4   7    9.00    1.20
  -3   4   7    8.80    1.00
  -3   4   7    8.00    1.20
  -3   4   7    8.10    1.40
  -3   4   7    9.20    1.20
   3  -3  -7   15.90    1.20
   3  -3  -7   16.30    1.00
   3  -3  -7   14.80    1.20
   3  -3  -7   15.60    0.90
   3  -3  -7   15.50    1.30
   3  -3  -7   17.20    2.00
  -3   3   7   16.10    1.50
  -3   3   7   14.80    1.30
  -3   3   7   15.00    1.30
  -3   3   7   16.30    1.20
  -3   3   7   14.90    1.50
   3  -2  -7   10.30    1.10
   3  -2  -7   12.90    1.20
   3  -2  -7   10.30    0.80
   3  -2  -7   10.20    0.90
   3  -2  -7   11.70    0.80
   3  -2  -7   10.00    1.20
   3  -2  -7   11.40    1.20
   3  -2  -7   11.50    1.40
  -3   2   7   12.90    1.00
  -3   2   7   11.60    1.10
  -3   2   7   10.00    0.90
  -3   2   7   13.70    1.40
  -3   2   7   11.50    1.20
  -3   2   7   11.00    0.90
  -3   2   7   11.10    1.20
   3  -1  -7    0.10    0.40
   3  -1  -7    0.50    0.40
   3  -1  -7    0.30    0.30
   3  -1  -7    0.30    0.40
   3  -1  -7    0.20    0.30
   3  -1  -7    0.20    0.30
   3  -1  -7    0.20    0.40
   3  -1  -7    0.00    0.30
   3  -1  -7    0.60    0.40
  -3   1   7    0.20    0.40
  -3   1   7    0.70    0.40
  -3   1   7    0.00    0.30
  -3   1   7    0.30    0.30
  -3   1   7    0.20    0.30
  -3   1   7    0.10    0.30
  -3   1   7    0.30    0.40
  -3   1   7    0.10    0.30
   3   0  -7   31.10    1.70
   3   0  -7   29.70    1.70
   3   0  -7   30.70    1.60
   3   0  -7   30.10    1.60
   3   0  -7   29.20    2.00
   3   0  -7   32.90    1.70
   3   0  -7   30.80    1.80
  -3   0   7   31.10    1.70
  -3   0   7   31.80    1.80
  -3   0   7   31.70    1.80
  -3   0   7   32.60    1.70
  -3   0   7   30.40    1.30
  -3   0   7   33.30    1.50
  -3   0   7   28.30    1.60
   3   1  -7   44.70    2.20
   3   1  -7   43.40    2.10
   3   1  -7   44.10    2.40
   3   1  -7   42.10    2.10
   3   1  -7   42.30    2.00
   3   1  -7   41.80    2.10
   3   1  -7   41.70    2.00
  -3  -1   7   42.30    2.60
  -3  -1   7   44.30    2.20
  -3  -1   7   44.00    1.80
  -3  -1   7   46.40    2.20
  -3  -1   7   41.70    2.00
  -3  -1   7   39.80    2.10
   3   2  -7   36.50    1.90
   3   2  -7   41.10    2.00
   3   2  -7   38.50    1.90
   3   2  -7   40.10    2.00
   3   2  -7   37.60    2.20
   3   2  -7   34.40    1.80
   3   2  -7   37.60    2.00
  -3  -2   7   37.20    1.90
  -3  -2   7   36.30    2.50
  -3  -2   7   37.50    1.50
  -3  -2   7   37.20    2.00
  -3  -2   7   38.80    1.90
  -3  -2   7   37.20    1.90
   3   3  -7  389.36   13.10
   3   3  -7  358.86   12.40
   3   3  -7  372.46   12.50
   3   3  -7  373.46   12.30
   3   3  -7  362.36   12.50
   3   3  -7  363.16   12.50
  -3  -3   7  351.56   13.50
  -3  -3   7  363.56   12.40
  -3  -3   7  365.46   11.80
  -3  -3   7  355.06   12.60
   3   4  -7  243.08    8.90
   3   4  -7  230.18    7.80
   3   4  -7  224.98    8.10
   3   4  -7  221.78    8.00
   3   4  -7  228.88    8.40
   3   4  -7  223.68    8.10
   3   4  -7  224.28    8.10
  -3  -4   7  228.08    8.00
  -3  -4   7  227.68    8.20
  -3  -4   7  222.48    9.30
   3   5  -7    1.10    0.50
   3   5  -7    0.20    0.40
   3   5  -7    0.30    0.30
  -3  -5   7    0.20    0.40
  -3  -5   7    0.00    0.60
   3   6  -7   18.70    1.40
   3   6  -7   22.10    1.50
   3   6  -7   17.80    1.30
  -3  -6   7   22.50    2.90
  -3  -6   7   19.10    1.40
   3   7  -7   15.70    1.30
   3   7  -7   11.10    1.30
   3   7  -7   13.30    1.40
  -3  -7   7   12.10    1.40
  -3  -7   7   15.30    2.50
   2  -7  -7    0.20    1.00
   2  -7  -7    0.20    0.90
  -2   7   7    0.20    0.80
  -2   7   7    0.30    0.50
  -2   7   7    1.40    0.70
   2  -6  -7   -0.80    0.70
   2  -6  -7    0.60    0.40
   2  -6  -7   -0.30    0.80
  -2   6   7    0.10    0.50
  -2   6   7   -0.40    0.40
  -2   6   7    0.20    0.60
   2  -5  -7    8.80    1.50
   2  -5  -7   10.70    1.20
  -2   5   7    7.90    1.50
  -2   5   7    9.30    1.20
  -2   5   7    8.80    1.30
  -2   5   7    8.40    1.20
   2  -4  -7    0.60    0.50
   2  -4  -7    2.30    0.60
   2  -4  -7    1.80    0.30
   2  -4  -7    3.10    1.00
   2  -4  -7    1.30    0.30
   2  -4  -7    1.30    0.50
  -2   4   7    1.60    0.80
  -2   4   7    1.00    0.30
  -2   4   7    2.10    0.60
  -2   4   7    0.60    0.50
  -2   4   7    1.40    0.40
  -2   4   7    1.90    0.60
   2  -3  -7    1.50    0.70
   2  -3  -7    2.20    0.80
   2  -3  -7    1.60    0.50
   2  -3  -7    2.50    0.60
   2  -3  -7    2.70    0.60
   2  -3  -7    2.90    0.40
   2  -3  -7    3.10    0.40
   2  -3  -7    3.20    0.60
  -2   3   7    1.40    0.40
  -2   3   7    2.40    0.50
  -2   3   7    2.10    0.60
  -2   3   7    3.80    0.70
  -2   3   7    2.10    0.70
  -2   3   7    2.80    0.70
  -2   3   7    2.40    0.40
   2  -2  -7   18.10    1.20
   2  -2  -7   19.00    1.10
   2  -2  -7   17.50    1.60
   2  -2  -7   21.00    1.10
   2  -2  -7   17.40    1.20
   2  -2  -7   18.40    1.50
   2  -2  -7   17.70    1.20
   2  -2  -7   18.90    1.20
  -2   2   7   17.60    1.10
  -2   2   7   18.10    1.10
  -2   2   7   18.80    1.30
  -2   2   7   19.20    1.30
  -2   2   7   20.20    1.40
  -2   2   7   20.40    1.60
  -2   2   7   19.30    1.20
   2  -1  -7   13.00    1.30
   2  -1  -7   14.30    1.20
   2  -1  -7   14.00    1.00
   2  -1  -7   12.10    1.00
   2  -1  -7   13.80    1.20
   2  -1  -7   13.60    0.90
   2  -1  -7   13.80    1.00
   2  -1  -7   12.50    0.90
  -2   1   7   13.90    1.00
  -2   1   7   14.00    0.80
  -2   1   7   14.00    1.00
  -2   1   7   12.70    0.90
  -2   1   7   14.10    1.20
  -2   1   7   15.20    1.00
  -2   1   7   13.00    0.90
  -2   1   7   13.90    1.10
   2   0  -7   16.60    1.10
   2   0  -7   15.90    1.00
   2   0  -7   14.50    1.30
   2   0  -7   16.80    1.20
   2   0  -7   16.20    1.00
   2   0  -7   15.30    1.10
   2   0  -7   16.40    1.00
  -2   0   7   17.30    1.20
  -2   0   7   17.10    1.10
  -2   0   7   16.20    0.80
  -2   0   7   15.90    1.00
  -2   0   7   16.50    1.10
  -2   0   7   16.70    1.30
  -2   0   7   16.80    0.90
   2   1  -7   24.10    1.30
   2   1  -7   23.00    1.40
   2   1  -7   22.00    1.30
   2   1  -7   23.80    1.30
   2   1  -7   26.90    1.70
   2   1  -7   22.90    1.30
   2   1  -7   23.80    1.40
  -2  -1   7   22.20    1.10
  -2  -1   7   26.00    1.40
  -2  -1   7   21.90    1.70
  -2  -1   7   23.60    1.30
  -2  -1   7   23.00    1.40
  -2  -1   7   23.30    1.30
   2   2  -7  103.89    4.00
   2   2  -7   98.39    3.70
   2   2  -7   96.49    3.80
   2   2  -7  104.09    4.40
   2   2  -7   95.79    3.80
   2   2  -7   94.19    3.80
   2   2  -7  101.09    3.90
  -2  -2   7  103.19    4.00
  -2  -2   7   98.19    3.80
  -2  -2   7   94.29    4.50
  -2  -2   7   98.89    3.40
  -2  -2   7   96.39    3.90
   2   3  -7    0.20    0.30
   2   3  -7    0.20    0.40
   2   3  -7    1.30    0.40
   2   3  -7    1.00    0.50
   2   3  -7    0.40    0.30
   2   3  -7    1.00    0.40
   2   3  -7    0.80    0.60
  -2  -3   7    0.80    0.30
  -2  -3   7    0.40    0.60
  -2  -3   7    1.30    0.50
  -2  -3   7    0.50    0.30
  -2  -3   7    0.80    0.40
   2   4  -7    3.50    0.70
   2   4  -7    2.30    0.60
   2   4  -7    4.50    0.70
   2   4  -7    3.80    0.70
   2   4  -7    5.20    1.10
   2   4  -7    4.00    0.80
   2   4  -7    4.00    0.50
  -2  -4   7    4.20    0.60
  -2  -4   7    4.10    1.20
  -2  -4   7    4.20    0.70
   2   5  -7    8.00    0.90
   2   5  -7    7.90    0.90
   2   5  -7   11.30    1.20
   2   5  -7    9.90    1.00
  -2  -5   7   11.20    1.10
  -2  -5   7    6.10    1.40
   2   6  -7   13.70    1.20
   2   6  -7   15.00    1.50
   2   6  -7   14.50    1.20
  -2  -6   7   19.30    2.60
  -2  -6   7   14.30    1.20
   2   7  -7    9.60    1.20
   2   7  -7    9.50    1.20
   2   7  -7    8.10    1.20
  -2  -7   7   11.70    1.90
  -2  -7   7    8.90    1.90
  -2  -7   7    8.10    1.00
   1  -8  -7    3.50    1.50
   1  -8  -7    4.00    1.40
  -1   8   7    2.80    0.90
  -1   8   7    3.30    0.80
  -1   8   7    4.50    1.30
   1  -7  -7    8.00    1.80
   1  -7  -7   11.50    2.00
  -1   7   7    9.50    1.30
  -1   7   7   10.80    1.50
  -1   7   7    9.60    1.40
   1  -6  -7    2.30    0.60
   1  -6  -7    2.10    1.10
   1  -6  -7    2.30    1.00
  -1   6   7    2.00    0.70
  -1   6   7    0.50    0.70
  -1   6   7    2.40    0.80
  -1   6   7    1.30    0.60
  -1   6   7    2.30    0.60
   1  -5  -7   60.19    2.80
   1  -5  -7   62.99    2.80
   1  -5  -7   58.09    3.50
   1  -5  -7   59.79    2.20
   1  -5  -7   61.59    3.50
  -1   5   7   56.69    2.80
  -1   5   7   62.29    3.70
  -1   5   7   60.19    3.00
  -1   5   7   65.09    3.10
  -1   5   7   59.79    2.40
   1  -4  -7  210.98    8.40
   1  -4  -7  194.28    8.70
   1  -4  -7  204.58    8.30
   1  -4  -7  204.78    7.50
   1  -4  -7  216.38    7.60
   1  -4  -7  209.38    7.10
   1  -4  -7  208.18    7.50
   1  -4  -7  208.18    7.10
  -1   4   7  225.88    7.90
  -1   4   7  214.88    7.30
  -1   4   7  207.58    8.50
  -1   4   7  226.78    8.00
  -1   4   7  213.58    7.20
  -1   4   7  208.98    7.70
  -1   4   7  221.68    7.80
  -1   4   7  217.38    7.20
   1  -3  -7   86.99    4.00
   1  -3  -7   82.59    3.40
   1  -3  -7   89.29    3.50
   1  -3  -7   85.69    3.30
   1  -3  -7   83.39    3.10
   1  -3  -7   74.29    4.10
   1  -3  -7   84.09    3.10
   1  -3  -7   84.39    3.40
   1  -3  -7   83.29    3.90
  -1   3   7   87.79    3.20
  -1   3   7   82.79    3.30
  -1   3   7   81.29    3.40
  -1   3   7   87.49    3.60
  -1   3   7   84.99    3.20
  -1   3   7   86.39    3.50
  -1   3   7   93.89    4.20
  -1   3   7   85.69    3.50
   1  -2  -7    0.80    0.50
   1  -2  -7    1.10    0.40
   1  -2  -7    1.10    0.40
   1  -2  -7    1.40    0.30
   1  -2  -7    1.00    0.60
   1  -2  -7    1.50    0.40
   1  -2  -7    1.40    0.40
   1  -2  -7    1.50    0.40
   1  -2  -7    0.50    0.40
  -1   2   7    1.50    0.40
  -1   2   7    1.60    0.40
  -1   2   7    1.00    0.40
  -1   2   7    1.10    0.40
  -1   2   7    0.80    0.50
  -1   2   7    2.00    0.50
   1  -1  -7    1.00    0.40
   1  -1  -7    0.90    0.50
   1  -1  -7    1.00    0.30
   1  -1  -7    0.30    0.30
   1  -1  -7    1.50    0.50
   1  -1  -7    1.90    0.50
   1  -1  -7    0.80    0.30
   1  -1  -7    1.50    0.40
  -1   1   7    1.30    0.40
  -1   1   7    2.10    0.50
  -1   1   7    1.50    0.40
  -1   1   7    1.40    0.50
  -1   1   7    1.60    0.40
  -1   1   7    0.60    0.30
   1   0  -7   55.99    2.30
   1   0  -7   56.39    2.90
   1   0  -7   56.59    2.50
   1   0  -7   57.09    2.40
   1   0  -7   54.79    2.40
   1   0  -7   58.99    2.40
   1   0  -7   56.99    2.30
   1   0  -7   56.09    2.30
  -1   0   7   56.99    2.90
  -1   0   7   54.79    2.40
  -1   0   7   56.09    2.10
  -1   0   7   59.19    2.20
  -1   0   7   58.99    2.50
  -1   0   7   59.29    2.80
  -1   0   7   56.49    2.40
   1   1  -7   23.20    1.30
   1   1  -7   22.90    1.40
   1   1  -7   25.20    1.30
   1   1  -7   29.30    1.80
   1   1  -7   25.80    1.30
   1   1  -7   25.10    1.50
   1   1  -7   25.00    1.30
  -1  -1   7   24.70    1.00
  -1  -1   7   25.20    1.00
  -1  -1   7   23.70    1.30
  -1  -1   7   26.50    1.40
  -1  -1   7   23.40    1.40
  -1  -1   7   23.30    1.70
   1   2  -7    9.50    0.80
   1   2  -7    9.90    0.90
   1   2  -7    8.70    1.00
   1   2  -7    8.90    1.20
   1   2  -7    9.20    0.80
   1   2  -7    8.70    0.90
  -1  -2   7   11.30    1.60
  -1  -2   7   10.30    0.90
  -1  -2   7    8.30    0.70
  -1  -2   7    8.70    0.90
  -1  -2   7    9.60    0.80
   1   3  -7   -0.10    0.30
   1   3  -7   -0.10    0.30
   1   3  -7   -0.50    0.20
   1   3  -7    0.10    0.30
   1   3  -7    0.20    0.50
   1   3  -7    0.30    0.20
   1   3  -7   -0.60    0.20
   1   3  -7   -0.20    0.30
  -1  -3   7   -0.10    0.30
  -1  -3   7   -0.10    0.30
  -1  -3   7   -0.30    0.40
  -1  -3   7    0.10    0.20
  -1  -3   7    0.40    0.30
   1   4  -7    2.30    0.60
   1   4  -7    2.10    0.60
   1   4  -7    2.00    0.50
   1   4  -7    1.60    0.50
   1   4  -7    1.90    0.60
  -1  -4   7    1.20    0.40
  -1  -4   7    1.00    0.70
  -1  -4   7    1.40    0.80
   1   5  -7    9.50    1.10
   1   5  -7    7.80    0.90
   1   5  -7    7.40    1.10
   1   5  -7    6.00    0.80
  -1  -5   7    8.90    1.00
  -1  -5   7    9.00    1.00
  -1  -5   7    6.50    1.50
   1   6  -7    5.30    0.90
   1   6  -7    6.50    0.90
   1   6  -7    3.50    0.80
  -1  -6   7    3.50    1.20
  -1  -6   7    4.70    0.70
   1   7  -7    6.60    1.00
   1   7  -7    5.20    0.90
   1   7  -7    5.00    1.00
  -1  -7   7    4.20    1.60
  -1  -7   7    6.80    1.70
   0  -8  -7    4.80    1.50
   0  -8  -7    2.50    1.20
   0   8   7    3.70    0.80
   0   8   7    2.30    0.90
   0   8   7    3.70    0.90
   0  -7  -7    0.50    0.80
   0  -7  -7    3.40    1.20
   0   7   7    2.30    0.60
   0   7   7    1.80    0.80
   0   7   7    2.20    0.90
   0   7   7    2.60    0.70
   0  -6  -7    1.80    0.60
   0  -6  -7    1.80    0.50
   0  -6  -7    1.60    0.90
   0  -6  -7    2.60    1.00
   0   6   7    1.50    0.80
   0   6   7    2.10    0.60
   0   6   7    1.40    0.60
   0   6   7    2.10    0.50
   0   6   7    1.30    0.60
   0  -5  -7  328.17   12.40
   0  -5  -7  337.87   11.50
   0  -5  -7  291.37   12.80
   0  -5  -7  331.07   12.60
   0   5   7  341.57   11.80
   0   5   7  352.76   13.00
   0   5   7  357.96   11.40
   0   5   7  347.17   11.80
   0   5   7  340.77   11.10
   0   5   7  340.27   11.60
   0  -4  -7  261.67    9.90
   0  -4  -7  266.27    9.10
   0  -4  -7  250.27    9.00
   0  -4  -7  264.27    9.00
   0  -4  -7  268.87    8.70
   0  -4  -7  225.58   10.10
   0  -4  -7  266.17    9.80
   0   4   7  267.57    9.10
   0   4   7  270.07   10.20
   0   4   7  257.17    9.20
   0   4   7  270.17    9.30
   0   4   7  266.87    8.70
   0   4   7  265.97    8.70
   0   4   7  262.37    9.20
   0  -3  -7    8.30    0.80
   0  -3  -7    7.00    1.00
   0  -3  -7    6.50    0.60
   0  -3  -7    8.50    0.70
   0  -3  -7    6.60    1.20
   0  -3  -7    9.40    1.20
   0  -3  -7    7.90    0.60
   0  -3  -7    7.30    0.70
   0   3   7    8.20    1.10
   0   3   7    8.20    0.90
   0   3   7    8.10    0.60
   0   3   7    6.70    0.80
   0   3   7    6.80    0.80
   0   3   7    7.90    0.60
   0   3   7    7.10    0.80
   0  -2  -7    8.90    1.10
   0  -2  -7   10.10    0.70
   0  -2  -7    9.20    0.80
   0  -2  -7    9.90    0.70
   0  -2  -7   10.30    1.20
   0  -2  -7   11.00    1.20
   0  -2  -7    8.80    0.70
   0  -2  -7   10.30    0.70
   0   2   7   10.40    0.80
   0   2   7   12.40    1.20
   0   2   7    9.60    0.70
   0   2   7   10.90    0.80
   0   2   7   11.40    0.80
   0   2   7   10.70    0.90
   0  -1  -7    0.10    0.20
   0  -1  -7    0.50    0.30
   0  -1  -7    0.40    0.30
   0  -1  -7   -0.20    0.20
   0  -1  -7    0.20    0.30
   0  -1  -7    0.40    0.30
   0  -1  -7    0.20    0.30
   0  -1  -7    0.30    0.40
   0   1   7    0.30    0.40
   0   1   7    0.70    0.30
   0   1   7    0.40    0.30
   0   1   7    0.90    0.30
   0   1   7   -0.10    0.20
   0   0  -7   53.69    2.50
   0   0  -7   61.69    3.00
   0   0  -7   56.89    2.40
   0   0  -7   55.89    2.40
   0   0  -7   57.89    2.40
   0   0  -7   59.99    2.50
   0   0  -7   62.19    2.30
   0   0   7   60.59    2.50
   0   0   7   60.49    2.90
   0   0   7   58.49    2.40
   0   0   7   58.89    2.90
   0   0   7   58.59    2.50
   0   0   7   58.59    2.50
   0   0   7   58.39    2.20
   0   1  -7   71.79    3.00
   0   1  -7   73.69    3.40
   0   1  -7   67.29    2.80
   0   1  -7   67.59    2.80
   0   1  -7   70.69    3.00
   0   1  -7   68.59    2.80
   0  -1   7   69.29    3.40
   0  -1   7   70.99    2.90
   0  -1   7   69.89    2.50
   0  -1   7   73.89    2.70
   0  -1   7   74.29    2.90
   0  -1   7   68.19    2.50
   0  -1   7   70.19    3.00
   0   2  -7   22.50    1.40
   0   2  -7   24.50    1.80
   0   2  -7   22.10    1.30
   0   2  -7   20.40    1.30
   0   2  -7   23.60    1.30
   0   2  -7   21.20    1.30
   0   2  -7   22.20    1.30
   0   2  -7   22.20    1.10
   0  -2   7   23.90    1.40
   0  -2   7   22.10    1.30
   0  -2   7   19.90    1.70
   0  -2   7   23.00    1.00
   0  -2   7   22.00    1.10
   0  -2   7   22.40    1.30
   0   3  -7    5.20    1.00
   0   3  -7    6.10    0.60
   0   3  -7    6.20    0.80
   0   3  -7    3.90    0.70
   0   3  -7    5.80    0.80
   0   3  -7    5.30    0.80
   0   3  -7    4.90    0.70
   0   3  -7    6.80    0.80
   0  -3   7    6.60    0.80
   0  -3   7    5.80    0.80
   0  -3   7    5.90    0.50
   0  -3   7    4.70    0.70
   0  -3   7    6.80    1.20
   0  -3   7    5.30    0.40
   0   4  -7   13.30    1.00
   0   4  -7    9.70    1.10
   0   4  -7   14.50    1.00
   0   4  -7   12.40    1.10
   0   4  -7   14.70    1.20
   0  -4   7   16.10    2.10
   0  -4   7   12.60    1.10
   0  -4   7   13.10    1.10
   0   5  -7    0.20    0.40
   0   5  -7    0.80    0.60
   0   5  -7    0.50    0.40
   0   5  -7    0.00    0.40
   0  -5   7    0.20    0.70
   0  -5   7    0.00    0.30
   0   6  -7    0.30    0.50
   0   6  -7   -0.50    0.40
   0   6  -7   -0.30    0.40
   0  -6   7    0.90    0.90
   0  -6   7   -0.10    0.30
   0   7  -7   12.40    1.30
   0   7  -7   17.70    2.10
   0   7  -7   14.90    1.60
   0   7  -7   14.30    1.70
   0  -7   7   13.50    2.40
   0  -7   7   12.10    2.20
  -1  -9  -7   -0.20    0.90
  -1  -9  -7   -0.10    0.90
   1   9   7    0.40    0.50
   1   9   7    0.10    0.50
   1   9   7   -0.10    0.70
  -1  -8  -7    2.60    1.00
  -1  -8  -7    3.20    1.30
   1   8   7    1.40    0.80
   1   8   7    1.80    0.60
   1   8   7    0.70    0.50
  -1  -7  -7    6.60    1.50
  -1  -7  -7    5.60    0.90
  -1  -7  -7    6.50    1.50
   1   7   7    7.30    0.90
   1   7   7    8.40    1.30
   1   7   7    7.80    0.90
   1   7   7    4.70    0.90
  -1  -6  -7   56.29    2.70
  -1  -6  -7   55.69    3.50
  -1  -6  -7   56.69    3.30
  -1  -6  -7   59.69    2.60
   1   6   7   62.09    2.90
   1   6   7   61.69    3.90
   1   6   7   62.49    2.70
   1   6   7   60.79    2.90
   1   6   7   63.49    2.60
  -1  -5  -7   26.90    2.00
  -1  -5  -7   24.80    2.00
  -1  -5  -7   24.00    1.30
  -1  -5  -7   27.00    1.40
  -1  -5  -7   29.20    1.40
  -1  -5  -7   24.20    2.30
   1   5   7   28.30    1.20
   1   5   7   23.50    1.40
   1   5   7   27.20    1.30
   1   5   7   24.70    2.20
   1   5   7   27.50    1.50
   1   5   7   28.90    1.60
   1   5   7   25.50    1.10
   1   5   7   25.60    1.60
  -1  -4  -7   47.20    2.10
  -1  -4  -7   51.19    2.80
  -1  -4  -7   50.19    2.20
  -1  -4  -7   38.40    2.80
  -1  -4  -7   50.69    2.10
  -1  -4  -7   47.10    2.60
  -1  -4  -7   49.40    2.10
   1   4   7   51.29    2.00
   1   4   7   53.39    3.00
   1   4   7   51.89    2.40
   1   4   7   50.39    2.20
   1   4   7   49.70    2.20
   1   4   7   50.19    2.00
   1   4   7   48.80    2.30
   1   4   7   53.09    2.30
  -1  -3  -7    4.50    0.60
  -1  -3  -7    3.90    0.50
  -1  -3  -7    3.10    0.70
  -1  -3  -7    4.30    0.60
  -1  -3  -7    3.70    0.50
  -1  -3  -7    4.10    0.90
  -1  -3  -7    4.50    0.80
  -1  -3  -7    3.40    0.40
   1   3   7    2.90    0.50
   1   3   7    3.00    0.60
   1   3   7    3.80    0.50
   1   3   7    4.90    1.00
   1   3   7    3.80    0.60
   1   3   7    3.70    0.70
   1   3   7    4.80    0.70
   1   3   7    3.80    0.60
  -1  -2  -7   25.20    1.10
  -1  -2  -7   22.70    1.80
  -1  -2  -7   23.90    1.20
  -1  -2  -7   24.30    1.30
  -1  -2  -7   26.00    1.50
  -1  -2  -7   23.40    1.20
  -1  -2  -7   25.10    1.30
  -1  -2  -7   24.60    1.20
   1   2   7   24.50    1.30
   1   2   7   24.30    1.30
   1   2   7   23.80    1.20
   1   2   7   26.20    1.80
   1   2   7   23.60    1.40
   1   2   7   27.00    1.30
  -1  -1  -7   65.99    2.60
  -1  -1  -7   65.99    2.60
  -1  -1  -7   67.19    2.60
  -1  -1  -7   64.39    2.60
  -1  -1  -7   63.29    3.20
  -1  -1  -7   63.79    2.70
  -1  -1  -7   60.09    2.70
  -1  -1  -7   65.69    2.60
  -1  -1  -7   67.09    2.50
   1   1   7   66.09    2.70
   1   1   7   69.69    2.90
   1   1   7   68.29    2.70
   1   1   7   61.29    2.70
   1   1   7   66.69    3.10
   1   1   7   66.39    2.60
   1   1   7   66.79    2.60
  -1   0  -7  368.06   12.30
  -1   0  -7  368.86   12.30
  -1   0  -7  370.76   12.50
  -1   0  -7  348.37   12.40
  -1   0  -7  374.46   13.00
  -1   0  -7  359.76   12.20
  -1   0  -7  363.96   12.40
  -1   0  -7  375.06   12.10
   1   0   7  398.76   12.40
   1   0   7  374.76   12.80
   1   0   7  365.46   12.40
   1   0   7  365.86   12.10
   1   0   7  375.16   12.30
   1   0   7  364.66   12.20
   1   0   7  370.06   12.50
   1   0   7  361.96   12.90
   1   0   7  364.56   12.40
  -1   1  -7   27.20    1.60
  -1   1  -7   28.30    1.50
  -1   1  -7   28.90    1.60
  -1   1  -7   27.90    1.50
  -1   1  -7   31.40    2.00
  -1   1  -7   28.40    1.50
  -1   1  -7   29.00    1.40
  -1   1  -7   29.80    1.40
   1  -1   7   30.70    1.30
   1  -1   7   29.70    1.20
   1  -1   7   28.70    1.90
   1  -1   7   29.40    1.50
   1  -1   7   28.80    1.60
   1  -1   7   31.30    1.40
   1  -1   7   31.50    1.60
  -1   2  -7   15.50    1.10
  -1   2  -7   15.60    0.90
  -1   2  -7   15.50    1.10
  -1   2  -7   14.30    1.00
  -1   2  -7   16.20    1.10
  -1   2  -7   16.50    1.20
  -1   2  -7   17.70    1.50
  -1   2  -7   17.20    1.20
   1  -2   7   18.10    1.50
   1  -2   7   16.20    1.20
   1  -2   7   15.40    0.70
   1  -2   7   16.20    1.10
   1  -2   7   14.80    0.90
   1  -2   7   15.60    1.10
   1  -2   7   15.60    0.80
  -1   3  -7   -0.20    0.30
  -1   3  -7   -0.30    0.30
  -1   3  -7    0.10    0.30
  -1   3  -7    0.20    0.30
  -1   3  -7   -0.30    0.30
  -1   3  -7   -0.30    0.30
  -1   3  -7   -0.20    0.50
   1  -3   7   -0.20    0.30
   1  -3   7   -0.30    0.20
   1  -3   7   -0.10    0.30
   1  -3   7   -0.20    0.10
   1  -3   7    0.30    0.30
   1  -3   7   -0.60    0.40
  -1   4  -7    0.60    0.50
  -1   4  -7    1.20    0.50
  -1   4  -7    1.00    0.40
  -1   4  -7    0.90    0.50
  -1   4  -7    0.60    0.40
   1  -4   7    0.10    0.50
   1  -4   7    1.40    0.40
   1  -4   7    2.00    0.50
   1  -4   7    1.10    0.50
  -1   5  -7    0.50    0.50
  -1   5  -7   -0.30    0.40
  -1   5  -7    0.10    0.40
   1  -5   7    0.00    0.40
   1  -5   7   -0.40    0.60
  -1   6  -7   31.00    1.80
  -1   6  -7   28.80    2.00
  -1   6  -7   29.00    2.10
  -1   6  -7   28.40    2.20
   1  -6   7   28.50    2.70
  -1   7  -7    2.60    0.90
  -1   7  -7    1.10    0.80
  -1   7  -7    1.80    0.70
   1  -7   7    0.90    1.10
   1  -7   7    3.20    1.40
  -2  -9  -7    1.20    1.00
  -2  -9  -7    3.00    1.30
   2   9   7    2.10    0.70
   2   9   7    1.30    0.80
   2   9   7    2.70    0.60
  -2  -8  -7   23.30    2.80
  -2  -8  -7   26.30    2.30
   2   8   7   23.20    1.60
   2   8   7   25.00    1.50
   2   8   7   23.50    1.50
   2   8   7   25.90    2.00
  -2  -7  -7    3.20    1.00
  -2  -7  -7    2.40    0.90
  -2  -7  -7    2.80    0.60
   2   7   7    2.00    0.50
   2   7   7    1.30    0.70
   2   7   7    2.60    0.60
   2   7   7    2.80    0.70
  -2  -6  -7   26.50    2.20
  -2  -6  -7   26.40    1.30
  -2  -6  -7   25.10    2.00
  -2  -6  -7   25.10    1.40
   2   6   7   29.20    1.80
   2   6   7   26.40    1.40
   2   6   7   23.70    1.50
   2   6   7   25.10    2.40
   2   6   7   28.70    1.20
   2   6   7   25.00    1.60
   2   6   7   27.60    1.40
  -2  -5  -7   46.60    1.90
  -2  -5  -7   45.80    2.60
  -2  -5  -7   42.80    2.00
  -2  -5  -7   39.40    2.90
  -2  -5  -7   37.00    2.50
  -2  -5  -7   47.00    1.90
  -2  -5  -7   44.70    1.90
   2   5   7   44.00    2.00
   2   5   7   46.20    1.80
   2   5   7   45.10    2.10
   2   5   7   40.00    1.70
   2   5   7   45.60    2.00
   2   5   7   44.90    1.80
   2   5   7   42.90    2.10
   2   5   7   44.10    2.00
   2   5   7   47.70    3.00
  -2  -4  -7    5.70    0.90
  -2  -4  -7    3.40    0.50
  -2  -4  -7    4.30    0.50
  -2  -4  -7    2.90    0.80
  -2  -4  -7    3.80    0.50
  -2  -4  -7    4.80    0.50
  -2  -4  -7    5.70    1.00
   2   4   7    4.90    0.50
   2   4   7    5.00    0.70
   2   4   7    3.90    0.60
   2   4   7    4.20    0.60
   2   4   7    3.80    0.90
   2   4   7    4.80    0.60
   2   4   7    4.60    0.60
  -2  -3  -7  102.29    4.00
  -2  -3  -7  105.39    4.40
  -2  -3  -7  106.39    3.60
  -2  -3  -7  104.19    3.90
  -2  -3  -7   99.59    4.80
  -2  -3  -7  105.99    3.90
   2   3   7  105.19    4.00
   2   3   7  104.09    4.00
   2   3   7  106.49    4.00
   2   3   7  103.19    3.90
   2   3   7  113.49    3.90
   2   3   7  116.79    4.80
   2   3   7  106.29    3.80
  -2  -2  -7   15.30    0.90
  -2  -2  -7   16.00    0.70
  -2  -2  -7   14.80    1.00
  -2  -2  -7   15.20    1.10
  -2  -2  -7   15.60    1.00
  -2  -2  -7   16.40    1.50
  -2  -2  -7   17.70    1.00
  -2  -2  -7   16.20    0.90
   2   2   7   16.70    1.10
   2   2   7   16.40    0.90
   2   2   7   16.50    1.00
   2   2   7   16.70    1.00
   2   2   7   17.60    0.90
   2   2   7   15.90    1.00
   2   2   7   16.80    1.40
   2   2   7   17.20    1.00
  -2  -1  -7    2.00    0.40
  -2  -1  -7    3.70    0.60
  -2  -1  -7    2.90    0.50
  -2  -1  -7    1.70    0.40
  -2  -1  -7    2.30    0.50
  -2  -1  -7    3.10    0.70
  -2  -1  -7    1.90    0.30
  -2  -1  -7    2.40    0.40
   2   1   7    2.10    0.50
   2   1   7    2.10    0.60
   2   1   7    2.10    0.40
   2   1   7    2.10    0.50
   2   1   7    2.30    0.50
   2   1   7    2.60    0.40
   2   1   7    2.60    0.50
   2   1   7    2.40    0.40
  -2   0  -7   46.40    1.90
  -2   0  -7   49.80    2.30
  -2   0  -7   48.10    2.60
  -2   0  -7   49.60    2.00
  -2   0  -7   46.60    2.10
  -2   0  -7   50.39    1.90
  -2   0  -7   46.50    2.20
  -2   0  -7   45.80    2.20
   2   0   7   53.99    2.20
   2   0   7   47.30    2.00
   2   0   7   47.80    2.20
   2   0   7   50.69    2.30
   2   0   7   49.30    2.40
   2   0   7   50.99    2.20
   2   0   7   47.00    2.50
   2   0   7   48.20    2.00
  -2   1  -7    8.40    1.00
  -2   1  -7    7.80    0.90
  -2   1  -7    7.50    0.70
  -2   1  -7    7.30    0.90
  -2   1  -7    8.40    1.20
  -2   1  -7    5.80    0.70
  -2   1  -7    8.70    0.60
   2  -1   7    8.20    0.70
   2  -1   7    7.80    0.80
   2  -1   7    8.00    0.60
   2  -1   7    9.30    1.20
   2  -1   7    8.70    0.90
   2  -1   7    7.10    0.90
  -2   2  -7   14.20    1.00
  -2   2  -7   16.00    1.50
  -2   2  -7   14.70    1.10
  -2   2  -7   15.90    1.20
  -2   2  -7   13.90    0.80
  -2   2  -7   15.80    1.20
  -2   2  -7   13.10    1.00
   2  -2   7   14.90    0.80
   2  -2   7   14.30    1.00
   2  -2   7   13.90    1.00
   2  -2   7   12.30    0.70
   2  -2   7   13.70    1.60
   2  -2   7   13.70    1.10
   2  -2   7   14.30    1.10
  -2   3  -7   27.90    1.80
  -2   3  -7   25.10    1.70
  -2   3  -7   29.90    1.70
  -2   3  -7   28.20    1.60
  -2   3  -7   30.00    1.40
   2  -3   7   29.30    1.70
   2  -3   7   27.50    2.10
   2  -3   7   26.50    1.20
   2  -3   7   28.90    1.60
   2  -3   7   30.30    1.80
   2  -3   7   29.00    1.20
   2  -3   7   27.70    1.50
  -2   4  -7    1.30    0.50
  -2   4  -7    0.60    0.40
  -2   4  -7    1.80    0.70
  -2   4  -7    0.30    0.50
   2  -4   7    0.60    0.70
   2  -4   7    2.20    0.60
   2  -4   7    0.50    0.50
  -2   5  -7    1.50    0.60
  -2   5  -7    1.40    0.70
  -2   5  -7    2.30    0.70
  -2   5  -7    1.60    0.80
   2  -5   7    2.10    0.70
   2  -5   7    4.90    1.30
  -2   6  -7   -0.40    0.50
  -2   6  -7    0.40    0.60
  -2   6  -7   -0.10    0.50
   2  -6   7    0.70    0.90
  -3  -9  -7    1.70    0.90
  -3  -9  -7    1.30    1.10
   3   9   7    0.90    0.70
   3   9   7    0.30    0.40
   3   9   7    0.80    0.50
  -3  -8  -7    2.00    0.50
  -3  -8  -7    2.50    1.10
  -3  -8  -7    0.50    0.70
   3   8   7    1.40    0.70
   3   8   7    1.30    0.40
   3   8   7    1.60    0.50
   3   8   7    1.30    0.50
  -3  -7  -7   24.50    2.20
  -3  -7  -7   26.40    1.60
  -3  -7  -7   26.80    1.50
  -3  -7  -7   26.20    2.00
   3   7   7   27.40    1.40
   3   7   7   27.90    1.60
   3   7   7   29.20    1.50
   3   7   7   25.40    1.80
  -3  -6  -7   24.50    2.10
  -3  -6  -7   24.70    1.30
  -3  -6  -7   25.90    1.50
  -3  -6  -7   25.30    1.20
  -3  -6  -7   26.90    1.90
   3   6   7   23.10    1.30
   3   6   7   26.40    1.30
   3   6   7   26.60    1.40
   3   6   7   26.20    2.30
   3   6   7   24.60    1.40
   3   6   7   26.10    1.20
   3   6   7   25.40    1.60
  -3  -5  -7    5.80    0.50
  -3  -5  -7    5.30    1.00
  -3  -5  -7    5.30    0.60
  -3  -5  -7    5.20    1.20
  -3  -5  -7    5.40    0.60
  -3  -5  -7    5.00    1.10
  -3  -5  -7    5.80    0.70
   3   5   7    5.60    0.70
   3   5   7    6.90    0.80
   3   5   7    5.20    0.60
   3   5   7    6.00    0.70
   3   5   7    5.90    0.50
   3   5   7    6.10    0.70
   3   5   7    6.70    1.30
   3   5   7    5.50    0.60
  -3  -4  -7    2.10    0.70
  -3  -4  -7    1.80    0.40
  -3  -4  -7    1.80    0.40
  -3  -4  -7    1.90    0.40
  -3  -4  -7    0.80    0.50
  -3  -4  -7    1.80    0.40
  -3  -4  -7    1.70    0.20
   3   4   7    1.70    0.40
   3   4   7    0.90    0.30
   3   4   7    1.20    0.30
   3   4   7    1.50    0.70
   3   4   7    1.30    0.40
   3   4   7    1.60    0.40
   3   4   7    1.50    0.30
  -3  -3  -7   76.39    3.10
  -3  -3  -7   80.69    3.10
  -3  -3  -7   74.19    3.00
  -3  -3  -7   79.19    3.50
  -3  -3  -7   79.39    3.10
  -3  -3  -7   75.69    3.90
   3   3   7   82.69    3.10
   3   3   7   79.09    3.10
   3   3   7   80.29    3.10
   3   3   7   86.39    3.90
   3   3   7   82.69    3.20
   3   3   7   86.29    2.90
   3   3   7   80.09    3.20
   3   3   7   81.59    3.30
  -3  -2  -7   24.40    1.30
  -3  -2  -7   24.50    1.50
  -3  -2  -7   23.60    1.40
  -3  -2  -7   23.10    1.10
  -3  -2  -7   25.80    1.30
  -3  -2  -7   25.50    1.90
   3   2   7   25.80    1.80
   3   2   7   26.90    1.40
   3   2   7   26.10    1.40
   3   2   7   24.10    1.40
   3   2   7   25.10    1.40
   3   2   7   25.50    1.30
   3   2   7   26.70    1.30
   3   2   7   26.70    1.40
  -3  -1  -7   32.80    1.70
  -3  -1  -7   31.80    2.10
  -3  -1  -7   33.00    1.70
  -3  -1  -7   32.40    1.70
  -3  -1  -7   32.00    1.50
  -3  -1  -7   31.60    1.20
  -3  -1  -7   33.30    1.40
   3   1   7   32.50    1.70
   3   1   7   34.50    1.60
   3   1   7   32.60    1.60
   3   1   7   34.40    1.70
   3   1   7   32.40    2.00
   3   1   7   31.30    1.70
   3   1   7   35.90    1.70
   3   1   7   35.10    1.60
  -3   0  -7   42.60    2.30
  -3   0  -7   48.30    2.20
  -3   0  -7   46.80    2.00
  -3   0  -7   49.90    2.70
  -3   0  -7   46.50    1.90
   3   0   7   45.80    2.10
   3   0   7   50.39    2.40
   3   0   7   46.90    2.30
   3   0   7   49.60    2.30
   3   0   7   47.00    2.10
   3   0   7   48.10    2.20
   3   0   7   47.80    2.00
  -3   1  -7    0.40    0.60
  -3   1  -7    0.10    0.20
  -3   1  -7    0.40    0.40
  -3   1  -7   -0.10    0.30
  -3   1  -7    0.10    0.30
  -3   1  -7    0.70    0.50
   3  -1   7    0.50    0.40
   3  -1   7    0.20    0.30
   3  -1   7    0.70    0.40
   3  -1   7    0.40    0.40
   3  -1   7    0.20    0.20
   3  -1   7    0.80    0.30
  -3   2  -7   45.90    2.50
  -3   2  -7   54.39    3.00
  -3   2  -7   49.99    2.10
  -3   2  -7   53.39    2.20
  -3   2  -7   52.59    2.70
  -3   2  -7   47.00    2.20
   3  -2   7   49.40    2.10
   3  -2   7   53.29    2.60
   3  -2   7   50.09    2.10
   3  -2   7   46.90    2.70
   3  -2   7   50.19    2.30
   3  -2   7   48.10    2.30
   3  -2   7   51.29    2.30
   3  -2   7   52.29    2.50
  -3   3  -7   13.30    1.20
  -3   3  -7   11.60    1.40
  -3   3  -7   14.40    0.90
  -3   3  -7   14.20    1.40
  -3   3  -7   13.30    0.90
  -3   3  -7   14.10    1.10
   3  -3   7   13.10    1.40
   3  -3   7   11.80    0.80
   3  -3   7   15.20    1.20
   3  -3   7   14.60    1.20
   3  -3   7   14.10    1.80
   3  -3   7   12.30    1.10
   3  -3   7   16.20    1.60
  -3   4  -7    9.70    0.80
  -3   4  -7   11.70    1.40
  -3   4  -7    9.60    1.10
  -3   4  -7    9.30    1.30
  -3   4  -7   10.00    1.30
   3  -4   7   10.90    1.70
   3  -4   7    9.30    1.30
   3  -4   7    9.10    1.10
  -3   5  -7   -0.20    0.50
  -3   5  -7    0.80    0.60
  -3   5  -7    0.60    0.60
   3  -5   7    0.30    0.70
   3  -5   7    0.60    0.50
  -3   6  -7    0.20    0.60
  -3   6  -7    0.20    0.60
  -3   6  -7    0.30    0.70
   3  -6   7    0.20    0.90
   3  -6   7    0.70    1.00
  -4 -10  -7    2.20    1.00
  -4 -10  -7    1.00    1.10
   4  10   7    2.00    0.60
   4  10   7    1.40    0.40
   4  10   7    0.70    0.80
  -4  -9  -7    8.30    1.60
  -4  -9  -7    3.20    1.20
   4   9   7    5.30    1.10
   4   9   7    6.70    0.70
   4   9   7    6.30    0.80
  -4  -8  -7   14.70    1.20
  -4  -8  -7   11.50    1.60
  -4  -8  -7   14.20    2.10
   4   8   7   14.00    0.90
   4   8   7   14.10    1.40
   4   8   7   13.40    1.00
  -4  -7  -7    0.60    0.60
  -4  -7  -7    0.10    0.60
  -4  -7  -7    0.60    0.40
   4   7   7    0.20    0.20
   4   7   7    0.10    0.70
   4   7   7    0.20    0.30
   4   7   7   -0.50    0.20
   4   7   7    0.20    0.40
  -4  -6  -7    2.40    0.70
  -4  -6  -7    1.80    0.30
  -4  -6  -7    0.70    0.70
  -4  -6  -7    1.40    0.50
   4   6   7    1.20    0.30
   4   6   7    1.20    0.30
   4   6   7    1.80    0.40
   4   6   7    2.00    0.40
   4   6   7    1.60    0.80
   4   6   7    1.60    0.50
  -4  -5  -7    7.40    0.60
  -4  -5  -7   10.10    1.00
  -4  -5  -7    7.50    0.60
  -4  -5  -7    9.80    1.40
  -4  -5  -7    8.80    1.60
   4   5   7    8.60    1.40
   4   5   7    8.20    0.40
   4   5   7    7.80    0.60
   4   5   7    7.90    0.70
   4   5   7    8.20    0.70
   4   5   7    8.30    0.80
   4   5   7    5.80    0.90
   4   5   7    7.70    0.60
  -4  -4  -7    3.00    0.50
  -4  -4  -7    2.90    0.50
  -4  -4  -7    2.60    0.70
  -4  -4  -7    2.40    0.80
  -4  -4  -7    3.10    0.50
  -4  -4  -7    3.10    0.50
   4   4   7    4.10    0.90
   4   4   7    3.30    0.50
   4   4   7    3.30    0.50
   4   4   7    2.70    0.50
   4   4   7    3.00    0.50
   4   4   7    3.60    0.40
   4   4   7    4.10    0.70
   4   4   7    3.30    0.50
  -4  -3  -7   41.40    1.80
  -4  -3  -7   38.40    2.20
  -4  -3  -7   38.30    2.50
  -4  -3  -7   36.90    1.80
  -4  -3  -7   40.30    1.80
  -4  -3  -7   36.20    1.60
   4   3   7   38.00    1.90
   4   3   7   41.20    1.80
   4   3   7   37.30    1.90
   4   3   7   41.10    1.90
   4   3   7   40.40    2.00
   4   3   7   41.40    1.90
   4   3   7   42.60    2.40
  -4  -2  -7   -0.10    0.30
  -4  -2  -7   -0.10    0.30
  -4  -2  -7   -0.20    0.10
  -4  -2  -7    0.30    0.40
  -4  -2  -7    0.00    0.10
  -4  -2  -7    0.30    0.30
   4   2   7   -0.30    0.20
   4   2   7    0.40    0.30
   4   2   7   -0.10    0.20
   4   2   7    0.30    0.30
   4   2   7   -0.20    0.30
   4   2   7    0.20    0.20
   4   2   7    0.60    0.40
   4   2   7   -0.10    0.20
  -4  -1  -7   53.19    1.90
  -4  -1  -7   54.69    2.40
  -4  -1  -7   53.89    1.90
  -4  -1  -7   49.90    2.50
  -4  -1  -7   55.89    2.30
  -4  -1  -7   56.79    3.00
   4   1   7   51.19    2.50
   4   1   7   55.89    2.50
   4   1   7   51.59    2.40
   4   1   7   54.39    2.80
   4   1   7   54.89    2.40
   4   1   7   53.29    2.40
   4   1   7   54.79    2.40
  -4   0  -7    0.80    0.40
  -4   0  -7    0.60    0.40
  -4   0  -7    0.20    0.30
  -4   0  -7    0.40    0.60
  -4   0  -7    0.20    0.20
  -4   0  -7    0.10    0.20
   4   0   7    0.70    0.30
   4   0   7    0.60    0.20
   4   0   7    0.70    0.40
   4   0   7    0.30    0.40
   4   0   7    0.50    0.30
   4   0   7    0.10    0.30
   4   0   7    0.30    0.40
   4   0   7    1.00    0.40
  -4   1  -7    0.30    0.60
  -4   1  -7    0.20    0.30
  -4   1  -7    0.20    0.30
  -4   1  -7   -0.10    0.40
  -4   1  -7    0.00    0.30
  -4   1  -7    0.30    0.30
  -4   1  -7   -0.20    0.40
   4  -1   7   -0.40    0.30
   4  -1   7    0.40    0.30
   4  -1   7    0.60    0.50
   4  -1   7    0.50    0.40
   4  -1   7    0.40    0.30
   4  -1   7   -0.10    0.30
   4  -1   7   -0.20    0.30
   4  -1   7    0.50    0.50
  -4   2  -7  197.48    7.50
  -4   2  -7  212.18    7.50
  -4   2  -7  203.28    7.90
  -4   2  -7  213.58    7.50
  -4   2  -7  221.28    7.50
  -4   2  -7  213.58    8.10
   4  -2   7  206.68    7.90
   4  -2   7  218.08    8.00
   4  -2   7  217.48    7.40
   4  -2   7  222.38    7.70
   4  -2   7  213.98    7.40
   4  -2   7  201.18    8.10
   4  -2   7  218.18    7.70
  -4   3  -7    7.40    1.00
  -4   3  -7    7.20    1.20
  -4   3  -7    7.60    0.90
  -4   3  -7    5.70    1.10
  -4   3  -7    7.10    1.00
   4  -3   7    7.70    1.10
   4  -3   7    5.70    1.20
   4  -3   7    4.80    0.60
   4  -3   7    8.80    1.10
   4  -3   7    7.30    1.00
  -4   4  -7   -0.40    0.50
  -4   4  -7   -0.10    0.50
  -4   4  -7   -0.10    0.50
  -4   4  -7    0.00    0.40
   4  -4   7    0.00    0.50
   4  -4   7    0.70    0.50
   4  -4   7    0.20    0.60
  -4   5  -7    7.70    1.20
  -4   5  -7   10.50    1.50
  -4   5  -7    7.30    1.80
  -4   5  -7    6.00    1.00
   4  -5   7    6.30    1.20
   4  -5   7    5.20    1.50
  -5 -10  -7    3.50    1.30
  -5 -10  -7    5.80    1.40
   5  10   7    6.90    1.30
   5  10   7    5.30    0.80
  -5  -9  -7   10.50    1.90
  -5  -9  -7   11.60    1.70
  -5  -9  -7    9.30    1.10
   5   9   7   10.00    1.40
   5   9   7    9.60    1.00
   5   9   7   10.50    0.80
  -5  -8  -7    0.00    0.30
  -5  -8  -7    0.20    0.60
  -5  -8  -7    1.70    0.80
   5   8   7    0.80    0.30
   5   8   7   -0.10    0.40
   5   8   7    0.30    0.30
  -5  -7  -7    8.70    1.00
  -5  -7  -7    9.40    1.60
   5   7   7    7.50    1.50
   5   7   7    6.90    0.70
   5   7   7    7.40    1.00
   5   7   7    7.20    0.80
   5   7   7    7.20    0.60
  -5  -6  -7   61.59    2.80
  -5  -6  -7   67.29    3.60
   5   6   7   63.59    3.00
   5   6   7   64.89    2.60
   5   6   7   72.59    4.00
   5   6   7   66.79    2.40
   5   6   7   64.19    2.60
   5   6   7   61.79    2.60
   5   6   7   63.99    3.10
   5   6   7   64.79    2.70
  -5  -5  -7    7.20    1.40
  -5  -5  -7    5.80    0.80
  -5  -5  -7    6.10    0.60
  -5  -5  -7    6.00    1.10
   5   5   7    6.40    0.60
   5   5   7    8.10    1.40
   5   5   7    7.40    0.90
   5   5   7    5.90    0.70
   5   5   7    6.20    0.90
   5   5   7    6.30    0.70
   5   5   7    7.50    0.80
  -5  -4  -7    8.90    1.30
  -5  -4  -7    7.00    0.70
  -5  -4  -7    8.20    0.90
  -5  -4  -7    6.90    0.70
  -5  -4  -7    5.40    1.10
   5   4   7    7.60    0.80
   5   4   7    6.10    1.10
   5   4   7    8.60    0.50
   5   4   7    8.40    1.00
   5   4   7    7.80    0.80
   5   4   7    8.20    0.80
   5   4   7    7.20    0.80
   5   4   7    7.40    1.00
  -5  -3  -7    1.00    0.40
  -5  -3  -7    0.10    0.30
  -5  -3  -7    0.10    0.50
  -5  -3  -7    1.00    0.40
  -5  -3  -7    0.50    0.50
   5   3   7    0.50    0.30
   5   3   7    0.20    0.40
   5   3   7    0.50    0.40
   5   3   7    0.30    0.30
   5   3   7    0.40    0.30
   5   3   7    0.80    0.40
   5   3   7    0.80    0.30
  -5  -2  -7   10.40    1.00
  -5  -2  -7   10.40    1.30
  -5  -2  -7   10.30    0.90
  -5  -2  -7    9.70    1.00
   5   2   7   10.50    0.90
   5   2   7   11.10    1.20
   5   2   7   12.00    1.00
   5   2   7   10.90    1.10
   5   2   7   11.90    1.10
   5   2   7   11.30    1.20
  -5  -1  -7   19.80    1.40
  -5  -1  -7   18.90    1.20
  -5  -1  -7   21.40    1.30
  -5  -1  -7   20.80    1.40
   5   1   7   19.20    1.40
   5   1   7   20.30    1.40
   5   1   7   21.00    1.40
   5   1   7   20.70    1.30
   5   1   7   20.80    1.00
   5   1   7   20.30    1.40
  -5   0  -7   -0.40    0.20
  -5   0  -7    0.10    0.40
  -5   0  -7    0.50    0.40
  -5   0  -7    0.10    0.20
  -5   0  -7    0.20    0.30
  -5   0  -7    0.10    0.30
  -5   0  -7   -0.30    0.50
   5   0   7   -0.10    0.20
   5   0   7    0.40    0.50
   5   0   7    0.00    0.30
   5   0   7    0.30    0.40
   5   0   7    0.40    0.30
   5   0   7    0.00    0.40
  -5   1  -7   13.60    1.50
  -5   1  -7   14.90    1.00
  -5   1  -7   13.90    1.00
  -5   1  -7   17.50    1.40
  -5   1  -7   16.30    1.20
  -5   1  -7   17.00    1.20
   5  -1   7   17.90    1.30
   5  -1   7   16.70    1.10
   5  -1   7   15.60    1.60
   5  -1   7   17.00    1.60
   5  -1   7   17.00    1.20
   5  -1   7   16.30    1.10
  -5   2  -7   11.20    0.90
  -5   2  -7    8.20    0.90
  -5   2  -7   10.80    1.30
  -5   2  -7   12.10    1.50
  -5   2  -7   12.30    1.00
  -5   2  -7   11.50    1.00
   5  -2   7   10.50    1.10
   5  -2   7    9.40    1.00
   5  -2   7    9.90    1.30
   5  -2   7    9.30    1.30
   5  -2   7   11.00    0.90
   5  -2   7   12.40    1.40
  -5   3  -7    3.00    0.70
  -5   3  -7    4.00    0.90
  -5   3  -7    4.50    0.80
   5  -3   7    5.10    1.00
   5  -3   7    2.20    0.60
   5  -3   7    3.40    0.90
  -5   4  -7   24.00    1.60
  -5   4  -7   19.60    2.10
   5  -4   7   24.80    2.00
   5  -4   7   25.20    1.80
  -6 -10  -7    0.40    0.80
  -6 -10  -7    0.80    0.60
  -6 -10  -7   -0.60    0.70
   6  10   7   -0.10    0.30
   6  10   7   -0.20    0.60
  -6  -9  -7    7.50    1.10
  -6  -9  -7    8.60    1.60
   6   9   7    6.70    0.70
   6   9   7    7.40    1.20
  -6  -8  -7    2.90    0.70
  -6  -8  -7    3.20    1.10
   6   8   7    3.40    0.50
   6   8   7    3.20    0.90
   6   8   7    4.10    0.80
   6   8   7    3.30    0.40
  -6  -7  -7    1.40    0.80
  -6  -7  -7    0.40    0.40
   6   7   7    0.70    0.30
   6   7   7    0.70    0.70
   6   7   7    0.80    0.50
   6   7   7    1.20    0.30
   6   7   7    0.70    0.30
   6   7   7    0.60    0.40
  -6  -6  -7    7.70    1.40
  -6  -6  -7    7.80    1.00
   6   6   7    6.80    1.10
   6   6   7    7.60    0.70
   6   6   7    8.30    0.70
   6   6   7    8.10    0.70
   6   6   7    8.00    0.80
   6   6   7    8.30    1.40
  -6  -5  -7   63.09    2.80
  -6  -5  -7   62.49    3.40
  -6  -5  -7   55.19    3.60
   6   5   7   64.69    3.00
   6   5   7   68.69    3.10
   6   5   7   69.69    3.60
   6   5   7   65.49    2.70
   6   5   7   63.39    2.70
   6   5   7   63.89    2.70
   6   5   7   69.09    2.40
  -6  -4  -7  112.09    4.20
  -6  -4  -7  106.69    4.80
  -6  -4  -7  100.79    5.20
  -6  -4  -7  104.19    4.30
   6   4   7  115.89    4.50
   6   4   7  112.89    4.30
   6   4   7  116.39    5.00
   6   4   7  113.69    4.50
   6   4   7  108.09    4.20
   6   4   7  111.39    4.30
  -6  -3  -7   17.30    1.70
  -6  -3  -7   18.70    1.30
  -6  -3  -7   20.60    1.30
   6   3   7   22.80    1.40
   6   3   7   17.70    1.30
   6   3   7   18.70    1.30
   6   3   7   22.50    1.70
   6   3   7   18.30    1.40
  -6  -2  -7   17.90    1.30
  -6  -2  -7   18.80    1.70
  -6  -2  -7   17.90    1.30
   6   2   7   20.60    1.40
   6   2   7   18.50    1.30
   6   2   7   19.30    1.40
   6   2   7   20.80    1.60
   6   2   7   21.00    0.90
   6   2   7   20.70    1.40
  -6  -1  -7   15.00    2.00
  -6  -1  -7   14.10    1.40
  -6  -1  -7   16.00    1.20
  -6  -1  -7   11.30    1.40
   6   1   7   14.90    1.20
   6   1   7   16.40    0.90
   6   1   7   15.90    1.30
   6   1   7   16.70    1.30
   6   1   7   14.00    1.20
   6   1   7   12.80    1.20
  -6   0  -7    4.80    0.60
  -6   0  -7    5.30    0.80
  -6   0  -7    4.00    0.90
  -6   0  -7    4.60    1.00
   6   0   7    6.30    0.90
   6   0   7    5.80    0.90
   6   0   7    6.50    0.90
   6   0   7    4.10    0.80
   6   0   7    5.70    1.00
  -6   1  -7    5.00    0.70
  -6   1  -7    6.80    0.90
  -6   1  -7    4.50    0.90
   6  -1   7    5.30    1.00
   6  -1   7    6.10    1.10
   6  -1   7    8.80    1.30
   6  -1   7    6.10    0.80
   6  -1   7    6.10    0.90
  -6   2  -7    0.40    0.40
  -6   2  -7    0.30    0.50
  -6   2  -7    0.50    0.50
   6  -2   7    1.60    0.70
   6  -2   7    0.80    0.60
  -6   3  -7   16.70    1.40
  -6   3  -7   15.30    1.90
   6  -3   7   13.10    1.60
   6  -3   7   11.20    1.60
  -7  -9  -7   34.20    2.90
  -7  -9  -7   43.10    2.30
   7   9   7   42.70    2.60
   7   9   7   41.20    1.80
  -7  -8  -7    1.90    0.90
  -7  -8  -7    4.00    0.70
   7   8   7    3.30    0.90
   7   8   7    4.10    0.60
  -7  -7  -7   30.80    2.50
  -7  -7  -7   33.60    2.00
   7   7   7   40.50    3.20
   7   7   7   36.00    2.30
   7   7   7   37.90    1.70
   7   7   7   37.70    1.80
  -7  -6  -7  120.59    5.60
  -7  -6  -7  121.09    4.90
   7   6   7  118.09    4.50
   7   6   7  132.39    5.80
   7   6   7  124.69    5.20
   7   6   7  122.19    4.60
  -7  -5  -7   45.20    2.30
  -7  -5  -7   40.60    3.00
  -7  -5  -7   49.90    2.90
   7   5   7   55.29    2.70
   7   5   7   47.30    2.30
   7   5   7   54.79    3.00
   7   5   7   50.19    2.30
  -7  -4  -7   19.10    1.40
  -7  -4  -7   16.60    1.80
   7   4   7   20.50    1.30
   7   4   7   21.00    1.70
   7   4   7   16.50    1.40
   7   4   7   18.40    1.30
  -7  -3  -7    0.30    0.30
  -7  -3  -7   -0.10    0.40
  -7  -3  -7   -0.10    0.30
   7   3   7   -0.20    0.30
   7   3   7    0.20    0.40
   7   3   7   -0.20    0.40
   7   3   7   -0.10    0.30
  -7  -2  -7   -0.20    0.40
  -7  -2  -7    0.30    0.30
  -7  -2  -7   -0.40    0.30
   7   2   7   -0.10    0.30
   7   2   7    0.30    0.40
   7   2   7    0.30    0.50
   7   2   7    0.60    0.50
  -7  -1  -7   -0.50    0.50
  -7  -1  -7   -0.30    0.40
  -7  -1  -7   -0.20    0.30
   7   1   7   -0.10    0.40
   7   1   7   -0.30    0.40
   7   1   7   -0.50    0.40
   7   1   7   -0.20    0.50
  -7   0  -7   66.19    3.40
  -7   0  -7   70.59    3.20
   7   0   7   70.19    3.50
   7   0   7   69.29    3.40
   7   0   7   74.79    3.60
   7   0   7   69.69    3.30
  -7   1  -7    2.80    0.70
  -7   1  -7    2.70    0.80
   7  -1   7    1.40    0.60
   7  -1   7    3.20    0.90
   7  -1   7    2.50    0.90
   7  -1   7    4.40    1.00
  -7   2  -7    0.60    0.60
  -7   2  -7    0.30    0.60
   7  -2   7   -0.20    0.50
   7  -2   7    0.50    0.70
  -8  -9  -7    4.70    1.40
  -8  -9  -7    5.10    0.90
   8   9   7    6.10    0.70
   8   9   7    5.30    1.10
  -8  -8  -7    2.90    0.70
  -8  -8  -7    2.50    1.10
   8   8   7    2.10    0.50
   8   8   7    2.30    0.80
  -8  -7  -7    2.20    0.60
  -8  -7  -7    1.10    0.80
   8   7   7    2.00    0.50
   8   7   7    2.30    1.40
   8   7   7    3.20    0.90
   8   7   7    2.90    0.50
  -8  -6  -7    2.90    0.70
  -8  -6  -7    4.40    1.20
   8   6   7    4.70    0.90
   8   6   7    5.20    0.70
   8   6   7    5.10    1.10
   8   6   7    4.60    0.70
  -8  -5  -7   84.29    3.90
   8   5   7   88.79    3.70
   8   5   7   86.29    3.80
   8   5   7   98.79    4.40
   8   5   7   94.69    4.10
  -8  -4  -7   54.99    2.80
   8   4   7   62.89    3.30
   8   4   7   55.19    2.70
   8   4   7   58.69    3.20
   8   4   7   54.39    2.90
   8   4   7   56.29    2.80
  -8  -3  -7    4.30    0.80
   8   3   7    5.10    0.90
   8   3   7    4.90    1.00
   8   3   7    5.90    0.90
   8   3   7    5.20    1.00
  -8  -2  -7    3.50    0.70
   8   2   7    4.70    1.00
   8   2   7    6.30    1.10
   8   2   7    3.80    0.90
   8   2   7    5.80    1.00
  -8  -1  -7   25.50    1.80
  -8  -1  -7   28.30    2.00
   8   1   7   24.80    1.90
   8   1   7   29.80    2.10
   8   1   7   27.30    2.00
   8   1   7   26.60    1.90
  -8   0  -7    6.50    1.10
  -8   0  -7    6.70    1.10
   8   0   7    6.90    1.10
   8   0   7    5.20    1.10
   8   0   7    6.70    1.20
   8   0   7    7.10    1.20
  -8   1  -7    5.10    1.10
  -8   1  -7    3.20    0.80
   8  -1   7    4.00    1.10
   8  -1   7    2.60    1.00
  -9  -8  -7    0.20    0.50
  -9  -8  -7   -0.60    0.60
   9   8   7   -0.10    0.30
   9   8   7    0.50    0.60
   9   8   7   -0.10    0.50
  -9  -7  -7    3.20    0.80
  -9  -7  -7    1.70    0.90
   9   7   7    3.50    0.90
   9   7   7    3.90    0.70
   9   7   7    5.40    1.20
   9   7   7    4.90    0.70
  -9  -6  -7    3.30    0.80
   9   6   7    4.00    1.00
   9   6   7    4.30    0.70
   9   6   7    4.70    0.70
   9   6   7    5.10    1.20
  -9  -5  -7    1.40    0.60
   9   5   7    0.70    0.40
   9   5   7    0.60    0.60
   9   5   7    0.90    0.50
   9   5   7    0.10    0.60
  -9  -4  -7    9.20    1.30
   9   4   7    7.90    1.10
   9   4   7   13.50    1.80
   9   4   7   10.10    1.20
   9   4   7    9.80    1.30
  -9  -3  -7    6.50    1.00
   9   3   7    6.10    1.00
   9   3   7    7.20    1.30
   9   3   7    4.40    1.00
   9   3   7    5.80    1.20
  -9  -2  -7    0.40    0.50
   9   2   7    1.70    0.80
   9   2   7    0.50    0.50
   9   2   7    0.90    0.60
   9   2   7    0.70    0.70
  -9  -1  -7    6.70    1.10
   9   1   7    8.90    1.40
   9   1   7    7.90    1.40
   9   1   7    5.90    1.20
   9   1   7    6.90    1.30
 -10  -5  -7    0.60    0.50
  10   5   7    0.20    0.40
  10   5   7   -0.30    0.60
  10   5   7   -0.30    0.60
  10   5   7    0.10    0.40
   7   1  -8   19.20    1.80
   7   1  -8   16.60    1.90
   7   1  -8   20.60    1.60
   7   1  -8   21.90    1.80
  -7  -1   8   17.50    2.40
  -7  -1   8   15.50    1.80
   7   2  -8    5.90    1.00
   7   2  -8    6.10    1.10
   7   2  -8    5.60    1.10
   7   2  -8    6.20    1.10
  -7  -2   8    5.00    1.40
  -7  -2   8    4.20    1.00
   7   3  -8    3.20    0.80
   7   3  -8    3.70    0.80
   7   3  -8    3.60    0.90
   7   3  -8    2.60    0.90
  -7  -3   8    3.30    1.30
  -7  -3   8    2.90    0.90
   6  -2  -8    0.80    0.80
   6  -2  -8   -0.20    0.50
   6  -2  -8    1.30    0.80
  -6   2   8    0.40    0.60
  -6   2   8    0.60    0.60
   6  -1  -8    6.80    1.20
   6  -1  -8    5.60    1.10
   6  -1  -8    6.20    1.10
   6  -1  -8    7.60    1.10
  -6   1   8    6.40    1.10
  -6   1   8    4.50    1.00
   6   0  -8    5.40    0.90
   6   0  -8    5.80    1.10
   6   0  -8    6.00    1.00
   6   0  -8    4.50    0.90
  -6   0   8    5.00    1.10
  -6   0   8    7.40    1.10
   6   1  -8   47.70    2.70
   6   1  -8   50.89    2.70
   6   1  -8   53.19    2.80
   6   1  -8   50.19    2.60
  -6  -1   8   50.79    2.90
  -6  -1   8   49.99    3.50
   6   2  -8   43.80    2.40
   6   2  -8   47.90    2.60
   6   2  -8   45.00    2.50
   6   2  -8   44.90    2.50
  -6  -2   8   46.90    3.30
  -6  -2   8   44.70    2.60
   6   3  -8    1.00    0.50
   6   3  -8    0.00    0.60
   6   3  -8    0.10    0.50
   6   3  -8    1.20    0.60
  -6  -3   8    0.40    0.50
  -6  -3   8    0.50    0.70
   6   4  -8   17.50    1.40
   6   4  -8   15.40    1.20
   6   4  -8   15.00    1.40
   6   4  -8   12.60    1.50
  -6  -4   8   13.60    1.70
  -6  -4   8   10.60    2.10
   6   5  -8    0.30    0.50
   6   5  -8   -0.60    0.40
   6   5  -8    0.20    0.60
  -6  -5   8    0.20    0.50
  -6  -5   8    0.30    0.80
   5  -3  -8    1.00    0.80
   5  -3  -8    0.00    0.50
   5  -3  -8    0.80    0.70
  -5   3   8    0.10    0.50
  -5   3   8    1.00    0.70
  -5   3   8    0.20    0.50
   5  -2  -8   18.50    1.70
   5  -2  -8   13.30    1.10
   5  -2  -8   15.00    1.90
   5  -2  -8   15.70    1.50
  -5   2   8   16.00    1.70
  -5   2   8   18.00    1.50
  -5   2   8   15.10    1.60
   5  -1  -8    0.60    0.50
   5  -1  -8    1.50    0.50
   5  -1  -8    0.40    0.50
   5  -1  -8    0.40    0.50
   5  -1  -8    0.40    0.60
   5  -1  -8    1.00    0.60
  -5   1   8    0.40    0.50
  -5   1   8    0.80    0.50
   5   0  -8    9.50    1.20
   5   0  -8   10.70    1.20
   5   0  -8   10.50    1.20
   5   0  -8   10.60    1.30
  -5   0   8   10.40    1.30
  -5   0   8   11.40    1.30
   5   1  -8   21.70    1.50
   5   1  -8   20.50    1.60
   5   1  -8   23.90    1.50
   5   1  -8   21.30    1.60
  -5  -1   8   23.80    2.70
  -5  -1   8   22.10    1.40
  -5  -1   8   19.30    1.60
  -5  -1   8   24.80    1.60
   5   2  -8    1.70    0.60
   5   2  -8    1.40    0.60
   5   2  -8    1.90    0.70
   5   2  -8    3.70    0.70
  -5  -2   8    2.50    0.70
  -5  -2   8    1.60    0.50
  -5  -2   8    2.20    0.90
   5   3  -8    2.30    0.70
   5   3  -8    2.00    0.70
   5   3  -8    2.20    0.60
   5   3  -8    2.60    0.70
  -5  -3   8    1.70    0.60
  -5  -3   8    2.60    1.00
   5   4  -8    0.00    0.40
   5   4  -8    0.40    0.50
   5   4  -8    1.30    0.60
   5   4  -8    1.10    0.50
  -5  -4   8    0.00    0.80
  -5  -4   8    0.10    0.50
   5   5  -8    9.40    1.10
   5   5  -8    8.90    1.10
   5   5  -8    8.30    1.20
  -5  -5   8   11.40    2.10
  -5  -5   8    9.20    1.30
   5   6  -8    3.30    0.80
   5   6  -8    2.50    0.60
   5   6  -8    3.00    0.80
  -5  -6   8    4.10    1.50
  -5  -6   8    3.00    0.90
   4  -5  -8    8.10    1.30
   4  -5  -8    9.00    1.30
   4  -5  -8    6.80    1.50
  -4   5   8    5.90    1.20
  -4   5   8   10.80    1.50
   4  -4  -8   20.70    1.70
   4  -4  -8   21.20    2.50
   4  -4  -8   20.20    1.70
  -4   4   8   22.90    1.60
  -4   4   8   22.20    1.80
  -4   4   8   22.90    1.80
   4  -3  -8    1.50    0.50
   4  -3  -8    0.60    0.50
   4  -3  -8    2.50    0.90
   4  -3  -8    1.10    0.60
  -4   3   8    0.10    0.60
  -4   3   8    1.10    0.60
  -4   3   8    0.30    0.50
   4  -2  -8    2.30    0.60
   4  -2  -8    0.70    0.40
   4  -2  -8    2.10    0.60
   4  -2  -8    0.60    0.50
   4  -2  -8    1.00    0.70
   4  -2  -8    1.30    0.60
  -4   2   8    1.60    0.50
  -4   2   8    2.00    0.70
  -4   2   8    1.90    0.60
  -4   2   8    1.00    0.50
   4  -1  -8    9.20    1.10
   4  -1  -8    7.20    1.10
   4  -1  -8    5.80    1.00
   4  -1  -8    5.40    0.80
   4  -1  -8    4.70    0.70
   4  -1  -8    6.30    1.00
  -4   1   8    7.00    1.00
  -4   1   8    8.60    1.10
  -4   1   8    6.70    0.90
   4   0  -8    3.80    0.70
   4   0  -8    3.20    0.80
   4   0  -8    5.50    0.80
   4   0  -8    3.70    0.80
   4   0  -8    3.20    0.60
  -4   0   8    4.30    0.70
  -4   0   8    4.90    0.90
  -4   0   8    4.30    0.80
   4   1  -8    3.00    0.60
   4   1  -8    2.30    0.70
   4   1  -8    3.40    0.70
   4   1  -8    3.30    0.70
   4   1  -8    2.20    0.60
   4   1  -8    3.00    0.60
  -4  -1   8    1.50    0.40
  -4  -1   8    2.00    0.60
  -4  -1   8    2.60    0.90
  -4  -1   8    2.90    0.60
   4   2  -8   13.70    1.20
   4   2  -8   16.60    1.20
   4   2  -8   15.40    1.50
   4   2  -8   13.50    1.20
   4   2  -8   14.50    1.20
  -4  -2   8   16.70    2.10
  -4  -2   8   15.20    1.20
  -4  -2   8   15.10    1.20
   4   3  -8  121.89    5.20
   4   3  -8  114.39    4.70
   4   3  -8  120.29    4.60
   4   3  -8  121.19    4.60
   4   3  -8  115.09    4.70
  -4  -3   8  122.99    4.60
  -4  -3   8  115.69    5.80
  -4  -3   8  110.69    4.80
   4   4  -8   56.09    2.50
   4   4  -8   55.79    2.50
   4   4  -8   49.60    2.60
   4   4  -8   53.59    3.20
   4   4  -8   54.09    2.70
  -4  -4   8   49.30    2.70
  -4  -4   8   54.49    3.70
   4   5  -8   20.50    1.50
   4   5  -8   22.10    1.40
   4   5  -8   20.70    1.60
  -4  -5   8   18.00    2.60
  -4  -5   8   17.50    1.50
   4   6  -8    0.10    0.60
   4   6  -8   -0.10    0.40
   4   6  -8    0.80    0.50
  -4  -6   8   -0.30    0.70
  -4  -6   8    0.40    0.60
   3  -6  -8   12.60    1.50
   3  -6  -8   14.80    2.30
   3  -6  -8   11.20    2.20
  -3   6   8   12.80    1.60
  -3   6   8   19.70    2.00
   3  -5  -8   -0.20    0.40
   3  -5  -8    0.90    0.90
   3  -5  -8    1.30    0.50
  -3   5   8    0.40    0.70
  -3   5   8    0.30    0.50
  -3   5   8    0.90    0.60
   3  -4  -8    2.60    1.00
   3  -4  -8    2.90    0.70
   3  -4  -8    2.20    0.70
  -3   4   8    2.70    0.80
  -3   4   8    2.70    0.70
  -3   4   8    2.90    0.80
  -3   4   8    3.50    1.00
  -3   4   8    3.50    0.70
   3  -3  -8   16.00    1.30
   3  -3  -8   14.00    1.00
   3  -3  -8   15.80    1.50
   3  -3  -8   16.60    1.00
   3  -3  -8   16.20    1.90
   3  -3  -8   17.10    1.30
   3  -3  -8   14.30    1.60
  -3   3   8   15.50    1.70
  -3   3   8   14.90    1.30
  -3   3   8   15.70    1.30
  -3   3   8   14.60    1.50
  -3   3   8   16.60    1.20
  -3   3   8   15.90    1.60
   3  -2  -8    3.50    0.90
   3  -2  -8    4.10    0.80
   3  -2  -8    3.30    0.90
   3  -2  -8    4.00    0.80
   3  -2  -8    2.20    0.50
   3  -2  -8    2.60    0.70
   3  -2  -8    2.90    0.60
  -3   2   8    2.50    0.60
  -3   2   8    2.50    0.70
  -3   2   8    3.40    0.70
  -3   2   8    4.00    0.80
  -3   2   8    3.30    0.70
  -3   2   8    3.50    0.70
   3  -1  -8  118.09    4.70
   3  -1  -8  115.79    4.50
   3  -1  -8  118.29    4.50
   3  -1  -8  114.69    5.30
   3  -1  -8  117.59    4.80
   3  -1  -8  120.09    4.70
   3  -1  -8  124.99    5.40
  -3   1   8  125.29    4.60
  -3   1   8  120.89    4.80
  -3   1   8  128.49    5.00
  -3   1   8  130.69    5.00
  -3   1   8  120.29    4.80
  -3   1   8  116.19    4.70
   3   0  -8   40.60    2.10
   3   0  -8   41.10    2.00
   3   0  -8   43.40    2.20
   3   0  -8   42.50    2.10
   3   0  -8   43.60    2.10
   3   0  -8   42.40    2.60
  -3   0   8   44.00    2.40
  -3   0   8   45.00    2.30
  -3   0   8   45.10    2.20
  -3   0   8   44.50    2.00
  -3   0   8   42.80    2.20
  -3   0   8   36.70    2.60
  -3   0   8   46.30    2.30
   3   1  -8   46.30    2.20
   3   1  -8   45.80    2.20
   3   1  -8   45.60    2.30
   3   1  -8   43.70    2.20
   3   1  -8   44.60    2.60
   3   1  -8   46.70    2.20
  -3  -1   8   45.00    2.90
  -3  -1   8   44.70    1.90
  -3  -1   8   41.00    2.20
  -3  -1   8   47.10    2.20
   3   2  -8   17.40    1.20
   3   2  -8   17.00    1.20
   3   2  -8   17.80    1.30
   3   2  -8   15.70    1.20
   3   2  -8   16.70    1.20
   3   2  -8   16.70    1.50
  -3  -2   8   17.20    1.20
  -3  -2   8   15.40    1.90
  -3  -2   8   16.80    1.30
  -3  -2   8   16.60    0.90
   3   3  -8   28.00    1.50
   3   3  -8   28.10    1.70
   3   3  -8   27.90    1.60
   3   3  -8   32.80    1.80
   3   3  -8   30.50    2.10
  -3  -3   8   27.30    2.30
  -3  -3   8   31.30    1.70
  -3  -3   8   26.70    1.70
   3   4  -8    7.10    0.90
   3   4  -8    7.30    1.00
   3   4  -8    6.60    0.70
   3   4  -8    5.90    0.90
  -3  -4   8    6.60    1.00
  -3  -4   8    6.70    1.50
   3   5  -8   24.00    1.50
   3   5  -8   23.40    1.60
   3   5  -8   24.10    1.60
  -3  -5   8   22.00    2.90
  -3  -5   8   23.60    1.60
   3   6  -8   34.50    2.10
   3   6  -8   33.60    2.00
   3   6  -8   32.90    2.00
  -3  -6   8   30.40    3.40
  -3  -6   8   32.70    2.00
   3   7  -8    0.70    0.60
   3   7  -8    2.40    0.70
   3   7  -8    1.00    0.60
  -3  -7   8    4.70    1.70
  -3  -7   8    2.20    0.70
   2  -7  -8   19.30    2.80
   2  -7  -8   15.90    2.30
  -2   7   8   17.80    2.00
  -2   7   8   18.80    2.10
  -2   7   8   18.80    1.90
   2  -6  -8    1.30    0.90
   2  -6  -8    1.00    0.50
   2  -6  -8    0.30    0.90
  -2   6   8    0.60    0.60
  -2   6   8    1.00    0.60
  -2   6   8    0.90    0.80
   2  -5  -8    3.60    1.20
   2  -5  -8    3.80    0.80
   2  -5  -8    3.20    1.10
  -2   5   8    4.50    0.90
  -2   5   8    3.90    1.00
  -2   5   8    2.40    1.00
  -2   5   8    5.20    1.00
   2  -4  -8    0.40    0.50
   2  -4  -8    0.20    0.40
   2  -4  -8   -0.10    0.20
   2  -4  -8   -0.20    0.20
   2  -4  -8    0.20    0.60
   2  -4  -8   -0.40    0.40
  -2   4   8    0.30    0.40
  -2   4   8   -0.60    0.40
  -2   4   8   -0.40    0.50
  -2   4   8    0.00    0.60
  -2   4   8   -0.10    0.30
   2  -3  -8    7.60    0.80
   2  -3  -8    6.80    1.30
   2  -3  -8    7.50    1.00
   2  -3  -8    6.50    0.80
   2  -3  -8    8.00    0.70
   2  -3  -8    8.20    1.00
   2  -3  -8    7.60    1.00
   2  -3  -8    8.20    1.30
  -2   3   8    8.80    1.10
  -2   3   8    9.70    1.30
  -2   3   8    9.40    0.80
  -2   3   8    8.40    1.00
  -2   3   8    8.10    0.90
  -2   3   8   10.10    1.20
   2  -2  -8   32.50    2.40
   2  -2  -8   36.30    1.80
   2  -2  -8   36.00    1.90
   2  -2  -8   35.70    1.90
   2  -2  -8   35.00    1.90
   2  -2  -8   37.50    1.70
   2  -2  -8   39.30    2.30
   2  -2  -8   35.90    1.70
  -2   2   8   36.80    1.80
  -2   2   8   34.60    2.00
  -2   2   8   37.80    2.00
  -2   2   8   36.50    1.80
  -2   2   8   39.30    2.30
  -2   2   8   37.80    1.80
  -2   2   8   38.50    2.00
   2  -1  -8   12.80    1.40
   2  -1  -8   15.40    1.00
   2  -1  -8   14.90    1.10
   2  -1  -8   13.70    1.00
   2  -1  -8   15.00    1.10
   2  -1  -8   13.90    1.50
   2  -1  -8   14.20    1.10
  -2   1   8   14.60    1.30
  -2   1   8   15.50    0.90
  -2   1   8   15.50    1.10
  -2   1   8   13.70    0.90
  -2   1   8   15.20    1.10
  -2   1   8   14.90    1.20
  -2   1   8   12.90    1.00
   2   0  -8    5.80    0.70
   2   0  -8    5.00    0.70
   2   0  -8    4.60    0.90
   2   0  -8    5.80    0.90
   2   0  -8    8.20    0.90
   2   0  -8    6.00    0.80
   2   0  -8    5.70    0.70
  -2   0   8    6.80    0.90
  -2   0   8    6.20    1.10
  -2   0   8    5.00    0.60
  -2   0   8    5.20    0.70
  -2   0   8    6.00    0.80
  -2   0   8    6.50    0.80
  -2   0   8    4.90    0.40
  -2   0   8    6.30    1.00
   2   1  -8    1.60    0.50
   2   1  -8    2.60    0.50
   2   1  -8    1.90    0.70
   2   1  -8    1.60    0.50
   2   1  -8    2.20    0.50
   2   1  -8    2.50    0.60
   2   1  -8    2.30    0.60
  -2  -1   8    2.70    0.60
  -2  -1   8    2.80    0.60
  -2  -1   8    2.40    0.50
  -2  -1   8    1.50    0.70
  -2  -1   8    2.10    0.40
  -2  -1   8    1.80    0.50
   2   2  -8    4.80    0.70
   2   2  -8    3.00    0.60
   2   2  -8    2.90    0.60
   2   2  -8    4.10    0.60
   2   2  -8    4.40    1.00
   2   2  -8    4.10    0.70
  -2  -2   8    3.60    0.70
  -2  -2   8    3.40    0.30
  -2  -2   8    3.60    1.00
  -2  -2   8    2.50    0.50
   2   3  -8    7.00    0.90
   2   3  -8    8.70    0.70
   2   3  -8    7.50    0.90
   2   3  -8    9.70    1.30
   2   3  -8    7.40    1.00
   2   3  -8    7.00    0.90
  -2  -3   8    9.80    1.70
  -2  -3   8    9.90    1.10
  -2  -3   8    7.80    0.90
   2   4  -8    5.70    0.90
   2   4  -8    4.80    0.80
   2   4  -8    5.10    0.90
   2   4  -8    4.60    0.80
  -2  -4   8    4.30    0.70
  -2  -4   8    5.40    0.80
  -2  -4   8    5.10    1.30
   2   5  -8    2.60    0.70
   2   5  -8    1.00    0.50
   2   5  -8    1.80    0.60
  -2  -5   8    1.50    1.00
  -2  -5   8    2.70    0.70
   2   6  -8   10.50    1.20
   2   6  -8   10.30    1.30
   2   6  -8   11.70    1.30
  -2  -6   8   12.20    1.30
  -2  -6   8   13.30    2.40
   2   7  -8   22.90    1.70
   2   7  -8   21.60    1.80
   2   7  -8   25.10    1.70
  -2  -7   8   24.30    2.70
  -2  -7   8   23.10    3.10
  -2  -7   8   20.60    1.50
   1  -7  -8   16.30    2.40
   1  -7  -8   14.30    2.20
  -1   7   8   13.60    1.70
  -1   7   8   18.70    1.50
  -1   7   8   17.90    1.90
   1  -6  -8    0.40    0.70
   1  -6  -8    0.50    0.90
   1  -6  -8    0.00    0.30
  -1   6   8    0.40    0.40
  -1   6   8    0.10    0.40
  -1   6   8   -0.20    0.60
   1  -5  -8   36.50    2.70
   1  -5  -8   38.10    2.00
   1  -5  -8   43.00    2.90
  -1   5   8   39.60    2.90
  -1   5   8   38.20    2.20
  -1   5   8   37.40    2.30
  -1   5   8   38.00    2.20
  -1   5   8   35.30    1.80
   1  -4  -8   85.29    3.50
   1  -4  -8   81.29    4.20
   1  -4  -8   81.69    3.00
   1  -4  -8   71.79    4.30
   1  -4  -8   79.59    4.10
   1  -4  -8   81.39    3.00
   1  -4  -8   82.99    3.40
   1  -4  -8   82.39    3.40
  -1   4   8   86.39    3.70
  -1   4   8   86.79    3.60
  -1   4   8   85.09    4.30
  -1   4   8   81.29    3.20
  -1   4   8   84.49    3.60
  -1   4   8   78.39    3.20
   1  -3  -8  193.88    6.70
   1  -3  -8  192.28    7.00
   1  -3  -8  195.38    7.60
   1  -3  -8  196.58    7.00
   1  -3  -8  188.78    7.50
   1  -3  -8  185.48    6.60
   1  -3  -8  184.38    6.80
   1  -3  -8  171.88    7.90
  -1   3   8  205.08    7.20
  -1   3   8  197.48    7.10
  -1   3   8  196.48    6.80
  -1   3   8  196.18    6.80
  -1   3   8  205.38    7.10
  -1   3   8  189.48    6.90
  -1   3   8  205.08    7.80
  -1   3   8  198.68    7.20
   1  -2  -8   10.40    0.80
   1  -2  -8    8.20    0.70
   1  -2  -8    7.70    1.30
   1  -2  -8   10.40    1.30
   1  -2  -8    9.60    0.70
   1  -2  -8    8.60    1.20
   1  -2  -8    8.40    1.00
   1  -2  -8    7.60    0.90
  -1   2   8    9.20    1.00
  -1   2   8    9.80    1.20
  -1   2   8    8.80    1.10
  -1   2   8    8.40    1.00
  -1   2   8    8.50    0.70
   1  -1  -8   14.50    1.00
   1  -1  -8   17.30    1.30
   1  -1  -8   15.60    1.10
   1  -1  -8   13.90    1.40
   1  -1  -8   14.10    1.00
   1  -1  -8   16.00    1.20
   1  -1  -8   14.60    1.00
   1  -1  -8   15.50    1.00
  -1   1   8   15.30    1.00
  -1   1   8   15.10    1.10
  -1   1   8   14.70    1.10
  -1   1   8   17.20    1.40
  -1   1   8   15.90    0.90
   1   0  -8    1.00    0.40
   1   0  -8    0.60    0.30
   1   0  -8    0.20    0.30
   1   0  -8    0.00    0.40
   1   0  -8   -0.30    0.20
   1   0  -8    0.50    0.30
   1   0  -8    0.20    0.50
   1   0  -8    1.10    0.40
  -1   0   8    0.60    0.20
  -1   0   8    0.20    0.30
  -1   0   8    0.60    0.20
  -1   0   8    0.40    0.30
  -1   0   8    0.80    0.50
  -1   0   8    0.00    0.50
  -1   0   8    0.10    0.30
   1   1  -8    6.00    0.80
   1   1  -8    6.40    1.10
   1   1  -8    5.90    0.80
   1   1  -8    6.30    0.80
   1   1  -8    4.80    0.60
   1   1  -8    5.20    0.70
  -1  -1   8    6.70    0.80
  -1  -1   8    6.40    1.20
  -1  -1   8    5.80    0.80
  -1  -1   8    5.10    0.40
  -1  -1   8    5.30    0.40
  -1  -1   8    6.30    0.80
   1   2  -8   15.10    1.20
   1   2  -8   14.20    1.10
   1   2  -8   14.90    1.10
   1   2  -8   13.10    1.10
   1   2  -8   14.10    1.10
   1   2  -8   17.30    1.60
  -1  -2   8   17.60    1.60
  -1  -2   8   16.30    1.20
  -1  -2   8   12.70    1.10
  -1  -2   8   14.60    1.10
   1   3  -8   10.90    1.10
   1   3  -8   12.50    1.50
   1   3  -8   10.80    1.10
   1   3  -8    9.80    1.10
   1   3  -8   11.50    1.00
   1   3  -8   12.00    1.20
  -1  -3   8   12.10    1.00
  -1  -3   8   14.00    1.90
   1   4  -8    7.90    0.90
   1   4  -8    7.10    1.00
   1   4  -8    8.00    1.00
   1   4  -8   10.90    1.20
   1   4  -8    7.80    1.10
  -1  -4   8   11.70    1.20
  -1  -4   8   10.50    1.80
   1   5  -8    3.40    0.80
   1   5  -8    4.60    0.80
   1   5  -8    3.90    0.80
  -1  -5   8    3.90    1.20
  -1  -5   8    6.10    0.90
   1   6  -8    3.10    0.80
   1   6  -8    4.40    0.90
   1   6  -8    3.20    0.70
  -1  -6   8    3.40    0.70
  -1  -6   8    2.30    1.10
   1   7  -8    0.20    0.60
   1   7  -8    0.50    0.60
   1   7  -8    0.10    0.50
  -1  -7   8    1.40    1.10
   0  -8  -8   16.30    2.30
   0  -8  -8   14.60    2.50
   0   8   8   20.50    1.90
   0   8   8   20.50    1.60
   0   8   8   16.70    1.80
   0  -7  -8    0.20    0.70
   0  -7  -8   -0.70    0.50
   0   7   8    0.70    0.50
   0   7   8    0.60    0.50
   0   7   8    1.50    0.70
   0  -6  -8   29.80    2.00
   0  -6  -8   37.00    1.90
   0  -6  -8   33.30    2.60
   0  -6  -8   30.10    2.60
   0   6   8   34.00    2.00
   0   6   8   34.60    2.10
   0   6   8   35.70    2.20
   0  -5  -8   13.90    1.10
   0  -5  -8   13.70    1.80
   0  -5  -8   15.60    1.10
   0  -5  -8   12.90    1.80
   0   5   8   13.80    1.20
   0   5   8   13.60    1.70
   0   5   8   15.40    1.30
   0   5   8   12.70    0.80
   0   5   8   16.70    1.40
   0  -4  -8   23.70    1.40
   0  -4  -8   23.70    1.90
   0  -4  -8   23.20    1.40
   0  -4  -8   23.20    1.90
   0  -4  -8   20.00    2.00
   0  -4  -8   20.40    1.30
   0  -4  -8   23.40    1.20
   0   4   8   22.80    1.60
   0   4   8   25.30    1.50
   0   4   8   24.00    2.10
   0   4   8   22.50    1.50
   0   4   8   25.00    1.20
   0  -3  -8    3.00    0.50
   0  -3  -8    2.80    0.80
   0  -3  -8    2.40    0.80
   0  -3  -8    2.50    0.50
   0  -3  -8    2.90    0.70
   0  -3  -8    2.20    0.50
   0  -3  -8    2.10    0.50
   0  -3  -8    2.30    0.40
   0   3   8    3.00    0.60
   0   3   8    2.70    0.60
   0   3   8    2.40    0.50
   0   3   8    2.60    0.60
   0   3   8    2.60    0.80
   0   3   8    2.30    0.40
   0  -2  -8   99.89    4.10
   0  -2  -8   92.39    3.70
   0  -2  -8   98.89    3.80
   0  -2  -8   92.69    4.60
   0  -2  -8   92.79    3.60
   0  -2  -8   94.39    3.50
   0  -2  -8   91.69    3.60
   0   2   8   89.89    3.90
   0   2   8  100.99    3.90
   0   2   8   97.59    3.90
   0   2   8  105.39    4.50
   0   2   8  102.29    3.80
   0   2   8   99.09    3.70
   0  -1  -8   34.30    2.10
   0  -1  -8   37.60    1.70
   0  -1  -8   33.30    1.80
   0  -1  -8   36.60    2.40
   0  -1  -8   37.00    1.80
   0  -1  -8   36.80    1.90
   0  -1  -8   36.40    1.70
   0   1   8   39.80    1.90
   0   1   8   39.70    2.00
   0   1   8   37.60    1.70
   0   1   8   37.50    2.10
   0   1   8   33.10    1.80
   0   1   8   41.00    2.30
   0   1   8   38.90    1.80
   0   0  -8  139.59    5.60
   0   0  -8  157.88    6.30
   0   0  -8  156.78    5.50
   0   0  -8  148.29    5.60
   0   0  -8  144.89    5.50
   0   0  -8  154.08    5.50
   0   0  -8  156.58    5.20
   0   0   8  155.28    6.10
   0   0   8  149.79    5.70
   0   0   8  153.78    5.20
   0   0   8  154.48    6.10
   0   0   8  151.78    5.60
   0   0   8  152.98    5.50
   0   1  -8   41.40    2.00
   0   1  -8   38.70    1.90
   0   1  -8   40.60    2.10
   0   1  -8   42.50    2.10
   0   1  -8   40.40    2.50
   0   1  -8   42.50    1.90
   0  -1   8   35.20    1.90
   0  -1   8   40.80    2.50
   0  -1   8   41.50    1.60
   0  -1   8   42.90    2.00
   0  -1   8   42.70    1.60
   0  -1   8   42.50    2.10
   0   2  -8   45.30    2.70
   0   2  -8   42.30    2.20
   0   2  -8   40.40    2.00
   0   2  -8   38.40    2.00
   0   2  -8   41.90    2.00
   0   2  -8   44.00    2.20
   0   2  -8   45.30    2.10
   0  -2   8   41.10    1.70
   0  -2   8   44.10    1.80
   0  -2   8   43.60    2.10
   0  -2   8   40.20    2.60
   0  -2   8   41.40    2.10
   0  -2   8   43.00    2.20
   0   3  -8   25.70    1.50
   0   3  -8   23.80    1.50
   0   3  -8   24.90    1.70
   0   3  -8   23.10    1.40
   0   3  -8   24.00    1.50
   0  -3   8   25.30    1.50
   0  -3   8   23.60    2.10
   0  -3   8   25.20    1.20
   0   4  -8    5.70    0.90
   0   4  -8    6.00    1.00
   0   4  -8    8.10    1.00
   0   4  -8    6.30    0.80
   0   4  -8    6.50    0.90
   0  -4   8    8.10    1.00
   0  -4   8    5.90    1.40
   0   5  -8    3.20    0.70
   0   5  -8    3.30    0.80
   0   5  -8    2.90    0.70
   0  -5   8    2.30    0.70
   0  -5   8    4.70    1.30
   0   6  -8    0.60    0.60
   0   6  -8    0.60    0.50
   0   6  -8    0.00    0.40
   0  -6   8   -0.10    0.40
   0  -6   8   -0.70    0.70
  -1  -9  -8    1.70    1.20
  -1  -9  -8    3.20    1.40
   1   9   8    1.60    1.00
   1   9   8    3.70    0.90
   1   9   8    1.80    0.60
  -1  -8  -8    3.20    1.20
  -1  -8  -8    2.50    1.10
   1   8   8    2.40    0.70
   1   8   8    2.70    1.00
   1   8   8    2.90    0.80
  -1  -7  -8    0.10    0.80
  -1  -7  -8    0.10    0.60
   1   7   8    0.40    0.40
   1   7   8   -0.30    0.40
   1   7   8    0.10    0.40
   1   7   8   -0.30    0.50
  -1  -6  -8   28.70    1.70
  -1  -6  -8   28.90    1.60
  -1  -6  -8   29.30    2.30
  -1  -6  -8   26.80    2.30
   1   6   8   34.70    1.90
   1   6   8   32.40    1.60
   1   6   8   27.30    2.60
   1   6   8   31.40    1.80
   1   6   8   32.40    1.90
  -1  -5  -8   94.69    4.60
  -1  -5  -8   90.69    3.70
  -1  -5  -8   91.59    4.40
  -1  -5  -8   98.89    3.70
  -1  -5  -8   86.49    5.40
   1   5   8  101.79    4.00
   1   5   8   96.49    3.90
   1   5   8  100.99    5.00
   1   5   8   97.19    3.50
   1   5   8   95.19    4.00
  -1  -4  -8   18.80    1.90
  -1  -4  -8   23.30    1.20
  -1  -4  -8   22.60    1.20
  -1  -4  -8   20.60    1.70
  -1  -4  -8   21.70    1.30
  -1  -4  -8   22.70    1.80
   1   4   8   24.70    1.50
   1   4   8   22.10    1.20
   1   4   8   24.90    2.00
   1   4   8   25.50    1.50
   1   4   8   22.90    1.40
   1   4   8   25.60    1.50
  -1  -3  -8  139.79    6.50
  -1  -3  -8  149.79    6.00
  -1  -3  -8  147.89    5.20
  -1  -3  -8  158.18    5.60
  -1  -3  -8  148.49    5.40
  -1  -3  -8  153.48    5.50
   1   3   8  151.58    5.60
   1   3   8  164.28    5.50
   1   3   8  152.78    5.40
   1   3   8  150.38    5.60
   1   3   8  153.18    6.30
   1   3   8  154.88    5.70
  -1  -2  -8   33.50    1.60
  -1  -2  -8   34.30    1.70
  -1  -2  -8   35.00    1.60
  -1  -2  -8   33.60    1.40
  -1  -2  -8   32.40    1.80
  -1  -2  -8   33.60    1.60
  -1  -2  -8   32.30    2.30
  -1  -2  -8   34.80    1.70
   1   2   8   35.70    1.60
   1   2   8   36.40    1.80
   1   2   8   35.60    1.60
   1   2   8   37.00    2.20
   1   2   8   32.20    1.80
   1   2   8   36.70    1.80
   1   2   8   35.00    1.70
  -1  -1  -8   21.80    1.20
  -1  -1  -8   20.30    1.20
  -1  -1  -8   21.70    1.20
  -1  -1  -8   22.80    1.10
  -1  -1  -8   20.40    1.30
  -1  -1  -8   22.80    1.30
  -1  -1  -8   21.90    1.70
   1   1   8   19.70    1.10
   1   1   8   21.60    1.50
   1   1   8   20.40    1.20
   1   1   8   20.10    1.30
   1   1   8   21.30    1.60
   1   1   8   20.40    1.30
   1   1   8   23.40    1.20
  -1   0  -8  108.49    4.70
  -1   0  -8   99.29    3.90
  -1   0  -8  107.99    3.70
  -1   0  -8  101.19    4.10
  -1   0  -8  101.39    3.90
  -1   0  -8  101.39    3.80
  -1   0  -8  102.59    4.00
  -1   0  -8   99.69    4.10
   1   0   8   99.59    3.70
   1   0   8  102.89    4.50
   1   0   8   96.49    4.10
   1   0   8  104.09    4.00
   1   0   8  108.69    4.00
   1   0   8  104.59    3.70
   1   0   8  106.69    4.40
  -1   1  -8   43.80    1.70
  -1   1  -8   39.40    2.00
  -1   1  -8   40.90    1.90
  -1   1  -8   43.40    1.90
  -1   1  -8   45.10    2.60
  -1   1  -8   41.40    2.10
  -1   1  -8   40.60    2.00
  -1   1  -8   40.00    2.00
  -1   1  -8   43.50    2.20
   1  -1   8   44.00    1.80
   1  -1   8   42.80    1.70
   1  -1   8   43.60    2.10
   1  -1   8   41.40    2.50
   1  -1   8   42.20    2.10
   1  -1   8   43.30    2.00
  -1   2  -8    5.30    0.80
  -1   2  -8    4.60    0.80
  -1   2  -8    7.10    0.90
  -1   2  -8    4.30    1.00
  -1   2  -8    6.50    0.80
  -1   2  -8    7.30    0.90
  -1   2  -8    5.30    0.70
   1  -2   8    6.50    0.40
   1  -2   8    6.20    0.70
   1  -2   8    5.70    0.80
   1  -2   8    6.50    0.50
   1  -2   8    5.30    0.80
   1  -2   8    5.90    1.20
   1  -2   8    5.80    0.90
  -1   3  -8   14.60    1.20
  -1   3  -8   14.10    1.10
  -1   3  -8   14.10    1.20
  -1   3  -8   14.00    1.10
  -1   3  -8   13.40    1.40
   1  -3   8   16.60    2.00
   1  -3   8   17.20    1.00
   1  -3   8   15.20    1.20
  -1   4  -8   16.00    1.60
  -1   4  -8   19.60    1.30
  -1   4  -8   17.00    1.20
  -1   4  -8   15.50    1.30
  -1   4  -8   15.40    1.60
   1  -4   8   20.80    1.50
   1  -4   8   18.60    2.30
   1  -4   8   17.60    1.20
  -1   5  -8    0.80    0.60
  -1   5  -8    1.10    0.60
  -1   5  -8    0.50    0.50
   1  -5   8    1.00    0.50
   1  -5   8    0.90    0.80
  -1   6  -8   36.10    2.10
  -1   6  -8   38.60    2.60
  -1   6  -8   40.40    2.70
  -1   6  -8   35.00    2.30
   1  -6   8   39.30    3.30
  -2  -9  -8   -0.50    0.80
  -2  -9  -8    0.40    0.90
   2   9   8    0.20    0.70
   2   9   8    0.50    0.40
   2   9   8    0.50    0.50
  -2  -8  -8    7.80    1.60
  -2  -8  -8    3.80    1.30
   2   8   8    7.40    1.10
   2   8   8   10.40    1.50
   2   8   8    5.90    1.20
   2   8   8    7.90    1.00
  -2  -7  -8    9.10    1.50
  -2  -7  -8    8.40    1.60
  -2  -7  -8    7.10    0.90
   2   7   8    9.70    1.10
   2   7   8    8.40    1.00
   2   7   8    9.50    1.30
   2   7   8    8.50    0.90
  -2  -6  -8   12.00    1.70
  -2  -6  -8   16.00    1.90
  -2  -6  -8   11.00    0.90
  -2  -6  -8   12.20    0.90
   2   6   8   10.60    1.20
   2   6   8    9.20    1.10
   2   6   8   12.30    0.80
   2   6   8   13.50    2.00
   2   6   8   11.60    1.00
   2   6   8   11.00    0.70
  -2  -5  -8   21.90    1.80
  -2  -5  -8   19.20    1.20
  -2  -5  -8   22.20    1.90
  -2  -5  -8   20.60    1.10
  -2  -5  -8   21.30    1.30
  -2  -5  -8   17.30    2.00
   2   5   8   22.50    1.40
   2   5   8   22.10    1.30
   2   5   8   20.30    2.00
   2   5   8   19.80    1.30
   2   5   8   19.70    1.30
   2   5   8   21.70    1.10
  -2  -4  -8   56.09    2.30
  -2  -4  -8   49.90    3.30
  -2  -4  -8   51.69    2.90
  -2  -4  -8   56.39    2.40
  -2  -4  -8   50.99    2.10
   2   4   8   58.49    2.30
   2   4   8   58.19    3.30
   2   4   8   54.49    2.50
   2   4   8   54.69    2.40
   2   4   8   58.09    2.40
   2   4   8   54.39    2.40
  -2  -3  -8   19.60    1.80
  -2  -3  -8   21.30    1.20
  -2  -3  -8   20.50    1.20
  -2  -3  -8   20.70    0.90
  -2  -3  -8   20.90    1.20
  -2  -3  -8   20.60    1.50
  -2  -3  -8   21.00    1.30
   2   3   8   22.00    1.40
   2   3   8   18.70    1.30
   2   3   8   23.10    1.30
   2   3   8   24.30    1.90
   2   3   8   22.90    1.20
   2   3   8   21.60    1.20
   2   3   8   20.20    1.20
  -2  -2  -8    8.90    0.50
  -2  -2  -8   10.30    0.80
  -2  -2  -8    8.30    0.70
  -2  -2  -8    8.60    0.90
  -2  -2  -8    8.30    1.10
  -2  -2  -8    9.40    0.90
  -2  -2  -8    8.70    0.90
   2   2   8   10.50    1.20
   2   2   8   10.70    1.10
   2   2   8    9.00    0.80
   2   2   8   10.20    0.80
   2   2   8    9.20    0.90
   2   2   8    9.20    0.70
   2   2   8   10.40    1.10
  -2  -1  -8    4.50    0.60
  -2  -1  -8    4.60    0.90
  -2  -1  -8    4.30    0.60
  -2  -1  -8    4.50    0.50
  -2  -1  -8    4.50    0.70
  -2  -1  -8    3.40    0.60
  -2  -1  -8    5.00    0.60
  -2  -1  -8    4.60    0.40
   2   1   8    4.20    0.60
   2   1   8    3.80    0.80
   2   1   8    5.10    0.70
   2   1   8    4.20    0.60
   2   1   8    5.30    0.90
   2   1   8    4.10    0.70
   2   1   8    3.90    0.60
   2   1   8    5.00    0.70
  -2   0  -8    2.00    0.40
  -2   0  -8    3.30    0.60
  -2   0  -8    1.80    0.70
  -2   0  -8    2.20    0.50
  -2   0  -8    2.40    0.50
  -2   0  -8    2.80    0.50
   2   0   8    2.10    0.50
   2   0   8    2.60    0.40
   2   0   8    2.40    0.50
   2   0   8    1.90    0.60
   2   0   8    2.90    0.60
   2   0   8    2.30    0.60
   2   0   8    1.80    0.40
   2   0   8    3.90    0.80
  -2   1  -8   11.20    1.30
  -2   1  -8   11.90    1.20
  -2   1  -8   10.40    0.80
  -2   1  -8   12.30    0.80
  -2   1  -8   11.90    1.20
  -2   1  -8   10.60    0.90
  -2   1  -8   11.20    1.30
   2  -1   8   10.30    1.10
   2  -1   8   13.50    1.50
   2  -1   8   11.60    0.90
   2  -1   8   10.60    1.10
   2  -1   8   10.70    0.90
   2  -1   8   12.00    0.90
   2  -1   8   11.10    0.70
  -2   2  -8    1.10    0.40
  -2   2  -8    0.90    0.50
  -2   2  -8    0.40    0.40
  -2   2  -8    0.50    0.40
  -2   2  -8    0.40    0.30
  -2   2  -8    0.20    0.60
   2  -2   8    0.80    0.50
   2  -2   8    0.20    0.50
   2  -2   8    0.20    0.20
   2  -2   8    0.70    0.20
   2  -2   8    0.80    0.40
   2  -2   8    0.40    0.40
   2  -2   8    0.30    0.40
  -2   3  -8   11.30    1.40
  -2   3  -8   14.30    1.40
  -2   3  -8   14.30    1.10
  -2   3  -8   12.00    1.10
   2  -3   8   14.30    1.90
   2  -3   8   14.40    1.50
   2  -3   8   13.40    1.00
  -2   4  -8   -0.20    0.40
  -2   4  -8    0.20    0.50
  -2   4  -8    0.00    0.40
  -2   4  -8    0.50    0.50
   2  -4   8    0.30    0.40
   2  -4   8    0.50    0.70
   2  -4   8    1.30    0.50
  -2   5  -8   21.40    1.50
  -2   5  -8   19.40    1.70
  -2   5  -8   21.30    2.10
  -2   5  -8   20.40    1.70
   2  -5   8   22.50    1.70
   2  -5   8   23.90    2.80
  -2   6  -8    3.60    1.00
  -2   6  -8    3.20    1.00
  -2   6  -8    3.80    1.00
   2  -6   8    3.70    1.30
  -3  -9  -8   16.00    2.40
  -3  -9  -8   17.90    2.30
   3   9   8   17.90    1.30
   3   9   8   19.10    1.50
   3   9   8   17.00    1.90
  -3  -8  -8   23.20    2.10
  -3  -8  -8   26.40    2.50
   3   8   8   25.50    1.90
   3   8   8   26.30    1.70
   3   8   8   23.40    1.40
  -3  -7  -8   23.90    1.70
  -3  -7  -8   25.20    2.70
  -3  -7  -8   24.10    2.00
  -3  -7  -8   19.30    1.40
   3   7   8   23.40    1.50
   3   7   8   21.70    1.30
   3   7   8   24.30    1.30
   3   7   8   25.20    1.70
  -3  -6  -8  108.49    4.80
  -3  -6  -8   98.59    3.80
  -3  -6  -8   96.69    4.90
  -3  -6  -8   94.19    4.10
  -3  -6  -8  102.59    3.90
   3   6   8  109.09    3.80
   3   6   8  110.99    5.50
   3   6   8  107.09    4.20
   3   6   8  108.89    3.80
   3   6   8  103.09    4.00
   3   6   8  109.89    4.20
  -3  -5  -8   38.10    1.60
  -3  -5  -8   40.80    1.80
  -3  -5  -8   36.80    2.90
  -3  -5  -8   39.90    2.60
  -3  -5  -8   42.70    2.00
   3   5   8   41.20    2.00
   3   5   8   42.10    1.90
   3   5   8   42.10    2.00
   3   5   8   43.40    2.90
   3   5   8   42.10    1.90
   3   5   8   43.50    2.00
   3   5   8   39.70    1.80
  -3  -4  -8   40.70    1.90
  -3  -4  -8   36.40    2.70
  -3  -4  -8   41.10    2.40
  -3  -4  -8   41.50    1.80
  -3  -4  -8   39.80    1.90
  -3  -4  -8   39.70    1.40
   3   4   8   39.20    1.80
   3   4   8   40.00    2.00
   3   4   8   42.70    2.70
   3   4   8   38.70    2.10
   3   4   8   42.00    1.80
   3   4   8   37.10    1.90
   3   4   8   43.70    1.80
   3   4   8   38.60    1.90
  -3  -3  -8   12.60    1.20
  -3  -3  -8   10.60    1.40
  -3  -3  -8   11.90    0.90
  -3  -3  -8   12.40    0.90
  -3  -3  -8   11.50    0.90
  -3  -3  -8   12.30    0.90
   3   3   8   12.30    1.00
   3   3   8   14.10    1.40
   3   3   8   13.40    0.90
   3   3   8   13.90    0.80
   3   3   8   11.70    1.00
   3   3   8   13.70    0.90
   3   3   8   12.90    1.00
  -3  -2  -8    5.60    1.00
  -3  -2  -8    6.00    0.70
  -3  -2  -8    5.40    0.80
  -3  -2  -8    6.20    0.70
  -3  -2  -8    6.60    0.60
  -3  -2  -8    7.00    0.80
   3   2   8    5.40    0.70
   3   2   8    5.90    0.70
   3   2   8    6.70    0.80
   3   2   8    7.90    0.90
   3   2   8    7.20    0.80
   3   2   8    7.10    0.80
   3   2   8    6.80    1.10
   3   2   8    6.20    0.80
  -3  -1  -8   52.79    2.30
  -3  -1  -8   49.40    2.40
  -3  -1  -8   50.79    2.00
  -3  -1  -8   49.40    2.10
  -3  -1  -8   47.30    1.80
  -3  -1  -8   49.00    2.90
   3   1   8   51.69    2.40
   3   1   8   53.69    2.30
   3   1   8   49.99    2.80
   3   1   8   55.69    2.50
   3   1   8   50.89    2.20
   3   1   8   50.89    2.30
   3   1   8   51.69    2.40
   3   1   8   47.80    2.40
  -3   0  -8   -0.10    0.20
  -3   0  -8    0.30    0.30
  -3   0  -8   -0.20    0.20
  -3   0  -8    0.50    0.40
  -3   0  -8   -0.60    0.40
  -3   0  -8   -0.20    0.30
  -3   0  -8    0.80    0.40
   3   0   8    0.30    0.30
   3   0   8   -0.20    0.20
   3   0   8    0.30    0.30
   3   0   8   -0.20    0.30
   3   0   8   -0.20    0.20
   3   0   8    0.20    0.30
   3   0   8    0.20    0.20
  -3   1  -8   -0.30    0.20
  -3   1  -8    0.60    0.40
  -3   1  -8   -0.20    0.30
  -3   1  -8    0.10    0.40
  -3   1  -8    0.10    0.30
  -3   1  -8   -0.10    0.50
   3  -1   8   -0.20    0.20
   3  -1   8    0.00    0.30
   3  -1   8   -0.30    0.30
   3  -1   8    0.50    0.50
   3  -1   8   -0.10    0.20
   3  -1   8    0.20    0.40
  -3   2  -8    4.50    0.60
  -3   2  -8    7.60    0.80
  -3   2  -8    5.90    0.90
  -3   2  -8    4.60    0.90
  -3   2  -8    5.90    0.80
   3  -2   8    4.70    1.00
   3  -2   8    4.30    0.80
   3  -2   8    6.00    0.60
   3  -2   8    4.60    0.70
   3  -2   8    5.80    0.90
  -3   3  -8    6.30    1.10
  -3   3  -8    7.40    0.90
  -3   3  -8    9.80    0.80
  -3   3  -8    9.20    1.30
   3  -3   8    7.50    0.90
   3  -3   8   10.00    1.60
   3  -3   8   10.00    1.30
  -3   4  -8    1.20    0.60
  -3   4  -8    1.30    0.70
  -3   4  -8    0.90    0.70
   3  -4   8    0.50    0.50
   3  -4   8   -0.40    0.40
   3  -4   8    0.10    0.60
  -3   5  -8    0.30    0.60
  -3   5  -8    0.40    0.70
  -3   5  -8    0.80    0.60
   3  -5   8   -0.10    0.70
   3  -5   8    0.80    0.60
  -4  -9  -8    2.00    1.00
  -4  -9  -8    0.80    0.90
   4   9   8    1.70    0.60
   4   9   8    1.00    0.70
   4   9   8    1.00    0.40
  -4  -8  -8    1.30    0.60
  -4  -8  -8    3.20    1.00
  -4  -8  -8    4.80    1.40
   4   8   8    2.70    0.60
   4   8   8    2.70    0.50
   4   8   8    2.60    0.80
  -4  -7  -8   44.50    2.70
  -4  -7  -8   43.30    2.20
  -4  -7  -8   38.40    2.90
   4   7   8   46.10    2.20
   4   7   8   41.00    2.00
   4   7   8   42.40    2.30
  -4  -6  -8    3.30    1.00
  -4  -6  -8    2.40    0.60
   4   6   8    2.90    0.60
   4   6   8    2.50    0.50
   4   6   8    2.30    0.50
   4   6   8    2.80    0.30
   4   6   8    3.70    0.60
   4   6   8    3.70    1.10
  -4  -5  -8    6.10    0.80
  -4  -5  -8    5.90    0.70
  -4  -5  -8    5.60    0.60
  -4  -5  -8    4.70    1.20
  -4  -5  -8    7.00    1.20
   4   5   8    6.20    0.70
   4   5   8    7.00    1.00
   4   5   8    6.30    0.70
   4   5   8    5.10    0.70
   4   5   8    6.20    0.80
   4   5   8    6.80    0.70
   4   5   8    7.60    1.40
  -4  -4  -8    1.40    0.70
  -4  -4  -8    0.50    0.30
  -4  -4  -8    0.70    0.30
  -4  -4  -8    0.70    0.30
  -4  -4  -8    1.00    0.60
  -4  -4  -8    0.70    0.30
   4   4   8    0.90    0.30
   4   4   8    1.30    0.40
   4   4   8    0.80    0.30
   4   4   8    1.30    0.40
   4   4   8    0.90    0.30
   4   4   8    1.00    0.40
   4   4   8    1.30    0.40
   4   4   8    1.20    0.50
   4   4   8    1.50    0.70
  -4  -3  -8   38.50    1.80
  -4  -3  -8   34.60    1.60
  -4  -3  -8   35.10    2.50
  -4  -3  -8   37.20    1.80
  -4  -3  -8   36.80    1.90
  -4  -3  -8   37.80    2.10
   4   3   8   38.90    1.90
   4   3   8   38.20    2.00
   4   3   8   42.60    2.50
   4   3   8   44.30    2.00
   4   3   8   39.60    2.00
   4   3   8   37.00    1.90
   4   3   8   41.20    1.90
  -4  -2  -8   62.79    2.80
  -4  -2  -8   59.49    2.30
  -4  -2  -8   63.59    2.80
  -4  -2  -8   64.79    2.90
  -4  -2  -8   66.19    2.70
   4   2   8   65.09    2.90
   4   2   8   67.09    2.80
   4   2   8   64.59    2.80
   4   2   8   64.89    2.80
   4   2   8   65.99    3.30
   4   2   8   63.49    2.70
   4   2   8   66.79    2.90
  -4  -1  -8   89.79    3.80
  -4  -1  -8   87.49    3.20
  -4  -1  -8   87.89    3.10
  -4  -1  -8   92.99    3.60
  -4  -1  -8   89.99    3.70
   4   1   8   90.29    3.60
   4   1   8   97.69    4.30
   4   1   8   86.69    3.80
   4   1   8   92.59    3.60
   4   1   8   91.89    3.70
   4   1   8   88.99    4.20
   4   1   8   91.49    3.80
   4   1   8   94.79    3.80
  -4   0  -8   -0.10    0.30
  -4   0  -8    0.30    0.30
  -4   0  -8    0.60    0.30
  -4   0  -8    0.00    0.50
  -4   0  -8    0.30    0.40
  -4   0  -8    0.50    0.20
   4   0   8   -0.10    0.30
   4   0   8   -0.10    0.30
   4   0   8    0.30    0.40
   4   0   8   -0.10    0.20
   4   0   8    0.80    0.40
   4   0   8    0.00    0.30
   4   0   8   -0.20    0.20
  -4   1  -8   14.60    1.00
  -4   1  -8   15.40    1.10
  -4   1  -8   16.10    1.30
  -4   1  -8   15.30    1.60
   4  -1   8   15.20    1.20
   4  -1   8   17.50    1.40
   4  -1   8   15.80    1.00
   4  -1   8   15.00    1.50
   4  -1   8   14.10    1.30
  -4   2  -8    0.90    0.50
  -4   2  -8    0.00    0.50
  -4   2  -8    1.10    0.40
  -4   2  -8    0.40    0.40
  -4   2  -8    0.50    0.40
  -4   2  -8    1.20    0.40
   4  -2   8    0.80    0.40
   4  -2   8    0.80    0.40
   4  -2   8    0.90    0.30
   4  -2   8    0.40    0.50
   4  -2   8    0.90    0.50
   4  -2   8    0.70    0.40
   4  -2   8   -0.20    0.40
  -4   3  -8   95.89    3.80
  -4   3  -8   99.49    4.60
  -4   3  -8   86.19    4.00
  -4   3  -8   96.69    4.30
   4  -3   8   95.69    4.60
   4  -3   8   92.19    4.30
   4  -3   8   95.29    4.00
  -4   4  -8   42.80    3.10
  -4   4  -8   42.20    2.60
  -4   4  -8   50.39    2.30
  -4   4  -8   45.80    2.80
   4  -4   8   48.00    2.60
   4  -4   8   44.30    2.80
   4  -4   8   48.70    3.20
  -5  -9  -8   17.40    2.10
  -5  -9  -8   16.40    1.40
  -5  -9  -8   14.70    2.20
   5   9   8   16.60    1.20
   5   9   8   17.20    1.60
   5   9   8   18.50    1.10
  -5  -8  -8    2.50    0.70
  -5  -8  -8    0.10    0.60
   5   8   8    1.40    0.40
   5   8   8    1.00    0.60
   5   8   8    1.00    0.40
  -5  -7  -8   46.90    3.10
  -5  -7  -8   46.90    2.40
   5   7   8   51.29    2.40
   5   7   8   46.40    2.70
   5   7   8   48.60    2.10
   5   7   8   50.29    2.30
  -5  -6  -8    0.20    0.60
  -5  -6  -8   -0.10    0.30
   5   6   8   -0.10    0.30
   5   6   8   -0.20    0.30
   5   6   8   -0.60    0.40
   5   6   8    0.20    0.20
   5   6   8   -0.10    0.20
   5   6   8    0.50    0.40
  -5  -5  -8    5.30    0.60
  -5  -5  -8    4.50    0.80
  -5  -5  -8    3.20    1.10
  -5  -5  -8    4.50    1.10
   5   5   8    5.80    0.80
   5   5   8    3.90    1.00
   5   5   8    4.60    0.60
   5   5   8    3.80    0.60
   5   5   8    3.70    0.80
   5   5   8    4.50    0.80
   5   5   8    4.70    0.50
  -5  -4  -8    2.50    0.60
  -5  -4  -8    2.20    0.80
  -5  -4  -8    1.90    0.50
  -5  -4  -8    3.00    0.80
  -5  -4  -8    2.00    0.50
   5   4   8    2.70    0.80
   5   4   8    2.20    0.50
   5   4   8    2.80    0.50
   5   4   8    2.80    0.60
   5   4   8    2.80    0.60
   5   4   8    4.50    0.80
  -5  -3  -8   31.90    1.70
  -5  -3  -8   30.70    1.70
  -5  -3  -8   33.50    2.00
  -5  -3  -8   30.20    1.70
  -5  -3  -8   30.80    2.40
   5   3   8   32.40    1.80
   5   3   8   36.90    2.30
   5   3   8   32.60    1.80
   5   3   8   33.00    1.90
   5   3   8   33.80    1.80
   5   3   8   31.90    1.80
  -5  -2  -8   -0.50    0.40
  -5  -2  -8   -0.10    0.20
  -5  -2  -8    0.40    0.40
  -5  -2  -8   -0.10    0.30
   5   2   8   -0.10    0.40
   5   2   8    0.20    0.30
   5   2   8   -0.10    0.30
   5   2   8    0.30    0.40
   5   2   8    0.40    0.40
   5   2   8   -0.10    0.30
  -5  -1  -8    8.70    1.10
  -5  -1  -8    9.60    1.00
  -5  -1  -8    7.10    1.30
  -5  -1  -8    9.70    1.10
   5   1   8    9.50    1.10
   5   1   8    8.60    1.10
   5   1   8    7.90    0.90
   5   1   8   11.10    1.20
  -5   0  -8    4.30    0.90
  -5   0  -8    2.00    0.90
  -5   0  -8    1.70    0.50
  -5   0  -8    1.80    0.50
  -5   0  -8    1.50    0.40
  -5   0  -8    1.70    0.60
   5   0   8    2.80    0.70
   5   0   8    2.00    0.50
   5   0   8    2.20    0.70
   5   0   8    2.60    0.40
   5   0   8    2.60    0.70
  -5   1  -8    5.70    0.80
  -5   1  -8    6.70    0.90
  -5   1  -8    5.10    0.70
  -5   1  -8    4.50    0.90
   5  -1   8    7.30    1.10
   5  -1   8    5.20    0.80
   5  -1   8    6.30    0.80
   5  -1   8    6.20    1.00
   5  -1   8    5.00    0.90
  -5   2  -8   12.20    1.20
  -5   2  -8   13.30    1.60
  -5   2  -8    8.30    1.00
   5  -2   8   12.10    1.50
   5  -2   8   11.00    1.00
   5  -2   8    9.80    1.20
   5  -2   8   13.10    2.20
  -5   3  -8  181.98    7.70
  -5   3  -8  202.48    7.20
   5  -3   8  198.18    7.80
   5  -3   8  193.48    7.50
  -5   4  -8    0.10    0.60
  -5   4  -8   -0.40    0.40
   5  -4   8    0.50    0.60
   5  -4   8   -0.30    0.50
  -6  -9  -8    6.90    1.00
  -6  -9  -8    8.90    1.80
   6   9   8   11.10    0.90
   6   9   8    9.40    2.00
   6   9   8    9.20    1.40
  -6  -8  -8    3.40    0.80
  -6  -8  -8    4.80    1.20
   6   8   8    5.30    1.30
   6   8   8    4.00    0.60
   6   8   8    4.00    0.90
   6   8   8    4.10    0.50
  -6  -7  -8   10.50    1.70
  -6  -7  -8   11.30    1.20
   6   7   8   12.10    0.90
   6   7   8   11.10    1.40
   6   7   8   12.50    0.90
  -6  -6  -8    4.20    1.10
  -6  -6  -8    4.90    0.80
   6   6   8    4.10    0.90
   6   6   8    5.00    0.70
   6   6   8    4.80    1.20
   6   6   8    3.90    0.70
  -6  -5  -8    0.30    0.60
  -6  -5  -8    0.70    0.40
   6   5   8    0.30    0.40
   6   5   8    0.40    0.40
   6   5   8    0.60    0.30
   6   5   8    0.20    0.50
   6   5   8    0.30    0.30
  -6  -4  -8   -0.10    0.30
  -6  -4  -8    0.10    0.30
  -6  -4  -8   -0.70    0.40
  -6  -4  -8   -0.20    0.40
   6   4   8    0.10    0.40
   6   4   8   -0.20    0.30
   6   4   8   -0.10    0.20
   6   4   8   -0.50    0.40
   6   4   8   -0.70    0.20
  -6  -3  -8   11.00    1.10
  -6  -3  -8    8.00    1.40
  -6  -3  -8    6.30    0.80
   6   3   8   10.00    1.10
   6   3   8   10.70    1.20
   6   3   8   11.40    1.20
   6   3   8   10.50    1.30
   6   3   8   12.50    1.20
  -6  -2  -8   19.10    1.30
  -6  -2  -8   15.80    1.70
  -6  -2  -8   16.90    1.30
   6   2   8   18.80    1.30
   6   2   8   19.30    1.40
   6   2   8   18.90    1.40
   6   2   8   19.40    1.60
   6   2   8   18.60    1.40
  -6  -1  -8    0.70    0.40
  -6  -1  -8    0.50    0.60
  -6  -1  -8    2.00    0.60
   6   1   8   -0.10    0.30
   6   1   8    0.40    0.40
   6   1   8    0.50    0.50
   6   1   8    0.00    0.40
  -6   0  -8    0.00    0.40
  -6   0  -8   -0.20    0.40
   6   0   8    0.10    0.40
   6   0   8   -0.30    0.30
   6   0   8    0.50    0.40
   6   0   8   -0.30    0.50
   6   0   8    0.30    0.40
  -6   1  -8    3.30    0.70
  -6   1  -8    2.90    0.80
   6  -1   8    2.70    0.80
   6  -1   8    3.30    0.90
   6  -1   8    1.50    0.50
   6  -1   8    3.30    0.90
   6  -1   8    3.30    0.70
  -6   2  -8   71.39    3.20
  -6   2  -8   70.69    3.70
   6  -2   8   70.99    3.50
   6  -2   8   69.89    3.70
  -6   3  -8   28.50    1.90
  -6   3  -8   26.00    2.20
   6  -3   8   32.90    2.20
   6  -3   8   29.90    2.30
  -7  -9  -8   23.80    1.60
  -7  -9  -8   17.90    2.40
   7   9   8   24.40    2.00
   7   9   8   20.60    1.30
  -7  -8  -8    0.60    0.80
  -7  -8  -8   -0.50    0.30
   7   8   8   -0.20    0.20
   7   8   8    0.50    0.30
   7   8   8   -0.10    0.40
  -7  -7  -8    7.80    1.10
  -7  -7  -8    7.30    1.40
   7   7   8    9.20    1.00
   7   7   8    9.50    1.40
   7   7   8    7.20    0.80
  -7  -6  -8   26.80    2.20
  -7  -6  -8   26.90    1.70
   7   6   8   28.60    2.00
   7   6   8   24.90    1.50
   7   6   8   29.80    2.40
   7   6   8   27.80    1.50
  -7  -5  -8   90.89    4.60
  -7  -5  -8   88.79    4.00
   7   5   8   98.59    4.30
   7   5   8   97.79    3.90
   7   5   8  106.89    4.80
   7   5   8   96.99    4.00
  -7  -4  -8   87.19    3.70
  -7  -4  -8   70.09    4.40
   7   4   8   93.29    4.30
   7   4   8   87.39    3.90
   7   4   8   87.89    3.70
   7   4   8   90.79    3.70
  -7  -3  -8    0.30    0.40
  -7  -3  -8   -0.10    0.30
  -7  -3  -8   -0.30    0.40
   7   3   8   -0.10    0.40
   7   3   8    0.10    0.50
   7   3   8    0.50    0.40
   7   3   8    0.00    0.40
  -7  -2  -8    6.30    0.90
  -7  -2  -8    4.70    0.90
   7   2   8    6.70    1.10
   7   2   8    3.60    0.80
   7   2   8    4.60    0.90
   7   2   8    3.50    0.80
  -7  -1  -8    2.10    0.70
  -7  -1  -8    2.70    0.70
   7   1   8    2.80    0.80
   7   1   8    2.90    0.80
   7   1   8    2.50    0.70
   7   1   8    1.10    0.70
  -7   0  -8   15.20    1.70
  -7   0  -8   16.20    1.30
   7   0   8   16.60    1.80
   7   0   8   15.00    1.60
   7   0   8   14.70    1.30
   7   0   8   18.10    1.80
  -7   1  -8    0.40    0.50
  -7   1  -8    0.50    0.50
   7  -1   8    0.50    0.60
   7  -1   8    0.40    0.60
  -7   2  -8    1.70    0.70
  -7   2  -8    0.90    0.70
   7  -2   8    1.50    0.80
   7  -2   8    0.90    0.70
  -8  -8  -8    0.90    0.90
  -8  -8  -8    0.60    0.50
   8   8   8    0.80    0.40
   8   8   8    0.80    0.60
  -8  -7  -8    1.60    0.60
  -8  -7  -8    2.10    1.00
   8   7   8    0.50    0.60
   8   7   8    1.30    0.50
   8   7   8    0.50    0.30
  -8  -6  -8   -0.30    0.70
  -8  -6  -8    0.50    0.40
   8   6   8    0.60    0.40
   8   6   8   -0.20    0.40
   8   6   8    0.50    0.30
   8   6   8    0.00    0.60
  -8  -5  -8   72.69    3.40
   8   5   8   75.59    3.40
   8   5   8   70.49    3.20
   8   5   8   74.19    3.60
   8   5   8   80.19    4.00
  -8  -4  -8    0.30    0.40
   8   4   8   -0.40    0.50
   8   4   8    0.00    0.30
   8   4   8    0.20    0.50
   8   4   8    0.30    0.40
   8   4   8    0.40    0.50
  -8  -3  -8    0.80    0.50
   8   3   8    0.50    0.50
   8   3   8    0.50    0.60
   8   3   8    0.60    0.40
   8   3   8    0.90    0.60
  -8  -2  -8   32.50    2.00
   8   2   8   32.80    2.20
   8   2   8   31.40    2.10
   8   2   8   33.20    2.20
   8   2   8   27.90    2.10
  -8  -1  -8    0.80    0.60
   8   1   8    0.40    0.50
   8   1   8    1.00    0.70
   8   1   8   -0.20    0.40
   8   1   8   -0.20    0.50
  -8   0  -8    8.50    1.20
  -8   0  -8    7.90    1.30
   8   0   8    8.40    1.20
   8   0   8    7.50    1.40
   8   0   8    7.60    1.30
   8   0   8    9.80    1.40
  -9  -7  -8    1.60    0.90
  -9  -7  -8    2.50    0.70
   9   7   8    2.10    0.50
   9   7   8    2.30    0.80
   9   7   8    1.70    0.50
  -9  -6  -8   13.50    1.50
   9   6   8   14.10    1.30
   9   6   8   12.30    1.30
   9   6   8   13.20    1.80
   9   6   8   12.10    1.50
  -9  -5  -8    5.60    1.00
   9   5   8    6.60    1.30
   9   5   8    5.60    1.00
   9   5   8    5.40    0.90
   9   5   8    6.20    1.20
  -9  -4  -8    0.30    0.50
   9   4   8   -0.10    0.40
   9   4   8    1.10    0.70
   9   4   8    0.50    0.50
   9   4   8   -0.30    0.50
  -9  -3  -8    8.40    1.20
   9   3   8   10.10    1.30
   9   3   8    8.30    1.20
   9   3   8    7.40    1.20
   9   3   8   11.40    1.70
  -9  -2  -8   18.30    1.60
   9   2   8   16.50    1.90
   9   2   8   15.50    1.80
   9   2   8   18.80    2.00
   9   2   8   19.00    2.00
   6  -1  -9   36.80    2.60
   6  -1  -9   37.10    2.40
   6  -1  -9   37.30    2.20
  -6   1   9   40.20    2.50
  -6   1   9   33.90    2.30
   6   0  -9    2.20    0.80
   6   0  -9    2.10    0.80
   6   0  -9    2.50    0.70
   6   0  -9    2.90    0.80
  -6   0   9    2.70    0.80
  -6   0   9    1.20    1.00
   6   1  -9   27.20    1.90
   6   1  -9   26.10    1.90
   6   1  -9   26.70    2.00
   6   1  -9   25.80    1.80
  -6  -1   9   25.40    1.90
  -6  -1   9   21.50    2.80
   6   2  -9    1.20    0.50
   6   2  -9   -0.20    0.40
   6   2  -9    0.50    0.60
   6   2  -9    1.40    0.70
  -6  -2   9    1.20    0.60
  -6  -2   9    1.40    0.90
   6   3  -9    3.60    0.80
   6   3  -9    2.40    0.80
   6   3  -9    3.40    0.90
   6   3  -9    3.20    0.90
  -6  -3   9    2.80    0.80
  -6  -3   9    2.80    1.20
   6   4  -9   19.70    1.60
   6   4  -9   22.80    1.70
   6   4  -9   20.60    1.50
  -6  -4   9   15.60    1.90
  -6  -4   9   18.30    2.70
   5  -3  -9    0.40    0.60
   5  -3  -9   -0.20    0.70
   5  -3  -9    0.20    0.50
  -5   3   9   -0.30    0.50
  -5   3   9    0.60    0.70
  -5   3   9   -0.40    0.50
   5  -2  -9   10.60    1.40
   5  -2  -9   14.00    1.80
   5  -2  -9    8.90    1.10
   5  -2  -9   10.60    1.30
  -5   2   9    8.10    1.20
  -5   2   9   10.00    1.30
   5  -1  -9    7.50    1.00
   5  -1  -9    9.10    1.20
   5  -1  -9    9.00    1.20
   5  -1  -9   11.20    1.40
  -5   1   9   12.70    1.50
  -5   1   9   10.00    1.30
   5   0  -9   10.50    1.20
   5   0  -9   10.10    1.30
   5   0  -9   12.10    1.30
   5   0  -9   11.40    1.40
  -5   0   9   12.60    1.40
  -5   0   9    8.40    1.30
  -5   0   9   10.80    1.80
   5   1  -9    4.40    0.90
   5   1  -9    3.50    0.80
   5   1  -9    5.40    0.90
   5   1  -9    3.50    0.80
  -5  -1   9    5.20    0.90
  -5  -1   9    4.20    1.20
  -5  -1   9    4.40    0.90
   5   2  -9   17.90    1.70
   5   2  -9   14.10    1.50
   5   2  -9   16.50    1.40
   5   2  -9   14.90    1.50
  -5  -2   9   14.50    1.60
  -5  -2   9   13.70    2.00
   5   3  -9   10.10    1.30
   5   3  -9   10.80    1.20
   5   3  -9    8.20    1.20
   5   3  -9   12.00    1.30
  -5  -3   9    9.80    1.30
  -5  -3   9    9.10    1.90
   5   4  -9    0.80    0.50
   5   4  -9    1.60    0.60
   5   4  -9    1.90    0.60
   5   4  -9    2.40    0.80
  -5  -4   9    4.20    1.40
  -5  -4   9    2.70    0.90
   5   5  -9    9.30    1.10
   5   5  -9    8.20    1.20
   5   5  -9    6.90    1.10
  -5  -5   9    5.70    1.70
  -5  -5   9    9.70    1.40
   4  -4  -9   -0.10    0.40
   4  -4  -9    0.00    0.80
   4  -4  -9    0.60    0.60
  -4   4   9   -0.10    0.50
  -4   4   9   -0.30    0.60
  -4   4   9    0.90    0.60
   4  -3  -9    0.40    0.50
   4  -3  -9    1.60    0.90
   4  -3  -9    0.70    0.50
  -4   3   9    0.30    0.50
  -4   3   9    1.00    0.60
  -4   3   9    0.40    0.50
   4  -2  -9    3.80    0.80
   4  -2  -9    2.50    0.70
   4  -2  -9    2.60    0.60
   4  -2  -9    2.40    0.90
   4  -2  -9    3.40    0.80
   4  -2  -9    1.90    0.50
  -4   2   9    3.70    0.80
  -4   2   9    3.30    0.80
  -4   2   9    2.70    0.70
   4  -1  -9    0.50    0.40
   4  -1  -9   -0.40    0.40
   4  -1  -9   -0.20    0.40
   4  -1  -9    0.20    0.50
   4  -1  -9    0.00    0.40
  -4   1   9   -0.10    0.40
  -4   1   9   -0.40    0.40
   4   0  -9    0.00    0.50
   4   0  -9    0.00    0.40
   4   0  -9    0.20    0.40
   4   0  -9   -0.60    0.40
  -4   0   9    0.20    0.40
  -4   0   9   -0.20    0.30
  -4   0   9    0.30    0.70
  -4   0   9    0.20    0.50
   4   1  -9   14.50    1.50
   4   1  -9   14.60    1.20
   4   1  -9   13.30    1.20
   4   1  -9   13.90    1.30
  -4  -1   9   13.70    1.40
  -4  -1   9   13.00    1.40
  -4  -1   9   13.10    1.90
   4   2  -9    7.80    1.00
   4   2  -9    7.00    1.00
   4   2  -9    7.40    1.00
   4   2  -9    8.20    1.00
  -4  -2   9    7.80    1.00
  -4  -2   9    7.90    1.60
  -4  -2   9    7.60    1.10
   4   3  -9   21.50    1.60
   4   3  -9   20.20    1.40
   4   3  -9   21.20    1.50
   4   3  -9   22.10    1.60
  -4  -3   9   24.20    2.80
  -4  -3   9   24.20    1.70
   4   4  -9    9.30    1.00
   4   4  -9   10.70    1.20
   4   4  -9   11.90    1.20
   4   4  -9   11.00    1.30
  -4  -4   9    8.80    1.30
  -4  -4   9   14.00    2.20
   4   5  -9   -0.20    0.40
   4   5  -9   -0.20    0.40
   4   5  -9    0.90    0.70
  -4  -5   9    0.70    0.60
  -4  -5   9    0.00    0.80
   4   6  -9    8.90    1.10
   4   6  -9   10.50    1.30
   4   6  -9    8.60    1.20
  -4  -6   9    8.30    1.20
  -4  -6   9    9.90    2.20
   3  -5  -9    2.50    1.10
   3  -5  -9    1.10    1.00
   3  -5  -9    2.10    0.70
  -3   5   9    2.30    0.90
  -3   5   9    1.70    0.70
   3  -4  -9    0.30    0.40
   3  -4  -9    0.90    0.80
   3  -4  -9    0.70    0.60
  -3   4   9    0.40    0.60
  -3   4   9    0.60    0.50
  -3   4   9    0.40    0.50
   3  -3  -9    2.40    0.70
   3  -3  -9    2.30    0.50
   3  -3  -9    4.40    0.90
   3  -3  -9    3.90    0.70
   3  -3  -9    2.80    0.90
  -3   3   9    3.20    0.70
  -3   3   9    2.40    0.70
  -3   3   9    2.40    0.80
  -3   3   9    4.00    0.80
   3  -2  -9    2.00    0.60
   3  -2  -9    1.80    0.60
   3  -2  -9    2.40    0.90
   3  -2  -9    1.80    0.60
   3  -2  -9    2.30    0.60
   3  -2  -9    0.80    0.40
   3  -2  -9    2.30    0.80
  -3   2   9    2.10    0.60
  -3   2   9    1.50    0.50
  -3   2   9    3.60    0.70
  -3   2   9    2.80    0.60
  -3   2   9    2.10    0.80
   3  -1  -9   60.29    2.80
   3  -1  -9   55.29    2.50
   3  -1  -9   55.59    2.70
   3  -1  -9   52.29    2.60
   3  -1  -9   51.19    3.20
   3  -1  -9   56.29    2.50
  -3   1   9   50.99    2.40
  -3   1   9   53.49    2.70
  -3   1   9   56.39    2.90
  -3   1   9   58.09    2.70
   3   0  -9   24.90    1.50
   3   0  -9   25.30    1.60
   3   0  -9   28.00    1.70
   3   0  -9   29.10    1.60
   3   0  -9   23.70    2.00
   3   0  -9   23.90    1.60
  -3   0   9   24.50    1.40
  -3   0   9   24.10    1.60
  -3   0   9   25.80    2.20
  -3   0   9   29.40    1.70
   3   1  -9   13.30    1.10
   3   1  -9   11.20    1.20
   3   1  -9   11.00    1.20
   3   1  -9   13.20    1.10
   3   1  -9   11.20    1.10
   3   1  -9   12.40    1.50
  -3  -1   9   13.40    1.10
  -3  -1   9   15.40    1.90
  -3  -1   9   14.10    1.20
  -3  -1   9   12.60    0.90
   3   2  -9   40.00    2.10
   3   2  -9   38.30    2.60
   3   2  -9   39.00    2.10
   3   2  -9   40.90    2.00
   3   2  -9   38.70    2.20
  -3  -2   9   39.20    2.20
  -3  -2   9   41.60    2.10
  -3  -2   9   40.10    2.90
   3   3  -9   67.69    3.10
   3   3  -9   64.99    3.20
   3   3  -9   68.79    3.10
   3   3  -9   72.59    3.00
  -3  -3   9   72.89    3.30
  -3  -3   9   73.19    4.30
  -3  -3   9   72.49    3.20
   3   4  -9   12.50    1.30
   3   4  -9   12.20    1.40
   3   4  -9   11.70    1.20
  -3  -4   9   16.10    2.30
  -3  -4   9   11.00    1.30
   3   5  -9   34.50    2.20
   3   5  -9   35.10    2.10
   3   5  -9   38.40    2.10
  -3  -5   9   33.00    2.10
  -3  -5   9   35.10    3.10
   3   6  -9    1.70    0.60
   3   6  -9    0.90    0.60
   3   6  -9    1.20    0.70
  -3  -6   9    0.70    0.60
  -3  -6   9    3.60    1.50
   2  -6  -9    4.90    1.40
   2  -6  -9    7.20    1.80
   2  -6  -9    6.40    1.00
  -2   6   9    7.90    1.30
  -2   6   9    8.20    1.30
  -2   6   9    7.90    1.30
   2  -5  -9   12.30    1.90
   2  -5  -9    8.40    1.70
   2  -5  -9    7.10    1.00
  -2   5   9    6.70    1.10
  -2   5   9    6.70    1.10
  -2   5   9    8.70    1.20
  -2   5   9    8.80    1.00
   2  -4  -9    0.70    0.30
   2  -4  -9    1.00    0.90
   2  -4  -9    0.30    0.40
   2  -4  -9    1.60    0.80
  -2   4   9   -0.30    0.60
  -2   4   9    0.30    0.50
  -2   4   9   -0.20    0.40
  -2   4   9    0.20    0.50
  -2   4   9   -0.10    0.30
   2  -3  -9    0.40    0.50
   2  -3  -9    0.00    0.30
   2  -3  -9   -0.20    0.40
   2  -3  -9   -0.20    0.60
   2  -3  -9   -0.10    0.30
   2  -3  -9   -0.20    0.30
   2  -3  -9   -0.30    0.30
   2  -3  -9    0.20    0.60
  -2   3   9   -0.20    0.40
  -2   3   9    0.30    0.50
  -2   3   9   -0.10    0.30
  -2   3   9    0.00    0.30
  -2   3   9    0.00    0.40
  -2   3   9   -0.40    0.50
   2  -2  -9   31.80    1.90
   2  -2  -9   30.40    1.70
   2  -2  -9   29.10    2.40
   2  -2  -9   33.10    1.90
   2  -2  -9   33.00    1.70
   2  -2  -9   32.10    2.20
   2  -2  -9   32.50    1.70
   2  -2  -9   32.60    1.90
  -2   2   9   32.70    1.70
  -2   2   9   32.10    1.80
  -2   2   9   33.30    1.90
  -2   2   9   34.60    2.20
  -2   2   9   36.20    1.90
  -2   2   9   38.20    2.10
  -2   2   9   35.20    1.80
   2  -1  -9    8.00    1.10
   2  -1  -9    5.10    0.80
   2  -1  -9    6.20    0.80
   2  -1  -9    4.80    0.70
   2  -1  -9    5.80    1.20
   2  -1  -9    8.50    1.00
   2  -1  -9    6.10    0.90
  -2   1   9    7.10    0.90
  -2   1   9    7.50    1.00
  -2   1   9    6.10    0.90
  -2   1   9    7.00    0.80
  -2   1   9    6.70    0.90
  -2   1   9    6.70    1.10
   2   0  -9    0.40    0.40
   2   0  -9    0.10    0.40
   2   0  -9   -0.10    0.40
   2   0  -9    0.20    0.40
   2   0  -9    0.10    0.30
   2   0  -9    0.80    0.40
  -2   0   9    0.10    0.50
  -2   0   9    0.20    0.40
  -2   0   9    0.20    0.40
  -2   0   9    0.10    0.20
  -2   0   9    0.00    0.30
  -2   0   9    0.10    0.40
  -2   0   9    0.00    0.20
   2   1  -9    4.70    0.80
   2   1  -9    4.20    0.70
   2   1  -9    3.70    0.70
   2   1  -9    4.90    0.80
   2   1  -9    4.90    1.00
   2   1  -9    4.60    0.80
  -2  -1   9    4.80    0.80
  -2  -1   9    3.90    0.50
  -2  -1   9    4.10    0.70
  -2  -1   9    4.60    1.20
   2   2  -9    8.00    1.00
   2   2  -9   10.70    0.90
   2   2  -9   13.10    1.30
   2   2  -9   11.70    1.20
   2   2  -9   10.30    1.40
   2   2  -9    8.80    1.00
  -2  -2   9   10.20    1.10
  -2  -2   9   10.60    1.20
  -2  -2   9   14.70    2.00
   2   3  -9    4.20    0.80
   2   3  -9    4.50    0.80
   2   3  -9    4.90    0.80
   2   3  -9    4.70    0.90
  -2  -3   9    4.00    0.70
  -2  -3   9    5.10    0.80
  -2  -3   9    4.60    1.20
   2   4  -9  255.87    9.10
   2   4  -9  257.07    9.20
   2   4  -9  258.67    9.00
  -2  -4   9  238.48   10.40
  -2  -4   9  239.48    9.00
   2   5  -9  102.79    4.50
   2   5  -9  106.29    4.40
   2   5  -9  104.99    4.40
  -2  -5   9   96.49    5.60
  -2  -5   9  104.39    4.40
   2   6  -9   -0.30    0.40
   2   6  -9    0.80    0.50
   2   6  -9   -0.40    0.40
  -2  -6   9    1.30    1.00
  -2  -6   9    0.60    0.60
   1  -7  -9   -0.50    0.60
   1  -7  -9    0.60    1.00
  -1   7   9    0.20    0.80
  -1   7   9    0.40    0.50
  -1   7   9    0.50    0.60
   1  -6  -9   -0.20    0.60
   1  -6  -9    0.50    0.80
   1  -6  -9    0.10    0.40
  -1   6   9   -0.40    0.50
  -1   6   9    0.90    0.50
  -1   6   9   -0.10    0.50
   1  -5  -9    9.20    1.10
   1  -5  -9   10.50    1.80
   1  -5  -9    7.90    1.50
  -1   5   9    9.60    1.00
  -1   5   9    9.60    1.20
  -1   5   9    8.30    1.60
  -1   5   9    8.50    1.20
  -1   5   9    9.30    1.30
   1  -4  -9   29.50    1.70
   1  -4  -9   33.40    2.30
   1  -4  -9   31.10    1.50
   1  -4  -9   31.90    1.50
   1  -4  -9   29.60    1.80
   1  -4  -9   33.30    2.50
  -1   4   9   32.80    1.90
  -1   4   9   32.70    1.60
  -1   4   9   34.80    2.10
  -1   4   9   31.60    1.70
  -1   4   9   32.60    2.50
  -1   4   9   31.10    1.90
   1  -3  -9    2.30    0.60
   1  -3  -9    1.70    0.80
   1  -3  -9    2.40    0.50
   1  -3  -9    3.30    0.60
   1  -3  -9    2.40    0.50
   1  -3  -9    2.50    0.80
   1  -3  -9    2.50    0.60
   1  -3  -9    1.50    0.70
  -1   3   9    2.30    0.50
  -1   3   9    3.30    0.70
  -1   3   9    2.90    0.90
  -1   3   9    2.20    0.70
  -1   3   9    2.40    0.50
  -1   3   9    2.40    0.50
  -1   3   9    0.80    0.50
   1  -2  -9    1.00    0.40
   1  -2  -9    0.50    0.40
   1  -2  -9    1.80    0.70
   1  -2  -9    0.80    0.40
   1  -2  -9    1.00    0.40
   1  -2  -9    1.60    0.40
   1  -2  -9    1.20    0.70
  -1   2   9    1.00    0.40
  -1   2   9    0.70    0.30
  -1   2   9    1.00    0.60
  -1   2   9    0.30    0.40
  -1   2   9    1.20    0.50
  -1   2   9    1.20    0.50
   1  -1  -9    8.60    0.90
   1  -1  -9    8.00    1.00
   1  -1  -9    9.30    1.00
   1  -1  -9    8.20    1.40
   1  -1  -9    7.60    0.90
   1  -1  -9    8.30    0.90
  -1   1   9    7.80    0.70
  -1   1   9    8.40    0.90
  -1   1   9   10.30    1.10
  -1   1   9    8.40    0.70
  -1   1   9    8.60    1.10
  -1   1   9    8.80    1.10
   1   0  -9   32.20    1.90
   1   0  -9   32.00    1.70
   1   0  -9   32.30    1.70
   1   0  -9   31.60    1.70
   1   0  -9   33.60    2.30
   1   0  -9   30.90    1.80
  -1   0   9   32.20    1.40
  -1   0   9   33.50    1.90
  -1   0   9   30.90    1.70
  -1   0   9   30.40    2.10
  -1   0   9   28.10    2.10
  -1   0   9   33.70    1.80
  -1   0   9   31.90    1.40
   1   1  -9   15.30    1.60
   1   1  -9   11.20    1.00
   1   1  -9   15.20    1.10
   1   1  -9   12.50    1.00
   1   1  -9   13.50    1.10
  -1  -1   9   13.50    0.70
  -1  -1   9   12.50    1.10
  -1  -1   9   13.60    1.70
  -1  -1   9   14.00    0.70
  -1  -1   9   15.60    1.20
   1   2  -9   12.10    1.20
   1   2  -9   12.10    1.00
   1   2  -9   12.90    1.30
   1   2  -9   12.90    1.10
   1   2  -9   10.70    1.10
   1   2  -9   11.40    2.30
  -1  -2   9   11.40    1.80
  -1  -2   9   15.70    1.20
   1   3  -9  103.39    4.20
   1   3  -9   97.99    4.00
   1   3  -9   98.29    4.10
   1   3  -9  102.99    4.30
  -1  -3   9   99.79    4.10
  -1  -3   9   98.29    5.10
   1   4  -9    8.50    1.10
   1   4  -9    5.50    1.00
   1   4  -9    6.80    1.00
  -1  -4   9    9.20    1.10
  -1  -4   9    9.60    1.70
  -1  -4   9    7.30    1.00
   1   5  -9    6.80    1.10
   1   5  -9    3.30    0.80
   1   5  -9    6.00    1.00
  -1  -5   9    5.10    0.80
  -1  -5   9    4.70    1.50
   1   6  -9    3.00    0.80
   1   6  -9    3.30    0.80
   1   6  -9    3.50    0.90
  -1  -6   9    1.00    1.10
  -1  -6   9    4.60    0.90
   0  -8  -9   45.20    3.60
   0  -8  -9   51.29    3.90
   0   8   9   56.49    3.20
   0   8   9   52.29    3.10
   0   8   9   55.79    2.90
   0  -7  -9    2.20    1.20
   0  -7  -9    2.40    1.10
   0   7   9    2.20    0.90
   0   7   9    2.20    0.80
   0   7   9    2.40    0.70
   0  -6  -9   19.60    1.40
   0  -6  -9   19.80    2.50
   0  -6  -9   16.20    2.10
   0   6   9   20.70    1.50
   0   6   9   21.90    1.70
   0   6   9   20.30    1.60
   0  -5  -9    1.50    0.50
   0  -5  -9    1.70    0.90
   0  -5  -9    1.10    0.30
   0  -5  -9    1.20    0.50
   0  -5  -9    1.30    0.80
   0   5   9    0.90    0.70
   0   5   9    1.30    0.60
   0   5   9    2.00    0.70
   0   5   9    2.20    0.70
   0  -4  -9   48.00    2.90
   0  -4  -9   47.60    2.80
   0  -4  -9   42.20    3.60
   0  -4  -9   47.30    2.00
   0  -4  -9   47.00    2.20
   0  -4  -9   48.90    2.30
   0   4   9   45.70    2.30
   0   4   9   44.70    2.50
   0   4   9   50.59    3.10
   0   4   9   47.10    2.10
   0   4   9   51.59    2.40
   0  -3  -9   99.59    5.20
   0  -3  -9   99.39    3.90
   0  -3  -9  102.09    3.90
   0  -3  -9  108.99    4.20
   0  -3  -9  108.89    4.00
   0  -3  -9   97.19    4.60
   0  -3  -9   99.69    4.20
   0   3   9  103.89    4.00
   0   3   9  112.39    4.20
   0   3   9  114.39    4.30
   0   3   9  104.69    4.40
   0   3   9  119.69    5.10
   0  -2  -9   29.60    1.50
   0  -2  -9   27.20    1.70
   0  -2  -9   28.70    1.40
   0  -2  -9   28.00    1.50
   0  -2  -9   26.80    1.60
   0  -2  -9   25.90    2.20
   0  -2  -9   27.40    1.60
   0   2   9   26.20    1.70
   0   2   9   27.60    1.50
   0   2   9   31.90    1.70
   0   2   9   30.20    2.10
   0   2   9   29.60    1.70
   0   2   9   31.20    1.60
   0  -1  -9   13.50    1.00
   0  -1  -9   12.60    1.40
   0  -1  -9   13.10    1.00
   0  -1  -9   14.60    1.00
   0  -1  -9   13.70    1.00
   0  -1  -9   14.70    1.10
   0   1   9   15.50    1.40
   0   1   9   14.50    1.20
   0   1   9   13.80    1.00
   0   1   9   12.00    1.20
   0   1   9   15.50    1.50
   0   1   9   14.90    0.90
   0   0  -9    0.60    0.40
   0   0  -9   -0.10    0.50
   0   0  -9    0.20    0.30
   0   0  -9    0.20    0.40
   0   0  -9   -0.20    0.30
   0   0  -9   -0.40    0.30
   0   0   9    0.30    0.30
   0   0   9    0.60    0.30
   0   0   9   -0.10    0.40
   0   0   9    0.20    0.30
   0   0   9    0.10    0.40
   0   0   9   -0.10    0.20
   0   1  -9   54.29    2.50
   0   1  -9   51.19    2.40
   0   1  -9   49.50    2.50
   0   1  -9   52.99    2.60
   0   1  -9   50.99    2.30
   0   1  -9   51.79    2.40
   0   1  -9   53.69    3.10
   0   1  -9   52.69    2.40
   0  -1   9   54.29    2.50
   0  -1   9   53.69    2.00
   0  -1   9   48.50    2.70
   0  -1   9   54.79    2.10
   0  -1   9   53.79    3.10
   0  -1   9   53.79    2.60
   0   2  -9    0.20    0.40
   0   2  -9    0.20    0.40
   0   2  -9    0.10    0.40
   0   2  -9    0.50    0.40
   0   2  -9    0.40    0.40
   0  -2   9    0.20    0.20
   0  -2   9    0.00    0.30
   0  -2   9    0.40    0.40
   0  -2   9    0.90    0.70
   0   3  -9   10.10    1.30
   0   3  -9    8.20    1.00
   0   3  -9    9.30    1.10
   0   3  -9    7.80    1.00
   0  -3   9   10.10    1.10
   0  -3   9    7.50    1.50
   0  -3   9    8.70    0.60
   0   4  -9    0.50    0.50
   0   4  -9    0.30    0.40
   0   4  -9    0.10    0.50
   0   4  -9    0.30    0.40
   0  -4   9   -0.10    0.60
   0  -4   9    0.20    0.40
   0   5  -9    3.50    0.80
   0   5  -9    4.60    0.90
   0   5  -9    2.10    0.70
   0  -5   9    3.00    1.20
   0   6  -9    0.40    0.60
   0   6  -9    1.00    0.70
   0   6  -9    0.30    0.50
   0  -6   9    0.20    0.80
   0  -6   9    0.80    0.50
  -1  -8  -9    4.80    1.40
  -1  -8  -9    1.50    1.00
   1   8   9    2.00    1.00
   1   8   9    3.70    0.90
   1   8   9    3.10    0.70
  -1  -7  -9    0.40    0.70
  -1  -7  -9    2.90    1.10
   1   7   9    3.50    0.80
   1   7   9    4.10    1.00
   1   7   9    2.00    0.60
  -1  -6  -9   22.40    2.60
  -1  -6  -9   23.90    2.10
  -1  -6  -9   18.80    1.30
   1   6   9   21.60    1.60
   1   6   9   21.80    1.50
   1   6   9   21.20    1.60
  -1  -5  -9    2.00    0.80
  -1  -5  -9    1.20    0.40
  -1  -5  -9    1.70    0.80
  -1  -5  -9    2.50    0.50
   1   5   9    2.10    0.40
   1   5   9    2.20    0.90
   1   5   9    2.20    0.70
   1   5   9    2.00    0.50
   1   5   9    1.00    0.50
  -1  -4  -9  392.26   13.30
  -1  -4  -9  340.87   14.90
  -1  -4  -9  399.66   14.30
  -1  -4  -9  395.46   13.50
  -1  -4  -9  396.76   14.30
  -1  -4  -9  400.26   13.60
  -1  -4  -9  394.56   13.30
   1   4   9  427.46   13.70
   1   4   9  418.16   13.40
   1   4   9  414.56   13.90
   1   4   9  409.06   13.70
   1   4   9  423.46   14.80
  -1  -3  -9  273.57    9.50
  -1  -3  -9  274.07   10.10
  -1  -3  -9  276.67    9.60
  -1  -3  -9  255.57   10.80
  -1  -3  -9  281.87    9.50
  -1  -3  -9  270.27    9.30
   1   3   9  292.67    9.90
   1   3   9  288.27    9.80
   1   3   9  273.57    9.70
   1   3   9  281.87    9.50
   1   3   9  292.87    9.60
   1   3   9  281.87   10.60
  -1  -2  -9    0.80    0.30
  -1  -2  -9    1.70    0.80
  -1  -2  -9    0.80    0.40
  -1  -2  -9    1.30    0.50
  -1  -2  -9    1.40    0.40
  -1  -2  -9    1.80    0.40
  -1  -2  -9    1.50    0.30
  -1  -2  -9    1.70    0.50
   1   2   9    1.50    0.40
   1   2   9    1.20    0.40
   1   2   9    1.30    0.40
   1   2   9    1.60    0.70
   1   2   9    1.50    0.50
   1   2   9    0.30    0.30
  -1  -1  -9   20.60    1.80
  -1  -1  -9   22.30    1.40
  -1  -1  -9   21.70    1.30
  -1  -1  -9   21.30    1.10
  -1  -1  -9   21.70    1.30
  -1  -1  -9   20.20    1.30
  -1  -1  -9   22.40    1.20
   1   1   9   24.40    1.50
   1   1   9   22.30    1.20
   1   1   9   24.00    1.70
   1   1   9   23.00    1.30
   1   1   9   23.60    1.40
   1   1   9   22.60    1.40
   1   1   9   24.40    1.80
  -1   0  -9    0.90    0.30
  -1   0  -9    0.40    0.30
  -1   0  -9    0.70    0.30
  -1   0  -9    1.60    0.80
  -1   0  -9    1.40    0.50
  -1   0  -9    1.50    0.50
  -1   0  -9    1.50    0.50
   1   0   9    1.30    0.50
   1   0   9    1.70    0.50
   1   0   9    0.90    0.50
   1   0   9    0.40    0.20
   1   0   9    1.30    0.40
   1   0   9    1.20    0.60
   1   0   9    0.80    0.40
  -1   1  -9   47.40    2.30
  -1   1  -9   46.30    2.20
  -1   1  -9   43.50    2.20
  -1   1  -9   47.80    3.00
  -1   1  -9   47.50    1.90
  -1   1  -9   47.00    2.40
  -1   1  -9   46.40    2.10
  -1   1  -9   46.50    2.40
   1  -1   9   49.80    3.00
   1  -1   9   47.50    2.80
   1  -1   9   48.90    2.40
   1  -1   9   50.09    2.50
   1  -1   9   46.50    1.80
   1  -1   9   45.00    2.00
  -1   2  -9    6.10    1.00
  -1   2  -9    7.00    0.90
  -1   2  -9    7.30    0.90
  -1   2  -9    6.20    0.80
  -1   2  -9    6.10    0.90
   1  -2   9    8.10    1.10
   1  -2   9    6.30    1.30
   1  -2   9    7.00    0.70
   1  -2   9    8.80    1.10
   1  -2   9    6.30    0.40
  -1   3  -9    7.00    1.00
  -1   3  -9    7.80    1.10
  -1   3  -9    7.80    1.00
  -1   3  -9    8.40    1.10
   1  -3   9    9.60    1.60
   1  -3   9    6.10    1.00
   1  -3   9    8.60    0.80
  -1   4  -9    6.40    1.10
  -1   4  -9    6.00    1.20
  -1   4  -9    6.70    1.10
  -1   4  -9    8.20    1.00
   1  -4   9    7.80    1.10
   1  -4   9    7.70    1.50
  -1   5  -9    1.80    0.80
  -1   5  -9    2.30    0.70
  -1   5  -9    3.20    0.80
   1  -5   9    3.60    1.30
  -1   6  -9    0.10    0.60
  -1   6  -9    0.30    0.60
  -1   6  -9    0.10    0.60
   1  -6   9   -0.80    0.70
  -2  -9  -9    0.10    0.70
  -2  -9  -9    0.30    0.80
   2   9   9    0.50    0.50
   2   9   9    0.30    0.40
   2   9   9    0.20    0.70
  -2  -8  -9    0.90    1.10
  -2  -8  -9    3.90    1.30
   2   8   9    1.40    0.70
   2   8   9    1.60    0.50
   2   8   9    1.70    0.70
  -2  -7  -9    4.50    1.20
  -2  -7  -9    2.20    0.90
   2   7   9    2.50    0.70
   2   7   9    3.90    0.90
   2   7   9    3.60    0.70
  -2  -6  -9    2.50    0.90
  -2  -6  -9    0.90    0.40
  -2  -6  -9    1.30    0.40
  -2  -6  -9    1.50    0.70
   2   6   9    2.20    0.70
   2   6   9    1.90    0.50
   2   6   9    1.20    0.50
  -2  -5  -9   72.99    3.10
  -2  -5  -9   73.79    3.90
  -2  -5  -9   74.49    3.80
  -2  -5  -9   70.49    2.90
   2   5   9   75.59    3.20
   2   5   9   76.19    3.20
   2   5   9   77.79    2.90
   2   5   9   79.39    4.30
   2   5   9   73.49    3.30
  -2  -4  -9   10.50    0.90
  -2  -4  -9   11.10    0.90
  -2  -4  -9   12.80    1.70
  -2  -4  -9   10.90    1.10
  -2  -4  -9   13.90    0.80
  -2  -4  -9   10.40    1.50
   2   4   9   12.50    1.10
   2   4   9   13.90    1.60
   2   4   9   14.10    1.00
   2   4   9   12.40    1.00
   2   4   9   12.80    0.90
  -2  -3  -9    9.50    0.80
  -2  -3  -9    8.60    0.90
  -2  -3  -9   11.80    0.90
  -2  -3  -9   10.30    1.00
  -2  -3  -9    9.10    1.50
  -2  -3  -9   10.00    1.30
  -2  -3  -9    9.60    0.60
   2   3   9   10.70    1.00
   2   3   9   10.90    0.80
   2   3   9    9.00    0.80
   2   3   9   12.00    1.20
   2   3   9   11.70    1.00
   2   3   9   11.60    1.30
   2   3   9    8.20    1.00
  -2  -2  -9   -0.30    0.30
  -2  -2  -9    0.50    0.30
  -2  -2  -9   -0.50    0.40
  -2  -2  -9    0.30    0.40
  -2  -2  -9    0.00    0.30
  -2  -2  -9    0.10    0.20
  -2  -2  -9    0.30    0.40
   2   2   9   -0.20    0.30
   2   2   9    0.10    0.30
   2   2   9    0.20    0.30
   2   2   9    0.00    0.50
   2   2   9    0.20    0.40
   2   2   9    0.20    0.30
   2   2   9    0.00    0.30
  -2  -1  -9   41.30    1.80
  -2  -1  -9   39.40    1.70
  -2  -1  -9   40.40    2.70
  -2  -1  -9   39.60    2.00
  -2  -1  -9   34.60    2.00
  -2  -1  -9   40.00    1.90
  -2  -1  -9   40.70    2.00
   2   1   9   42.00    1.90
   2   1   9   45.20    2.10
   2   1   9   40.70    1.90
   2   1   9   41.40    2.50
   2   1   9   39.70    1.90
   2   1   9   39.10    2.10
   2   1   9   41.80    2.30
   2   1   9   43.90    2.10
  -2   0  -9    4.20    0.60
  -2   0  -9    5.10    1.20
  -2   0  -9    3.50    0.70
  -2   0  -9    4.30    0.70
  -2   0  -9    3.20    0.60
  -2   0  -9    3.30    0.50
   2   0   9    4.80    0.70
   2   0   9    5.30    1.00
   2   0   9    4.70    0.60
   2   0   9    3.20    0.70
   2   0   9    5.30    0.80
   2   0   9    4.60    0.70
  -2   1  -9  147.39    5.10
  -2   1  -9  146.69    5.60
  -2   1  -9  143.19    5.50
  -2   1  -9  146.89    5.80
  -2   1  -9  141.49    5.30
   2  -1   9  146.29    5.10
   2  -1   9  151.88    5.80
   2  -1   9  149.88    5.70
   2  -1   9  141.89    5.30
   2  -1   9  146.09    6.10
  -2   2  -9    7.30    0.90
  -2   2  -9    9.60    1.00
  -2   2  -9    8.40    1.00
  -2   2  -9    7.30    1.00
  -2   2  -9    8.20    1.10
   2  -2   9   10.00    1.20
   2  -2   9    8.10    1.40
   2  -2   9    8.20    0.60
   2  -2   9    8.40    0.90
   2  -2   9    9.10    1.20
  -2   3  -9    3.00    0.80
  -2   3  -9    4.50    1.00
  -2   3  -9    3.00    0.60
  -2   3  -9    3.20    0.70
   2  -3   9    4.10    1.10
   2  -3   9    4.30    0.70
   2  -3   9    4.50    0.80
  -2   4  -9    2.60    0.80
  -2   4  -9    2.50    0.80
  -2   4  -9    1.50    0.70
   2  -4   9    1.80    0.50
   2  -4   9    2.60    1.00
   2  -4   9    1.60    0.70
  -2   5  -9    2.30    0.80
  -2   5  -9    3.10    0.90
  -2   5  -9    3.30    0.90
  -2   5  -9    3.00    0.80
   2  -5   9    3.00    1.20
  -3  -9  -9    4.30    1.40
  -3  -9  -9    7.40    1.70
   3   9   9    5.50    1.20
   3   9   9    7.30    1.10
   3   9   9    5.70    0.80
  -3  -8  -9    1.00    0.80
  -3  -8  -9    0.30    0.70
   3   8   9    0.70    0.40
   3   8   9    0.50    0.60
   3   8   9    0.40    0.40
  -3  -7  -9   41.20    2.70
  -3  -7  -9   36.80    2.80
  -3  -7  -9   40.00    2.20
   3   7   9   44.00    2.30
   3   7   9   40.10    2.10
   3   7   9   43.90    2.40
  -3  -6  -9   11.90    1.60
  -3  -6  -9    8.00    0.90
  -3  -6  -9   11.90    1.80
  -3  -6  -9    8.40    1.00
   3   6   9    9.20    1.10
   3   6   9   11.00    1.10
   3   6   9   11.60    1.10
   3   6   9   10.80    0.80
  -3  -5  -9   32.50    1.80
  -3  -5  -9   33.90    2.40
  -3  -5  -9   33.50    1.40
  -3  -5  -9   35.30    1.70
   3   5   9   38.10    1.80
   3   5   9   35.80    1.80
   3   5   9   38.80    2.80
   3   5   9   36.40    1.90
   3   5   9   35.60    1.70
  -3  -4  -9   86.29    3.50
  -3  -4  -9   79.89    5.10
  -3  -4  -9   82.29    3.40
  -3  -4  -9   83.89    4.00
   3   4   9   86.79    3.70
   3   4   9   89.89    3.40
   3   4   9   86.59    3.50
   3   4   9   88.69    3.30
   3   4   9   92.99    4.50
   3   4   9   81.09    3.60
  -3  -3  -9   15.60    1.10
  -3  -3  -9   16.40    1.40
  -3  -3  -9   15.00    1.70
  -3  -3  -9   17.70    1.10
   3   3   9   16.00    1.10
   3   3   9   15.90    1.10
   3   3   9   17.80    1.20
   3   3   9   16.40    1.20
   3   3   9   17.20    1.20
   3   3   9   17.40    1.60
   3   3   9   15.90    1.20
  -3  -2  -9   50.49    2.50
  -3  -2  -9   51.79    2.40
  -3  -2  -9   51.29    2.20
  -3  -2  -9   54.09    2.50
  -3  -2  -9   53.29    2.30
   3   2   9   52.19    2.40
   3   2   9   52.89    2.40
   3   2   9   57.09    2.50
   3   2   9   55.19    2.50
   3   2   9   54.19    2.60
   3   2   9   55.59    3.10
   3   2   9   51.89    2.40
   3   2   9   52.89    2.40
  -3  -1  -9    1.00    0.70
  -3  -1  -9    1.50    0.40
  -3  -1  -9    1.60    0.50
  -3  -1  -9    1.40    0.40
  -3  -1  -9    1.50    0.30
  -3  -1  -9    1.80    0.60
  -3  -1  -9    1.10    0.50
   3   1   9    1.80    0.60
   3   1   9    1.30    0.50
   3   1   9    2.20    0.70
   3   1   9    1.90    0.40
   3   1   9    1.30    0.50
   3   1   9    1.60    0.40
   3   1   9    2.90    0.70
   3   1   9    2.40    0.60
  -3   0  -9    3.70    0.50
  -3   0  -9    3.60    0.70
  -3   0  -9    5.20    0.70
  -3   0  -9    3.60    0.70
  -3   0  -9    3.30    0.70
   3   0   9    5.20    0.80
   3   0   9    4.50    0.80
   3   0   9    3.40    0.50
   3   0   9    3.70    0.60
   3   0   9    6.30    1.00
  -3   1  -9   24.90    1.40
  -3   1  -9   24.40    1.80
  -3   1  -9   24.90    1.60
  -3   1  -9   26.50    1.40
  -3   1  -9   26.20    1.70
   3  -1   9   25.60    1.30
   3  -1   9   27.90    1.80
   3  -1   9   27.00    1.60
   3  -1   9   25.10    1.90
   3  -1   9   28.50    1.80
  -3   2  -9    9.00    0.80
  -3   2  -9   11.50    1.20
  -3   2  -9    8.60    1.20
  -3   2  -9    8.90    1.20
  -3   2  -9    7.40    0.90
   3  -2   9   10.50    1.10
   3  -2   9   10.60    1.50
   3  -2   9   11.20    1.30
   3  -2   9   11.70    2.00
  -3   3  -9    1.10    0.50
  -3   3  -9    1.40    0.50
  -3   3  -9    0.30    0.60
  -3   3  -9    1.20    0.70
   3  -3   9    2.00    0.60
   3  -3   9    1.30    0.60
   3  -3   9    2.10    0.90
  -3   4  -9    7.00    1.30
  -3   4  -9   11.10    1.40
  -3   4  -9    9.90    1.30
   3  -4   9    9.80    1.30
   3  -4   9    7.00    1.50
   3  -4   9    7.90    1.00
  -3   5  -9    0.50    0.60
  -3   5  -9   -0.40    0.50
  -3   5  -9   -0.40    0.70
   3  -5   9   -0.70    0.60
  -4  -9  -9   25.50    2.70
  -4  -9  -9   19.40    2.70
   4   9   9   20.20    1.30
   4   9   9   19.30    1.50
   4   9   9   18.50    1.80
  -4  -8  -9    0.60    0.40
  -4  -8  -9    0.10    0.90
  -4  -8  -9    1.30    0.80
   4   8   9    0.30    0.60
   4   8   9    0.90    0.40
   4   8   9    0.40    0.40
  -4  -7  -9    0.40    0.80
  -4  -7  -9    0.80    0.50
   4   7   9    0.50    0.50
   4   7   9    0.50    0.30
   4   7   9   -0.30    0.30
  -4  -6  -9   19.40    1.30
  -4  -6  -9   18.70    1.80
   4   6   9   19.20    1.30
   4   6   9   18.30    1.20
   4   6   9   18.90    1.20
   4   6   9   18.60    1.30
  -4  -5  -9   10.00    1.10
  -4  -5  -9    7.80    0.80
  -4  -5  -9    6.70    1.30
   4   5   9    8.90    1.20
   4   5   9    8.50    0.90
   4   5   9    9.60    1.00
   4   5   9    9.00    0.80
   4   5   9   10.20    1.60
   4   5   9    8.20    0.80
  -4  -4  -9   15.60    1.10
  -4  -4  -9   15.30    1.40
  -4  -4  -9   15.30    1.10
  -4  -4  -9   15.00    1.10
   4   4   9   16.80    1.30
   4   4   9   18.40    1.00
   4   4   9   19.00    1.30
   4   4   9   17.90    1.30
   4   4   9   17.30    1.20
   4   4   9   19.00    1.80
   4   4   9   17.70    1.20
  -4  -3  -9    0.30    0.60
  -4  -3  -9    0.30    0.30
  -4  -3  -9    0.00    0.30
  -4  -3  -9    0.50    0.50
  -4  -3  -9    0.20    0.30
  -4  -3  -9    0.80    0.40
   4   3   9    0.40    0.40
   4   3   9    0.40    0.60
   4   3   9    0.70    0.30
   4   3   9    0.40    0.30
   4   3   9    0.00    0.30
   4   3   9   -0.20    0.30
  -4  -2  -9   36.90    1.60
  -4  -2  -9   40.20    1.90
  -4  -2  -9   38.90    2.00
  -4  -2  -9   38.90    2.10
  -4  -2  -9   38.50    2.10
   4   2   9   39.30    2.50
   4   2   9   43.70    2.10
   4   2   9   40.10    2.00
   4   2   9   43.20    2.20
   4   2   9   40.90    2.10
   4   2   9   37.00    2.00
  -4  -1  -9   10.10    1.90
  -4  -1  -9   12.70    1.10
  -4  -1  -9   10.50    1.20
  -4  -1  -9   10.70    0.90
  -4  -1  -9   10.40    0.60
   4   1   9   13.30    1.10
   4   1   9   13.30    1.10
   4   1   9   12.20    0.90
   4   1   9   12.30    1.40
   4   1   9   13.50    1.40
  -4   0  -9    7.70    1.10
  -4   0  -9    5.40    0.70
  -4   0  -9    5.60    0.60
  -4   0  -9    4.50    0.80
   4   0   9    8.30    1.20
   4   0   9    4.70    0.70
   4   0   9    7.10    0.90
   4   0   9    5.50    0.90
   4   0   9    7.60    1.10
  -4   1  -9   11.60    0.90
  -4   1  -9   13.70    1.00
  -4   1  -9   13.40    1.40
  -4   1  -9   14.10    1.50
   4  -1   9   12.50    0.90
   4  -1   9   11.70    1.40
   4  -1   9   12.20    1.50
   4  -1   9   10.80    1.20
   4  -1   9   13.60    1.50
  -4   2  -9    1.60    0.50
  -4   2  -9    0.20    0.40
  -4   2  -9    1.30    0.40
  -4   2  -9    0.10    0.40
  -4   2  -9    0.20    0.50
   4  -2   9    0.70    0.50
   4  -2   9    0.60    0.50
   4  -2   9    0.70    0.70
  -4   3  -9    2.10    0.60
  -4   3  -9    1.20    0.70
   4  -3   9    3.20    0.90
   4  -3   9    2.10    0.90
   4  -3   9    3.10    0.80
  -4   4  -9    3.40    1.00
   4  -4   9    2.70    0.80
   4  -4   9    1.90    1.00
   4  -4   9    3.70    1.00
  -5  -9  -9    0.10    0.70
  -5  -9  -9    0.30    0.50
  -5  -9  -9    0.90    0.90
   5   9   9    0.10    0.60
   5   9   9    0.00    0.30
   5   9   9    0.10    0.30
  -5  -8  -9    5.40    1.40
  -5  -8  -9    7.10    1.00
   5   8   9    6.70    0.80
   5   8   9    8.70    1.20
   5   8   9    6.40    0.90
  -5  -7  -9   32.60    2.60
  -5  -7  -9   35.00    2.00
   5   7   9   33.50    2.20
   5   7   9   31.90    1.70
   5   7   9   35.30    1.90
   5   7   9   35.90    1.90
   5   7   9   36.30    2.40
  -5  -6  -9    1.30    0.50
  -5  -6  -9    1.90    0.80
   5   6   9    0.40    0.30
   5   6   9    0.70    0.40
   5   6   9    1.10    0.50
   5   6   9    0.50    0.30
   5   6   9    0.30    0.30
  -5  -5  -9   12.90    1.10
  -5  -5  -9   14.20    1.80
  -5  -5  -9   12.30    1.00
   5   5   9   14.10    1.20
   5   5   9   13.30    1.60
   5   5   9   11.40    1.30
   5   5   9   12.10    0.80
   5   5   9   13.00    1.00
   5   5   9   12.50    1.00
   5   5   9   10.70    1.10
  -5  -4  -9    0.00    0.30
  -5  -4  -9    0.30    0.50
  -5  -4  -9    0.30    0.40
   5   4   9    0.00    0.30
   5   4   9   -0.10    0.30
   5   4   9    0.30    0.60
   5   4   9    0.40    0.40
   5   4   9    0.30    0.30
  -5  -3  -9   11.60    1.00
  -5  -3  -9   13.90    1.50
  -5  -3  -9   12.30    1.00
   5   3   9   13.90    1.10
   5   3   9   14.90    1.20
   5   3   9   16.60    1.20
   5   3   9   14.40    1.50
   5   3   9   13.30    1.10
  -5  -2  -9    5.10    0.70
  -5  -2  -9    4.00    0.70
   5   2   9    4.70    1.00
   5   2   9    6.00    0.90
   5   2   9    5.50    0.90
   5   2   9    4.60    0.80
   5   2   9    4.10    0.80
  -5  -1  -9    0.20    0.40
  -5  -1  -9    0.00    0.40
   5   1   9    0.40    0.40
   5   1   9    0.20    0.30
   5   1   9    1.20    0.50
   5   1   9    1.10    0.50
  -5   0  -9   20.70    1.60
  -5   0  -9   20.10    1.30
   5   0   9   23.10    1.60
   5   0   9   22.40    1.70
   5   0   9   19.00    1.50
   5   0   9   21.40    1.30
  -5   1  -9    0.10    0.40
  -5   1  -9   -0.30    0.30
   5  -1   9    0.20    0.40
   5  -1   9    0.40    0.30
   5  -1   9    0.30    0.50
   5  -1   9    0.10    0.50
   5  -1   9    0.10    0.40
  -5   2  -9    1.00    0.60
  -5   2  -9    0.20    0.40
   5  -2   9    0.10    0.50
   5  -2   9    0.00    0.50
  -5   3  -9   91.19    4.50
  -5   3  -9   91.79    3.80
   5  -3   9   88.99    4.10
   5  -3   9   92.69    4.50
  -6  -9  -9    1.70    0.70
  -6  -9  -9    3.80    1.40
   6   9   9    2.40    0.50
   6   9   9    3.70    1.00
   6   9   9    2.50    0.50
  -6  -8  -9    6.50    1.40
  -6  -8  -9    9.00    1.10
   6   8   9    6.80    0.70
   6   8   9    6.10    0.80
   6   8   9    5.60    1.10
  -6  -7  -9    1.90    0.60
  -6  -7  -9    2.50    1.00
   6   7   9    2.00    0.70
   6   7   9    2.10    0.50
   6   7   9    2.40    0.60
  -6  -6  -9    0.20    0.40
  -6  -6  -9    2.10    0.90
   6   6   9    0.40    0.40
   6   6   9    0.30    0.30
   6   6   9    1.60    0.70
  -6  -5  -9   32.10    1.90
  -6  -5  -9   29.90    2.20
   6   5   9   34.40    2.50
   6   5   9   28.70    1.80
   6   5   9   32.40    1.70
   6   5   9   33.20    2.10
  -6  -4  -9    5.10    0.80
  -6  -4  -9    8.00    1.30
  -6  -4  -9    8.00    1.00
   6   4   9    8.00    1.30
   6   4   9    7.00    1.10
   6   4   9    7.70    1.00
   6   4   9    8.70    1.10
   6   4   9    9.70    1.60
  -6  -3  -9    5.40    0.80
  -6  -3  -9    4.60    0.80
   6   3   9    4.70    0.80
   6   3   9    4.80    1.00
   6   3   9    5.30    0.90
   6   3   9    4.60    0.80
   6   3   9    4.10    0.80
  -6  -2  -9    0.70    0.40
  -6  -2  -9    1.90    0.50
   6   2   9    1.90    0.60
   6   2   9    1.70    0.70
   6   2   9    1.20    0.60
   6   2   9    2.20    0.60
   6   2   9    3.30    0.70
  -6  -1  -9    4.10    0.70
  -6  -1  -9    3.30    0.70
   6   1   9    1.70    0.60
   6   1   9    2.10    0.70
   6   1   9    2.40    0.80
   6   1   9    2.40    0.60
  -6   0  -9    2.80    0.70
  -6   0  -9    1.70    0.60
   6   0   9    1.40    0.50
   6   0   9    1.80    0.70
   6   0   9    1.30    0.60
   6   0   9    1.80    0.70
   6   0   9    2.80    0.70
  -6   1  -9   -0.40    0.50
  -6   1  -9   -0.20    0.40
   6  -1   9   -0.30    0.30
   6  -1   9   -0.60    0.60
   6  -1   9    0.30    0.50
  -6   2  -9   30.40    2.30
  -6   2  -9   37.80    2.10
   6  -2   9   36.60    2.30
   6  -2   9   31.30    2.40
  -7  -9  -9    3.20    0.80
  -7  -9  -9    2.00    1.10
   7   9   9    4.20    1.00
   7   9   9    3.00    0.60
  -7  -8  -9   -0.10    0.40
  -7  -8  -9    0.50    0.60
   7   8   9    0.30    0.50
   7   8   9    0.20    0.30
   7   8   9    0.40    0.30
  -7  -7  -9    9.80    1.60
  -7  -7  -9   10.30    1.20
   7   7   9    7.10    1.20
   7   7   9   11.80    1.20
   7   7   9   10.60    0.90
  -7  -6  -9   12.20    1.80
  -7  -6  -9   14.40    1.50
   7   6   9   13.80    1.10
   7   6   9   14.80    1.20
   7   6   9   18.20    1.80
  -7  -5  -9    0.10    0.40
  -7  -5  -9    0.80    0.70
   7   5   9    0.30    0.60
   7   5   9   -0.10    0.30
   7   5   9   -0.40    0.30
   7   5   9   -0.20    0.40
  -7  -4  -9   37.40    2.10
   7   4   9   38.60    2.30
   7   4   9   36.00    2.10
   7   4   9   37.90    2.10
   7   4   9   40.70    2.70
  -7  -3  -9   45.30    2.40
   7   3   9   47.40    2.60
   7   3   9   49.00    3.00
   7   3   9   46.30    2.50
   7   3   9   45.00    2.60
  -7  -2  -9   10.10    1.20
  -7  -2  -9   10.80    1.20
   7   2   9    9.90    1.20
   7   2   9   13.00    1.50
   7   2   9   12.00    1.50
  -7  -1  -9   13.40    1.40
  -7  -1  -9    9.90    1.30
   7   1   9   15.60    1.40
   7   1   9   15.70    1.70
   7   1   9   13.60    1.60
   7   1   9   13.60    1.60
  -7   0  -9    5.10    0.90
  -7   0  -9    5.40    1.10
   7   0   9    4.10    1.00
   7   0   9    5.40    1.00
   7   0   9    5.10    1.10
   7   0   9    4.10    1.00
  -7   1  -9    0.70    0.60
  -7   1  -9    1.50    0.80
   7  -1   9    0.10    0.60
   7  -1   9    1.30    0.70
  -8  -8  -9   39.10    3.00
  -8  -8  -9   37.40    2.30
   8   8   9   38.50    2.50
   8   8   9   38.60    2.00
   8   8   9   41.90    2.60
  -8  -7  -9    0.80    0.90
  -8  -7  -9    1.70    0.70
   8   7   9    1.90    0.50
   8   7   9    2.40    0.50
   8   7   9    1.70    0.80
  -8  -6  -9   22.50    1.70
  -8  -6  -9   29.90    2.40
   8   6   9   28.20    1.70
   8   6   9   23.30    1.60
   8   6   9   27.50    2.00
  -8  -5  -9  111.29    4.70
   8   5   9  113.09    4.90
   8   5   9  106.09    4.50
   8   5   9  115.39    4.70
  -8  -4  -9   58.79    2.90
   8   4   9   60.89    4.00
   8   4   9   59.39    3.00
   8   4   9   58.09    3.10
   8   4   9   52.59    2.80
  -8  -3  -9    0.90    0.60
   8   3   9    1.70    0.80
   8   3   9    1.40    0.60
   8   3   9    1.30    0.60
   8   3   9    2.10    0.80
  -8  -2  -9    0.10    0.50
   8   2   9    1.50    0.80
   8   2   9    1.20    0.60
   8   2   9    1.90    0.70
   8   2   9    1.20    0.60
  -8  -1  -9    0.70    0.60
   8   1   9    0.90    0.60
   8   1   9    1.50    0.70
   8   1   9    0.10    0.70
   8   1   9    0.40    0.60
  -8   0  -9    1.90    1.10
  -8   0  -9    2.60    0.80
   8   0   9    0.10    0.70
   8   0   9    3.80    1.10
  -9  -7  -9    1.90    0.70
  -9  -7  -9    2.40    1.10
   9   7   9    1.20    0.70
   9   7   9    0.80    0.80
   9   7   9    1.30    0.50
  -9  -6  -9   -0.40    0.40
   9   6   9    0.30    0.50
   9   6   9    0.70    0.70
   9   6   9    0.00    0.40
  -9  -5  -9    0.40    0.50
   9   5   9    0.30    0.40
   9   5   9   -0.30    0.60
   9   5   9   -0.20    0.40
   9   5   9    0.90    0.80
  -9  -4  -9   63.09    3.30
   9   4   9   70.39    3.50
   9   4   9   72.59    3.80
   9   4   9   65.89    3.30
   9   4   9   66.29    3.50
  -9  -3  -9   24.10    1.80
   9   3   9   21.30    1.90
   9   3   9   23.30    1.90
   9   3   9   25.80    1.90
   9   3   9   20.60    2.00
   5  -1 -10    0.20    0.60
   5  -1 -10    0.30    0.50
   5  -1 -10    1.10    0.60
  -5   1  10    0.90    0.70
  -5   1  10    0.40    0.50
   5   0 -10    8.80    1.20
   5   0 -10    8.90    1.30
   5   0 -10   11.10    1.40
   5   0 -10   12.00    1.30
  -5   0  10    8.90    1.30
  -5   0  10    9.80    1.80
  -5   0  10   11.20    1.30
   5   1 -10    0.40    0.60
   5   1 -10   -0.10    0.50
   5   1 -10   -0.30    0.40
   5   1 -10   -0.10    0.50
  -5  -1  10    0.10    0.80
  -5  -1  10    0.20    0.50
   5   2 -10   33.20    2.20
   5   2 -10   31.20    2.00
   5   2 -10   31.30    2.00
   5   2 -10   31.70    2.00
  -5  -2  10   29.50    2.10
  -5  -2  10   25.30    3.00
   5   3 -10   31.70    2.10
   5   3 -10   27.30    1.90
   5   3 -10   28.20    2.00
   5   3 -10   29.70    1.90
  -5  -3  10   29.10    3.40
  -5  -3  10   30.90    2.20
   5   4 -10    1.00    0.50
   5   4 -10    1.10    0.70
   5   4 -10    0.90    0.70
  -5  -4  10    0.80    0.60
  -5  -4  10   -0.40    0.80
   4  -3 -10   -0.50    0.60
   4  -3 -10   -0.50    0.40
   4  -3 -10   -0.10    0.50
  -4   3  10    0.70    0.60
  -4   3  10    0.80    0.60
  -4   3  10    0.20    0.60
   4  -2 -10    0.50    0.60
   4  -2 -10   -0.20    0.40
   4  -2 -10    1.10    0.60
  -4   2  10    0.00    0.50
  -4   2  10    0.20    0.50
   4  -1 -10   17.70    1.50
   4  -1 -10   15.20    1.50
   4  -1 -10   16.30    1.40
   4  -1 -10   16.90    1.30
  -4   1  10   14.70    1.60
  -4   1  10   17.20    1.70
   4   0 -10    0.90    0.60
   4   0 -10    0.30    0.50
   4   0 -10   -0.20    0.40
   4   0 -10    0.00    0.50
  -4   0  10    1.10    0.60
  -4   0  10    0.10    0.40
  -4   0  10   -0.90    0.60
   4   1 -10    8.20    1.10
   4   1 -10    9.10    1.20
   4   1 -10    8.10    1.10
   4   1 -10    8.30    1.10
  -4  -1  10   10.10    1.90
  -4  -1  10    8.80    1.30
  -4  -1  10   10.20    1.20
   4   2 -10    2.90    0.70
   4   2 -10    1.70    0.70
   4   2 -10    4.10    0.80
   4   2 -10    2.60    0.70
  -4  -2  10    2.30    0.70
  -4  -2  10    5.00    1.40
   4   3 -10    4.20    0.80
   4   3 -10    2.80    0.80
   4   3 -10    2.30    0.70
   4   3 -10    2.90    0.70
  -4  -3  10    2.10    0.70
  -4  -3  10    4.50    1.40
   4   4 -10    3.20    0.80
   4   4 -10    3.20    0.70
   4   4 -10    3.90    0.90
  -4  -4  10    3.00    1.20
  -4  -4  10    2.50    0.80
   4   5 -10    0.50    0.50
   4   5 -10    1.00    0.60
   4   5 -10    0.40    0.60
  -4  -5  10    1.00    1.10
  -4  -5  10    0.70    0.60
   3  -5 -10   14.00    2.40
   3  -5 -10   13.70    1.50
   3  -5 -10   11.90    2.00
  -3   5  10   14.60    1.80
  -3   5  10   18.00    1.70
   3  -4 -10    3.20    1.30
   3  -4 -10    5.30    1.30
   3  -4 -10    3.70    0.90
  -3   4  10    3.80    0.90
  -3   4  10    5.30    1.00
  -3   4  10    3.00    0.80
   3  -3 -10   25.20    2.30
   3  -3 -10   27.00    1.50
   3  -3 -10   24.50    1.90
   3  -3 -10   27.70    1.90
   3  -3 -10   30.30    2.30
  -3   3  10   30.60    2.00
  -3   3  10   27.10    1.80
  -3   3  10   30.90    2.00
   3  -2 -10    1.40    0.50
   3  -2 -10    2.70    0.80
   3  -2 -10    1.10    0.50
   3  -2 -10    2.90    1.10
   3  -2 -10    2.20    0.70
  -3   2  10    1.40    0.60
  -3   2  10    2.00    0.80
  -3   2  10    2.10    0.70
   3  -1 -10    0.50    0.50
   3  -1 -10    0.20    0.60
   3  -1 -10    0.60    0.50
   3  -1 -10    0.50    0.50
   3  -1 -10    0.50    0.50
  -3   1  10    0.50    0.40
  -3   1  10    0.00    0.50
  -3   1  10   -0.20    0.40
   3   0 -10   14.30    1.20
   3   0 -10   12.80    1.30
   3   0 -10   15.60    1.30
   3   0 -10   12.80    1.40
   3   0 -10   12.30    1.60
  -3   0  10   12.90    1.40
  -3   0  10   16.10    2.10
  -3   0  10   15.30    1.30
   3   1 -10    1.60    0.60
   3   1 -10    1.10    0.60
   3   1 -10    1.70    0.60
   3   1 -10    1.80    0.60
   3   1 -10    0.30    0.60
  -3  -1  10    1.70    0.60
  -3  -1  10    2.50    1.00
  -3  -1  10    2.40    0.70
   3   2 -10    2.20    0.60
   3   2 -10    2.50    0.70
   3   2 -10    2.90    0.70
   3   2 -10    2.30    0.70
  -3  -2  10    3.40    0.70
  -3  -2  10    2.20    0.70
  -3  -2  10    1.80    0.90
   3   3 -10    0.10    0.50
   3   3 -10    0.10    0.40
   3   3 -10   -0.60    0.30
   3   3 -10   -0.20    0.40
  -3  -3  10    0.50    0.50
  -3  -3  10   -0.60    0.50
   3   4 -10   52.99    2.60
   3   4 -10   51.49    2.70
   3   4 -10   48.40    2.70
  -3  -4  10   52.19    3.80
  -3  -4  10   44.40    2.60
   3   5 -10    3.50    0.90
   3   5 -10    2.60    0.70
   3   5 -10    1.60    0.70
  -3  -5  10    2.20    1.10
  -3  -5  10    3.40    0.80
   2  -6 -10   58.69    3.10
   2  -6 -10   61.99    4.30
   2  -6 -10   61.59    4.00
  -2   6  10   73.09    5.40
  -2   6  10   58.59    3.30
  -2   6  10   61.39    3.40
   2  -5 -10   20.40    2.70
   2  -5 -10   23.70    2.70
   2  -5 -10   23.30    1.70
  -2   5  10   21.50    1.50
  -2   5  10   21.20    1.80
  -2   5  10   22.00    1.80
   2  -4 -10    0.50    0.50
   2  -4 -10    1.30    0.80
   2  -4 -10    1.20    0.90
  -2   4  10    0.90    0.50
  -2   4  10    1.10    0.60
  -2   4  10    0.50    0.40
  -2   4  10    0.30    0.70
  -2   4  10    0.50    0.60
   2  -3 -10    1.00    0.40
   2  -3 -10    0.50    0.50
   2  -3 -10    0.20    0.40
   2  -3 -10    1.10    0.80
   2  -3 -10    1.60    0.90
  -2   3  10    1.10    0.50
  -2   3  10    0.70    0.70
  -2   3  10    0.90    0.70
  -2   3  10    0.30    0.50
  -2   3  10    1.30    0.60
  -2   3  10    0.80    0.50
   2  -2 -10   13.90    1.70
   2  -2 -10   13.60    1.10
   2  -2 -10   15.80    1.30
   2  -2 -10   13.20    1.00
   2  -2 -10   14.50    1.20
   2  -2 -10   12.10    1.90
  -2   2  10   14.20    1.50
  -2   2  10   14.20    1.20
  -2   2  10   13.20    1.40
  -2   2  10   14.40    1.60
   2  -1 -10    2.40    0.60
   2  -1 -10    1.30    0.50
   2  -1 -10    2.30    0.60
   2  -1 -10    1.10    0.70
   2  -1 -10    2.00    0.60
   2  -1 -10    2.00    0.50
  -2   1  10    1.50    0.40
  -2   1  10    2.50    0.90
  -2   1  10    0.80    0.60
  -2   1  10    1.80    0.60
  -2   1  10    2.60    0.60
   2   0 -10   66.69    3.20
   2   0 -10   69.99    3.10
   2   0 -10   66.89    3.00
   2   0 -10   62.39    2.90
   2   0 -10   66.19    2.90
   2   0 -10   66.09    3.80
  -2   0  10   69.49    3.10
  -2   0  10   63.19    2.70
  -2   0  10   66.99    3.70
  -2   0  10   63.89    3.00
   2   1 -10   15.20    1.20
   2   1 -10   16.60    1.40
   2   1 -10   14.10    1.20
  -2  -1  10   17.30    1.30
  -2  -1  10   21.60    2.50
  -2  -1  10   14.10    1.20
   2   2 -10   46.60    2.40
   2   2 -10   50.69    2.60
   2   2 -10   49.60    2.50
  -2  -2  10   47.90    2.50
  -2  -2  10   48.00    2.50
  -2  -2  10   43.50    3.20
   2   3 -10   24.00    1.70
   2   3 -10   21.50    1.50
   2   3 -10   21.70    1.50
  -2  -3  10   21.10    1.50
  -2  -3  10   18.80    2.40
  -2  -3  10   22.50    1.60
   2   4 -10   19.40    1.70
   2   4 -10   23.80    1.70
   2   4 -10   23.00    1.60
  -2  -4  10   20.40    2.70
  -2  -4  10   25.20    1.70
   2   5 -10    5.30    0.90
   2   5 -10    7.20    1.20
   2   5 -10    6.90    1.10
  -2  -5  10    5.40    0.90
  -2  -5  10    5.30    1.50
   1  -6 -10   10.10    1.20
   1  -6 -10   12.30    1.90
   1  -6 -10   14.40    2.30
  -1   6  10   13.70    1.50
  -1   6  10   15.40    1.70
  -1   6  10   14.80    1.70
   1  -5 -10    0.30    0.40
   1  -5 -10    0.80    0.80
   1  -5 -10   -0.10    0.70
  -1   5  10    0.00    0.50
  -1   5  10    0.50    0.40
  -1   5  10   -0.10    0.50
  -1   5  10    0.30    0.50
   1  -4 -10    5.70    0.70
   1  -4 -10    6.10    1.40
   1  -4 -10    7.70    1.00
   1  -4 -10    6.30    1.30
   1  -4 -10    7.60    0.80
  -1   4  10    6.10    1.30
  -1   4  10    6.60    0.90
  -1   4  10    8.20    1.20
  -1   4  10    7.30    1.20
  -1   4  10    6.20    1.00
   1  -3 -10   -0.10    0.40
   1  -3 -10    0.10    0.40
   1  -3 -10    0.60    0.70
   1  -3 -10   -0.10    0.30
   1  -3 -10   -0.40    0.30
  -1   3  10    0.20    0.40
  -1   3  10    0.50    0.40
  -1   3  10    0.10    0.30
  -1   3  10   -0.10    0.40
  -1   3  10   -0.10    0.30
  -1   3  10    0.20    0.60
   1  -2 -10   -0.30    0.30
   1  -2 -10   -0.50    0.30
   1  -2 -10    0.30    0.40
   1  -2 -10    0.00    0.50
   1  -2 -10    0.00    0.30
   1  -2 -10    0.50    0.40
   1  -2 -10    0.30    0.60
  -1   2  10    0.00    0.50
  -1   2  10    0.30    0.30
  -1   2  10    0.90    0.50
  -1   2  10    0.90    0.40
  -1   2  10    0.50    0.40
   1  -1 -10   32.00    1.90
   1  -1 -10   34.00    1.90
   1  -1 -10   31.80    1.70
   1  -1 -10   27.90    2.40
  -1   1  10   35.60    2.00
  -1   1  10   32.20    1.60
  -1   1  10   35.40    2.30
  -1   1  10   37.70    2.10
  -1   1  10   33.50    2.40
  -1   1  10   32.60    1.60
   1   0 -10   22.60    1.50
   1   0 -10   23.40    2.20
   1   0 -10   24.30    1.50
   1   0 -10   26.50    1.70
   1   0 -10   26.60    1.60
  -1   0  10   24.40    1.90
  -1   0  10   23.50    1.60
  -1   0  10   26.70    1.20
  -1   0  10   27.80    1.70
  -1   0  10   25.90    2.10
  -1   0  10   25.20    1.20
   1   1 -10   15.00    1.20
   1   1 -10   15.00    1.30
   1   1 -10   15.30    1.80
   1   1 -10   13.40    1.10
  -1  -1  10   14.10    1.20
  -1  -1  10   19.60    2.30
   1   2 -10    3.90    0.70
   1   2 -10    4.00    0.80
   1   2 -10    3.90    0.80
   1   2 -10    4.20    0.80
  -1  -2  10    5.60    0.90
  -1  -2  10    4.20    1.20
   1   3 -10    3.20    0.80
   1   3 -10    3.00    0.70
   1   3 -10    3.30    0.70
   1   3 -10    5.50    1.00
  -1  -3  10    4.00    0.80
  -1  -3  10    2.70    1.00
   1   4 -10   -0.10    0.50
   1   4 -10    0.60    0.50
   1   4 -10    0.60    0.60
  -1  -4  10    1.60    0.90
  -1  -4  10    0.20    0.40
   1   5 -10    2.50    0.80
   1   5 -10    2.60    0.80
   1   5 -10    0.40    0.50
  -1  -5  10    1.20    0.60
  -1  -5  10    1.00    1.00
   0  -7 -10   -0.10    0.80
   0  -7 -10    0.70    0.80
   0   7  10   -0.30    0.40
   0   7  10   -0.70    0.60
   0   7  10    0.40    0.60
   0  -6 -10   27.10    3.00
   0  -6 -10   28.00    1.80
   0  -6 -10   25.10    2.30
   0   6  10   27.20    2.00
   0   6  10   26.40    1.80
   0   6  10   31.30    2.10
   0  -5 -10   -0.20    0.50
   0  -5 -10    0.90    0.50
   0  -5 -10    0.90    0.40
   0  -5 -10   -0.30    0.40
   0  -5 -10    0.70    0.80
   0   5  10    1.30    0.70
   0   5  10    1.00    0.50
   0   5  10    0.40    0.50
   0  -4 -10   37.40    2.60
   0  -4 -10   39.10    1.90
   0  -4 -10   43.40    2.20
   0  -4 -10   36.80    2.60
   0  -4 -10   42.20    2.00
   0   4  10   43.50    2.50
   0   4  10   42.70    2.00
   0   4  10   48.60    2.30
   0   4  10   44.80    3.00
   0   4  10   46.00    2.30
   0  -3 -10   26.50    1.50
   0  -3 -10   26.20    1.50
   0  -3 -10   30.00    1.70
   0  -3 -10   26.90    1.60
   0  -3 -10   26.60    1.90
   0  -3 -10   26.50    1.50
   0   3  10   29.50    1.90
   0   3  10   27.80    1.50
   0   3  10   29.40    2.30
   0   3  10   30.10    1.70
   0   3  10   31.50    1.80
   0  -2 -10  143.09    5.30
   0  -2 -10  141.79    5.70
   0  -2 -10  142.89    7.10
   0  -2 -10  150.48    5.50
   0  -2 -10  145.49    5.60
   0  -2 -10  144.39    5.80
   0  -2 -10  151.18    5.50
   0   2  10  146.19    5.50
   0   2  10  156.98    5.80
   0   2  10  149.29    5.50
   0   2  10  156.38    5.90
   0   2  10  160.58    6.50
   0  -1 -10    0.40    0.40
   0  -1 -10   -0.50    0.30
   0  -1 -10    0.10    0.50
   0  -1 -10   -0.30    0.30
   0  -1 -10    0.20    0.40
   0   1  10   -0.10    0.30
   0   1  10   -0.30    0.50
   0   1  10   -0.20    0.30
   0   1  10    0.00    0.40
   0   1  10    0.20    0.30
   0   1  10    0.10    0.50
   0   0 -10    1.90    0.60
   0   0 -10    1.50    0.50
   0   0 -10    2.60    0.60
   0   0 -10    2.80    0.70
   0   0  10    3.00    0.70
   0   0  10    2.70    0.60
   0   0  10    1.70    0.40
   0   0  10    1.90    0.70
   0   0  10    3.70    1.00
   0   1 -10    2.20    0.60
   0   1 -10    1.40    0.50
   0   1 -10    1.60    0.60
   0   1 -10    2.10    0.50
   0   1 -10    2.50    0.60
   0  -1  10    1.20    0.80
   0  -1  10    1.70    0.50
   0  -1  10    1.50    0.50
   0  -1  10    1.80    0.30
   0  -1  10    1.60    0.30
   0   2 -10    1.50    0.50
   0   2 -10    2.30    0.60
   0   2 -10    2.90    0.80
   0   2 -10    2.70    0.70
   0  -2  10    2.40    0.90
   0  -2  10    2.30    0.70
   0   3 -10   10.70    1.30
   0   3 -10   11.00    1.20
   0   3 -10   11.50    1.30
   0   3 -10    9.40    1.20
   0  -3  10   11.50    1.90
   0  -3  10   11.40    1.30
   0   4 -10    7.40    1.20
   0   4 -10    3.60    0.90
   0   4 -10    6.50    1.00
   0  -4  10    6.10    1.50
   0  -4  10    6.10    1.10
   0   5 -10    1.50    0.80
   0   5 -10    2.20    0.70
   0   5 -10    1.30    0.80
   0  -5  10    2.40    1.20
  -1  -8 -10    8.70    1.80
  -1  -8 -10    7.30    1.80
   1   8  10    8.80    1.30
   1   8  10    8.20    1.20
   1   8  10    5.70    1.20
  -1  -7 -10   17.00    2.30
  -1  -7 -10   20.30    2.70
   1   7  10   17.10    1.60
   1   7  10   16.70    1.40
   1   7  10   16.00    1.70
  -1  -6 -10    0.10    0.60
  -1  -6 -10    0.20    0.30
  -1  -6 -10    0.30    0.70
   1   6  10    0.00    0.40
   1   6  10   -0.80    0.40
   1   6  10   -0.10    0.40
  -1  -5 -10   26.90    1.50
  -1  -5 -10   26.70    2.20
  -1  -5 -10   29.10    1.70
  -1  -5 -10   24.10    2.20
   1   5  10   30.70    1.80
   1   5  10   30.40    1.80
   1   5  10   31.50    2.00
  -1  -4 -10    0.30    0.30
  -1  -4 -10    0.40    0.60
  -1  -4 -10    0.00    0.30
  -1  -4 -10    0.50    0.40
   1   4  10    1.10    0.40
   1   4  10    0.60    0.60
   1   4  10    0.40    0.30
   1   4  10    0.00    0.40
   1   4  10    0.50    0.50
  -1  -3 -10   83.09    3.50
  -1  -3 -10   90.49    4.00
  -1  -3 -10   83.19    3.70
  -1  -3 -10   87.59    3.50
  -1  -3 -10   90.09    3.60
  -1  -3 -10   84.59    3.30
   1   3  10   96.29    4.60
   1   3  10   87.29    3.90
   1   3  10   94.99    3.60
   1   3  10   84.39    3.70
   1   3  10   89.49    3.50
  -1  -2 -10    0.90    0.40
  -1  -2 -10    1.20    0.50
  -1  -2 -10    0.80    0.30
  -1  -2 -10    1.90    0.60
  -1  -2 -10    0.80    0.40
  -1  -2 -10    2.00    0.60
  -1  -2 -10    1.20    0.50
   1   2  10    1.30    0.40
   1   2  10    1.80    0.60
   1   2  10    0.70    0.40
   1   2  10    0.60    0.70
   1   2  10    1.60    0.70
   1   2  10    1.40    0.40
  -1  -1 -10   70.19    3.20
  -1  -1 -10   67.39    3.00
  -1  -1 -10   74.79    3.00
  -1  -1 -10   69.79    2.80
  -1  -1 -10   70.99    3.00
   1   1  10   65.89    3.10
   1   1  10   71.19    3.50
   1   1  10   71.09    3.20
   1   1  10   68.89    3.20
   1   1  10   69.39    2.80
   1   1  10   73.19    3.70
  -1   0 -10    0.90    0.40
  -1   0 -10    0.30    0.40
  -1   0 -10    0.40    0.30
  -1   0 -10    0.20    0.30
  -1   0 -10    0.20    0.40
  -1   0 -10    0.20    0.40
   1   0  10    0.90    0.30
   1   0  10    0.90    0.50
   1   0  10   -0.20    0.50
   1   0  10    0.10    0.30
   1   0  10    0.90    0.60
   1   0  10    0.20    0.40
  -1   1 -10   16.20    1.20
  -1   1 -10   17.00    1.10
  -1   1 -10   14.40    1.20
  -1   1 -10   21.00    1.40
  -1   1 -10   16.40    1.40
   1  -1  10   15.70    1.90
   1  -1  10   16.20    1.30
   1  -1  10   14.50    1.00
   1  -1  10   14.60    0.80
   1  -1  10   17.00    1.30
  -1   2 -10   26.60    1.70
  -1   2 -10   25.10    1.60
  -1   2 -10   28.70    1.90
  -1   2 -10   24.20    1.70
   1  -2  10   26.20    1.40
   1  -2  10   25.90    2.30
   1  -2  10   31.30    1.90
  -1   3 -10    9.10    1.20
  -1   3 -10    7.30    1.20
  -1   3 -10    9.60    1.20
  -1   3 -10   10.90    1.20
   1  -3  10   15.20    2.10
   1  -3  10   11.00    1.30
  -1   4 -10   12.70    1.40
  -1   4 -10   13.80    1.60
  -1   4 -10   12.00    1.60
   1  -4  10   14.10    1.50
   1  -4  10   13.90    2.10
  -1   5 -10    3.30    0.90
  -1   5 -10    4.40    1.10
  -1   5 -10    5.20    1.00
   1  -5  10    2.60    1.30
  -2  -8 -10    0.30    0.80
  -2  -8 -10    0.00    0.80
   2   8  10   -0.30    0.60
   2   8  10    0.20    0.40
   2   8  10    0.10    0.50
  -2  -7 -10    3.40    1.20
  -2  -7 -10    4.40    1.20
   2   7  10    2.10    0.60
   2   7  10    2.10    0.70
   2   7  10    2.90    0.80
  -2  -6 -10    0.90    0.80
  -2  -6 -10    1.10    0.80
  -2  -6 -10   -0.10    0.30
   2   6  10    1.20    0.50
   2   6  10    0.40    0.50
   2   6  10    0.50    0.50
  -2  -5 -10   32.40    1.80
  -2  -5 -10   35.80    2.50
  -2  -5 -10   32.50    1.80
   2   5  10   36.30    1.90
   2   5  10   37.30    2.10
   2   5  10   34.20    1.90
   2   5  10   32.30    1.70
  -2  -4 -10   22.30    1.40
  -2  -4 -10   22.10    1.80
  -2  -4 -10   24.50    1.50
  -2  -4 -10   23.60    1.20
   2   4  10   24.30    2.20
   2   4  10   24.00    1.50
   2   4  10   27.00    1.50
   2   4  10   23.50    1.30
   2   4  10   23.70    1.60
  -2  -3 -10   31.20    1.60
  -2  -3 -10   31.10    1.70
  -2  -3 -10   30.00    1.30
  -2  -3 -10   33.40    2.00
  -2  -3 -10   30.20    1.70
   2   3  10   30.70    1.70
   2   3  10   33.90    1.80
   2   3  10   35.50    2.50
   2   3  10   33.30    1.80
   2   3  10   36.60    2.00
  -2  -2 -10   25.50    1.60
  -2  -2 -10   25.50    1.60
  -2  -2 -10   26.50    1.40
  -2  -2 -10   28.30    1.20
  -2  -2 -10   26.00    1.60
  -2  -2 -10   26.70    1.60
   2   2  10   26.90    1.60
   2   2  10   28.50    1.60
   2   2  10   29.90    2.20
   2   2  10   29.60    1.80
   2   2  10   30.20    1.90
   2   2  10   27.20    1.60
  -2  -1 -10   27.40    1.40
  -2  -1 -10   26.90    1.60
  -2  -1 -10   25.00    1.60
  -2  -1 -10   26.10    1.30
  -2  -1 -10   25.30    1.70
   2   1  10   24.70    1.80
   2   1  10   26.10    1.70
   2   1  10   29.30    1.50
   2   1  10   29.00    2.20
   2   1  10   28.10    1.70
   2   1  10   26.00    1.50
  -2   0 -10   29.20    1.80
  -2   0 -10   30.80    1.40
  -2   0 -10   28.20    1.40
  -2   0 -10   29.30    1.80
  -2   0 -10   28.80    1.70
   2   0  10   29.20    1.80
   2   0  10   30.40    2.10
   2   0  10   28.10    1.50
   2   0  10   30.30    1.50
   2   0  10   27.60    1.80
  -2   1 -10   55.89    2.60
  -2   1 -10   50.09    2.80
  -2   1 -10   55.39    2.40
  -2   1 -10   54.69    2.20
  -2   1 -10   53.89    2.70
   2  -1  10   53.29    2.80
   2  -1  10   53.89    2.70
   2  -1  10   52.79    2.20
   2  -1  10   55.69    2.40
   2  -1  10   55.59    3.20
  -2   2 -10   28.00    1.80
  -2   2 -10   23.00    1.80
  -2   2 -10   25.50    1.70
  -2   2 -10   26.10    1.60
   2  -2  10   27.00    2.30
   2  -2  10   26.80    1.50
   2  -2  10   26.60    1.80
  -2   3 -10    5.60    0.90
  -2   3 -10    7.60    1.10
  -2   3 -10    5.00    1.00
  -2   3 -10    6.20    1.00
   2  -3  10    8.20    1.60
   2  -3  10    5.40    1.00
   2  -3  10    5.70    0.80
  -2   4 -10   -0.20    0.50
  -2   4 -10    0.00    0.60
  -2   4 -10    0.90    0.60
   2  -4  10    0.30    0.50
   2  -4  10    0.30    0.80
  -3  -8 -10    2.00    1.10
  -3  -8 -10    2.20    1.00
   3   8  10    3.20    0.70
   3   8  10    2.50    0.80
   3   8  10    3.20    0.80
  -3  -7 -10    1.00    0.80
  -3  -7 -10    1.80    1.00
   3   7  10    1.40    0.60
   3   7  10    1.30    0.70
   3   7  10    2.00    0.60
  -3  -6 -10    9.10    1.60
  -3  -6 -10    9.50    1.10
   3   6  10   11.50    1.20
   3   6  10   10.80    1.10
   3   6  10   11.50    1.30
  -3  -5 -10   47.70    3.00
  -3  -5 -10   51.09    2.40
  -3  -5 -10   49.90    2.40
   3   5  10   49.70    2.60
   3   5  10   55.29    2.40
   3   5  10   52.69    2.30
   3   5  10   53.99    2.80
   3   5  10   49.30    2.40
  -3  -4 -10   -0.20    0.30
  -3  -4 -10    0.70    0.40
  -3  -4 -10    0.40    0.60
   3   4  10   -0.10    0.20
   3   4  10    0.40    0.40
   3   4  10    1.30    0.50
   3   4  10    0.10    0.30
   3   4  10   -0.10    0.60
   3   4  10    0.50    0.40
  -3  -3 -10   31.00    2.00
  -3  -3 -10   30.90    1.70
  -3  -3 -10   31.90    1.70
   3   3  10   33.20    1.80
   3   3  10   32.10    1.70
   3   3  10   33.00    1.90
   3   3  10   30.60    1.80
   3   3  10   35.60    2.50
   3   3  10   30.70    1.90
  -3  -2 -10    1.30    0.50
  -3  -2 -10    0.80    0.40
  -3  -2 -10    0.60    0.20
  -3  -2 -10    0.50    0.30
  -3  -2 -10    1.10    0.40
  -3  -2 -10    0.70    0.20
   3   2  10    1.40    0.70
   3   2  10    0.50    0.40
   3   2  10    1.50    0.60
   3   2  10    1.30    0.50
   3   2  10    1.20    0.50
   3   2  10    1.80    0.60
  -3  -1 -10   11.00    1.20
  -3  -1 -10   10.00    0.60
  -3  -1 -10   13.50    1.30
  -3  -1 -10   11.60    0.90
  -3  -1 -10    9.50    1.10
   3   1  10   13.90    1.40
   3   1  10   13.80    1.50
   3   1  10   12.10    1.30
   3   1  10   11.00    1.00
   3   1  10   11.00    0.90
   3   1  10   13.50    1.50
  -3   0 -10    3.30    0.80
  -3   0 -10    5.70    0.70
  -3   0 -10    4.80    0.90
  -3   0 -10    4.20    0.50
  -3   0 -10    4.00    0.80
   3   0  10    5.10    0.60
   3   0  10    5.20    0.90
   3   0  10    3.60    0.90
   3   0  10    6.10    0.80
   3   0  10    4.90    0.90
  -3   1 -10    0.20    0.50
  -3   1 -10    0.70    0.40
  -3   1 -10    1.10    0.60
  -3   1 -10    0.10    0.30
  -3   1 -10    0.60    0.50
   3  -1  10    0.10    0.30
   3  -1  10   -0.40    0.40
   3  -1  10   -0.20    0.50
   3  -1  10    0.20    0.40
   3  -1  10   -0.50    0.40
  -3   2 -10    4.80    1.00
  -3   2 -10    3.40    0.60
  -3   2 -10    4.40    1.00
  -3   2 -10    6.20    1.00
   3  -2  10    4.70    1.20
   3  -2  10    4.80    1.00
   3  -2  10    5.40    0.80
  -3   3 -10    6.30    1.00
  -3   3 -10    6.80    1.20
  -3   3 -10    4.20    1.10
   3  -3  10    6.30    1.40
   3  -3  10    5.10    0.80
   3  -3  10    6.70    1.10
  -3   4 -10    6.10    1.20
  -3   4 -10    9.30    1.40
   3  -4  10    8.50    1.40
   3  -4  10    5.60    1.50
   3  -4  10    6.40    1.00
  -4  -9 -10    4.20    1.40
  -4  -9 -10    2.10    1.30
   4   9  10    4.00    0.70
   4   9  10    2.40    0.90
   4   9  10    2.10    0.70
  -4  -8 -10   12.30    1.30
  -4  -8 -10   15.10    2.20
   4   8  10    9.20    1.10
   4   8  10   11.80    1.40
   4   8  10   11.80    1.20
  -4  -7 -10   15.90    2.20
  -4  -7 -10   20.50    1.50
   4   7  10   19.50    1.40
   4   7  10   21.00    1.50
   4   7  10   20.10    1.40
  -4  -6 -10   28.90    2.40
  -4  -6 -10   31.50    1.80
   4   6  10   29.50    2.00
   4   6  10   32.40    1.80
   4   6  10   33.70    1.80
   4   6  10   31.90    1.70
   4   6  10   31.50    1.90
  -4  -5 -10   57.59    3.30
  -4  -5 -10   54.29    2.60
  -4  -5 -10   54.79    2.60
   4   5  10   62.39    2.50
   4   5  10   57.39    2.80
   4   5  10   62.19    2.60
   4   5  10   56.79    2.70
   4   5  10   59.89    3.00
  -4  -4 -10   38.30    2.00
  -4  -4 -10   41.90    2.50
  -4  -4 -10   41.60    2.10
   4   4  10   44.80    2.30
   4   4  10   44.80    2.90
   4   4  10   39.60    2.20
   4   4  10   38.30    2.10
   4   4  10   41.00    2.20
  -4  -3 -10   47.20    2.20
  -4  -3 -10   48.40    2.30
  -4  -3 -10   49.50    2.60
   4   3  10   48.40    3.00
   4   3  10   46.40    2.40
   4   3  10   45.30    2.40
   4   3  10   48.10    2.40
   4   3  10   44.80    2.30
  -4  -2 -10    0.60    0.40
  -4  -2 -10    0.20    0.30
  -4  -2 -10    0.20    0.30
   4   2  10   -0.10    0.30
   4   2  10    0.60    0.50
   4   2  10    0.50    0.60
   4   2  10    0.70    0.40
   4   2  10    0.50    0.50
  -4  -1 -10    0.00    0.40
  -4  -1 -10    0.40    0.40
   4   1  10    1.00    0.60
   4   1  10    0.60    0.40
   4   1  10    0.40    0.40
   4   1  10    0.70    0.40
   4   1  10    0.60    0.50
  -4   0 -10    5.00    0.90
  -4   0 -10    5.50    0.80
   4   0  10    3.10    0.60
   4   0  10    7.80    1.20
   4   0  10    6.50    1.10
   4   0  10    4.70    0.80
  -4   1 -10   -0.40    0.40
  -4   1 -10    0.70    0.40
   4  -1  10    0.00    0.40
   4  -1  10    0.20    0.50
   4  -1  10    0.40    0.40
   4  -1  10    0.00    0.50
  -4   2 -10    1.10    0.70
  -4   2 -10   -0.10    0.40
   4  -2  10    0.50    0.70
   4  -2  10    0.40    0.50
   4  -2  10    0.40    0.50
  -4   3 -10   -0.40    0.50
   4  -3  10    0.10    0.50
   4  -3  10    0.50    0.50
   4  -3  10    1.20    0.80
  -5  -9 -10    7.80    1.10
  -5  -9 -10    5.30    1.50
   5   9  10    8.20    0.90
   5   9  10    7.50    1.00
  -5  -8 -10    1.60    1.00
  -5  -8 -10    1.60    0.60
   5   8  10    1.10    0.60
   5   8  10    1.90    0.70
   5   8  10    1.60    0.50
   5   8  10    1.80    0.50
  -5  -7 -10    9.20    1.20
  -5  -7 -10    7.80    1.60
   5   7  10   11.50    1.10
   5   7  10    8.80    1.10
   5   7  10   11.90    1.50
   5   7  10    9.00    1.00
  -5  -6 -10   71.89    4.00
  -5  -6 -10   74.69    3.40
   5   6  10   71.99    3.20
   5   6  10   88.09    3.60
   5   6  10   79.49    3.70
   5   6  10   75.19    3.40
  -5  -5 -10    0.10    0.50
  -5  -5 -10    0.10    0.40
   5   5  10    0.50    0.30
   5   5  10    1.10    0.50
   5   5  10   -0.20    0.40
  -5  -4 -10    0.90    0.40
  -5  -4 -10    0.80    0.50
  -5  -4 -10    1.30    0.60
   5   4  10    0.20    0.30
   5   4  10    0.90    0.50
   5   4  10   -0.40    0.70
   5   4  10    0.80    0.50
   5   4  10    0.60    0.40
  -5  -3 -10    3.10    0.60
  -5  -3 -10    1.40    0.50
  -5  -3 -10    2.70    0.80
   5   3  10    2.00    0.60
   5   3  10    2.60    0.60
   5   3  10    2.00    0.60
   5   3  10    1.40    0.60
   5   3  10    1.90    0.70
  -5  -2 -10   13.50    1.10
  -5  -2 -10   14.60    1.20
   5   2  10   12.70    1.40
   5   2  10   13.70    1.40
   5   2  10   13.50    1.40
   5   2  10   12.90    1.10
   5   2  10   13.10    1.50
  -5  -1 -10   39.80    2.00
  -5  -1 -10   36.80    2.20
   5   1  10   37.70    2.30
   5   1  10   41.10    2.20
   5   1  10   40.30    2.40
   5   1  10   41.40    2.10
  -5   0 -10   52.09    2.40
  -5   0 -10   47.60    2.70
   5   0  10   48.70    2.70
   5   0  10   49.40    2.80
   5   0  10   45.60    2.30
  -5   1 -10    0.30    0.40
  -5   1 -10    0.90    0.60
   5  -1  10    0.10    0.50
   5  -1  10    0.20    0.50
  -5   2 -10   14.00    1.20
  -5   2 -10   14.30    1.70
   5  -2  10   14.30    1.80
   5  -2  10   16.30    1.70
  -5   3 -10    1.80    0.90
   5  -3  10    0.80    0.70
   5  -3  10    1.20    0.70
  -6  -9 -10    0.60    0.90
  -6  -9 -10   -0.60    0.40
   6   9  10   -0.30    0.30
   6   9  10    0.90    0.80
   6   9  10   -0.20    0.50
  -6  -8 -10   13.40    1.40
  -6  -8 -10   13.30    2.10
   6   8  10   10.70    1.50
   6   8  10   13.80    1.00
   6   8  10   13.60    1.20
  -6  -7 -10    0.40    0.40
  -6  -7 -10    0.30    0.80
   6   7  10   -0.10    0.50
   6   7  10   -0.10    0.30
   6   7  10    0.00    0.30
  -6  -6 -10   38.70    2.10
  -6  -6 -10   39.60    2.70
   6   6  10   35.00    2.00
   6   6  10   36.80    2.10
   6   6  10   44.50    2.50
  -6  -5 -10    6.40    0.90
  -6  -5 -10    4.80    1.10
   6   5  10    5.90    0.90
   6   5  10    3.90    0.80
   6   5  10    5.50    1.00
  -6  -4 -10    3.60    1.00
  -6  -4 -10    4.10    0.80
   6   4  10    5.00    0.90
   6   4  10    4.10    0.90
   6   4  10    4.50    0.80
  -6  -3 -10   14.10    1.20
  -6  -3 -10   14.50    1.20
   6   3  10   14.20    1.40
   6   3  10   16.80    1.40
   6   3  10   15.10    1.30
  -6  -2 -10   12.50    1.40
  -6  -2 -10   13.60    1.10
   6   2  10   12.20    1.40
   6   2  10   13.10    1.40
   6   2  10   12.90    1.40
   6   2  10   15.10    1.60
  -6  -1 -10    1.20    0.60
  -6  -1 -10    1.60    0.60
   6   1  10    0.10    0.50
   6   1  10    1.10    0.60
   6   1  10    2.00    0.60
   6   1  10    1.30    0.70
  -6   0 -10    1.40    0.60
  -6   0 -10    0.50    0.50
   6   0  10    0.20    0.50
   6   0  10    1.80    0.70
   6   0  10    1.50    0.60
   6   0  10    1.00    0.70
   6   0  10    1.20    0.60
  -6   1 -10    0.20    0.40
  -6   1 -10    0.30    0.60
   6  -1  10   -0.30    0.50
   6  -1  10    0.40    0.60
  -6   2 -10    3.30    1.00
  -6   2 -10    4.40    0.90
   6  -2  10    5.30    1.20
   6  -2  10    4.70    1.10
  -7  -8 -10    4.80    1.40
  -7  -8 -10    5.70    1.00
   7   8  10    4.00    1.00
   7   8  10    4.20    0.70
   7   8  10    4.90    0.80
  -7  -7 -10    3.60    0.80
  -7  -7 -10    3.20    1.10
   7   7  10    2.90    0.60
   7   7  10    2.50    0.60
   7   7  10    3.90    1.00
  -7  -6 -10    8.30    1.60
  -7  -6 -10    6.90    1.00
   7   6  10    9.50    1.40
   7   6  10    6.90    1.00
   7   6  10    5.70    0.90
  -7  -5 -10   -0.10    0.40
  -7  -5 -10   -0.10    0.60
   7   5  10    0.00    0.60
   7   5  10    0.20    0.40
   7   5  10    0.90    0.50
  -7  -4 -10    0.70    0.50
   7   4  10   -0.20    0.50
   7   4  10    1.10    0.50
   7   4  10   -0.30    0.30
  -7  -3 -10    1.20    0.50
   7   3  10    1.70    0.70
   7   3  10    0.70    0.60
   7   3  10    1.60    0.60
  -7  -2 -10    2.20    0.70
  -7  -2 -10    4.70    0.90
   7   2  10    4.30    0.90
   7   2  10    4.50    1.00
   7   2  10    3.60    0.90
  -7  -1 -10   11.20    1.50
  -7  -1 -10   12.60    1.40
   7   1  10   14.20    1.60
   7   1  10    7.80    1.20
   7   1  10   12.40    1.50
   7   1  10    9.40    1.40
  -7   0 -10    0.80    0.50
  -7   0 -10   -0.20    0.50
   7   0  10    0.10    0.70
   7   0  10   -0.70    0.50
   7   0  10   -0.10    0.60
   7   0  10    0.10    0.90
  -8  -7 -10    0.50    0.70
  -8  -7 -10    1.40    0.70
   8   7  10    0.70    0.40
   8   7  10    0.50    0.40
   8   7  10    0.40    0.60
  -8  -6 -10    0.70    0.50
  -8  -6 -10   -0.80    0.60
   8   6  10    0.30    0.40
   8   6  10    0.20    0.50
   8   6  10   -0.20    0.40
  -8  -5 -10    8.90    1.20
   8   5  10   10.70    1.50
   8   5  10   10.30    1.30
   8   5  10   10.50    1.30
  -8  -4 -10   49.70    2.60
   8   4  10   46.80    2.60
   8   4  10   46.70    2.70
   8   4  10   46.00    2.70
  -8  -3 -10   26.40    1.80
   8   3  10   25.20    2.00
   8   3  10   24.20    1.90
   8   3  10   23.90    1.90
   8   3  10   28.10    1.90
  -8  -2 -10    1.60    0.70
   8   2  10    1.20    0.80
   8   2  10    0.10    0.60
   8   2  10    0.50    0.60
   8   2  10    1.20    0.70
  -8  -1 -10    8.30    1.20
   8   1  10    5.10    1.20
   8   1  10    9.00    1.50
   8   1  10    9.30    1.40
   8   1  10    7.40    1.30
  -9  -5 -10    6.30    1.10
   9   5  10    3.30    1.00
   9   5  10    6.20    1.10
   9   5  10    6.00    1.00
   4  -2 -11    4.30    0.90
   4  -2 -11    3.90    0.90
   4  -2 -11    5.60    1.10
  -4   2  11    5.40    1.00
  -4   2  11    4.30    1.00
   4  -1 -11    6.80    1.10
   4  -1 -11    8.00    1.20
   4  -1 -11    8.50    1.10
  -4   1  11    8.70    1.20
  -4   1  11    5.20    1.10
  -4   1  11    5.10    1.40
   4   0 -11   10.70    1.30
   4   0 -11    7.40    1.20
   4   0 -11   11.00    1.50
   4   0 -11    9.00    1.20
  -4   0  11   11.00    1.40
  -4   0  11   10.10    1.40
  -4   0  11    9.70    1.80
   4   1 -11    7.50    1.20
   4   1 -11    8.40    1.10
   4   1 -11    7.40    1.10
   4   1 -11    8.60    1.20
  -4  -1  11   11.50    2.10
  -4  -1  11    9.40    1.40
  -4  -1  11    7.50    1.20
   4   2 -11    0.40    0.60
   4   2 -11    0.10    0.50
   4   2 -11    0.00    0.50
   4   2 -11    0.50    0.50
  -4  -2  11    0.60    0.90
  -4  -2  11    0.20    0.50
   4   3 -11   14.70    1.60
   4   3 -11   14.60    1.50
   4   3 -11   13.70    1.50
  -4  -3  11   16.80    1.80
  -4  -3  11   13.10    2.30
   3  -4 -11   20.90    2.50
   3  -4 -11   22.30    1.80
   3  -4 -11   27.80    3.10
  -3   4  11   24.50    2.00
  -3   4  11   26.70    2.00
  -3   4  11   24.80    1.80
   3  -3 -11   -0.20    0.90
   3  -3 -11   -0.60    0.40
   3  -3 -11   -0.40    0.50
  -3   3  11    0.00    0.50
  -3   3  11    0.40    0.50
   3  -2 -11   -0.80    0.40
   3  -2 -11   -0.30    0.40
   3  -2 -11   -0.50    0.40
  -3   2  11   -0.20    0.40
  -3   2  11   -0.30    0.40
   3  -1 -11    0.40    0.60
   3  -1 -11    0.40    0.50
   3  -1 -11    0.70    0.50
   3  -1 -11    0.60    0.50
  -3   1  11    0.20    0.50
  -3   1  11    0.70    0.60
  -3   1  11    0.60    0.70
   3   0 -11    3.80    0.80
   3   0 -11    4.50    0.90
   3   0 -11    4.40    0.90
   3   0 -11    3.50    0.80
  -3   0  11    3.80    1.30
  -3   0  11    4.50    0.90
  -3   0  11    3.40    0.80
   3   1 -11    8.50    1.10
   3   1 -11    7.70    1.10
   3   1 -11    8.70    1.30
   3   1 -11    8.70    1.20
  -3  -1  11    9.30    1.30
  -3  -1  11    8.90    1.70
  -3  -1  11    9.20    1.20
   3   2 -11    1.40    0.60
   3   2 -11    1.60    0.70
   3   2 -11    3.70    0.80
  -3  -2  11    1.70    1.00
  -3  -2  11    2.80    0.80
  -3  -2  11    2.40    0.60
   3   3 -11    1.60    0.70
   3   3 -11    2.90    0.80
   3   3 -11    1.90    0.70
  -3  -3  11    2.80    1.20
  -3  -3  11    2.10    0.70
   3   4 -11   10.60    1.30
   3   4 -11    9.60    1.30
   3   4 -11   11.00    1.40
  -3  -4  11    9.50    1.30
  -3  -4  11   10.50    2.10
   2  -5 -11   20.60    1.70
   2  -5 -11   18.60    2.30
   2  -5 -11   22.90    2.80
  -2   5  11   21.80    1.80
  -2   5  11   23.80    1.90
  -2   5  11   23.70    1.60
   2  -4 -11    2.20    1.10
   2  -4 -11    0.60    0.70
   2  -4 -11    1.70    0.70
  -2   4  11    1.10    0.60
  -2   4  11    2.40    0.80
  -2   4  11    0.80    0.50
   2  -3 -11    1.10    0.80
   2  -3 -11   -0.10    0.40
   2  -3 -11    0.20    0.40
   2  -3 -11    0.80    0.50
  -2   3  11    0.40    0.50
  -2   3  11    0.90    0.60
  -2   3  11    0.60    0.60
   2  -2 -11    4.20    0.90
   2  -2 -11    2.70    0.60
   2  -2 -11    2.40    0.80
  -2   2  11    2.80    0.90
  -2   2  11    4.60    0.90
  -2   2  11    3.50    0.80
   2  -1 -11    1.00    0.50
   2  -1 -11    1.20    0.60
   2  -1 -11    1.50    0.60
  -2   1  11    1.10    0.60
  -2   1  11    1.00    0.60
  -2   1  11    0.90    0.60
  -2   1  11    0.40    0.80
   2   0 -11   44.80    2.50
   2   0 -11   43.70    2.30
   2   0 -11   46.00    2.40
  -2   0  11   50.39    2.60
  -2   0  11   46.70    3.20
  -2   0  11   45.60    2.50
   2   1 -11   15.20    1.30
   2   1 -11   17.40    1.40
   2   1 -11   12.00    1.40
  -2  -1  11   15.10    1.30
  -2  -1  11   14.80    1.60
  -2  -1  11   14.00    2.20
   2   2 -11   14.20    1.50
   2   2 -11    8.60    1.10
   2   2 -11   13.10    1.40
  -2  -2  11    9.10    1.20
  -2  -2  11    9.10    1.20
  -2  -2  11   12.30    2.00
   2   3 -11   22.30    1.80
   2   3 -11   21.60    1.60
   2   3 -11   24.50    1.70
  -2  -3  11   22.40    2.80
  -2  -3  11   24.30    1.70
   2   4 -11   55.49    3.00
   2   4 -11   60.49    3.00
   2   4 -11   57.49    3.20
  -2  -4  11   60.19    3.00
  -2  -4  11   56.49    4.10
   1  -6 -11    1.70    1.30
   1  -6 -11    0.30    0.90
  -1   6  11    2.90    0.90
  -1   6  11    3.30    0.90
  -1   6  11    2.50    0.90
   1  -5 -11    5.90    1.00
   1  -5 -11    6.10    1.40
   1  -5 -11    9.20    1.90
  -1   5  11    7.00    1.30
  -1   5  11    5.60    1.10
  -1   5  11    7.70    1.00
  -1   5  11    6.70    1.10
   1  -4 -11    4.80    0.90
   1  -4 -11    4.20    1.30
   1  -4 -11    3.30    0.60
  -1   4  11    4.10    0.90
  -1   4  11    3.30    0.70
  -1   4  11    5.40    1.00
  -1   4  11    2.90    0.90
   1  -3 -11    4.30    0.70
   1  -3 -11    2.40    0.90
   1  -3 -11    2.80    0.60
   1  -3 -11    3.60    0.70
  -1   3  11    2.70    0.70
  -1   3  11    4.10    0.80
  -1   3  11    4.40    0.80
  -1   3  11    4.30    0.90
   1  -2 -11    6.80    0.90
   1  -2 -11    7.60    0.90
   1  -2 -11    7.10    0.90
   1  -2 -11   10.70    1.20
  -1   2  11    8.50    1.30
  -1   2  11    8.40    1.20
  -1   2  11    6.40    1.20
  -1   2  11    9.40    1.10
   1  -1 -11   42.60    2.30
   1  -1 -11   42.10    2.20
   1  -1 -11   47.40    2.50
  -1   1  11   45.40    2.40
  -1   1  11   40.50    2.00
  -1   1  11   44.80    2.80
  -1   1  11   40.70    2.90
   1   0 -11    4.30    0.80
   1   0 -11    3.30    0.70
   1   0 -11    4.10    0.80
  -1   0  11    3.80    1.10
  -1   0  11    3.80    0.80
   1   1 -11    5.60    0.90
   1   1 -11    5.90    0.90
   1   1 -11    4.90    0.90
  -1  -1  11    6.00    1.40
  -1  -1  11    7.30    1.00
   1   2 -11    1.30    0.60
   1   2 -11    0.10    0.40
   1   2 -11    0.20    0.50
   1   2 -11    1.70    0.60
  -1  -2  11    0.70    0.80
  -1  -2  11    1.60    0.60
   1   3 -11    3.70    0.90
   1   3 -11    3.90    0.90
   1   3 -11    3.90    0.90
  -1  -3  11    7.00    1.10
  -1  -3  11    3.40    1.20
  -1  -3  11    5.20    0.90
   1   4 -11    1.50    0.70
   1   4 -11    1.10    0.60
   1   4 -11    0.50    0.60
  -1  -4  11    0.60    0.60
  -1  -4  11    1.80    1.00
   0  -7 -11    0.00    0.80
   0  -7 -11    0.20    1.00
   0   7  11   -0.20    0.50
   0   7  11    0.90    0.80
   0   7  11    0.20    0.60
   0  -6 -11   -0.80    0.60
   0  -6 -11    0.70    0.90
   0   6  11    0.40    0.60
   0   6  11    0.00    0.50
   0   6  11    0.70    0.50
   0  -5 -11    8.30    1.60
   0  -5 -11    4.50    1.20
   0  -5 -11    6.20    0.90
   0   5  11    4.10    0.90
   0   5  11    3.80    0.80
   0   5  11    4.10    0.90
   0  -4 -11   13.40    1.10
   0  -4 -11   16.20    2.00
   0  -4 -11   14.40    1.20
   0   4  11   12.80    1.40
   0   4  11   16.20    1.30
   0   4  11   19.20    1.80
   0  -3 -11   39.10    2.00
   0  -3 -11   40.30    1.90
   0  -3 -11   38.30    2.10
   0  -3 -11   38.00    2.00
   0  -3 -11   40.40    2.50
   0   3  11   37.20    2.30
   0   3  11   42.90    2.20
   0   3  11   38.70    2.20
   0  -2 -11    3.90    0.80
   0  -2 -11    3.60    0.60
   0  -2 -11    4.20    0.80
   0  -2 -11    4.90    0.80
   0  -2 -11    4.60    0.60
   0   2  11    5.20    0.80
   0   2  11    4.30    0.80
   0   2  11    4.90    1.10
   0   2  11    4.70    0.90
   0   2  11    5.10    1.10
   0  -1 -11    0.90    0.50
   0  -1 -11    1.00    0.50
   0  -1 -11    1.00    0.50
   0  -1 -11    0.50    0.40
   0   1  11   -0.40    0.30
   0   1  11    0.80    0.30
   0   1  11    0.30    0.40
   0   1  11   -0.90    0.40
   0   1  11    0.30    0.60
   0   0 -11    2.30    0.60
   0   0 -11    4.30    0.90
   0   0 -11    4.80    0.80
   0   0  11    3.30    1.00
   0   0  11    2.70    0.70
   0   1 -11   27.20    1.70
   0   1 -11   27.50    1.70
   0   1 -11   27.80    1.80
   0   1 -11   29.60    1.90
   0  -1  11   32.10    1.90
   0  -1  11   26.20    2.30
   0   2 -11    5.30    0.90
   0   2 -11    6.90    1.00
   0   2 -11    6.60    1.10
   0   2 -11    3.60    0.80
   0  -2  11    8.40    1.60
   0  -2  11    7.30    1.10
   0   3 -11    2.40    0.80
   0   3 -11    4.00    0.90
   0   3 -11    2.40    0.80
   0  -3  11    3.80    0.80
   0  -3  11    5.00    1.40
   0   4 -11   70.99    3.60
   0   4 -11   72.69    3.80
   0   4 -11   70.39    3.40
   0  -4  11   69.89    4.50
  -1  -7 -11   46.70    3.40
  -1  -7 -11   49.40    3.60
   1   7  11   55.29    3.10
   1   7  11   61.69    3.10
   1   7  11   51.49    2.80
  -1  -6 -11   -0.50    0.60
  -1  -6 -11    0.40    0.90
   1   6  11   -0.50    0.40
   1   6  11    0.20    0.40
   1   6  11   -0.10    0.50
  -1  -5 -11   14.50    2.00
  -1  -5 -11   16.10    1.30
   1   5  11   17.20    1.40
   1   5  11   16.10    1.40
   1   5  11   15.60    1.60
  -1  -4 -11   22.30    1.90
  -1  -4 -11   21.70    1.50
  -1  -4 -11   22.90    1.40
   1   4  11   25.30    1.80
   1   4  11   24.30    1.60
   1   4  11   25.80    1.70
   1   4  11   22.20    1.40
  -1  -3 -11   16.30    1.70
  -1  -3 -11   18.10    1.30
  -1  -3 -11   17.30    1.30
   1   3  11   16.90    1.50
   1   3  11   20.20    1.40
   1   3  11   19.00    1.40
  -1  -2 -11   40.50    2.20
  -1  -2 -11   44.40    2.20
  -1  -2 -11   41.60    2.30
  -1  -2 -11   41.60    1.80
  -1  -2 -11   43.40    2.00
   1   2  11   41.10    2.20
   1   2  11   38.30    2.30
   1   2  11   45.50    2.70
   1   2  11   44.30    2.10
   1   2  11   43.50    2.90
  -1  -1 -11   10.60    0.80
  -1  -1 -11    9.80    1.20
  -1  -1 -11    8.40    1.10
  -1  -1 -11    9.50    1.10
  -1  -1 -11    8.60    1.00
   1   1  11   10.20    1.20
   1   1  11    9.60    1.60
   1   1  11    9.60    0.80
   1   1  11   10.70    1.50
   1   1  11    9.50    1.20
  -1   0 -11    6.90    0.70
  -1   0 -11    7.10    1.10
  -1   0 -11    6.50    0.80
  -1   0 -11    6.20    0.90
  -1   0 -11    5.20    0.90
   1   0  11    7.40    1.40
   1   0  11    5.90    0.70
   1   0  11    5.80    0.70
   1   0  11    5.50    0.90
   1   0  11    6.40    1.00
  -1   1 -11    0.40    0.40
  -1   1 -11    1.10    0.60
  -1   1 -11    1.00    0.50
  -1   1 -11    1.00    0.60
   1  -1  11    0.40    0.30
   1  -1  11    0.10    0.40
   1  -1  11    1.50    0.80
  -1   2 -11   31.90    2.00
  -1   2 -11   28.50    1.80
  -1   2 -11   28.70    1.80
  -1   2 -11   28.90    2.00
   1  -2  11   28.30    2.50
   1  -2  11   29.40    2.00
  -1   3 -11    6.30    1.10
  -1   3 -11    6.10    1.20
  -1   3 -11    6.70    1.10
  -1   3 -11    5.50    1.00
   1  -3  11    5.00    0.90
   1  -3  11    5.00    1.40
  -1   4 -11    4.70    1.00
  -1   4 -11    4.60    1.20
  -1   4 -11    4.80    1.00
   1  -4  11    5.20    1.50
  -2  -8 -11    9.10    1.80
  -2  -8 -11    7.80    1.80
   2   8  11    9.80    1.20
   2   8  11    8.50    1.30
   2   8  11   10.30    1.50
  -2  -7 -11    1.40    0.90
  -2  -7 -11    2.60    1.10
   2   7  11    1.30    0.50
   2   7  11    2.30    0.80
   2   7  11    1.30    0.60
  -2  -6 -11    1.00    0.90
   2   6  11    1.10    0.50
   2   6  11    1.40    0.60
   2   6  11    1.60    0.60
  -2  -5 -11   37.70    2.60
  -2  -5 -11   36.70    2.00
  -2  -5 -11   38.70    2.00
   2   5  11   36.20    1.90
   2   5  11   43.90    2.20
   2   5  11   36.30    2.10
   2   5  11   38.30    2.30
  -2  -4 -11   14.60    1.80
  -2  -4 -11   13.00    1.10
  -2  -4 -11   16.60    1.20
   2   4  11   16.30    1.30
   2   4  11   15.20    1.50
   2   4  11   17.00    1.20
   2   4  11   15.80    1.60
   2   4  11   14.80    1.10
  -2  -3 -11  307.97   10.70
  -2  -3 -11  306.17   10.90
  -2  -3 -11  300.67   11.20
  -2  -3 -11  306.57   10.80
   2   3  11  318.57   11.00
   2   3  11  324.57   11.20
   2   3  11  324.47   11.40
   2   3  11  318.37   11.00
  -2  -2 -11  155.18    6.10
  -2  -2 -11  162.68    5.90
  -2  -2 -11  156.18    6.10
   2   2  11  169.78    6.40
   2   2  11  156.78    6.20
   2   2  11  169.78    6.10
   2   2  11  167.58    6.60
  -2  -1 -11    1.80    0.60
  -2  -1 -11    2.00    0.60
  -2  -1 -11    1.20    0.60
  -2  -1 -11    1.90    0.50
  -2  -1 -11    2.30    0.40
   2   1  11    1.30    0.70
   2   1  11    2.20    0.60
   2   1  11    2.00    0.50
   2   1  11    2.30    0.70
   2   1  11    1.60    0.50
  -2   0 -11   10.20    1.20
  -2   0 -11   10.10    1.20
  -2   0 -11    9.50    1.20
  -2   0 -11   10.90    0.90
  -2   0 -11   11.80    0.80
   2   0  11   11.40    0.90
   2   0  11    9.10    1.20
   2   0  11   11.30    0.90
   2   0  11   13.80    1.80
   2   0  11   11.70    1.40
  -2   1 -11    5.60    0.90
  -2   1 -11    4.40    0.80
  -2   1 -11    3.90    0.80
  -2   1 -11    4.60    0.90
   2  -1  11    4.60    0.90
   2  -1  11    4.90    1.20
   2  -1  11    6.40    0.80
  -2   2 -11   14.00    1.60
  -2   2 -11   16.20    1.40
  -2   2 -11   17.40    1.70
   2  -2  11   18.50    2.30
   2  -2  11   15.50    1.70
   2  -2  11   16.60    1.20
  -2   3 -11    2.60    0.90
  -2   3 -11    2.70    0.80
  -2   3 -11    3.30    0.90
   2  -3  11    2.00    0.70
   2  -3  11    2.90    1.10
  -2   4 -11    2.90    1.00
  -2   4 -11    1.60    0.80
  -2   4 -11    2.40    0.90
   2  -4  11    1.30    0.70
   2  -4  11    3.20    1.20
  -3  -8 -11    0.00    0.70
  -3  -8 -11    0.00    0.90
   3   8  11   -0.30    0.30
   3   8  11   -0.30    0.60
   3   8  11    0.40    0.50
  -3  -7 -11    5.00    1.50
   3   7  11    5.70    1.00
   3   7  11    3.80    0.80
   3   7  11    4.40    0.90
  -3  -6 -11    0.50    0.40
  -3  -6 -11    0.30    0.90
   3   6  11    1.60    0.60
   3   6  11    0.60    0.50
   3   6  11    0.50    0.50
  -3  -5 -11    0.90    0.40
  -3  -5 -11    2.70    0.90
  -3  -5 -11    1.50    0.50
   3   5  11    1.80    0.60
   3   5  11    1.60    0.50
   3   5  11    1.70    0.70
   3   5  11    1.30    0.40
   3   5  11    2.70    0.60
  -3  -4 -11   56.19    2.70
  -3  -4 -11   59.39    3.10
  -3  -4 -11   51.49    2.50
   3   4  11   60.19    2.90
   3   4  11   57.09    2.90
   3   4  11   58.99    2.80
  -3  -3 -11    0.00    0.40
  -3  -3 -11   -0.30    0.30
  -3  -3 -11    0.50    0.50
   3   3  11    0.10    0.50
   3   3  11    0.60    0.40
   3   3  11    0.30    0.30
   3   3  11    0.00    0.40
   3   3  11    0.10    0.40
  -3  -2 -11    0.60    0.50
  -3  -2 -11    0.60    0.50
  -3  -2 -11    0.70    0.50
  -3  -2 -11    0.70    0.40
   3   2  11    0.10    0.30
   3   2  11   -0.20    0.40
   3   2  11    0.40    0.50
   3   2  11    0.20    0.40
   3   2  11   -0.10    0.40
  -3  -1 -11    0.60    0.40
  -3  -1 -11   -0.40    0.40
  -3  -1 -11    0.00    0.30
   3   1  11   -0.40    0.30
   3   1  11    0.00    0.50
   3   1  11    0.70    0.50
   3   1  11   -0.20    0.30
   3   1  11    0.10    0.30
  -3   0 -11   38.00    1.80
  -3   0 -11   36.70    2.10
  -3   0 -11   35.60    2.20
   3   0  11   36.20    2.20
   3   0  11   32.70    2.40
   3   0  11   37.40    1.90
   3   0  11   35.70    1.80
   3   0  11   37.10    2.30
  -3   1 -11    1.40    0.70
  -3   1 -11    1.70    0.50
  -3   1 -11    3.20    0.80
   3  -1  11    2.80    0.70
   3  -1  11    2.80    1.00
   3  -1  11    2.10    0.70
  -3   2 -11   43.60    2.40
  -3   2 -11   42.00    2.60
   3  -2  11   44.90    2.30
   3  -2  11   47.90    2.70
   3  -2  11   38.80    2.90
  -3   3 -11    3.70    0.90
  -3   3 -11    2.40    0.80
   3  -3  11    2.70    1.10
   3  -3  11    2.60    0.80
  -4  -8 -11   11.30    2.00
  -4  -8 -11    9.60    1.20
   4   8  11   10.80    1.20
   4   8  11   12.60    1.40
   4   8  11   14.50    1.50
  -4  -7 -11    0.40    0.80
  -4  -7 -11    0.20    0.50
   4   7  11    0.30    0.50
   4   7  11    0.20    0.40
   4   7  11    0.20    0.30
   4   7  11   -0.10    0.50
  -4  -6 -11   42.10    2.90
  -4  -6 -11   36.70    2.10
   4   6  11   40.30    2.00
   4   6  11   39.00    2.10
   4   6  11   38.10    2.20
   4   6  11   41.00    2.50
  -4  -5 -11   22.90    2.00
  -4  -5 -11   22.60    1.50
   4   5  11   25.00    1.70
   4   5  11   25.80    1.40
   4   5  11   24.40    1.60
   4   5  11   24.50    1.80
  -4  -4 -11   29.10    1.70
  -4  -4 -11   27.90    1.70
  -4  -4 -11   27.30    2.00
   4   4  11   31.30    1.90
   4   4  11   29.80    1.80
   4   4  11   27.20    1.80
   4   4  11   28.90    1.80
  -4  -3 -11   46.50    2.50
  -4  -3 -11   48.30    2.30
   4   3  11   43.60    2.50
   4   3  11   45.60    2.40
   4   3  11   45.80    2.40
   4   3  11   43.60    2.40
  -4  -2 -11   12.10    1.00
  -4  -2 -11   12.60    1.30
   4   2  11   13.00    1.10
   4   2  11   13.40    1.30
   4   2  11    9.30    1.20
   4   2  11   10.60    1.30
  -4  -1 -11   12.00    1.00
  -4  -1 -11    9.00    1.20
   4   1  11   12.90    1.00
   4   1  11   10.80    1.30
   4   1  11   11.90    1.40
   4   1  11   12.40    1.30
  -4   0 -11    0.60    0.40
  -4   0 -11    0.10    0.50
   4   0  11    0.40    0.50
   4   0  11    1.30    0.60
   4   0  11    0.00    0.40
  -4   1 -11    6.50    0.90
  -4   1 -11    5.40    1.00
   4  -1  11    5.60    1.00
   4  -1  11    8.30    1.30
  -4   2 -11    9.00    1.40
   4  -2  11    9.10    1.40
   4  -2  11    7.90    1.10
  -4   3 -11    3.90    1.00
   4  -3  11    7.60    1.10
   4  -3  11    5.60    1.20
   4  -3  11    5.30    1.50
  -5  -8 -11    8.90    1.30
  -5  -8 -11    7.60    1.70
   5   8  11    9.00    1.20
   5   8  11    9.00    1.00
   5   8  11    9.80    1.50
  -5  -7 -11    0.70    0.50
  -5  -7 -11    2.50    1.00
   5   7  11    0.60    0.40
   5   7  11    0.70    0.50
   5   7  11    0.90    0.60
  -5  -6 -11    0.10    0.50
  -5  -6 -11   -0.40    0.60
   5   6  11    0.10    0.50
   5   6  11    0.10    0.30
   5   6  11    0.50    0.40
  -5  -5 -11   16.20    1.30
  -5  -5 -11   18.90    2.20
   5   5  11   18.80    1.60
   5   5  11   17.40    1.40
   5   5  11   14.80    1.20
  -5  -4 -11    0.00    0.40
  -5  -4 -11    0.20    0.60
  -5  -4 -11    0.50    0.40
   5   4  11    0.10    0.40
   5   4  11    0.00    0.50
   5   4  11   -0.50    0.30
  -5  -3 -11   26.90    1.70
  -5  -3 -11   27.70    1.90
  -5  -3 -11   25.80    1.60
   5   3  11   26.20    1.70
   5   3  11   22.50    1.70
   5   3  11   26.30    1.80
   5   3  11   27.30    1.80
  -5  -2 -11    0.20    0.40
  -5  -2 -11   -0.30    0.40
   5   2  11    0.50    0.50
   5   2  11    0.80    0.50
   5   2  11    0.20    0.40
   5   2  11    0.20    0.40
  -5  -1 -11   11.50    1.20
  -5  -1 -11    8.70    1.20
   5   1  11   11.30    1.20
   5   1  11   12.00    1.50
   5   1  11   12.90    1.50
   5   1  11    8.90    1.10
  -5   0 -11    0.70    0.60
  -5   0 -11    0.70    0.50
   5   0  11    1.60    0.70
   5   0  11    1.30    0.70
   5   0  11    0.90    0.70
  -5   1 -11   -0.10    0.50
  -5   1 -11   -0.10    0.40
   5  -1  11    0.20    0.50
   5  -1  11    0.10    0.50
  -5   2 -11    2.90    0.90
  -5   2 -11    2.00    0.80
   5  -2  11    1.30    0.70
   5  -2  11    0.60    0.60
  -6  -8 -11    0.50    0.60
  -6  -8 -11   -0.50    0.70
   6   8  11    0.10    0.30
   6   8  11    0.20    0.40
   6   8  11    0.90    0.70
  -6  -7 -11    3.40    1.10
  -6  -7 -11    1.40    0.60
   6   7  11    1.20    0.70
   6   7  11    2.60    0.60
   6   7  11    2.50    0.60
  -6  -6 -11   27.90    2.30
  -6  -6 -11   27.90    1.80
   6   6  11   29.30    1.90
   6   6  11   28.50    2.10
   6   6  11   27.00    1.70
  -6  -5 -11   -0.60    0.40
  -6  -5 -11   -0.50    0.60
   6   5  11   -0.20    0.50
   6   5  11   -0.30    0.30
   6   5  11   -0.10    0.30
  -6  -4 -11    4.10    0.80
  -6  -4 -11    3.70    1.00
   6   4  11    4.70    0.90
   6   4  11    4.50    0.90
   6   4  11    5.20    1.00
  -6  -3 -11    1.50    0.60
  -6  -3 -11    0.70    0.50
   6   3  11    0.60    0.60
   6   3  11    0.80    0.60
   6   3  11    2.10    0.70
  -6  -2 -11   17.50    1.40
  -6  -2 -11   18.80    1.60
   6   2  11   18.90    1.60
   6   2  11   20.10    1.60
   6   2  11   17.70    1.50
  -6  -1 -11   -0.20    0.50
  -6  -1 -11   -0.30    0.40
   6   1  11    0.50    0.60
   6   1  11    0.70    0.60
   6   1  11    0.10    0.50
  -6   0 -11    0.60    0.60
  -6   0 -11    0.20    0.50
   6   0  11    0.10    0.50
   6   0  11    0.10    0.70
  -6   1 -11    6.70    1.20
  -6   1 -11    6.30    1.00
   6  -1  11    5.60    1.20
   6  -1  11    5.50    1.10
  -7  -7 -11    0.90    0.60
  -7  -7 -11    1.50    0.90
   7   7  11    0.50    0.40
   7   7  11    2.00    0.60
   7   7  11    1.30    0.70
  -7  -6 -11    4.00    0.90
  -7  -6 -11    4.80    1.30
   7   6  11    3.40    1.00
   7   6  11    3.20    0.80
   7   6  11    2.40    0.70
  -7  -5 -11    1.10    0.80
  -7  -5 -11    0.50    0.50
   7   5  11    1.20    0.50
   7   5  11    3.20    0.90
   7   5  11    1.20    0.60
  -7  -4 -11    3.30    0.80
   7   4  11    6.60    1.10
   7   4  11    4.20    0.90
   7   4  11    4.00    0.80
  -7  -3 -11    1.20    0.60
   7   3  11    0.80    0.50
   7   3  11    1.20    0.60
   7   3  11   -0.10    0.50
  -7  -2 -11    3.40    0.80
   7   2  11    4.00    0.90
   7   2  11    3.10    0.90
   7   2  11    1.10    0.70
  -7  -1 -11    1.10    0.70
  -7  -1 -11    0.40    0.60
   7   1  11    1.50    0.70
   7   1  11    0.60    0.60
   7   1  11    0.10    0.70
   7   1  11    1.30    0.60
  -8  -6 -11   11.10    1.80
  -8  -6 -11    8.80    1.20
   8   6  11    7.40    1.00
   8   6  11    8.30    1.40
   8   6  11    9.00    1.30
  -8  -5 -11   18.70    1.60
   8   5  11   22.70    1.80
   8   5  11   20.50    1.80
   8   5  11   20.60    1.60
  -8  -4 -11    3.10    0.80
   8   4  11    4.60    1.10
   8   4  11    3.20    0.80
   8   4  11    2.40    0.80
  -8  -3 -11   18.70    1.80
   8   3  11   20.70    1.80
   8   3  11   18.10    2.00
   8   3  11   21.50    1.80
   3  -2 -12   -0.20    0.50
   3  -2 -12    1.20    0.60
  -3   2  12    0.40    0.50
  -3   2  12    0.50    0.60
   3  -1 -12    0.50    0.60
   3  -1 -12    1.30    0.60
  -3   1  12   -0.10    0.70
  -3   1  12    0.60    0.60
  -3   1  12    0.00    0.50
   3   0 -12    2.90    0.80
   3   0 -12    3.20    0.90
   3   0 -12    4.20    1.10
  -3   0  12    4.20    1.00
  -3   0  12    4.70    1.40
  -3   0  12    2.70    0.80
   3   1 -12    0.20    0.60
   3   1 -12    0.80    0.70
   3   1 -12    1.30    0.70
  -3  -1  12    0.80    0.60
  -3  -1  12    1.00    0.90
  -3  -1  12    0.50    0.50
   3   2 -12    3.40    0.90
   3   2 -12    6.30    1.10
   3   2 -12    4.80    1.10
  -3  -2  12    3.50    0.90
  -3  -2  12    2.80    1.30
   2  -4 -12   15.00    1.60
   2  -4 -12   12.20    2.10
  -2   4  12   16.40    1.50
  -2   4  12   11.30    1.50
  -2   4  12   14.80    1.60
   2  -3 -12    1.30    0.60
   2  -3 -12    0.50    0.50
  -2   3  12    0.70    0.50
  -2   3  12   -0.20    0.40
   2  -2 -12   17.60    1.40
   2  -2 -12   23.90    1.70
  -2   2  12   18.30    2.30
  -2   2  12   23.30    1.80
  -2   2  12   20.60    1.60
   2  -1 -12    2.70    0.70
   2  -1 -12    1.50    0.60
  -2   1  12    1.40    0.60
  -2   1  12    1.70    1.10
  -2   1  12    1.90    0.70
   2   0 -12    0.10    0.50
   2   0 -12    0.70    0.60
   2   0 -12   -0.10    0.40
  -2   0  12   -0.50    0.70
  -2   0  12   -0.30    0.40
  -2   0  12    0.50    0.60
   2   1 -12   19.90    1.60
   2   1 -12   22.10    1.60
   2   1 -12   18.80    1.60
  -2  -1  12   19.60    1.60
  -2  -1  12   14.60    2.30
  -2  -1  12   20.60    1.60
   2   2 -12    5.20    1.00
   2   2 -12    4.20    1.00
   2   2 -12    5.20    1.00
  -2  -2  12    6.00    1.50
  -2  -2  12    5.50    1.00
  -2  -2  12    4.70    0.90
   2   3 -12    0.10    0.60
   2   3 -12    0.40    0.70
   2   3 -12   -0.10    0.50
  -2  -3  12   -0.60    0.80
  -2  -3  12    0.10    0.50
   1  -5 -12   70.79    3.50
   1  -5 -12   65.89    4.10
   1  -5 -12   73.09    4.40
  -1   5  12   71.59    3.70
  -1   5  12   79.79    3.70
  -1   5  12   75.99    3.40
   1  -4 -12   11.90    1.90
   1  -4 -12   10.20    1.20
   1  -4 -12   10.60    1.30
  -1   4  12   11.40    1.30
  -1   4  12   12.40    1.40
  -1   4  12   13.10    1.50
   1  -3 -12    0.40    0.40
   1  -3 -12    0.90    0.50
  -1   3  12    0.50    0.50
  -1   3  12    0.60    0.50
   1  -2 -12    0.10    0.40
   1  -2 -12   -0.80    0.40
  -1   2  12   -0.50    0.60
  -1   2  12    0.60    0.60
  -1   2  12   -0.10    0.40
   1  -1 -12    9.20    1.20
   1  -1 -12   10.50    1.20
  -1   1  12    7.10    1.50
  -1   1  12    9.50    1.30
   1   0 -12    0.30    0.50
   1   0 -12    0.40    0.50
   1   0 -12    0.00    0.50
  -1   0  12    3.20    1.10
  -1   0  12    0.80    0.60
   1   1 -12   12.10    1.40
   1   1 -12   13.40    1.50
   1   1 -12   15.60    1.70
  -1  -1  12   16.50    2.40
  -1  -1  12   18.30    1.50
   1   2 -12    1.00    0.60
   1   2 -12   -0.40    0.60
   1   2 -12   -0.50    0.50
  -1  -2  12    0.90    0.60
  -1  -2  12    1.80    1.00
   1   3 -12   24.60    1.90
   1   3 -12   21.20    1.80
   1   3 -12   26.30    2.00
  -1  -3  12   23.80    1.70
  -1  -3  12   22.60    3.00
   0  -6 -12    0.20    1.00
   0  -6 -12    1.00    0.90
   0   6  12   -0.10    0.40
   0   6  12    0.30    0.60
   0   6  12    1.90    0.90
   0  -5 -12    1.40    0.60
   0  -5 -12    3.60    1.20
   0   5  12    2.60    0.70
   0   5  12    2.10    0.80
   0   5  12    2.80    0.80
   0   5  12    3.30    0.80
   0  -4 -12    5.10    0.80
   0  -4 -12    4.40    1.20
   0  -4 -12    3.80    0.80
   0   4  12    5.30    1.10
   0   4  12    5.70    1.00
   0   4  12    5.50    0.90
   0  -3 -12    5.10    0.80
   0  -3 -12    5.20    1.00
   0  -3 -12    5.40    1.20
   0   3  12    5.70    1.10
   0   3  12    6.20    1.00
   0   3  12    8.10    1.00
   0  -2 -12    0.60    0.50
   0  -2 -12    1.50    0.60
   0   2  12    1.00    0.60
   0   2  12    1.20    0.60
   0   2  12    2.30    1.00
   0   2  12    1.00    0.40
   0  -1 -12    0.50    0.50
   0  -1 -12    0.50    0.50
   0   1  12    0.30    0.60
   0   1  12    0.30    0.50
   0   0 -12   28.60    1.90
   0   0 -12   31.60    2.10
   0   0 -12   34.00    2.10
   0   0  12   30.70    2.50
   0   0  12   33.90    2.10
   0   1 -12   21.10    1.60
   0   1 -12   21.20    1.60
   0   1 -12   20.10    1.50
   0   1 -12   19.90    1.70
   0  -1  12   16.70    2.20
   0  -1  12   23.20    1.70
   0   2 -12   11.60    1.50
   0   2 -12   11.70    1.80
   0   2 -12   11.00    1.30
   0   2 -12   11.30    1.40
   0  -2  12   13.10    1.50
   0  -2  12    8.00    1.70
   0   3 -12    8.00    1.30
   0   3 -12   10.90    1.50
   0   3 -12   11.30    1.40
   0  -3  12    9.10    1.90
   0  -3  12   10.20    1.40
  -1  -6 -12    5.20    1.50
   1   6  12    5.00    1.00
   1   6  12    2.10    0.80
   1   6  12    3.10    0.80
  -1  -5 -12   19.00    1.50
  -1  -5 -12   26.20    2.80
   1   5  12   18.30    1.60
   1   5  12   21.30    1.60
   1   5  12   24.20    1.80
  -1  -4 -12    2.70    1.00
  -1  -4 -12    0.50    0.50
  -1  -4 -12    1.40    0.50
   1   4  12    1.10    0.60
   1   4  12    1.60    0.60
   1   4  12    1.50    0.60
   1   4  12    0.40    0.50
  -1  -3 -12   32.00    1.80
  -1  -3 -12   28.60    1.80
   1   3  12   33.00    2.10
   1   3  12   33.30    2.40
   1   3  12   30.80    1.80
   1   3  12   32.00    2.00
  -1  -2 -12    0.50    0.50
  -1  -2 -12    0.70    0.60
   1   2  12    1.10    0.60
   1   2  12   -0.20    0.60
   1   2  12    0.50    0.40
   1   2  12    0.50    0.50
  -1  -1 -12   64.99    2.80
  -1  -1 -12   67.89    3.20
  -1  -1 -12   67.29    3.10
   1   1  12   69.39    3.30
   1   1  12   67.59    3.40
   1   1  12   70.29    3.80
   1   1  12   68.59    2.80
  -1   0 -12    6.00    1.00
  -1   0 -12    5.80    1.10
  -1   0 -12    4.20    0.90
   1   0  12    6.50    1.40
   1   0  12    6.50    1.00
  -1   1 -12    0.90    0.60
  -1   1 -12    1.40    0.70
  -1   1 -12    0.80    0.70
   1  -1  12    1.10    0.80
   1  -1  12    0.20    0.50
  -1   2 -12    0.60    0.60
  -1   2 -12   -0.70    0.50
  -1   2 -12   -0.10    0.60
   1  -2  12    0.00    0.50
   1  -2  12   -0.10    0.70
  -1   3 -12   -0.50    0.50
  -1   3 -12    0.60    0.60
  -1   3 -12   -0.70    0.50
   1  -3  12    0.40    0.60
   1  -3  12   -0.60    0.60
  -2  -7 -12    3.00    1.30
   2   7  12    1.30    0.60
   2   7  12    1.20    0.80
   2   7  12    1.00    0.60
  -2  -6 -12    4.00    1.30
   2   6  12    5.00    0.90
   2   6  12    2.80    0.80
   2   6  12    2.70    0.80
  -2  -5 -12    0.70    0.50
  -2  -5 -12   -0.10    0.70
   2   5  12    0.40    0.50
   2   5  12    1.00    0.50
   2   5  12   -0.20    0.50
   2   5  12    0.10    0.40
  -2  -4 -12    9.50    1.10
  -2  -4 -12   12.00    1.60
  -2  -4 -12   12.80    1.30
   2   4  12   11.90    1.30
   2   4  12   12.10    1.50
   2   4  12   10.80    1.30
  -2  -3 -12    1.40    0.60
  -2  -3 -12    0.40    0.40
  -2  -3 -12    0.50    0.50
   2   3  12    0.10    0.60
   2   3  12    0.60    0.50
   2   3  12    1.90    0.60
   2   3  12    0.50    0.50
  -2  -2 -12  105.59    4.10
  -2  -2 -12  102.69    4.40
  -2  -2 -12  104.49    4.40
   2   2  12  109.49    4.70
   2   2  12  108.49    4.30
   2   2  12  104.39    4.90
   2   2  12  107.29    4.50
   2   2  12  104.89    4.20
  -2  -1 -12    0.50    0.60
  -2  -1 -12    2.50    0.70
  -2  -1 -12    1.30    0.50
   2   1  12    0.50    0.50
   2   1  12    1.90    0.80
   2   1  12    1.10    0.50
   2   1  12    1.00    0.50
   2   1  12    0.80    0.60
  -2   0 -12   29.90    2.00
  -2   0 -12   27.80    1.90
   2   0  12   32.90    2.00
   2   0  12   26.30    2.20
   2   0  12   30.00    1.60
  -2   1 -12    0.30    0.50
  -2   1 -12    1.40    0.70
   2  -1  12    0.10    0.70
   2  -1  12    0.90    0.60
  -2   2 -12   -1.00    0.40
  -2   2 -12   -0.30    0.60
   2  -2  12    0.20    0.50
   2  -2  12    0.10    0.70
  -2   3 -12   10.10    1.50
  -2   3 -12   12.30    1.50
   2  -3  12   12.30    1.60
   2  -3  12   12.20    2.10
  -3  -7 -12    4.90    1.50
   3   7  12    4.20    0.90
   3   7  12    5.60    1.10
   3   7  12    5.40    0.90
  -3  -6 -12    2.60    1.10
  -3  -6 -12    3.70    0.80
   3   6  12    3.60    0.80
   3   6  12    5.00    1.10
   3   6  12    4.20    0.80
   3   6  12    4.60    1.00
  -3  -5 -12    2.40    0.90
  -3  -5 -12    0.70    0.50
  -3  -5 -12    1.90    1.00
   3   5  12    2.50    0.70
   3   5  12    1.70    0.60
   3   5  12    0.90    0.50
   3   5  12    2.10    0.60
  -3  -4 -12   28.60    1.70
  -3  -4 -12   27.90    1.80
  -3  -4 -12   26.90    2.00
   3   4  12   28.50    1.90
   3   4  12   28.80    1.90
   3   4  12   29.80    2.00
   3   4  12   28.70    2.00
  -3  -3 -12    2.90    0.70
  -3  -3 -12    2.90    0.80
  -3  -3 -12    3.50    0.70
   3   3  12    2.70    0.80
   3   3  12    2.00    0.60
   3   3  12    2.30    0.70
   3   3  12    2.00    0.70
   3   3  12    2.60    0.60
  -3  -2 -12   18.40    1.50
  -3  -2 -12   16.00    1.40
  -3  -2 -12   17.60    1.30
   3   2  12   19.90    1.60
   3   2  12   18.00    1.30
   3   2  12   19.60    1.70
   3   2  12   19.80    1.50
   3   2  12   17.40    1.30
  -3  -1 -12    0.20    0.40
  -3  -1 -12    0.70    0.50
  -3  -1 -12    0.90    0.60
   3   1  12    0.30    0.40
   3   1  12    0.30    0.40
   3   1  12    0.40    0.50
   3   1  12    1.00    0.70
   3   1  12   -0.20    0.40
  -3   0 -12   11.80    1.00
  -3   0 -12   10.00    1.30
  -3   0 -12   12.60    1.40
   3   0  12    9.60    1.50
   3   0  12   11.00    1.40
   3   0  12   11.30    1.20
  -3   1 -12   14.50    1.60
  -3   1 -12   14.60    1.70
   3  -1  12   13.80    1.70
   3  -1  12   13.70    1.20
   3  -1  12   15.60    2.10
  -3   2 -12   26.50    1.90
  -3   2 -12   29.50    2.20
   3  -2  12   32.90    2.20
   3  -2  12   26.30    2.50
  -4  -7 -12    0.80    1.00
  -4  -7 -12    0.20    0.50
   4   7  12    0.90    0.50
   4   7  12    0.90    0.50
   4   7  12    0.60    0.90
   4   7  12    1.30    0.60
  -4  -6 -12    0.50    0.50
  -4  -6 -12   -0.50    0.70
   4   6  12    0.30    0.50
   4   6  12   -0.80    0.40
   4   6  12    0.30    0.40
   4   6  12   -0.20    0.60
  -4  -5 -12    9.40    1.10
  -4  -5 -12    6.30    1.30
   4   5  12    8.80    1.20
   4   5  12    9.00    1.20
   4   5  12    8.40    1.20
  -4  -4 -12   66.49    3.40
  -4  -4 -12   64.29    3.10
  -4  -4 -12   64.59    3.00
   4   4  12   64.89    3.20
   4   4  12   66.69    3.30
   4   4  12   69.19    3.20
  -4  -3 -12    2.80    0.70
  -4  -3 -12    2.20    0.60
  -4  -3 -12    2.10    0.70
   4   3  12    1.40    0.50
   4   3  12    2.10    0.70
   4   3  12    2.70    0.70
   4   3  12    2.90    0.70
  -4  -2 -12   20.40    1.40
  -4  -2 -12   18.90    1.50
   4   2  12   18.30    1.50
   4   2  12   18.90    1.60
   4   2  12   22.40    1.50
   4   2  12   19.30    1.40
  -4  -1 -12    0.00    0.50
  -4  -1 -12   -0.40    0.30
   4   1  12    1.00    0.50
   4   1  12    0.10    0.50
   4   1  12    0.00    0.50
  -4   0 -12   12.90    1.10
  -4   0 -12   10.20    1.40
   4   0  12   11.60    1.50
   4   0  12    9.90    1.20
  -4   1 -12   14.20    1.70
   4  -1  12   11.90    1.30
   4  -1  12   15.10    1.70
  -4   2 -12    0.60    0.60
   4  -2  12    0.50    0.70
   4  -2  12    1.60    0.70
  -5  -7 -12    4.20    1.30
  -5  -7 -12    3.80    0.90
   5   7  12    3.20    0.80
   5   7  12    6.80    1.30
   5   7  12    2.90    0.70
  -5  -6 -12    5.60    0.90
  -5  -6 -12    5.20    1.30
   5   6  12    5.00    0.90
   5   6  12    4.70    1.00
   5   6  12    5.70    1.00
  -5  -5 -12   41.80    2.80
  -5  -5 -12   43.20    2.30
   5   5  12   41.70    2.50
   5   5  12   46.50    2.60
   5   5  12   43.30    2.40
  -5  -4 -12    9.40    1.40
  -5  -4 -12    7.60    1.00
   5   4  12   11.60    1.40
   5   4  12    7.80    1.20
   5   4  12    8.40    1.20
  -5  -3 -12   14.90    1.30
  -5  -3 -12   16.80    1.50
  -5  -3 -12   19.40    1.50
   5   3  12   19.10    1.50
   5   3  12   20.10    1.70
   5   3  12   16.40    1.70
  -5  -2 -12   31.60    1.80
  -5  -2 -12   31.20    2.10
   5   2  12   30.50    2.10
   5   2  12   34.50    2.10
   5   2  12   31.60    2.20
   5   2  12   34.10    2.20
  -5  -1 -12   -0.20    0.40
  -5  -1 -12    0.00    0.50
   5   1  12   -0.60    0.50
   5   1  12    0.60    0.50
   5   1  12    0.00    0.40
  -5   0 -12    0.30    0.60
  -5   0 -12    1.60    0.60
   5   0  12    0.40    0.60
   5   0  12    0.40    0.50
  -5   1 -12   -0.40    0.40
  -5   1 -12    0.00    0.60
   5  -1  12   -0.10    0.60
   5  -1  12    0.40    0.60
  -6  -7 -12   10.70    1.30
  -6  -7 -12   10.80    1.90
   6   7  12   11.70    1.40
   6   7  12   11.50    1.30
   6   7  12   15.30    1.80
  -6  -6 -12   18.30    2.20
  -6  -6 -12   17.80    1.50
   6   6  12   18.90    2.00
   6   6  12   17.70    1.80
   6   6  12   18.80    1.50
  -6  -5 -12   80.19    3.70
  -6  -5 -12   83.89    4.20
   6   5  12   81.49    3.90
   6   5  12   82.29    3.80
   6   5  12   86.19    4.00
  -6  -4 -12    6.30    1.00
  -6  -4 -12    6.60    1.30
   6   4  12    8.50    1.20
   6   4  12    6.30    1.10
   6   4  12    5.40    0.90
  -6  -3 -12   11.20    1.30
   6   3  12    5.10    1.00
   6   3  12    6.90    1.20
   6   3  12    5.40    1.00
  -6  -2 -12    1.90    0.70
  -6  -2 -12    1.90    0.70
   6   2  12    2.40    0.80
   6   2  12    1.00    0.70
   6   2  12    1.60    0.70
  -6  -1 -12    2.70    0.80
  -6  -1 -12    2.30    0.80
   6   1  12    2.30    0.80
   6   1  12    1.50    0.80
   6   1  12    2.60    0.90
  -6   0 -12   19.60    1.60
  -6   0 -12   19.80    2.00
   6   0  12   18.70    2.00
   6   0  12   24.20    1.90
  -7  -6 -12    2.20    0.80
  -7  -6 -12    2.30    1.00
   7   6  12    1.30    0.60
   7   6  12    4.20    0.90
   7   6  12    5.40    1.10
  -7  -5 -12   12.50    1.40
  -7  -5 -12   15.40    2.00
   7   5  12   12.60    1.50
   7   5  12   13.00    1.40
   7   5  12   10.70    1.50
  -7  -4 -12    4.60    0.90
   7   4  12    2.90    0.90
   7   4  12    2.70    0.80
   7   4  12    4.70    1.00
  -7  -3 -12    0.80    0.60
   7   3  12    0.70    0.60
   7   3  12    0.20    0.50
   7   3  12    1.00    0.60
  -7  -2 -12   18.10    1.70
   7   2  12   18.20    2.00
   7   2  12   14.70    1.70
   7   2  12   12.90    1.60
   2  -2 -13    0.50    0.60
   2  -2 -13    1.20    0.60
  -2   2  13    0.30    0.90
  -2   2  13    0.10    0.50
  -2   2  13    2.10    0.70
   2  -1 -13   -0.50    0.60
   2  -1 -13   -0.30    0.50
  -2   1  13    0.50    0.60
  -2   1  13   -1.00    0.70
  -2   1  13    0.10    0.50
   2   0 -13    0.40    0.70
   2   0 -13    0.20    0.50
  -2   0  13   -0.10    0.50
  -2   0  13   -0.50    0.70
  -2   0  13    0.40    0.50
   2   1 -13    6.00    1.10
   2   1 -13    4.10    1.00
  -2  -1  13    6.40    1.20
  -2  -1  13    6.40    1.10
  -2  -1  13    4.50    1.40
   1  -4 -13   42.10    2.50
  -1   4  13   42.80    2.70
  -1   4  13   40.90    2.40
   1  -3 -13    0.20    0.50
   1  -3 -13    0.40    0.60
  -1   3  13    0.80    0.70
  -1   3  13    0.10    0.50
   1  -2 -13    0.40    0.60
   1  -2 -13   -0.40    0.40
  -1   2  13    0.10    0.80
  -1   2  13    0.20    0.60
  -1   2  13   -0.50    0.40
   1  -1 -13    1.00    0.60
   1  -1 -13   -0.20    0.40
  -1   1  13    0.10    0.50
  -1   1  13   -0.10    0.70
  -1   1  13   -0.50    0.40
   1   0 -13    0.60    0.60
   1   0 -13    0.30    0.50
  -1   0  13    1.10    0.60
  -1   0  13    1.30    0.60
  -1   0  13    2.20    1.00
   1   1 -13   18.60    1.60
   1   1 -13   20.70    1.70
  -1  -1  13   20.30    2.00
  -1  -1  13   18.90    1.60
  -1  -1  13   17.70    2.50
   1   2 -13    7.20    1.20
   1   2 -13    6.40    1.20
   1   2 -13    9.00    1.30
  -1  -2  13    6.00    1.10
  -1  -2  13    8.20    1.20
  -1  -2  13    4.40    1.50
   0  -5 -13    0.20    0.50
   0  -5 -13    0.00    0.80
   0   5  13    1.10    0.70
   0   5  13    1.00    0.60
   0   5  13    0.50    0.60
   0  -4 -13    3.90    0.80
   0  -4 -13    4.50    0.90
   0   4  13    2.70    0.80
   0  -3 -13   -0.30    0.50
   0  -3 -13    0.70    0.60
   0   3  13    0.40    0.80
   0   3  13    0.00    0.50
   0  -2 -13    7.80    1.10
   0  -2 -13    9.30    1.20
   0   2  13    7.20    1.20
   0   2  13    8.40    1.60
   0  -1 -13   13.40    1.40
   0  -1 -13   11.60    1.40
   0   1  13   14.00    2.00
   0   1  13   14.20    1.60
   0   0 -13   35.60    2.30
   0   0 -13   38.80    2.30
   0   0  13   41.90    2.50
   0   0  13   42.50    3.10
   0   1 -13    0.50    0.70
   0   1 -13    2.20    0.80
   0  -1  13    2.70    1.10
   0  -1  13    2.50    0.80
   0   2 -13   13.30    1.60
   0   2 -13   14.80    1.70
   0  -2  13   12.40    2.10
   0  -2  13   16.90    1.80
  -1  -5 -13    0.40    0.50
  -1  -5 -13    0.10    0.90
   1   5  13    1.40    0.60
   1   5  13    0.30    0.60
   1   5  13    1.20    0.60
  -1  -4 -13   10.00    1.20
  -1  -4 -13    9.90    1.20
   1   4  13   10.20    1.30
   1   4  13   11.80    1.40
   1   4  13   12.80    1.70
  -1  -3 -13    3.30    0.80
  -1  -3 -13    5.30    0.90
   1   3  13    4.60    1.00
   1   3  13    7.60    1.00
   1   3  13    6.50    1.20
   1   3  13    5.30    1.30
  -1  -2 -13   19.20    1.50
  -1  -2 -13   17.00    1.70
   1   2  13   17.00    2.20
   1   2  13   17.90    1.50
  -1  -1 -13    4.70    0.90
  -1  -1 -13    8.20    1.10
   1   1  13    5.10    1.30
   1   1  13    6.80    1.10
  -1   0 -13    0.50    0.60
  -1   0 -13    0.10    0.50
   1   0  13    0.20    0.50
   1   0  13    0.70    0.80
  -1   1 -13   -0.30    0.50
  -1   1 -13    0.10    0.50
   1  -1  13    1.10    0.80
   1  -1  13   -0.40    0.40
  -1   2 -13   10.10    1.40
  -1   2 -13   10.00    1.40
   1  -2  13    8.40    1.70
   1  -2  13    8.60    1.30
  -2  -6 -13   44.90    3.30
   2   6  13   46.50    2.50
   2   6  13   43.50    2.80
   2   6  13   46.40    2.60
  -2  -5 -13    0.70    0.80
   2   5  13    0.20    0.50
   2   5  13    0.20    0.50
   2   5  13    1.30    0.60
   2   5  13    0.60    0.60
  -2  -4 -13    6.30    1.00
   2   4  13    7.20    1.10
   2   4  13    5.80    1.30
   2   4  13    6.00    1.00
   2   4  13    7.70    1.20
  -2  -3 -13   49.80    2.60
  -2  -3 -13   47.80    2.60
  -2  -3 -13   47.00    2.40
   2   3  13   49.30    2.70
   2   3  13   58.19    3.00
   2   3  13   50.49    3.10
   2   3  13   52.19    2.60
  -2  -2 -13    1.20    0.60
  -2  -2 -13    1.40    0.60
  -2  -2 -13    2.80    0.80
   2   2  13    1.80    0.70
   2   2  13    3.20    1.00
   2   2  13    1.60    0.60
   2   2  13    1.70    0.70
  -2  -1 -13   17.30    1.70
  -2  -1 -13   10.30    1.30
  -2  -1 -13   15.10    1.10
   2   1  13   14.60    2.00
   2   1  13   11.50    1.40
  -2   0 -13    8.30    1.30
  -2   0 -13    6.50    1.10
   2   0  13    5.60    1.30
   2   0  13    7.10    1.20
  -2   1 -13    0.60    0.60
  -2   1 -13    0.20    0.60
   2  -1  13   -0.20    0.70
   2  -1  13    0.10    0.50
  -2   2 -13    1.00    0.70
  -2   2 -13    1.80    0.90
   2  -2  13    0.40    0.60
   2  -2  13    0.10    0.90
  -3  -6 -13    5.10    1.40
   3   6  13    3.00    0.70
   3   6  13    2.50    0.70
   3   6  13    2.30    0.80
   3   6  13    2.40    0.80
  -3  -5 -13   -0.30    0.60
  -3  -5 -13    0.10    0.50
   3   5  13    1.00    0.60
   3   5  13   -0.30    0.50
   3   5  13    0.00    0.40
  -3  -4 -13   26.10    2.20
  -3  -4 -13   21.70    1.50
  -3  -4 -13   18.90    1.50
   3   4  13   23.40    1.80
   3   4  13   21.70    1.70
   3   4  13   21.50    1.70
  -3  -3 -13   18.70    1.70
  -3  -3 -13   16.30    1.30
   3   3  13   15.70    1.40
   3   3  13   13.50    1.50
   3   3  13   16.70    1.80
  -3  -2 -13  190.08    7.20
  -3  -2 -13  195.48    6.90
  -3  -2 -13  191.88    7.30
   3   2  13  186.08    7.50
   3   2  13  190.38    7.10
   3   2  13  181.68    7.40
  -3  -1 -13   67.39    2.90
  -3  -1 -13   66.79    3.30
  -3  -1 -13   65.89    3.30
   3   1  13   66.09    3.00
   3   1  13   61.99    3.30
  -3   0 -13    1.10    0.70
  -3   0 -13    1.00    0.70
   3   0  13    1.20    0.70
   3   0  13    1.00    1.30
  -3   1 -13    3.10    0.90
  -3   1 -13    2.40    0.90
   3  -1  13    1.40    0.70
   3  -1  13    4.40    1.30
  -4  -7 -13   -0.30    0.40
  -4  -7 -13    0.80    1.00
   4   7  13    0.70    0.60
   4   7  13   -0.10    0.40
   4   7  13    0.50    0.50
  -4  -6 -13    6.80    1.10
  -4  -6 -13    4.80    1.30
   4   6  13    3.90    0.80
   4   6  13    3.80    0.90
   4   6  13    8.80    1.30
  -4  -5 -13    0.00    0.70
  -4  -5 -13    1.00    0.60
   4   5  13   -0.10    0.40
   4   5  13    0.00    0.40
   4   5  13    0.20    0.60
  -4  -4 -13   12.00    1.30
  -4  -4 -13   12.00    1.60
   4   4  13   11.10    1.50
   4   4  13   10.80    1.30
   4   4  13   13.00    1.50
  -4  -3 -13   37.10    2.10
  -4  -3 -13   33.80    2.20
   4   3  13   44.00    2.60
   4   3  13   41.40    2.30
   4   3  13   40.00    2.40
  -4  -2 -13    3.20    0.90
  -4  -2 -13    4.30    0.80
   4   2  13    3.80    0.90
   4   2  13    4.70    1.00
   4   2  13    3.10    0.80
  -4  -1 -13    0.30    0.50
  -4  -1 -13    0.70    0.60
   4   1  13   -0.30    0.50
   4   1  13   -0.40    0.40
  -4   0 -13   -0.20    0.50
  -4   0 -13    0.40    0.60
   4   0  13   -0.40    0.60
   4   0  13    0.00    0.50
  -4   1 -13   13.00    1.70
   4  -1  13   15.60    1.80
  -5  -6 -13    0.20    0.50
  -5  -6 -13   -0.20    0.70
   5   6  13    0.70    0.60
   5   6  13   -0.10    0.50
   5   6  13    0.20    0.40
  -5  -5 -13   15.30    1.60
  -5  -5 -13   14.10    1.90
   5   5  13   12.90    1.50
   5   5  13   13.30    1.60
   5   5  13   16.00    1.80
  -5  -4 -13   26.00    1.70
  -5  -4 -13   25.00    2.00
   5   4  13   23.60    1.90
   5   4  13   26.50    1.90
   5   4  13   24.30    1.80
  -5  -3 -13   14.10    1.40
  -5  -3 -13   12.90    1.50
   5   3  13   15.40    1.60
   5   3  13   17.40    1.80
   5   3  13   16.40    1.70
  -5  -2 -13   10.90    1.20
  -5  -2 -13    8.60    1.30
   5   2  13    9.80    1.40
   5   2  13   11.10    1.40
   5   2  13   11.40    1.50
  -5  -1 -13    6.40    1.10
  -5  -1 -13    7.00    1.00
   5   1  13    5.20    1.00
   5   1  13    4.60    1.00
  -5   0 -13   -0.20    0.50
  -5   0 -13    0.70    0.70
   5   0  13    0.60    0.70
   5   0  13    0.60    0.70
  -6  -6 -13    3.70    0.90
  -6  -6 -13    3.60    1.20
   6   6  13    2.60    0.90
   6   6  13    3.00    0.80
   6   6  13    2.40    0.80
  -6  -5 -13    0.70    0.80
  -6  -5 -13    1.20    0.60
   6   5  13    1.70    0.70
   6   5  13    1.70    0.70
   6   5  13    0.70    0.50
  -6  -4 -13   15.20    1.60
   6   4  13   13.40    1.50
   6   4  13   11.00    1.50
   6   4  13   13.30    1.60
  -6  -3 -13    4.30    0.90
   6   3  13    4.90    1.10
   6   3  13    3.30    0.90
   6   3  13    3.10    0.90
  -6  -2 -13   18.90    1.50
   6   2  13   18.50    1.90
   6   2  13   12.70    1.50
   6   2  13   15.90    1.80
   0  -3 -14    1.70    0.70
   0  -3 -14    0.70    0.60
   0   3  14    1.50    0.80
   0   3  14    1.10    1.00
   0  -2 -14    5.70    1.10
   0  -2 -14    7.00    1.20
   0   2  14   11.10    2.00
   0   2  14    8.70    1.30
   0  -1 -14    0.40    0.60
   0  -1 -14    1.10    0.70
   0   1  14    0.50    0.60
   0   1  14    0.60    0.80
   0   0 -14    5.40    1.10
   0   0 -14    6.20    1.10
   0   0  14    7.10    1.60
   0   0  14    8.20    1.30
  -1  -4 -14    0.40    0.50
  -1  -4 -14    0.50    0.60
   1   4  14    0.20    0.50
   1   4  14    0.30    0.80
  -1  -3 -14    4.50    0.90
  -1  -3 -14    6.30    1.00
   1   3  14    5.10    1.40
   1   3  14    6.60    1.20
  -1  -2 -14    3.90    1.00
  -1  -2 -14    3.20    0.80
   1   2  14    3.20    0.90
   1   2  14    2.30    1.00
  -1  -1 -14    0.10    0.70
  -1  -1 -14    1.40    0.70
   1   1  14    0.80    0.70
   1   1  14    0.50    0.70
  -1   0 -14    0.50    0.70
  -1   0 -14    0.20    0.60
   1   0  14    0.30    0.60
   1   0  14   -0.70    0.50
   2   5  14    2.90    0.90
   2   5  14    5.10    1.10
   2   5  14    3.40    0.90
  -2  -4 -14    1.60    0.70
   2   4  14    3.10    1.00
   2   4  14    2.10    0.80
   2   4  14    2.80    0.80
   2   4  14    3.10    1.10
  -2  -3 -14    0.10    0.50
  -2  -3 -14   -0.40    0.40
   2   3  14    0.20    0.70
   2   3  14    0.00    0.50
  -2  -2 -14   13.20    1.50
  -2  -2 -14   11.70    1.50
  -2  -2 -14   11.90    1.20
   2   2  14    9.90    1.40
   2   2  14   11.20    1.80
  -2  -1 -14    0.90    0.70
  -2  -1 -14    0.70    0.60
   2   1  14    0.50    0.50
   2   1  14    0.10    0.70
  -2   0 -14   23.60    2.00
  -2   0 -14   24.30    1.90
   2   0  14   28.20    2.10
   2   0  14   25.40    2.40
  -3  -5 -14    0.20    0.40
   3   5  14    0.70    0.50
   3   5  14   -0.10    0.50
   3   5  14   -0.40    0.50
  -3  -4 -14    0.50    0.60
   3   4  14    0.50    0.50
   3   4  14    0.20    0.50
   3   4  14    0.70    0.60
  -3  -3 -14    1.10    0.50
  -3  -3 -14    0.60    0.60
   3   3  14    2.40    0.90
   3   3  14    1.60    0.70
   3   3  14    1.30    0.60
  -3  -2 -14   -0.40    0.40
  -3  -2 -14   -0.50    0.50
   3   2  14    0.10    0.50
   3   2  14    0.10    0.60
  -3  -1 -14   67.79    3.50
  -3  -1 -14   64.99    3.40
   3   1  14   73.69    3.70
  -3   0 -14    0.30    0.60
  -3   0 -14    0.30    0.60
   3   0  14    0.40    0.60
  -4  -5 -14    6.60    1.40
  -4  -5 -14    6.00    1.00
   4   5  14    6.80    1.20
   4   5  14    5.10    1.00
   4   5  14    6.00    1.10
  -4  -4 -14    3.70    0.80
   4   4  14    1.80    0.80
   4   4  14    3.00    0.90
   4   4  14    3.10    0.80
  -4  -3 -14   17.90    1.40
  -4  -3 -14   12.00    1.50
   4   3  14   16.40    1.70
   4   3  14   19.10    2.00
   4   3  14   14.50    1.70
  -4  -2 -14   29.70    2.10
  -4  -2 -14   28.00    1.80
   4   2  14   28.90    2.00
   4   2  14   30.40    2.20
  -4  -1 -14    5.10    1.10
  -4  -1 -14    6.00    0.90
   4   1  14    6.00    1.20
   4   1  14    5.70    1.20
  -5  -4 -14    9.40    1.30
   5   4  14    7.60    1.20
   5   4  14    5.40    1.10
   5   4  14    8.30    1.30
  -5  -3 -14   34.10    2.00
   5   3  14   35.80    2.40
   5   3  14   33.20    2.40
   5   3  14   32.50    2.20
  -5  -2 -14    3.70    0.80
  -5  -2 -14    2.00    0.80
   5   2  14    3.50    0.90
   5   2  14    2.20    0.80
 
_computing_structure_solution     'SHELXT 2014/4 (Sheldrick, 2014)'
;
_shelx_hkl_checksum              84963
loop_
_space_group_symop_operation_xyz
'x, y, z'
'-x, -y, -z'
loop_
_atom_site_label
_atom_site_type_symbol
_atom_site_fract_x
_atom_site_fract_y
_atom_site_fract_z
_atom_site_U_iso_or_equiv
_atom_site_adp_type
_atom_site_occupancy
_atom_site_site_symmetry_order
_atom_site_calc_flag
_atom_site_refinement_flags_posn
_atom_site_refinement_flags_adp
O2 O -0.02791(11) 0.67627(11) 0.64477(7) 0.0223(2) Uani 1 1 d . .
N3 N 0.08125(13) 0.89376(13) 0.64894(8) 0.0175(2) Uani 1 1 d . .
N5 N 0.30615(13) 0.85279(13) 0.48586(8) 0.0173(2) Uani 1 1 d . .
N15 N 0.58197(14) 0.20656(14) 0.11629(9) 0.0221(2) Uani 1 1 d . .
N19 N 0.92061(15) 0.71419(16) 0.10582(11) 0.0301(3) Uani 1 1 d . .
C1 C 0.22663(15) 0.72696(15) 0.49682(10) 0.0162(2) Uani 1 1 d . .
C2 C 0.07663(15) 0.75378(15) 0.60367(10) 0.0170(2) Uani 1 1 d . .
C4 C 0.21833(15) 0.94533(15) 0.57503(10) 0.0168(2) Uani 1 1 d . .
C6 C -0.03923(16) 0.96700(17) 0.75589(10) 0.0207(3) Uani 1 1 d . .
H6A H -0.1642 1.0488 0.7359 0.031 Uiso 1 1 calc R U
H6B H 0.0115 1.0364 0.7850 0.031 Uiso 1 1 calc R U
H6C H -0.0465 0.8654 0.8192 0.031 Uiso 1 1 calc R U
C7 C 0.25565(16) 1.09445(17) 0.60087(11) 0.0221(3) Uani 1 1 d . .
H7A H 0.3541 1.1143 0.5390 0.033 Uiso 1 1 calc R U
H7B H 0.2958 1.0591 0.6807 0.033 Uiso 1 1 calc R U
H7C H 0.1417 1.2083 0.6000 0.033 Uiso 1 1 calc R U
C8 C 0.27021(15) 0.59770(15) 0.42803(10) 0.0166(2) Uani 1 1 d . .
H8 H 0.1956 0.5290 0.4500 0.020 Uiso 1 1 calc R U
C9 C 0.41608(15) 0.54830(15) 0.32427(10) 0.0156(2) Uani 1 1 d . .
C10 C 0.42625(15) 0.41254(15) 0.26581(10) 0.0167(2) Uani 1 1 d . .
H10 H 0.3367 0.3607 0.2932 0.020 Uiso 1 1 calc R U
C11 C 0.56554(15) 0.34980(15) 0.16725(10) 0.0168(2) Uani 1 1 d . .
C12 C 0.69100(15) 0.43454(15) 0.12556(10) 0.0170(2) Uani 1 1 d . .
H12 H 0.7832 0.3999 0.0571 0.020 Uiso 1 1 calc R U
C13 C 0.67953(15) 0.56973(15) 0.18518(10) 0.0170(2) Uani 1 1 d . .
C14 C 0.54482(15) 0.62894(15) 0.28411(10) 0.0172(2) Uani 1 1 d . .
H14 H 0.5402 0.7212 0.3233 0.021 Uiso 1 1 calc R U
C16 C 0.43006(17) 0.14766(18) 0.14447(12) 0.0252(3) Uani 1 1 d . .
H16A H 0.3190 0.2479 0.1142 0.038 Uiso 1 1 calc R U
H16B H 0.4027 0.1154 0.2323 0.038 Uiso 1 1 calc R U
H16C H 0.4658 0.0399 0.1059 0.038 Uiso 1 1 calc R U
C17 C 0.70454(16) 0.16792(17) 0.00256(10) 0.0207(2) Uani 1 1 d . .
H17A H 0.6585 0.2732 -0.0610 0.031 Uiso 1 1 calc R U
H17B H 0.7070 0.0582 -0.0194 0.031 Uiso 1 1 calc R U
H17C H 0.8308 0.1463 0.0113 0.031 Uiso 1 1 calc R U
C18 C 0.81422(16) 0.64989(16) 0.14164(11) 0.0207(3) Uani 1 1 d . .
loop_
_atom_site_aniso_label
_atom_site_aniso_U_11
_atom_site_aniso_U_22
_atom_site_aniso_U_33
_atom_site_aniso_U_23
_atom_site_aniso_U_13
_atom_site_aniso_U_12
O2 0.0210(4) 0.0264(5) 0.0223(4) -0.0061(3) 0.0042(3) -0.0144(4)
N3 0.0160(4) 0.0222(5) 0.0151(5) -0.0059(4) 0.0008(4) -0.0086(4)
N5 0.0159(4) 0.0208(5) 0.0174(5) -0.0049(4) -0.0004(4) -0.0093(4)
N15 0.0224(5) 0.0277(5) 0.0226(5) -0.0124(4) 0.0068(4) -0.0165(4)
N19 0.0275(6) 0.0331(6) 0.0355(6) -0.0119(5) 0.0076(5) -0.0203(5)
C1 0.0141(5) 0.0190(5) 0.0153(5) -0.0028(4) -0.0006(4) -0.0073(4)
C2 0.0153(5) 0.0197(5) 0.0157(5) -0.0026(4) -0.0018(4) -0.0072(4)
C4 0.0130(5) 0.0215(6) 0.0167(5) -0.0039(4) -0.0019(4) -0.0074(4)
C6 0.0198(5) 0.0259(6) 0.0163(5) -0.0086(5) 0.0025(4) -0.0090(5)
C7 0.0207(6) 0.0272(6) 0.0239(6) -0.0104(5) 0.0007(4) -0.0134(5)
C8 0.0148(5) 0.0175(5) 0.0176(5) -0.0022(4) -0.0010(4) -0.0078(4)
C9 0.0146(5) 0.0161(5) 0.0151(5) -0.0025(4) -0.0015(4) -0.0055(4)
C10 0.0162(5) 0.0184(5) 0.0166(5) -0.0025(4) -0.0005(4) -0.0090(4)
C11 0.0170(5) 0.0170(5) 0.0165(5) -0.0043(4) -0.0016(4) -0.0065(4)
C12 0.0146(5) 0.0183(5) 0.0170(5) -0.0041(4) 0.0007(4) -0.0064(4)
C13 0.0148(5) 0.0182(5) 0.0183(5) -0.0022(4) -0.0008(4) -0.0082(4)
C14 0.0175(5) 0.0179(5) 0.0175(5) -0.0041(4) -0.0013(4) -0.0083(4)
C16 0.0255(6) 0.0311(7) 0.0269(6) -0.0124(5) 0.0046(5) -0.0188(5)
C17 0.0202(5) 0.0242(6) 0.0200(6) -0.0090(5) 0.0021(4) -0.0108(5)
C18 0.0201(6) 0.0216(6) 0.0213(6) -0.0086(4) 0.0036(4) -0.0099(5)
loop_
_atom_type_symbol
_atom_type_description
_atom_type_scat_dispersion_real
_atom_type_scat_dispersion_imag
_atom_type_scat_source
O O 0.0106 0.0060 'International Tables Vol C Tables 4.2.6.8 and 6.1.1.4'
N N 0.0061 0.0033 'International Tables Vol C Tables 4.2.6.8 and 6.1.1.4'
C C 0.0033 0.0016 'International Tables Vol C Tables 4.2.6.8 and 6.1.1.4'
H H 0.0000 0.0000 'International Tables Vol C Tables 4.2.6.8 and 6.1.1.4'
loop_
_geom_angle_atom_site_label_1
_geom_angle_atom_site_label_2
_geom_angle_atom_site_label_3
_geom_angle
C2 N3 C4 108.02(9)
C2 N3 C6 123.69(9)
C4 N3 C6 128.28(10)
C4 N5 C1 105.60(9)
C11 N15 C16 119.15(10)
C11 N15 C17 119.16(9)
C16 N15 C17 116.86(9)
C8 C1 N5 129.20(10)
C8 C1 C2 121.86(10)
N5 C1 C2 108.94(9)
O2 C2 N3 126.25(10)
O2 C2 C1 130.74(10)
N3 C2 C1 103.01(9)
N5 C4 N3 114.42(10)
N5 C4 C7 125.09(10)
N3 C4 C7 120.49(10)
N3 C6 H6A 109.5
N3 C6 H6B 109.5
H6A C6 H6B 109.5
N3 C6 H6C 109.5
H6A C6 H6C 109.5
H6B C6 H6C 109.5
C4 C7 H7A 109.5
C4 C7 H7B 109.5
H7A C7 H7B 109.5
C4 C7 H7C 109.5
H7A C7 H7C 109.5
H7B C7 H7C 109.5
C1 C8 C9 129.04(10)
C1 C8 H8 115.5
C9 C8 H8 115.5
C10 C9 C14 119.99(10)
C10 C9 C8 117.22(9)
C14 C9 C8 122.78(10)
C9 C10 C11 121.96(10)
C9 C10 H10 119.0
C11 C10 H10 119.0
N15 C11 C12 121.06(10)
N15 C11 C10 121.21(10)
C12 C11 C10 117.70(10)
C13 C12 C11 119.65(10)
C13 C12 H12 120.2
C11 C12 H12 120.2
C14 C13 C12 122.70(10)
C14 C13 C18 119.32(10)
C12 C13 C18 117.98(10)
C13 C14 C9 117.94(10)
C13 C14 H14 121.0
C9 C14 H14 121.0
N15 C16 H16A 109.5
N15 C16 H16B 109.5
H16A C16 H16B 109.5
N15 C16 H16C 109.5
H16A C16 H16C 109.5
H16B C16 H16C 109.5
N15 C17 H17A 109.5
N15 C17 H17B 109.5
H17A C17 H17B 109.5
N15 C17 H17C 109.5
H17A C17 H17C 109.5
H17B C17 H17C 109.5
N19 C18 C13 179.25(13)
loop_
_geom_bond_atom_site_label_1
_geom_bond_atom_site_label_2
_geom_bond_distance
O2 C2 1.2169(14)
N3 C2 1.3834(14)
N3 C4 1.3884(14)
N3 C6 1.4485(14)
N5 C4 1.2983(15)
N5 C1 1.4037(14)
N15 C11 1.3740(14)
N15 C16 1.4498(14)
N15 C17 1.4519(14)
N19 C18 1.1464(15)
C1 C8 1.3448(16)
C1 C2 1.4920(14)
C4 C7 1.4849(15)
C6 H6A 0.9800
C6 H6B 0.9800
C6 H6C 0.9800
C7 H7A 0.9800
C7 H7B 0.9800
C7 H7C 0.9800
C8 C9 1.4595(15)
C8 H8 0.9500
C9 C10 1.3933(15)
C9 C14 1.4014(15)
C10 C11 1.4099(15)
C10 H10 0.9500
C11 C12 1.4037(15)
C12 C13 1.3939(15)
C12 H12 0.9500
C13 C14 1.3907(15)
C13 C18 1.4426(15)
C14 H14 0.9500
C16 H16A 0.9800
C16 H16B 0.9800
C16 H16C 0.9800
C17 H17A 0.9800
C17 H17B 0.9800
C17 H17C 0.9800
