#------------------------------------------------------------------------------
#$Date: 2019-11-27 02:11:39 +0200 (Wed, 27 Nov 2019) $
#$Revision: 243748 $
#$URL: file:///home/coder/svn-repositories/cod/cif/4/03/76/4037619.cif $
#------------------------------------------------------------------------------
#
# This file is available in the Crystallography Open Database (COD),
# http://www.crystallography.net/
#
# All data on this site have been placed in the public domain by the
# contributors.
#
data_4037619
loop_
_publ_author_name
'Bugera, Maksym'
'Trofymchuk, Serhii'
'Tarasenko, Karen'
'Zaporozhets, Olga'
'Pustovit, Yurii'
'Mykhailiuk, Pavel K.'
_publ_section_title
;
 Deoxofluorination of Aliphatic Carboxylic Acids: a Route to
 Trifluoromethyl-Substituted Derivatives.
;
_journal_name_full               'The Journal of organic chemistry'
_journal_paper_doi               10.1021/acs.joc.9b02596
_journal_year                    2019
_chemical_absolute_configuration none
_chemical_formula_moiety         'C5 H6 F3 N O'
_chemical_formula_sum            'C5 H6 F3 N O'
_chemical_formula_weight         153.11
_space_group_crystal_system      monoclinic
_space_group_IT_number           5
_space_group_name_Hall           'C 2y'
_space_group_name_H-M_alt        'C 1 2 1'
_atom_sites_solution_hydrogens   mixed
_audit_creation_method           SHELXL-2016/4
_cell_angle_alpha                90
_cell_angle_beta                 113.12(2)
_cell_angle_gamma                90
_cell_formula_units_Z            4
_cell_length_a                   9.400(4)
_cell_length_b                   6.986(4)
_cell_length_c                   10.481(6)
_cell_measurement_reflns_used    262
_cell_measurement_temperature    123(2)
_cell_measurement_theta_max      22.27
_cell_measurement_theta_min      3.75
_cell_volume                     633.0(6)
_computing_cell_refinement       'Bruker SMART'
_computing_data_collection       'Bruker SMART'
_computing_data_reduction        'Bruker SAINT'
_computing_molecular_graphics    'Bruker SHELXTL'
_computing_publication_material  'Bruker SHELXTL'
_computing_structure_refinement  'SHELXL-2016/4 (Sheldrick, 2016)'
_computing_structure_solution    'Bruker SHELXTL'
_diffrn_ambient_temperature      123(2)
_diffrn_measured_fraction_theta_full 1.000
_diffrn_measured_fraction_theta_max 1.000
_diffrn_measurement_device_type  'CCD area detector'
_diffrn_measurement_method       'omega scans'
_diffrn_radiation_monochromator  graphite
_diffrn_radiation_source         'sealed tube'
_diffrn_radiation_type           MoK\a
_diffrn_radiation_wavelength     0.71073
_diffrn_reflns_av_R_equivalents  0.0318
_diffrn_reflns_av_unetI/netI     0.0396
_diffrn_reflns_Laue_measured_fraction_full 1.000
_diffrn_reflns_Laue_measured_fraction_max 1.000
_diffrn_reflns_limit_h_max       11
_diffrn_reflns_limit_h_min       -11
_diffrn_reflns_limit_k_max       8
_diffrn_reflns_limit_k_min       -8
_diffrn_reflns_limit_l_max       12
_diffrn_reflns_limit_l_min       -11
_diffrn_reflns_number            3297
_diffrn_reflns_point_group_measured_fraction_full 0.963
_diffrn_reflns_point_group_measured_fraction_max 0.959
_diffrn_reflns_theta_full        25.242
_diffrn_reflns_theta_max         25.472
_diffrn_reflns_theta_min         2.113
_exptl_absorpt_coefficient_mu    0.169
_exptl_absorpt_correction_T_max  1.00
_exptl_absorpt_correction_T_min  0.60
_exptl_absorpt_correction_type   numerical
_exptl_absorpt_process_details   SADABS
_exptl_crystal_colour            colourless
_exptl_crystal_density_diffrn    1.607
_exptl_crystal_description       plate
_exptl_crystal_F_000             312
_exptl_crystal_size_max          0.500
_exptl_crystal_size_mid          0.220
_exptl_crystal_size_min          0.030
_refine_diff_density_max         0.204
_refine_diff_density_min         -0.172
_refine_diff_density_rms         0.042
_refine_ls_abs_structure_details
;
 Flack x determined using 342 quotients [(I+)-(I-)]/[(I+)+(I-)]
 (Parsons, Flack and Wagner, Acta Cryst. B69 (2013) 249-259).
;
_refine_ls_abs_structure_Flack   0.7(9)
_refine_ls_extinction_method     none
_refine_ls_goodness_of_fit_ref   1.059
_refine_ls_hydrogen_treatment    mixed
_refine_ls_matrix_type           full
_refine_ls_number_parameters     95
_refine_ls_number_reflns         1133
_refine_ls_number_restraints     1
_refine_ls_restrained_S_all      1.059
_refine_ls_R_factor_all          0.0510
_refine_ls_R_factor_gt           0.0372
_refine_ls_shift/su_max          0.004
_refine_ls_shift/su_mean         0.001
_refine_ls_structure_factor_coef Fsqd
_refine_ls_weighting_details
'w=1/[\s^2^(Fo^2^)+(0.0390P)^2^+0.4044P] where P=(Fo^2^+2Fc^2^)/3'
_refine_ls_weighting_scheme      calc
_refine_ls_wR_factor_gt          0.0856
_refine_ls_wR_factor_ref         0.0947
_reflns_Friedel_coverage         0.765
_reflns_Friedel_fraction_full    0.919
_reflns_Friedel_fraction_max     0.911
_reflns_number_gt                923
_reflns_number_total             1133
_reflns_threshold_expression     'I > 2\s(I)'
_cod_data_source_file            jo9b02596_si_005.cif
_cod_data_source_block           xr99
_cod_original_sg_symbol_H-M      'C 2'
_cod_database_code               4037619
_shelx_shelxl_version_number     2016/4
_shelx_space_group_comment
;
The symmetry employed for this shelxl refinement is uniquely defined
by the following loop, which should always be used as a source of
symmetry information in preference to the above space-group names.
They are only intended as comments.
;
_shelx_estimated_absorpt_t_min   0.920
_shelx_estimated_absorpt_t_max   0.995
_shelx_res_file
;
TITL xr99 in C2
 xr99.res created by SHELXL-2016/4 at 21:16:47 on 24-Sep-2018
CELL 0.71073   9.4004   6.9856  10.4815  90.000 113.116  90.000
ZERR    4.00   0.0038   0.0038   0.0060   0.000   0.023   0.000
LATT -7
SYMM -X, Y, -Z
SFAC C  H  N  O  F
UNIT 20  24  4  4  12
L.S. 4
BOND
omit -2 51
acta
FMAP 2
PLAN 20
SIZE 0.03 0.22 0.50
TEMP -150
WGHT    0.039000    0.404400
FVAR       0.98454
MOLE 1
F2    5    0.385356    0.180192    0.060714    11.00000    0.07792    0.05961 =
         0.04084   -0.00243    0.03941    0.00862
F3    5    0.172795    0.256487    0.079363    11.00000    0.04345    0.06028 =
         0.03613   -0.00639    0.01087   -0.00603
F1    5    0.287500   -0.006594    0.167781    11.00000    0.12648    0.03337 =
         0.05785   -0.00991    0.05231   -0.01233
N1    3    0.325728    0.266380    0.374648    11.00000    0.03429    0.02778 =
         0.03011    0.00404    0.01712    0.00594
H1N   2    0.326198    0.161301    0.422941    11.00000    0.05782
O1    4    0.183951    0.447338    0.460774    11.00000    0.04788    0.03331 =
         0.03948   -0.00090    0.02858    0.00551
C1    1    0.259936    0.428824    0.389021    11.00000    0.03135    0.02530 =
         0.02837   -0.00436    0.01175   -0.00102
C2    1    0.294618    0.582444    0.304058    11.00000    0.05287    0.03006 =
         0.03452    0.00130    0.02440    0.00257
AFIX  23
H2A   2    0.333689    0.699883    0.359725    11.00000   -1.20000
H2B   2    0.201093    0.614760    0.221067    11.00000   -1.20000
AFIX   0
C3    1    0.418560    0.493279    0.262779    11.00000    0.03505    0.04562 =
         0.02937    0.00224    0.01558   -0.00843
AFIX  23
H3A   2    0.522650    0.540044    0.323472    11.00000   -1.20000
H3B   2    0.399566    0.524267    0.165266    11.00000   -1.20000
AFIX   0
C4    1    0.404756    0.277673    0.281136    11.00000    0.03144    0.03810 =
         0.02723    0.00322    0.01598    0.00888
AFIX  13
H4    2    0.509975    0.219160    0.325185    11.00000   -1.20000
AFIX   0
C5    1    0.312731    0.177000    0.147923    11.00000    0.05897    0.03811 =
         0.03690    0.00246    0.02824    0.00441
HKLF 4




REM  xr99 in C2
REM R1 =  0.0372 for     923 Fo > 4sig(Fo)  and  0.0510 for all    1133 data
REM     95 parameters refined using      1 restraints

END

WGHT      0.0369      0.4069

REM Highest difference peak  0.204,  deepest hole -0.172,  1-sigma level  0.042
Q1    1   0.2503  0.2818  0.2377  11.00000  0.05    0.20
Q2    1   0.2901  0.1646 -0.0803  11.00000  0.05    0.19
Q3    1   0.3129  0.0042  0.2778  11.00000  0.05    0.15
Q4    1   0.2549  0.8071  0.3214  11.00000  0.05    0.14
Q5    1   0.2575  0.2017  0.0150  11.00000  0.05    0.14
Q6    1   0.2533  0.4244  0.6221  11.00000  0.05    0.14
Q7    1   0.4411  0.2871  0.3954  11.00000  0.05    0.14
Q8    1   0.1848  0.1640 -0.0149  11.00000  0.05    0.14
Q9    1   0.2309  0.3750  0.5384  11.00000  0.05    0.13
Q10   1   0.3486  0.4117  0.5467  11.00000  0.05    0.13
Q11   1   0.4793  0.7795  0.1851  11.00000  0.05    0.13
Q12   1   0.3735  0.6405  0.4818  11.00000  0.05    0.13
Q13   1   0.2949  0.4150  0.4962  11.00000  0.05    0.12
Q14   1   0.2493  0.0251  0.0578  11.00000  0.05    0.12
Q15   1   0.3549  0.4854  0.0919  11.00000  0.05    0.11
Q16   1   0.2149  0.3069  0.3581  11.00000  0.05    0.11
Q17   1   0.4219  0.4350  0.1641  11.00000  0.05    0.11
Q18   1   0.2038  0.6129  0.3956  11.00000  0.05    0.11
Q19   1   0.3613  0.2766  0.1966  11.00000  0.05    0.11
Q20   1   0.5810  0.2997  0.3397  11.00000  0.05    0.11
;
_shelx_res_checksum              98296
_shelx_hkl_file
;
  -1  -1   0 1360.38   41.04
  -1  -1   0 1433.27   43.26
   1   1   0 1392.24   43.18
   1   1   0 1506.48   40.35
   1   1   0 1413.06   41.09
   1   1   0 1521.65   41.26
   2   2   0  259.70   11.84
  -2  -2   0  255.49   13.01
  -2  -2   0  228.45   11.64
   2   2   0  239.70    9.43
  -2  -2   0  248.56   12.40
   2   2   0  255.03   12.90
   3   3   0  286.92   16.00
  -3  -3   0  282.36   15.17
   3   3   0  273.49   11.18
   4   4   0   47.28    5.22
   4   4   0   54.24    9.78
  -4  -4   0   56.57   10.30
   5   5   0  252.05   18.92
  -5  -5   0  184.21   18.46
  -6  -6   0   12.64   10.03
   6   6   0   20.80    9.67
   8   6  -1   16.67    9.94
  -8  -6   1   28.07   12.86
  -7  -5   1    6.41    9.20
   7   5  -1    7.00    7.88
  -6  -4   1   -1.61    6.00
  -6  -4   1    2.20    5.90
   6   4  -1   -1.60    4.98
  -5  -3   1   45.84    8.61
  -5  -3   1   30.15    7.52
   5   3  -1   63.37    9.95
  -4  -2   1  204.70    7.84
  -4  -2   1  209.83   12.30
  -4  -2   1  210.11   12.78
   4   2  -1  194.83   13.25
   4   2  -1  213.21    7.76
  -3  -1   1  170.80   10.20
  -3  -1   1  159.97    9.15
  -3  -1   1  137.87    5.86
   3   1  -1  136.93    8.91
   3   1  -1  138.36    6.07
  -3  -1   1  126.16    8.15
   3   1  -1  132.74    8.20
   2   0  -1 4326.92  112.65
  -2   0   1 4153.20  118.13
  -2   0   1 4297.80  112.85
   2   0  -1 4065.95  115.03
   2   0  -1 3988.55  118.12
  -2   0   1 4086.79  110.40
  -2   0   1 4125.91  114.84
  -1   1   1 3269.86   86.33
   1  -1  -1 3234.02   87.85
   1  -1  -1 3156.39   86.07
   0   2   1 3476.46  103.26
   0   2   1 3647.11   97.68
   0  -2  -1 3569.43  103.48
   0  -2  -1 3692.36   98.23
  -1  -3  -1  365.20   17.12
   1   3   1  382.40   16.80
  -1  -3  -1  385.46   17.38
   2   4   1   97.33   10.22
  -2  -4  -1  118.09   11.94
   2   4   1  107.62    8.63
   3   5   1  669.73   26.53
  -3  -5  -1  732.40   32.12
   3   5   1  738.85   32.12
   4   6   1    4.23    6.63
  -4  -6  -1    8.03    8.49
   5   7   1   26.87   10.19
  -5  -7  -1   36.46   12.70
   9   5  -2    3.59    8.51
  -9  -5   2   32.85   12.84
  -9  -5   2   30.48   11.76
  -8  -4   2    9.40    8.94
   8   4  -2    8.56    7.84
  -8  -4   2   14.18    8.98
  -7  -3   2   34.85    9.59
  -7  -3   2   33.80    8.81
   7   3  -2   14.46    7.12
  -6  -2   2   50.06    9.37
   6   2  -2   47.59    8.81
  -6  -2   2   58.63    4.92
  -6  -2   2   56.06    9.22
  -5  -1   2   98.67    6.55
  -5  -1   2  115.78   10.08
  -5  -1   2   89.98    9.53
   5   1  -2  101.24    6.72
   5   1  -2   98.83    9.52
  -4   0   2  856.17   28.62
  -4   0   2  855.78   29.25
  -4   0   2  877.99   28.55
   4   0  -2  844.80   29.47
  -4   0   2  879.85   30.00
   4   0  -2  844.03   28.43
   3  -1  -2  159.24    6.83
  -3   1   2  150.11    8.62
   3  -1  -2  139.40    8.50
  -3   1   2  139.52    6.82
  -3   1   2  140.54    8.84
  -3   1   2  149.60    8.76
  -2   2   2  824.74   27.51
   2  -2  -2  807.27   26.91
  -2   2   2  816.90   28.39
  -2   2   2  803.33   26.72
  -1   3   2  567.53   20.29
   1  -3  -2  637.95   23.71
  -1   3   2  631.17   23.71
   0   4   2  744.56   27.43
   0  -4  -2  756.13   29.69
   1   5   2  865.55   33.29
  -1  -5  -2  827.23   34.59
   2   6   2  372.52   20.22
  -2  -6  -2  368.45   23.23
   2   6   2  352.44   20.81
  -3  -7  -2   59.91   13.90
   3   7   2   55.96   11.67
 -10  -4   3   53.90   14.04
 -10  -4   3   68.76   15.70
  10   4  -3   72.46   14.69
  -9  -3   3    0.81    7.57
  -9  -3   3    4.91    7.94
   9   3  -3   18.78    8.84
  -8  -2   3   25.03    8.17
   8   2  -3    4.49    5.84
  -8  -2   3   23.24    8.40
  -7  -1   3  445.25   22.73
  -7  -1   3  491.68   23.85
   7   1  -3  488.12   23.63
  -7  -1   3  492.66   19.07
  -6   0   3   11.89    4.99
   6   0  -3   -2.18    3.61
  -6   0   3   13.37    5.23
  -5   1   3 1304.81   42.65
  -5   1   3 1331.48   43.57
  -5   1   3 1324.47   42.49
  -4   2   3   87.34    8.56
  -4   2   3   90.77    9.02
  -3   3   3  154.81   10.71
  -3   3   3  144.96   10.52
  -2   4   3  958.61   30.46
  -2   4   3 1003.30   36.95
  -2   4   3 1001.66   36.42
  -1   5   3  236.67   16.81
   1  -5  -3  213.68   15.90
  -1   5   3  178.87   10.72
   0  -6  -3  245.41   19.09
   0   6   3  253.23   14.98
   1   7   3   46.34   11.47
   1   7   3   64.86   10.31
  -1  -7  -3   53.99   13.13
  -2  -8  -3    5.77   10.93
  11   3  -4   10.51    8.50
 -11  -3   4    9.21    9.85
  10   2  -4  159.92   17.48
 -10  -2   4  103.65   16.23
 -10  -2   4  142.57   17.95
   9   1  -4   28.66    8.56
  -9  -1   4   23.45    8.72
  -9  -1   4   38.14   10.23
  -8   0   4  136.08   13.81
  -8   0   4  141.94   14.41
   8   0  -4  137.30   11.64
  -7   1   4  109.11   12.09
  -7   1   4  103.03   11.49
   7  -1  -4  118.42    9.37
  -6   2   4   83.64   10.06
  -6   2   4   59.04    9.07
   6  -2  -4   78.25    6.17
  -5   3   4  120.16   11.45
  -5   3   4   73.45    9.89
  -4   4   4  464.95   22.26
  -4   4   4  420.97   21.76
  -3   5   4   14.30    7.11
  -3   5   4   19.65    7.60
  -2   6   4   -6.63    6.65
  -2   6   4    1.37    6.98
  -1   7   4   -2.66    7.64
  -1   7   4   -0.37    8.53
   0   8   4   20.81   11.72
   0   8   4   23.88   13.16
   0   8   4    9.92   11.57
 -11  -1   5   -2.71    7.88
  11   1  -5   -1.86    6.77
 -11  -1   5    0.36    7.66
 -10   0   5  254.73   19.45
  10   0  -5  272.94   18.58
 -10   0   5  234.05   19.29
  -9   1   5  123.28   14.57
   9  -1  -5  141.41   11.93
  -9   1   5  146.90   16.29
   8  -2  -5   44.39    6.58
  -8   2   5   31.09    8.29
  -8   2   5   28.62    8.23
  -7   3   5  414.87   21.95
  -7   3   5  352.99   21.06
  -6   4   5   91.94   12.50
  -6   4   5   72.91   11.24
  -5   5   5  144.20   15.67
  -5   5   5  121.98   14.27
  -4   6   5   25.35    9.45
  -4   6   5   13.05    8.11
  -3   7   5   27.89   11.54
  -3   7   5    7.52    8.84
  -2   8   5   20.78   11.92
 -11   1   6   17.97    9.54
 -11   1   6   20.99    9.85
 -10   2   6    5.14    7.64
 -10   2   6   17.33    8.42
  -9   3   6   64.89   12.65
  -9   3   6   57.92   12.00
  -8   4   6    2.51    6.31
  -8   4   6   -5.17    5.98
  -7   5   6   14.54    7.87
  -7   5   6   14.01    8.27
  -6   6   6   79.49   14.18
  -6   6   6   69.34   13.50
  -5   7   6   -5.14    7.78
  -5   7   6    2.57    8.74
 -11   3   7    6.27    8.59
 -10   4   7   11.31    8.44
 -10   4   7   20.69    9.95
  -9   5   7   30.73   10.66
  -9   5   7   29.45   10.91
  -8   6   7   35.83   11.93
  -8   6   6   10.89    8.22
  -8   6   6   11.40    9.46
  -9   5   6   25.20    9.45
  -9   5   6   10.85    9.00
 -10   4   6   -2.67    6.38
 -10   4   6    1.42    7.59
 -11   3   6    5.53    8.74
  -4   8   5   10.08    9.98
  -5   7   5   26.75   10.30
  -5   7   5   40.41   11.13
  -6   6   5   47.04   10.89
  -6   6   5   66.82   12.89
  -7   5   5   68.43   12.70
  -7   5   5   49.07   10.84
  -8   4   5   31.44    9.06
  -8   4   5   17.98    8.27
  -9   3   5  211.00   19.32
  -9   3   5  172.48   17.15
 -10   2   5   41.65   10.80
 -10   2   5   50.53   11.34
 -11   1   5    8.78    7.74
 -11   1   5    0.51    6.94
  -2   8   4   66.54   15.06
  -2   8   4   46.03   13.15
  -3   7   4    6.66    7.91
  -3   7   4   -2.93    7.08
  -4   6   4   64.50   11.97
  -4   6   4   46.93   10.26
  -5   5   4   46.11    9.47
  -5   5   4   49.56    9.88
  -6   4   4  317.11   18.84
  -6   4   4  329.14   19.60
  -7   3   4  134.82   13.75
   7  -3  -4  147.47    8.99
  -7   3   4  158.71   14.35
   8  -2  -4  782.45   29.59
  -8   2   4  793.26   33.24
  -8   2   4  704.05   32.68
  -9   1   4   36.29    9.45
  -9   1   4   52.79   11.01
   9  -1  -4   46.59    8.65
  10   0  -4   33.07    9.22
 -10   0   4   33.58   10.07
 -10   0   4   26.65    9.83
 -11  -1   4    9.23    8.98
 -11  -1   4   21.44   10.18
  11   1  -4    5.82    7.48
   0   8   3   15.78   10.60
   0   8   3    3.07    9.92
  -1   7   3   16.63    9.31
  -1   7   3    5.86    8.35
  -2   6   3  109.22   13.99
  -2   6   3  113.41   13.91
  -2   6   3  125.41    8.69
  -3   5   3   21.04    3.15
  -3   5   3   28.65    7.59
  -3   5   3   33.78    8.03
  -4   4   3  101.36   10.91
  -4   4   3   91.36   10.20
  -5   3   3  265.59   14.78
  -5   3   3  226.06    9.09
  -5   3   3  240.10   14.56
   6  -2  -3  139.62    8.94
  -6   2   3  144.71   11.17
  -6   2   3  144.42    9.16
  -6   2   3  153.08   11.54
   7  -1  -3  462.65   20.88
  -7   1   3  470.25   22.42
  -7   1   3  475.69   23.10
  -8   0   3   41.30    9.39
   8   0  -3   32.86    7.42
  -8   0   3   34.88    8.74
  -9  -1   3   25.57    9.01
  -9  -1   3   18.38    8.10
   9   1  -3   34.93    8.85
 -10  -2   3   42.11   12.02
 -10  -2   3   57.13   13.20
  10   2  -3   42.26   11.16
 -11  -3   3   24.70   11.60
  11   3  -3   30.05   11.00
   2   8   2   45.41   10.76
  -2  -8  -2   37.65   12.87
  -1  -7  -2   70.17   13.42
   1   7   2   51.64    9.72
   0   6   2   38.36    7.50
   0  -6  -2   28.26    8.86
  -1   5   2   51.36    6.42
  -1   5   2   34.35    8.07
  -1   5   2   45.78    9.24
  -2   4   2 1136.48   36.03
  -2   4   2 1150.70   39.68
  -2   4   2 1138.40   38.80
  -3   3   2  904.81   27.26
  -3   3   2  894.61   31.07
  -3   3   2  913.69   31.67
  -4   2   2 1633.55   51.75
  -4   2   2 1822.11   53.36
  -4   2   2 1855.51   54.47
   4  -2  -2 1701.94   52.49
   4  -2  -2 1815.08   57.46
  -5   1   2  109.18    9.47
   5  -1  -2   96.52   10.06
  -5   1   2   96.50    7.96
   5  -1  -2  116.37    8.10
  -5   1   2  116.71   10.14
   6   0  -2  673.55   25.91
  -6   0   2  661.98   27.44
   6   0  -2  673.94   27.06
  -6   0   2  675.21   26.91
  -7  -1   2   33.38    7.85
   7   1  -2   46.64    6.73
   7   1  -2   32.53    7.78
  -7  -1   2   25.87    7.61
   8   2  -2   76.77   11.94
  -8  -2   2   84.47   13.17
  -8  -2   2   60.96   11.35
  -9  -3   2   59.14   13.06
   9   3  -2   62.73   12.44
  -9  -3   2   78.29   14.88
 -10  -4   2   68.48   16.01
 -10  -4   2   83.92   17.05
  10   4  -2  133.76   18.85
   4   8   1   21.19   10.48
  -3  -7  -1  112.45   16.71
   3   7   1  160.00   16.60
   2   6   1  101.64   11.24
  -2  -6  -1   82.96   13.31
   2   6   1   98.33   12.09
  -1  -5  -1  542.54   24.73
   1   5   1  484.11   23.09
   0  -4  -1   80.55    9.04
   0   4   1   54.44    6.70
  -1   3   1 2561.81   75.51
  -1   3   1 2688.40   74.44
  -1   3   1 2641.59   74.11
  -1   3   1 2570.05   76.98
  -2   2   1 1188.35   36.17
  -2   2   1 1165.62   35.39
   2  -2  -1 1233.47   35.83
   2  -2  -1 1189.46   36.37
  -2   2   1 1173.32   35.19
  -2   2   1 1185.73   38.28
   2  -2  -1 1110.33   38.40
  -3   1   1  140.54    8.11
  -3   1   1  129.92    7.18
   3  -1  -1  144.59    8.36
  -3   1   1  136.23    7.96
   3  -1  -1  140.14    7.28
   3  -1  -1  145.68    9.32
  -3   1   1  151.83    9.06
  -4   0   1  267.47   12.18
  -4   0   1  273.41   13.25
  -4   0   1  253.87   12.75
   4   0  -1  273.49   12.57
   4   0  -1  276.04   13.15
  -4   0   1  284.78   13.51
   5   1  -1   22.01    4.56
  -5  -1   1   16.91    5.49
  -5  -1   1   11.29    3.51
  -5  -1   1   11.01    5.06
   5   1  -1   16.01    5.32
   6   2  -1  254.09   16.45
   6   2  -1  248.88   11.28
  -6  -2   1  231.83   11.36
  -6  -2   1  269.34   16.77
  -6  -2   1  228.50   15.95
  -7  -3   1   61.43   12.02
   7   3  -1   72.74   12.07
  -7  -3   1   54.42   11.08
  -8  -4   1   15.62    9.94
   8   4  -1   37.56   11.02
  -8  -4   1   12.51    9.47
   9   5  -1   21.61   10.57
  -9  -5   1   20.78   12.22
   5   7   0   21.73    9.97
  -5  -7   0    6.30    9.91
  -4  -6   0   12.48    8.40
   4   6   0   15.25    7.26
  -3  -5   0  375.76   21.27
   3   5   0  447.76   17.81
   3   5   0  410.37   17.55
   3   5   0  413.95   22.89
   2   4   0  319.11   17.67
   2   4   0  361.67   14.99
  -2  -4   0  357.96   17.80
   1   3   0  709.81   24.93
  -1  -3   0  747.97   26.10
   1   3   0  796.70   25.79
   1   3   0  764.00   28.00
   0  -2   0  226.15   10.76
   0  -2   0  263.71   10.41
   0   2   0  224.94   10.51
   0   2   0  249.89   10.06
   1  -1   0 1344.34   41.45
  -1   1   0 1511.96   41.71
  -1   1   0 1368.18   38.72
  -1   1   0 1410.48   39.55
  -1   1   0 1431.49   41.58
   1  -1   0 1406.70   41.69
   1  -1   0 1396.89   39.51
   1  -1   0 1406.50   38.77
  -2   0   0 9951.38  257.27
   2   0   0 9590.94  268.42
   2   0   0 9999.47  261.91
  -2   0   0 9686.23  267.88
   2   0   0 9995.99  256.87
  -2   0   0 9934.81  275.64
   2   0   0 9576.39  275.81
  -2   0   0 9916.43  262.39
  -3  -1   0 1083.77   35.44
  -3  -1   0 1107.36   36.36
  -3  -1   0 1221.85   38.29
   3   1   0 1188.74   35.52
   3   1   0 1087.18   33.56
   3   1   0 1089.80   37.45
   4   2   0 1183.21   42.43
  -4  -2   0 1209.80   41.37
   4   2   0 1181.23   35.79
  -4  -2   0 1177.18   40.26
  -4  -2   0 1208.72   36.56
  -5  -3   0  193.87   14.80
   5   3   0  222.06   15.46
  -5  -3   0  198.37   14.64
   5   3   0  206.57    9.51
   6   4   0    9.06    6.93
  -6  -4   0   11.17    8.02
  -7  -5   0    2.75    8.57
   7   5   0    7.31    7.40
   8   6   0   13.50    9.80
  -6  -6   1    7.64    9.00
   6   6  -1   -1.27    6.23
   5   5  -1    2.33    6.13
  -5  -5   1   17.82    8.29
  -4  -4   1  130.76   12.64
   4   4  -1  111.64   12.32
   4   4  -1  101.94    5.29
   3   3  -1 1875.57   52.43
  -3  -3   1 1838.44   57.68
  -3  -3   1 1843.63   56.30
   3   3  -1 1918.22   61.60
   3   3  -1 1796.12   52.38
   2   2  -1 1175.71   34.77
  -2  -2   1 1155.15   35.90
   2   2  -1 1162.29   38.95
   2   2  -1 1195.76   35.61
  -2  -2   1 1141.95   35.01
   2   2  -1 1125.92   33.24
   1   1  -1 3213.23   89.53
   1   1  -1 3120.81   83.93
  -1  -1   1 3208.66   86.07
  -1  -1   1 2980.64   89.79
  -1  -1   1 3228.46   84.43
   1   1  -1 3209.47   85.68
   0   0  -1   44.77    3.09
   0   0  -1   45.51    2.70
   0   0   1   47.07    2.66
   0   0   1   46.40    3.28
   0   0   1   45.06    3.03
   0   0  -1   54.37    3.29
  -1  -1  -1 2792.55   78.37
  -1  -1  -1 2694.44   80.74
   1   1   1 2718.13   80.75
   1   1   1 2744.42   75.99
   1   1   1 2860.74   78.49
   1   1   1 2915.44   77.94
  -1  -1  -1 2742.32   76.18
   2   2   1  177.59    9.03
   2   2   1  185.24   10.88
  -2  -2  -1  178.09   10.75
   3   3   1  986.74   31.70
  -3  -3  -1  938.88   35.18
   3   3   1  979.64   36.41
  -4  -4  -1  138.40   14.58
   4   4   1  165.59   13.38
   4   4   1  138.07    9.35
  -5  -5  -1    5.59    8.12
   5   5   1   -3.04    5.43
  -6  -6  -1   -8.53    8.82
   6   6   1    3.48    7.57
  -8  -6   2   11.22   10.50
   8   6  -2    5.79    8.71
   7   5  -2   10.67    7.59
  -7  -5   2    5.54    8.24
   6   4  -2   61.64   11.64
  -6  -4   2   78.64   12.70
  -6  -4   2   48.67   10.19
   5   3  -2   12.01    6.08
  -5  -3   2   18.66    6.34
  -5  -3   2   24.38    6.81
   4   2  -2 1807.88   57.43
  -4  -2   2 1624.54   52.99
  -4  -2   2 1700.83   52.25
   3   1  -2  148.89    9.63
  -3  -1   2  156.78    8.54
   3   1  -2  156.88    8.55
   3   1  -2  158.06    8.35
  -3  -1   2  133.77    6.04
  -3  -1   2  153.85    8.48
   2   0  -2  100.37    6.27
  -2   0   2  104.36    6.03
  -2   0   2   95.28    6.11
   2   0  -2  111.47    6.53
  -1   1   2 2233.30   65.73
  -1   1   2 2576.85   66.60
  -1   1   2 2367.35   69.18
   1  -1  -2 2399.15   68.91
   0  -2  -2  815.36   26.75
   0   2   2  821.38   27.30
   0  -2  -2  834.41   27.78
   0   2   2  803.34   26.33
  -1  -3  -2   83.64    9.30
   1   3   2   79.23    8.40
   1   3   2   74.90    7.35
  -2  -4  -2  477.44   23.53
   2   4   2  509.12   22.71
   2   4   2  481.18   20.88
  -3  -5  -2   98.01   14.11
   3   5   2  132.63   11.03
   3   5   2  152.77   14.12
  -4  -6  -2  124.79   17.51
   4   6   2  199.54   17.04
  -5  -7  -2   34.11   13.60
   5   7   2   45.79   11.99
  -9  -5   3   19.00   11.47
  -9  -5   3   20.19   11.10
   9   5  -3   12.27    9.90
   8   4  -3  293.08   21.97
  -8  -4   3  277.03   20.92
  -8  -4   3  294.14   21.93
  -7  -3   3  152.41   14.94
   7   3  -3  190.96   17.09
  -7  -3   3  128.04   14.92
  -6  -2   3  155.33   12.30
   6   2  -3  142.02   12.18
  -6  -2   3  140.18   12.86
  -5  -1   3 1256.81   41.66
   5   1  -3 1320.95   44.95
  -5  -1   3 1266.36   42.58
  -5  -1   3 1315.13   39.19
  -4   0   3  363.32   15.95
   4   0  -3  379.64   15.97
  -4   0   3  375.85   15.50
  -4   0   3  388.58   16.03
  -3   1   3   81.56    7.33
   3  -1  -3   87.12    5.09
  -3   1   3   88.30    6.97
  -2   2   3 2098.91   62.15
  -2   2   3 2162.46   63.59
  -1   3   3  137.99    7.00
   1  -3  -3  120.84   10.79
   1  -3  -3  127.39    7.43
   0  -4  -3  293.23   17.52
   0   4   3  330.19   14.93
  -1  -5  -3  386.37   22.48
   1   5   3  369.75   20.23
   1   5   3  374.04   18.87
   2   6   3  342.60   20.20
  -2  -6  -3  337.28   23.45
   3   7   3   24.70    8.95
  -3  -7  -3   12.39   10.58
  10   4  -4   19.45    9.85
 -10  -4   4   16.17   10.30
 -10  -4   4   24.10   11.94
  -9  -3   4  121.88   16.13
   9   3  -4  129.47   16.20
  -9  -3   4  140.12   17.87
   8   2  -4  768.96   34.63
  -8  -2   4  747.78   33.69
  -8  -2   4  674.19   31.86
  -7  -1   4  134.81   12.98
  -7  -1   4  111.15    9.01
   7   1  -4  117.26   11.94
  -7  -1   4  131.80   12.32
   6   0  -4   11.18    4.69
  -6   0   4   14.55    5.43
  -6   0   4   11.47    5.00
  -5   1   4  386.46   17.60
   5  -1  -4  341.01   14.55
  -5   1   4  354.18   17.27
  -4   2   4  150.78   10.57
  -4   2   4  134.73   10.11
  -3   3   4    3.15    4.00
  -3   3   4   11.82    5.02
  -2   4   4  601.46   26.97
  -2   4   4  537.75   18.63
  -2   4   4  544.30   25.61
  -1   5   4    8.81    7.19
  -1   5   4    3.88    3.60
   1  -5  -4    7.32    7.06
   0  -6  -4    4.27    7.68
   0   6   4   -5.17    7.11
   0   6   4    6.34    5.00
   1   7   4   29.33    8.19
   1   7   4   43.95   12.20
  -1  -7  -4   30.10   11.75
  11   3  -5    2.55    8.41
 -11  -3   5   -0.70    8.49
 -10  -2   5   60.24   13.39
 -10  -2   5   65.18   12.81
  10   2  -5   60.37   12.58
  -9  -1   5  144.84   16.11
  -9  -1   5  158.05   16.18
   9   1  -5  157.16   15.54
   8   0  -5  326.81   18.12
  -8   0   5  300.66   18.80
  -8   0   5  296.76   18.46
  -7   1   5  119.24   12.39
  -7   1   5  131.86   12.46
   7  -1  -5   72.63    7.52
  -6   2   5  166.85   12.70
   6  -2  -5  171.17    8.32
  -6   2   5  149.42   12.11
  -5   3   5   -1.34    3.98
  -5   3   5    8.24    5.20
  -4   4   5  247.93   16.58
  -4   4   5  236.28   16.40
  -3   5   5   70.30   12.12
  -3   5   5   93.92   13.15
  -2   6   5  114.04   16.95
  -2   6   5   85.27   14.66
  -1   7   5   29.60   12.06
  -1   7   5   34.03   13.40
  -1   7   5   56.10   13.85
   0   8   5    7.75   12.35
 -11  -1   6   13.40    9.50
  11   1  -6   26.16    9.41
 -11  -1   6   13.96    9.20
  10   0  -6   11.69    6.93
 -10   0   6    7.98    8.06
 -10   0   6   18.82    8.41
  -9   1   6  267.60   19.10
   9  -1  -6  273.93   16.05
  -9   1   6  253.17   18.85
  -8   2   6    4.76    6.59
  -8   2   6    1.67    5.84
  -7   3   6  577.83   28.48
  -7   3   6  582.74   28.11
  -6   4   6   96.69   13.18
  -6   4   6  103.27   13.36
  -5   5   6   14.76    7.66
  -5   5   6   21.12    8.82
  -4   6   6  110.04   16.55
  -4   6   6   98.95   15.82
  -3   7   6   -4.86    8.70
  -3   7   6    9.11   10.19
 -11   1   7   29.49   10.50
 -11   1   7   21.71    9.85
 -10   2   7   18.59    8.85
 -10   2   7   -2.87    6.43
  -9   3   7   43.95   11.11
  -9   3   7   19.60    8.86
  -8   4   7   88.95   14.33
  -8   4   7   66.81   12.64
  -7   5   7    2.82    7.41
  -7   5   7    4.22    7.20
  -6   6   7   34.52   11.34
  -6   6   7   23.03   10.64
  -5   7   7   67.21   15.23
  -5   7   7   61.79   15.66
 -10   4   8   10.60    8.96
  -9   5   8   49.61   13.07
  -7   7   5   -4.49    7.86
  -8   6   5   34.20   10.74
  -8   6   5   29.92    9.91
  -9   5   5   12.30    8.74
  -9   5   5    8.82    7.89
 -10   4   5   15.03    9.27
 -10   4   5    6.61    8.25
 -11   3   5    1.63    7.68
  -4   8   4   23.96   10.27
  -5   7   4    2.26    7.18
  -5   7   4   24.80    9.48
  -6   6   4   32.74    9.29
  -6   6   4   40.67   10.24
  -7   5   4   62.81   11.16
  -7   5   4   54.96   10.98
  -8   4   4  132.60   15.05
  -8   4   4  108.02   13.93
  -9   3   4  136.14   15.60
  -9   3   4  141.89   16.59
 -10   2   4  136.63   16.77
 -10   2   4  177.47   18.88
 -11   1   4    0.22    7.22
 -11   1   4    8.06    8.31
  -2   8   3   48.94   12.30
  -2   8   3   20.40    9.93
  -3   7   3    8.93    7.78
  -3   7   3   -2.85    6.11
  -4   6   3    5.76    6.15
  -4   6   3    6.50    5.68
  -5   5   3  194.16   14.86
  -5   5   3  220.84   15.10
  -6   4   3   29.31    7.44
  -6   4   3   29.73    7.86
  -7   3   3  176.43   14.77
   7  -3  -3  144.47   10.39
  -7   3   3  146.09   14.04
   8  -2  -3   16.70    6.28
  -8   2   3    6.60    5.93
  -8   2   3    9.00    6.57
  -9   1   3   33.59    9.20
  -9   1   3   20.89    8.28
   9  -1  -3   25.62    7.52
 -10   0   3   66.73   13.02
  10   0  -3   71.30   12.31
 -10   0   3   71.15   13.97
  11   1  -3   38.26   11.00
 -11  -1   3   22.73   10.76
 -11  -1   3   44.32   12.46
   0   8   2   32.22   11.12
   0   8   2   29.92   10.39
  -1   7   2    3.58    7.32
  -1   7   2    6.33    7.31
  -2   6   2  187.33   11.44
  -2   6   2  171.06   13.89
  -2   6   2  178.26   14.39
  -3   5   2   58.50    6.82
  -3   5   2   55.02    8.90
  -3   5   2   60.45    9.05
  -3   5   2   63.21    6.09
  -4   4   2   63.87    8.45
  -4   4   2   68.53    8.87
  -4   4   2   58.19    5.14
   5  -3  -2   18.62    4.30
   5  -3  -2   25.11    8.29
  -5   3   2   15.82    3.77
  -5   3   2   13.37    5.22
  -5   3   2   18.57    5.44
   6  -2  -2   35.89    8.70
  -6   2   2   40.51    7.77
  -6   2   2   53.67    8.41
   6  -2  -2   52.77    6.98
  -7   1   2   35.10    7.89
   7  -1  -2   32.46    8.11
   7  -1  -2   51.30    7.89
  -7   1   2   35.10    8.04
   8   0  -2   31.14    7.72
   8   0  -2   20.94    7.21
  -8   0   2   21.59    7.44
  -8   0   2   25.30    7.88
   9   1  -2   46.32   10.24
   9   1  -2   35.59    8.11
  -9  -1   2   21.84    8.93
  -9  -1   2   23.07    8.88
 -10  -2   2   75.90   14.46
 -10  -2   2   35.56   11.75
  10   2  -2   78.32   14.05
  -2  -8  -1   10.24   10.07
   2   8   1   10.11    7.72
   1   7   1  196.43   15.59
  -1  -7  -1  172.69   17.88
   0   6   1  441.28   22.94
   0   6   1  428.65   21.37
   0  -6  -1  415.41   22.85
  -1   5   1  204.25   13.26
  -1   5   1  205.91   13.48
  -1   5   1  204.23   12.33
  -2   4   1  650.66   24.09
  -2   4   1  617.43   24.28
  -3   3   1 1892.89   57.18
  -3   3   1 1927.51   56.90
   3  -3  -1 1867.15   61.65
  -3   3   1 1895.50   56.10
   4  -2  -1  198.42   13.17
  -4   2   1  193.62   11.22
  -4   2   1  217.61   10.14
  -4   2   1  197.33   11.08
  -5   1   1   17.47    5.36
   5  -1  -1   18.03    4.93
  -5   1   1   19.46    5.35
   5  -1  -1    9.79    5.35
  -6   0   1   52.37    8.54
   6   0  -1   55.76    8.08
  -6   0   1   43.72    8.12
   6   0  -1   55.23    7.84
  -7  -1   1   45.06    9.41
   7   1  -1   62.15    7.88
   7   1  -1   65.95   10.13
  -7  -1   1   56.48   10.06
  -8  -2   1   30.39    9.78
  -8  -2   1   22.47    8.91
   8   2  -1   22.52    7.97
  -9  -3   1  149.04   19.66
  -9  -3   1  129.66   18.17
   9   3  -1  202.35   19.79
 -10  -4   1   -0.25    9.08
  10   4  -1    8.71    9.76
   4   8   0   18.41    9.62
  -4  -8   0   15.81   11.82
  -3  -7   0   25.64   10.06
   3   7   0   26.45    8.71
  -2  -6   0  115.13   13.77
   2   6   0   99.21   12.35
  -1  -5   0   86.43   10.20
   1   5   0   78.43    9.71
   0   4   0 3265.28   98.97
   0  -4   0 3291.87   92.80
  -1   3   0  813.31   25.48
   1  -3   0  749.26   28.22
  -1   3   0  761.84   24.93
  -1   3   0  761.46   25.38
   2  -2   0  234.67   12.98
   2  -2   0  269.62   11.17
  -2   2   0  283.98   13.49
   2  -2   0  262.25   10.84
  -2   2   0  229.83   10.27
  -2   2   0  249.04   11.06
  -2   2   0  241.33   10.66
  -3   1   0 1196.55   37.69
  -3   1   0 1157.52   35.14
  -3   1   0 1091.35   35.60
   3  -1   0 1120.48   37.51
   3  -1   0 1200.18   35.47
   3  -1   0 1178.19   37.45
  -3   1   0 1165.94   36.79
  -4   0   0  325.05   15.20
  -4   0   0  348.03   14.69
   4   0   0  369.38   16.28
   4   0   0  315.86   14.75
  -4   0   0  361.36   16.19
  -5  -1   0  708.37   24.00
  -5  -1   0  654.88   27.41
   5   1   0  642.23   27.14
   5   1   0  665.29   23.92
  -5  -1   0  615.54   26.18
   6   2   0  280.83   13.33
  -6  -2   0  249.68   17.68
   6   2   0  278.85   17.72
  -6  -2   0  256.51   17.20
  -6  -2   0  293.35   14.37
  -7  -3   0   10.89    7.78
   7   3   0   11.90    7.06
  -7  -3   0   13.75    8.45
  -8  -4   0   21.03   10.34
  -8  -4   0   29.61   11.15
   8   4   0   43.40   11.49
   9   5   0    8.99    9.38
   5   7  -1    5.69    8.13
  -5  -7   1   -0.54    8.82
   4   6  -1    2.66    6.71
  -4  -6   1    6.51    7.44
   3   5  -1  124.84    8.48
  -3  -5   1   86.60   11.22
   3   5  -1  113.80   12.73
   2   4  -1  638.55   22.24
  -2  -4   1  633.07   24.55
   2   4  -1  586.51   26.52
  -1  -3   1 2545.34   74.81
  -1  -3   1 2580.47   72.33
   1   3  -1 2631.28   73.30
   1   3  -1 2594.84   71.62
   1   3  -1 2569.08   74.33
   0  -2   1 3407.10  100.73
   0   2  -1 3640.85   95.10
   0  -2   1 3636.40   95.47
   0   2  -1 3623.97  100.69
  -1   1  -1 2795.91   81.85
   1  -1   1 2672.59   82.01
  -1   1  -1 2936.39   75.28
  -1   1  -1 2852.70   76.63
   1  -1   1 2747.95   74.89
   1  -1   1 2778.81   76.33
   1  -1   1 2858.81   80.09
  -1   1  -1 2855.32   79.77
  -2   0  -1 6060.66  156.86
   2   0   1 5752.81  159.34
  -2   0  -1 5899.10  159.91
  -2   0  -1 5862.36  162.91
   2   0   1 6029.90  168.45
   2   0   1 5866.06  156.27
   2   0   1 5757.97  162.95
  -2   0  -1 5987.76  167.98
  -3  -1  -1  655.91   24.10
  -3  -1  -1  607.12   23.01
   3   1   1  610.97   23.88
  -3  -1  -1  637.62   21.88
   3   1   1  597.19   21.14
   4   2   1  278.28   12.35
  -4  -2  -1  271.22   15.85
  -4  -2  -1  291.20   16.51
   4   2   1  265.66   15.58
  -4  -2  -1  260.30   12.86
   5   3   1  541.24   20.68
   5   3   1  596.76   27.53
  -5  -3  -1  576.24   27.00
  -5  -3  -1  509.74   26.71
  -6  -4  -1   -0.52    6.84
   6   4   1    0.56    5.63
  -7  -5  -1    2.15    8.24
   7   5   1    8.38    8.06
   7   7  -2    6.47    9.58
   6   6  -2   66.90   13.93
  -6  -6   2   70.63   13.43
   5   5  -2  127.29   15.34
  -5  -5   2  119.26   13.89
   4   4  -2   61.27    9.81
  -4  -4   2   54.84    8.59
   3   3  -2  890.59   35.94
  -3  -3   2  998.97   33.28
  -3  -3   2  995.04   32.37
   2   2  -2  831.88   24.36
  -2  -2   2  835.38   26.25
   2   2  -2  827.60   25.73
   2   2  -2  840.56   25.23
  -2  -2   2  840.93   25.73
  -2  -2   2  806.60   24.60
   1   1  -2 2370.17   65.20
  -1  -1   2 2326.90   63.32
   1   1  -2 2271.69   62.99
  -1  -1   2 2316.98   65.14
   1   1  -2 2240.95   61.80
  -1  -1   2 2354.87   62.16
   0   0  -2  144.46    7.55
   0   0   2  155.03    7.94
   0   0  -2  134.39    6.49
   0   0   2  144.06    6.68
   0   0   2  127.43    7.32
   0   0  -2  160.92    7.84
  -1  -1  -2 8891.59  236.60
  -1  -1  -2 9075.36  252.62
  -1  -1  -2 8982.06  246.17
   1   1   2 8962.61  246.26
   1   1   2 9086.36  236.28
   1   1   2 8780.55  252.64
   2   2   2 1830.36   57.55
  -2  -2  -2 1823.34   55.77
  -2  -2  -2 1849.43   55.58
   2   2   2 1767.73   54.97
   3   3   2  111.81    8.90
  -3  -3  -2  102.06   11.65
   3   3   2  124.66   10.26
   4   4   2  257.13   17.51
  -4  -4  -2  255.18   18.11
  -5  -5  -2  159.25   18.55
   5   5   2  200.65   18.32
  -6  -6  -2   47.43   13.89
   6   6   2   50.15   11.80
  -8  -6   3   -7.82    8.74
   8   6  -3   -2.10    7.55
  -7  -5   3  231.79   21.36
  -7  -5   3  194.06   18.88
   7   5  -3  235.48   19.98
   6   4  -3   41.63   10.01
  -6  -4   3   25.30    8.02
  -6  -4   3   34.74    8.89
  -5  -3   3  227.65   13.83
  -5  -3   3  213.95   14.09
   5   3  -3  232.98   15.99
  -4  -2   3  141.62    9.85
  -4  -2   3  161.89   10.07
  -3  -1   3   98.33    6.03
   3   1  -3  103.90    6.65
  -3  -1   3  102.22    6.90
  -3  -1   3   91.24    6.57
   3   1  -3   99.29    6.88
   2   0  -3 2103.17   59.34
  -2   0   3 2071.42   60.57
  -2   0   3 2141.15   59.51
   2   0  -3 2203.07   60.79
  -2   0   3 2166.11   62.50
   1  -1  -3 2324.74   68.25
  -1   1   3 2392.80   68.43
  -1   1   3 2448.93   71.20
   1  -1  -3 2569.15   71.16
  -1   1   3 2428.27   68.64
  -1   1   3 2456.26   71.93
   0   2   3 1787.30   54.02
   0   2   3 1751.97   55.35
   0  -2  -3 1728.99   53.69
   0  -2  -3 1832.26   54.39
   1   3   3  360.64   17.74
   1   3   3  376.73   16.65
  -1  -3  -3  357.70   18.66
   2   4   3  359.69   18.38
   2   4   3  349.67   18.21
  -2  -4  -3  322.52   20.01
   3   5   3  522.73   25.85
  -3  -5  -3  498.72   27.87
   3   5   3  477.65   23.27
  -4  -6  -3   51.38   13.82
   4   6   3   73.57   12.50
   5   7   3   -2.54    7.38
  -9  -5   4   12.90   10.57
  -9  -5   4   11.89    9.73
   9   5  -4   18.34    9.75
   8   4  -4  109.07   15.64
  -8  -4   4  116.54   15.33
  -8  -4   4  113.17   16.11
  -7  -3   4  131.88   13.91
   7   3  -4  172.24   16.47
  -7  -3   4  136.47   14.66
  -6  -2   4   89.78   10.12
   6   2  -4   75.74   10.28
  -6  -2   4   71.34    4.54
  -6  -2   4   77.92   10.12
   5   1  -4  373.31   18.77
  -5  -1   4  360.73   16.89
  -5  -1   4  366.42   17.30
  -5  -1   4  421.20   15.54
  -4   0   4 1450.94   44.77
   4   0  -4 1488.82   46.95
  -4   0   4 1426.78   45.47
  -3   1   4  568.26   22.07
  -3   1   4  591.69   21.78
  -2   2   4  272.12   14.37
   2  -2  -4  288.25   10.55
  -2   2   4  271.57   14.30
  -1   3   4  888.10   29.00
   1  -3  -4  896.94   29.42
  -1   3   4  850.49   33.83
   1  -3  -4  856.17   32.81
   0   4   4   72.48    7.27
   0  -4  -4   66.51   10.91
   0   4   4   63.13   10.51
  -1  -5  -4  116.75   14.79
   1   5   4  129.70   14.13
   1   5   4  125.45   11.26
   2   6   4    9.47    6.63
   2   6   4   -2.19    7.28
  -2  -6  -4   13.33    9.12
   3   7   4   35.61    9.99
  -3  -7  -4   43.44   14.11
  10   4  -5    1.01    8.02
 -10  -4   5    5.60    9.24
 -10  -4   5   15.75   10.76
  -9  -3   5  192.71   19.85
  -9  -3   5  200.18   19.37
   9   3  -5  208.88   20.18
   8   2  -5   31.24    8.95
  -8  -2   5   61.81   10.66
  -7  -1   5  105.59   11.69
   7   1  -5  126.84   12.39
  -7  -1   5  142.67   13.43
  -7  -1   5  147.00   10.21
  -6   0   5  868.59   32.20
   6   0  -5  868.99   32.40
  -6   0   5  852.67   32.78
  -5   1   5 1103.99   39.24
  -5   1   5 1088.80   38.55
   5  -1  -5 1188.02   37.13
  -4   2   5   20.06    5.83
  -4   2   5   18.25    5.71
   4  -2  -5   20.93    2.81
  -3   3   5  146.81   11.71
  -3   3   5  141.15   13.29
  -2   4   5   54.83    5.39
  -2   4   5   82.67   12.28
  -2   4   5   58.74   10.78
  -1   5   5   89.83   13.25
  -1   5   5   97.74   15.06
  -1   5   5   93.76    8.41
   1  -5  -5   98.81   14.08
   0  -6  -5   -0.83    7.03
   0   6   5    9.68    5.58
   0   6   5   -2.84    7.98
  -1  -7  -5   -7.87    7.76
   1   7   5   14.05   10.61
 -11  -3   6   19.54   10.63
  11   3  -6    7.59    8.98
  10   2  -6   15.85    8.72
 -10  -2   6   10.13    8.12
 -10  -2   6    7.16    8.28
   9   1  -6  247.17   17.97
  -9  -1   6  233.39   18.39
  -9  -1   6  255.87   18.28
  -8   0   6  171.09   15.92
   8   0  -6  151.77   12.43
  -8   0   6  140.54   14.20
   7  -1  -6  157.86   10.63
  -7   1   6  249.72   15.72
   6  -2  -6  324.58   12.76
  -6   2   6  329.07   18.59
  -6   2   6  315.15   18.74
  -5   3   6  720.48   32.05
  -5   3   6  821.01   32.77
  -4   4   6  516.98   26.87
  -4   4   6  553.07   27.10
  -3   5   6  146.13   17.51
  -3   5   6  176.48   18.62
  -2   6   6  123.16   18.91
  -2   6   6   89.88   16.47
  -2   6   6   82.02   15.46
  -1   7   6   -3.08    9.71
  -1   7   6   30.28   12.76
  -1   7   6   25.28   13.33
  11   1  -7   18.76    8.98
 -11  -1   7   22.02    9.60
 -11  -1   7    6.21    9.52
 -10   0   7   10.85    7.70
  10   0  -7    2.82    6.62
 -10   0   7    5.98    8.26
  -9   1   7   71.79   12.11
  -9   1   7   66.54   12.21
  -8   2   7   42.61   10.03
  -8   2   7   41.50   10.31
  -7   3   7   73.33   11.94
  -7   3   7   96.90   13.85
  -6   4   7  517.55   27.60
  -6   4   7  484.89   27.14
  -5   5   7  226.38   20.87
  -4   6   7  101.92   17.00
  -4   6   7  113.90   17.76
  -3   7   7    6.59   11.04
  -3   7   7   -1.69    9.39
  -3   7   7   -1.32   10.68
 -11   1   8   19.46    9.58
 -11   1   8   18.34    9.50
 -10   2   8   16.98    9.11
 -10   2   8    6.28    7.49
  -9   3   8    8.44    7.34
  -9   3   8  -13.01    5.98
  -8   4   8    6.77    7.25
  -8   4   8   15.28    8.55
  -7   5   8   78.93   14.60
  -7   5   8   73.49   14.56
  -6   6   8   12.36    9.40
  -6   6   8   15.33   10.38
  -7   7   4   18.82    8.68
  -8   6   4   13.15    8.48
  -8   6   4   19.23    9.47
  -9   5   4   12.62    8.49
  -9   5   4   12.56    7.92
 -10   4   4   10.95    8.30
 -10   4   4    3.06    8.19
 -11   3   4    8.72    8.92
  -4   8   3   27.06    9.71
  -4   8   3   13.59    8.08
  -5   7   3   -1.65    6.24
  -5   7   3    3.09    7.05
  -6   6   3    1.77    6.11
  -6   6   3    6.72    6.67
  -7   5   3  248.57   17.91
  -7   5   3  261.26   17.93
  -8   4   3  312.56   20.13
  -8   4   3  302.43   19.74
  -9   3   3   -2.67    6.27
  -9   3   3    2.36    5.78
 -10   2   3   69.11   13.27
 -10   2   3   40.66   10.97
  11  -1  -3   26.35    9.94
 -11   1   3   32.19   10.91
 -11   1   3    6.81    8.85
  -2   8   2   24.48    9.31
  -2   8   2   23.35    8.86
  -3   7   2   36.73    9.62
  -3   7   2   25.26    8.32
  -4   6   2  192.71   14.20
  -4   6   2  167.38   13.76
  -5   5   2  118.84   12.14
  -5   5   2  128.08   12.60
  -6   4   2   60.10    9.36
  -6   4   2   73.23   10.26
   6  -4  -2   67.86   13.01
   7  -3  -2   16.62    7.95
  -7   3   2   19.59    6.48
  -7   3   2   27.65    7.62
   7  -3  -2   13.19    5.34
   8  -2  -2   94.69   13.22
  -8   2   2   92.81   12.43
   8  -2  -2   83.45   10.71
  -8   2   2   77.07   11.74
   9  -1  -2   21.59    8.24
  -9   1   2   40.52   10.80
  -9   1   2   15.93    7.58
   9  -1  -2   21.50    8.67
 -10   0   2   56.18   12.76
 -10   0   2   46.33   11.99
  10   0  -2   74.45   11.95
  10   0  -2   80.38   13.02
 -11  -1   2   21.51   11.20
  11   1  -2   72.95   14.34
 -11  -1   2   56.77   13.97
   0   8   1   20.84    8.99
   0   8   1   19.31    8.94
  -1   7   1  197.53   15.56
  -1   7   1  244.61   15.61
  -1   7   1  225.66   16.56
  -2   6   1  238.72   14.02
  -2   6   1  222.93   14.97
  -2   6   1  242.16   15.07
  -3   5   1  125.69   10.92
  -3   5   1  117.14   11.02
   4  -4  -1  128.99   14.03
  -4   4   1  108.97   10.01
  -4   4   1  120.02    8.55
  -4   4   1  105.20   10.05
   5  -3  -1   45.88    9.40
  -5   3   1   53.00    7.60
  -5   3   1   37.86    6.91
  -6   2   1  249.74   14.68
  -6   2   1  224.29   14.27
   6  -2  -1  243.20   14.38
   6  -2  -1  249.64   16.13
  -7   1   1   63.02   10.18
   7  -1  -1   65.98    9.84
  -7   1   1   60.01    9.72
   7  -1  -1   47.04    8.63
  -8   0   1  252.76   17.95
   8   0  -1  242.80   17.41
  -8   0   1  257.55   18.77
   8   0  -1  284.94   16.91
  -9  -1   1   98.83   15.42
   9   1  -1  108.55   11.86
   9   1  -1   95.69   13.70
  -9  -1   1  122.03   15.97
 -10  -2   1    8.77    9.16
  10   2  -1   -1.54    7.34
 -10  -2   1  -13.28    7.17
   2   8   0    6.68    7.55
  -2  -8   0    3.95    9.25
  -1  -7   0   28.88    9.57
   1   7   0    9.97    6.79
   0   6   0  217.81   14.48
   0   6   0  233.73   15.59
  -1   5   0   80.00    8.79
  -1   5   0   79.63    8.42
  -2   4   0  383.64   16.25
  -2   4   0  365.24   15.82
   2  -4   0  385.13   20.00
   3  -3   0  253.90   15.36
  -3   3   0  253.37   12.37
  -3   3   0  266.63   12.43
  -3   3   0  276.66   13.15
   4  -2   0 1304.96   43.27
  -4   2   0 1182.12   39.25
  -4   2   0 1219.47   38.53
   4  -2   0 1198.47   41.29
   5  -1   0  681.05   26.60
  -5   1   0  603.52   24.99
   5  -1   0  631.94   25.86
  -5   1   0  652.91   25.03
   6   0   0   92.97    9.73
  -6   0   0   79.78   10.65
   6   0   0   94.09   10.22
  -6   0   0   95.66   10.94
  -7  -1   0   54.06   10.54
   7   1   0   30.19    7.05
  -7  -1   0   27.69    8.15
   7   1   0   42.19    8.82
   8   2   0    4.41    6.27
  -8  -2   0   12.57    8.29
   8   2   0   -1.21    5.37
  -8  -2   0    5.86    7.40
  -9  -3   0   -2.59    8.57
  -9  -3   0    8.70    9.38
   9   3   0   -0.81    7.14
   4   8  -1   28.21   10.75
   3   7  -1  137.74   15.87
  -3  -7   1  114.67   15.06
  -2  -6   1  235.08   16.29
   2   6  -1  251.34   17.44
  -1  -5   1  211.65   13.04
   1   5  -1  191.01   13.78
   0  -4   1  122.28   10.32
   1  -3   1  362.48   16.92
  -1   3  -1  369.18   13.75
  -1   3  -1  373.80   13.64
  -1   3  -1  366.37   13.33
   2  -2   1  206.08   11.11
  -2   2  -1  188.58   10.62
   2  -2   1  194.06    8.81
   2  -2   1  185.04   11.69
  -2   2  -1  194.39    8.53
   2  -2   1  187.97    8.91
  -2   2  -1  179.58    8.50
  -3   1  -1  623.32   21.33
  -3   1  -1  615.99   23.03
  -3   1  -1  639.57   21.98
   3  -1   1  592.79   23.52
   3  -1   1  597.79   23.23
   3  -1   1  619.46   21.35
   4   0   1  569.96   23.73
  -4   0  -1  579.94   22.64
  -4   0  -1  565.62   22.90
   4   0   1  559.29   22.11
   5   1   1  593.40   23.43
   5   1   1  602.11   26.53
  -5  -1  -1  623.50   26.73
  -5  -1  -1  611.75   26.02
   6   2   1    4.93    5.88
  -6  -2  -1    0.24    6.06
   6   2   1   10.65    5.11
  -6  -2  -1    1.89    5.86
   7   3   1    9.15    7.72
   7   3   1   13.92    6.00
  -7  -3  -1   14.86    8.97
  -7  -3  -1    0.72    7.11
   8   4   1    7.26    8.21
  -8  -4  -1    3.38    8.77
  -5  -7   2    9.58   10.01
   5   7  -2   10.24    7.87
   4   6  -2  172.81   17.21
  -4  -6   2  145.54   15.08
   3   5  -2   66.53   10.68
  -3  -5   2   59.53    9.23
   3   5  -2   49.19    5.81
   2   4  -2 1095.00   42.27
  -2  -4   2 1198.12   37.41
   2   4  -2 1149.74   36.10
   1   3  -2  598.32   20.80
  -1  -3   2  621.13   19.63
  -1  -3   2  580.82   21.32
   1   3  -2  575.32   18.77
   1   3  -2  598.27   19.34
   0   2  -2  804.58   26.42
   0  -2   2  806.01   26.93
   1  -1   2 8976.50  236.53
   1  -1   2 9206.51  241.25
  -1   1  -2 9256.24  241.98
   1  -1   2 8827.07  248.79
   1  -1   2 8936.80  256.66
  -1   1  -2 9056.87  248.58
  -1   1  -2 9157.07  237.25
  -2   0  -2  366.27   14.79
   2   0   2  316.62   15.28
  -2   0  -2  362.69   15.61
   2   0   2  363.42   14.19
   2   0   2  349.33   14.35
  -2   0  -2  350.42   14.72
  -2   0  -2  342.36   14.08
   2   0   2  343.81   14.52
  -3  -1  -2 1358.36   42.90
   3   1   2 1279.70   41.86
  -3  -1  -2 1299.62   43.70
   3   1   2 1300.48   44.81
  -3  -1  -2 1392.19   43.01
  -4  -2  -2  409.07   20.68
  -4  -2  -2  394.51   20.97
   4   2   2  446.38   18.10
   4   2   2  403.98   20.54
   5   3   2   88.76    9.02
   5   3   2   86.76   11.80
  -5  -3  -2   89.54   12.85
  -6  -4  -2   82.83   14.34
   6   4   2   91.73   13.75
   7   5   2   -0.47    6.94
  -7  -5  -2   -2.25    8.45
   7   7  -3    9.59    9.33
   6   6  -3   11.89    8.03
  -6  -6   3    2.46    8.09
  -5  -5   3  190.32   15.14
   5   5  -3  192.70   16.55
  -4  -4   3  107.72   10.38
   4   4  -3  119.39   12.80
  -4  -4   3   78.33    9.59
   3   3  -3  137.51    6.49
  -3  -3   3  186.22   10.02
  -3  -3   3  158.61    9.61
  -3  -3   3  167.68    6.97
   3   3  -3  128.05   11.90
   3   3  -3  140.49    8.49
   2   2  -3 2104.07   57.73
   2   2  -3 2141.59   58.93
  -2  -2   3 2095.85   59.38
   2   2  -3 2128.86   60.48
  -2  -2   3 2059.82   58.15
  -2  -2   3 2160.56   60.57
  -1  -1   3 2427.60   64.77
   1   1  -3 2433.60   69.39
  -1  -1   3 2424.42   69.30
  -1  -1   3 2412.35   65.97
   1   1  -3 2353.33   64.53
   0   0   3   39.06    5.68
   0   0  -3   44.69    6.19
   0   0  -3   38.96    4.69
   0   0   3   36.78    4.65
   0   0   3   25.21    5.28
   0   0  -3   34.04    5.57
   1   1   3 4835.27  133.70
   1   1   3 4950.71  142.82
  -1  -1  -3 4927.28  139.63
  -1  -1  -3 5051.23  142.76
   1   1   3 4934.83  139.53
  -1  -1  -3 4871.34  134.04
   2   2   3  304.78   15.46
   2   2   3  294.55   14.98
  -2  -2  -3  299.24   16.05
   3   3   3   27.85    6.83
  -3  -3  -3   44.19    9.21
   3   3   3   34.58    6.98
  -4  -4  -3   66.16   12.43
   4   4   3   58.70   10.32
   4   4   3   44.60    8.30
  -5  -5  -3   31.86   11.58
   5   5   3   10.94    7.27
   6   6   3   -2.80    7.42
  -6  -6  -3    1.82    9.79
  -8  -6   4    2.37    9.86
   8   6  -4   15.27    9.98
  -7  -5   4   59.68   11.80
   7   5  -4   66.17   13.53
  -7  -5   4   77.18   13.23
   6   4  -4  332.25   21.40
  -6  -4   4  312.05   18.56
  -6  -4   4  280.59   18.28
  -5  -3   4  102.16   10.21
  -5  -3   4  112.61   10.92
   5   3  -4  103.43   12.10
  -4  -2   4  140.54    6.60
  -4  -2   4  134.30    9.05
   4   2  -4  136.81   11.37
  -4  -2   4  137.11    9.04
  -3  -1   4  585.79   20.45
  -3  -1   4  620.39   21.24
  -3  -1   4  583.72   20.80
   3   1  -4  615.66   20.64
   2   0  -4  470.43   16.56
  -2   0   4  458.56   18.24
  -2   0   4  419.81   16.44
   2   0  -4  439.18   16.62
  -2   0   4  409.63   16.04
   2   0  -4  452.95   17.98
   1  -1  -4  343.20   14.16
  -1   1   4  302.08   14.74
  -1   1   4  324.42   15.76
   1  -1  -4  324.99   14.66
  -1   1   4  321.32   13.92
   0   2   4  470.22   18.99
   0  -2  -4  479.54   19.09
   0   2   4  481.99   21.12
   0  -2  -4  457.01   20.32
  -1  -3  -4 1026.45   38.73
   1   3   4 1050.09   36.98
   1   3   4 1049.75   38.33
  -2  -4  -4   96.23   13.56
   2   4   4  119.36   12.36
   2   4   4  120.62   11.60
   3   5   4   20.25    7.59
   3   5   4   18.96    8.49
  -3  -5  -4   17.94    9.48
   4   6   4   17.85    8.63
  -4  -6  -4   17.64   10.45
   9   5  -5   12.84    9.10
  -9  -5   5    2.86    9.40
  -9  -5   5    5.89    9.16
  -8  -4   5   47.89   11.62
  -8  -4   5   31.70    9.89
   8   4  -5   50.94   11.85
   7   3  -5  447.51   25.46
  -7  -3   5  411.61   22.34
  -7  -3   5  440.99   23.43
  -6  -2   5  167.69   12.29
  -6  -2   5  165.12    8.31
  -6  -2   5  176.84    8.43
   6   2  -5  154.79   13.13
  -6  -2   5  175.21   12.30
  -5  -1   5 1210.39   38.52
  -5  -1   5 1157.66   38.93
  -5  -1   5 1229.06   40.30
   5   1  -5 1161.64   42.54
  -4   0   5 2189.71   66.84
  -4   0   5 2233.37   65.75
  -4   0   5 2141.83   64.24
  -3   1   5 2421.84   71.00
  -3   1   5 2464.87   72.51
   3  -1  -5 2421.56   72.55
  -3   1   5 2427.90   74.80
  -2   2   5    3.14    4.28
  -2   2   5   11.32    5.18
  -2   2   5   14.55    6.16
   2  -2  -5    5.54    3.17
   1  -3  -5  706.42   24.80
   1  -3  -5  624.42   27.80
  -1   3   5  673.52   24.42
  -1   3   5  610.67   28.18
   0   4   5   75.29   11.65
   0   4   5   53.44    7.21
   0  -4  -5   57.17   10.89
   1   5   5  120.15   11.53
   1   5   5  144.66   15.69
  -1  -5  -5   92.23   14.77
  -2  -6  -5   38.73   11.84
   2   6   5   41.56   11.02
   2   6   5   64.26   10.72
   3   7   5   16.11    8.62
  10   4  -6   -1.95    7.75
 -10  -4   6    5.78    8.92
 -10  -4   6    0.27    9.40
   9   3  -6   82.79   13.99
  -9  -3   6   65.94   12.77
  -9  -3   6   78.04   13.41
  -8  -2   6    8.20    6.56
   8   2  -6   11.38    6.49
  -8  -2   6    6.51    6.23
  -7  -1   6  241.96   15.69
  -7  -1   6  272.20   14.46
  -7  -1   6  286.08   16.92
   7   1  -6  257.04   16.67
  -6   0   6  106.89   10.78
  -6   0   6  132.44   11.78
   6   0  -6  101.26    9.80
  -6   0   6  108.62   11.29
  -5   1   6  855.88   33.13
  -5   1   6  900.90   32.94
   5  -1  -6  874.49   30.56
  -4   2   6  141.27   11.39
  -4   2   6  144.34   11.41
   4  -2  -6  143.67    7.77
  -3   3   6  241.56   16.51
   3  -3  -6  246.85   10.03
  -3   3   6  224.92   16.58
  -3   3   6  233.66   15.91
  -2   4   6  308.71   20.26
  -2   4   6  300.67   20.62
  -2   4   6  300.74   14.02
  -2   4   6  279.16   20.18
  -1   5   6   29.18   10.89
  -1   5   6   24.92    6.19
   1  -5  -6   13.81    8.71
  -1   5   6   17.88    9.49
   0  -6  -6   39.25   12.65
   0   6   6   20.89   10.89
   1   7   6   52.15   14.12
  -1  -7  -6   69.21   16.79
 -11  -3   7   -4.69    8.49
  10   2  -7    8.92    8.31
 -10  -2   7    4.95    7.88
 -10  -2   7    5.38    8.28
   9   1  -7   65.22   11.29
  -9  -1   7   70.39   12.09
  -9  -1   7   85.79   13.78
   8   0  -7   13.57    6.05
  -8   0   7   12.41    6.94
  -8   0   7    5.16    6.42
  -8   0   7   -0.67    6.46
  -7   1   7  171.26   13.85
  -7   1   7  168.58   13.71
   7  -1  -7  180.82   11.57
  -6   2   7   31.10    8.62
   6  -2  -7   43.21    4.92
  -6   2   7   31.54    7.96
  -5   3   7  454.38   23.88
  -5   3   7  406.14   22.71
  -4   4   7   15.08    8.21
  -4   4   7   12.20    7.61
  -4   4   7   20.15    9.07
  -3   5   7   46.65   13.22
  -3   5   7   56.63   13.41
  -3   5   7   31.64   11.95
  -2   6   7  166.19   22.16
  -2   6   7  138.22   20.66
  -2   6   7  125.73   19.14
  -1   7   7   48.58   14.87
  -1   7   7   21.95   13.34
  -1   7   7   60.65   17.98
 -11  -1   8   21.28   10.81
 -11  -1   8   17.33    9.82
  11   1  -8   12.71    8.67
 -10   0   8   -2.82    5.91
 -10   0   8   -7.54    6.86
  -9   1   8   77.60   13.03
  -9   1   8   59.14   12.08
  -8   2   8  125.80   14.98
  -8   2   8  128.69   14.90
  -7   3   8  130.45   15.66
  -7   3   8  101.93   14.38
  -6   4   8   54.01   11.26
  -6   4   8   80.02   13.76
  -5   5   8    6.71    9.85
  -5   5   8    2.37    8.53
  -5   5   8   -4.32    6.68
  -4   6   8   12.93   10.76
  -4   6   8    3.60    9.54
  -4   6   8  -13.56    8.00
  -3   7   8   18.96   13.60
 -11   1   9   22.46   10.53
 -10   2   9  -18.58    4.74
 -10   2   9   -4.12    6.58
  -9   3   9   65.29   12.95
  -9   3   9   59.28   12.77
  -8   4   9   12.83    8.95
  -8   4   9    8.97    9.12
  -7   5   9    2.76    8.78
  -7   5   9    4.18   11.40
  -7   5   9   -4.52    7.50
  -6   6   9   24.47   11.37
  -7   7   3    6.62    7.54
  -8   6   3    8.17    7.74
  -8   6   3    6.77    7.70
  -9   5   3   35.37   10.80
  -9   5   3   18.15    8.70
 -10   4   3   70.55   13.63
 -10   4   3   54.73   12.27
 -11   3   3   35.91   11.77
  -4   8   2    1.74    6.99
  -4   8   2    6.01    7.20
  -5   7   2   23.30    8.07
  -5   7   2   40.79    9.55
  -6   6   2   63.84   10.97
  -6   6   2   51.01    9.94
  -7   5   2   11.09    6.84
  -7   5   2    9.91    6.46
  -8   4   2    5.29    6.41
   8  -4  -2    8.40    9.35
  -8   4   2    3.83    6.70
  -9   3   2   79.43   12.68
   9  -3  -2   63.86   13.65
  -9   3   2   49.81   11.39
  10  -2  -2   81.06   14.80
 -10   2   2   79.20   13.80
  10  -2  -2   74.59   13.16
 -10   2   2   93.01   15.60
 -11   1   2   67.12   14.42
 -11   1   2   52.05   13.66
  11  -1  -2   78.47   14.42
  -2   8   1   35.92    9.35
  -3   7   1  131.68   13.12
  -3   7   1  124.03   12.92
  -4   6   1    6.33    5.60
  -4   6   1    1.63    5.18
   5  -5  -1   14.63    8.37
  -5   5   1    7.01    5.13
  -5   5   1    5.32    5.16
   6  -4  -1    7.57    7.37
  -6   4   1    4.78    4.72
  -6   4   1    9.54    5.23
   7  -3  -1   80.77   13.05
  -7   3   1   87.83   11.14
   7  -3  -1   66.61    9.82
  -7   3   1   79.55   11.27
  -8   2   1   26.59    8.43
  -8   2   1   33.44    8.73
   8  -2  -1   29.92    8.43
   8  -2  -1   15.29    7.51
  -9   1   1  107.02   14.95
   9  -1  -1  111.90   13.91
  -9   1   1  123.50   15.59
   9  -1  -1  109.46   13.97
  10   0  -1    2.52    8.15
  10   0  -1    6.07    7.56
 -10   0   1    4.50    7.66
 -10   0   1   12.66    9.00
  11   1  -1    0.80    7.66
 -11  -1   1   24.60   11.87
   0   8   0   11.02    7.56
  -1   7   0   17.32    6.92
  -1   7   0    6.79    6.11
  -1   7   0   12.02    6.45
  -2   6   0  114.74   10.90
  -2   6   0  114.53   10.72
   3  -5   0  448.01   24.58
  -3   5   0  357.81   17.37
  -3   5   0  423.26   18.75
   4  -4   0   60.89   10.91
  -4   4   0   42.16    6.77
  -4   4   0   54.32    7.50
   5  -3   0  231.45   16.29
  -5   3   0  196.99   12.48
   5  -3   0  190.70   13.20
  -5   3   0  198.27   12.25
  -6   2   0  263.98   15.60
   6  -2   0  265.74   17.60
   6  -2   0  256.53   16.38
  -6   2   0  298.26   16.20
   7  -1   0   41.37    8.89
  -7   1   0   29.74    8.26
   7  -1   0   31.25    8.21
  -7   1   0   30.18    8.14
   8   0   0  169.40   14.15
  -8   0   0  158.69   16.41
   8   0   0  143.55   15.21
  -8   0   0  160.41   16.73
  -9  -1   0   24.00    9.62
  -9  -1   0   36.04   10.66
   9   1   0   41.69   10.78
   9   1   0   23.32    8.46
 -10  -2   0   14.57   10.06
 -10  -2   0   16.26   11.42
  10   2   0   14.77    9.76
   2   8  -1   76.72   13.47
  -1  -7   1  256.90   17.85
   1   7  -1  233.27   17.51
   1   7  -1  208.00   15.17
   0   6  -1  420.25   18.88
   0   6  -1  386.73   21.44
   0   6  -1  412.86   19.12
  -1   5  -1  507.81   19.51
  -1   5  -1  505.12   19.99
   1  -5   1  508.32   24.75
  -2   4  -1  107.45    7.29
  -2   4  -1  109.39    7.45
  -2   4  -1  113.61    8.52
   2  -4   1  127.31   12.18
   3  -3   1  992.27   37.34
  -3   3  -1  968.79   32.01
   3  -3   1 1015.75   32.24
  -3   3  -1 1009.20   31.56
  -4   2  -1  271.73   13.58
   4  -2   1  245.89   15.49
   4  -2   1  301.61   15.94
  -4   2  -1  289.92   13.65
  -5   1  -1  643.14   25.15
   5  -1   1  602.92   26.11
  -5   1  -1  607.81   25.17
   5  -1   1  622.18   26.82
   6   0   1   50.49    9.20
   6   0   1   51.14    8.36
  -6   0  -1   39.19    9.08
  -6   0  -1   54.75    9.48
   7   1   1    5.45    5.78
   7   1   1   -0.38    5.47
  -7  -1  -1    2.43    6.30
  -7  -1  -1   -6.46    5.37
  -8  -2  -1    0.79    7.57
   8   2   1    5.59    6.94
   8   2   1    5.50    6.57
  -8  -2  -1    7.44    8.09
  -9  -3  -1   10.11    9.09
   9   3   1   -1.53    7.41
  -9  -3  -1    8.63    9.52
   4   8  -2    6.53    8.61
  -3  -7   2   48.08   11.00
   3   7  -2   21.05    9.23
  -2  -6   2  179.67   13.45
   2   6  -2  177.78   14.98
  -1  -5   2   26.86    5.72
  -1  -5   2   49.14    8.08
   0   4  -2  740.90   23.60
   0   4  -2  773.44   23.97
   0  -4   2  732.06   28.44
   0   4  -2  734.40   23.35
   1  -3   2   70.49    8.47
  -1   3  -2   74.29    4.91
  -1   3  -2   70.51    4.38
  -1   3  -2   65.87    4.27
  -2   2  -2 1841.28   52.16
   2  -2   2 1877.00   51.21
   2  -2   2 1896.70   52.22
  -2   2  -2 1792.79   50.96
   2  -2   2 1755.27   58.84
   2  -2   2 1795.54   57.52
  -3   1  -2 1347.74   41.38
   3  -1   2 1266.40   44.30
  -3   1  -2 1429.49   42.69
   3  -1   2 1357.93   46.61
   3  -1   2 1389.77   41.23
   4   0   2   11.69    5.21
  -4   0  -2   16.13    5.63
  -4   0  -2   10.39    5.51
   4   0   2   23.19    6.60
   5   1   2  159.59   11.04
  -5  -1  -2  144.60   13.41
  -5  -1  -2  144.35   14.05
   5   1   2  136.05   12.94
  -6  -2  -2  103.66   13.78
  -6  -2  -2   94.84   13.73
   6   2   2  102.31   13.11
   6   2   2   96.94   10.16
  -7  -3  -2   20.31    9.70
   7   3   2    8.53    7.03
   7   3   2    5.88    6.49
  -8  -4  -2   13.33   11.18
   8   4   2   30.73   11.43
   5   7  -3    2.96    8.01
  -4  -6   3    3.89    6.64
   4   6  -3   -1.14    5.70
   3   5  -3   27.70    7.95
  -3  -5   3   13.87    5.73
   2   4  -3  985.21   31.41
  -2  -4   3  969.60   31.02
  -2  -4   3  955.45   32.26
   2   4  -3  964.71   30.45
   2   4  -3  964.67   29.77
  -1  -3   3  128.86    8.78
   1   3  -3  144.35    8.44
  -1  -3   3  130.53    5.87
   1   3  -3  127.17    5.29
   1   3  -3  129.54    5.39
   0   2  -3 1834.53   54.28
   0  -2   3 1749.23   54.42
  -1   1  -3 4865.64  128.95
   1  -1   3 4767.05  137.19
   1  -1   3 4799.14  142.38
   1  -1   3 4946.54  131.29
   1  -1   3 4894.95  128.68
   2   0   3    1.54    4.23
   2   0   3   -2.21    3.25
  -2   0  -3   -0.94    3.41
   2   0   3   -1.81    3.52
  -3  -1  -3 1824.60   57.01
   3   1   3 1804.72   60.42
   3   1   3 1863.10   57.63
  -4  -2  -3    4.33    5.86
   4   2   3    7.46    4.97
   4   2   3   18.81    6.19
   5   3   3  111.60   10.92
  -5  -3  -3  107.25   14.39
   5   3   3  128.49   14.05
   6   4   3   60.88    9.58
  -6  -4  -3   62.16   13.90
   6   4   3   59.14   11.92
  -7  -5  -3   21.74   12.24
   7   5   3   30.42   11.58
   7   7  -4   26.33   10.79
  -6  -6   4   50.21   11.67
   6   6  -4   43.23   11.61
  -5  -5   4   45.13    9.20
   5   5  -4   44.38   10.77
  -4  -4   4  434.67   19.00
  -4  -4   4  420.97   19.34
   4   4  -4  397.49   22.73
   3   3  -4    6.72    3.47
  -3  -3   4    7.59    3.28
  -3  -3   4    5.10    3.23
  -3  -3   4   10.06    3.31
   3   3  -4    5.82    3.46
   3   3  -4    1.02    2.82
  -2  -2   4  272.06   10.30
   2   2  -4  281.97   10.23
  -2  -2   4  254.51    9.92
   2   2  -4  272.16   12.21
   2   2  -4  269.98    9.91
  -2  -2   4  275.75   12.05
  -1  -1   4  318.78   14.34
  -1  -1   4  302.41   11.15
   1   1  -4  324.27   14.59
  -1  -1   4  335.74   11.59
  -1  -1   4  323.29   11.90
   0   0   4  632.64   23.99
   0   0  -4  586.53   20.58
   0   0   4  598.14   20.99
   0   0   4  584.56   23.16
  -1  -1  -4  479.49   20.24
   1   1   4  464.61   20.54
   1   1   4  511.84   21.37
   2   2   4   13.31    5.09
   2   2   4    3.44    5.19
  -2  -2  -4   10.24    5.89
   3   3   4   46.55    8.60
   3   3   4   51.80    8.75
  -3  -3  -4   48.41    9.94
   4   4   4   60.64    9.97
  -4  -4  -4   59.92   12.51
   4   4   4   91.37   12.67
  -5  -5  -4   16.91   11.15
   5   5   4   27.31    9.11
  -8  -6   5   18.27   11.84
   8   6  -5   36.06   12.15
   7   5  -5   49.41   12.20
  -7  -5   5   51.53   11.29
  -7  -5   5   30.18   10.13
  -6  -4   5   87.72   11.22
  -6  -4   5   83.20   11.51
   6   4  -5   98.30   13.88
   5   3  -5   -0.31    4.61
  -5  -3   5    5.33    4.75
  -5  -3   5    8.01    4.70
  -5  -3   5    5.87    2.29
  -4  -2   5   22.41    4.98
  -4  -2   5   26.35    5.13
  -4  -2   5   20.42    4.32
  -3  -1   5 2522.07   74.86
  -3  -1   5 2503.24   72.25
  -3  -1   5 2480.56   70.87
   3   1  -5 2580.36   74.77
   3   1  -5 2553.93   70.91
  -2   0   5   -2.62    4.16
   2   0  -5    2.13    3.88
  -2   0   5   -1.66    2.94
  -2   0   5    0.82    2.86
  -2   0   5    3.39    4.08
  -1   1   5 1046.13   36.43
   1  -1  -5 1083.98   36.25
   1  -1  -5 1060.02   35.28
  -1   1   5 1047.86   37.62
   0  -2  -5  420.81   20.34
   0   2   5  445.11   21.37
   0   2   5  457.95   19.71
   1   3   5  117.36   10.52
  -1  -3  -5  112.96   13.03
   1   3   5  101.40   11.72
  -2  -4  -5   99.21   14.30
   2   4   5  110.51   11.88
   2   4   5  143.76   14.23
  -3  -5  -5  109.89   17.09
   3   5   5  103.05   13.02
   3   5   5   73.85   12.28
   4   6   5   54.66   11.83
  -4  -6  -5   48.62   14.20
  -9  -5   6   17.21   11.16
   9   5  -6   12.43    9.52
  -9  -5   6   36.35   12.01
   8   4  -6   -0.14    6.87
  -8  -4   6    7.05    7.47
  -8  -4   6   10.46    7.86
  -7  -3   6  579.01   27.32
   7   3  -6  555.12   29.61
  -7  -3   6  604.77   27.22
   6   2  -6  310.69   19.10
  -6  -2   6  329.96   16.98
  -6  -2   6  316.01   13.70
  -6  -2   6  276.07   16.34
  -5  -1   6  901.85   31.86
  -5  -1   6  900.09   32.42
  -5  -1   6  874.54   31.50
  -4   0   6 1957.48   62.52
  -4   0   6 1988.58   59.63
  -4   0   6 1957.82   60.61
  -3   1   6  270.19   14.73
   3  -1  -6  269.17   13.53
  -3   1   6  267.90   14.46
  -3   1   6  269.04   16.36
   2  -2  -6  225.80   11.65
  -2   2   6  233.10   14.70
  -2   2   6  191.67   14.55
  -2   2   6  206.97   13.91
   1  -3  -6   16.07    6.81
  -1   3   6   17.56    8.04
  -1   3   6   17.79    5.59
   0   4   6   24.64    6.33
   0   4   6   15.98    8.89
   0  -4  -6   13.12    7.69
  -1  -5  -6   12.27    9.37
   1   5   6   16.98    8.65
   1   5   6   11.68    6.28
   2   6   6   74.73   14.30
  -2  -6  -6   35.21   12.81
   2   6   6   54.00   10.71
 -10  -4   7   19.95   10.36
  10   4  -7   15.70    9.37
  -9  -3   7   28.22    9.89
  -9  -3   7   35.06   10.92
   9   3  -7   40.33   11.09
  -8  -2   7   71.15   11.53
  -8  -2   7   48.56    9.61
   8   2  -7   38.54    9.76
   7   1  -7  188.18   14.50
  -7  -1   7  213.13   14.72
  -7  -1   7  175.34   13.99
  -7  -1   7  193.53   13.18
  -6   0   7  110.87   11.86
  -6   0   7  110.70   11.58
   6   0  -7   90.99    9.80
  -6   0   7  103.00   11.22
  -5   1   7   61.76    9.28
  -5   1   7   69.00    9.41
  -5   1   7   64.11   10.45
  -4   2   7  419.18   21.60
  -4   2   7  402.28   22.98
  -4   2   7  465.97   21.98
   4  -2  -7  411.98   17.07
  -3   3   7   29.89   10.00
  -3   3   7   24.58    7.76
  -3   3   7   18.26    7.53
  -2   4   7  134.59   16.68
  -2   4   7  113.74   15.71
  -2   4   7  117.25   16.91
  -2   4   7  132.66   10.40
  -1   5   7  245.73   20.17
  -1   5   7  236.19   24.25
   1  -5  -7  228.15   21.73
   0   6   7   47.52   13.57
   0  -6  -7   10.52   10.81
 -10  -2   8   10.82    8.85
  10   2  -8    5.24    7.82
 -10  -2   8    6.50    8.62
  -9  -1   8   77.87   13.37
  -9  -1   8   48.16   10.84
   9   1  -8   67.78   11.50
  -8   0   8   23.88    8.59
  -8   0   8   33.99    9.55
   8   0  -8   27.36    7.55
  -8   0   8   24.35    7.72
  -7   1   8   90.43   13.36
   7  -1  -8   82.81    8.94
  -7   1   8   90.64   12.22
  -7   1   8   89.77   12.31
  -6   2   8  437.25   23.21
  -6   2   8  444.12   25.53
  -6   2   8  415.33   23.17
  -5   3   8   99.87   13.40
  -5   3   8   85.49   12.55
  -5   3   8   77.29   14.15
  -4   4   8  363.37   23.92
  -4   4   8  405.67   26.51
  -3   5   8  498.09   32.21
  -3   5   8  562.36   33.01
  -3   5   8  554.22   33.27
  -2   6   8   18.16   11.64
  -2   6   8   17.67   12.48
  -2   6   8   23.65   12.93
 -11  -1   9   26.10   11.68
 -10   0   9   12.20    8.27
 -10   0   9    1.19    7.22
  -9   1   9   15.35    8.12
  -9   1   9   42.83   10.83
  -9   1   9   22.31   10.42
  -8   2   9   13.11   10.26
  -8   2   9   18.48    8.20
  -8   2   9    9.12    7.52
  -7   3   9   54.25   11.56
  -7   3   9   40.50   10.48
  -7   3   9   46.28   13.22
  -6   4   9    3.27    7.94
  -6   4   9   11.79    7.77
  -6   4   9   14.35   10.45
  -5   5   9   11.86    9.65
  -5   5   9   25.92   10.80
  -5   5   9   18.90   12.71
  -4   6   9   24.52   12.95
  -4   6   9   -0.10    9.30
  -4   6   9    2.07   11.00
 -10   2  10  -10.43    6.02
  -9   3  10    2.69    8.13
  -9   3  10   11.31   11.86
  -9   3  10   10.11    7.78
  -8   4  10   23.15   10.28
  -8   4  10   14.50    9.50
  -8   4  10   18.68   13.17
  -7   5  10   20.70   11.55
  -7   7   2   15.15    8.04
  -8   6   2   15.17    8.64
  -8   6   2   21.45    8.69
  -9   5   2   12.71    8.62
  -9   5   2   21.57    9.49
  10  -4  -2   78.48   17.39
 -10   4   2   94.19   15.89
 -10   4   2  109.75   16.20
  -5   7   1    2.23    6.25
  -5   7   1   -5.19    5.28
  -6   6   1    7.37    5.99
   6  -6  -1    0.20    8.88
  -6   6   1   -1.34    5.52
  -7   5   1   -4.13    4.86
   7  -5  -1   -8.53    7.07
  -7   5   1    3.45    6.30
   8  -4  -1   35.42   11.54
  -8   4   1   34.37    9.26
  -8   4   1   28.21    8.70
  -9   3   1  198.17   19.19
  -9   3   1  196.47   17.74
   9  -3  -1  170.49   17.15
   9  -3  -1  161.66   19.13
  10  -2  -1    3.78    8.27
 -10   2   1   14.66    9.08
 -10   2   1    3.69    7.62
  10  -2  -1   -1.56    8.45
 -11   1   1   24.39   10.95
  11  -1  -1   29.23   11.47
  -3   7   0   35.47    7.90
  -3   7   0   30.14    7.49
   4  -6   0    9.31    9.15
  -4   6   0    8.23    5.38
  -4   6   0    9.53    5.24
   5  -5   0  228.46   18.97
  -5   5   0  232.37   14.59
  -5   5   0  239.24   14.44
  -6   4   0   10.69    5.86
  -6   4   0   10.43    5.94
   6  -4   0    5.12    6.82
   7  -3   0   15.81    6.97
   7  -3   0    6.42    7.17
  -7   3   0   13.69    6.36
  -7   3   0   11.83    6.48
   8  -2   0    0.26    6.24
   8  -2   0    0.89    6.81
  -8   2   0   17.85    7.77
  -8   2   0    0.60    5.68
   9  -1   0   30.43    9.34
   9  -1   0   10.70    8.41
  -9   1   0   20.07    8.76
  -9   1   0   28.60   10.33
 -10   0   0   38.74   12.02
  10   0   0   31.22   10.44
  10   0   0   26.06   10.19
 -10   0   0   33.19   10.85
   0   8  -1   16.31    7.90
  -1   7  -1  183.95   15.16
  -1   7  -1  179.75   12.50
  -1   7  -1  172.58   12.23
   2  -6   1  116.44   15.13
  -2   6  -1   83.57    8.89
  -2   6  -1   79.81    8.40
  -3   5  -1  730.58   26.90
   3  -5   1  752.14   34.09
  -3   5  -1  743.42   26.65
  -4   4  -1  166.70   10.74
   4  -4   1  162.05   15.45
  -4   4  -1  157.72   10.18
   5  -3   1  496.47   25.31
  -5   3  -1  553.57   22.73
  -5   3  -1  611.86   23.73
   5  -3   1  541.22   26.96
  -6   2  -1   -0.56    4.78
   6  -2   1   -1.51    6.15
   6  -2   1    5.96    6.10
  -6   2  -1   10.44    5.63
  -7   1  -1    2.94    5.71
   7  -1   1   -3.77    5.28
  -7   1  -1    0.94    5.23
   7  -1   1    4.38    6.66
  -8   0  -1  107.43   14.82
   8   0   1  106.91   14.13
   8   0   1  111.26   13.26
  -8   0  -1  108.13   14.55
  -9  -1  -1    8.53    8.67
   9   1   1   36.57   10.05
   9   1   1   19.17    9.10
  -9  -1  -1   39.56   12.60
 -10  -2  -1   -3.77    9.21
 -10  -2  -1   -8.21    8.30
  10   2   1    7.17    9.47
   2   8  -2   41.60   11.25
   1   7  -2   13.41    7.47
   0  -6   2   32.26    8.92
   0   6  -2   31.98    6.01
   0   6  -2   27.56    5.67
   1  -5   2  864.69   35.23
  -1   5  -2  864.38   28.12
  -1   5  -2  870.80   27.50
  -1   5  -2  841.56   28.15
   2  -4   2  537.40   25.43
  -2   4  -2  551.17   18.69
  -2   4  -2  537.51   19.54
  -2   4  -2  539.30   18.95
  -3   3  -2  133.12    8.06
  -3   3  -2  120.69    7.73
   3  -3   2  131.50   12.49
   3  -3   2  121.61    8.17
  -4   2  -2  462.00   19.22
   4  -2   2  428.84   21.95
   4  -2   2  458.50   22.70
  -4   2  -2  459.93   18.78
   5  -1   2  149.96   13.40
  -5   1  -2  152.06   11.52
   5  -1   2  136.18   13.40
  -5   1  -2  158.05   11.81
   6   0   2  117.24   13.19
   6   0   2  117.50   12.31
  -6   0  -2  138.68   13.86
  -6   0  -2   98.91   12.47
   7   1   2   49.20    9.53
   7   1   2   39.00   10.15
  -7  -1  -2   36.62   10.01
  -7  -1  -2   51.55   11.31
  -8  -2  -2   50.05   12.56
   8   2   2   65.70   10.93
  -8  -2  -2   78.08   14.80
   8   2   2   39.11   10.64
  -9  -3  -2    7.00    9.92
   9   3   2    0.66    7.93
   4   8  -3    1.39    7.06
   3   7  -3   15.49    8.34
   2   6  -3  114.87   13.83
  -2  -6   3  123.67   11.18
   1   5  -3  190.89    9.27
  -1  -5   3  186.79   12.91
   1   5  -3  173.04    9.32
   1   5  -3  176.16    9.56
   0   4  -3  321.56   10.84
   0   4  -3  340.99   10.99
   0   4  -3  318.32   11.07
   0  -4   3  332.68   17.23
   0   4  -3  324.84   10.66
   1  -3   3  374.58   18.07
  -1   3  -3  355.92   11.18
  -1   3  -3  334.17   11.00
   2  -2   3  315.55   12.26
  -2   2  -3  326.52   12.29
   2  -2   3  308.03   17.52
   2  -2   3  310.48   12.04
  -2   2  -3  315.51   12.52
   2  -2   3  343.39   16.93
  -3   1  -3 1863.80   57.01
  -3   1  -3 1886.44   55.83
   3  -1   3 1973.47   60.82
   3  -1   3 1827.69   62.91
   4   0   3    6.10    4.85
  -4   0  -3    0.51    4.61
   4   0   3    5.62    5.50
  -4   0  -3   -2.56    4.41
   5   1   3  519.15   23.37
   5   1   3  564.97   26.83
  -5  -1  -3  483.74   24.44
  -5  -1  -3  475.75   25.04
  -6  -2  -3   21.00    8.62
   6   2   3   10.92    6.47
   6   2   3   18.10    7.73
  -7  -3  -3   69.58   14.19
   7   3   3   67.49   10.51
   7   3   3   55.47   12.01
   8   4   3    9.32    8.96
  -8  -4  -3    1.07    9.50
   5   7  -4    3.53    7.45
  -4  -6   4    9.47    5.53
   4   6  -4   67.37   12.42
  -3  -5   4   10.46    5.42
  -3  -5   4   16.08    5.38
  -2  -4   4  535.06   18.25
   2   4  -4  542.87   17.58
   2   4  -4  538.45   17.19
  -2  -4   4  526.54   21.34
  -1  -3   4  820.80   29.48
   0  -2   4  455.75   19.35
   1  -1   4  485.52   16.84
   1  -1   4  451.85   21.66
   1  -1   4  487.27   20.52
  -1   1  -4  471.29   16.86
   1  -1   4  484.31   17.26
   2   0   4 1631.43   56.36
  -2   0  -4 1737.70   51.28
   2   0   4 1637.06   53.75
   3   1   4  570.01   24.02
  -3  -1  -4  537.09   24.09
   3   1   4  559.18   25.61
   4   2   4  532.76   25.94
   4   2   4  443.05   22.10
  -4  -2  -4  491.66   24.83
   5   3   4   22.08    8.13
   5   3   4   24.62    7.88
  -5  -3  -4   31.40    9.97
  -6  -4  -4   90.39   16.06
   6   4   4  106.28   15.57
   6   4   4   85.91   11.49
   7   7  -5   -2.89    7.42
   6   6  -5   61.90   13.55
   5   5  -5  119.60   14.84
  -5  -5   5  108.90   11.39
  -4  -4   5  223.00   12.80
  -4  -4   5  217.54   12.32
  -4  -4   5  246.18   10.93
   3   3  -5  154.05    8.00
  -3  -3   5  140.05    8.25
   3   3  -5  160.39    8.15
  -3  -3   5  145.42    8.30
   3   3  -5  147.22    9.49
  -3  -3   5  161.03    9.35
   2   2  -5    9.33    2.70
  -2  -2   5    2.82    4.16
  -2  -2   5    6.54    2.58
   2   2  -5    9.41    2.70
  -2  -2   5   11.16    2.77
  -1  -1   5 1043.21   35.39
  -1  -1   5 1061.09   31.32
  -1  -1   5  995.13   30.97
  -1  -1   5  991.27   30.34
   0   0   5  403.45   16.65
   0   0   5  416.73   19.54
   0   0  -5  376.88   16.05
   0   0   5  383.70   18.47
  -1  -1  -5  390.93   18.62
   1   1   5  401.80   19.57
   1   1   5  380.69   19.20
  -2  -2  -5  240.48   16.50
   2   2   5  272.46   16.59
   2   2   5  285.58   16.88
   3   3   5   64.38   10.25
  -3  -3  -5   56.55   11.50
   3   3   5   41.48    8.82
   4   4   5  293.73   18.54
  -4  -4  -5  221.07   21.54
   4   4   5  264.56   19.32
   5   5   5   60.31   12.85
  -5  -5  -5   74.29   16.85
   8   6  -6    3.66    8.71
   7   5  -6   23.72    9.85
  -7  -5   6   16.55    8.21
  -7  -5   6   15.70    8.26
  -6  -4   6  127.93   12.78
   6   4  -6  100.04   13.75
  -6  -4   6  116.79   11.95
  -5  -3   6  836.34   31.22
  -5  -3   6  825.13   30.44
  -5  -3   6  883.24   27.84
  -4  -2   6  147.71    9.85
  -4  -2   6  157.75    9.56
  -4  -2   6  168.88    9.95
  -3  -1   6  296.00   13.21
  -3  -1   6  280.22   15.13
  -3  -1   6  294.91   13.48
  -2   0   6  683.66   27.64
  -2   0   6  681.63   24.46
  -2   0   6  693.17   25.04
  -1   1   6  215.07   13.10
  -1   1   6  215.50   13.24
  -1   1   6  189.05   14.04
   1  -1  -6  204.34   12.47
   0   2   6  502.86   24.52
   0  -2  -6  491.13   23.13
   0   2   6  479.00   22.34
   1   3   6  197.48   15.19
  -1  -3  -6  200.42   15.76
   1   3   6  169.49   13.39
   2   4   6   65.48   12.30
   2   4   6   80.54   11.21
  -2  -4  -6   78.12   14.23
   3   5   6   61.90   12.94
   3   5   6   47.27   10.39
  -3  -5  -6   52.62   13.36
   4   6   6   46.17   12.69
  -9  -5   7    0.90    9.31
   9   5  -7   34.08   11.76
   8   4  -7   91.34   14.97
  -8  -4   7  117.13   15.23
  -8  -4   7   91.88   13.61
  -7  -3   7   97.79   12.48
  -7  -3   7  116.87   12.71
   7   3  -7   84.66   12.97
  -6  -2   7   34.33    7.44
  -6  -2   7   37.82    6.74
   6   2  -7   34.38    8.23
  -6  -2   7   53.31    8.62
  -5  -1   7   73.84    8.83
  -5  -1   7   85.83    9.76
  -5  -1   7   92.90    9.47
  -4   0   7  314.54   17.61
  -4   0   7  306.80   15.84
  -4   0   7  285.47   15.42
  -3   1   7  136.66   13.65
  -3   1   7  111.17   10.97
  -3   1   7  130.57   11.44
  -2   2   7  512.83   25.11
  -2   2   7  595.95   26.24
  -2   2   7  507.28   26.04
   1  -3  -7   67.22   11.74
  -1   3   7   42.45   10.49
  -1   3   7   68.14    8.92
   0   4   7   11.43    6.41
   0   4   7   22.90    9.31
   0  -4  -7   14.40    8.04
   1   5   7   18.88   10.54
  -1  -5  -7   24.97   10.53
   1   5   7   17.74    7.56
   2   6   7   -3.13    9.50
  -2  -6  -7    4.81   10.65
   2   6   7    9.12    8.14
 -10  -4   8   31.03   12.11
   9   3  -8    4.04    7.66
  -9  -3   8    5.97    8.23
  -9  -3   8   11.70    8.65
   8   2  -8  137.59   15.25
  -8  -2   8  130.24   14.12
  -8  -2   8  150.93   15.68
   7   1  -8  100.11   12.11
  -7  -1   8  103.94   12.05
  -7  -1   8   99.86   12.72
  -7  -1   8   91.08   11.41
  -6   0   8  363.17   19.74
  -6   0   8  376.67   21.14
  -6   0   8  373.02   19.83
  -5   1   8  352.27   19.98
  -5   1   8  382.01   20.16
  -5   1   8  408.56   22.79
  -4   2   8   20.68    6.95
  -4   2   8   12.10    6.78
  -4   2   8   35.00   10.03
  -3   3   8   85.15   13.41
  -3   3   8   70.37   13.59
  -3   3   8   64.12   11.71
  -2   4   8  108.20   16.26
  -2   4   8  104.62   16.09
  -2   4   8  104.65   10.93
  -2   4   8  100.04   16.13
  -1   5   8  252.12   26.51
   1  -5  -8  294.77   23.27
  -1   5   8  336.15   24.89
   0   6   8    0.85   10.57
   0  -6  -8   -1.11    8.94
   0   6   8   11.50   12.43
  10   2  -9    3.45    7.09
 -10  -2   9    1.81    7.91
 -10  -2   9   -6.56    7.46
  -9  -1   9   43.17   10.80
   9   1  -9   17.35    8.01
  -9  -1   9   19.02    8.51
   8   0  -9   83.30   11.09
  -8   0   9  103.48   13.95
  -8   0   9   96.61   13.23
  -8   0   9  116.40   14.70
  -7   1   9   31.34    8.60
  -7   1   9   14.78    7.81
  -7   1   9   23.44    9.95
   7  -1  -9   15.78    5.78
  -6   2   9  326.34   22.54
  -6   2   9  351.07   21.38
  -6   2   9  318.24   20.29
  -5   3   9   70.00   14.05
  -5   3   9   54.53   11.28
  -5   3   9   64.26   11.79
  -4   4   9   29.35   10.47
  -4   4   9   37.38   11.57
  -4   4   9   54.53   13.67
  -3   5   9   17.89   12.47
  -3   5   9   12.08   10.70
  -3   5   9   23.47   12.56
  -2   6   9    4.55   12.25
  -2   6   9   15.72   13.77
  -2   6   9    7.43   11.94
 -10   0  10   -4.02    7.07
 -10   0  10    4.42    8.33
  -9   1  10   55.30   13.68
  -9   1  10   45.96   11.82
  -9   1  10   57.06   12.31
  -8   2  10   48.89   14.15
  -8   2  10   32.71   10.34
  -8   2  10   30.76    9.66
  -7   3  10    4.92   10.64
  -7   3  10   11.21    7.81
  -7   3  10   12.83    8.40
  -6   4  10   80.59   17.65
  -6   4  10   78.83   13.82
  -6   4  10   58.31   12.87
  -5   5  10   10.80    9.77
  -5   5  10   -1.76    8.32
  -5   5  10    4.93   11.24
   8  -6  -1   11.84   11.21
  -8   6   1    6.57    7.94
   9  -5  -1    4.04   10.11
  -9   5   1   21.14    9.66
  -9   5   1   14.37    8.48
 -10   4   1    9.12    9.10
  -6   6   0   16.57    6.87
  -6   6   0   22.08    7.71
   6  -6   0   21.76   11.07
   7  -5   0   -4.96    7.25
  -7   5   0    1.89    6.19
  -7   5   0   -5.59    5.69
   8  -4   0   44.68   12.39
  -8   4   0   38.38    9.83
  -8   4   0   57.17   11.23
   8  -4   0   38.29   10.77
   9  -3   0    9.83    8.76
  -9   3   0    5.28    7.61
  -9   3   0   -4.69    6.81
   9  -3   0    6.40    9.21
  10  -2   0    3.12    9.36
 -10   2   0   15.84    9.38
 -10   2   0   14.57    9.69
  10  -2   0   11.47   10.00
   3  -7   1  175.71   20.32
   4  -6   1   16.17    9.73
  -4   6  -1   22.16    6.34
  -4   6  -1    7.62    5.35
  -5   5  -1   -2.09    4.42
   5  -5   1    3.82    8.02
  -5   5  -1   -0.53    4.57
  -6   4  -1   -0.02    5.10
  -6   4  -1    5.81    5.60
   6  -4   1   -7.15    6.59
  -7   3  -1   10.95    6.75
   7  -3   1   -1.41    6.31
  -7   3  -1   10.33    6.84
   7  -3   1    9.40    7.47
   8  -2   1   -5.44    6.88
   8  -2   1   -8.29    6.21
  -8   2  -1    6.87    6.95
  -8   2  -1   -4.76    5.37
  -9   1  -1   56.42   12.90
   9  -1   1   26.16   10.52
   9  -1   1   44.52   11.62
  -9   1  -1   23.33    9.25
 -10   0  -1   -3.99    8.45
  10   0   1    6.18    9.27
  10   0   1   -6.43    7.95
 -10   0  -1   -1.07    8.84
   0   8  -2   23.43    9.41
   1  -7   2   77.94   14.04
   2  -6   2  419.36   25.01
  -2   6  -2  395.70   16.91
  -2   6  -2  396.86   16.74
  -3   5  -2  147.82    9.20
   3  -5   2  146.03   16.08
  -3   5  -2  124.58    8.82
  -4   4  -2  280.46   13.88
   4  -4   2  258.09   18.46
  -4   4  -2  260.22   13.37
   5  -3   2  105.29   12.95
  -5   3  -2  117.54   10.40
   5  -3   2   83.65   12.85
  -5   3  -2  104.45   10.41
   6  -2   2   90.51   12.65
  -6   2  -2  121.19   12.66
   6  -2   2  118.14   14.15
  -6   2  -2  109.31   11.83
  -7   1  -2   31.94    9.16
   7  -1   2   57.50   11.19
  -7   1  -2   42.87   10.11
   7  -1   2   43.50   10.90
  -8   0  -2    1.33    7.30
  -8   0  -2   -1.04    7.16
   8   0   2    1.48    7.05
   8   0   2    5.19    7.03
   9   1   2    1.13    8.20
  -9  -1  -2   12.97    9.26
  -9  -1  -2    5.11    8.41
   9   1   2  -13.16    6.63
   2   8  -3   34.96   10.58
   1   7  -3    6.62    6.79
   0  -6   3  239.55   17.13
  -1   5  -3  413.00   14.45
  -1   5  -3  410.80   14.17
   1  -5   3  418.55   22.66
  -2   4  -3  376.50   14.21
   2  -4   3  374.23   20.91
  -2   4  -3  396.22   13.78
  -2   4  -3  384.65   14.00
  -3   3  -3   42.82    5.59
   3  -3   3   40.94    8.73
  -3   3  -3   46.62    5.60
   3  -3   3   48.05    5.91
   4  -2   3    8.69    6.27
  -4   2  -3   10.23    4.72
   4  -2   3    8.64    6.58
  -4   2  -3   15.01    5.02
   5  -1   3  508.81   26.62
  -5   1  -3  519.31   23.88
   5  -1   3  549.47   25.81
  -5   1  -3  496.81   23.07
   6   0   3  100.55   13.92
   6   0   3   95.34   12.08
  -6   0  -3   87.30   12.17
  -6   0  -3  102.01   13.57
  -7  -1  -3   88.46   14.49
   7   1   3  101.11   13.08
  -7  -1  -3  119.60   15.94
   7   1   3  114.56   15.42
  -8  -2  -3    9.47    8.67
   8   2   3    9.93    8.11
   8   2   3   19.90    9.58
  -8  -2  -3    5.62    8.66
   4   8  -4   45.23   12.15
   3   7  -4    4.19    6.60
  -2  -6   4    2.08    6.20
  -1  -5   4    6.36    5.92
   0  -4   4   81.90   10.05
   1  -3   4 1135.10   41.08
  -2   2  -4    2.80    3.26
   2  -2   4   14.13    5.70
   2  -2   4   11.18    3.51
   2  -2   4    1.04    4.89
   2  -2   4    6.66    3.33
  -3   1  -4  569.59   22.72
  -3   1  -4  544.43   21.93
   3  -1   4  596.02   25.37
   3  -1   4  553.56   27.03
   4   0   4    6.66    6.40
  -4   0  -4   10.92    6.11
   4   0   4    7.20    5.58
  -4   0  -4   10.75    6.06
   5   1   4  231.07   17.89
  -5  -1  -4  250.43   17.19
   5   1   4  237.16   15.99
   6   2   4  247.21   16.84
   6   2   4  211.74   18.26
  -6  -2  -4  253.48   20.20
   7   3   4    5.87    8.46
  -7  -3  -4   11.92    9.72
   7   3   4   17.61    8.61
   5   7  -5   54.91   13.13
   4   6  -5    3.96    7.50
  -3  -5   5   64.21    7.20
  -3  -5   5  107.97    9.59
  -2  -4   5   64.64    8.20
  -1  -3   5  676.20   26.72
   0  -2   5  449.23   20.28
   0  -2   5  436.13   13.54
   0  -2   5  440.31   13.58
   0  -2   5  433.50   13.85
   0  -2   5  453.67   13.85
  -1   1  -5  387.26   15.32
   1  -1   5  366.08   18.65
   1  -1   5  375.95   15.13
   1  -1   5  377.46   15.60
   2   0   5  234.59   14.65
  -2   0  -5  230.69   13.40
   2   0   5  230.65   15.63
  -3  -1  -5   29.27    7.85
   3   1   5   25.05    7.29
   3   1   5   17.35    6.25
  -4  -2  -5   66.85   12.33
   4   2   5   60.45   10.34
   4   2   5   52.67   10.68
  -5  -3  -5   17.05    9.72
   5   3   5   11.33    7.56
   5   3   5   19.08    8.04
   6   4   5   56.76   12.85
  -6  -4  -5   52.19   14.08
   6   4   5   55.45   11.33
   6   6  -6   57.89   13.05
   5   5  -6   10.89    7.42
  -4  -4   6  520.35   20.40
  -4  -4   6  501.50   20.61
  -4  -4   6  558.42   20.92
  -3  -3   6  223.02   10.36
  -3  -3   6  241.94   13.13
  -3  -3   6  227.79   10.33
   3   3  -6  247.25    9.98
   3   3  -6  236.02   10.13
  -2  -2   6  219.52    9.46
  -2  -2   6  233.00   10.52
  -2  -2   6  238.75   13.58
  -2  -2   6  249.91    9.87
  -1  -1   6  125.97    7.37
  -1  -1   6  125.66    7.50
   0   0   6  174.97   12.70
   0   0   6  168.00   12.78
   0   0  -6  161.65   10.45
  -1  -1  -6  216.99   14.30
   1   1   6  230.27   15.57
   1   1   6  204.53   14.80
  -2  -2  -6  173.35   15.75
   2   2   6  169.70   14.21
   2   2   6  155.88   14.80
   3   3   6  133.82   14.50
  -3  -3  -6   99.51   14.61
   3   3   6  115.41   14.14
   4   4   6    5.52    7.18
   4   4   6    8.66    8.70
  -4  -4  -6   20.25   10.50
   5   5   6   13.23    9.14
  -5  -5  -6    8.88   10.72
   8   6  -7   53.60   14.39
   7   5  -7   -0.26    6.48
  -6  -4   7  473.94   22.59
   6   4  -7  492.29   28.21
  -6  -4   7  504.52   23.59
  -5  -3   7  179.62   11.62
  -5  -3   7  191.55   11.70
  -4  -2   7  265.97   12.71
  -4  -2   7  242.42   12.49
  -3  -1   7  128.94    9.09
  -3  -1   7  128.37   11.94
  -3  -1   7  137.20    9.03
  -2   0   7    7.95    4.35
  -2   0   7    9.40    4.30
  -2   0   7    7.38    5.88
  -1   1   7  307.88   19.18
   1  -1  -7  308.40   16.94
  -1   1   7  330.79   18.28
  -1   1   7  309.78   17.24
   0  -2  -7  346.92   20.29
   0   2   7  380.67   22.05
   0   2   7  368.35   20.13
   1   3   7   34.32    8.72
   1   3   7   25.01    9.30
  -1  -3  -7   18.77    8.27
  -2  -4  -7   -3.60    6.60
   2   4   7    7.44    8.43
   2   4   7   10.68    7.49
   3   5   7   -3.68    7.19
   3   5   7    6.21    9.03
  -3  -5  -7    7.00    9.58
   8   4  -8    4.66    6.97
  -8  -4   8    7.86    7.77
  -8  -4   8   10.18    8.61
  -7  -3   8  150.21   14.36
   7   3  -8  103.93   14.09
  -7  -3   8  128.37   13.27
  -6  -2   8  443.98   21.32
  -6  -2   8  453.13   21.72
  -6  -2   8  467.08   21.04
  -5  -1   8  367.93   19.96
  -5  -1   8  398.69   19.18
  -5  -1   8  365.06   18.29
  -4   0   8  863.92   32.88
  -4   0   8  916.23   32.74
  -4   0   8  835.88   35.05
  -3   1   8  631.98   26.18
  -3   1   8  614.24   29.00
  -3   1   8  568.75   26.07
  -2   2   8  107.80   13.11
  -2   2   8  133.05   14.64
  -2   2   8  119.65   14.63
  -1   3   8    0.14    7.68
   1  -3  -8    6.47    7.62
  -1   3   8    6.35    8.52
  -1   3   8    3.31    5.89
   0  -4  -8    4.99    8.46
   0   4   8    2.46    9.00
   0   4   8   -0.97    5.97
   1   5   8   -4.54    7.29
   1   5   8    0.91    9.12
  -1  -5  -8   -5.51    8.13
  -9  -3   9   90.42   14.55
   9   3  -9   57.81   12.56
  -9  -3   9   80.44   13.73
  -8  -2   9    8.13    7.25
  -8  -2   9    8.55    7.60
   8   2  -9   10.90    7.37
   7   1  -9   23.83    8.02
  -7  -1   9   25.60    8.30
  -7  -1   9   21.60    7.41
  -7  -1   9   22.72    9.36
  -6   0   9  152.57   14.53
  -6   0   9  151.20   15.98
  -6   0   9  154.60   13.96
  -5   1   9   16.51    7.12
  -5   1   9   26.31    9.81
  -5   1   9   39.42    8.79
  -4   2   9 1503.46   53.63
  -4   2   9 1470.32   54.27
  -4   2   9 1500.07   57.49
  -3   3   9   12.96    8.89
  -3   3   9    6.74    7.87
  -3   3   9    5.35    9.37
  -2   4   9   43.67   12.91
  -2   4   9   42.71   12.68
  -2   4   9   16.71   10.48
  -1   5   9   15.67   11.94
  -1   5   9   28.10   13.11
  -1   5   9   30.33   13.12
 -10  -2  10   -3.95    8.19
  10   2 -10    4.17    8.29
   9   1 -10   22.42    9.15
  -9  -1  10   57.95   12.15
  -9  -1  10   37.45   10.73
  -8   0  10   33.85   11.67
  -8   0  10   25.35    9.03
   8   0 -10   34.25    8.89
  -8   0  10   30.72    8.74
  -7   1  10   13.11    7.37
  -7   1  10    3.97    9.44
  -7   1  10    8.31    7.24
  -6   2  10    0.00    6.00
  -6   2  10   31.17    9.34
  -6   2  10   12.07   10.12
  -5   3  10  102.93   17.03
  -5   3  10   75.63   13.24
  -5   3  10   96.29   14.61
  -4   4  10   45.74   12.98
  -4   4  10   68.90   16.18
  -3   5  10   22.07   12.54
  -3   5  10   25.07   12.07
  -3   5  10   29.10   13.53
 -10   0  11    9.96    8.63
  -9   1  11   -1.47    6.80
  -9   1  11  -11.26    9.59
  -9   1  11   14.58    8.27
  -8   2  11   17.39    9.40
  -8   2  11   -2.99    7.15
  -8   2  11   -1.83   11.05
  -7   3  11   23.40    9.64
  -7   3  11    3.25    8.52
  -7   3  11   -1.76   10.76
  -6   4  11   36.71   15.18
  -6   4  11   11.81   11.05
  -6   4  11   17.55   10.30
  -9   5   0    6.80    8.88
   5  -7   1   33.90   13.73
   6  -6   1  -11.50    7.85
  -7   5  -1    1.37    6.52
  -7   5  -1    6.02    6.42
   7  -5   1    6.73    8.96
   8  -4   1   13.06    9.74
   8  -4   1   -1.18    8.14
  -8   4  -1    7.98    7.36
  -8   4  -1   11.28    7.90
  -9   3  -1   12.58    8.44
  -9   3  -1    1.79    7.98
   9  -3   1    7.77    9.25
   9  -3   1    7.91    8.80
  10  -2   1  -14.78    8.40
 -10   2  -1    4.42    9.06
  10  -2   1   -2.30    9.28
   3  -7   2   64.90   15.00
   4  -6   2  167.79   19.69
  -5   5  -2  177.59   12.42
  -5   5  -2  177.01   12.20
   5  -5   2  179.45   19.43
  -6   4  -2  117.92   12.41
   6  -4   2  104.16   16.04
  -6   4  -2  114.34   11.73
   7  -3   2   16.70    8.83
   7  -3   2    9.29    8.56
  -7   3  -2    4.42    6.51
  -7   3  -2   18.01    7.68
   8  -2   2   40.83   11.56
  -8   2  -2   48.39   11.17
   8  -2   2   45.61   11.39
  -8   2  -2   39.14   10.48
   9  -1   2   -5.32    8.03
   9  -1   2   -0.24    8.33
  -9   1  -2   -0.34    7.95
  -9   1  -2   13.21    8.83
 -10   0  -2   -7.92    8.39
  10   0   2   -0.45    9.05
   0   8  -3    5.91    7.81
   1  -7   3   54.80   12.76
   2  -6   3  338.07   22.75
  -3   5  -3  510.62   18.83
  -3   5  -3  509.78   19.21
   3  -5   3  513.76   28.06
   4  -4   3   61.88   12.00
  -4   4  -3   68.69    7.89
  -4   4  -3   70.40    7.73
  -5   3  -3  156.77   11.59
  -5   3  -3  133.19   11.60
   5  -3   3  176.85   17.11
   5  -3   3  138.99   15.67
   6  -2   3   18.61    8.63
  -6   2  -3   35.07    8.49
  -6   2  -3   21.12    7.47
   6  -2   3   10.78    7.87
  -7   1  -3   85.67   13.13
  -7   1  -3   93.92   13.87
   7  -1   3   93.55   13.84
   7  -1   3   90.93   14.68
  -8   0  -3   17.25    9.49
  -8   0  -3    7.35    8.54
   8   0   3    8.81    8.00
   8   0   3   22.34    9.90
   9   1   3   20.62    9.82
  -9  -1  -3   13.02   10.00
   9   1   3    6.70    9.90
  -9  -1  -3   21.73   11.46
   2   8  -4   51.08   12.56
  -1  -7   4   -3.07    7.18
   0  -6   4    8.63    7.03
   1  -5   4  144.62   15.15
  -2   4  -4  111.32    5.98
   2  -4   4  116.32   13.89
  -2   4  -4  111.31    5.80
   3  -3   4   55.66   10.37
  -3   3  -4   46.44    6.12
  -3   3  -4   50.89    5.99
   3  -3   4   61.89    6.44
   4  -2   4  530.21   27.71
  -4   2  -4  470.33   21.49
  -4   2  -4  509.12   21.41
   4  -2   4  554.00   26.64
  -5   1  -4  227.42   15.69
   5  -1   4  244.57   17.66
   5  -1   4  215.18   17.81
  -5   1  -4  240.06   15.71
   6   0   4  155.06   15.78
  -6   0  -4  191.91   17.30
  -6   0  -4  157.51   16.72
   6   0   4  173.22   18.19
  -7  -1  -4   10.12    7.80
   7   1   4    9.89    8.32
   7   1   4   -1.49    7.36
   8   2   4   19.09    9.89
  -8  -2  -4    7.70    9.48
   8   2   4   26.33   11.72
   3   7  -5   28.55   10.19
  -2  -6   5  131.45   13.12
  -1  -5   5  116.74   12.58
   0  -4   5   60.90    9.87
   1  -3   5  129.22   13.01
   2  -2   5  276.63   19.01
  -2   2  -5  278.54   12.53
   2  -2   5  283.27   17.18
   2  -2   5  290.10   12.45
  -3   1  -5   23.90    6.02
   3  -1   5   10.53    6.88
   3  -1   5   17.34    6.74
   4   0   5 1544.85   59.74
   4   0   5 1624.98   56.58
  -4   0  -5 1626.64   53.95
  -5  -1  -5  109.38   14.25
   5   1   5   88.59   12.33
   5   1   5  114.17   15.00
   6   2   5   -1.54    6.95
  -6  -2  -5   -0.28    7.69
   6   2   5    4.57    7.65
   7   3   5    5.44    8.72
   7   3   5    0.04    8.24
  -7  -3  -5    5.17   10.05
   5   7  -6    4.18    7.69
   4   6  -6   74.97   13.13
  -3  -5   6  191.35   13.22
  -2  -4   6  304.65   16.84
  -1  -3   6   21.80    7.01
   0  -2   6  469.84   15.70
   0  -2   6  449.28   15.87
   0  -2   6  479.25   15.69
   0  -2   6  481.02   22.38
   0  -2   6  484.52   15.49
   1  -1   6  214.93   14.58
  -1   1  -6  232.77   11.77
   1  -1   6  180.76   15.34
   2   0   6   -0.06    4.74
  -2   0  -6    0.82    4.95
   2   0   6   -2.69    5.04
   3   1   6  103.29   12.80
  -3  -1  -6  108.52   12.90
   3   1   6  106.47   13.74
  -4  -2  -6  172.44   17.72
   4   2   6  146.74   16.70
   4   2   6  122.99   13.85
   5   3   6   16.43    9.36
   5   3   6   24.44    9.59
  -5  -3  -6   16.21   10.07
  -6  -4  -6   13.99   12.02
   6   4   6   21.83   11.11
   6   6  -7   12.49    8.72
  -4  -4   7    9.68    5.95
  -3  -3   7   19.72    3.85
  -3  -3   7   21.17    4.07
  -3  -3   7   13.21    5.94
  -2  -2   7  586.39   19.52
  -2  -2   7  555.02   19.05
  -2  -2   7  562.52   24.76
  -2  -2   7  552.64   20.04
  -1  -1   7  110.30    7.51
   0   0   7   11.16    6.45
   0   0   7   14.61    7.21
   0   0  -7    9.67    4.80
   1   1   7   10.86    6.90
  -1  -1  -7   22.75    6.90
   1   1   7   23.59    7.84
  -2  -2  -7  135.33   15.02
   2   2   7  110.07   13.85
   2   2   7  144.54   15.33
   3   3   7   49.11   11.49
   3   3   7   82.01   13.52
  -3  -3  -7   68.31   13.70
  -4  -4  -7   17.97   10.54
   4   4   7   21.41   10.08
   4   4   7   12.79    8.81
   7   5  -8   73.94   14.10
   6   4  -8   54.76   11.20
  -5  -3   8  100.35    9.55
  -5  -3   8  112.08   10.31
  -5  -3   8   87.70    9.74
  -4  -2   8   13.12    4.48
  -4  -2   8   35.26    7.91
  -4  -2   8   12.69    4.28
  -3  -1   8  656.52   24.51
  -3  -1   8  661.84   24.98
  -3  -1   8  598.99   27.95
  -2   0   8  776.54   33.16
  -2   0   8  737.27   28.30
  -2   0   8  757.04   29.18
   1  -1  -8  261.16   16.22
  -1   1   8  235.39   17.44
  -1   1   8  258.60   16.43
   0  -2  -8   76.06   11.90
   0   2   8   52.20   10.94
   0   2   8   85.96   11.72
  -1  -3  -8   -2.23    6.47
   1   3   8   15.45    8.98
   1   3   8   11.02    7.07
  -2  -4  -8   47.62   12.86
   2   4   8   51.60   11.96
   3   5   8   13.48   10.43
   3   5   8   13.94    9.86
   8   4  -9   10.98    8.11
  -7  -3   9   51.46   10.06
   7   3  -9   42.56   10.61
  -7  -3   9   39.20    9.56
  -6  -2   9  369.73   19.18
  -6  -2   9  343.10   19.09
  -6  -2   9  330.30   18.34
  -5  -1   9   33.39    9.46
  -5  -1   9   48.82    8.74
  -5  -1   9   48.91    8.73
  -4   0   9   98.73   10.94
  -4   0   9  107.60   13.88
  -4   0   9  128.01   12.30
  -3   1   9  339.63   19.56
  -3   1   9  336.07   18.92
  -3   1   9  351.52   22.54
  -2   2   9  188.64   17.79
  -2   2   9  162.47   17.61
  -2   2   9  145.34   15.69
  -1   3   9  116.18   16.91
   1  -3  -9  128.22   16.13
  -1   3   9   95.50   12.82
  -1   3   9   95.04   15.12
   0   4   9   77.65   12.79
   0  -4  -9   84.05   15.77
   0   4   9   92.42   16.13
   1   5   9   -8.73    9.51
  -1  -5  -9   -6.19    8.45
   9   3 -10    0.05    6.93
   8   2 -10   46.10   11.03
  -8  -2  10   27.74    9.22
  -8  -2  10   25.95    9.47
  -7  -1  10   15.35    7.46
  -7  -1  10    7.28    6.48
  -7  -1  10    9.36    8.68
  -6   0  10   39.10    8.99
  -6   0  10   53.81   10.37
  -6   0  10   57.31   12.43
  -5   1  10  228.31   20.85
  -5   1  10  204.56   15.88
  -5   1  10  237.23   16.96
  -4   2  10   22.71    7.91
  -4   2  10    8.03    7.17
  -4   2  10   16.33   10.72
  -3   3  10  125.42   18.12
  -3   3  10  127.13   17.92
  -3   3  10  136.38   17.26
  -2   4  10   24.45   11.35
  -2   4  10   71.70   15.62
  -2   4  10   46.29   14.12
  -1   5  10   79.62   17.93
  -1   5  10   73.44   17.37
  -1   5  10   89.84   19.09
  -9  -1  11    9.02    7.79
  -9  -1  11    2.67    7.76
  -8   0  11  132.01   15.87
  -8   0  11  146.41   18.23
  -8   0  11  120.19   15.52
  -7   1  11   -5.19    8.75
  -7   1  11   -0.08    6.03
  -7   1  11    9.50    7.73
  -6   2  11   54.15   11.38
  -6   2  11   71.67   15.89
  -6   2  11   59.97   12.31
  -5   3  11   63.24   13.19
  -5   3  11   78.70   17.05
  -5   3  11   69.10   13.96
  -4   4  11   -4.40    9.33
  -4   4  11    7.47    9.82
  -4   4  11   -6.32   10.19
  -3   5  11   15.78   12.92
  -8   2  12    8.20    8.78
  -7   3  12   29.23   10.76
   5  -7   2   48.57   15.47
   6  -6   2   14.81   11.46
   7  -5   2    7.54    9.51
   8  -4   2   26.59   10.76
  -8   4  -2   15.27    8.43
   8  -4   2   32.36   11.99
  -8   4  -2   19.32    9.12
   9  -3   2    7.82   10.06
  -9   3  -2   -4.96    7.08
   9  -3   2    6.82   10.67
  -9   3  -2   11.95    9.28
   2  -8   3   -7.81   10.07
   3  -7   3   30.94   12.74
   4  -6   3   71.80   15.24
   5  -5   3   25.41   11.52
   6  -4   3   69.32   13.83
  -6   4  -3   69.31   10.48
  -6   4  -3   67.59   10.09
  -7   3  -3   58.55   10.87
   7  -3   3   42.39   11.76
   7  -3   3   21.07    9.49
  -7   3  -3   41.13    9.76
   8  -2   3    7.49    9.17
   8  -2   3   12.73    9.26
  -8   2  -3   10.56    8.50
  -8   2  -3    5.40    7.84
   9  -1   3   18.74   10.69
  -9   1  -3   14.70   10.85
   9  -1   3   10.36   10.67
  -9   1  -3   18.03    9.97
   1  -7   4   43.79   12.35
   2  -6   4   25.90   10.39
   3  -5   4   37.19   11.36
   4  -4   4   69.33   12.95
  -4   4  -4   78.32    8.50
  -4   4  -4   81.76    8.19
  -5   3  -4   25.94    7.27
   5  -3   4    5.94    8.23
   5  -3   4   24.04   10.09
  -5   3  -4   27.07    7.27
  -6   2  -4  231.72   16.50
   6  -2   4  258.30   19.93
   6  -2   4  183.67   19.79
  -6   2  -4  231.55   16.60
   7  -1   4   -1.63    8.03
  -7   1  -4    3.15    7.16
   7  -1   4    4.45    8.18
  -7   1  -4    1.77    7.35
  -8   0  -4   25.66   11.54
  -8   0  -4   28.21   10.70
   8   0   4   20.50   10.46
   8   0   4   42.49   12.06
   2   8  -5   33.33   11.18
  -1  -7   5   38.94   11.33
   0  -6   5    7.89    8.98
   1  -5   5  126.61   15.05
   2  -4   5   84.18   12.73
  -3   3  -5   56.17    6.40
   3  -3   5   45.05   10.53
   4  -2   5   45.53   11.22
  -4   2  -5   44.69    7.96
   4  -2   5   42.58    9.98
  -5   1  -5  110.93   12.80
   5  -1   5   97.93   13.78
   5  -1   5   80.86   13.85
   6   0   5  107.14   16.63
  -6   0  -5   99.75   14.07
   6   0   5  112.84   14.91
   7   1   5   30.61   10.46
   7   1   5   11.86   10.29
  -7  -1  -5   23.41   10.58
   8   2   5   23.49   12.52
  -2  -6   6   93.43   12.57
  -1  -5   6   26.15    8.64
   0  -4   6   24.89    8.09
   1  -3   6  194.35   15.50
   2  -2   6  164.19    9.90
   2  -2   6  182.34   14.79
  -2   2  -6  169.63    9.98
  -3   1  -6  105.75   10.87
   3  -1   6  111.68   13.00
   3  -1   6  104.89   14.47
   4   0   6   -1.23    6.19
  -4   0  -6    6.61    6.74
   4   0   6   -3.56    5.43
   5   1   6   20.76    8.99
  -5  -1  -6   17.64    9.05
   5   1   6   19.80    9.44
   6   2   6   29.61   11.18
   6   2   6   38.62   11.21
  -6  -2  -6   48.11   12.63
  -3  -5   7   35.97    9.08
  -2  -4   7  153.59   13.99
  -1  -3   7   48.18    9.67
   0  -2   7  434.55   22.18
   0  -2   7  396.23   14.55
   0  -2   7  385.49   14.73
   1  -1   7   33.32    8.64
  -1   1  -7   28.56    6.13
   1  -1   7   31.03    8.99
  -2   0  -7   -0.18    5.30
   2   0   7    0.19    5.90
   2   0   7    5.87    6.27
  -3  -1  -7   -4.25    6.27
   3   1   7   -5.38    5.26
   3   1   7   10.04    7.15
  -4  -2  -7   18.01    9.57
   4   2   7   11.78    8.47
   4   2   7    9.47    8.02
   5   3   7   48.81   12.83
   5   3   7   42.74   11.74
  -5  -3  -7   43.06   12.71
   6   6  -8    6.15    8.04
  -4  -4   8  397.26   20.41
  -3  -3   8   67.43    9.93
  -2  -2   8  156.75    8.94
  -2  -2   8  154.52    8.81
  -2  -2   8  136.38   13.58
  -1  -1   8  225.22   16.52
   0   0   8   64.62   11.10
   0   0  -8   97.30   10.45
   0   0   8   60.72   10.94
  -1  -1  -8    4.40    6.32
   1   1   8    1.03    6.49
   1   1   8    2.37    6.24
  -2  -2  -8   12.88    8.95
   2   2   8  -11.01    5.67
   2   2   8   11.71    8.65
  -3  -3  -8   -1.80    8.09
   3   3   8   10.98    9.00
   3   3   8    4.92    8.06
  -4  -4  -8    3.46    9.93
   4   4   8    9.64   10.18
   4   4   8    4.80    9.46
   7   5  -9    3.65    7.83
  -5  -3   9   50.44    9.57
  -4  -2   9 1670.64   57.72
  -4  -2   9 1667.69   52.66
  -4  -2   9 1684.31   51.69
  -3  -1   9  357.72   17.82
  -3  -1   9  381.53   17.83
  -3  -1   9  383.99   22.02
  -2   0   9   17.65    6.48
  -2   0   9   12.20    7.70
  -2   0   9    3.08    5.07
  -1   1   9  189.70   18.25
  -1   1   9  149.82   15.01
  -1   1   9  140.82   14.36
   0   2   9   22.73    8.65
   0  -2  -9   12.77    7.73
   0   2   9   31.27   10.58
   1   3   9   56.83   12.09
  -1  -3  -9   90.18   15.05
   1   3   9   86.92   15.60
   2   4   9   57.17   13.97
   2   4   9   27.92   10.73
  -2  -4  -9   14.69   10.08
   8   4 -10   13.65    9.20
  -6  -2  10   39.61    8.63
  -6  -2  10   33.84    9.43
  -6  -2  10   46.88    9.15
  -5  -1  10  219.33   15.14
  -5  -1  10  255.27   16.17
  -5  -1  10  237.42   18.05
  -4   0  10  299.00   17.73
  -4   0  10  292.75   20.80
  -4   0  10  333.81   18.86
  -3   1  10  192.14   15.46
  -3   1  10  221.32   20.71
  -3   1  10  223.74   16.11
  -2   2  10   14.66    9.59
  -2   2  10    8.82    7.94
  -2   2  10    9.01    8.10
  -1   3  10   63.94   13.84
  -1   3  10   52.56   11.19
  -1   3  10   66.66   14.95
  -1   3  10   75.04   15.65
   0   4  10   52.16   13.91
   0  -4 -10   69.31   15.61
   0   4  10   66.57   15.96
   8   2 -11    2.60    7.44
  -7  -1  11   11.31    7.73
  -7  -1  11   -0.64    6.55
  -7  -1  11    3.27    8.53
  -6   0  11   14.29   10.15
  -6   0  11    8.08    6.97
  -6   0  11   -4.96    5.72
  -5   1  11  201.77   16.29
  -5   1  11  196.78   16.23
  -5   1  11  173.63   20.28
  -4   2  11   24.27    8.95
  -4   2  11    9.47    7.76
  -4   2  11   35.04   12.48
  -3   3  11  320.35   23.88
  -3   3  11  250.32   25.13
  -3   3  11  258.51   24.50
  -2   4  11  103.70   18.99
  -2   4  11   74.07   16.54
  -2   4  11  110.98   18.68
  -8   0  12    3.62    8.14
  -8   0  12   -1.89    6.59
  -8   0  12    8.42   11.85
  -7   1  12   14.03    8.96
  -7   1  12   13.34    8.68
  -7   1  12    9.07   11.85
  -6   2  12   11.88   11.16
  -6   2  12   21.73    9.01
  -6   2  12   20.42    9.65
  -5   3  12   85.93   16.65
  -5   3  12   62.29   14.16
  -5   3  12  107.27   19.84
   6  -6   3   -6.93    8.84
   7  -5   3   35.22   13.26
   8  -4   3   13.58   11.35
   8  -4   3   11.14   10.33
   3  -7   4   55.04   14.77
   4  -6   4   30.39   11.42
   5  -5   4   40.04   12.89
   6  -4   4  117.24   17.42
   7  -3   4   -8.82    8.02
   7  -3   4   14.02    9.71
  -7   3  -4   16.39    8.70
   8  -2   4   24.28   11.61
  -8   2  -4   10.23    9.02
  -8   2  -4   17.46   10.08
   8  -2   4   19.19   11.07
   1  -7   5   -0.45    8.63
   2  -6   5   76.27   14.83
   3  -5   5   96.58   15.29
   4  -4   5  279.44   21.46
  -5   3  -5   19.52    7.16
   5  -3   5   25.83   10.30
   5  -3   5    9.60    9.37
  -6   2  -5   -2.01    6.32
  -6   2  -5    8.22    7.31
   6  -2   5    8.01    8.71
   6  -2   5    2.25    7.39
   7  -1   5   14.70    9.99
  -7   1  -5   29.41   10.85
   7  -1   5   19.92   10.19
  -7   1  -5   24.35   10.15
   8   0   5    7.01   10.08
   8   0   5    4.52   10.28
  -8   0  -5   10.35   10.38
   0  -6   6   30.48   11.03
   1  -5   6   29.98   10.34
   2  -4   6   68.73   12.67
   3  -3   6  101.82   14.40
   4  -2   6  127.58   16.07
  -4   2  -6  157.93   12.17
   4  -2   6  129.74   17.11
   5  -1   6   30.91   10.20
   5  -1   6   21.89   10.43
  -5   1  -6   33.43    9.44
   6   0   6    6.47    8.39
   6   0   6    3.72    8.53
  -6   0  -6   -4.13    7.54
   7   1   6   15.11   10.21
  -7  -1  -6   12.18   10.88
   7   1   6    0.63    9.12
  -2  -6   7  168.83   16.75
  -1  -5   7  264.60   18.99
   0  -4   7   31.89    9.13
   1  -3   7   35.67    9.86
  -2   2  -7  142.55    9.88
   2  -2   7  146.75   15.55
   3  -1   7   -1.48    5.99
  -3   1  -7    2.16    5.70
   3  -1   7    6.51    6.77
  -4   0  -7   -5.05    6.29
   4   0   7    3.99    7.23
   4   0   7    3.34    7.68
   5   1   7   44.41   11.09
   5   1   7   68.71   14.73
  -5  -1  -7   54.80   12.69
   6   2   7   55.61   13.18
   6   2   7   11.31    9.80
  -6  -2  -7   22.27   11.68
  -3  -5   8  595.94   28.23
  -2  -4   8  102.72   13.38
  -1  -3   8    1.72    6.56
   0  -2   8   75.59    6.74
   0  -2   8   85.05   12.54
   0  -2   8   72.74    6.81
   1  -1   8    5.06    7.01
  -1   1  -8    1.00    4.81
  -2   0  -8  358.28   20.28
   2   0   8  392.05   25.47
   2   0   8  357.75   23.07
  -3  -1  -8   24.13    9.30
   3   1   8   29.98   10.72
   3   1   8   24.78    9.28
   4   2   8   13.01    9.59
  -4  -2  -8   -1.45    8.33
   4   2   8   -7.39    6.96
   5   3   8  -11.60    8.54
   6   6  -9   26.14   11.28
  -4  -4   9   41.72    9.61
  -3  -3   9    4.18    7.32
  -2  -2   9  196.27   16.00
  -1  -1   9  172.41   17.19
   0   0  -9  641.39   28.06
   0   0   9  683.47   32.95
  -1  -1  -9   61.74   11.41
   1   1   9   17.48    8.83
   1   1   9   55.85   12.16
  -2  -2  -9    8.87    8.20
   2   2   9   19.42   10.23
   2   2   9   26.24   10.42
   3   3   9    7.18    9.80
  -3  -3  -9   -8.35    8.80
   3   3   9    1.73    8.28
   7   5 -10   15.59    9.02
  -5  -3  10   92.25   12.24
  -4  -2  10    2.23    7.48
  -3  -1  10  212.64   17.84
  -3  -1  10  227.36   14.16
  -3  -1  10  220.86   13.98
  -2   0  10   64.37   10.07
  -2   0  10   72.71   10.50
  -2   0  10   55.29   11.86
  -1   1  10  128.80   16.89
  -1   1  10  130.09   14.77
  -1   1  10  137.58   15.32
   0   2  10    4.15    8.04
   0  -2 -10   18.56    9.45
   0   2  10    7.53    8.22
   1   3  10   30.05   12.50
  -1  -3 -10   24.35   10.89
   1   3  10   28.64   10.64
  -6  -2  11   60.26   12.55
  -5  -1  11  197.52   15.00
  -5  -1  11  210.62   15.37
  -5  -1  11  191.20   18.98
  -4   0  11    0.73    9.02
  -4   0  11    6.12    5.95
  -4   0  11   -2.97    5.42
  -3   1  11  239.90   17.40
  -3   1  11  203.30   16.49
  -3   1  11  159.13   19.28
  -2   2  11   87.68   16.68
  -2   2  11   88.61   14.24
  -2   2  11   99.05   15.42
  -1   3  11    8.89    9.68
  -1   3  11   14.76   10.95
  -1   3  11    5.27   10.11
   8   2 -12    7.51    8.47
  -7  -1  12   20.19   11.47
  -6   0  12    1.21    6.99
  -6   0  12   -3.61    9.79
  -6   0  12   -4.72    6.58
  -5   1  12   -7.67    9.62
  -5   1  12    9.68    8.29
  -5   1  12   14.69    7.75
  -4   2  12   25.59   10.02
  -4   2  12   16.11    9.28
  -4   2  12   10.66   12.27
  -3   3  12   84.07   16.80
  -3   3  12  105.32   19.26
  -3   3  12  125.74   19.05
   3  -7   5   19.74   12.08
   4  -6   5   38.24   13.34
   5  -5   5   62.18   15.05
   6  -4   5   64.15   14.24
   7  -3   5    5.90    9.55
   7  -3   5    2.14    9.74
   8  -2   5   15.23   11.93
   1  -7   6   73.27   15.72
   2  -6   6   77.84   15.63
   3  -5   6   66.25   14.58
   4  -4   6   24.10   10.91
   5  -3   6   15.15    9.63
   5  -3   6   29.92   11.28
   6  -2   6   68.96   14.57
   6  -2   6   49.23   14.90
   7  -1   6   -3.26    9.10
   7  -1   6   11.43   10.46
  -7   1  -6    1.47    8.71
   0  -6   7   18.26   11.07
   1  -5   7   19.22   10.27
   2  -4   7    5.54    8.92
   3  -3   7   60.20   12.69
   4  -2   7   10.20    8.38
   4  -2   7    4.75    8.69
   5  -1   7   65.97   13.62
  -5   1  -7   79.39   12.88
   5  -1   7   55.29   13.83
   6   0   7   61.26   15.07
   6   0   7   42.23   12.77
  -6   0  -7   38.07   12.16
  -1  -5   8  335.24   22.64
   0  -4   8   12.34    8.53
   1  -3   8   -7.64    7.34
   2  -2   8   13.09    8.89
   3  -1   8   23.66    9.51
  -3   1  -8   33.95    8.71
   3  -1   8   19.72    9.87
   4   0   8   12.33    9.36
  -4   0  -8    5.49    8.31
   4   0   8    3.25    8.45
   5   1   8   92.71   17.79
  -5  -1  -8  104.85   16.58
   5   1   8  103.01   16.91
  -3  -5   9   29.43   10.65
  -2  -4   9   21.39    9.20
  -1  -3   9  124.58   15.51
   0  -2   9   17.82    9.07
  -1   1  -9   49.46    8.64
   1  -1   9   24.96    9.87
  -2   0  -9   92.84   12.86
   2   0   9   87.43   14.58
   2   0   9   87.75   15.22
   3   1   9    6.95    8.64
  -3  -1  -9   13.92    9.41
   3   1   9    6.26    9.22
  -4  -2  -9   25.04   12.11
   4   2   9   19.15   11.25
   4   2   9    7.10    9.86
  -4  -4  10   80.99   13.19
  -3  -3  10  160.06   16.57
  -2  -2  10   23.04    9.37
  -1  -1  10  119.78   16.10
   0   0  10   23.82    7.91
   0   0  10    7.37    8.76
   1   1  10  194.81   20.53
   1   1  10  171.14   19.18
  -1  -1 -10  178.55   17.47
  -2  -2 -10    6.14    8.83
   2   2  10    7.83    9.61
   2   2  10   -6.14    7.67
  -5  -3  11   80.45   13.26
  -4  -2  11   21.17   10.17
  -3  -1  11  197.54   19.47
  -2   0  11    6.97    6.06
  -2   0  11   10.64    7.10
  -2   0  11   -4.73    7.76
  -1   1  11   81.75   13.54
  -1   1  11   58.94   13.43
  -1   1  11   65.43   12.49
   0   2  11   30.53   11.07
   0   2  11   41.25   12.13
   0  -2 -11   32.14   11.31
  -5  -1  12    4.62    9.32
  -4   0  12   16.43    9.88
  -4   0  12   28.23    9.21
  -4   0  12   27.64    8.71
  -3   1  12   84.29   16.95
  -3   1  12   83.07   13.36
  -2   2  12   12.70   11.74
  -2   2  12   19.94   10.49
  -2   2  12   24.53   10.97
  -5   1  13   18.37    8.73
   5  -5   6   31.50   13.37
   6  -4   6    6.79   10.16
   2  -6   7    7.09   10.77
   3  -5   7    4.82   10.26
   4  -4   7   16.60   11.33
   5  -3   7   36.16   12.59
   6  -2   7   39.63   13.47
   6  -2   7   32.69   12.27
   0  -6   8    0.20    9.70
   1  -5   8   10.15   10.24
   2  -4   8   91.74   16.47
   3  -3   8   13.32   10.14
   4  -2   8   10.59   10.53
   4  -2   8   -0.85    8.81
   5  -1   8   67.00   15.60
   5  -1   8   73.72   15.44
  -1  -5   9   28.80   11.39
   0  -4   9   84.72   14.82
   1  -3   9   67.62   14.25
   2  -2   9   16.19   10.17
   3  -1   9    9.10    9.85
   3  -1   9   24.37   10.88
   4   0   9    9.96    9.89
   4   0   9    0.66    9.38
  -2  -4  10   34.25   11.47
  -1  -3  10   70.61   14.14
   0  -2  10    7.34    9.44
   1  -1  10  144.40   18.30
   2   0  10   51.62   13.31
   2   0  10   36.31   11.96
  -3  -1 -10   32.52   11.85
   3   1  10   16.72   11.01
   3   1  10   28.79   12.05
  -3  -3  11  280.43   21.37
  -2  -2  11   90.61   15.03
  -1  -1  11   73.37   14.29
   0   0  11   45.30   13.08
   1   1  11   66.28   15.57
  -1  -1 -11   94.46   15.32
  -4  -2  12   26.60   11.25
  -3  -1  12   72.86   15.28
  -2   0  12   10.74   10.45
  -1   1  12    5.50    8.93
  -1   1  12   -6.56    8.85
  -1   1  12    8.21    9.07
  -5  -1  13   -7.28    9.97
  -4   0  13   10.83   11.77
   3  -5   8   23.72   13.39
   4  -4   8    2.10   10.79
   1  -5   9   -0.32   10.24
   2  -4   9   31.88   12.14
   3  -3   9   -5.79    9.68
   4  -2   9   16.89   11.30
  -1  -5  10   91.21   16.96
   0  -4  10   80.27   16.41
   1  -3  10   15.71   11.60
   2  -2  10  -10.38    8.40
   3  -1  10   20.58   11.55
  -2  -4  11   82.29   15.92
  -1  -3  11   -0.84    8.93
   0  -2  11   43.22   12.77
   1  -1  11   78.17   16.03
   2   0  11    9.87   11.13
  -3  -3  12   80.08   15.80
  -2  -2  12   13.95   10.52
  -1  -1  12    8.34   10.94
   0   0  12   15.41   11.82
   0   0   0    0.00    0.00
;
_shelx_hkl_checksum              16262
loop_
_space_group_symop_operation_xyz
'x, y, z'
'-x, y, -z'
'x+1/2, y+1/2, z'
'-x+1/2, y+1/2, -z'
loop_
_atom_site_label
_atom_site_type_symbol
_atom_site_fract_x
_atom_site_fract_y
_atom_site_fract_z
_atom_site_U_iso_or_equiv
_atom_site_adp_type
_atom_site_occupancy
_atom_site_site_symmetry_order
_atom_site_calc_flag
_atom_site_refinement_flags_posn
_atom_site_refinement_flags_adp
F2 F 0.3854(4) 0.1802(4) 0.0607(3) 0.0545(8) Uani 1 1 d . .
F3 F 0.1728(3) 0.2565(4) 0.0794(2) 0.0481(7) Uani 1 1 d . .
F1 F 0.2875(4) -0.0066(4) 0.1678(3) 0.0676(9) Uani 1 1 d . .
N1 N 0.3257(4) 0.2664(5) 0.3746(3) 0.0293(8) Uani 1 1 d . .
H1N H 0.326(6) 0.161(8) 0.423(5) 0.058(17) Uiso 1 1 d . .
O1 O 0.1840(3) 0.4473(4) 0.4608(3) 0.0367(8) Uani 1 1 d . .
C1 C 0.2599(4) 0.4288(6) 0.3890(4) 0.0283(9) Uani 1 1 d . .
C2 C 0.2946(5) 0.5824(6) 0.3041(5) 0.0369(10) Uani 1 1 d . .
H2A H 0.333689 0.699883 0.359725 0.044 Uiso 1 1 calc R U
H2B H 0.201093 0.614760 0.221067 0.044 Uiso 1 1 calc R U
C3 C 0.4186(4) 0.4933(6) 0.2628(4) 0.0358(10) Uani 1 1 d . .
H3A H 0.522650 0.540044 0.323472 0.043 Uiso 1 1 calc R U
H3B H 0.399566 0.524267 0.165266 0.043 Uiso 1 1 calc R U
C4 C 0.4048(4) 0.2777(6) 0.2811(4) 0.0309(9) Uani 1 1 d . .
H4 H 0.509975 0.219160 0.325185 0.037 Uiso 1 1 calc R U
C5 C 0.3127(6) 0.1770(7) 0.1479(5) 0.0417(11) Uani 1 1 d . .
loop_
_atom_site_aniso_label
_atom_site_aniso_U_11
_atom_site_aniso_U_22
_atom_site_aniso_U_33
_atom_site_aniso_U_23
_atom_site_aniso_U_13
_atom_site_aniso_U_12
F2 0.0779(18) 0.0596(19) 0.0408(16) -0.0024(13) 0.0394(14) 0.0086(15)
F3 0.0435(13) 0.0603(18) 0.0361(13) -0.0064(13) 0.0109(11) -0.0060(14)
F1 0.126(3) 0.0334(17) 0.0579(18) -0.0099(15) 0.052(2) -0.0123(18)
N1 0.0343(16) 0.028(2) 0.0301(18) 0.0040(17) 0.0171(14) 0.0059(18)
O1 0.0479(16) 0.0333(19) 0.0395(17) -0.0009(14) 0.0286(14) 0.0055(14)
C1 0.0314(19) 0.025(2) 0.028(2) -0.0044(18) 0.0117(17) -0.0010(18)
C2 0.053(3) 0.030(2) 0.035(2) 0.001(2) 0.024(2) 0.003(2)
C3 0.035(2) 0.046(3) 0.029(2) 0.002(2) 0.0156(18) -0.008(2)
C4 0.0314(18) 0.038(2) 0.027(2) 0.003(2) 0.0160(16) 0.009(2)
C5 0.059(3) 0.038(3) 0.037(3) 0.002(2) 0.028(2) 0.004(2)
loop_
_atom_type_symbol
_atom_type_description
_atom_type_scat_dispersion_real
_atom_type_scat_dispersion_imag
_atom_type_scat_source
C C 0.0033 0.0016 'International Tables Vol C Tables 4.2.6.8 and 6.1.1.4'
H H 0.0000 0.0000 'International Tables Vol C Tables 4.2.6.8 and 6.1.1.4'
N N 0.0061 0.0033 'International Tables Vol C Tables 4.2.6.8 and 6.1.1.4'
O O 0.0106 0.0060 'International Tables Vol C Tables 4.2.6.8 and 6.1.1.4'
F F 0.0171 0.0103 'International Tables Vol C Tables 4.2.6.8 and 6.1.1.4'
loop_
_geom_angle_atom_site_label_1
_geom_angle_atom_site_label_2
_geom_angle_atom_site_label_3
_geom_angle
C1 N1 C4 114.6(4)
O1 C1 N1 124.5(4)
O1 C1 C2 126.7(4)
N1 C1 C2 108.8(3)
C1 C2 C3 104.1(4)
C2 C3 C4 104.7(3)
N1 C4 C5 110.1(3)
N1 C4 C3 103.3(3)
C5 C4 C3 113.0(3)
F1 C5 F2 107.0(4)
F1 C5 F3 106.4(4)
F2 C5 F3 106.4(4)
F1 C5 C4 112.2(4)
F2 C5 C4 111.5(4)
F3 C5 C4 112.9(4)
loop_
_geom_bond_atom_site_label_1
_geom_bond_atom_site_label_2
_geom_bond_distance
F2 C5 1.339(5)
F3 C5 1.346(5)
F1 C5 1.335(5)
N1 C1 1.329(5)
N1 C4 1.446(4)
O1 C1 1.231(4)
C1 C2 1.510(6)
C2 C3 1.526(5)
C3 C4 1.530(6)
C4 C5 1.498(6)
