#------------------------------------------------------------------------------
#$Date: 2019-12-25 02:17:55 +0200 (Wed, 25 Dec 2019) $
#$Revision: 245563 $
#$URL: file:///home/coder/svn-repositories/cod/cif/4/03/77/4037726.cif $
#------------------------------------------------------------------------------
#
# This file is available in the Crystallography Open Database (COD),
# http://www.crystallography.net/
#
# All data on this site have been placed in the public domain by the
# contributors.
#
data_4037726
loop_
_publ_author_name
'Zhi, Changlei'
'Wang, Qiuling'
'Liu, Shuang'
'Xue, Yuting'
'Shi, Linlin'
'Zhu, Xinju'
'Hao, Xin-Qi'
'Song, Mao-Ping'
_publ_section_title
;
 Cu-Catalyzed Direct C7-Sulfonylation of Indolines with Arylsulfonyl
 Chlorides.
;
_journal_name_full               'The Journal of organic chemistry'
_journal_paper_doi               10.1021/acs.joc.9b02954
_journal_year                    2019
_chemical_formula_moiety         'C19 H14 N4 O2 S'
_chemical_formula_sum            'C19 H14 N4 O2 S'
_chemical_formula_weight         362.40
_space_group_crystal_system      triclinic
_space_group_IT_number           2
_space_group_name_Hall           '-P 1'
_space_group_name_H-M_alt        'P -1'
_atom_sites_solution_hydrogens   geom
_atom_sites_solution_primary     direct
_audit_creation_date             2019-09-05
_audit_creation_method
;
Olex2 1.2
(compiled 2018.05.29 svn.r3508 for OlexSys, GUI svn.r5506)
;
_cell_angle_alpha                111.608(7)
_cell_angle_beta                 93.223(6)
_cell_angle_gamma                100.174(6)
_cell_formula_units_Z            2
_cell_length_a                   7.3315(4)
_cell_length_b                   10.8147(8)
_cell_length_c                   11.6977(9)
_cell_measurement_reflns_used    2879
_cell_measurement_temperature    293(2)
_cell_measurement_theta_max      70.9660
_cell_measurement_theta_min      4.1020
_cell_volume                     841.26(11)
_computing_cell_refinement       'CrysAlisPro 1.171.40.53 (Rigaku OD, 2019)'
_computing_data_collection       'CrysAlisPro 1.171.40.53 (Rigaku OD, 2019)'
_computing_data_reduction        'CrysAlisPro 1.171.40.53 (Rigaku OD, 2019)'
_computing_molecular_graphics    'Olex2 (Dolomanov et al., 2009)'
_computing_publication_material  'Olex2 (Dolomanov et al., 2009)'
_computing_structure_refinement  'ShelXL (Sheldrick, 2015)'
_computing_structure_solution    'ShelXS (Sheldrick, 2008)'
_diffrn_ambient_temperature      293(2)
_diffrn_detector                 'CCD plate'
_diffrn_detector_area_resol_mean 16.2312
_diffrn_detector_type            Eos
_diffrn_measured_fraction_theta_full 0.997
_diffrn_measured_fraction_theta_max 0.997
_diffrn_measurement_details
;
List of Runs (angles in degrees, time in seconds):

  # Type    Start    End  Width  t~exp~   \w     \q     \k     \f   Frames
--------------------------------------------------------------------------
  1  \w   -104.00 -11.00   1.00    1.00    --  -33.50 -37.00  90.00   93
  2  \w   -104.00 -11.00   1.00    1.00    --  -33.50 -37.00   0.00   93
  3  \w   -108.00 -32.00   1.00    1.00    --  -33.50 178.00   0.00   76
  4  \w    -34.00  59.00   1.00    1.00    --   36.47 -37.00 -60.00   93
  5  \w     57.00 110.00   1.00    1.00    --   36.47 178.00 150.00   53
  6  \w    -36.00  74.00   1.00    1.00    --   36.47 -19.00-120.00  110
  7  \w     -4.00  77.00   1.00    1.00    --   36.47 -99.00 150.00   81
  8  \w     33.00  77.00   1.00    1.00    --   36.47 -99.00   0.00   44
  9  \w     78.00 110.00   1.00    1.00    --   36.47 178.00 -90.00   32
 10  \w    -33.00  57.00   1.00    1.00    --   36.47 -37.00-180.00   90
 11  \w     -2.00  73.00   1.00    1.00    --   36.47 -99.00 -30.00   75
 12  \w     83.00 108.00   1.00    1.00    --   36.47 178.00 -30.00   25
 13  \w     38.00 110.00   1.00    1.00    --  108.00-111.00 -60.00   72
 14  \w     42.00 126.00   1.00    1.00    --  108.00 -45.00 -30.00   84
 15  \w     64.00 124.00   1.00    1.00    --  108.00 -61.00-120.00   60
 16  \w     69.00 105.00   1.00    1.00    --  108.00 -94.00  60.00   36
 17  \w     65.00 124.00   1.00    1.00    --  108.00 -45.00  30.00   59
 18  \w     71.00  98.00   1.00    1.00    --  108.00 -61.00 150.00   27
 19  \w     54.00 112.00   1.00    1.00    --  108.00-111.00-180.00   58
 20  \w     93.00 176.00   1.00    1.00    --  108.00  45.00  60.00   83
 21  \w    104.00 130.00   1.00    1.00    --  108.00 -30.00-120.00   26
 22  \w     41.00  92.00   1.00    1.00    --  108.00 -30.00-120.00   51
 23  \w     38.00 126.00   1.00    1.00    --  108.00 -45.00 120.00   88
 24  \w     52.00  87.00   1.00    1.00    --  108.00 -94.00  30.00   35
 25  \w     37.00 175.00   1.00    1.00    --  108.00   0.00  30.00  138
;
_diffrn_measurement_device       'four-circle diffractometer'
_diffrn_measurement_device_type  'Xcalibur, Eos, Gemini'
_diffrn_measurement_method       '\w scans'
_diffrn_orient_matrix_type
'CrysAlisPro convention (1999,Acta A55,543-557)'
_diffrn_orient_matrix_UB_11      0.1118482000
_diffrn_orient_matrix_UB_12      0.0783695000
_diffrn_orient_matrix_UB_13      0.1301403000
_diffrn_orient_matrix_UB_21      -0.0289524000
_diffrn_orient_matrix_UB_22      -0.1324864000
_diffrn_orient_matrix_UB_23      0.0240460000
_diffrn_orient_matrix_UB_31      0.1817350000
_diffrn_orient_matrix_UB_32      -0.0298438000
_diffrn_orient_matrix_UB_33      -0.0538583000
_diffrn_radiation_monochromator  graphite
_diffrn_radiation_probe          x-ray
_diffrn_radiation_type           CuK\a
_diffrn_radiation_wavelength     1.54184
_diffrn_reflns_av_R_equivalents  0.0210
_diffrn_reflns_av_unetI/netI     0.0300
_diffrn_reflns_Laue_measured_fraction_full 0.997
_diffrn_reflns_Laue_measured_fraction_max 0.997
_diffrn_reflns_limit_h_max       8
_diffrn_reflns_limit_h_min       -7
_diffrn_reflns_limit_k_max       12
_diffrn_reflns_limit_k_min       -12
_diffrn_reflns_limit_l_max       11
_diffrn_reflns_limit_l_min       -13
_diffrn_reflns_number            5800
_diffrn_reflns_point_group_measured_fraction_full 0.997
_diffrn_reflns_point_group_measured_fraction_max 0.997
_diffrn_reflns_theta_full        67.082
_diffrn_reflns_theta_max         67.082
_diffrn_reflns_theta_min         4.101
_diffrn_source                   'fine-focus sealed X-ray tube'
_diffrn_source_type              'Enhance (Cu) X-ray Source'
_exptl_absorpt_coefficient_mu    1.899
_exptl_absorpt_correction_T_max  1.00000
_exptl_absorpt_correction_T_min  0.95792
_exptl_absorpt_correction_type   multi-scan
_exptl_absorpt_process_details
;
CrysAlisPro 1.171.40.53 (Rigaku Oxford Diffraction, 2019)
Empirical absorption correction using spherical harmonics,
 implemented in SCALE3 ABSPACK scaling algorithm.
;
_exptl_crystal_colour            yellow
_exptl_crystal_colour_primary    yellow
_exptl_crystal_density_diffrn    1.431
_exptl_crystal_description       prism
_exptl_crystal_F_000             376
_exptl_crystal_size_max          0.13
_exptl_crystal_size_mid          0.12
_exptl_crystal_size_min          0.1
_refine_diff_density_max         0.309
_refine_diff_density_min         -0.282
_refine_diff_density_rms         0.047
_refine_ls_extinction_coef       0.0100(10)
_refine_ls_extinction_expression Fc^*^=kFc[1+0.001xFc^2^\l^3^/sin(2\q)]^-1/4^
_refine_ls_extinction_method     'SHELXL-2014/7 (Sheldrick 2014'
_refine_ls_goodness_of_fit_ref   1.051
_refine_ls_hydrogen_treatment    constr
_refine_ls_matrix_type           full
_refine_ls_number_parameters     236
_refine_ls_number_reflns         2983
_refine_ls_number_restraints     0
_refine_ls_restrained_S_all      1.051
_refine_ls_R_factor_all          0.0477
_refine_ls_R_factor_gt           0.0413
_refine_ls_shift/su_max          0.000
_refine_ls_shift/su_mean         0.000
_refine_ls_structure_factor_coef Fsqd
_refine_ls_weighting_details
'w=1/[\s^2^(Fo^2^)+(0.0742P)^2^+0.1324P] where P=(Fo^2^+2Fc^2^)/3'
_refine_ls_weighting_scheme      calc
_refine_ls_wR_factor_gt          0.1167
_refine_ls_wR_factor_ref         0.1252
_reflns_Friedel_coverage         0.000
_reflns_number_gt                2596
_reflns_number_total             2983
_reflns_threshold_expression     'I > 2\s(I)'
_iucr_refine_instructions_details
;

    201909212.res created by SHELXL-2014/7

TITL 201909212 in P-1 #2
REM reset to P-1 #2
CELL 1.54184 7.331467 10.814684 11.697683 111.6079 93.2226 100.1739
ZERR 2 0.000448 0.000768 0.000927 0.0071 0.0058 0.0055
LATT 1
SFAC C H N O S
UNIT 38 28 8 4 2
 
L.S. 4 0 0
PLAN  20
SIZE 0.1 0.12 0.13
MPLA C1 C2 C3 C4 C5 C6
MPLA N1 C7 C8
MPLA C9 C10 C11 C12 N2 N3
MPLA C13 C14 C15 C16 C17 C18
bond $h
conf
fmap 2
acta
REM <olex2.extras>
REM <HklSrc "%.\\201909212.hkl">
REM </olex2.extras>
 
WGHT    0.074200    0.132400
EXTI    0.010027
FVAR      10.62275
C1    1    0.253478    1.031669    0.966444    11.00000    0.04459    0.05256 =
         0.05661    0.01259    0.01365    0.02164
AFIX  43
H1    2    0.229004    1.115793    1.013893    11.00000   -1.20000
AFIX   0
C2    1    0.205360    0.922538    1.001290    11.00000    0.04464    0.06800 =
         0.04696    0.02133    0.01779    0.02266
AFIX  43
H2    2    0.154658    0.934358    1.074758    11.00000   -1.20000
AFIX   0
C3    1    0.232308    0.796270    0.927471    11.00000    0.03966    0.05786 =
         0.05310    0.02843    0.01548    0.01646
AFIX  43
H3    2    0.191444    0.722108    0.948702    11.00000   -1.20000
AFIX   0
C4    1    0.320450    0.777661    0.820698    11.00000    0.03567    0.04353 =
         0.04483    0.01965    0.01005    0.01566
C5    1    0.381012    0.890414    0.790088    11.00000    0.03361    0.04384 =
         0.04335    0.01851    0.00781    0.01649
C6    1    0.337814    1.015365    0.861178    11.00000    0.03765    0.04450 =
         0.05517    0.01853    0.00747    0.01693
C7    1    0.399155    1.116353    0.802924    11.00000    0.05914    0.04836 =
         0.07292    0.02940    0.01808    0.02665
AFIX  23
H7A   2    0.508870    1.183922    0.851815    11.00000   -1.20000
H7B   2    0.299986    1.162096    0.793980    11.00000   -1.20000
AFIX   0
C8    1    0.443198    1.028445    0.677563    11.00000    0.07447    0.05582 =
         0.06976    0.03897    0.02220    0.03197
AFIX  23
H8A   2    0.340364    1.008764    0.613275    11.00000   -1.20000
H8B   2    0.555297    1.073462    0.656685    11.00000   -1.20000
AFIX   0
C9    1    0.625713    0.849588    0.651786    11.00000    0.04006    0.03927 =
         0.04330    0.01792    0.00838    0.01005
C10   1    0.833226    0.723225    0.667018    11.00000    0.03772    0.05633 =
         0.06670    0.03099    0.00901    0.01694
AFIX  43
H10   2    0.878705    0.668716    0.702491    11.00000   -1.20000
AFIX   0
C11   1    0.923515    0.750615    0.576724    11.00000    0.04447    0.07679 =
         0.07653    0.03728    0.02503    0.02673
AFIX  43
H11   2    1.028492    0.716558    0.550635    11.00000   -1.20000
AFIX   0
C12   1    0.850440    0.831079    0.526941    11.00000    0.05916    0.08413 =
         0.06949    0.04420    0.03097    0.02565
AFIX  43
H12   2    0.908094    0.850994    0.465122    11.00000   -1.20000
AFIX   0
C13   1    0.486006    0.537800    0.750389    11.00000    0.03938    0.03694 =
         0.04717    0.02096    0.01109    0.01026
C14   1    0.565435    0.570195    0.870652    11.00000    0.05740    0.04733 =
         0.04924    0.01635    0.01029    0.01864
AFIX  43
H14   2    0.528659    0.636286    0.936669    11.00000   -1.20000
AFIX   0
C15   1    0.699171    0.503832    0.891686    11.00000    0.05647    0.06267 =
         0.05166    0.02717    0.00344    0.01652
AFIX  43
H15   2    0.755730    0.526489    0.971975    11.00000   -1.20000
AFIX   0
C16   1    0.749834    0.402535    0.792461    11.00000    0.03922    0.04991 =
         0.06604    0.03540    0.01360    0.01269
C17   1    0.668750    0.371139    0.673046    11.00000    0.05805    0.04981 =
         0.05577    0.02386    0.01932    0.02353
AFIX  43
H17   2    0.702910    0.303625    0.606893    11.00000   -1.20000
AFIX   0
C18   1    0.537979    0.439183    0.651641    11.00000    0.05394    0.04711 =
         0.04579    0.01887    0.00983    0.01805
AFIX  43
H18   2    0.484711    0.418964    0.571090    11.00000   -1.20000
AFIX   0
C19   1    0.885960    0.329254    0.813991    11.00000    0.05194    0.06625 =
         0.07741    0.04566    0.01765    0.02128
N1    3    0.471479    0.901920    0.691056    11.00000    0.05112    0.04667 =
         0.05052    0.02740    0.01637    0.02284
N2    3    0.682980    0.771461    0.706086    11.00000    0.04063    0.04845 =
         0.05047    0.02598    0.01094    0.01561
N3    3    0.700776    0.882067    0.562938    11.00000    0.05837    0.06447 =
         0.05662    0.03542    0.02182    0.02332
N4    3    0.988000    0.268891    0.831295    11.00000    0.07445    0.10100 =
         0.11889    0.07384    0.02611    0.04484
O1    4    0.135673    0.531136    0.744174    11.00000    0.04227    0.05388 =
         0.09369    0.03027    0.01910    0.00718
O2    4    0.296499    0.603089    0.593209    11.00000    0.05346    0.05379 =
         0.04709    0.01658    0.00242    0.02011
S1    5    0.296286    0.606854    0.716857    11.00000    0.03622    0.04132 =
         0.05283    0.01934    0.00869    0.01143
HKLF 4
 
REM  201909212 in P-1 #2
REM R1 =  0.0413 for    2596 Fo > 4sig(Fo)  and  0.0477 for all    2983 data
REM    236 parameters refined using      0 restraints
 
END  
     
WGHT      0.0741      0.1326 

REM Highest difference peak  0.309,  deepest hole -0.282,  1-sigma level  0.047
Q1    1   0.3160  0.7049  0.7795  11.00000  0.05    0.31
Q2    1   0.4054  0.5845  0.7380  11.00000  0.05    0.30
Q3    1   0.3401  0.8296  0.7990  11.00000  0.05    0.19
Q4    1   0.1531  0.4358  0.6965  11.00000  0.05    0.18
Q5    1   0.3744  0.9632  0.8398  11.00000  0.05    0.18
Q6    1   0.2574  0.7880  0.8627  11.00000  0.05    0.17
Q7    1   0.5409  0.5817  0.7938  11.00000  0.05    0.16
Q8    1   0.4540  0.9539  0.6765  11.00000  0.05    0.16
Q9    1   0.1873  0.8561  0.9592  11.00000  0.05    0.16
Q10   1   0.7505  0.7583  0.6887  11.00000  0.05    0.16
Q11   1   0.2630  1.0144  0.8980  11.00000  0.05    0.15
Q12   1   0.5925  0.5066  0.8796  11.00000  0.05    0.15
Q13   1   0.3739  0.5259  0.5365  11.00000  0.05    0.15
Q14   1   0.4436  0.4479  0.6974  11.00000  0.05    0.14
Q15   1   1.0198  0.6816  0.4709  11.00000  0.05    0.14
Q16   1   0.2959  0.5254  0.5189  11.00000  0.05    0.14
Q17   1   0.7389  0.4595  0.8373  11.00000  0.05    0.14
Q18   1   0.6147  0.7421  0.7543  11.00000  0.05    0.14
Q19   1   0.9917  0.9241  0.5133  11.00000  0.05    0.13
Q20   1   0.9658  0.3469  0.8637  11.00000  0.05    0.13

  REM The information below was added by Olex2.
  REM
  REM R1 = 0.0413 for 2596 Fo > 4sig(Fo) and 0.0477 for all 5800 data
  REM n/a parameters refined using n/a restraints
  REM Highest difference peak 0.31, deepest hole -0.28
  REM Mean Shift 0, Max Shift 0.000.

  REM +++ Tabular Listing of Refinement Information +++
  REM R1_all = 0.0477
  REM R1_gt = 0.0413
  REM wR_ref = 0.1252
  REM GOOF = 1.051
  REM Shift_max = 0.000
  REM Shift_mean = 0
  REM Reflections_all = 5800
  REM Reflections_gt = 2596
  REM Parameters = n/a
  REM Hole = -0.28
  REM Peak = 0.31
  REM Flack = n/a

  
;
_cod_data_source_file            jo9b02954_si_003.cif
_cod_data_source_block           201909212
_cod_database_code               4037726
_shelx_shelxl_version_number     2014/7
_chemical_oxdiff_formula         c20h20n4o4S1
_shelx_space_group_comment
;
The symmetry employed for this shelxl refinement is uniquely defined
by the following loop, which should always be used as a source of
symmetry information in preference to the above space-group names.
They are only intended as comments.
;
_shelx_estimated_absorpt_t_max   0.833
_shelx_estimated_absorpt_t_min   0.790
_reflns_odcompleteness_completeness 99.67
_reflns_odcompleteness_iscentric 1
_reflns_odcompleteness_theta     66.97
_olex2_refinement_description
;
1. Fixed Uiso
 At 1.2 times of:
  All C(H) groups, All C(H,H) groups
2.a Secondary CH2 refined with riding coordinates:
 C7(H7A,H7B), C8(H8A,H8B)
2.b Aromatic/amide H refined with riding coordinates:
 C1(H1), C2(H2), C3(H3), C10(H10), C11(H11), C12(H12), C14(H14), C15(H15),
 C17(H17), C18(H18)
;
_olex2_submission_special_instructions 'No special instructions were received'
_oxdiff_exptl_absorpt_empirical_details
;
Empirical correction (ABSPACK) includes:
- Absorption correction using spherical harmonics
- Frame scaling
;
_oxdiff_exptl_absorpt_empirical_full_max 1.088
_oxdiff_exptl_absorpt_empirical_full_min 0.912
loop_
_space_group_symop_operation_xyz
'x, y, z'
'-x, -y, -z'
loop_
_atom_site_label
_atom_site_type_symbol
_atom_site_fract_x
_atom_site_fract_y
_atom_site_fract_z
_atom_site_U_iso_or_equiv
_atom_site_adp_type
_atom_site_occupancy
_atom_site_site_symmetry_order
_atom_site_calc_flag
_atom_site_refinement_flags_posn
C1 C 0.2535(3) 1.0317(2) 0.9664(2) 0.0519(6) Uani 1 1 d .
H1 H 0.2290 1.1158 1.0139 0.062 Uiso 1 1 calc R
C2 C 0.2054(3) 0.9225(2) 1.0013(2) 0.0515(6) Uani 1 1 d .
H2 H 0.1547 0.9344 1.0748 0.062 Uiso 1 1 calc R
C3 C 0.2323(3) 0.7963(2) 0.9275(2) 0.0469(5) Uani 1 1 d .
H3 H 0.1914 0.7221 0.9487 0.056 Uiso 1 1 calc R
C4 C 0.3204(3) 0.7777(2) 0.82070(18) 0.0394(4) Uani 1 1 d .
C5 C 0.3810(3) 0.8904(2) 0.79009(18) 0.0385(4) Uani 1 1 d .
C6 C 0.3378(3) 1.0154(2) 0.8612(2) 0.0448(5) Uani 1 1 d .
C7 C 0.3992(4) 1.1164(2) 0.8029(2) 0.0559(6) Uani 1 1 d .
H7A H 0.5089 1.1839 0.8518 0.067 Uiso 1 1 calc R
H7B H 0.3000 1.1621 0.7940 0.067 Uiso 1 1 calc R
C8 C 0.4432(4) 1.0284(3) 0.6776(2) 0.0594(6) Uani 1 1 d .
H8A H 0.3404 1.0088 0.6133 0.071 Uiso 1 1 calc R
H8B H 0.5553 1.0735 0.6567 0.071 Uiso 1 1 calc R
C9 C 0.6257(3) 0.8496(2) 0.65179(18) 0.0399(4) Uani 1 1 d .
C10 C 0.8332(3) 0.7232(2) 0.6670(2) 0.0504(5) Uani 1 1 d .
H10 H 0.8787 0.6687 0.7025 0.061 Uiso 1 1 calc R
C11 C 0.9235(3) 0.7506(3) 0.5767(2) 0.0611(7) Uani 1 1 d .
H11 H 1.0285 0.7166 0.5506 0.073 Uiso 1 1 calc R
C12 C 0.8504(4) 0.8311(3) 0.5269(2) 0.0643(7) Uani 1 1 d .
H12 H 0.9081 0.8510 0.4651 0.077 Uiso 1 1 calc R
C13 C 0.4860(3) 0.5378(2) 0.75039(19) 0.0393(4) Uani 1 1 d .
C14 C 0.5654(3) 0.5702(2) 0.8707(2) 0.0508(5) Uani 1 1 d .
H14 H 0.5287 0.6363 0.9367 0.061 Uiso 1 1 calc R
C15 C 0.6992(3) 0.5038(3) 0.8917(2) 0.0551(6) Uani 1 1 d .
H15 H 0.7557 0.5265 0.9720 0.066 Uiso 1 1 calc R
C16 C 0.7498(3) 0.4025(2) 0.7925(2) 0.0472(5) Uani 1 1 d .
C17 C 0.6687(3) 0.3711(2) 0.6730(2) 0.0514(5) Uani 1 1 d .
H17 H 0.7029 0.3036 0.6069 0.062 Uiso 1 1 calc R
C18 C 0.5380(3) 0.4392(2) 0.6516(2) 0.0476(5) Uani 1 1 d .
H18 H 0.4847 0.4190 0.5711 0.057 Uiso 1 1 calc R
C19 C 0.8860(3) 0.3293(3) 0.8140(2) 0.0584(6) Uani 1 1 d .
N1 N 0.4715(2) 0.90192(18) 0.69106(16) 0.0448(4) Uani 1 1 d .
N2 N 0.6830(2) 0.77146(18) 0.70609(16) 0.0435(4) Uani 1 1 d .
N3 N 0.7008(3) 0.8821(2) 0.56294(18) 0.0543(5) Uani 1 1 d .
N4 N 0.9880(4) 0.2689(3) 0.8313(3) 0.0848(8) Uani 1 1 d .
O1 O 0.1357(2) 0.53114(17) 0.74417(17) 0.0627(5) Uani 1 1 d .
O2 O 0.2965(2) 0.60309(16) 0.59321(14) 0.0513(4) Uani 1 1 d .
S1 S 0.29629(7) 0.60685(5) 0.71686(5) 0.04256(19) Uani 1 1 d .
loop_
_atom_site_aniso_label
_atom_site_aniso_U_11
_atom_site_aniso_U_22
_atom_site_aniso_U_33
_atom_site_aniso_U_23
_atom_site_aniso_U_13
_atom_site_aniso_U_12
C1 0.0446(12) 0.0526(13) 0.0566(13) 0.0126(10) 0.0136(10) 0.0216(10)
C2 0.0446(12) 0.0680(15) 0.0470(12) 0.0213(11) 0.0178(9) 0.0227(11)
C3 0.0397(11) 0.0579(13) 0.0531(13) 0.0284(10) 0.0155(9) 0.0165(10)
C4 0.0357(10) 0.0435(11) 0.0448(11) 0.0196(9) 0.0100(8) 0.0157(8)
C5 0.0336(10) 0.0438(11) 0.0434(10) 0.0185(9) 0.0078(8) 0.0165(8)
C6 0.0376(11) 0.0445(11) 0.0552(12) 0.0185(9) 0.0075(9) 0.0169(9)
C7 0.0591(14) 0.0484(13) 0.0729(16) 0.0294(12) 0.0181(11) 0.0267(11)
C8 0.0745(16) 0.0558(14) 0.0698(16) 0.0390(12) 0.0222(12) 0.0320(12)
C9 0.0401(10) 0.0393(10) 0.0433(11) 0.0179(9) 0.0084(8) 0.0100(8)
C10 0.0377(11) 0.0563(13) 0.0667(14) 0.0310(11) 0.0090(10) 0.0169(9)
C11 0.0445(13) 0.0768(17) 0.0765(17) 0.0373(14) 0.0250(11) 0.0267(12)
C12 0.0592(15) 0.0841(19) 0.0695(16) 0.0442(14) 0.0310(12) 0.0257(13)
C13 0.0394(10) 0.0369(10) 0.0472(11) 0.0210(8) 0.0111(8) 0.0103(8)
C14 0.0574(13) 0.0473(12) 0.0492(12) 0.0164(10) 0.0103(10) 0.0186(10)
C15 0.0565(14) 0.0627(15) 0.0517(13) 0.0272(11) 0.0034(10) 0.0165(11)
C16 0.0392(11) 0.0499(12) 0.0660(14) 0.0354(11) 0.0136(9) 0.0127(9)
C17 0.0580(14) 0.0498(13) 0.0558(13) 0.0239(10) 0.0193(10) 0.0235(10)
C18 0.0539(13) 0.0471(12) 0.0458(12) 0.0189(10) 0.0098(9) 0.0180(10)
C19 0.0519(13) 0.0663(15) 0.0774(17) 0.0457(14) 0.0176(11) 0.0213(12)
N1 0.0511(10) 0.0467(10) 0.0505(10) 0.0274(8) 0.0164(8) 0.0228(8)
N2 0.0406(9) 0.0485(10) 0.0505(10) 0.0260(8) 0.0109(7) 0.0156(8)
N3 0.0584(12) 0.0645(12) 0.0566(11) 0.0354(10) 0.0218(9) 0.0233(10)
N4 0.0745(16) 0.101(2) 0.119(2) 0.0738(18) 0.0261(14) 0.0448(15)
O1 0.0423(9) 0.0539(10) 0.0937(13) 0.0303(9) 0.0191(8) 0.0072(7)
O2 0.0535(9) 0.0538(9) 0.0471(8) 0.0166(7) 0.0024(6) 0.0201(7)
S1 0.0362(3) 0.0413(3) 0.0528(3) 0.0193(2) 0.0087(2) 0.0114(2)
loop_
_atom_type_symbol
_atom_type_description
_atom_type_scat_dispersion_real
_atom_type_scat_dispersion_imag
_atom_type_scat_source
C C 0.0181 0.0091 'International Tables Vol C Tables 4.2.6.8 and 6.1.1.4'
H H 0.0000 0.0000 'International Tables Vol C Tables 4.2.6.8 and 6.1.1.4'
N N 0.0311 0.0180 'International Tables Vol C Tables 4.2.6.8 and 6.1.1.4'
O O 0.0492 0.0322 'International Tables Vol C Tables 4.2.6.8 and 6.1.1.4'
S S 0.3331 0.5567 'International Tables Vol C Tables 4.2.6.8 and 6.1.1.4'
loop_
_geom_angle_atom_site_label_1
_geom_angle_atom_site_label_2
_geom_angle_atom_site_label_3
_geom_angle
C2 C1 H1 120.2
C6 C1 H1 120.2
C6 C1 C2 119.7(2)
C1 C2 H2 119.9
C3 C2 C1 120.1(2)
C3 C2 H2 119.9
C2 C3 H3 119.5
C2 C3 C4 121.1(2)
C4 C3 H3 119.5
C3 C4 S1 115.57(16)
C5 C4 C3 118.71(19)
C5 C4 S1 124.00(15)
C4 C5 C6 118.87(18)
C4 C5 N1 131.04(18)
N1 C5 C6 109.92(18)
C1 C6 C5 121.2(2)
C1 C6 C7 129.7(2)
C5 C6 C7 109.10(18)
C6 C7 H7A 111.1
C6 C7 H7B 111.1
C6 C7 C8 103.18(18)
H7A C7 H7B 109.1
C8 C7 H7A 111.1
C8 C7 H7B 111.1
C7 C8 H8A 110.8
C7 C8 H8B 110.8
H8A C8 H8B 108.8
N1 C8 C7 104.97(18)
N1 C8 H8A 110.8
N1 C8 H8B 110.8
N2 C9 N1 116.84(18)
N3 C9 N1 116.14(18)
N3 C9 N2 127.02(19)
C11 C10 H10 118.6
N2 C10 H10 118.6
N2 C10 C11 122.8(2)
C10 C11 H11 121.8
C10 C11 C12 116.4(2)
C12 C11 H11 121.8
C11 C12 H12 118.4
N3 C12 C11 123.2(2)
N3 C12 H12 118.4
C14 C13 S1 121.99(16)
C18 C13 C14 120.95(19)
C18 C13 S1 116.72(16)
C13 C14 H14 120.3
C15 C14 C13 119.4(2)
C15 C14 H14 120.3
C14 C15 H15 120.1
C14 C15 C16 119.9(2)
C16 C15 H15 120.1
C15 C16 C19 120.3(2)
C17 C16 C15 120.0(2)
C17 C16 C19 119.7(2)
C16 C17 H17 119.9
C18 C17 C16 120.2(2)
C18 C17 H17 119.9
C13 C18 H18 120.2
C17 C18 C13 119.6(2)
C17 C18 H18 120.2
N4 C19 C16 177.8(3)
C5 N1 C8 108.06(16)
C9 N1 C5 125.57(16)
C9 N1 C8 120.16(18)
C10 N2 C9 115.52(18)
C9 N3 C12 115.1(2)
C4 S1 C13 110.82(9)
O1 S1 C4 105.97(10)
O1 S1 C13 104.72(10)
O2 S1 C4 108.77(9)
O2 S1 C13 108.37(9)
O2 S1 O1 118.08(11)
loop_
_geom_bond_atom_site_label_1
_geom_bond_atom_site_label_2
_geom_bond_distance
C1 H1 0.9300
C1 C2 1.381(3)
C1 C6 1.376(3)
C2 H2 0.9300
C2 C3 1.377(3)
C3 H3 0.9300
C3 C4 1.403(3)
C4 C5 1.400(3)
C4 S1 1.768(2)
C5 C6 1.404(3)
C5 N1 1.400(2)
C6 C7 1.506(3)
C7 H7A 0.9700
C7 H7B 0.9700
C7 C8 1.514(3)
C8 H8A 0.9700
C8 H8B 0.9700
C8 N1 1.482(3)
C9 N1 1.379(3)
C9 N2 1.336(3)
C9 N3 1.331(3)
C10 H10 0.9300
C10 C11 1.372(3)
C10 N2 1.334(3)
C11 H11 0.9300
C11 C12 1.373(4)
C12 H12 0.9300
C12 N3 1.334(3)
C13 C14 1.383(3)
C13 C18 1.379(3)
C13 S1 1.780(2)
C14 H14 0.9300
C14 C15 1.374(3)
C15 H15 0.9300
C15 C16 1.393(3)
C16 C17 1.381(3)
C16 C19 1.444(3)
C17 H17 0.9300
C17 C18 1.372(3)
C18 H18 0.9300
C19 N4 1.131(3)
O1 S1 1.4330(16)
O2 S1 1.4320(16)
loop_
_geom_torsion_atom_site_label_1
_geom_torsion_atom_site_label_2
_geom_torsion_atom_site_label_3
_geom_torsion_atom_site_label_4
_geom_torsion
C1 C2 C3 C4 4.5(3)
C1 C6 C7 C8 -168.7(2)
C2 C1 C6 C5 -1.9(3)
C2 C1 C6 C7 178.6(2)
C2 C3 C4 C5 0.0(3)
C2 C3 C4 S1 -165.68(17)
C3 C4 C5 C6 -5.2(3)
C3 C4 C5 N1 179.96(19)
C3 C4 S1 C13 -92.17(17)
C3 C4 S1 O1 20.88(18)
C3 C4 S1 O2 148.79(15)
C4 C5 C6 C1 6.2(3)
C4 C5 C6 C7 -174.10(19)
C4 C5 N1 C8 160.1(2)
C4 C5 N1 C9 -47.9(3)
C5 C4 S1 C13 103.04(18)
C5 C4 S1 O1 -143.91(17)
C5 C4 S1 O2 -16.0(2)
C5 C6 C7 C8 11.7(3)
C6 C1 C2 C3 -3.5(3)
C6 C5 N1 C8 -15.1(2)
C6 C5 N1 C9 136.9(2)
C6 C7 C8 N1 -19.9(2)
C7 C8 N1 C5 22.0(3)
C7 C8 N1 C9 -131.8(2)
C10 C11 C12 N3 0.4(4)
C11 C10 N2 C9 -0.4(3)
C11 C12 N3 C9 0.1(4)
C13 C14 C15 C16 -1.6(4)
C14 C13 C18 C17 0.7(3)
C14 C13 S1 C4 36.9(2)
C14 C13 S1 O1 -77.0(2)
C14 C13 S1 O2 156.15(18)
C14 C15 C16 C17 1.4(3)
C14 C15 C16 C19 -178.1(2)
C15 C16 C17 C18 -0.1(3)
C16 C17 C18 C13 -0.9(3)
C18 C13 C14 C15 0.6(3)
C18 C13 S1 C4 -149.72(16)
C18 C13 S1 O1 96.44(18)
C18 C13 S1 O2 -30.44(19)
C19 C16 C17 C18 179.4(2)
N1 C5 C6 C1 -177.91(19)
N1 C5 C6 C7 1.8(2)
N1 C9 N2 C10 -179.47(19)
N1 C9 N3 C12 179.6(2)
N2 C9 N1 C5 6.2(3)
N2 C9 N1 C8 155.1(2)
N2 C9 N3 C12 -0.8(4)
N2 C10 C11 C12 -0.3(4)
N3 C9 N1 C5 -174.2(2)
N3 C9 N1 C8 -25.3(3)
N3 C9 N2 C10 1.0(3)
S1 C4 C5 C6 159.14(16)
S1 C4 C5 N1 -15.7(3)
S1 C13 C14 C15 173.70(17)
S1 C13 C18 C17 -172.74(17)
loop_
_refln_index_h
_refln_index_k
_refln_index_l
_refln_F_squared_meas
_refln_F_squared_sigma
_refln_scale_group_code
0 0 -1 8680.2 183.449 2
0 0 2 425170 1546.04 4
0 0 -2 419348 1578.94 7
0 0 3 47197.3 638.1 4
0 0 -3 46545.8 653.325 7
0 0 3 46272.8 748.811 6
0 0 -4 4136.35 269.55 2
0 0 -4 3505.28 268.683 10
0 0 -4 3344.06 206.365 7
0 0 4 3516.61 207.021 4
0 0 -5 3278.93 231.846 7
0 0 5 3212.66 225.028 4
0 0 -5 3769.19 294.974 2
0 0 -5 2886.32 280.891 10
0 0 -6 9481.15 513.891 2
0 0 -6 9018.27 546.935 10
0 0 -7 34626.7 1159.91 10
0 0 -8 16030.5 868.563 10
0 0 -9 335.646 153.535 25
0 0 -9 247.663 173.21 23
0 0 -10 2566.36 397.967 23
0 0 -10 3643.28 433.946 25
0 0 -11 338.487 170.184 23
0 0 -12 178.311 120.231 23
0 1 -13 330.848 127.694 23
0 1 -12 14.8374 88.8725 23
0 1 -11 395.801 160.859 25
0 1 -11 533.28 207.342 23
0 1 -10 1615.92 328.649 23
0 1 -10 1993.24 332.759 25
0 1 -9 515.26 178.746 25
0 1 -9 638.055 192.773 23
0 1 -8 843.227 186.396 10
0 1 -7 7012.94 519.655 10
0 1 -7 7878.83 496.412 2
0 1 -6 2481.95 261.396 2
0 1 -6 2496.54 288.59 10
0 1 -5 179205 1875.94 2
0 1 -5 180773 2049.26 10
0 1 -5 176748 1550.1 7
0 -1 5 175832 1594.33 4
0 1 -4 72329.3 1131.04 10
0 -1 4 65961 869.289 4
0 1 -4 64851.1 826.311 7
0 1 -4 71308.5 1017.47 2
0 1 -3 26587.7 456.48 7
0 -1 3 28045.7 488.149 4
0 1 -2 1788.73 108.636 2
0 -1 2 1579.87 102.011 4
0 1 -1 331681 1302.78 1
0 1 0 34917.3 408.231 1
0 -1 -1 140303 819.805 3
0 1 1 137639 942.488 6
0 1 2 650807 2346.85 4
0 1 2 646023 2518.43 6
0 1 3 12250.3 377.145 4
0 1 3 11905.7 420.847 6
0 -1 -3 11875 427.541 2
0 -1 -3 12644 409.342 7
0 1 4 37109.5 734.625 4
0 -1 -4 36802.3 781.679 7
0 1 4 37187.6 846.258 6
0 -1 -4 35028.6 836.052 2
0 -1 -5 6286.71 361.68 7
0 -1 -6 177832 2473.87 10
0 -1 -7 2333.18 332.996 10
0 -1 -8 26884.1 1190.99 17
0 -1 -8 24924.8 1099.82 25
0 -1 -8 24340 1142.44 23
0 -1 -9 15564.3 898.169 25
0 -1 -9 15495.6 939.706 23
0 -1 -10 747.655 211.777 25
0 -1 -10 551.141 209.187 23
0 -1 -11 1535.61 292.033 23
0 -1 -12 43.8351 79.1158 23
0 2 -13 6.88851 86.8196 23
0 2 -12 774.636 210.696 23
0 2 -11 7938.9 628.472 25
0 2 -11 7555.21 662.19 23
0 2 -10 1449 315.096 23
0 2 -10 1296.53 274.555 25
0 2 -9 1604.44 288.014 25
0 2 -9 2602.26 373.505 23
0 2 -8 2486.96 338.559 10
0 2 -7 124992 2093.64 10
0 2 -7 127919 1932.97 2
0 2 -6 1161.17 173.018 2
0 2 -6 1501.7 237.288 10
0 2 -5 64955.3 1229.47 10
0 2 -5 65896.2 1089.9 2
0 2 -4 2620.63 218.612 10
0 2 -4 2735.53 197.395 2
0 2 -3 133704 1160.29 2
0 2 -2 50256.3 726.417 1
0 -2 1 78915.1 348.71 9
0 2 -1 77831.1 834.466 1
0 2 0 71586.4 840.269 1
0 2 0 69636.1 788.563 6
0 -2 -1 40633.2 607.914 3
0 2 1 39239 648.518 6
0 2 1 39399.3 710.987 1
0 -2 -2 -17.9195 67.0655 7
0 2 2 77.9733 60.2024 1
0 2 2 124.456 60.6727 4
0 -2 -2 68.1465 50.2556 3
0 2 3 3645 242.489 4
0 -2 -3 4523.38 229.4 3
0 2 3 4283 307.859 1
0 -2 -3 4463.47 294.272 7
0 2 3 3814.76 265.988 6
0 2 4 34892.6 875.594 6
0 2 4 33665.6 951.268 1
0 -2 -4 35081.9 874.301 7
0 2 4 34908.1 818.22 4
0 2 5 6504.6 471.514 1
0 2 5 6100.08 416 6
0 -2 -5 6784.34 418.119 7
0 -2 -6 33562.4 1149.37 10
0 2 6 32438.2 1130.94 1
0 -2 -7 6873.53 579.519 10
0 -2 -8 98673.2 2355.87 17
0 -2 -8 99684.9 2242.42 25
0 -2 -9 3645.77 468.088 23
0 -2 -9 3729.5 434.866 25
0 -2 -10 2338.01 360.612 23
0 -2 -11 285.228 150.71 23
0 3 -13 1452.42 247.734 23
0 3 -12 131.96 117.351 23
0 3 -12 5.4883 63.6791 25
0 3 -11 234.87 146.683 25
0 3 -11 66.1177 122.659 23
0 3 -10 38.8597 77.8992 25
0 3 -10 39.1992 109.883 23
0 3 -9 2645.26 365.277 25
0 3 -9 3018.34 403.914 23
0 3 -8 15052 797.23 10
0 3 -7 8509.32 554.752 10
0 3 -7 9021.96 505.284 2
0 3 -6 8367 437.426 2
0 3 -6 6748.27 446.699 10
0 3 -5 56154.9 1005.11 2
0 3 -5 57178.1 1150.87 10
0 3 -4 58151.2 925.229 2
0 3 -4 56226.3 1026.37 10
0 3 -3 649.427 101.398 2
0 3 -3 774.664 135.993 1
0 3 -2 2880.23 199.23 10
0 3 -2 2448.8 198.745 1
0 3 -1 47935.5 792.657 6
0 3 -1 48271.5 831.202 1
0 3 0 26941.9 610.601 6
0 -3 0 26885.3 607.211 3
0 3 0 28605.1 666.244 1
0 3 1 8253.28 362.102 6
0 3 1 8952.47 408.743 1
0 -3 -1 8449.18 344.053 3
0 3 2 1351.81 169.54 6
0 3 2 1460.1 174.851 4
0 -3 -2 1379.84 148.7 3
0 3 2 1437.39 201.376 1
0 3 3 68315.2 1221.41 6
0 -3 -3 71084.4 1040.17 3
0 -3 -3 68173.4 1319.2 7
0 3 3 67404.7 1172.89 4
0 3 3 66210.9 1336.97 1
0 3 4 664.427 157.539 6
0 3 4 589.457 163.604 1
0 3 4 620.455 146.108 4
0 -3 -4 376.816 135.646 7
0 3 5 11510.1 671.849 1
0 -3 -5 11898.7 622.041 7
0 -3 -6 28810.8 1129.57 10
0 3 6 46786 1469.37 1
0 -3 -7 43159.7 1469.57 25
0 -3 -7 44361 1562.86 17
0 -3 -8 15177 940.57 17
0 -3 -8 15848.8 907.537 25
0 -3 -9 1357.02 269.102 25
0 -3 -9 1676.83 326.786 23
0 -3 -10 949.729 222.053 23
0 -3 -11 3847.82 355.58 23
0 4 -13 12.4109 98.0706 23
0 4 -12 3111.43 412.795 23
0 4 -12 3618.03 399.383 25
0 4 -11 2036.45 347.32 23
0 4 -11 2237.87 349.593 25
0 4 -10 8.59592 104.143 23
0 4 -10 7.44338 147.779 25
0 4 -9 2497.76 364.066 25
0 4 -9 2049.93 340.281 23
0 4 -8 1319.22 252.726 10
0 4 -7 1379.07 254.294 10
0 4 -6 10521.4 574.34 10
0 4 -6 11221 511.449 2
0 4 -5 52320.3 1155.28 10
0 4 -5 52537.9 1023.52 2
0 4 -4 38991.7 841.862 2
0 4 -4 38156.6 909.747 10
0 4 -3 11947.1 497.42 1
0 4 -3 11434.1 465.973 10
0 4 -2 5845.93 347.185 1
0 4 -2 5741.57 330.602 6
0 4 -2 6127.59 321.169 10
0 -4 1 14952.5 321.364 9
0 4 -1 13726.3 502.053 6
0 4 -1 14608.1 546.741 1
0 4 0 23786.7 674.991 6
0 4 0 23708.7 721.241 1
0 -4 0 24613.1 680.168 3
0 4 1 330632 2830.8 1
0 4 1 336366 2660.01 6
0 -4 -1 327171 2495.53 3
0 -4 -2 45388.7 936.094 3
0 4 2 46204.4 1081.14 4
0 4 2 43708.2 1120.53 1
0 4 2 44737.7 1033.93 6
0 -4 -2 43716.8 1101.8 7
0 4 3 6394.33 426.356 6
0 4 3 6687.35 481.984 1
0 4 3 6686.88 425.339 4
0 -4 -3 7001.41 483.012 7
0 4 4 4472 440.547 1
0 -4 -4 4351.49 402.234 7
0 4 4 4545.24 390.451 6
0 4 5 1710.87 300.126 1
0 -4 -6 2439.33 376.179 17
0 -4 -6 3042.35 401.017 25
0 -4 -7 1927.13 359.648 17
0 -4 -7 1650.32 317.164 25
0 -4 -8 13211.6 866.73 17
0 -4 -8 14506.4 840.882 25
0 -4 -9 627.805 200.106 23
0 -4 -10 4982.95 431.827 23
0 5 -13 -22.5739 89.4016 23
0 5 -13 88.8915 87.2625 25
0 5 -12 3228.25 389.178 25
0 5 -12 2584.15 370.361 23
0 5 -11 -136.264 151.321 23
0 5 -11 153.864 129.506 25
0 5 -10 443.56 203.151 25
0 5 -10 499.634 219.595 23
0 5 -9 61498 1752.37 25
0 5 -9 58982.6 1760.76 23
0 5 -8 933.16 216.629 10
0 5 -7 136.332 157.757 10
0 5 -6 10124.1 516.662 2
0 5 -6 10189 585.083 10
0 5 -5 10324.9 500.412 2
0 5 -5 9980.19 539.82 10
0 5 -4 18157 712.243 6
0 5 -4 18558.1 726.208 1
0 5 -4 18267.7 649.85 2
0 5 -4 18633.6 688.279 10
0 5 -3 8058.14 460.995 1
0 5 -3 7816.92 448.17 6
0 5 -3 8555.3 440.608 10
0 5 -2 1359.27 202.709 6
0 5 -2 1613.02 225.357 1
0 5 -1 3224.22 306.122 1
0 5 -1 2486.18 257.77 6
0 -5 1 2623.16 268.523 3
0 -5 0 29845.1 860.71 3
0 5 0 30654.1 886.727 6
0 5 0 29484.9 925.433 1
0 -5 -1 25924.9 802.623 3
0 5 1 24691 825.664 6
0 5 1 25045.8 897.446 1
0 -5 -2 16444.6 773.676 7
0 5 2 17774.7 729.971 6
0 5 2 18772.1 778.026 4
0 5 2 17228 789.798 1
0 5 3 33411.9 1069.07 6
0 5 3 32221.3 1153.73 1
0 5 3 32362.5 1049.53 4
0 -5 -3 32718 1160.17 7
0 -5 -4 696.286 212.643 7
0 5 4 292.602 169.799 1
0 -5 -5 11830.4 809.42 17
0 -5 -5 13393.5 822.701 25
0 -5 -6 -10.4633 152.06 17
0 -5 -6 -72.838 115.38 25
0 -5 -7 11427.7 757.056 25
0 -5 -7 11307.9 808.962 17
0 -5 -8 370.138 141.958 25
0 -5 -8 921.571 236.046 17
0 -5 -9 3068.29 357.091 23
0 6 -13 1258.28 206.304 25
0 6 -13 1075.75 222.913 23
0 6 -12 3217.08 381.261 25
0 6 -12 2978.95 403.817 23
0 6 -11 3573.09 439.312 25
0 6 -11 2953.58 429.125 23
0 6 -10 92732.1 2284.36 23
0 6 -10 97460.6 2271.94 25
0 6 -9 5873.97 551.626 20
0 6 -9 5585.27 572.536 23
0 6 -9 6827.57 609.242 25
0 6 -8 68246.7 1799.33 10
0 6 -8 66004.9 1788.99 25
0 6 -7 39680.6 1297.63 10
0 6 -6 82.6887 103.961 6
0 6 -6 247.955 121.549 10
0 6 -5 8470.22 506.736 2
0 6 -5 7917.87 537.83 6
0 6 -5 8546.8 535.8 10
0 6 -4 12528.8 613.089 10
0 6 -4 11605.1 631.851 1
0 6 -4 11419.4 614.223 6
0 6 -3 15062.4 705.076 1
0 6 -3 15093.8 689.23 6
0 -6 2 40844.8 1152.73 3
0 6 -2 44299.4 1209.91 1
0 6 -2 43301.6 1149.64 6
0 -6 1 617.562 148.462 3
0 6 -1 500.633 161.177 6
0 6 -1 576.596 165.609 1
0 -6 0 56128.8 1332.35 3
0 6 0 58550.8 1385.14 6
0 6 0 54595.3 1427.51 1
0 6 1 9021.75 613.735 1
0 6 1 9980.81 593.507 6
0 6 2 9873.54 633.454 4
0 6 2 10583.6 700.561 1
0 -6 -2 9255.37 651.492 7
0 6 2 10192.9 618.792 6
0 -6 -3 3923.6 457.317 7
0 -6 -3 3974.15 447.33 25
0 -6 -4 1862.63 340.096 17
0 -6 -4 2033.03 333.523 25
0 -6 -5 261.721 181.952 17
0 -6 -5 397.935 174.816 25
0 -6 -6 1060.85 271.737 17
0 -6 -6 1474.01 285.794 25
0 -6 -7 2743.62 397.041 17
0 -6 -7 2736.18 346.439 25
0 -6 -8 911.662 207.524 23
0 7 -13 400.324 147.203 23
0 7 -13 429.885 130.589 25
0 7 -12 1748.79 302.163 23
0 7 -12 2188.06 319.973 25
0 7 -11 10094.5 749.411 23
0 7 -11 9472.68 697.506 25
0 7 -10 17573.6 1007.2 23
0 7 -10 19193.9 1009.28 25
0 7 -10 18968.7 986.436 20
0 7 -9 38641.4 1426.96 25
0 7 -9 37725.4 1423.55 20
0 7 -9 36126 1432.22 23
0 7 -8 21264.7 1046.86 25
0 7 -8 21489.7 1059.35 20
0 7 -8 20199.8 1047.99 23
0 7 -7 14799.3 852.268 25
0 7 -7 14559.6 859.354 20
0 7 -7 14449.3 813.365 10
0 7 -6 45159.7 1366.18 10
0 7 -6 44296.1 1394.69 6
0 7 -5 5546.78 453.029 2
0 7 -5 4990.88 463.716 6
0 7 -5 5692.87 471.618 10
0 7 -4 46356.8 1346.25 6
0 7 -4 45626.9 1366.07 1
0 7 -3 13011.7 710.192 6
0 7 -3 11103.4 683.067 1
0 -7 3 11691.9 687.777 3
0 -7 2 32918.8 1134.97 3
0 7 -2 33154.7 1170.56 1
0 7 -2 33065.5 1124.59 6
0 -7 1 75486.1 1712.25 3
0 7 -1 69956.4 1730.11 1
0 7 -1 74161.7 1703.46 6
0 -7 0 2494.25 324.771 3
0 7 0 1928.33 316.92 1
0 7 0 2182.37 303.124 6
0 7 1 6306.5 553.921 4
0 -7 -1 6326.14 571.615 7
0 -7 -2 13876.2 850.994 25
0 -7 -2 13403.6 847.862 17
0 -7 -3 20.8096 107.925 25
0 -7 -3 137.133 136.182 17
0 -7 -4 -215.217 144.161 25
0 -7 -4 33.1038 138.165 17
0 -7 -5 479.647 201.156 17
0 -7 -5 998.753 237.206 25
0 -7 -6 2005.9 293.393 25
0 -7 -6 1755.75 308.983 17
0 -7 -7 62.6762 112.235 17
0 8 -13 1863.4 254.88 23
0 8 -12 49.0439 111.474 23
0 8 -11 351.77 163.926 25
0 8 -11 178.177 107.372 20
0 8 -11 156.726 146.282 23
0 8 -10 79.7313 120.301 25
0 8 -10 -159.036 166.413 23
0 8 -10 12.0208 113.997 20
0 8 -9 784.982 231.841 25
0 8 -9 668.545 210.771 20
0 8 -9 629.389 213.875 23
0 8 -8 7408.47 642.384 25
0 8 -8 7391.69 643.973 20
0 8 -8 6963.61 638.227 23
0 8 -7 6577.02 596.814 20
0 8 -7 5224.14 541.863 23
0 8 -6 5658.89 558.932 23
0 8 -6 5692.88 555.623 20
0 8 -5 6170.03 564.848 20
0 8 -4 1386.15 257.013 6
0 8 -3 6650.95 561.324 6
0 -8 3 5435.97 511.072 3
0 8 -2 56217.9 1606.12 6
0 -8 2 52619.8 1650.51 14
0 -8 2 54496.5 1600.13 3
0 -8 1 15624.6 922.104 14
0 -8 0 21167.9 1065.56 25
0 -8 0 21360.9 1089.41 14
0 -8 0 21359.7 1043.26 17
0 -8 -1 110.804 119.061 25
0 -8 -1 62.0464 137.976 17
0 -8 -2 2.07132 111.906 25
0 -8 -2 113.517 129.619 17
0 -8 -3 189.118 165.077 17
0 -8 -3 444.789 177.535 25
0 -8 -4 156.094 153.083 17
0 -8 -4 -97.072 115.579 25
0 -8 -5 83.1575 97.1802 25
0 -8 -5 271.441 142.352 17
0 -8 -6 132.171 122.263 17
0 9 -12 3602.83 377.045 23
0 9 -11 2489.21 336.523 20
0 9 -11 1884.28 319.796 23
0 9 -10 1059.71 255.371 20
0 9 -10 906.102 245.156 23
0 9 -9 7447.65 655.091 23
0 9 -9 6501.76 602.558 20
0 9 -8 8999.05 719.259 20
0 9 -8 9953.82 763.886 23
0 9 -7 14972.6 922.69 20
0 9 -6 5239.57 547.171 20
0 -9 5 24829.8 1151.32 14
0 9 -5 23430.1 1130.75 20
0 -9 4 10166.9 755.388 14
0 9 -4 10705.3 762.869 20
0 -9 3 22431.3 1126.46 14
0 9 -3 21948.8 1073.09 20
0 -9 2 1837.41 353.333 14
0 -9 1 1246.98 281.645 25
0 -9 0 273.154 155.382 17
0 -9 0 195.547 126.428 25
0 -9 -1 2917.58 407.03 25
0 -9 -1 2850.44 413.779 17
0 -9 -2 163.236 154.304 25
0 -9 -2 377.794 172.354 17
0 -9 -3 1921.36 316.257 17
0 -9 -3 1826.04 295.022 25
0 -9 -4 141.958 129.043 17
0 -9 -4 28.1801 77.8545 25
0 -9 -5 554.464 148.432 17
0 10 -12 5059.6 353.974 20
0 10 -11 -109.406 97.4081 20
0 10 -10 16443.4 865.114 20
0 10 -9 6800.15 598.86 20
0 10 -8 1438.05 310.682 20
0 10 -7 5453.78 563.863 20
0 10 -6 4295.66 503.924 20
0 -10 5 5747.72 564.471 14
0 10 -5 5185.67 539.054 20
0 -10 4 71.1958 132.468 14
0 10 -4 228.608 151.739 20
0 -10 3 1506.45 323.917 14
0 10 -3 1635.47 300.874 20
0 -10 2 1452.12 299.391 25
0 -10 1 2012.28 345.055 25
0 -10 0 7593 626.659 25
0 -10 -1 4122.69 433.487 17
0 -10 -1 3339.1 407.165 25
0 -10 -2 4290.04 414.5 25
0 -10 -2 4141.7 410.522 17
0 -10 -3 938.478 177.079 25
0 -10 -3 908.61 185.222 17
0 11 -11 1994.9 244.361 20
0 11 -10 19696.6 850.045 20
0 11 -9 29.3061 103.541 20
0 11 -8 9885.51 692.19 20
0 11 -7 4079.37 460.974 20
0 11 -6 103.797 138.157 20
0 11 -5 4720.34 483.6 20
0 11 -4 1100.36 246.075 20
0 -11 3 2176.2 348.012 25
0 -11 2 639.594 219.95 25
0 -11 1 3147.7 378.858 25
0 -11 0 826.761 196.872 25
0 -11 -1 4069.52 364.783 25
0 12 -9 106.213 113.916 20
0 12 -8 3335.03 353.842 20
0 12 -7 394.407 147.743 20
0 12 -6 5845.78 471.528 20
0 -12 5 -98.8824 118.565 25
0 12 -5 168.217 104.82 20
0 -12 4 8359.36 576.923 25
0 -12 3 35.7135 103.111 25
0 -12 2 5684.79 440.241 25
0 -12 1 6314.64 422.096 25
1 -12 1 28.9765 33.7614 25
1 -12 2 15929.5 729.971 25
1 -12 3 77.9068 97.5601 25
1 -12 4 8924.83 605.39 25
-1 12 -6 714.379 177.676 20
-1 12 -7 5470.55 461.376 20
-1 12 -8 1898.9 275.203 20
-1 12 -9 323.632 140.758 20
1 -11 -2 409.706 127.927 17
1 -11 -1 1571.58 254.836 17
1 -11 0 3446.61 363.998 25
1 -11 0 3554.76 385.701 17
1 -11 1 572.574 173.315 25
1 -11 1 422.331 179.11 17
1 -11 2 27367.8 1115.58 17
1 -11 2 27287.7 1133.83 25
1 -11 3 872.289 215.774 17
1 -11 3 894.487 245.201 14
1 -11 4 5778.56 576.262 14
1 -11 5 149.794 157.884 14
-1 11 -5 120.194 135.893 20
-1 11 -6 6068.16 554.417 20
1 -11 6 7595.69 617.004 14
-1 11 -7 33.7249 134.762 20
-1 11 -8 2804.1 374.728 20
-1 11 -9 2335.96 337.525 20
-1 11 -10 -7.29866 88.5703 20
-1 11 -11 315.762 110.63 20
1 -10 -4 725.053 160.248 17
1 -10 -3 7815.2 555.009 17
1 -10 -2 2227.98 330.877 17
1 -10 -1 7822.96 595.03 25
1 -10 -1 8161.83 644.122 17
1 -10 0 2032.34 325.04 25
1 -10 0 1988.92 349.647 17
1 -10 1 12197.3 816.996 17
1 -10 1 11633 825.22 14
1 -10 1 12130.2 796.144 25
1 -10 2 5807.8 562.933 17
1 -10 2 5490.08 582.365 14
1 -10 3 4852.33 541.151 14
1 -10 4 9472.1 746.041 14
-1 10 -4 9425.46 704.542 20
-1 10 -5 2952.23 418.613 20
1 -10 5 2978.54 421.481 14
1 -10 6 3188.78 420.936 14
-1 10 -6 3077.47 425.884 20
-1 10 -7 2909.81 418.95 20
-1 10 -8 22985.7 1121.83 20
-1 10 -9 197.98 165.272 20
-1 10 -10 15388.3 850.276 20
-1 10 -11 458.198 155.576 20
-1 10 -12 -74.8038 57.2694 20
1 -9 -5 2602.82 318.044 17
1 -9 -4 1786.29 302.948 17
1 -9 -3 235.243 156.246 17
1 -9 -2 1358.74 266.992 25
1 -9 -2 1035.91 280.222 17
1 -9 -1 19.2971 89.8698 25
1 -9 -1 1.0714 105.011 17
1 -9 0 1209.81 280.388 17
1 -9 0 1477.99 294.036 25
1 -9 0 1261.54 286.324 14
1 -9 1 2025.83 346.093 14
1 -9 2 23931.7 1169.18 14
1 -9 3 12384.2 841.825 14
-1 9 -4 1292.65 275.254 20
1 -9 4 1368.35 299.996 14
1 -9 5 9938.09 744.276 14
-1 9 -5 9848.45 730.736 20
-1 9 -6 334.299 178.277 20
1 -9 6 -2.57552 131.511 14
-1 9 -7 10575.5 778.8 20
-1 9 -8 28699.2 1275.23 20
-1 9 -8 28890.4 1255.15 23
-1 9 -9 1642.61 314.367 23
-1 9 -9 2350.37 381.429 20
-1 9 -10 20642.8 1030.87 20
-1 9 -10 20419.2 1002.85 23
-1 9 -11 1153.01 237.124 23
-1 9 -11 1113.42 227.376 20
-1 9 -12 4308.69 379.352 20
1 -8 -6 3560.48 395.197 17
1 -8 -5 761.037 237.856 17
1 -8 -4 1441.82 307.627 17
1 -8 -3 3673.84 473.238 17
1 -8 -2 4842.13 536.489 17
1 -8 -2 5564.68 537.346 25
1 -8 -1 431.672 185.678 14
1 -8 -1 400.31 200.44 17
1 -8 -1 449.46 163.461 25
1 -8 0 545.845 188.291 14
1 -8 1 29805.3 1251.23 14
-1 8 -2 12915.8 738.381 6
1 -8 2 11472.6 739.212 3
1 -8 3 19105.9 953.748 3
-1 8 -3 18849.3 948.089 1
-1 8 -3 20239.1 933.845 6
-1 8 -4 13708.4 785.603 6
1 -8 4 11555.1 744.867 3
-1 8 -4 11116.6 734.416 1
-1 8 -4 13137 788.236 2
-1 8 -5 1861.37 317.618 2
-1 8 -6 8471.13 655.89 25
-1 8 -6 8269.96 663.653 20
1 -8 6 7504.45 611.899 14
-1 8 -6 8444.21 656.528 23
-1 8 -7 2830.83 397.179 20
-1 8 -7 2307.65 356.6 23
-1 8 -7 2267.01 357.212 25
-1 8 -8 10991.1 772.036 25
-1 8 -8 11119.1 776.473 23
-1 8 -8 12624.4 844.409 20
-1 8 -9 2617.56 387.307 23
-1 8 -9 3303.81 441.079 20
-1 8 -9 3013.52 419.458 25
-1 8 -10 27974.3 1210.78 23
-1 8 -10 27544.2 1213.46 20
-1 8 -10 28004.2 1229.6 25
-1 8 -11 2171.12 345.396 25
-1 8 -11 2162.64 328.186 20
-1 8 -11 1944.16 321.267 23
-1 8 -12 3238.69 378.496 25
-1 8 -12 3631.28 365.756 20
1 -7 -8 3083.73 318.544 23
1 -7 -7 2139.65 322.571 17
1 -7 -6 3244.08 432.271 17
1 -7 -5 1910.48 357.89 17
1 -7 -4 -22.5552 140.57 17
1 -7 -3 9699.01 748.669 17
1 -7 -2 1285.53 285.373 17
1 -7 -2 1710.05 316.286 14
1 -7 -1 10063 646.089 3
1 -7 -1 10104.8 722.964 7
-1 7 1 8275.49 639.05 1
1 -7 0 20922.4 920.554 3
-1 7 0 19121.6 925.961 1
1 -7 1 10926.4 661.916 3
-1 7 -1 10017.7 594.526 6
-1 7 -1 9948.13 644.345 1
1 -7 2 15845.4 790.854 3
-1 7 -2 15262.9 791.669 1
-1 7 -2 17032.6 769.041 6
-1 7 -3 -210.613 126.067 1
1 -7 3 -224.942 109.18 3
1 -7 4 57908.7 1529.21 3
-1 7 -4 58997.5 1533.98 1
-1 7 -4 63125.4 1531.49 6
-1 7 -4 64084.9 1566.45 2
-1 7 -5 11488.5 687.859 6
-1 7 -5 12333 702.459 2
1 -7 5 10179.4 656.318 3
1 -7 6 13141.2 762.177 3
-1 7 -6 14176.7 762.299 2
-1 7 -7 10417 731.377 20
-1 7 -7 9942.39 700.935 25
1 -7 7 9155.99 642.805 3
-1 7 -8 1633.01 307.691 23
-1 7 -8 1908.81 328.853 20
-1 7 -8 1973.43 333.932 25
-1 7 -9 17513.7 972.074 23
-1 7 -9 18441.5 1007 25
-1 7 -9 18898.3 1016.05 20
-1 7 -10 18581.9 1000.38 20
-1 7 -10 18560.3 1012.46 25
-1 7 -10 17719.5 978.703 23
-1 7 -11 7717.39 642.641 25
-1 7 -11 7537.89 619.663 23
-1 7 -11 8348.4 637.754 20
-1 7 -12 8780.2 631.422 25
-1 7 -12 7946.56 579.094 23
-1 7 -13 199.108 102.315 25
1 -6 -9 944.849 165.995 19
1 -6 -9 845.251 179.334 23
1 -6 -8 3268.14 392.033 23
1 -6 -8 3261.71 394.313 17
1 -6 -7 690.745 218.258 17
1 -6 -6 22.8539 147.01 17
1 -6 -5 578.181 210.564 17
1 -6 -4 3784.14 464.31 17
-1 6 3 5122.48 504.384 1
1 -6 -3 4866.18 493.758 7
1 -6 -2 10007.2 669.874 7
1 -6 -2 10504.6 611.317 3
-1 6 2 11095 699.533 1
-1 6 1 6729.8 519.349 1
1 -6 -1 6465.38 516.725 7
1 -6 -1 6833.2 485.82 3
1 -6 0 13367.8 698.069 7
-1 6 0 13450.9 613.183 6
1 -6 0 14074.9 685.435 3
-1 6 -1 730.532 164.668 1
1 -6 1 1249.58 211.555 3
-1 6 -2 196.338 119.977 6
-1 6 -2 53.7134 66.1888 1
1 -6 2 127.313 99.0727 3
-1 6 -3 -73.9651 85.5205 6
-1 6 -3 -27.3674 78.8978 1
-1 6 -4 22957.8 860.873 6
-1 6 -4 23724.2 865.852 2
-1 6 -4 21955.6 862.375 1
-1 6 -4 23559.3 777.847 10
1 -6 4 20944.9 842.759 3
-1 6 -5 14247.4 653.544 10
-1 6 -5 14700.5 695.605 2
-1 6 -6 657.113 175.321 10
-1 6 -6 695.352 186.649 2
-1 6 -7 360.157 150.469 2
-1 6 -7 -113.221 105.009 10
-1 6 -8 108.415 127.301 20
-1 6 -8 109.962 112.558 25
-1 6 -9 1669.96 313.897 25
-1 6 -9 1396.21 296.367 23
-1 6 -9 1795.7 319.766 20
-1 6 -10 23850 1140.44 25
-1 6 -10 24906.9 1164.03 23
-1 6 -10 24877 1136.83 20
-1 6 -11 11970 803.019 25
-1 6 -11 12360.3 802.37 23
-1 6 -12 21310.3 970.688 23
-1 6 -12 19450.1 955.781 25
-1 6 -13 431.327 139.958 25
1 -5 -9 786.725 211.702 23
1 -5 -8 10456.7 743.469 17
1 -5 -7 -2.71143 120.214 17
1 -5 -6 905.554 257.698 17
1 -5 -5 1788.69 327.67 17
-1 5 4 7692.42 596.138 1
1 -5 -4 7585.6 579.33 7
1 -5 -3 22811 956.122 7
-1 5 3 21866.6 940.906 1
1 -5 -2 32397.4 1094.91 7
1 -5 -2 32281.7 961.226 3
-1 5 2 30666.8 1033.87 1
-1 5 1 42940.1 977.403 6
1 -5 -1 40739.7 1137.74 7
1 -5 -1 40723.2 971.279 9
-1 5 1 39266.1 1107.16 1
1 -5 -1 41236 1063.72 3
1 -5 0 13850.5 601.136 3
1 -5 0 13195 488.31 9
-1 5 0 11662.8 578.06 1
-1 5 0 12168 514.773 6
-1 5 -1 63689.1 1150.66 6
1 -5 1 63315.1 1272.29 3
-1 5 -1 61815.9 1261.38 1
-1 5 -2 95812.1 1551.55 1
1 -5 2 93504.7 1540.58 3
-1 5 -3 179561 1827.33 10
-1 5 -3 172140 2088.94 1
-1 5 -4 42774.4 983.182 10
-1 5 -4 42862.8 1065.93 2
-1 5 -4 41373.7 1062.87 1
-1 5 -5 4171.52 341.12 10
-1 5 -5 4019.37 338.739 2
-1 5 -6 16091.8 717.194 10
-1 5 -6 15410.3 687.817 2
-1 5 -7 3179.8 347.4 2
-1 5 -7 2710.85 334.862 10
-1 5 -8 2537.94 360.096 10
-1 5 -9 762.612 208.247 20
-1 5 -9 678.081 213.945 23
-1 5 -9 655.583 209.311 25
-1 5 -10 2322.77 369.43 25
-1 5 -10 2281.86 360.422 23
-1 5 -11 14283.1 878.654 25
-1 5 -11 13855.3 852.758 23
-1 5 -12 643.676 202.771 23
-1 5 -12 827.112 219.002 25
-1 5 -13 11.4884 69.0178 25
1 -4 -10 987.92 215.056 23
1 -4 -9 12068.1 800.174 23
1 -4 -9 12629.2 793.652 17
1 -4 -8 1281.22 306.291 17
1 -4 -7 723.139 225.155 17
1 -4 -6 17718.2 976.659 17
-1 4 5 4273.39 440.425 1
1 -4 -5 4266.26 421.192 7
1 -4 -4 3466.76 361.854 7
-1 4 4 3708.65 381.988 1
1 -4 -3 1370.08 224.725 7
1 -4 -3 1293.79 192.244 3
-1 4 3 1106.66 195.971 1
1 -4 -2 132324 1969.3 7
-1 4 2 132673 1526.31 6
1 -4 -2 132880 1746.17 3
1 -4 -1 903.869 156.833 3
1 -4 -1 812.985 172.358 7
-1 4 1 907.865 125.924 6
1 -4 0 240146 2214.46 3
-1 4 0 243075 2275.98 1
1 -4 0 243096 1737.31 5
-1 4 0 245475 1931.08 6
-1 4 -1 36916.6 847.678 1
-1 4 -1 35858.4 749.311 6
1 -4 1 37289.9 859.68 3
-1 4 -2 24634.1 562.235 10
1 -4 2 24387 695.681 3
-1 4 -2 24059.5 689.189 1
-1 4 -3 63572.4 1002.14 10
-1 4 -3 62549.5 1128.52 1
-1 4 -3 65501.1 1152.45 2
-1 4 -4 7415.36 380.984 10
-1 4 -4 7076.39 397.033 2
-1 4 -5 1092.49 176.524 10
-1 4 -5 -1.17667 88.2237 2
-1 4 -6 4094.42 354.835 10
-1 4 -6 3963.8 344.008 2
-1 4 -7 6660.74 497.662 10
-1 4 -7 6651.75 489.793 2
-1 4 -8 56927.3 1517.81 2
-1 4 -8 54201 1532.37 10
-1 4 -9 5360.6 531.336 25
-1 4 -9 4620.02 497.562 23
1 -4 9 4481.14 489.679 21
-1 4 -10 6578.91 599.469 23
-1 4 -10 6543.31 598.827 25
-1 4 -11 13238 831.62 23
-1 4 -11 13153.2 839.303 25
-1 4 -12 303.622 148.244 25
-1 4 -12 256.022 139.024 23
-1 4 -13 -2.03123 79.3079 25
1 -3 -11 -103.307 114.069 23
1 -3 -10 3690.26 447.037 23
1 -3 -9 150.42 153.102 23
1 -3 -9 -50.7246 119.563 17
1 -3 -8 1851.53 334.461 17
1 -3 -7 29635 1260.08 17
1 -3 -6 12118.9 698.195 10
1 -3 -6 10686 647.622 7
-1 3 6 11070.3 711.827 1
1 -3 -5 48603.7 1291.45 7
1 -3 -5 46166.5 1221.19 10
1 -3 -4 61269.1 1353.79 7
-1 3 4 58412.7 1353.58 1
-1 3 3 234578 1926.44 6
-1 3 3 237121 1922.99 4
1 -3 -3 232749 2454.04 7
1 -3 -2 59352.6 1037.39 3
-1 3 2 58248.1 1116.23 1
-1 3 2 58507.3 847.31 6
1 -3 -2 60702.9 1165.73 7
-1 3 1 123609 1157.96 6
-1 3 1 122740 1468.58 1
1 -3 -1 119293 1400.59 3
1 -3 -1 119584 1032.4 5
1 -3 -1 121366 1504.14 7
1 -3 0 81744.6 926.736 5
-1 3 0 85469 1132.39 1
-1 3 0 81505.7 916.061 6
1 -3 0 86124.6 1147.33 3
1 -3 1 107322 1243.82 3
-1 3 -1 105274 1205.2 1
-1 3 -2 65375.6 959.144 1
-1 3 -2 65729.6 805.606 10
-1 3 -3 99433.2 1157.41 10
-1 3 -3 104242 1307.38 2
-1 3 -4 59531.7 1065.82 2
-1 3 -4 58833.6 1031.06 10
-1 3 -5 6925.33 407.706 10
-1 3 -5 6212.34 382.133 2
-1 3 -6 387.933 137.554 10
-1 3 -6 69.5245 99.3102 2
-1 3 -7 20021.3 859.475 10
-1 3 -7 21298.3 859.504 2
-1 3 -8 -292.336 136.388 10
-1 3 -8 627.62 212.675 2
-1 3 -9 22933.8 1077.62 23
1 -3 9 22454.2 1059.83 21
-1 3 -9 22769.8 1078.1 25
-1 3 -10 18722.5 1004.66 25
-1 3 -10 19779.2 1027.33 23
1 -3 10 17528 957.938 21
-1 3 -11 1987.43 331.97 23
-1 3 -11 1627.97 305.853 25
-1 3 -12 4780.8 466.98 23
-1 3 -12 4509.77 462.038 25
-1 3 -13 542.421 150.223 25
1 -2 -12 277.556 115.369 23
1 -2 -11 -53.1299 122.342 23
1 -2 -10 1467 316.2 23
1 -2 -9 16914.5 998.24 23
1 -2 -9 18297.5 1009.97 17
1 -2 -8 37744 1428.78 17
1 -2 -8 35224.6 1413.18 23
-1 2 7 10039 666.949 1
1 -2 -7 11256.4 700.388 10
1 -2 -6 45.6435 95.4588 10
1 -2 -6 -42.9858 82.1257 7
1 -2 -5 11298 573.287 10
1 -2 -5 11104.1 566.939 7
-1 2 5 10734.4 589.694 1
1 -2 -5 12602.5 557.061 12
1 -2 -4 72384.5 1314.79 7
1 -2 -4 73060.3 1216.08 12
-1 2 4 69430.6 1334.77 1
-1 2 3 68158.4 883.294 6
-1 2 3 68269 808.125 4
1 -2 -3 67896.8 1167.73 7
1 -2 -3 69868.7 1067.87 12
1 -2 -3 70713.2 1088.39 3
-1 2 2 20328.5 557.694 1
1 -2 -2 21785 557.267 3
1 -2 -2 20750.6 591.728 7
-1 2 2 21775.7 415.058 6
-1 2 1 394644 2177.25 1
1 -2 -1 396945 2166.57 3
1 -2 -1 390166 1753.36 5
1 -2 0 31476.9 522.71 5
1 -2 0 32035.7 545.767 9
1 -2 0 32078.9 594.882 3
-1 2 0 32239.3 439.739 6
-1 2 0 33794.6 561.485 1
-1 2 -1 2719.6 113.383 10
1 -2 1 2500.8 165.89 3
-1 2 -1 2837.56 164.942 1
1 -2 1 2535.99 148.45 8
-1 2 -2 68256.9 761.737 10
-1 2 -2 71449.6 918.358 2
-1 2 -2 70214.5 859.374 1
1 -2 2 69812.6 704.624 8
-1 2 -3 910.096 117.676 10
-1 2 -3 1076.07 137.77 2
1 -2 3 1148.95 138.976 4
1 -2 3 1073.48 88.5561 8
-1 2 -4 37244.9 826.097 2
-1 2 -4 36823.4 818.371 10
1 -2 4 36567.9 806.961 4
-1 2 -5 12787.2 551.764 2
-1 2 -5 13276.2 563.118 10
1 -2 5 12625.4 521.297 4
1 -2 6 75899.6 1383.09 4
-1 2 -6 75849.3 1502.4 10
-1 2 -6 78168.1 1498.57 2
-1 2 -7 5268.07 456.653 10
1 -2 7 5504.62 409.883 4
-1 2 -8 20651.9 948.101 2
-1 2 -8 12537.1 757.573 10
1 -2 9 4602.16 489.457 21
-1 2 -9 4806 503.531 23
-1 2 -9 4128.1 471.792 25
-1 2 -10 248.631 142.268 25
1 -2 10 371.603 179.38 21
-1 2 -10 450.278 183.107 23
-1 2 -11 8818.54 677.712 25
-1 2 -11 9043.07 687.832 23
-1 2 -12 3715.27 408.717 25
-1 2 -12 3883.54 406.171 23
-1 2 -13 1344.79 198.531 25
1 -1 -12 599.034 169.357 23
1 -1 -11 -127.447 138.316 23
1 -1 -10 31435.3 1340.16 23
1 -1 -9 954.981 263.817 23
1 -1 -8 77987 2033.29 23
1 -1 -8 79867.3 1992.95 17
1 -1 -7 2725.2 341.297 10
1 -1 -6 40528.4 1076.63 7
1 -1 -6 40693.2 1142.74 10
1 -1 -6 41774.6 1116.63 12
1 -1 -5 1794.98 220.225 7
1 -1 -5 2116.2 245.849 10
1 -1 -5 2429.37 255.699 12
1 -1 -4 7740.29 393.176 7
1 -1 -4 7999.2 401.001 12
1 -1 -4 7909.39 391.067 10
1 -1 -3 55280.4 868.053 10
-1 1 3 52201.1 481.604 4
1 -1 -3 51085 892.496 7
1 -1 -3 53642.2 886.615 3
1 -1 -3 53328.7 936.083 12
-1 1 2 18152.2 247.68 4
1 -1 -2 19019.4 410.69 10
1 -1 -2 17978.2 463.765 3
-1 1 2 19148.5 295.734 6
1 -1 -1 16197.8 361.108 11
-1 1 1 16650.2 346.137 1
1 -1 -1 15733.3 379.571 3
1 -1 -1 17220.1 263.502 10
1 -1 -1 15724.6 340.443 5
-1 1 0 115890 708.27 1
1 -1 0 114586 893.128 3
1 -1 0 117418 857.779 7
-1 1 -1 236071 1338.29 2
1 -1 1 236366 847.572 7
1 -1 1 233647 1282.92 11
-1 1 -2 562267 2425.16 2
1 -1 2 557999 1675.35 3
-1 1 -3 131062 1379.37 2
1 -1 3 128275 847.239 11
-1 1 -4 3963.3 284.459 10
-1 1 -4 3651.98 280.13 2
1 -1 4 3359.72 248.813 4
-1 1 -5 116064 1721.1 10
-1 1 -5 118576 1718.57 2
1 -1 5 120016 1591.61 4
1 -1 6 24660.3 791.405 4
-1 1 -6 24237.7 872.869 2
-1 1 -6 23399.1 877.409 10
-1 1 -7 15497 785.6 10
-1 1 -7 15720.2 776.741 2
-1 1 -8 4303.28 441.718 2
-1 1 -8 3925.59 445.765 10
-1 1 -9 13055.4 834.579 23
-1 1 -9 13190.6 840.144 25
-1 1 -10 463.887 189.955 25
-1 1 -10 443.232 195.646 23
-1 1 -11 284.95 168.8 23
-1 1 -11 300.59 172.406 25
-1 1 -12 245.857 121.492 23
-1 1 -12 215.898 123.839 25
1 0 -12 906.943 225.698 23
1 0 -11 79.0081 150.672 23
1 0 -10 7428.36 669.184 23
1 0 -9 267.163 171.697 23
1 0 -8 26898.1 1096.03 10
1 0 -7 9548.7 601.371 10
1 0 -7 10076.2 609.844 12
1 0 -6 21530.8 805.827 10
1 0 -6 21892.3 746.872 7
1 0 -5 1835.1 216.626 10
1 0 -5 1572.63 193.077 7
1 0 -4 13527.7 489.675 10
1 0 -4 11826.8 451.242 7
1 0 -3 5023.08 262.977 7
1 0 -3 5504.39 195.038 11
1 0 -2 52194.9 660.896 10
1 0 -2 51277.1 605.304 8
1 0 -1 11704.8 179.492 6
1 0 -1 11574.7 240.766 10
-1 0 0 346626 1206.79 2
1 0 0 339990 1290.47 7
1 0 0 335988 1328.35 3
1 0 0 346211 1264.82 6
-1 0 -1 64868.3 726.376 2
1 0 1 63025.5 659.608 11
1 0 1 63888 635.503 5
-1 0 -2 414142 2261.13 2
1 0 2 407942 1702.81 11
1 0 3 228561 1934.74 6
-1 0 -3 225282 1146.05 7
-1 0 -3 227831 1975.68 2
1 0 3 230997 1264.1 11
1 0 4 33872.2 794.758 4
1 0 4 34716.3 869.011 6
-1 0 -4 33886 870.776 2
-1 0 -5 121754 1850.7 2
1 0 5 123288 1662.66 4
1 0 6 277.577 132.147 4
-1 0 -6 286.112 130.51 10
-1 0 -6 154.571 118.664 2
-1 0 -7 10165 643.012 2
-1 0 -7 9235.68 637.176 10
-1 0 -8 47133.5 1535.14 25
-1 0 -9 5309.39 536.535 25
-1 0 -9 5154.95 541.57 23
-1 0 -10 7879.61 648.015 25
-1 0 -10 8431.67 675.429 23
-1 0 -11 2553.19 353.716 23
-1 0 -11 2429.08 346.046 25
-1 0 -12 272.329 105.974 25
1 1 -13 103.688 107.394 23
1 1 -12 705.93 209.15 23
1 1 -11 161.909 146.619 23
1 1 -10 620.051 234.89 23
1 1 -9 8297.03 675.463 23
1 1 -8 28079.7 1098.66 10
1 1 -7 17544.8 794.191 10
1 1 -6 116126 1663.23 7
1 1 -6 117947 1833.44 10
1 1 -5 166803 1503.41 2
1 1 -5 163675 1775.96 7
1 1 -4 3348.65 180.206 2
1 1 -4 3058.92 238.342 10
1 1 -4 3319.62 150.159 11
1 1 -4 2745.7 211.076 7
1 1 -3 1116.5 94.756 11
1 1 -3 1130.28 125.443 7
1 1 -3 802.375 67.9636 2
1 1 -3 911.774 73.8325 8
1 1 -2 479279 2003.19 11
1 1 -2 477833 1826 9
1 1 -1 309.329 48.6445 1
1 1 -1 275.519 54.7766 6
1 1 0 12917.5 213.217 12
-1 -1 0 12910.4 298.23 2
-1 -1 -1 339430 1942.99 2
1 1 1 335486 1624.36 1
1 1 1 338397 1283.14 5
1 1 2 413713 2446.81 4
-1 -1 -2 415768 2548.31 2
1 1 2 420486 1425.61 5
-1 -1 -3 459.47 130.65 2
1 1 3 469.55 110.097 4
-1 -1 -3 446.106 82.6851 7
1 1 3 468.823 109.276 6
1 1 3 385.485 68.9554 11
-1 -1 -4 198.596 114.936 2
1 1 4 50.3807 102.655 6
1 1 4 214.458 104.679 4
1 1 5 42539 1136.6 6
1 1 5 40535.9 1024.07 4
-1 -1 -7 15496.3 850.422 10
-1 -1 -8 50.6033 130.618 23
-1 -1 -8 23.9975 117.328 25
-1 -1 -9 5542.76 547.741 25
-1 -1 -9 5345.99 551.169 23
-1 -1 -10 6525.81 583.93 23
-1 -1 -10 6776.3 590.028 25
-1 -1 -11 3901.8 402.077 23
-1 -1 -11 4548 430.15 25
-1 -1 -12 -59.8805 53.616 25
1 2 -13 5202.29 459.974 23
1 2 -12 1078.34 254.359 23
1 2 -11 801.943 243.971 23
1 2 -10 4247.07 502.186 23
1 2 -9 -322.679 171.343 23
1 2 -8 8755.44 616.749 10
1 2 -7 82207.4 1701.73 10
1 2 -6 6263.42 428.589 10
1 2 -5 3445.72 295.438 10
1 2 -5 3849.21 218.849 2
1 2 -4 43180.6 906.453 10
1 2 -4 43542.6 606.428 2
1 2 -4 45271.3 679.551 11
1 2 -3 49577.7 496.655 8
1 2 -3 50140.5 541.272 2
1 2 -3 49793.9 869.462 10
1 2 -2 896354 3076.7 1
1 2 -1 45998.5 656.168 1
1 2 0 999999 3255.3 1
1 2 1 496911 2589.45 1
1 2 1 497729 2809.69 6
1 2 2 57218.2 1029.3 4
1 2 2 58484.4 1048.17 6
1 2 2 59773.2 1005.14 1
1 2 3 32910.1 850.819 1
1 2 3 34037.5 900.734 6
-1 -2 -3 34679.4 793.939 7
1 2 3 34525.9 881.921 4
1 2 4 59306.4 1247.9 4
1 2 4 56335.9 1236.21 1
1 2 4 58035.8 1288.03 6
1 2 5 3445.08 351.129 6
1 2 5 2995.8 342.039 1
1 2 5 3143.31 313.84 4
1 2 6 -109.577 131.28 1
1 2 6 -311.176 151.96 6
-1 -2 -7 712.576 212.416 17
-1 -2 -7 674.032 226.128 25
-1 -2 -8 2023.57 334.088 25
-1 -2 -8 1866.12 332.561 23
-1 -2 -9 1639.9 318.713 23
-1 -2 -9 1665.5 311.995 25
-1 -2 -10 1765.78 294.834 25
-1 -2 -10 2083.83 322.147 23
-1 -2 -11 41.7365 74.9572 25
-1 -2 -11 -32.9977 56.2918 23
1 3 -13 159.563 106.975 18
1 3 -13 57.8615 104.836 23
1 3 -12 468.416 201.439 23
1 3 -11 745.155 239.548 23
1 3 -10 2301.46 383.494 23
1 3 -9 3079.62 411.056 23
1 3 -8 11175.1 690.087 10
1 3 -7 40315 1207.78 10
1 3 -5 27196 835.956 10
1 3 -4 376.934 118.201 10
1 3 -4 495.643 81.2328 2
1 3 -3 7832.52 391.895 10
1 3 -3 8417.71 385.105 6
1 3 -2 97209.2 1206.94 1
1 3 -2 100127 1277.08 6
1 3 -2 95804.2 1266.47 10
1 3 -1 47710.8 840.476 1
1 3 -1 47209.8 889.622 6
1 3 0 275672 2121.39 1
1 3 0 277569 2265.41 6
-1 -3 -1 4062.22 233.404 3
1 3 1 3934.78 283.182 1
1 3 1 3716.82 290.967 4
1 3 1 4050.44 300.066 6
1 3 2 289773 2608.7 4
1 3 2 289065 2579.75 1
1 3 2 285408 2585.72 6
1 3 3 152992 2059.38 4
1 3 3 150048 2067.77 6
-1 -3 -3 150808 1928.58 7
1 3 3 149452 2053.56 1
1 3 4 34471.2 1076.89 6
1 3 4 35425.3 1062.12 4
1 3 4 34207.8 1077.53 1
1 3 5 8059.41 581.578 1
1 3 5 8033.51 569.37 6
1 3 6 27979.6 1122.4 6
-1 -3 -6 25495.6 1154.88 17
-1 -3 -6 25601.9 1136.04 25
-1 -3 -7 96.7452 120.685 25
-1 -3 -7 113.092 156.156 17
-1 -3 -8 5540.89 550.387 25
-1 -3 -8 5061.63 538.35 23
-1 -3 -8 5746.96 586.337 17
-1 -3 -9 287.711 149.57 23
-1 -3 -9 386.586 159.176 25
-1 -3 -10 6487.51 489.482 25
-1 -3 -10 7070.02 518.46 23
1 4 -13 893.661 228.825 23
1 4 -12 80.3599 125.615 23
1 4 -12 -81.3082 122.27 18
1 4 -11 9731.52 754.563 23
1 4 -10 168.559 136.653 23
1 4 -9 66.8904 128.7 23
1 4 -8 14005.8 795.983 10
1 4 -7 37238.5 1201.93 10
1 4 -6 5350.7 427.384 10
1 4 -5 16075 678.704 10
1 4 -4 41021.7 1024.43 10
1 4 -4 41104.6 993.285 6
1 4 -4 43608 806.155 2
1 4 -3 23339.1 706.832 1
1 4 -3 23489.5 727.626 6
1 4 -3 22695.5 717.391 10
1 4 -2 20143.7 669.135 6
1 4 -2 20043.4 641.778 1
1 4 -1 459.626 131.157 6
1 4 -1 32.1861 73.6405 1
1 4 0 8556.02 444.302 1
1 4 0 9452.25 487.417 6
1 4 1 43507.1 1107.02 4
1 4 1 45238 1077.38 1
-1 -4 -1 43312.6 888.043 3
1 4 1 44800.9 1095.25 6
1 4 2 14710.2 659.379 6
1 4 2 14974.1 668.108 1
1 4 2 15861.7 694.582 4
1 4 3 11237.2 624.24 4
1 4 3 11131.5 636.087 1
-1 -4 -3 10988.5 608.277 7
1 4 3 11155.6 625.038 6
1 4 4 10359.2 665.266 1
1 4 4 11884.3 681.452 4
1 4 4 10475.4 651.251 6
-1 -4 -5 93.366 100.362 25
-1 -4 -5 -55.3078 128.627 17
-1 -4 -6 24331.9 1169.42 17
-1 -4 -6 26059.2 1183.54 25
-1 -4 -7 6408.3 610.922 17
-1 -4 -7 5677.29 556.963 25
-1 -4 -8 6879.17 606.51 23
-1 -4 -8 6418.2 574.584 25
-1 -4 -9 6909.84 531.375 25
-1 -4 -9 7528.99 568.849 23
-1 -4 -10 1197.08 180.307 25
-1 -4 -10 1160.57 185.004 23
1 5 -13 399.694 172.675 23
1 5 -12 -82.6837 139.609 23
1 5 -12 234.917 134.103 18
1 5 -11 716.918 233.682 18
1 5 -11 242.156 153.431 23
1 5 -10 6792.46 635.318 23
1 5 -10 6460.61 603.744 18
1 5 -9 10227.7 742.014 18
1 5 -9 10300.9 757.515 23
1 5 -8 27673.3 1093.5 6
1 5 -8 43688.3 1427.4 10
1 5 -7 8604.59 584.474 6
1 5 -7 8330.05 592.662 10
1 5 -6 13312.5 680.792 6
1 5 -6 13094.7 701.476 10
1 5 -5 3456.17 350.536 10
1 5 -5 3234.72 326.828 6
1 5 -4 12851.9 613.191 10
1 5 -4 12758 612.216 6
1 5 -3 82695.7 1530.79 6
1 5 -3 87002 1547.35 10
1 5 -3 83352.5 1500.83 1
1 5 -2 1074.62 184.617 6
1 5 -2 1177.69 198.574 1
1 5 -1 27201.9 873.844 1
1 5 -1 27226.2 889.955 6
-1 -5 0 23696.3 764.244 3
1 5 0 24128.6 855.675 1
1 5 0 23233.5 852.945 6
1 5 1 5570.98 446.81 4
1 5 1 5578.46 444.814 6
1 5 1 6194.08 458.916 1
1 5 2 23734.3 934.11 6
1 5 2 24017.3 942.161 4
1 5 2 24266 961.419 1
-1 -5 -3 149.535 132.351 7
1 5 3 -17.0756 109.242 4
-1 -5 -4 9030.75 688.278 25
-1 -5 -4 8848.48 681.965 17
-1 -5 -5 16809.9 953.049 25
-1 -5 -5 14910.1 911.136 17
-1 -5 -6 12426.5 844.064 17
-1 -5 -6 12145.5 813.945 25
-1 -5 -7 12123.8 789.212 25
-1 -5 -7 11469.2 798.018 17
-1 -5 -8 8495.72 600.206 25
-1 -5 -8 7693.69 585.839 23
-1 -5 -9 128.593 87.2106 23
-1 -5 -9 86.0191 65.7806 25
1 6 -13 34.1349 102.187 23
1 6 -12 1433.56 294.824 23
1 6 -11 7009.85 640.178 23
1 6 -11 7515.17 636.797 18
1 6 -10 2969.03 397.774 25
1 6 -10 3457.74 463.327 23
1 6 -10 3520.32 450.993 18
1 6 -9 3122.89 400.377 25
1 6 -9 3724.72 476.85 23
1 6 -9 3437.89 446.242 18
1 6 -8 20023.7 1018.41 18
1 6 -8 19531.1 963.064 25
1 6 -8 19589.2 966.259 20
1 6 -8 18729.2 993.142 23
1 6 -7 4475.36 444.877 6
1 6 -7 2995.14 393.124 10
1 6 -6 6611.95 516.48 6
1 6 -6 5965.04 499.592 10
1 6 -5 12029.9 669.994 6
1 6 -5 11336.7 653.945 10
1 6 -4 329.781 155.45 1
1 6 -4 176.619 106.133 6
1 6 -3 1665.73 261.781 6
1 6 -3 1622 243.562 1
1 6 -2 23017.7 897.758 6
1 6 -2 24405.2 915.977 1
1 6 -1 81.3595 116.19 1
-1 -6 1 50.8247 90.6989 3
1 6 -1 146.645 103.35 6
1 6 0 70371 1646.82 6
1 6 0 72727.3 1722.88 4
1 6 0 72060.5 1664.24 1
1 6 1 25427.5 1038.26 4
1 6 1 24900.3 1015.51 6
1 6 1 25341.3 1049.94 1
1 6 2 7088.66 570.881 6
1 6 2 6624.96 552.548 4
-1 -6 -2 5741.95 540.052 7
1 6 2 7268.76 593.919 1
-1 -6 -3 891.57 238.557 25
-1 -6 -3 1100.97 252.076 17
-1 -6 -4 52.3343 119.057 17
-1 -6 -4 -131.454 142.553 25
-1 -6 -5 2005.46 343.254 17
-1 -6 -5 1848.93 325.633 25
-1 -6 -6 126.571 142.786 25
-1 -6 -6 162.306 148.48 17
-1 -6 -7 2137.11 324.87 17
-1 -6 -7 2107.73 301.846 25
-1 -6 -8 849.997 169.805 25
-1 -6 -8 1028.34 189.764 23
1 7 -13 263.944 130.478 23
1 7 -12 2006.04 327.842 23
1 7 -11 139.586 134.243 25
1 7 -11 187.421 175.874 23
1 7 -10 5399.86 551.022 18
1 7 -10 5913.2 554.421 25
1 7 -10 5612.5 579.952 23
1 7 -9 437.377 189.967 18
1 7 -9 72.0565 150.617 23
1 7 -9 -75.3212 137.098 20
1 7 -9 152.672 120.011 25
1 7 -8 7941.36 658.486 18
1 7 -8 8607.19 668.193 25
1 7 -8 8497.31 673.083 20
1 7 -8 8161.29 683.867 23
1 7 -7 2746.79 391.004 23
1 7 -7 3339.49 420.535 20
1 7 -6 3127.92 402.645 10
1 7 -6 3823.96 422.176 6
1 7 -5 -79.2727 75.01 6
1 7 -4 829.113 203.39 6
1 7 -4 1885.43 303.162 1
1 7 -3 7281.8 561.724 6
1 7 -3 11271 694.216 1
1 7 -2 195.508 119.504 6
1 7 -2 315.991 155.734 1
-1 -7 2 234.507 142.602 3
1 7 -1 6587.06 548.926 6
1 7 -1 9451.38 655.399 1
1 7 0 36459.3 1304.02 6
1 7 0 38063.9 1337.54 1
-1 -7 -1 6335.82 587.251 25
-1 -7 -2 9391.64 720.07 25
-1 -7 -2 8318.61 657.735 17
-1 -7 -3 744.734 234.94 25
-1 -7 -3 1167.44 281.377 17
-1 -7 -4 730.945 224.025 25
-1 -7 -4 356.922 178.646 17
-1 -7 -5 372.025 164.287 25
-1 -7 -5 345.129 161.698 17
-1 -7 -6 -25.3347 92.4588 25
-1 -7 -6 74.9092 110.062 17
-1 -7 -7 2856.95 300.507 23
-1 -7 -7 2695.46 287.457 25
1 8 -13 540.792 155.925 23
1 8 -12 7039.26 565.107 23
1 8 -11 1717.33 322.696 23
1 8 -10 14435.8 908.881 23
1 8 -10 15557.4 880.123 20
1 8 -9 14104.5 909.511 23
1 8 -9 15970.6 926.775 20
1 8 -8 5561.98 565.923 20
1 8 -8 5089.51 553.407 23
1 8 -7 34387.5 1389.65 23
1 8 -7 33542.2 1351.35 20
1 8 -6 20621.2 1063.79 23
1 8 -6 19480.9 1029.35 20
1 8 -5 761.532 211.87 20
1 8 -4 1088.88 265.436 20
-1 -8 3 6829.03 599.37 14
1 8 -3 7557 626.123 20
1 8 -2 1958.13 329.042 20
1 8 -1 8462.52 651.155 20
-1 -8 1 8759.74 691.462 25
-1 -8 0 2894.7 411.059 25
-1 -8 -1 1826.28 333.675 25
-1 -8 -2 416.569 189.429 25
-1 -8 -3 -117.412 133.593 17
-1 -8 -3 -87.8106 125.506 25
-1 -8 -4 -27.6185 107.13 25
-1 -8 -4 -132.062 109.298 17
-1 -8 -5 685.337 172.768 25
-1 -8 -5 805.467 196.069 17
-1 -8 -6 1968.05 234.149 25
1 9 -12 764.064 185.237 23
1 9 -11 3383.92 408.47 23
1 9 -11 3654.47 375.351 20
1 9 -10 458.063 218.5 23
1 9 -10 425.984 163.539 20
1 9 -9 11339.9 809.755 23
1 9 -9 11810 793.978 20
1 9 -8 57104.6 1807.76 23
1 9 -8 57677.1 1790.59 20
1 9 -7 774.609 239.837 20
1 9 -6 41170.3 1522.36 20
1 9 -5 1844.14 341.673 20
1 9 -4 6507.37 603.828 20
1 9 -3 1580.49 319.565 20
1 9 -2 8259.83 661.021 20
-1 -9 1 800.243 236.523 25
-1 -9 0 21252.4 1093.89 25
-1 -9 -1 5639.88 561.442 25
-1 -9 -2 4295.3 472.089 25
-1 -9 -3 795.152 192.932 25
-1 -9 -4 1485.91 235.287 25
1 10 -11 196.296 95.5123 20
1 10 -10 -38.3689 96.3013 20
1 10 -9 3791.11 441.259 20
1 10 -8 528.702 210.092 20
1 10 -7 25549.3 1176.28 20
1 10 -6 11661.7 800.914 20
1 10 -5 762.406 247.754 20
1 10 -4 9832 724.225 20
1 10 -3 282.286 161.001 20
-1 -10 3 305.67 184.151 25
-1 -10 2 6129.2 591.422 25
1 10 -2 6443.72 559.242 20
-1 -10 1 7081.54 618.071 25
-1 -10 0 9082.95 667.523 25
-1 -10 -1 4810.55 468.622 25
-1 -10 -2 -25.6642 86.2862 25
-1 -10 -3 776.222 155.848 25
1 11 -10 688.42 169.598 20
1 11 -9 3600.66 380.511 20
1 11 -8 293.901 156.002 20
1 11 -7 5100.54 504.35 20
1 11 -6 1072.31 252.429 20
1 11 -5 10261.6 693.534 20
1 11 -4 2076.22 309.387 20
-1 -11 4 2256.89 349.962 25
1 11 -3 1616.57 267.443 20
-1 -11 3 1052.27 240.358 25
-1 -11 2 3959.65 426.986 25
-1 -11 1 430.36 160.221 25
-1 -11 0 4428.53 399.141 25
1 12 -8 526.601 152.327 20
-1 -12 7 2626.96 302.274 25
1 12 -7 2854.39 316.054 20
1 12 -6 1470.42 233.842 20
-1 -12 6 1199.58 223.952 25
1 12 -5 1332.02 219.427 20
-1 -12 5 1069.98 208.153 25
1 12 -4 -5.05612 67.2028 20
-1 -12 4 61.7621 100.663 25
-1 -12 3 153.698 96.3322 25
2 -12 0 -34.506 76.3882 17
2 -12 1 1489.4 230.045 17
2 -12 2 164.159 100.222 17
2 -12 3 -49.6355 90.1597 17
2 -12 4 2177.63 328.025 14
2 -12 4 2478.66 308.15 25
2 -12 4 2322.99 304.264 17
2 -12 5 154.676 88.6744 17
2 -12 5 -54.283 122.796 14
2 -12 6 1846.07 294.247 14
-2 12 -6 2183.63 289.959 20
-2 12 -7 4913.09 428.988 20
2 -12 7 5176.67 438.681 14
-2 12 -8 1300.69 229.994 20
-2 12 -9 38.9725 98.3493 20
2 -11 -2 6608.37 469.204 17
2 -11 -1 598.025 187.817 17
2 -11 0 13345 771.232 17
2 -11 1 877.867 225.763 17
2 -11 2 6364.2 591.683 14
2 -11 2 7155.5 603.265 17
2 -11 3 322.396 189.064 14
2 -11 4 -56.4877 146.6 14
2 -11 5 2292.64 368.066 14
-2 11 -5 2070.45 311.819 20
2 -11 6 6037.47 559.262 14
-2 11 -6 6213.25 547.837 20
2 -11 7 5418.05 512.262 14
-2 11 -7 5228.55 506.936 20
-2 11 -8 2123.56 332.553 20
-2 11 -9 1326.48 259.539 20
-2 11 -10 3892.73 388.725 20
2 -10 -4 290.645 135.782 17
2 -10 -3 3891.1 409.491 17
2 -10 -2 11.7251 134.89 17
2 -10 -1 16651.4 929.826 17
2 -10 0 42999.5 1527.07 14
2 -10 0 40093.7 1478.35 17
2 -10 1 5004 544.128 14
2 -10 1 5392.95 561.263 17
2 -10 2 26420.8 1240.44 14
2 -10 3 3219.76 451.611 14
2 -10 4 95.8798 159.001 14
2 -10 5 8222.9 691.247 14
-2 10 -5 8623.33 677.284 20
2 -10 6 131.784 140.799 14
-2 10 -6 232.04 149.507 20
2 -10 7 10032.9 729.44 14
-2 10 -7 9832.74 740.585 20
-2 10 -8 4160.22 486.864 20
-2 10 -9 2225.9 348.461 20
-2 10 -10 939.03 227.904 20
-2 10 -11 -43.8842 102.596 20
2 -9 -5 6151.68 489.458 17
2 -9 -4 1852.18 320.307 17
2 -9 -3 871.599 253.023 17
2 -9 -2 2918.82 426.7 17
2 -9 -1 435.24 202.67 14
2 -9 -1 326.736 196.467 17
2 -9 0 5809.97 581.908 14
2 -9 0 5653.76 583.465 17
2 -9 1 132.872 124.035 14
2 -9 2 20496.1 1077.93 14
2 -9 3 13699.7 886.435 14
2 -9 4 22586.5 1128.59 14
-2 9 -4 22578.2 1068.63 20
2 -9 5 10392.8 766.338 14
-2 9 -5 10337.7 745.193 20
2 -9 6 15704.7 933.34 14
-2 9 -6 14110.5 884.197 20
2 -9 7 5205.01 541.841 14
-2 9 -7 4381.33 509.127 20
-2 9 -8 15407.1 915.679 25
-2 9 -8 14389.3 905.176 20
-2 9 -9 6662.46 599.754 25
-2 9 -9 6470.27 608.79 20
-2 9 -10 194.991 163.677 25
-2 9 -10 105.791 135.711 20
-2 9 -11 1583.2 281.596 25
-2 9 -11 2016.03 308.619 20
-2 9 -12 310.777 118.459 20
2 -8 -7 603.639 151.181 17
2 -8 -7 618.552 142.242 23
2 -8 -6 6555.95 528.822 17
2 -8 -5 682.066 219.35 17
2 -8 -4 10222.3 755.534 17
2 -8 -3 4631.08 532.628 17
2 -8 -2 1401.78 297.999 14
2 -8 -2 1457.32 323.102 17
2 -8 -1 20903.9 1087.58 17
2 -8 -1 22644.3 1117.98 14
2 -8 0 3835.87 464.643 14
2 -8 1 23401.9 1108.61 14
2 -8 2 33466 1310.14 14
2 -8 2 33563.3 1279.61 7
2 -8 4 7911.91 640.185 14
-2 8 -4 7877.19 591.855 6
2 -8 5 4844.14 502.848 14
-2 8 -5 4131.2 464.983 20
2 -8 6 1829.57 318.921 14
-2 8 -6 1877.13 329.305 25
-2 8 -6 1610.86 307.868 20
2 -8 7 1948.42 326.69 14
-2 8 -7 1990.82 339.998 25
-2 8 -7 1792.61 347.749 20
-2 8 -8 15759.9 928.431 25
-2 8 -8 17105.9 989.323 20
-2 8 -9 1705.1 328.593 25
-2 8 -9 2518 392.947 20
-2 8 -10 3369.28 440.536 25
-2 8 -10 3013.24 412.647 20
-2 8 -11 381.221 171.597 25
-2 8 -11 677.136 216.034 20
-2 8 -12 2135.83 289.001 20
-2 8 -12 2061.22 301.582 25
2 -7 -8 2680.31 287.068 17
2 -7 -8 2804.6 300.352 23
2 -7 -8 3063.21 317.509 19
2 -7 -7 -97.0588 107.494 17
2 -7 -6 1244.56 283.826 17
2 -7 -5 2546.5 388.485 17
2 -7 -4 118.973 143.958 17
2 -7 -3 781.178 231.839 17
2 -7 -2 15820.7 920.142 17
2 -7 -2 15800.2 892.272 14
2 -7 -1 -193.174 99.326 3
2 -7 -1 95.5693 146.783 7
-2 7 1 130.771 128.412 1
-2 7 0 9704.43 658.498 1
2 -7 0 9914.95 647.917 3
2 -7 0 9959.03 684.961 7
2 -7 1 26628.6 1056.59 3
-2 7 -1 24054.5 1007.03 1
2 -7 1 27459.9 1085.81 7
2 -7 2 24692 1012.15 3
2 -7 2 24804.3 994.698 7
-2 7 -2 24179 987.115 1
2 -7 3 7791.69 524.821 5
2 -7 3 7344.48 521.941 7
-2 7 -3 7717.81 518.316 6
-2 7 -3 6933.89 550.434 2
2 -7 3 7232.45 541.325 3
-2 7 -3 6828.6 530.177 1
-2 7 -4 19001 893.337 2
-2 7 -4 16142.3 819.448 1
2 -7 4 16220.1 818.204 3
-2 7 -4 18230.5 824.251 6
-2 7 -5 6225.26 530.21 2
2 -7 5 5475.26 491.623 3
-2 7 -6 2983.51 377.124 2
2 -7 6 2112.08 299.056 3
2 -7 7 9598.2 688.893 14
-2 7 -7 9327.23 701.652 20
-2 7 -7 8879.24 675.073 25
-2 7 -8 44038.1 1529.88 25
-2 7 -8 47326 1606.97 20
-2 7 -9 4376.88 506.768 20
-2 7 -9 4953.32 538.744 25
-2 7 -10 10211.7 758.074 25
-2 7 -10 10749.2 767.431 20
-2 7 -11 1327.25 266.003 20
-2 7 -11 1340.6 288.575 25
-2 7 -12 10578.1 678.395 25
-2 7 -12 9830.11 596.041 20
-2 7 -13 -31.4798 79.0967 25
2 -6 -9 2734.91 288.993 19
2 -6 -9 3114.92 319.699 23
2 -6 -8 492.593 171.912 17
2 -6 -8 745.077 205.717 23
2 -6 -7 1280.74 285.547 17
2 -6 -6 16431 963.879 17
2 -6 -5 1933.57 346.049 17
2 -6 -4 21374.7 1086.01 17
2 -6 -3 1074.66 219.822 9
2 -6 -2 7182.87 519.991 9
-2 6 2 6533.65 534.802 1
2 -6 -2 7798.35 562.879 3
2 -6 -1 1348.39 253.938 7
-2 6 1 1435.38 233.214 1
2 -6 -1 1631.77 248.867 3
2 -6 0 24656 964.383 7
2 -6 0 22920.4 905.272 3
-2 6 0 22756.5 902.573 1
2 -6 1 18352.3 792.974 7
-2 6 -1 16704.3 742.687 1
2 -6 1 16422.2 753.866 3
-2 6 -2 35330.2 961.776 6
2 -6 2 36473.5 1057.42 7
-2 6 -2 33360.6 1040.93 1
2 -6 2 33588.9 1065.51 3
2 -6 2 35054 994.822 5
-2 6 -3 22531.7 813.884 6
2 -6 3 23156.9 811.625 7
2 -6 3 19790.2 819.487 3
-2 6 -3 20279.2 811.942 1
-2 6 -3 23051.4 884.544 2
2 -6 4 9489.72 570.643 3
-2 6 -4 9600.21 573.828 1
-2 6 -5 4913.72 431.88 2
2 -6 5 4409.79 396.23 3
-2 6 -6 6360.44 506.232 2
-2 6 -7 24334.2 1039.82 2
-2 6 -8 11673.1 776.573 25
-2 6 -9 6162.65 587.667 25
-2 6 -10 17657.9 993.939 25
-2 6 -10 19844.5 1033.14 20
-2 6 -11 2173.85 340.946 20
-2 6 -11 2333.05 371.831 25
-2 6 -12 4295.32 455.111 25
-2 6 -13 526.433 150.127 25
2 -5 -9 5596.96 471.746 17
2 -5 -9 6146.17 520.292 23
2 -5 -9 5779.64 486.22 19
2 -5 -8 2307.77 350.736 17
2 -5 -8 2007.77 344.183 23
2 -5 -7 10115.5 754.052 17
2 -5 -6 2.14455 103.926 17
2 -5 -5 9563.31 721.617 17
2 -5 -5 8824.19 674.558 16
2 -5 -4 8231.49 598.544 9
2 -5 -4 7344.33 583.903 7
2 -5 -3 1642.37 254.815 3
2 -5 -3 1422.66 252.752 7
2 -5 -3 1214.28 230.487 9
-2 5 3 1466.31 241.25 1
2 -5 -2 25391.4 908.562 9
2 -5 -2 26436.1 987.78 7
2 -5 -2 25250.2 920.335 3
-2 5 2 23294 913.828 1
2 -5 -1 825.174 198.197 7
-2 5 1 1616.93 224.179 1
2 -5 -1 1191.68 187.722 9
2 -5 -1 1292.62 212.323 3
2 -5 0 174711 1892.2 5
2 -5 0 177702 1997.15 9
2 -5 0 174432 2269.2 7
2 -5 0 170801 2219.27 3
2 -5 1 11106.2 503.594 5
-2 5 -1 10773.2 535.951 1
2 -5 1 11217.7 548.319 7
2 -5 1 11481.4 572.925 3
-2 5 -1 11868 472.125 6
-2 5 -2 188237 2194.99 1
2 -5 2 191495 2286.29 3
-2 5 -3 12276.2 574.182 1
-2 5 -3 13045.8 617.811 2
2 -5 3 12312.2 581.69 3
2 -5 3 13651.4 530.325 7
-2 5 -4 110185 1821.46 2
2 -5 4 106487 1720.94 3
-2 5 -5 108748 1889.87 2
2 -5 5 106929 1737.78 3
-2 5 -6 36560.5 1153 2
-2 5 -7 21890.6 959.748 2
-2 5 -8 466.825 175.978 25
2 -5 8 760.889 233.495 21
-2 5 -9 32794.9 1331 25
2 -5 9 31073.6 1305.42 21
-2 5 -10 1393.67 293.532 25
-2 5 -11 2877.37 408.453 25
-2 5 -12 3710.38 423.431 25
-2 5 -13 2838.89 321.4 25
2 -4 -10 4439.4 431.818 23
2 -4 -9 4760.7 474.092 17
2 -4 -9 5366.92 536.898 23
2 -4 -8 5313.29 544.591 17
2 -4 -8 5201.33 551.255 23
2 -4 -7 4576.83 509.563 17
2 -4 -6 4146.41 466.574 17
-2 4 5 31425.4 1195.69 1
2 -4 -5 27388.7 1094.8 7
2 -4 -4 6746.55 509.681 9
2 -4 -4 7140.69 524.724 7
2 -4 -4 7741.1 519.567 3
-2 4 4 6208.68 493.077 1
2 -4 -3 47958.2 1223.1 3
2 -4 -3 45673 1213.4 9
-2 4 3 45628.6 1217.53 1
2 -4 -3 45549.1 1246.33 7
2 -4 -2 23365.4 842.95 7
2 -4 -2 24790.7 827.674 3
-2 4 2 22476.5 795.838 1
2 -4 -2 23342.8 798.986 9
2 -4 -1 192912 2189.04 3
-2 4 1 187688 2106.44 1
2 -4 -1 194513 2263.32 7
2 -4 -1 193769 2110.94 9
2 -4 -1 195329 1840.93 5
2 -4 0 13638.2 560.58 7
2 -4 0 13220.6 506.73 9
-2 4 0 12945.9 395.628 6
-2 4 0 12777.1 524.5 1
2 -4 0 13260.1 561.679 3
2 -4 0 12567.6 480.272 5
2 -4 1 371.683 102.807 5
-2 4 -1 436.799 114.399 1
2 -4 1 362.466 102.55 3
-2 4 -2 57320.1 1065.53 1
-2 4 -2 58353.7 1151.44 2
2 -4 2 56645.4 1104.38 3
-2 4 -3 2993.15 200.882 10
2 -4 3 3230.29 235.348 8
-2 4 -3 2860.18 249.42 1
2 -4 3 2821.25 251.047 3
-2 4 -3 2772.77 264.634 2
-2 4 -4 71713.2 1145.95 10
-2 4 -4 68825.6 1360.21 2
2 -4 4 68249.2 1212.8 3
-2 4 -5 98318.7 1543.31 10
-2 4 -5 95292.7 1680.61 2
2 -4 5 98205.8 1463.21 3
-2 4 -6 38908.6 1159 2
-2 4 -6 40828.5 1119.96 10
-2 4 -7 1213.95 241.68 2
-2 4 -7 1694.28 264.972 10
-2 4 -8 21658.8 984.129 10
-2 4 -8 22759.8 1042.52 2
2 -4 9 7964.71 658.069 21
-2 4 -9 8377.34 672.378 25
-2 4 -10 19933.8 1052.15 25
2 -4 10 18137.2 999.218 21
-2 4 -11 12736 823.418 25
-2 4 -12 257.422 151.53 25
-2 4 -13 2489.9 294.735 25
2 -3 -11 12.4015 92.3534 23
2 -3 -10 269.257 152.877 23
2 -3 -9 729.388 211.11 17
2 -3 -9 692.553 225.089 23
2 -3 -8 1034.69 259.291 17
2 -3 -8 1082.6 279.422 23
2 -3 -7 20661.5 1036.83 17
-2 3 6 26460.4 1097.12 1
2 -3 -6 26647 1096.12 9
2 -3 -6 28422.2 1096.81 7
-2 3 5 7108.58 520.315 1
2 -3 -5 7868.87 558.584 9
2 -3 -5 6915.07 514.658 7
2 -3 -4 5446.43 431.314 9
2 -3 -4 5204.1 421.46 7
-2 3 4 4797.57 385.568 1
2 -3 -4 5618.52 424.155 3
2 -3 -3 18859.5 729.303 9
2 -3 -3 20607.4 763.269 7
2 -3 -3 20573.1 738.83 3
-2 3 3 19436 716.717 1
2 -3 -2 177438 2019.38 9
2 -3 -2 183653 2105.9 7
-2 3 2 178877 1953.62 1
2 -3 -2 183347 1737.37 5
2 -3 -1 18677.5 604.877 9
-2 3 1 17947 566.182 1
2 -3 -1 18496.6 622.408 7
2 -3 -1 17181.2 597.301 3
2 -3 -1 17841 532.443 5
2 -3 0 15961.5 518.6 9
2 -3 0 15563.3 533.785 8
-2 3 0 16678.6 502.934 1
-2 3 0 16053.2 365.602 6
2 -3 0 16938.6 540.06 7
2 -3 0 15264.4 491.094 5
2 -3 1 58499.2 1000.17 5
2 -3 1 58568.3 980.13 8
2 -3 1 60567.6 1022.01 3
2 -3 1 63162.1 944.895 7
-2 3 -1 61800.1 911.916 1
-2 3 -2 210330 1995.33 2
-2 3 -2 215647 1743.78 1
2 -3 2 213162 1802.29 8
2 -3 2 215836 1879.12 3
-2 3 -2 214971 1291.24 10
2 -3 3 18663.4 632.036 4
-2 3 -3 18987.1 498.646 10
2 -3 3 19474.2 533.331 8
-2 3 -3 19706.3 640.63 2
2 -3 3 19956.7 566.123 3
2 -3 4 2392.27 254.089 4
-2 3 -4 2367.25 217.554 10
-2 3 -4 2307.97 248.095 2
2 -3 4 2274.81 184.24 8
2 -3 4 2310.56 193.25 3
2 -3 5 45399 1134.41 4
-2 3 -5 47667.6 1095.83 10
-2 3 -5 44695.6 1135.55 2
2 -3 6 11605.8 622.168 4
-2 3 -6 11467.2 609.299 10
-2 3 -6 13064.4 678.779 2
-2 3 -7 19620.6 877.96 10
-2 3 -7 19975.2 906.261 2
-2 3 -8 42248.4 1407.81 10
-2 3 -8 40267.2 1391.35 2
-2 3 -9 2275.73 364.407 25
2 -3 9 2106.66 352.135 21
-2 3 -10 6891.13 623.872 25
2 -3 10 6604.5 604.623 21
-2 3 -11 1679.3 321.575 25
2 -3 11 1458.2 286.299 21
-2 3 -12 8353.35 607.445 25
-2 3 -13 3378.13 321.796 25
2 -2 -12 1121.91 195.928 23
2 -2 -11 2263.8 330.902 23
2 -2 -10 274.359 172.208 23
2 -2 -9 563.115 200.085 19
2 -2 -9 126.97 141.302 23
2 -2 -8 9202.64 721.239 23
2 -2 -7 13411 769.133 7
2 -2 -6 5199.56 464.07 9
2 -2 -6 4857.56 432.244 7
-2 2 6 4774.89 431.203 1
2 -2 -6 5849.33 468.3 12
2 -2 -5 9737.38 562.72 7
2 -2 -5 9310.28 542.857 12
-2 2 5 8724.7 525.553 1
2 -2 -4 145.431 64.5036 10
2 -2 -4 228.981 124.486 9
2 -2 -4 64.6351 90.3392 12
2 -2 -4 -184.955 108.573 7
2 -2 -4 98.0889 98.6954 3
-2 2 4 -54.9317 55.2694 1
-2 2 3 13212.8 512.079 1
2 -2 -3 13023 564.595 9
2 -2 -3 13399.3 563.41 7
2 -2 -3 14754.8 582.019 3
2 -2 -2 794.337 117.005 5
2 -2 -2 983.493 148.31 7
2 -2 -2 881.633 83.175 10
-2 2 2 1070.17 141.085 1
2 -2 -2 615.988 125.122 9
2 -2 -2 1145.98 171.76 3
2 -2 -1 50580.3 908.55 8
-2 2 1 52407.5 779.759 1
2 -2 -1 49482.1 916.772 3
2 -2 -1 51381.2 901.653 7
2 -2 -1 48531 852.825 5
2 -2 0 77099.6 1061.89 3
2 -2 0 74793.1 1037.26 5
-2 2 -1 44436.8 787.076 2
-2 2 -1 44963.8 411.074 10
2 -2 1 45939.6 798.553 4
2 -2 1 44908.9 793.708 8
2 -2 1 45821.8 655.354 7
2 -2 1 45593.7 767.961 3
-2 2 -1 45970.7 625.293 1
2 -2 1 45579.2 822.634 11
2 -2 2 132345 1237.55 3
2 -2 2 130782 1488.49 4
-2 2 -2 126770 1101.79 10
-2 2 -2 129968 1455.47 2
2 -2 2 128804 1333.48 8
2 -2 2 133291 815.181 7
2 -2 2 128849 1365.44 11
-2 2 -3 80880.6 1096.55 10
2 -2 3 82926.5 1294.03 4
-2 2 -3 81025 1259.49 2
2 -2 3 83799.3 1086.5 11
2 -2 4 14557 592.182 4
-2 2 -4 14597.6 593.065 2
-2 2 -4 14214 537.437 10
2 -2 5 13384.8 615.619 4
-2 2 -5 13971.2 615.799 10
-2 2 -5 14126.9 651.847 2
-2 2 -6 668.064 172.079 10
-2 2 -6 701.559 193.556 2
2 -2 6 655.558 159.364 4
2 -2 7 40550 1232.86 4
-2 2 -7 42326.3 1348.6 2
-2 2 -7 39847.1 1281.47 10
2 -2 8 4038.47 455.538 21
-2 2 -8 4547.92 488.895 25
-2 2 -9 123.944 118.286 25
2 -2 9 125.089 115.355 21
2 -2 10 3116.17 419.96 21
-2 2 -10 4124.26 489.947 25
-2 2 -11 57.6489 142.563 25
2 -2 11 144.565 118.546 21
-2 2 -12 1736.97 272.669 25
2 -1 -12 618.355 173.855 23
2 -1 -11 -168.064 140.675 23
2 -1 -10 9392.26 737.316 23
2 -1 -9 4188.28 494.996 23
2 -1 -8 14390.1 877.478 23
2 -1 -7 10628.3 673.433 9
2 -1 -7 9955.85 633.317 7
2 -1 -6 11267.7 584.471 10
2 -1 -6 10483.6 599.517 7
2 -1 -6 10570.2 608.571 12
2 -1 -5 61278.8 1201.83 10
2 -1 -5 58059.6 1286.65 7
2 -1 -5 58812.4 1322.92 12
2 -1 -4 431.938 96.2371 10
2 -1 -4 234.777 108.609 9
2 -1 -4 352.736 129.067 12
2 -1 -4 424.043 126.891 7
2 -1 -3 17009.5 586.696 9
2 -1 -3 16102.2 570.119 7
2 -1 -3 16385 587.272 12
2 -1 -2 11694.4 443.247 9
2 -1 -2 12462.1 473.14 3
2 -1 -2 12426.6 427.703 8
2 -1 -2 12736.4 435.247 11
2 -1 -2 12428 451.528 7
2 -1 -2 12018.3 458.047 12
2 -1 -2 13337 323.265 10
2 -1 -1 16400.2 342.521 4
2 -1 -1 15329.3 471.627 3
-2 1 1 15314.8 318.982 1
2 -1 -1 15263.3 442.376 7
2 -1 -1 16174.2 263.167 10
2 -1 -1 15512 476.473 11
-2 1 0 37609.3 595.296 2
2 -1 0 36441.8 609.206 7
-2 1 0 37538.6 338.538 1
2 -1 0 36425.3 660.188 3
2 -1 1 925014 3474.56 4
-2 1 -1 920147 3320.98 2
2 -1 1 923237 2471.68 7
2 -1 1 925269 3492.98 5
2 -1 1 894587 2962.59 3
2 -1 1 899362 3516.15 11
2 -1 2 350939 1618.29 3
2 -1 2 342885 2311.62 6
2 -1 2 335696 2366.65 4
-2 1 -2 335845 2292.35 2
2 -1 2 347554 2175.81 11
2 -1 2 347270 2250.55 5
2 -1 3 25762.6 654.352 5
-2 1 -3 23598.6 699.398 2
2 -1 3 25110.8 709.442 6
2 -1 3 25948.9 591.437 11
-2 1 -4 387.678 126.463 2
2 -1 4 413.857 135.882 4
2 -1 5 10327.1 550.507 4
-2 1 -5 10485.8 575.61 2
-2 1 -6 522.251 186.948 10
2 -1 6 329.591 147.288 4
-2 1 -6 383.512 144.635 2
-2 1 -7 309.634 167.029 10
2 -1 7 257.405 134.665 4
-2 1 -7 268.737 151.267 2
-2 1 -8 6734.47 598.767 25
2 -1 9 2581.52 381.472 21
-2 1 -9 2282.04 366.46 25
2 -1 10 17564.4 946.291 21
-2 1 -10 17593.8 982.223 25
2 -1 11 807.802 201.48 21
-2 1 -11 548.031 189.563 25
-2 1 -12 305.168 135.548 25
2 0 -12 447.342 171.929 23
2 0 -11 -184.486 157.446 23
2 0 -10 16779.1 984.628 23
2 0 -9 576.936 197.049 23
2 0 -8 13352.8 773.397 10
2 0 -8 13530.8 785.203 9
2 0 -8 13033.3 816.938 23
2 0 -8 12117.6 754.675 12
2 0 -7 2.44115 73.6973 10
2 0 -7 414.739 161.341 9
2 0 -7 502.842 148.182 7
2 0 -7 505.206 155.207 12
2 0 -6 30656.6 1029.05 12
2 0 -6 29791.7 938.07 10
2 0 -6 29118.1 963.371 9
2 0 -6 28540.8 941.426 7
2 0 -5 62.9243 77.8185 10
2 0 -5 67.8158 75.0019 9
2 0 -5 169.032 121.321 12
2 0 -5 114.573 84.8313 7
2 0 -4 233182 2284.95 7
2 0 -4 234827 2217.79 9
2 0 -4 247548 2107.89 10
2 0 -4 238302 2419.66 12
2 0 -4 254503 1944.38 11
2 0 -3 78946.9 1029.24 10
2 0 -3 74921.9 1137.29 9
2 0 -3 77075.5 1030.14 8
2 0 -3 77954.8 1240.08 12
2 0 -3 74967.3 1182.21 7
2 0 -3 79483.4 639.966 6
2 0 -3 81291.5 1087.71 11
2 0 -2 6959.33 269.043 10
2 0 -2 7421.4 187.828 4
2 0 -2 6064.62 304.486 9
2 0 -2 7558.38 316.131 8
2 0 -2 7283.28 188.774 6
2 0 -2 6520.31 315.522 7
2 0 -2 6924.14 317.345 11
2 0 -2 6966.86 336.469 12
2 0 -1 21310.5 425.765 4
-2 0 1 20762.8 323.368 2
2 0 -1 20341.3 371.987 6
2 0 -1 20332 418.954 10
-2 0 0 269121 1560.15 2
2 0 0 271285 1635.22 6
2 0 1 172351 1605.46 4
-2 0 -1 172915 1512.61 2
2 0 1 174012 1543.46 6
2 0 1 170126 1541.17 11
2 0 2 62608 1068 4
-2 0 -2 60652.9 1032.67 2
2 0 2 64092.2 1063.71 6
2 0 2 62270.4 889.515 5
2 0 2 63579 953.944 11
2 0 3 3537.09 289.477 4
-2 0 -3 3652.31 291.296 2
2 0 3 4021.17 308.867 6
2 0 3 4219.39 249.199 11
2 0 3 3933.23 239.727 5
2 0 4 11701.9 560.328 4
2 0 4 12742.1 449.151 5
2 0 4 12821.6 601.093 6
-2 0 -5 351.229 148.415 2
2 0 5 437.43 143.917 4
2 0 5 297.981 136.231 6
2 0 6 2735.96 322.065 4
-2 0 -6 2322.82 316.463 2
-2 0 -7 35059.8 1294.76 10
-2 0 -7 31802.7 1217.02 2
-2 0 -8 1327.93 286.096 25
2 0 9 17964.7 961.932 21
-2 0 -9 17786.3 989.659 25
-2 0 -10 1584.06 303.935 25
2 0 10 1766.5 309.391 21
-2 0 -11 6233.62 525.629 25
-2 0 -12 1157.91 194.25 25
2 1 -13 909.592 197.006 23
2 1 -12 8979.28 660.346 23
2 1 -11 833.74 260.721 23
2 1 -10 61350.3 1883.4 23
2 1 -9 2102.4 350.985 23
2 1 -8 57631.3 1538.34 9
2 1 -8 47655.9 1499.57 12
2 1 -7 541.065 152.266 10
2 1 -7 811.167 192.217 9
2 1 -7 561.581 156.792 7
2 1 -6 1297.89 214.119 10
2 1 -6 1457.82 219.969 9
2 1 -6 1264.37 209.384 7
2 1 -5 63367.6 1220.21 10
2 1 -5 61029.8 1172.31 9
2 1 -5 61703.1 1259.82 7
2 1 -4 4879.56 334.12 7
2 1 -4 5346.63 317.807 9
2 1 -4 5456.79 292.477 11
2 1 -4 4869.37 308.102 10
2 1 -3 1080.43 138.209 10
2 1 -3 930.087 125.97 9
2 1 -3 1096.4 84.1921 4
2 1 -3 912.582 142.933 7
2 1 -3 1246.84 145.788 11
2 1 -2 18046.3 491.518 10
2 1 -2 18210.5 529.044 11
2 1 -1 455.4 83.5056 12
-2 -1 1 294.49 51.2435 2
2 1 0 2014.83 100.742 1
2 1 0 1999.22 180.566 4
-2 -1 0 1898.77 154.841 2
2 1 0 1866.08 170.044 6
2 1 0 1877.41 182.939 11
2 1 1 5186.03 214.653 1
2 1 1 4765.26 299.981 4
-2 -1 -1 4545.26 278.234 2
2 1 1 4705.97 284.449 6
2 1 1 4873.7 290.476 11
2 1 2 276145 1884.5 1
2 1 2 268938 2406.32 4
2 1 2 272438 2405.07 6
2 1 2 274390 2192.18 11
2 1 3 7582.15 446.854 4
-2 -1 -3 7293.42 442.981 2
2 1 3 7638.71 456.495 6
2 1 3 8429.17 392.195 11
2 1 3 7974.9 386.221 1
2 1 4 207.687 129.627 6
2 1 4 405.161 139.099 4
2 1 4 225.412 109.02 1
-2 -1 -4 396.433 137.25 2
2 1 5 -288.087 140.701 4
2 1 5 242.985 120.956 1
2 1 5 -143.65 138.467 6
-2 -1 -5 145.672 104.004 2
2 1 6 7294.27 549.971 4
-2 -1 -6 7128.64 566.354 2
2 1 6 8161.92 562.47 1
-2 -1 -7 786.918 227.921 25
2 1 7 1117.18 262.073 22
-2 -1 -8 5199.81 543.694 25
-2 -1 -9 8395.8 685.206 25
-2 -1 -10 1484.79 283.292 25
-2 -1 -11 -72.5213 99.9552 25
2 2 -13 2456.86 308.776 18
2 2 -13 2390.74 314.842 23
2 2 -12 615.701 227.155 23
2 2 -11 8194.94 686.655 23
2 2 -10 6421.05 623.25 23
2 2 -9 1072.66 247.968 23
2 2 -8 14025.5 781.613 10
2 2 -7 2690.1 317.95 10
2 2 -6 8505.32 519.133 10
2 2 -5 85156.5 1487.07 10
2 2 -5 82691.1 1273.98 9
2 2 -5 87739.9 1283.14 6
2 2 -5 90788.2 1241.18 11
2 2 -4 99405.3 1474.5 10
2 2 -4 98816.9 1205.34 9
2 2 -4 103143 1302.77 6
2 2 -4 104217 1354.45 11
2 2 -3 185572 1892.54 10
2 2 -3 187536 1689.18 6
2 2 -3 186511 1833.52 11
2 2 -2 300531 2262.69 10
2 2 -2 300866 2133.85 6
2 2 -2 289951 2078.97 4
2 2 -2 292446 2339.19 11
2 2 -1 91124.9 930.535 1
2 2 -1 86346 1200.23 4
2 2 -1 86826.7 980.402 12
2 2 -1 91017.7 1235.01 6
2 2 -1 89490.5 1325.23 11
2 2 0 50811.5 980.68 4
2 2 0 52479.2 993.34 6
2 2 0 51826.9 1017.01 11
2 2 0 53324.1 770.592 1
2 2 1 93118.7 1431.5 4
2 2 1 91176.5 1390.62 6
2 2 1 92376.7 1403.29 11
2 2 2 162.517 89.8807 4
2 2 2 121.546 101.162 6
2 2 2 24.5134 74.3119 1
-2 -2 -2 136.525 75.4031 2
2 2 2 175.678 86.1261 11
2 2 3 187674 2116.12 1
2 2 3 184396 2361.06 4
2 2 3 184267 2367.49 6
2 2 3 189630 2091.92 11
2 2 4 75998.8 1512.11 1
2 2 4 72901.6 1616.62 6
2 2 4 75461.8 1607.16 4
2 2 5 17561.2 806.534 1
2 2 5 17006.4 812.937 4
2 2 5 16838 846.856 6
-2 -2 -6 10706.2 735.498 25
2 2 6 9092.36 630.421 4
2 2 7 -71.1144 133.459 22
-2 -2 -7 95.831 100.997 25
-2 -2 -8 23819.2 1154.32 25
-2 -2 -9 67.5445 126.581 25
-2 -2 -10 87.1142 117.221 25
-2 -2 -11 380.887 116.798 25
2 3 -13 8.52249 94.7793 18
2 3 -13 250.456 131.25 23
2 3 -12 1999.93 342.67 23
2 3 -11 27.7123 138.43 23
2 3 -10 -62.2296 166.878 23
2 3 -9 18672.1 1005.32 23
2 3 -8 2603.6 356.073 10
2 3 -7 145.421 133.313 10
2 3 -6 260.949 134.159 10
2 3 -6 554.516 138.775 6
2 3 -5 6762.71 454.101 10
2 3 -5 7104.51 411.451 6
2 3 -5 6833.65 387.197 11
2 3 -4 1013.83 183.344 10
2 3 -4 641.522 129.311 6
2 3 -4 1126.67 170.899 11
2 3 -3 173607 1886.94 6
2 3 -3 172137 1973.4 11
2 3 -3 173836 1992.92 10
2 3 -2 342091 2309.31 1
2 3 -2 342226 2658.8 6
2 3 -2 337506 2805.21 11
2 3 -1 230916 1889.47 1
2 3 -1 227951 2261.81 4
2 3 -1 231237 2270.55 6
2 3 0 2816.26 278.083 4
2 3 0 3028.43 233.848 1
2 3 0 2929.8 280.403 6
2 3 1 38509.1 888.014 1
2 3 1 36834.2 989.504 6
2 3 2 -34.6261 86.0783 1
2 3 2 20.021 104.611 4
2 3 2 39.7991 122.231 6
2 3 3 26979.4 895.385 11
2 3 3 24263 931.117 4
2 3 3 25078.7 872.771 1
2 3 3 25187.3 959.437 6
2 3 4 39999.4 1288.85 6
2 3 4 40464.9 1269.11 4
2 3 4 40436 1216.68 1
2 3 5 17684 883.792 4
2 3 5 19483.6 961.374 6
-2 -3 -6 770.986 223.321 17
2 3 6 703.971 218.424 22
-2 -3 -6 1060.87 257.137 25
-2 -3 -7 4104.47 488.663 25
-2 -3 -8 217.906 151.522 25
-2 -3 -9 511.581 181.187 25
-2 -3 -10 2252.1 276.444 25
2 4 -13 87.1616 113.36 23
2 4 -13 81.4918 104.77 18
2 4 -12 338.533 159.473 18
2 4 -12 515.147 205.468 23
2 4 -11 626.898 223.558 18
2 4 -11 346.366 173.562 23
2 4 -10 3590.28 471.403 23
2 4 -9 2004.31 346.483 23
2 4 -8 2239.3 340.297 10
2 4 -7 77709.5 1797.02 10
2 4 -6 3297.78 356.211 10
2 4 -6 2945 309.55 6
2 4 -5 2227.32 283.303 10
2 4 -5 2031.85 246.647 6
2 4 -5 2275.23 254.808 11
2 4 -4 82383.2 1495.49 6
2 4 -4 85228.7 1525.73 11
2 4 -4 81375.6 1560.26 10
2 4 -3 58163.7 1240.75 6
2 4 -3 59126.8 1290.82 11
2 4 -3 57622.7 1272.61 10
2 4 -2 29235.6 885.366 6
2 4 -2 30441.6 804.565 1
2 4 -1 60644.6 1149.05 1
2 4 -1 57458.2 1280.98 6
2 4 -1 58975.4 1313.09 4
2 4 0 37462.4 1081.09 4
2 4 0 38658.5 1090.24 6
2 4 1 17999.9 773.925 4
2 4 1 19003.2 795.446 6
2 4 1 20703 756.915 1
2 4 2 9952.57 571.422 1
2 4 2 9469.4 597.941 4
2 4 2 9648.24 604.281 6
2 4 2 10484.7 613.071 11
2 4 3 35947.7 1232.47 4
2 4 3 34690.5 1220.06 6
2 4 4 -515.58 183.672 4
-2 -4 -4 34.1852 110.464 25
-2 -4 -5 15427.6 905.573 17
-2 -4 -5 17634.4 972.154 25
2 4 5 16597.2 920.047 22
-2 -4 -6 1452.59 308.399 17
-2 -4 -6 1625.71 317.679 25
-2 -4 -7 168.171 157.263 25
-2 -4 -8 -194.026 131.327 25
-2 -4 -9 3075.33 341.211 25
2 5 -13 916.978 199.403 18
2 5 -13 766.994 196.041 23
2 5 -12 1570.7 301.514 23
2 5 -12 1243.68 273.923 18
2 5 -11 794.563 253.032 18
2 5 -11 987.7 278.599 23
2 5 -10 5442.82 577.9 23
2 5 -10 5415.59 575.677 18
2 5 -9 52867.2 1726.19 18
2 5 -9 52206.8 1711.38 23
2 5 -8 111984 2414.32 23
2 5 -8 108314 2397.3 18
2 5 -7 20579 968.15 10
2 5 -7 15993.2 797.457 6
2 5 -6 35074 1194.17 10
2 5 -6 35593 1144.63 6
2 5 -5 31250.2 1042.38 6
2 5 -5 34531.7 1080 11
2 5 -5 31954.1 1093.07 10
2 5 -4 4630.15 400.067 6
2 5 -4 4366.59 395.451 11
2 5 -4 4853.39 426.22 10
2 5 -3 5562.12 405.394 1
2 5 -3 5676.87 440.437 6
2 5 -2 40636.6 1066.59 1
2 5 -2 38798 1142.05 6
2 5 -1 5533.25 410.248 1
2 5 -1 5597.61 465.857 4
2 5 -1 4945.7 428.155 6
2 5 0 42634.9 1166.35 1
2 5 0 40693.9 1244.41 4
2 5 0 40256.4 1235.44 6
2 5 1 1331.43 268.578 4
2 5 1 1304.25 250.971 6
2 5 2 10710.8 692.925 6
2 5 2 11012.3 707.398 4
2 5 3 3677.28 444.905 22
-2 -5 -3 4047.59 460.588 25
-2 -5 -4 170.772 135.213 25
-2 -5 -4 471.15 184.83 17
2 5 4 137.681 139.671 22
-2 -5 -5 14058.6 877.248 17
-2 -5 -5 13737.3 879.056 25
-2 -5 -6 5982.34 576.659 17
-2 -5 -6 5622.83 558.847 25
-2 -5 -7 2751.19 380.86 25
-2 -5 -8 362.687 139.062 25
2 6 -13 1518.73 237.328 18
2 6 -13 1452.67 250.547 23
2 6 -12 581.229 193.142 18
2 6 -12 871.236 237.672 23
2 6 -11 748.271 233.828 18
2 6 -11 346.646 194.73 23
2 6 -10 18353.3 1036.95 18
2 6 -10 18613 1044.71 23
2 6 -9 11775.8 833.746 18
2 6 -9 12032.6 838.214 23
2 6 -8 13871.7 883.661 18
2 6 -8 14721.6 902.398 23
2 6 -7 13176.2 839.081 18
2 6 -7 12802.1 784.736 20
2 6 -7 14829.8 874.388 23
2 6 -7 12718.3 762.88 6
2 6 -6 6328.37 527.002 6
2 6 -6 10615.2 701.206 10
2 6 -5 8396.22 596.484 6
2 6 -5 8044.9 577.216 11
2 6 -4 5510.57 476.256 6
2 6 -3 60924.7 1474.75 1
2 6 -3 57638 1520.44 6
2 6 -2 12494.1 725.814 4
2 6 -2 12801.3 728.719 6
2 6 -2 12785 681.109 1
2 6 -1 23366.6 1005.7 4
2 6 -1 24284.1 1018.54 6
2 6 0 2891.58 387.738 4
2 6 0 3426.66 411.555 6
-2 -6 -1 24061.6 1106.09 25
2 6 2 7457.82 627.202 22
-2 -6 -2 6856.06 612.206 25
-2 -6 -3 2730.71 408.603 25
2 6 3 2182.95 352.563 22
-2 -6 -4 11491.2 776.206 17
-2 -6 -4 11234.7 798.481 25
-2 -6 -5 5513.89 531.845 17
-2 -6 -5 4969.06 533.166 25
-2 -6 -6 1290.92 266.219 25
-2 -6 -7 1057.88 211.537 25
2 7 -13 1515.2 247.242 23
2 7 -12 2223.45 336.62 23
2 7 -11 3203.15 416.506 18
2 7 -11 3086.43 418.358 23
2 7 -10 303.342 183.242 18
2 7 -10 299.59 181.843 23
2 7 -9 167.813 151.676 18
2 7 -9 405.486 174.929 23
2 7 -8 21936.2 1076.22 20
2 7 -8 21261.8 1099.32 23
2 7 -7 265.186 150.557 23
2 7 -7 58.4998 129.27 20
2 7 -6 13657.7 854.956 23
2 7 -6 12720.9 813.804 20
2 7 -5 4734.07 497.845 23
2 7 -5 4186.85 460.819 11
2 7 -5 3948.86 458.065 20
2 7 -4 1846.16 320.204 20
2 7 -4 897.384 223.237 11
2 7 -3 53.9122 160.991 4
2 7 -3 17.7679 111.944 20
2 7 -2 30821.2 1235.44 20
2 7 -1 23505.6 1087.59 20
-2 -7 1 23545.4 1105.02 25
-2 -7 0 45630.5 1564.61 25
2 7 0 45795.7 1509.8 20
-2 -7 -1 3779.2 474.625 25
2 7 1 3509.13 443.336 22
-2 -7 -2 3765.58 471.259 25
2 7 2 4073.32 477.263 22
-2 -7 -3 6625.93 610.173 25
-2 -7 -4 1514.73 307.88 25
-2 -7 -5 7348.29 581.161 25
-2 -7 -6 2196.07 286.822 25
2 8 -12 2919.92 316.105 13
2 8 -12 4017.36 412.351 23
2 8 -11 918.452 234.368 23
2 8 -10 -23.9483 126.51 23
2 8 -9 1648.99 319.589 23
2 8 -9 2124.72 334.166 20
2 8 -8 1402.36 308.648 23
2 8 -8 1147.19 263.906 20
2 8 -7 18287 1001.07 20
2 8 -7 17871.5 1014.62 23
2 8 -6 37002.1 1427.77 20
2 8 -5 7125.15 637.092 20
2 8 -4 29032.1 1258.6 20
2 8 -3 -16.0758 112.544 20
-2 -8 2 45600.3 1584.19 25
2 8 -2 46829.2 1583.87 20
-2 -8 1 2426.05 385.857 25
2 8 -1 2206.43 352.316 20
2 8 0 17257.9 970.764 22
-2 -8 0 16999.4 979.606 25
2 8 0 18806.4 976.164 20
-2 -8 -1 3114.67 437.584 25
2 8 1 3392.45 436.628 22
-2 -8 -2 423.446 210.419 25
-2 -8 -3 5107.64 508.851 25
-2 -8 -4 62.5673 121.503 25
-2 -8 -5 3533.46 342.096 25
2 9 -12 173.69 77.0162 13
2 9 -11 1274.89 241.808 23
2 9 -10 971.091 247.071 23
2 9 -10 1128.12 225.632 20
2 9 -9 203.548 126.428 20
2 9 -8 175.632 143.771 20
2 9 -7 319.63 165.189 20
2 9 -6 10167.3 770.42 20
2 9 -5 8338.02 692.565 20
2 9 -4 -22.7 138.091 20
-2 -9 3 11567.5 806.708 25
2 9 -3 11665.3 798.066 20
-2 -9 2 2874.27 417.824 25
2 9 -2 3000.89 408.89 20
-2 -9 1 992.555 255.268 25
2 9 -1 991.619 263.116 22
2 9 -1 804.515 213.441 20
2 9 0 19669.9 974.733 22
-2 -9 0 20631.8 1044.6 25
-2 -9 -1 1402.45 280.233 25
-2 -9 -2 15944.1 839.273 25
-2 -9 -3 1626.82 255.228 25
2 10 -11 -188.196 101.616 13
2 10 -10 161.266 86.0539 20
2 10 -9 4226.1 426.196 20
2 10 -8 23.4387 102.714 20
2 10 -7 81.8014 114.622 20
2 10 -6 5480.52 546.007 20
2 10 -5 2357.18 369.077 20
-2 -10 4 251.166 150.379 25
2 10 -4 132.212 144.158 20
-2 -10 3 942.856 233.866 25
2 10 -3 1096.69 246.603 20
-2 -10 2 428.709 182.472 25
2 10 -2 354.479 149.781 22
2 10 -2 585.538 186.421 20
2 10 -1 3380.6 386.731 22
-2 -10 1 3364.32 413.083 25
-2 -10 0 1634.49 279.676 25
-2 -10 -1 4286.81 400.484 25
-2 -11 9 1784.28 222.469 25
2 11 -9 2000.69 261.195 20
-2 -11 8 6423.32 462.511 25
2 11 -8 7476.82 526.055 20
-2 -11 7 1020.92 206.723 25
2 11 -7 1018.51 216.392 20
2 11 -6 -56.9131 133.903 20
-2 -11 6 -28.8518 100.838 25
-2 -11 5 1823.46 281.902 25
2 11 -5 1772.59 288.987 20
-2 -11 4 209.655 128.093 25
2 11 -4 274.214 132.105 20
-2 -11 3 126.774 104.025 25
2 11 -3 73.0176 94.5766 22
2 11 -2 -26.3104 86.4775 22
-2 -11 2 -45.036 106.561 25
-2 -11 1 1716.01 249.012 25
3 -12 1 5539.11 431.437 17
3 -12 2 2124.6 288.957 17
3 -12 3 -113.439 110.038 17
3 -12 3 76.7912 119.276 14
3 -12 4 988.883 219.921 14
3 -12 5 166.276 122.294 14
3 -12 6 981.04 217.586 14
3 -12 7 5165.43 434.303 14
-3 12 -7 5228.73 397.431 20
3 -12 8 70.3285 85.6536 14
-3 12 -8 151.353 102.533 20
3 -11 -2 46.1481 90.7822 17
3 -11 -1 462.761 152.861 17
3 -11 0 4036 430.599 17
3 -11 1 1815.72 315.876 17
3 -11 1 2014.83 318.753 14
3 -11 2 1603.42 306.766 17
3 -11 2 2145.12 337.52 14
3 -11 3 4254.78 477.646 14
3 -11 4 1547.76 308.1 14
3 -11 5 6931.39 610.166 14
3 -11 6 762.136 227.765 14
-3 11 -6 491.815 163.058 20
3 -11 7 2528.62 356.368 14
-3 11 -7 2419.32 332.99 20
3 -11 8 1845.7 286.681 14
-3 11 -8 1992.27 304.498 20
-3 11 -9 5943.34 479.856 20
-3 11 -10 698.943 173.616 20
3 -10 -4 454.707 124.122 19
3 -10 -4 736.605 168.448 17
3 -10 -3 1922.19 289.381 17
3 -10 -2 1805.58 310.369 17
3 -10 -1 4703.03 504.023 17
3 -10 0 6182 593.985 17
3 -10 0 6154.58 570.736 14
3 -10 1 9523.7 725.366 14
3 -10 2 10991.3 792.749 14
3 -10 3 5301 569.555 14
3 -10 4 5554.55 578.159 14
3 -10 5 6478.33 620.319 14
-3 10 -5 7491.07 612.642 20
3 -10 6 311.995 194.793 14
-3 10 -6 344.941 181.472 20
3 -10 7 24932.6 1147.52 14
-3 10 -7 22624.1 1083.78 20
3 -10 8 6106.2 549.508 14
-3 10 -8 4930.87 507.076 20
3 -10 9 869.917 211.554 14
-3 10 -9 603.121 209.183 20
-3 10 -10 4425.09 434.036 20
-3 10 -11 1148.31 212.048 20
3 -9 -5 309.521 136.829 17
3 -9 -4 3487.58 405.709 17
3 -9 -3 2115.72 343.986 17
3 -9 -2 11269.6 791.79 17
3 -9 -1 5000.19 550.173 17
3 -9 -1 4315.03 491.582 14
3 -9 0 13188.3 853.878 14
3 -9 1 1141.76 288.895 14
3 -9 2 2512.37 397.903 14
3 -9 3 8250.19 693.282 14
3 -9 4 -43.7678 156.38 14
3 -9 5 9320.96 737.533 14
-3 9 -5 8732.73 681.256 20
3 -9 6 1520.52 322.272 14
-3 9 -6 1697.57 331.671 20
-3 9 -7 445.96 205.261 20
3 -9 7 734.272 240.012 14
-3 9 -8 799.438 248.346 20
3 -9 8 1077.09 261.184 14
-3 9 -8 644.996 208.213 25
-3 9 -9 102.624 157.405 20
-3 9 -9 183.661 142.767 25
3 -9 9 -198.797 133.857 14
-3 9 -10 418.128 193.287 20
-3 9 -10 491.075 160.893 25
-3 9 -11 35.4792 122.99 20
-3 9 -11 186.858 105.587 25
3 -8 -6 -65.4811 96.9673 17
3 -8 -6 -207.2 109.425 23
3 -8 -5 5664.57 523.956 17
3 -8 -4 1924.3 337.497 17
3 -8 -3 4884.49 533.905 17
3 -8 -2 22485.1 1138.86 17
3 -8 -1 38096.8 1427.06 14
3 -8 0 150855 2853.19 14
3 -8 1 182.148 153.556 14
3 -8 2 72965.5 1964.85 14
3 -8 3 233.394 136.562 14
3 -8 4 10263.2 747 14
-3 8 -4 9960.85 701.99 20
-3 8 -5 554.399 188.834 20
3 -8 5 320.908 169.424 14
-3 8 -6 -47.9269 116.965 20
3 -8 6 90.6238 122.219 14
-3 8 -6 106.136 101.267 25
-3 8 -7 1592.21 317.743 20
-3 8 -7 1712.01 310.669 25
3 -8 7 1414.55 295.171 14
-3 8 -8 7167.59 618.172 25
3 -8 8 6673.88 599.857 14
-3 8 -8 5694.23 579.517 20
-3 8 -9 198.08 168.588 20
-3 8 -9 96.3564 116.562 25
3 -8 9 283.165 159.256 14
-3 8 -10 5195.11 510.051 25
-3 8 -10 5687.03 550.011 20
-3 8 -11 328.102 157.428 20
-3 8 -11 306.912 152.484 25
-3 8 -12 1476.49 242.627 25
-3 8 -12 1387.34 215.252 20
3 -7 -7 5795.21 501.195 19
3 -7 -7 5543.71 463.136 17
3 -7 -7 5704.7 470.516 23
3 -7 -6 3989.93 451.737 17
3 -7 -5 5741.94 569 17
3 -7 -4 510.577 191.964 17
3 -7 -4 655.947 218.107 16
3 -7 -3 4083.13 497.006 17
3 -7 -2 2318.15 360.909 17
3 -7 -1 25262.8 1110.34 14
-3 7 0 26969.5 1093.31 1
3 -7 0 28559.9 1151.43 3
-3 7 -1 17268 858.282 1
3 -7 1 17446.9 881.953 3
3 -7 2 36285.8 1256.19 3
-3 7 -2 35012.7 1197.87 1
3 -7 2 37152.5 1171.25 5
-3 7 -2 34826.6 1246.66 2
3 -7 3 62.7436 100.027 5
-3 7 -3 155.649 84.9584 1
-3 7 -3 26.8493 67.6946 2
3 -7 3 67.319 68.2745 3
-3 7 -4 5518.47 501.522 2
3 -7 4 5156.89 481.127 3
3 -7 5 17081.2 873.55 3
3 -7 6 32328.1 1293.4 14
-3 7 -6 31088.7 1219.67 25
-3 7 -7 13447.4 832.089 25
3 -7 7 14571.2 883.975 14
3 -7 8 11183.6 779.395 14
-3 7 -8 11070.9 772.912 25
-3 7 -9 557.358 204.035 25
-3 7 -10 607.992 220.931 20
-3 7 -10 541.008 203.097 25
-3 7 -11 5371.8 507.618 25
-3 7 -11 5697.84 512.969 20
-3 7 -12 78.7204 87.471 20
-3 7 -12 31.6716 112.694 25
3 -6 -8 7930.56 579.838 19
3 -6 -8 7932.63 531.395 17
3 -6 -8 7971.03 558.237 23
3 -6 -7 3125.03 386.73 17
3 -6 -7 3609.46 421.233 23
3 -6 -6 16808.8 945.267 17
3 -6 -5 7336.98 646.305 17
3 -6 -5 7563.36 652.053 16
3 -6 -4 15378.9 919.747 17
3 -6 -4 13981.7 868.576 16
3 -6 -3 37266.1 1389.2 17
3 -6 -3 35382.5 1323.93 16
3 -6 -2 3350.47 380.488 9
3 -6 -2 3304.72 401.49 7
-3 6 2 1954.33 290.115 1
3 -6 -2 3216.82 384.495 3
3 -6 -1 42303 1330.22 7
3 -6 -1 39563.2 1296.42 3
-3 6 1 37695.9 1234.68 1
-3 6 0 15290.4 743.507 1
3 -6 0 16247.8 785.303 7
3 -6 0 15929.6 794.922 3
-3 6 -1 62033.7 1455.27 1
3 -6 1 65074.5 1493.73 7
3 -6 1 60265.6 1513 3
3 -6 1 66380.5 1444.12 5
3 -6 2 11087.5 610.839 5
3 -6 2 10953.1 635.653 3
-3 6 -2 10516.5 586.456 1
-3 6 -2 11409.7 655.885 2
3 -6 3 1504.96 241.443 5
-3 6 -3 1325.99 229.493 2
-3 6 -3 1242.2 199.989 1
3 -6 3 1628.39 245.81 3
-3 6 -4 395.275 128.211 2
3 -6 4 799.965 180.048 3
3 -6 5 1286.92 245.339 5
-3 6 -5 885.448 201.579 2
-3 6 -6 37845.7 1323.5 2
-3 6 -7 19455.6 987.952 25
3 -6 7 19551.1 1002.81 14
3 -6 8 55043.9 1701.72 14
-3 6 -8 52633.6 1665.75 25
-3 6 -9 6632.08 609.233 25
-3 6 -10 5516.52 568.18 25
-3 6 -11 30.3687 83.4094 20
-3 6 -11 -22.9099 115.264 25
-3 6 -12 1346.2 251.283 25
3 -5 -9 306.456 156.721 19
3 -5 -9 456.311 152.346 23
3 -5 -8 1280.29 275.451 19
3 -5 -8 1562.93 266.926 17
3 -5 -8 1572.14 297.939 23
3 -5 -7 6155.2 578.145 23
3 -5 -7 6098.06 564.612 17
3 -5 -6 602.768 213.907 17
3 -5 -5 4485.75 494.176 17
3 -5 -5 3841.82 465.722 16
-3 5 4 152.224 140.616 1
3 -5 -4 723.583 206.323 3
3 -5 -3 5746.66 503.15 3
3 -5 -3 6060.01 510.019 9
-3 5 3 4983.73 451.939 1
3 -5 -2 13023.2 693.709 9
3 -5 -2 13351.8 721.91 7
-3 5 2 11327.5 636.196 1
3 -5 -2 12794.9 714.037 3
3 -5 -1 69112.2 1502.42 9
3 -5 -1 70225.2 1565.59 7
3 -5 -1 68096.5 1566.02 3
-3 5 1 66757.7 1453.43 1
-3 5 0 54212 1237.1 1
3 -5 0 57398.8 1335.01 7
3 -5 0 53449 1337.41 3
3 -5 0 57022.8 1262.26 5
-3 5 -1 122249 1791.07 1
3 -5 1 119681 1943.93 3
-3 5 -1 119475 1932.05 2
3 -5 1 124408 1883.95 5
3 -5 2 59700.1 1343.84 5
-3 5 -2 58191.9 1366.23 2
3 -5 2 59093.1 1344.99 3
-3 5 -2 61370.8 1249.66 1
3 -5 3 15865 729.285 5
-3 5 -3 17299 757.759 2
3 -5 3 15613.9 683.306 3
3 -5 4 547.387 165.737 5
-3 5 -4 645.527 155.539 2
3 -5 4 621.258 133.985 3
3 -5 5 32798.8 1139.21 5
-3 5 -5 33565.2 1134.97 2
-3 5 -6 6026.94 530.396 2
3 -5 7 95208.9 2176.09 21
-3 5 -8 18423.2 985.153 25
3 -5 8 18093.2 967.956 14
3 -5 8 19909.3 1039.47 21
-3 5 -9 5084.6 536.106 25
3 -5 9 5247.58 550.631 21
-3 5 -10 7513.63 645.333 25
-3 5 -11 -87.9686 99.8734 20
-3 5 -11 54.5532 127.777 25
-3 5 -12 258.622 144.431 25
3 -4 -10 855.708 183.138 19
3 -4 -10 912.249 196.527 23
3 -4 -9 857.476 215.2 19
3 -4 -9 666.05 204.485 23
3 -4 -8 2190.71 366.69 19
3 -4 -8 2313 368.274 23
3 -4 -7 11065.1 782.965 23
3 -4 -6 31274.8 1305.66 16
-3 4 5 2040.34 313.625 1
3 -4 -5 2362.69 361.787 16
3 -4 -4 14207.2 775.733 9
-3 4 4 12673.2 707.803 1
3 -4 -4 14799.6 797.193 3
3 -4 -3 217.867 111.837 7
3 -4 -3 388.354 142.177 9
-3 4 3 599.385 138.224 1
3 -4 -3 493.216 162.301 3
3 -4 -2 13807.2 668.885 9
3 -4 -2 14513.7 696.049 7
3 -4 -2 13990.6 605.993 5
-3 4 2 14402.9 634.648 1
3 -4 -2 14297 698.358 3
3 -4 -1 55306.8 1262.92 9
3 -4 -1 57306.8 1279.81 7
-3 4 1 55572 1156.07 1
3 -4 -1 54130.1 1285.03 3
3 -4 -1 57228.5 1209.08 5
-3 4 0 114247 1537.71 1
3 -4 0 115715 1705.29 7
3 -4 0 111051 1769.36 3
3 -4 0 113073 1690.99 5
-3 4 -1 8125.74 459.707 2
3 -4 1 7907.53 455.344 8
3 -4 1 8970.39 439.351 7
-3 4 -1 8774.19 412.887 1
3 -4 1 7659.73 452.614 3
3 -4 1 8056.33 465.005 5
3 -4 2 22361.6 786.529 5
3 -4 2 24374.6 777.258 8
-3 4 -2 22400.5 662.834 1
3 -4 2 22287.3 750.224 3
-3 4 -2 21842.7 768.737 2
3 -4 3 51001.4 1237.67 5
-3 4 -3 49792.7 1205.1 2
3 -4 3 52794.5 1121.53 3
3 -4 4 526.332 138.86 5
3 -4 4 615.492 136.088 8
-3 4 -4 399.277 110.948 2
3 -4 5 8783.63 565.45 5
-3 4 -5 8876.04 571.446 2
3 -4 6 1381.54 244.243 5
-3 4 -6 1601.13 282.824 2
3 -4 7 14228.6 787.316 5
-3 4 -7 13957.2 831.035 2
-3 4 -8 4694.5 502.848 25
3 -4 8 4605.68 506.419 21
-3 4 -9 9880.22 746.449 25
3 -4 9 9702.99 743.2 21
-3 4 -10 1355.7 290.865 25
3 -4 10 1669.34 321.715 21
-3 4 -11 37.6092 130.56 25
-3 4 -12 134.187 114.263 25
3 -3 -11 835.441 177.339 23
3 -3 -10 1493.78 255.04 19
3 -3 -10 1701.92 283.356 23
3 -3 -9 5206.71 534.466 19
3 -3 -9 5062.3 522.881 23
3 -3 -8 19176.9 1046.72 19
3 -3 -8 20945.4 1076.36 23
3 -3 -7 20725.2 1059.52 23
3 -3 -6 597.096 209.107 16
3 -3 -5 582.532 179.41 9
3 -3 -5 568.517 161.205 7
-3 3 5 585.214 168.11 1
3 -3 -4 5577.44 464.199 9
-3 3 4 4897.18 401.53 1
3 -3 -4 5268.7 447.46 7
3 -3 -4 5767.47 479.242 3
3 -3 -3 44012.7 1195.29 9
-3 3 3 39456 1020.97 1
3 -3 -3 41584.5 1155.02 7
3 -3 -3 43261.9 1191.52 3
3 -3 -2 -43.3869 81.2548 3
3 -3 -2 159.108 102.68 9
-3 3 2 194.374 74.6727 1
3 -3 -2 57.7828 95.9173 7
3 -3 -1 3967.45 334.078 8
3 -3 -1 4109.79 322.277 7
3 -3 -1 3913.31 325.626 3
-3 3 1 4298.65 270.769 1
3 -3 -1 3660.92 296.948 5
3 -3 0 56054.9 1157.37 8
3 -3 0 55577.2 1053.78 7
3 -3 0 54466.3 1137.84 3
3 -3 0 55054.1 1133.89 5
-3 3 0 55250.4 1057 2
-3 3 -1 11043.1 488.908 2
3 -3 1 10899.7 506.165 8
3 -3 1 11837.8 437.337 7
3 -3 1 10752.2 485.158 3
3 -3 1 10621.5 507.842 5
3 -3 2 186319 2110.27 4
-3 3 -2 180051 2064.62 2
3 -3 2 185209 2045.6 8
3 -3 2 186802 1939.67 3
3 -3 2 180943 2112.1 5
3 -3 3 43436.3 1088.79 5
3 -3 3 43858.5 1098.27 4
3 -3 3 44984.3 1011.93 8
3 -3 3 46261.2 922.802 3
3 -3 4 22821.1 829.338 5
3 -3 4 21474.4 819.82 4
-3 3 -4 20722.1 795.533 2
3 -3 4 23769.2 749.137 8
3 -3 5 43475.5 1196.16 5
3 -3 5 40678.1 1211.91 4
-3 3 -5 40133.4 1198.99 2
3 -3 6 370.307 147.493 5
3 -3 6 338.505 146.382 4
-3 3 -6 596.711 202.506 2
3 -3 7 23154.4 1030.79 4
-3 3 -7 24759.1 1099.88 2
-3 3 -8 1298.71 276.824 25
3 -3 8 1946.22 335.804 21
-3 3 -9 7039.32 634.958 25
3 -3 9 6333.62 601.706 21
-3 3 -10 447.383 220.375 25
3 -3 10 316.616 181.517 21
-3 3 -11 2464.38 358.262 25
3 -3 11 2226.5 336.427 21
-3 3 -12 664.131 183.971 25
3 -2 -11 8001.66 569.141 23
3 -2 -10 9195.96 651.103 19
3 -2 -10 8320.15 644.259 23
3 -2 -9 3482.17 446.93 19
3 -2 -9 2937.92 406.677 23
3 -2 -8 27500.7 1242.46 19
3 -2 -8 30658.7 1298.62 23
3 -2 -7 24107.3 1136.13 19
3 -2 -7 24048.8 1117.45 23
3 -2 -6 382.494 169.268 9
3 -2 -6 120.948 109.161 7
3 -2 -5 616.763 170.332 9
-3 2 5 325.333 109.138 1
3 -2 -5 625.064 160.931 7
-3 2 4 2883.4 276.269 1
3 -2 -4 2896.65 319.806 9
3 -2 -4 3073.81 324.25 7
3 -2 -3 13260.9 636.316 3
-3 2 3 12271.6 499.247 1
3 -2 -3 13159.1 618.021 9
3 -2 -3 12430.9 593.511 7
3 -2 -2 55600.3 1196.66 9
3 -2 -2 59026.7 1185.89 8
3 -2 -2 55860.6 1155.59 7
3 -2 -2 55695 1214.91 3
3 -2 -2 58314.9 1182.21 11
3 -2 -2 58670.5 1178.09 5
-3 2 1 3256.81 224.565 2
3 -2 -1 2939.96 266.153 8
3 -2 -1 3012.06 269.557 3
3 -2 -1 3809.58 307.028 11
3 -2 -1 3027.58 254.991 7
3 -2 -1 3491.12 291.112 5
3 -2 0 137235 1497.78 4
-3 2 0 134608 1480.06 2
3 -2 0 133075 1705.1 8
3 -2 0 135769 1506.18 7
3 -2 0 133895 1757.19 11
3 -2 0 133981 1661.98 3
3 -2 0 131447 1695.3 5
3 -2 1 63996.3 1123.19 4
-3 2 -1 62421.7 1077.3 2
3 -2 1 63052.1 1159.59 8
3 -2 1 64111.4 919.534 7
3 -2 1 62358.9 1069.86 3
3 -2 1 64249.1 1205.97 11
3 -2 1 61163.7 1155.52 5
3 -2 2 197356 2145.2 4
-3 2 -2 197556 2070.29 2
3 -2 2 202064 2107.87 8
3 -2 2 209509 2153.96 11
3 -2 2 205987 1818.29 3
3 -2 2 198205 2112.49 5
3 -2 3 3974.01 322.765 5
3 -2 3 4253.46 351.732 4
-3 2 -3 4756.76 295.083 10
-3 2 -3 4046.85 328.756 2
3 -2 3 4123.69 313.026 8
3 -2 3 4750.01 329.155 11
-3 2 -4 90225.7 1471.57 10
3 -2 4 85606.7 1644.26 4
3 -2 4 88020.6 1538.58 5
-3 2 -4 83633.3 1616.88 2
3 -2 5 2295.45 278.294 5
-3 2 -5 2097.42 255.698 10
3 -2 5 1848.4 273.453 4
-3 2 -5 1664.37 251.914 2
3 -2 6 31410.6 1141.1 4
-3 2 -6 28954 1056.52 10
-3 2 -6 28417.3 1104.08 2
3 -2 7 12020.9 752.447 4
-3 2 -7 12431 755.745 10
-3 2 -8 12014.9 810.85 25
3 -2 8 12190 813.517 21
-3 2 -9 3111.71 431.748 25
3 -2 9 2113.77 358.062 21
-3 2 -10 230.619 168.772 25
3 -2 10 252.631 157.972 21
-3 2 -11 4485.91 461.779 25
3 -2 11 4084.75 430.23 21
-3 2 -12 1120.05 210.906 25
3 -1 -12 1042.89 193.137 23
3 -1 -11 1919.53 311.003 23
3 -1 -10 2636.02 395.072 23
3 -1 -9 15099.8 912.573 19
3 -1 -9 15423 928.672 23
3 -1 -8 8136.33 672.092 19
3 -1 -8 8166.27 668.715 23
3 -1 -7 4071.47 442.36 9
3 -1 -7 3415.62 389.999 7
3 -1 -7 3518.64 426.105 12
3 -1 -6 1684.4 282.564 9
3 -1 -6 935.287 195.551 7
3 -1 -6 1698.36 283.329 12
3 -1 -5 24740.3 925.615 9
3 -1 -5 25315.2 944.644 7
3 -1 -5 24623 942.298 12
-3 1 5 21809.4 785.294 1
3 -1 -4 2414.39 294.534 12
3 -1 -4 2395.1 277.774 9
3 -1 -4 2278.07 269.675 7
3 -1 -3 8758.91 472.652 9
3 -1 -3 9610.38 471.306 8
3 -1 -3 9070.22 488.421 7
3 -1 -3 9429.57 473.144 11
3 -1 -3 9710.46 518.906 12
3 -1 -2 31813.1 828.885 8
3 -1 -2 32794.3 849.958 7
3 -1 -2 33030.7 870.114 11
3 -1 -1 92473 1096.92 4
-3 1 1 89901.6 981.801 2
3 -1 -1 88643.3 1358.81 8
3 -1 -1 89187.1 1285.28 7
3 -1 -1 93392.6 1442.08 11
3 -1 -1 91602.4 1408.55 3
3 -1 -1 86853.6 1378.17 5
3 -1 0 66539.1 1058.85 4
-3 1 0 64469.9 949.31 2
3 -1 0 64148.6 1159.37 8
3 -1 0 66699.5 1002.1 7
3 -1 0 67946.1 1115.51 3
3 -1 0 65957.7 1205.68 11
3 -1 0 63537.8 1156.56 5
3 -1 1 94088.3 1369.06 4
-3 1 -1 93154 1284.32 2
3 -1 1 100599 1303.93 6
3 -1 1 98072.5 1475.75 11
3 -1 1 104261 1278.52 3
3 -1 1 94031.1 1402.21 5
3 -1 2 90988.3 1463.45 4
-3 1 -2 89599.6 1414.24 2
3 -1 2 94856.1 1417.19 6
3 -1 2 89077.1 1378.32 5
3 -1 2 95077.1 1451.91 11
3 -1 3 53155.1 1218.41 4
3 -1 3 54804.1 1114.14 5
-3 1 -3 53917.6 1209.79 2
3 -1 3 55427.6 1208.27 6
3 -1 3 57816.7 1134.91 11
3 -1 4 13537.4 668.509 4
-3 1 -4 13308 658.612 2
3 -1 4 14576.4 598.374 5
3 -1 5 9192.26 594.873 4
-3 1 -5 8119.42 561.722 2
-3 1 -6 30956.2 1138.75 10
3 -1 6 29782.5 1128.82 4
-3 1 -6 27175.8 1114.05 2
3 -1 7 4477.78 483.657 15
-3 1 -7 4545.47 489.169 25
-3 1 -8 22369.3 1106.41 25
-3 1 -9 6046.88 588.265 25
3 -1 9 6242.42 587.333 21
-3 1 -10 12570.5 814.254 25
3 -1 10 10873.7 730.837 21
-3 1 -11 1869.43 299.189 25
3 -1 11 1900.18 282.016 21
3 0 -12 1039.68 216.675 23
3 0 -11 85.3551 101.477 23
3 0 -10 3.68046 128.17 23
3 0 -9 1354.63 280.862 23
3 0 -8 770.868 225.067 19
3 0 -8 899.741 235.293 23
3 0 -7 19596.2 911.624 9
3 0 -7 18983.1 912.032 7
3 0 -6 3511.07 367.161 9
3 0 -6 3883.11 390.433 7
3 0 -6 2712.44 339.721 12
3 0 -5 532.841 164.721 9
3 0 -5 334.161 122.304 12
3 0 -4 4316.28 299.36 10
3 0 -4 2996.67 311.867 12
3 0 -4 3273.43 301.219 9
3 0 -4 3424.59 283.674 8
3 0 -4 3531.02 303.598 11
3 0 -3 10219.1 404.1 10
3 0 -3 9610 448.394 8
3 0 -3 10013.8 497.242 7
3 0 -3 9156.55 493.778 12
3 0 -3 10024.5 481.961 11
3 0 -2 40580.4 913.961 8
3 0 -2 40958.3 936.385 7
3 0 -2 40500.5 929.279 12
3 0 -2 43019.5 990.25 11
3 0 -1 125.048 82.1959 8
3 0 -1 -115.584 57.6579 4
-3 0 1 120.82 50.1324 2
3 0 -1 45.7871 80.2854 11
3 0 0 61992.1 1065.92 4
-3 0 0 62211.3 941.58 2
3 0 0 64593.1 1011.52 6
3 0 0 60536.6 1165.72 11
3 0 0 61153 1131.55 5
3 0 1 7918.08 421.995 4
-3 0 -1 8297.21 402.475 2
3 0 1 7991.03 403.764 6
3 0 1 7862.93 423.625 11
3 0 1 8254.19 408.624 5
3 0 2 5935.93 400.758 4
3 0 2 6426.34 402.833 6
-3 0 -2 6060.34 383.066 2
3 0 2 6171.27 381.523 11
3 0 2 6295.4 362.695 5
3 0 3 102002 1749.03 4
3 0 3 105930 1767.91 6
-3 0 -3 99410.6 1712.71 2
3 0 3 108745 1608.45 11
3 0 3 111275 1524.91 5
3 0 4 50353.2 1314.32 4
3 0 4 52150.3 1366.99 6
3 0 5 434.699 176.91 6
3 0 5 570.292 187.206 4
-3 0 -5 651.643 164.906 2
3 0 6 153.217 122.598 4
-3 0 -6 92.126 94.1175 2
3 0 7 13995 840.156 15
-3 0 -7 13223.1 846.078 25
-3 0 -8 17628.5 995.905 25
-3 0 -9 7144.88 628.499 25
3 0 9 5947.12 560.704 21
-3 0 -10 7779.57 619.761 25
3 0 10 7070.43 562.282 21
-3 0 -11 665.114 169.292 25
3 0 11 1170.29 199.886 21
3 1 -12 4246.99 429.472 23
3 1 -11 341.615 160.846 23
3 1 -10 31037.9 1312.3 23
3 1 -9 5448.7 556.207 23
3 1 -8 10552.8 740.572 23
3 1 -7 35053.2 1264.74 12
3 1 -6 15560 712.178 10
3 1 -6 14941.7 692.475 9
3 1 -6 14340 764.647 12
3 1 -5 106101 1702.77 10
3 1 -5 106989 1701.95 9
3 1 -5 111029 1648.94 11
3 1 -4 421.958 113.81 10
3 1 -4 566.114 116.239 8
3 1 -4 257.856 118.696 12
3 1 -4 427.564 127.088 11
3 1 -3 74782.1 1229.48 8
3 1 -3 74892.1 1355.51 12
3 1 -3 77217.9 1355.36 11
3 1 -3 76325.8 1223.86 10
3 1 -2 12274.8 433.88 4
3 1 -2 12533.3 430.235 6
3 1 -2 12108.3 500.867 12
3 1 -2 12471.8 543.886 11
3 1 -1 26.3441 51.7758 4
3 1 -1 125.763 68.2503 6
3 1 0 39252.8 890.501 6
3 1 0 40830 946.678 4
-3 -1 0 39391.4 797.648 2
3 1 0 39351.2 980.736 11
3 1 1 16421.7 652.604 4
3 1 1 16435.5 631.413 6
-3 -1 -1 15758.1 585.127 2
3 1 1 17367.8 586.969 5
3 1 1 16306.9 639.319 11
3 1 2 25301.4 863.014 4
3 1 2 26918.3 876.813 6
-3 -1 -2 24701.7 814.683 2
3 1 2 27284.8 716.153 5
3 1 2 26632.3 827.616 11
3 1 3 28687.1 979.321 4
3 1 3 29926.8 1003.45 6
-3 -1 -3 27856.1 949.731 2
3 1 3 31469.5 920.659 11
3 1 4 926.613 210.492 4
3 1 4 1045.71 222.26 6
-3 -1 -4 791.679 170.124 2
3 1 5 163.789 130.811 4
3 1 5 379.849 184.377 6
-3 -1 -5 423.69 136.492 2
3 1 6 565.826 198.2 15
3 1 6 83.4918 118.984 22
-3 -1 -6 263.473 157.457 25
3 1 7 4302.49 469.929 15
-3 -1 -7 3665.07 460.409 25
3 1 7 3747.36 469.065 22
-3 -1 -8 223.038 154.606 25
-3 -1 -9 1959.42 342.762 25
3 1 9 2012.89 325.424 21
-3 -1 -10 3440.78 390.717 25
3 1 10 2975.53 333.311 21
3 2 -13 136.299 103.592 18
3 2 -13 348.518 130.383 23
3 2 -12 6663.54 550.986 23
3 2 -11 9052.81 701.017 23
3 2 -10 23931.3 1161.93 23
3 2 -9 7406.58 643.597 23
3 2 -8 4864.76 476.968 10
3 2 -8 4860.26 501.806 23
3 2 -7 9930.85 632.386 10
3 2 -7 16287.5 869.429 12
3 2 -6 3867 381.829 10
3 2 -6 3815.75 401.218 12
3 2 -5 47170.7 1198.25 10
3 2 -5 46662.3 1268.99 12
3 2 -5 47642.3 1130.4 11
3 2 -4 4793.24 362.953 10
3 2 -4 4399.47 300.157 8
3 2 -4 4379.49 369.181 12
3 2 -4 4916.55 364.784 11
3 2 -3 316.569 102.958 6
3 2 -3 224.523 113.941 10
3 2 -3 58.5682 76.0148 12
3 2 -3 84.3516 89.1633 11
3 2 -2 18843.1 623.159 4
3 2 -2 19081.4 631.231 6
3 2 -2 18729.8 595.677 12
3 2 -2 19217.6 722.291 11
3 2 -1 55571 1138.61 4
3 2 -1 55711.6 1133.3 6
3 2 -1 53809.4 1216.89 11
3 2 0 274.683 114.219 4
3 2 0 145.438 111.775 6
3 2 0 268.738 106.884 11
3 2 1 14988.9 676.283 4
3 2 1 14505.1 651.704 6
3 2 1 14891.9 663.092 11
3 2 2 3305.24 353.246 4
3 2 2 2685.79 323.97 6
3 2 2 2967.86 307.481 11
3 2 3 4254.41 425.838 6
3 2 3 4357.67 367.582 11
3 2 4 2457.76 338.07 4
3 2 4 1926.86 308.034 6
-3 -2 -5 -6.28027 114.52 25
3 2 5 283.703 148.995 22
-3 -2 -6 15514.6 918.749 25
3 2 6 17047.5 959.158 22
-3 -2 -7 2036.82 347.768 25
3 2 7 2349.06 360.843 22
-3 -2 -8 901.041 246.883 25
-3 -2 -9 3898.78 435.963 25
3 2 9 3964.88 405.877 21
-3 -2 -10 -0.31663 72.3639 25
3 3 -13 109.051 105.173 18
3 3 -13 230.696 118.449 23
3 3 -12 14367 839.477 18
3 3 -12 14299.3 817.076 23
3 3 -11 11.2843 145.85 18
3 3 -11 -59.1556 156.243 23
3 3 -10 22672.6 1130.62 23
3 3 -9 3363.56 450.176 23
3 3 -8 23656 1107.31 23
3 3 -8 22461.5 1070.62 13
3 3 -7 1011.89 219.009 10
3 3 -6 14087.1 736.524 10
3 3 -5 5785.98 448.167 10
3 3 -5 6241.63 440.788 11
3 3 -4 -6.13578 109.119 10
3 3 -4 103.552 83.6875 6
3 3 -4 188.592 100.637 12
3 3 -4 83.4674 96.1933 11
3 3 -3 2213.31 234.49 4
3 3 -3 2410.2 262.734 6
3 3 -3 1844.72 254.913 11
3 3 -2 606.393 145.138 4
3 3 -2 285.741 113.722 6
3 3 -2 284.463 128.649 11
3 3 -1 7019.68 453.634 4
3 3 -1 7937.59 484.307 6
3 3 -1 7972.79 509.448 11
3 3 0 664.964 176.795 6
3 3 0 905.416 189.86 4
3 3 0 869.943 202.063 11
3 3 1 34039.7 1107.65 4
3 3 1 32938.4 1068.09 6
3 3 1 34703.1 1096.26 11
3 3 2 11662.8 688.536 4
3 3 2 13102.1 723.963 6
3 3 2 13051.1 688.393 11
3 3 3 -121.029 103.651 4
3 3 3 -24.8195 123.107 6
-3 -3 -4 2478.91 368.072 25
3 3 4 2537.53 376.32 22
-3 -3 -5 8697.12 689.172 25
3 3 5 8861.77 692.678 22
-3 -3 -6 363.902 187.104 25
3 3 6 881.165 252.071 22
-3 -3 -7 53.6904 132.111 25
3 3 7 -69.7001 151.465 22
-3 -3 -8 1229.93 267.58 25
-3 -3 -9 -64.8215 94.6487 25
3 4 -13 1536.37 249.039 18
3 4 -13 1201.75 215.208 23
3 4 -12 6602.85 572.871 18
3 4 -12 7371.55 590.893 23
3 4 -11 729.399 244.029 18
3 4 -11 1109.53 274.926 23
3 4 -10 14431.3 935.511 18
3 4 -10 13208.7 864.104 23
3 4 -9 2389.45 397.53 18
3 4 -9 2818 408.535 23
3 4 -9 2911.5 405.787 13
3 4 -8 37599.3 1442.77 18
3 4 -8 36779.7 1400.22 23
3 4 -7 -149.249 137.372 10
3 4 -6 80082.6 1827.89 10
3 4 -5 41494.9 1158.06 6
3 4 -5 41921.5 1214.32 11
3 4 -5 42530.8 1269.64 10
3 4 -4 186652 2446.82 6
3 4 -4 183224 2545.17 11
3 4 -3 42032.1 1135.02 4
3 4 -3 44352.2 1210.57 6
3 4 -3 42697.3 1236.66 11
3 4 -2 99501.2 1789.16 4
3 4 -2 99791.2 1816.16 6
3 4 -2 101327 1929.61 11
3 4 -1 2110.72 289.418 4
3 4 -1 1789.13 266.473 6
3 4 -1 2118.91 300.089 11
3 4 0 348.908 156.915 4
3 4 0 258.885 147.568 6
3 4 0 298.111 158.329 11
3 4 1 86745.1 1907.24 4
3 4 1 87932.1 1897.61 6
3 4 1 92293.7 1946.94 11
3 4 2 3154.08 391.071 4
3 4 2 3029.91 390.902 6
3 4 2 3056.3 362.864 11
3 4 3 28687.9 1216.71 22
-3 -4 -3 27569.1 1182.57 25
3 4 4 3443.12 443.459 22
-3 -4 -4 4273.7 492.816 25
-3 -4 -5 3976.64 484.717 25
3 4 5 3739.45 461.975 22
-3 -4 -6 3382.6 446.524 25
3 4 6 3498.8 432.611 22
-3 -4 -7 73.0702 122.534 25
-3 -4 -8 1567.76 263.102 25
3 5 -13 716.465 181.763 18
3 5 -13 535.245 157.307 23
3 5 -12 9.32891 117.214 18
3 5 -12 -4.66231 132.039 23
3 5 -11 8152.23 682.023 18
3 5 -11 8480.56 673.137 23
3 5 -10 787.136 218.992 13
3 5 -10 526.451 234.335 18
3 5 -10 515.998 204.424 23
3 5 -9 36010.1 1469.44 18
3 5 -9 38691 1475.04 23
3 5 -8 3750.82 489.763 18
3 5 -8 3931.41 470.099 23
3 5 -7 20998.1 1070.11 18
3 5 -7 20408.6 1026.5 23
3 5 -6 3019.08 392.576 10
3 5 -5 4236.39 416.679 6
3 5 -5 4034.8 420.477 11
3 5 -4 54553.2 1505.75 11
3 5 -4 55821.8 1479.16 6
3 5 -3 119998 2131.26 4
3 5 -3 119543 2184.99 6
3 5 -3 121551 2277.64 11
3 5 -2 89308.4 1876.72 4
3 5 -2 90651.2 1916.81 6
3 5 -1 1201.85 237.648 6
3 5 -1 803.152 205.631 11
3 5 0 39355.9 1336.82 4
3 5 0 34529.2 1268.22 11
3 5 1 13388.6 830.768 22
3 5 1 15012.6 846.067 11
-3 -5 -2 16055.7 918.915 25
3 5 2 17792.1 977.344 22
-3 -5 -3 13212.4 850.465 25
3 5 3 12713.6 840.192 22
-3 -5 -4 390.899 181.852 25
3 5 4 295.856 125.431 22
-3 -5 -5 5304.2 545.152 25
3 5 5 5829.76 556.007 22
-3 -5 -6 629.901 209.759 25
3 5 6 963.791 223.222 22
-3 -5 -7 1012.82 218.952 25
3 6 -13 393.948 126.871 23
3 6 -12 182.278 139.485 18
3 6 -12 7.55035 97.8965 23
3 6 -11 101.339 162.505 18
3 6 -11 -87.1361 81.7626 13
3 6 -10 14483.8 924.256 18
3 6 -10 14985.3 904.579 23
3 6 -10 14998 904.857 13
3 6 -9 6394.62 638.334 18
3 6 -9 6826.78 625.981 23
3 6 -8 20349.3 1104.31 18
3 6 -8 21353.4 1088.79 23
3 6 -7 391.152 245.094 18
3 6 -7 488.658 192.264 23
3 6 -7 933.026 228.666 20
3 6 -6 28304.2 1209.51 23
3 6 -6 28613.3 1204.33 20
3 6 -5 6690.92 578.926 23
3 6 -5 6197.75 564.183 20
3 6 -4 21996.9 1021.36 6
3 6 -4 21629.6 1037.65 20
3 6 -4 21579.2 1023.41 11
3 6 -3 27323.3 1110.72 4
3 6 -3 29354.1 1172.75 6
3 6 -3 27703.9 1177.85 20
3 6 -2 27221.4 1171.29 20
-3 -6 1 39536.7 1399.51 25
3 6 -1 40943.6 1449.76 20
-3 -6 0 31288.5 1277.43 25
3 6 0 29990.3 1243.07 20
-3 -6 -1 555.517 198.296 25
3 6 1 776.451 228.142 22
-3 -6 -2 11872.7 815.536 25
3 6 2 12226.8 830.597 22
3 6 3 9836.87 732.838 22
-3 -6 -3 9948.13 744.552 25
-3 -6 -4 7950.95 657.108 25
3 6 4 7608.82 622.644 22
-3 -6 -5 356.346 183.449 25
3 6 5 241.695 143.19 22
-3 -6 -6 2660.21 333.283 25
3 7 -12 555.177 156.282 23
3 7 -11 479.686 188.885 23
3 7 -11 608.741 187.576 13
3 7 -10 9182.78 693.702 23
3 7 -10 10678.6 751.026 13
3 7 -9 1806.41 327.725 23
3 7 -8 2039.72 354.136 23
3 7 -8 2347.8 355.948 20
3 7 -7 22706.7 1115.09 23
3 7 -7 19229.2 1015 20
3 7 -6 646.896 208.549 23
3 7 -6 934.758 237.816 20
3 7 -5 11700.1 801.487 20
3 7 -4 18061.3 991.337 20
-3 -7 3 4509.62 491.499 25
3 7 -3 3879.18 471.158 20
-3 -7 2 1212.85 267.158 25
3 7 -2 1200.52 270.767 20
-3 -7 1 3605.99 450.439 25
3 7 -1 3828.44 467.224 20
-3 -7 0 6261.83 588.701 25
3 7 0 6212 600.19 22
-3 -7 -1 9388.77 720.946 25
3 7 1 8726.2 697.063 22
-3 -7 -2 320.121 178.587 25
3 7 2 56.6912 104.905 22
-3 -7 -3 2045.01 340.874 25
3 7 3 2006.86 318.494 22
-3 -7 -4 53.8709 146.92 25
3 7 4 383.711 150.752 22
-3 -7 -5 8427.12 550.56 25
3 8 -12 486.911 136.095 23
3 8 -12 376.667 113.197 13
3 8 -11 130.394 99.1447 23
3 8 -11 -50.6512 93.3084 13
3 8 -10 2020.55 323.908 23
3 8 -10 1934.01 324.246 13
3 8 -9 147.019 143.532 23
3 8 -9 32.1475 75.3378 20
3 8 -8 11667 768.186 20
3 8 -7 8591.19 684.259 20
3 8 -6 2606.66 397.413 20
3 8 -5 11406.2 801.549 20
-3 -8 4 7039.91 618.61 25
3 8 -4 6418.79 608.406 20
-3 -8 3 9609.66 725.521 25
3 8 -3 11534.6 806.216 20
-3 -8 2 3242.38 433.905 25
3 8 -2 3984.78 482.777 20
3 8 -1 5811.3 565.996 20
-3 -8 1 6060.41 578.667 25
3 8 -1 5311.29 550.321 22
3 8 0 1260.3 268.72 22
-3 -8 0 933.259 254.439 25
-3 -8 -1 27.1342 128.655 25
3 8 1 61.6101 99.9545 22
-3 -8 -2 15149.1 841.303 25
3 8 2 14661.7 795.274 22
-3 -8 -3 2601.12 331.674 25
3 8 3 2923.21 320.556 22
-3 -8 -4 3078.89 318.354 25
3 9 -11 121.615 79.0092 13
3 9 -10 184.679 132.9 13
3 9 -9 223.906 107.589 20
3 9 -8 5282.41 498.555 20
3 9 -7 -17.0235 98.6676 20
3 9 -6 1552.03 308.203 20
-3 -9 5 443.488 183.183 25
3 9 -5 610.364 221.38 20
-3 -9 4 414.314 178.69 25
3 9 -4 274.521 162.132 20
-3 -9 3 214.27 147.282 25
3 9 -3 295.307 157.887 20
-3 -9 2 6976.9 587.35 25
3 9 -2 7306.61 615.557 22
3 9 -2 7271.61 604.914 20
-3 -9 1 1182.32 254.617 25
3 9 -1 936.267 231.971 22
-3 -9 0 -81.3799 120.079 25
3 9 0 -69.09 105.562 22
-3 -9 -1 12576.5 711.063 25
3 9 1 12644.8 678.467 22
-3 -9 -2 -53.2355 90.0035 25
3 10 -10 1246.95 215.067 13
3 10 -9 2172.77 297.837 13
3 10 -9 2401.6 282.716 20
3 10 -8 2389.79 323.042 13
3 10 -8 2087.85 287.146 20
3 10 -7 5501.14 482.566 13
3 10 -7 5295.75 480.534 20
-3 -10 6 6681.64 506.923 25
3 10 -6 8306.51 575.946 13
3 10 -6 7477.5 582.488 20
-3 -10 5 1164.88 230.555 25
3 10 -5 1109.19 249.357 20
-3 -10 4 9168.17 615.714 25
3 10 -4 9097.91 638.27 20
-3 -10 3 967.236 221.493 25
3 10 -3 818.853 203.081 22
-3 -10 2 4323.93 414.734 25
3 10 -2 4062.05 405.386 22
-3 -10 1 719.991 172.61 25
3 10 -1 1074.42 206.766 22
-3 -10 0 4113.33 360.358 25
3 10 0 4135.18 340.666 22
3 11 -7 352.182 115.698 20
3 11 -6 135.901 99.7092 20
-3 -11 5 4852.84 358.991 25
3 11 -5 5114.74 410.483 22
-3 -11 4 2640.88 272.248 25
3 11 -4 3027.62 313.827 22
4 -12 2 2063.7 268.322 17
4 -12 3 72.173 94.0567 17
4 -12 3 121.372 97.0132 14
4 -12 4 6.47071 100.294 14
4 -12 5 -99.9557 110.771 14
4 -12 6 101.501 102.665 14
4 -12 7 2364.04 274.225 14
4 -11 -1 370.499 134.769 17
4 -11 0 4723.78 436.825 17
4 -11 1 3021.81 372.764 17
4 -11 1 3361.65 371.112 14
4 -11 2 405.676 159.259 14
4 -11 3 1042.8 248.732 14
4 -11 4 31.792 100.457 14
4 -11 5 29.6737 144.67 14
4 -11 6 1626.68 299.186 14
4 -11 7 555.321 183.201 14
-4 11 -7 544.092 154.103 20
4 -11 8 41.7206 101.16 14
-4 11 -8 33.2686 84.6069 20
4 -11 9 1156.78 190.87 14
-4 11 -9 1240.45 201.252 20
4 -10 -3 8503.79 532.23 17
4 -10 -2 52.7359 104.118 17
4 -10 -1 16307.3 873.741 17
4 -10 0 7156.81 607.164 17
4 -10 0 7178.18 577.484 14
4 -10 1 852.07 236.449 14
4 -10 2 2350.07 370.13 14
4 -10 3 4817.62 527.54 14
4 -10 4 2362.65 374.407 14
4 -10 5 11801.9 807.639 14
4 -10 6 7072.83 629.87 14
-4 10 -6 7044.46 572.221 20
4 -10 7 2584 381.753 14
-4 10 -7 2590.73 356.119 20
-4 10 -8 1483.02 264.82 20
4 -10 8 1796.71 306.189 14
4 -10 9 2415.19 310 14
-4 10 -9 2195.25 302.346 20
-4 10 -10 1690.19 253.926 20
4 -9 -5 1817.63 239.001 19
4 -9 -5 1202.92 186.894 17
4 -9 -4 1733.76 258.982 19
4 -9 -4 2223.62 292.164 17
4 -9 -3 1638.72 267.487 19
4 -9 -3 1322.77 265.82 17
4 -9 -2 3121.57 413.725 17
4 -9 -1 2040.52 353.108 17
4 -9 0 1127.99 257.336 14
4 -9 1 37428.2 1427.34 14
4 -9 2 46337.1 1608.07 14
4 -9 3 6385.83 610.739 14
4 -9 4 22074.4 1127.9 14
4 -9 5 36212 1439.84 14
-4 9 -5 36886.9 1364.22 20
-4 9 -6 11.0396 152.612 20
4 -9 6 135.26 147.234 14
-4 9 -7 82.2237 152.447 20
4 -9 7 108.437 141.262 14
-4 9 -8 1331.66 283.013 20
4 -9 8 1513.97 301.504 14
4 -9 9 7727.58 585.776 14
-4 9 -9 7324.02 593.855 20
-4 9 -10 252.038 137.714 20
-4 9 -11 2036.87 264.061 20
4 -8 -6 2123.86 285.842 19
4 -8 -6 1438.12 205.523 17
4 -8 -5 134.266 104.951 19
4 -8 -5 55.5965 104.322 17
4 -8 -4 956.271 226.177 19
4 -8 -4 720.083 198.237 17
4 -8 -4 776.739 211.936 16
4 -8 -3 1494.04 300.423 17
4 -8 -3 1059.9 254.581 16
4 -8 -2 4687.52 515.817 17
4 -8 -2 5337.05 533.307 16
4 -8 -1 12324.4 809.003 16
4 -8 0 43045.2 1503.03 16
4 -8 0 45033.4 1548.68 14
4 -8 1 -0.52049 95.4698 14
4 -8 2 7084.24 630.258 14
4 -8 3 75557 2053.61 14
4 -8 4 428.966 200.316 14
4 -8 5 21486.4 1106.1 14
-4 8 -5 21635.2 1076.62 20
-4 8 -6 1511.57 311.655 20
4 -8 6 1293.58 290.766 14
4 -8 7 22564.2 1124.13 14
-4 8 -7 21977 1103.25 20
-4 8 -8 18906.6 957.113 25
4 -8 8 18072.5 983.734 14
-4 8 -8 18437.9 1010.98 20
-4 8 -9 847.219 254.033 20
-4 8 -9 562.163 179.114 25
4 -8 9 883.041 225.555 14
4 -8 10 10367.7 634.024 14
-4 8 -10 9454.25 624.106 25
-4 8 -10 9272.31 649.627 20
-4 8 -11 2831.92 308.321 25
-4 8 -11 2891.96 328.11 20
4 -7 -7 4383.07 411.128 19
4 -7 -6 405.462 169.148 19
4 -7 -6 530.751 142.663 17
4 -7 -5 3070.71 414.687 19
4 -7 -5 2979.57 384.434 17
4 -7 -5 2459.63 360.169 16
4 -7 -4 1655.67 311.719 17
4 -7 -4 1429.79 305.558 16
4 -7 -3 424.105 188.197 17
4 -7 -3 159.011 159.072 16
4 -7 -2 40412.1 1480.81 17
4 -7 -2 38476.2 1443.86 16
4 -7 -1 1627.86 315.316 16
4 -7 0 5965.22 549.148 14
4 -7 0 5800.92 559.265 24
4 -7 1 6768.69 590.45 14
4 -7 1 5698 535.474 24
4 -7 2 3258.04 412.436 14
4 -7 3 -341.832 162.768 14
4 -7 4 285.9 153.924 14
4 -7 5 4453.59 501.335 14
4 -7 6 946.126 250.093 14
4 -7 7 222.438 161.861 14
-4 7 -8 3065.15 402.812 25
4 -7 8 2922.41 407.592 14
-4 7 -9 9305.73 678.023 25
4 -7 9 10457.1 727.385 14
-4 7 -10 2955.37 372.227 25
4 -7 10 3003.37 363.861 14
-4 7 -10 3351.85 416.041 20
-4 7 -11 927.294 202.749 20
-4 7 -11 1051.35 215.848 25
4 -6 -8 2320.66 312.643 19
4 -6 -7 2816.83 379.092 19
4 -6 -6 76.0567 115.214 19
4 -6 -5 2601.71 366.543 17
4 -6 -5 1966.35 352.099 16
4 -6 -4 948.434 232.106 17
4 -6 -4 840.064 245.871 16
4 -6 -3 9803.97 721.126 17
4 -6 -3 7845.77 661.78 16
4 -6 -2 30268.9 1255.66 16
4 -6 -1 24399.1 1045.52 7
4 -6 0 100503 2013.13 7
4 -6 0 97052.1 2125.39 3
4 -6 0 103674 2020.94 5
4 -6 1 27386.7 1101.34 3
4 -6 1 29269 1091.78 5
-4 6 -2 20134 922.694 2
4 -6 2 20317.7 933.942 3
4 -6 2 21459.2 945.535 5
-4 6 -3 4812.51 463.016 2
4 -6 3 4293.49 419.354 3
-4 6 -4 3288.82 392.833 2
4 -6 4 4453.67 455.61 5
4 -6 5 660.723 202.283 14
4 -6 6 1827.3 341.48 14
-4 6 -7 3801.58 448.747 25
4 -6 7 4214.82 500.845 14
4 -6 7 4223.09 482.115 21
-4 6 -8 787.42 230.917 25
4 -6 8 1197.68 267.376 14
-4 6 -9 1406.36 290.012 25
4 -6 9 1129.71 273.012 14
4 -6 10 610.772 178.962 14
-4 6 -10 549.789 181.411 25
-4 6 -11 4797.45 438.883 25
-4 6 -11 5574.33 465.489 20
-4 6 -12 1881.41 241.298 25
4 -5 -9 662.52 169.787 19
4 -5 -8 2631.6 375.491 19
4 -5 -7 1024.84 270.838 19
4 -5 -6 882.473 247.315 19
4 -5 -6 932.18 275.869 16
4 -5 -5 -45.2267 126.667 16
4 -5 -4 23863 1136.78 16
4 -5 -3 5634.91 546.784 16
4 -5 -2 8462.25 608.034 7
4 -5 -2 13465.2 792.113 3
4 -5 -1 17232.7 821.017 7
4 -5 -1 15784 829.665 3
4 -5 -1 17876.9 818.53 5
4 -5 0 64943.9 1494.37 7
4 -5 0 61360.8 1577.66 3
4 -5 0 64757.6 1542.57 5
-4 5 -1 22837.3 899.076 2
4 -5 1 23081.7 934.067 3
4 -5 1 23801.5 943.213 5
-4 5 -2 16350.3 774.379 2
4 -5 2 17942.6 811.96 8
4 -5 2 16968.2 781.607 3
4 -5 2 16708.3 800.74 5
-4 5 -3 11825.4 684.391 2
4 -5 3 13396.5 697.309 8
4 -5 3 13326.1 732.103 5
-4 5 -4 5805.95 494.248 2
4 -5 4 4768.16 453.714 5
-4 5 -5 8665.95 637.45 2
4 -5 5 8143.29 612.908 5
4 -5 6 42080.9 1491.33 14
4 -5 6 47471.3 1529.49 21
-4 5 -7 21068.2 1029.86 25
4 -5 7 21244.9 1087.25 14
4 -5 7 22620.2 1096.65 21
-4 5 -8 774.557 233.512 25
4 -5 8 592.237 225.137 14
4 -5 8 540.958 200.121 21
-4 5 -9 1010.37 239.771 25
4 -5 9 955.588 250.036 14
4 -5 9 823.535 232.816 21
-4 5 -10 461.23 163.965 25
4 -5 10 539.571 190.416 14
-4 5 -11 4738.84 441.948 25
-4 5 -12 168.965 103.996 25
4 -4 -10 267.809 117.234 19
4 -4 -9 323.782 140.059 19
4 -4 -8 15674.6 919.733 19
4 -4 -7 13713.7 895.168 19
4 -4 -6 558.575 228.391 19
4 -4 -6 382.055 202.566 16
4 -4 -5 53797.6 1734.14 19
4 -4 -5 50387.1 1655.41 16
4 -4 -4 24502.6 1119.61 16
4 -4 -3 12673.1 737.782 7
4 -4 -3 13461.8 796.449 3
4 -4 -2 2083.02 278.509 7
4 -4 -2 1949.9 278.416 3
4 -4 -1 33867.8 1062.68 7
4 -4 -1 31844 1099.04 3
4 -4 -1 33805.4 1087.92 5
-4 4 0 6786.64 446.527 2
4 -4 0 7315.06 521.457 8
4 -4 0 7202.59 458.438 7
4 -4 0 6954.23 493.496 3
4 -4 0 7513.55 514.824 5
-4 4 -1 5822.66 422.56 2
4 -4 1 5576.66 448.212 8
4 -4 1 6531.59 482.875 5
4 -4 2 18890.2 797.345 8
4 -4 2 19080.3 772.398 3
4 -4 2 17434.5 784.509 5
-4 4 -3 16687.4 764.988 2
4 -4 3 19161 804.599 8
4 -4 3 18443.9 825.736 5
-4 4 -4 28308.1 1064.35 2
4 -4 4 30426.6 1090.6 5
-4 4 -5 9597.48 655.485 2
4 -4 5 10522.3 669.748 5
4 -4 6 25418.7 1122.37 21
-4 4 -7 16371.2 911.415 25
4 -4 7 17910.4 980.444 21
-4 4 -8 14064.8 862.422 25
4 -4 8 15775.8 935.16 14
4 -4 8 14829.8 910.948 21
-4 4 -9 830.856 228.458 25
4 -4 9 1270.87 279.642 14
4 -4 9 1109.75 263.839 21
-4 4 -10 2995.89 387.519 25
4 -4 10 2892.02 366.811 14
4 -4 10 3034.25 395.531 21
-4 4 -11 1440.16 252.811 25
4 -3 -10 130.5 115.111 19
4 -3 -10 270.067 100.922 23
4 -3 -9 11928.6 773.597 19
4 -3 -9 11971 721.237 23
4 -3 -8 7551.29 661.56 19
4 -3 -7 2247.83 388.015 19
4 -3 -7 2306.89 389.839 16
4 -3 -6 82869.2 2164.48 19
4 -3 -6 83148.4 2132.94 16
4 -3 -5 8539.37 671.58 19
4 -3 -5 8615.81 672.389 16
4 -3 -4 794.587 203.074 9
4 -3 -4 517.809 160.417 7
4 -3 -3 534.238 174.438 7
4 -3 -2 25066.7 941.187 8
4 -3 -2 25395.4 920.868 7
4 -3 -2 23963.3 948.49 3
4 -3 -1 37035.9 1113.45 8
4 -3 -1 37682.8 1048.6 7
4 -3 -1 36023.9 1104.04 3
4 -3 -1 35737.3 1089.82 5
-4 3 0 1671.52 205.858 2
4 -3 0 1356.38 226.17 8
4 -3 0 1503.84 201.968 7
4 -3 0 1673.52 247.315 5
4 -3 0 1454.02 212.415 3
4 -3 1 53333 1221.99 4
-4 3 -1 52399.3 1185.09 2
4 -3 1 56032.9 1338.53 8
4 -3 1 53447.4 1234.61 3
4 -3 1 52357.7 1297.76 5
4 -3 2 515.897 163.841 5
4 -3 2 528.313 165.23 8
4 -3 2 619.488 155.058 4
-4 3 -2 431.615 119.505 2
4 -3 3 2333.64 297.363 4
4 -3 3 2215.46 281.122 8
-4 3 -3 1552.26 236.009 2
4 -3 3 2099.24 277.189 5
4 -3 4 14146.9 752.058 4
4 -3 4 15602.3 729.789 8
-4 3 -4 13618.9 731.441 2
4 -3 4 13736.2 711.839 5
4 -3 5 39329.3 1316.57 4
-4 3 -5 37950.1 1305.42 2
4 -3 6 3260.84 413.987 15
-4 3 -7 32158.2 1282.38 25
4 -3 7 33905.1 1354.86 21
-4 3 -8 15930.4 924.805 25
4 -3 8 20151.9 1061.34 21
-4 3 -9 1053.39 261.533 25
4 -3 9 1294.14 281.28 21
-4 3 -10 3984.06 443.33 25
4 -3 10 4718.88 454.93 14
4 -3 10 3455.31 416.027 21
-4 3 -11 1121.11 221.068 25
4 -3 11 1183.91 225.418 21
4 -2 -11 195.634 89.9413 23
4 -2 -10 1530.95 266.602 19
4 -2 -10 1625.86 254.432 23
4 -2 -9 802.998 230.083 19
4 -2 -9 737.33 206.587 23
4 -2 -8 8030.93 684.956 19
4 -2 -7 42162.3 1551.91 19
4 -2 -7 44739.6 1568.39 16
4 -2 -6 1427.6 295.34 19
4 -2 -6 1447.27 286.273 16
4 -2 -5 3723.49 412.936 9
4 -2 -5 5871.67 523.596 7
4 -2 -4 4984 447.137 9
4 -2 -4 5215.89 460.582 7
4 -2 -3 37695.9 1135.51 8
4 -2 -3 39819.1 1182.97 7
4 -2 -2 6367.28 461.172 8
4 -2 -2 6508.96 455.869 7
4 -2 -2 6386.49 462.943 11
4 -2 -1 22713.2 847.926 8
4 -2 -1 23974.3 792.272 7
4 -2 -1 23298.3 866.565 11
4 -2 -1 23721.7 872.306 3
4 -2 -1 23958.1 871.048 5
4 -2 0 245338 2374.5 4
4 -2 0 233290 2650.66 8
4 -2 0 245113 2327.99 7
4 -2 0 230187 2721.91 11
4 -2 0 235253 2594.01 3
4 -2 0 233725 2685.37 5
4 -2 1 26233.6 849.467 4
4 -2 1 26187.1 905.443 8
-4 2 -1 26359 808.763 2
4 -2 1 27930.9 944.118 11
4 -2 1 29575.7 872.635 3
4 -2 1 27038.1 910.751 5
4 -2 2 341.354 132.211 5
4 -2 2 199.495 117.47 8
4 -2 2 426.534 156.311 4
-4 2 -2 253.875 99.0257 2
4 -2 2 -5.83965 122.145 11
4 -2 3 115954 2029.58 4
4 -2 3 115389 1952.52 8
4 -2 3 121189 1978.6 11
4 -2 3 117115 1951.45 5
4 -2 4 3953.35 412.923 4
4 -2 4 4001.77 382.807 8
-4 2 -4 3373.55 370.136 2
4 -2 4 4111.38 387.45 5
4 -2 5 2908.82 376.431 4
-4 2 -5 2759.5 348.779 2
4 -2 6 2216.23 348.407 15
-4 2 -6 1861.55 305.857 25
4 -2 7 15078.6 909.443 15
-4 2 -7 15075.7 896.942 25
-4 2 -8 381.527 173.77 25
4 -2 8 458.002 193.054 21
-4 2 -9 511.214 203.652 25
4 -2 9 274.797 159.111 21
-4 2 -10 2861.97 371.028 25
4 -2 10 3427.67 402.72 21
-4 2 -11 22.0194 98.2119 25
4 -2 11 17.1347 92.727 21
4 -1 -11 -200.295 91.9144 23
4 -1 -10 45.5796 104.249 19
4 -1 -10 112.959 90.1254 23
4 -1 -9 1365.16 303.785 19
4 -1 -9 1200.91 273.521 23
4 -1 -8 4.37792 128.544 19
4 -1 -7 11621.1 804.803 19
4 -1 -7 13154.4 838.323 16
4 -1 -6 5900.96 525.717 9
4 -1 -5 1923.1 293.615 9
4 -1 -5 1307.85 247.725 7
4 -1 -4 3870.26 368.058 8
4 -1 -4 3351.38 352.242 7
4 -1 -4 4174.13 388.657 11
4 -1 -3 17433.7 737.181 8
4 -1 -3 17069.4 748.515 7
4 -1 -3 17840.3 767.179 11
4 -1 -2 257.615 109.852 8
4 -1 -2 267.532 111.754 7
4 -1 -2 255.827 125.286 11
4 -1 -1 74782.3 1508.7 8
4 -1 -1 79899.3 1416.52 7
4 -1 -1 80189.8 1596.99 11
4 -1 -1 76194.6 1530.03 5
4 -1 0 46760.2 1074.35 4
4 -1 0 47395.1 1220.48 11
4 -1 0 46978.2 1188.57 5
4 -1 1 18368.4 723.366 4
4 -1 1 17322.8 740.424 8
-4 1 -1 18130 667.397 2
4 -1 1 18083.1 763.657 11
4 -1 1 18418.2 746.009 5
4 -1 2 201936 2570.31 4
4 -1 2 206039 2577.97 11
4 -1 2 202085 2471.36 5
4 -1 3 31672.2 1085.18 4
-4 1 -3 30545.3 1035.9 2
4 -1 3 32886.8 1045.61 11
4 -1 3 33247.2 1018.05 5
4 -1 4 2568.37 338.238 4
-4 1 -4 2414.19 320.219 2
4 -1 5 345.655 143.888 4
-4 1 -5 361.499 138.506 2
4 -1 6 113.375 121.216 15
-4 1 -6 43.6104 112.007 25
4 -1 7 428.229 213.615 15
-4 1 -7 205.056 137.107 25
-4 1 -8 552.489 197.371 25
-4 1 -9 1725.44 310.147 25
4 -1 9 1763.15 311.333 21
-4 1 -10 515.867 173.175 25
4 -1 10 447.655 169.174 21
-4 1 -11 960.061 180.397 25
4 -1 11 840.928 174.533 21
4 0 -12 254.627 111.784 18
4 0 -12 118.792 81.3929 23
4 0 -11 1394.5 242.247 23
4 0 -10 8305.67 638.529 19
4 0 -10 8767.27 652.998 23
4 0 -9 14609.6 898.472 19
4 0 -9 14042.6 850.588 23
4 0 -8 9663.84 752.189 19
4 0 -7 13905.5 872.537 19
4 0 -7 15576.9 882.406 16
4 0 -6 1634.12 284.465 12
4 0 -5 1547.22 266.527 7
4 0 -5 1747.7 275.167 12
4 0 -4 2741.2 297.934 8
4 0 -4 2306.1 298.171 7
4 0 -4 2999.51 327.946 11
4 0 -3 30156.2 946.445 8
4 0 -3 29502.3 990.071 11
4 0 -2 4587.03 371.325 8
4 0 -2 4723.97 403.196 11
4 0 -1 4328.15 319.979 4
4 0 -1 4968.14 391.062 8
4 0 -1 4644.76 393.716 11
4 0 0 5065.43 376.69 4
4 0 0 4860.61 392.608 5
4 0 0 5263.73 422.811 11
4 0 1 20387.8 791.558 4
4 0 1 21169.7 770.194 6
4 0 1 21191.2 790.1 5
4 0 1 20671.4 835.205 11
4 0 2 7789.62 532.659 4
-4 0 -2 7012.9 471.905 2
4 0 2 7873.09 511.641 6
4 0 2 8307.29 499.315 5
4 0 2 7880.79 521.608 11
4 0 3 8289.1 578.572 4
4 0 3 9345.12 606.775 6
-4 0 -3 8221.5 557.885 2
4 0 3 9123.24 569.442 11
4 0 4 1445.53 268.773 4
4 0 4 1926.36 301.708 6
-4 0 -4 1702.33 266.733 2
4 0 5 4704.75 496.78 15
4 0 5 5464.42 535.054 22
4 0 6 6806.49 607.275 15
-4 0 -6 6312.9 583.751 25
4 0 6 6527.72 607.656 22
4 0 7 1414.2 297.966 15
-4 0 -7 1331.84 283.098 25
-4 0 -8 4940.69 519.496 25
-4 0 -9 26.0737 112.496 25
4 0 9 60.2375 99.4814 21
-4 0 -10 338.593 142.326 25
4 0 10 479.917 153.24 21
4 1 -12 386.924 150.578 18
4 1 -12 490.599 132.958 23
4 1 -11 150.664 114.522 23
4 1 -10 842.162 216.967 23
4 1 -9 32705.5 1331.48 19
4 1 -9 33408.1 1316.51 23
4 1 -8 13884.4 886.459 19
4 1 -7 1614.01 305.615 19
4 1 -7 1615.34 292.352 13
4 1 -6 588.354 176.069 12
4 1 -5 1153.59 227.172 12
4 1 -5 1407.85 237.249 11
4 1 -4 34448.5 1008.31 8
4 1 -4 35403.7 1113.39 11
4 1 -3 2076.3 262.045 8
4 1 -3 1902.39 265.6 11
4 1 -2 42272.7 1127.08 8
4 1 -2 42841.7 1214.08 11
4 1 -1 33658.2 944.982 4
4 1 -1 32498.3 1055.64 11
4 1 0 -64.5534 89.0259 4
4 1 0 -314.022 121.348 6
4 1 0 -205.696 127.811 11
4 1 1 6428.93 471.621 4
4 1 1 7398.89 504.558 6
4 1 1 6772.42 496.001 11
4 1 2 16864.4 808.57 4
4 1 2 16393.4 783.667 6
-4 -1 -2 15671.4 723.266 2
4 1 2 17010.9 786.235 11
4 1 3 5420.25 488.697 4
4 1 3 7309.31 566.545 6
-4 -1 -3 6623.26 502.896 2
4 1 4 6023.7 550.431 6
-4 -1 -4 5274.19 483.836 2
4 1 5 8953.91 679.981 15
-4 -1 -5 8263.33 648.937 25
4 1 5 8943.2 697.811 22
-4 -1 -6 12617.9 825.116 25
4 1 6 13541.6 849.942 15
4 1 6 13617.4 877.88 22
4 1 7 1595.38 315.841 15
-4 -1 -7 1444.47 298.831 25
-4 -1 -8 9887.38 700.937 25
-4 -1 -9 584.598 172.897 25
4 1 9 491.099 163.215 21
-4 -1 -10 1375.76 210.284 25
4 1 10 1352.83 199.474 21
4 2 -12 180.592 133.337 18
4 2 -12 33.9906 83.6847 23
4 2 -11 1059.64 249.778 18
4 2 -11 777.299 186.665 23
4 2 -10 81.8443 121.017 18
4 2 -10 108.484 106.943 23
4 2 -9 1314.76 270.247 23
4 2 -8 7106.88 629.677 19
4 2 -8 6932.07 609.861 13
4 2 -7 26831 1193.96 19
4 2 -7 29571.4 1260.89 13
4 2 -6 14203.8 800.976 12
4 2 -5 7425.73 548.024 12
4 2 -5 5000.95 446.222 11
4 2 -4 73.9762 62.0139 12
4 2 -4 152.247 112.444 11
4 2 -3 7605.43 491.656 8
4 2 -3 7373.17 477.478 12
4 2 -3 7326.26 521.288 11
4 2 -2 34242.2 1121.95 11
4 2 -1 5061.68 411.845 4
4 2 -1 5247.58 403.531 6
4 2 -1 4877.61 433.137 11
4 2 0 48014 1300.5 4
4 2 0 47093.1 1268.84 6
4 2 0 47734.4 1337.57 11
4 2 1 5686.02 488.637 4
4 2 1 6568.17 504.689 6
4 2 1 6652.5 510.429 11
4 2 2 103.563 113.362 4
4 2 2 157.054 132.854 6
4 2 2 391.004 152.573 11
4 2 3 285.407 181.327 4
4 2 3 479.983 186.365 6
-4 -2 -4 158.148 109.822 25
4 2 4 214.504 165.452 15
4 2 5 7775 641.384 15
-4 -2 -5 8543.74 678.226 25
4 2 5 8452.54 694.097 22
4 2 6 631.368 204.597 15
-4 -2 -6 437.221 188.443 25
4 2 6 615.9 214.745 22
-4 -2 -7 13264.8 827.843 25
-4 -2 -8 3558.19 408.252 25
-4 -2 -9 1895.52 264.93 25
4 2 9 1969.43 256.713 21
4 3 -12 12538.2 726.531 18
4 3 -12 12232 652.683 23
4 3 -11 583.788 226.165 18
4 3 -11 702.126 205.414 23
4 3 -10 2753.3 419.209 18
4 3 -10 3220.38 412.629 23
4 3 -9 12990.5 878.731 18
4 3 -9 14603.2 873.594 23
4 3 -9 13454.3 859.148 13
4 3 -8 872.087 262.149 19
4 3 -8 536.482 219.87 18
4 3 -8 762.264 226.299 13
4 3 -7 40201 1458.12 19
4 3 -7 39700.3 1485.69 13
4 3 -6 28005.7 1220.97 13
4 3 -6 25382.1 1072.08 12
4 3 -5 43601.3 1308.55 12
4 3 -5 29770.7 1106.51 11
4 3 -4 7339.16 550.538 11
4 3 -3 5839.62 489.442 11
4 3 -2 36751.1 1122.92 4
4 3 -2 37164.7 1121.09 6
4 3 -2 36570.3 1219.16 11
4 3 -1 24940.4 969.64 4
4 3 -1 23488.6 928.655 6
4 3 -1 22392.1 966.875 11
4 3 0 22513.8 963.44 4
4 3 0 23608.3 968.274 6
4 3 0 22634.5 985.548 11
4 3 1 2213.63 332.391 4
4 3 1 1891.71 325.529 6
4 3 1 1988.17 306.4 11
4 3 2 886.243 233.039 22
4 3 2 1533.01 285.283 11
4 3 3 5098.49 516.578 15
-4 -3 -3 4614.39 488.485 25
4 3 3 4693.73 511.865 22
4 3 4 4998.69 516.488 15
-4 -3 -4 4551.79 495.874 25
4 3 4 4681.96 523.745 22
-4 -3 -5 322.477 162.421 25
4 3 5 190.798 144.468 22
-4 -3 -6 871.102 235.779 25
4 3 6 835.457 232.745 22
-4 -3 -7 1070.11 241.793 25
-4 -3 -8 236.662 138.009 25
4 4 -12 3364.39 385.908 18
4 4 -12 3655.41 355.025 23
4 4 -11 4973.28 523.759 18
4 4 -11 4542.47 456.103 23
4 4 -10 16798.3 986.445 18
4 4 -10 17610.4 940.036 23
4 4 -10 17852.5 948.79 13
4 4 -9 1250.32 287.28 18
4 4 -9 1592.28 302.001 23
4 4 -9 1252.73 285.89 13
4 4 -8 127.706 165.657 18
4 4 -8 24.4283 108.672 13
4 4 -7 79289.3 2046.62 19
4 4 -7 81084.1 2126.03 18
4 4 -7 80952.3 2156.91 13
4 4 -6 2344.5 378.335 19
4 4 -6 2139.28 352.647 18
4 4 -6 2439.69 378.51 13
4 4 -5 11152.4 774.177 13
4 4 -5 10587.2 688.849 11
4 4 -4 -250.102 116.95 11
4 4 -3 5539.83 501.006 11
4 4 -2 6423.09 531.527 4
4 4 -2 5532.6 487.172 6
4 4 -2 6121.73 540.116 11
4 4 -1 16141 848.16 4
4 4 -1 15288.1 812.917 6
4 4 0 4884.3 479.616 4
4 4 0 4751.69 479.73 6
4 4 0 4858.37 503.93 22
4 4 1 8126.05 643.927 15
4 4 1 7707.36 642.726 22
4 4 2 7218.29 611.798 15
-4 -4 -2 5824.52 555.052 25
4 4 2 6124.84 588.667 22
4 4 3 2041.31 337.681 15
-4 -4 -3 2459.64 366.273 25
4 4 3 1706.03 331.68 22
-4 -4 -4 2909.06 402.545 25
4 4 4 3342.63 441.566 22
-4 -4 -5 2.92747 122.883 25
4 4 5 29.4933 117.383 22
-4 -4 -6 4990.65 488.306 25
4 4 6 5411.8 501.361 22
-4 -4 -7 3928 389.632 25
4 5 -12 10066.6 629.614 18
4 5 -12 9935.68 562.445 23
4 5 -11 1739.84 314.986 18
4 5 -11 1946.41 299.52 23
4 5 -11 1934.16 294.173 13
4 5 -10 2550.22 395.708 18
4 5 -10 3427.96 408.937 23
4 5 -10 3000.16 397.882 13
4 5 -9 1888.82 364.801 18
4 5 -9 2332.43 363.682 23
4 5 -9 1841.92 353.551 13
4 5 -8 45269.6 1642 18
4 5 -8 45197.5 1631.31 13
4 5 -7 9590.8 753.899 18
4 5 -7 9864.93 769.49 13
4 5 -6 1678.97 338.591 13
4 5 -5 538.665 196.519 13
4 5 -5 272.949 134.519 20
4 5 -4 4048.76 471.635 13
4 5 -4 3474.9 428.525 20
4 5 -3 974.633 247.181 13
4 5 -3 1126.49 257.719 20
4 5 -2 7062.41 605.87 20
4 5 -1 23174.8 1104.44 20
4 5 0 523.829 193.617 15
4 5 0 233.875 146.475 22
4 5 1 38559.8 1401.06 15
-4 -5 -1 37495.2 1386.15 25
4 5 1 36165.5 1424.24 22
-4 -5 -2 802.976 229.089 25
4 5 2 909.314 255.624 22
-4 -5 -3 3385.31 435.001 25
4 5 3 3474.28 449.544 22
-4 -5 -4 62.8685 116.701 25
4 5 4 29.0239 118.25 22
-4 -5 -5 2588.35 346.851 25
4 5 5 2912.25 374.198 22
-4 -5 -6 3142.53 350.728 25
4 6 -12 1417.13 209.694 23
4 6 -11 314.667 131.299 23
4 6 -11 239.258 118.806 13
4 6 -10 2868.24 366.304 23
4 6 -10 3488.97 430.529 13
4 6 -9 -12.216 112.192 23
4 6 -9 34.445 88.4873 13
4 6 -8 294.091 158.495 13
4 6 -7 265.913 183.457 13
4 6 -6 13057 878.071 13
4 6 -6 13154.1 822.086 20
4 6 -5 3643.49 477.535 13
4 6 -5 3986.9 464.305 20
4 6 -4 18678 1019.89 13
4 6 -4 19172.8 1022.51 20
4 6 -3 24.0124 87.4246 20
4 6 -2 2488.94 379.144 20
4 6 -1 8152.12 658.902 15
4 6 -1 8499.08 699.132 22
4 6 0 224.081 176.982 15
-4 -6 0 -147.327 139.438 25
4 6 0 120.714 119.8 22
-4 -6 -1 14838.6 877.955 25
4 6 1 14549 907.414 22
-4 -6 -2 7.7348 97.3917 25
4 6 2 81.3647 123.191 22
-4 -6 -3 864.373 217.327 25
4 6 3 540.6 187.096 22
-4 -6 -4 694.073 194.285 25
4 6 4 354.744 163.406 22
-4 -6 -5 79.7484 104.15 25
4 6 5 11.4654 90.8456 22
4 7 -11 4143.11 368.607 23
4 7 -11 3739.24 374.811 13
4 7 -10 336.156 150.868 23
4 7 -10 456.848 164.584 13
4 7 -9 607.099 156.876 23
4 7 -9 439.4 182.566 13
4 7 -8 4624.46 526.059 13
4 7 -7 299.99 175.644 13
4 7 -7 64.6403 106.702 20
4 7 -6 19860.5 1069.02 13
4 7 -6 19719.5 1018.84 20
4 7 -5 5120.84 545.838 13
4 7 -5 5526.46 558.103 20
4 7 -4 24426.8 1144.98 13
4 7 -4 23851.8 1147.7 20
4 7 -3 4397.42 505.129 20
4 7 -2 21632.4 1048.66 15
4 7 -2 20604.1 1077.76 22
-4 -7 1 6587.56 577.849 25
4 7 -1 7080.57 630.402 22
-4 -7 0 9369.02 681.548 25
4 7 0 8456.97 684.304 22
-4 -7 -1 1793.99 307.709 25
4 7 1 1731.68 311.248 22
-4 -7 -2 58.9379 95.689 25
4 7 2 25.8823 110.252 22
-4 -7 -3 212.086 140.988 25
4 7 3 287.301 146.702 22
-4 -7 -4 3815.19 345.865 25
4 7 4 3385.22 321.2 22
4 8 -11 342.602 122.878 13
4 8 -10 9198.89 611.234 13
4 8 -9 1801.23 311.228 13
4 8 -8 259.536 155.041 13
4 8 -8 261.043 124.888 20
4 8 -7 4409.73 489.548 13
4 8 -7 5037.77 489.435 20
4 8 -6 6135.33 575.129 13
4 8 -6 5073.15 509.751 20
4 8 -5 11655.3 769.924 13
4 8 -5 10939.9 759.327 20
4 8 -4 1159.26 267.745 20
4 8 -3 9296.63 659.44 15
4 8 -2 3646.66 442.81 22
-4 -8 1 4121.41 434.977 25
4 8 -1 3706.19 437.703 22
-4 -8 0 4283.31 424.841 25
4 8 0 4251.13 447.513 22
-4 -8 -1 435.878 145.495 25
4 8 1 427.585 158.658 22
-4 -8 -2 1068.44 198.463 25
4 8 2 1358.95 225.616 22
4 9 -9 172.761 123.302 13
4 9 -8 1245.54 237.367 13
4 9 -8 1047.85 197.979 20
4 9 -7 3672.7 400.224 13
4 9 -7 3854.01 394.448 20
4 9 -6 45.7379 115.916 13
4 9 -6 37.8107 93.6918 20
4 9 -5 414.347 168.716 20
4 9 -4 287.489 133.166 22
4 9 -3 116.26 128.271 22
4 9 -2 51.9769 94.0834 22
-4 -9 1 512.934 139.123 25
4 9 -1 594.066 177.446 22
-4 -9 0 2252.91 258.165 25
4 9 0 2294.62 283.061 22
4 10 -7 -33.466 65.4349 15
4 10 -7 -74.199 74.804 13
4 10 -7 2.30274 59.7812 22
4 10 -6 1461.7 233.324 22
4 10 -5 249.889 126.155 22
4 10 -4 1625.31 244.589 22
4 10 -3 907.136 189.696 22
5 -11 0 2784.68 293.61 17
5 -11 1 7627.35 512.305 17
5 -11 1 7478.06 465.581 14
5 -11 2 114.396 110.616 17
5 -11 2 329.272 126.302 14
5 -11 3 3224.67 355.689 14
5 -11 4 53.1848 94.4318 14
5 -11 5 -269.208 130.097 14
5 -11 6 7900.78 547.402 14
5 -11 7 800.792 186.53 14
5 -10 -2 1331.69 218.423 17
5 -10 -1 416.501 158.386 17
5 -10 0 774.896 188.489 17
5 -10 1 3863.88 407.786 14
5 -10 2 2112.39 316.52 14
5 -10 3 4086.12 447.111 14
5 -10 4 3454.22 420.398 14
5 -10 5 12324.3 774.42 14
5 -10 6 197.307 154.752 14
5 -10 7 19410.7 905.063 14
-5 10 -7 18628.2 810.446 20
-5 10 -8 1090.84 203.504 20
5 -10 8 921.71 210.693 14
5 -10 9 2836.33 290.859 14
-5 10 -9 2696.71 284.625 20
5 -9 -4 488.649 115.458 19
5 -9 -3 6110.6 460.201 17
5 -9 -3 6114.4 455.546 16
5 -9 -2 444.568 149.65 17
5 -9 -2 354.029 141.38 16
5 -9 -1 1327.29 260.409 17
5 -9 -1 1475.33 272.599 16
5 -9 0 10181.5 696.577 16
5 -9 1 3213.75 416.62 16
5 -9 1 3321.46 413.574 14
5 -9 2 3407.61 426.67 14
5 -9 3 3073.38 425.214 14
5 -9 4 15102.9 913.931 14
5 -9 5 797.753 240.099 14
5 -9 6 8754.81 683.605 14
-5 9 -6 7944.71 604.532 20
-5 9 -7 54.1096 93.8706 20
5 -9 7 -211.665 151.315 14
-5 9 -8 -16.7988 116.172 20
5 -9 8 99.3266 127.711 14
5 -9 9 3983.53 388.817 14
-5 9 -9 2886.13 335.505 20
5 -8 -5 8296.84 533.671 19
5 -8 -4 1411.35 246.47 19
5 -8 -4 1374 250.4 16
5 -8 -3 -52.0592 82.2859 19
5 -8 -3 256.377 132.92 17
5 -8 -3 105.256 138.061 16
5 -8 -2 3495.87 421.986 17
5 -8 -2 3575.15 443.658 16
5 -8 -1 1604.13 304.331 17
5 -8 -1 1273.04 295.734 16
5 -8 0 16948.3 974.287 16
5 -8 1 3686.88 448.844 14
5 -8 1 3286.3 433.922 24
5 -8 2 740.765 227.489 14
5 -8 2 737.806 223.589 24
5 -8 3 10.6282 68.6974 14
5 -8 4 6918.3 633.3 14
-5 8 -5 1712.34 313.404 20
5 -8 5 2038.03 351.369 14
-5 8 -6 756.624 228.112 20
5 -8 6 703.556 236.843 14
5 -8 7 3500.62 446.278 14
-5 8 -7 2925.9 398.699 20
5 -8 8 7102.79 593.539 14
-5 8 -8 6217.81 549.133 20
5 -8 9 3182.78 372.978 14
-5 8 -9 3136.53 380.688 20
-5 8 -10 936.777 197.036 20
5 -8 10 1310.22 212.329 14
5 -7 -6 5202.49 455.178 19
5 -7 -5 4430.2 458.961 19
5 -7 -5 4589.71 461.443 16
5 -7 -4 359.049 153.773 19
5 -7 -4 310.005 173.605 16
5 -7 -3 2561.44 372.586 19
5 -7 -3 2684.26 401.843 16
5 -7 -2 1296.21 302.021 16
5 -7 -1 5122.98 552.91 16
5 -7 0 13484.4 877.222 24
5 -7 1 19915.2 1016.47 14
5 -7 1 19789.3 1049.26 24
5 -7 2 77597.8 2035.27 14
5 -7 2 75188.1 2017.66 24
5 -7 3 754.157 231.152 14
5 -7 3 1398.19 284.135 24
5 -7 4 23.6359 155.231 14
5 -7 4 508.403 203.163 24
5 -7 5 469.471 191.007 14
5 -7 6 202.099 171.572 14
5 -7 7 3499.9 462.012 14
5 -7 8 1810.27 331.665 14
5 -7 9 7437.55 581.027 14
-5 7 -10 102.495 109.815 20
5 -7 10 319.198 127.932 14
5 -6 -7 35.5641 105.575 19
5 -6 -6 1158.51 258.405 19
5 -6 -5 3922.11 466.855 19
5 -6 -5 3591.47 455.008 16
5 -6 -4 5789.25 573.875 19
5 -6 -4 5763.01 578.87 16
5 -6 -3 9447.26 728.31 19
5 -6 -3 9536.68 741.096 16
5 -6 -2 13538.4 884.564 16
5 -6 -2 13643.9 892.675 24
5 -6 -1 19464.6 1045.95 24
5 -6 0 4089.09 476.163 24
5 -6 1 50017.9 1574.57 14
5 -6 1 51178.1 1644.98 24
5 -6 2 2596.65 375.958 14
5 -6 2 2923.04 405.157 24
5 -6 3 91855.7 2204.74 14
5 -6 3 93192.4 2192.18 24
5 -6 4 24681.1 1166.93 14
5 -6 5 4242.49 501.849 14
5 -6 6 16565.4 977.614 14
5 -6 7 5151.39 550.943 14
5 -6 8 28987.8 1244.71 14
5 -6 9 -50.7221 113.294 14
-5 6 -10 205.548 96.1411 25
5 -6 10 -70.9321 107.858 14
5 -5 -8 136.664 120.862 19
5 -5 -7 1623.73 297.671 19
5 -5 -6 1458.6 305.728 19
5 -5 -6 1959.4 355.146 16
5 -5 -5 7365.41 651.083 19
5 -5 -5 7292.46 654.084 16
5 -5 -4 9996.75 756.888 19
5 -5 -4 10536 787.226 16
5 -5 -3 14514.2 904.781 19
5 -5 -3 14776.9 917.25 16
5 -5 -2 41868.5 1467.87 19
5 -5 -2 41563.2 1516.12 13
5 -5 -2 38964.5 1464.84 24
5 -5 -1 12975.8 851.826 13
5 -5 -1 12140.6 801.845 24
5 -5 0 24426.7 1159.55 13
5 -5 0 23290.4 1089.43 24
5 -5 1 8098.25 673.359 13
5 -5 1 6498.1 578.984 24
5 -5 2 21867.7 1031.55 14
5 -5 3 400.745 163.036 14
5 -5 4 1692.45 307.006 14
5 -5 5 5721.38 564.878 14
5 -5 6 5244.4 560.07 14
5 -5 7 5652.43 583.435 14
5 -5 7 6336.9 577.934 21
5 -5 8 1292.96 298.06 14
5 -5 8 1564.61 296.171 21
-5 5 -9 3854.97 406.049 25
5 -5 9 3696.71 431.401 14
5 -5 9 4041.38 444.185 21
-5 5 -10 4973.92 416.809 25
5 -5 10 4828.16 429.187 14
-5 5 -11 -115.484 63.4483 20
-5 5 -11 -142.76 71.8669 25
5 -4 -9 507.615 162.005 19
5 -4 -8 6859.21 584.4 19
5 -4 -7 364.263 187.551 19
5 -4 -6 3521.07 465.607 19
5 -4 -6 3401.58 452.942 16
5 -4 -5 25718.8 1226.58 19
5 -4 -5 24401.7 1185.15 16
5 -4 -4 934.752 251.943 19
5 -4 -4 1279.29 285.769 16
5 -4 -3 56120.5 1728.7 19
5 -4 -3 51425.2 1658 16
5 -4 -3 52920.9 1675.3 24
5 -4 -3 52785.2 1694.86 13
5 -4 -2 866.723 215.383 7
5 -4 -2 759.605 219 24
5 -4 -1 28176.4 1163.5 3
5 -4 -1 26030.4 1075.86 5
5 -4 0 15295.5 824.708 8
5 -4 0 15738.3 840.536 3
5 -4 1 3966.84 420.43 8
5 -4 1 5839.78 518.571 5
5 -4 2 568.103 185.337 5
5 -4 2 -77.8552 78.5359 8
5 -4 3 816.525 200.472 8
-5 4 -3 1243.71 257.164 2
5 -4 4 3776.07 427.762 15
5 -4 4 3911.69 452.205 14
5 -4 5 1097.87 249.872 15
5 -4 6 88.9663 141.819 21
5 -4 7 56.9799 156.038 14
5 -4 7 93.7889 103.459 21
5 -4 8 1643.11 334.646 14
5 -4 8 1911.71 329.536 21
-5 4 -9 9163.83 626.886 25
5 -4 9 9632.23 684.786 14
5 -4 9 9569.59 679.542 21
-5 4 -10 229.713 117.089 25
5 -4 10 96.8088 104.121 14
5 -4 10 196.866 110.884 21
5 -3 -10 6480.4 446.196 19
5 -3 -9 589.754 189.442 19
5 -3 -8 4507.99 504.25 19
5 -3 -7 3059.96 437.665 19
5 -3 -7 2888.38 418.734 16
5 -3 -6 16911.9 998.727 19
5 -3 -6 16073.3 956.852 16
5 -3 -5 2244.87 378.353 19
5 -3 -5 2580.29 391.752 16
5 -3 -4 3827.08 465.478 19
5 -3 -4 4128.66 478.525 16
5 -3 -4 4031.11 471.866 24
5 -3 -4 3481.38 442.754 13
5 -3 -3 197.56 115.411 19
5 -3 -3 19.9832 73.3951 16
5 -3 -3 222.769 148.503 7
5 -3 -3 121.618 88.3822 24
5 -3 -3 -148.955 147.78 13
5 -3 -2 -120.878 123.068 8
5 -3 -2 69.9691 96.6178 7
5 -3 -1 9757.17 661.43 8
5 -3 -1 6421.12 533.405 5
5 -3 0 42.352 130.313 5
5 -3 0 70.0072 89.9933 8
5 -3 1 147.824 121.035 5
5 -3 1 -162.368 118.446 8
5 -3 2 12938.7 734.271 4
5 -3 2 13822.2 778.512 5
5 -3 3 244.502 138.891 5
5 -3 3 123.86 137.966 8
5 -3 3 309.033 135.608 4
5 -3 4 2454.14 367.432 15
5 -3 5 30580.4 1269.35 15
5 -3 6 5649.51 564.662 15
5 -3 6 5944.76 569.647 21
5 -3 7 5324.77 543.377 21
-5 3 -8 826.026 215.727 25
5 -3 8 1042.25 250.436 21
-5 3 -9 2650.32 334.272 25
5 -3 9 2330.16 343.732 14
5 -3 9 1927.62 304.85 21
-5 3 -10 263.694 106.083 25
5 -3 10 493.735 144.977 14
5 -3 10 453.543 162.824 21
5 -2 -10 5855.12 472.845 19
5 -2 -9 639.349 207.596 19
5 -2 -8 21833.5 1105.72 19
5 -2 -7 3062.65 438.211 19
5 -2 -7 3246.13 437.641 16
5 -2 -6 432.744 213.103 19
5 -2 -6 436.963 177.429 16
5 -2 -5 2055.49 345.371 19
5 -2 -5 2545.92 377.318 16
5 -2 -5 2294.07 364.417 13
5 -2 -4 40.3817 130.934 19
5 -2 -4 -106.501 134.157 16
5 -2 -4 16.5747 90.1287 24
5 -2 -4 -235.834 141.888 13
5 -2 -3 933.497 221.677 8
5 -2 -3 819.69 205.309 7
5 -2 -2 5918.35 507.239 8
5 -2 -2 5037.72 476.167 11
5 -2 -1 100.011 113.405 8
5 -2 -1 -220.673 145.38 11
5 -2 0 11205.7 680.449 8
5 -2 0 10884.3 674.757 5
5 -2 1 558.679 179.302 5
5 -2 1 470.061 156.708 8
5 -2 1 385.329 161.914 4
5 -2 1 541.403 172.017 11
5 -2 2 2060.31 305.794 8
5 -2 2 2060.11 297.726 4
5 -2 2 3471.1 390.407 11
5 -2 2 3320.81 373.616 5
5 -2 3 10027.5 665.609 8
5 -2 3 9500.65 637.421 11
5 -2 3 7861.85 581.695 5
5 -2 4 9494.36 697.608 15
5 -2 5 58310.2 1772.06 15
5 -2 6 275.562 171.506 15
5 -2 7 4068 488.749 15
-5 2 -8 2997.33 386.968 25
5 -2 8 2767.58 386.955 21
-5 2 -9 648.986 177.964 25
5 -2 9 789.063 198.606 21
-5 2 -10 50.2213 77.6255 25
5 -2 10 116.179 84.4926 14
5 -2 10 -43.1744 95.6184 21
5 -1 -11 1628.15 214.678 18
5 -1 -10 68.1702 117.407 19
5 -1 -10 158.18 107.761 18
5 -1 -9 9463.45 694.664 19
5 -1 -8 31604.3 1341.27 19
5 -1 -7 205.545 168.896 19
5 -1 -7 286.279 164.23 16
5 -1 -6 36356.1 1446.94 19
5 -1 -6 37163.3 1394.38 16
5 -1 -6 36718.7 1416.22 13
5 -1 -5 17339.1 975.507 19
5 -1 -5 18104.8 945.306 16
5 -1 -5 18295 999.044 13
5 -1 -4 399.818 167.65 8
5 -1 -4 110.039 150.604 11
5 -1 -3 1967.76 300.529 8
5 -1 -3 1468.77 291.333 11
5 -1 -2 27067.4 1047.48 8
5 -1 -2 28144.5 1114.15 11
5 -1 -1 13270.2 742.003 8
5 -1 -1 11966 731.467 11
5 -1 0 21015.1 930.498 8
5 -1 0 28608.6 1113.22 11
5 -1 1 133.65 89.8498 5
5 -1 1 -66.6725 96.1658 8
5 -1 1 154.265 119.341 11
5 -1 2 5070.67 477.701 4
5 -1 2 5375.67 491.549 8
5 -1 2 5126.74 461.076 5
5 -1 3 6127.86 533.375 4
5 -1 3 5436.91 527.193 15
5 -1 4 22812 1101.12 15
5 -1 4 22331.6 1072.6 22
5 -1 5 39.8661 130.335 15
5 -1 5 276.759 182.169 22
5 -1 6 1801.52 345.161 15
5 -1 7 5483.37 555.701 15
-5 1 -7 5222.26 509.214 25
-5 1 -8 6473.46 540.591 25
5 -1 8 6326.1 561.232 21
-5 1 -9 534.983 170.053 25
5 -1 9 515.254 179.56 21
5 0 -11 488.821 147.875 18
5 0 -10 318.48 142.686 19
5 0 -10 -32.372 80.2365 18
5 0 -9 12386.3 813.609 19
5 0 -8 4443.68 518.387 19
5 0 -7 82329.5 2186 19
5 0 -7 88887.1 2216.23 13
5 0 -6 32893.8 1375.07 19
5 0 -6 33974.9 1389.74 13
5 0 -5 11360.5 790.077 19
5 0 -5 10939.2 779.876 13
5 0 -4 73701.1 1724.62 8
5 0 -4 68650.2 1756.4 11
5 0 -3 6915.58 537.454 8
5 0 -3 9000.03 650.665 11
5 0 -2 101595 2016.5 8
5 0 -2 69274.4 1747.75 11
5 0 -1 27914.4 1072.89 8
5 0 -1 19291.6 918.687 11
5 0 0 54643.6 1524.11 8
5 0 0 53994.9 1539.67 11
5 0 1 21037.1 952.13 8
5 0 1 22310.4 997.526 11
5 0 2 163.145 154.681 4
5 0 2 286.629 147.797 11
5 0 3 962.907 236.047 15
5 0 3 1169.83 276.609 22
5 0 4 10847.8 773.32 15
5 0 4 11984 809.459 22
5 0 5 13692.5 871.329 15
5 0 5 13318 866.634 22
5 0 6 4480.01 501.76 15
5 0 7 5319.53 532.081 15
-5 0 -7 5349.22 509.971 25
-5 0 -8 19.8922 79.3932 25
5 0 8 59.7723 98.6887 21
-5 0 -9 2252.8 274.905 25
5 0 9 2161.35 289.812 21
5 1 -11 303.968 114.937 18
5 1 -10 4230.64 437.439 19
5 1 -10 3758.86 425.412 18
5 1 -9 26.2482 114.058 19
5 1 -9 197.745 117.028 18
5 1 -8 3700.79 474.241 19
5 1 -8 4150.13 479.368 18
5 1 -8 4790.02 514.824 13
5 1 -7 2135.81 375.736 19
5 1 -7 2359.33 371.026 18
5 1 -7 2354.77 384.579 13
5 1 -6 6685.22 620.894 19
5 1 -6 7161.53 641.305 13
5 1 -5 39940.9 1470.63 19
5 1 -5 41456.8 1512.44 13
5 1 -4 3827.88 447.233 11
5 1 -3 27687.9 1057.9 8
5 1 -3 46760.1 1465.81 11
5 1 -2 3355.45 386.419 8
5 1 -2 3319.59 398.7 11
5 1 -1 54829.4 1512.74 8
5 1 -1 56278.9 1616.08 11
5 1 0 92264.8 1916.95 4
5 1 0 85217.2 1920.38 8
5 1 1 21793.2 992.86 4
5 1 1 24146.1 1070.45 11
5 1 2 44716.9 1517.77 15
5 1 2 43983 1487.6 22
5 1 3 5705.95 561.839 15
5 1 3 6074.43 581.512 22
5 1 4 9692.01 736.809 15
5 1 4 11153.4 794.339 22
5 1 5 35.3108 146.626 15
5 1 5 -38.6371 125.036 22
5 1 6 6458.37 583.117 15
-5 -1 -6 5346.76 511.535 25
5 1 6 5600 557.595 22
-5 -1 -7 278.624 136.743 25
-5 -1 -8 4437 401.274 25
5 1 8 5062.36 449.046 21
5 2 -11 565.009 165.171 18
5 2 -10 2324.87 339.245 18
5 2 -9 3066.83 413.409 19
5 2 -9 3328.23 435.717 18
5 2 -9 3325.33 416.002 13
5 2 -8 210.532 182.574 19
5 2 -8 219.491 165.476 18
5 2 -8 153.114 137.672 13
5 2 -7 5204.88 561.871 19
5 2 -7 6044.07 576.423 18
5 2 -7 5543.18 574.607 13
5 2 -6 174.309 163.331 19
5 2 -6 35.1164 83.474 18
5 2 -6 -119.177 141.159 13
5 2 -5 1731.95 333.43 19
5 2 -5 1485.71 314.067 13
5 2 -4 11195 777.814 19
5 2 -4 10527.9 765.284 13
5 2 -3 10697.4 744.131 19
5 2 -3 10015.9 651.366 8
5 2 -3 9702.34 686.456 11
5 2 -2 761.518 190.519 8
5 2 -2 653.015 180.976 11
5 2 0 2115.23 337.109 4
5 2 0 971.933 240.817 15
5 2 1 29252 1236.36 15
5 2 1 31399.9 1268.41 22
5 2 2 9122.73 710.339 15
5 2 2 8184.82 675.623 22
5 2 3 3505.49 448.845 15
5 2 3 3213.47 432.231 22
5 2 4 6629.7 611.603 15
5 2 4 6871.31 628.203 22
5 2 5 912.319 239.551 15
5 2 5 573.905 200.625 22
5 2 6 7855.01 599.629 15
-5 -2 -6 7544.58 580.596 25
5 2 6 7047.69 598.821 22
-5 -2 -7 3946.76 387.829 25
-5 -2 -8 1402.81 207.745 25
5 2 8 1183.31 203.023 21
5 3 -11 52.5135 94.1343 18
5 3 -10 1.86403 114.877 18
5 3 -9 5595.37 539.108 19
5 3 -9 5442.37 551.673 18
5 3 -9 6281.54 577.17 13
5 3 -8 4678.72 521.192 19
5 3 -8 4431.93 505.397 18
5 3 -8 4378.14 510.909 13
5 3 -7 2190.88 385.56 19
5 3 -7 2971.37 413.381 18
5 3 -7 2463.4 397.634 13
5 3 -6 370.879 206.366 19
5 3 -6 525.467 182.625 18
5 3 -6 363.942 179.441 13
5 3 -5 4306.64 512.693 19
5 3 -5 3724.97 478.138 13
5 3 -4 10850 784.459 13
5 3 -3 4419.23 496.445 13
5 3 -2 15637.7 909.232 13
5 3 -1 23273.8 1109.8 15
5 3 -1 26543.6 1163.4 22
5 3 0 1417.78 285.639 15
5 3 0 1461.82 300.185 22
5 3 1 5993.86 584.094 15
5 3 1 6069.14 584.986 22
5 3 2 5014.04 531.043 15
5 3 2 5504.27 559.965 22
5 3 3 10503.7 750.886 15
5 3 3 9449.34 734.526 22
5 3 4 3111.26 418.104 15
5 3 4 3140.92 427.538 22
5 3 5 6793.42 555.446 15
-5 -3 -5 6429.09 537.564 25
5 3 5 5889.51 550.097 22
-5 -3 -6 993.079 214.686 25
-5 -3 -7 235.208 100.418 25
5 4 -11 432.716 157.239 18
5 4 -10 2046.12 319.724 18
5 4 -10 2075.82 311.755 13
5 4 -9 3769.51 461.59 18
5 4 -9 3466.32 441.277 13
5 4 -8 4317.15 504.224 18
5 4 -8 4115.59 498.328 13
5 4 -7 20968.1 1087.43 18
5 4 -7 18840.3 1064.66 13
5 4 -6 11130.5 825.307 13
5 4 -5 4247.28 518.882 13
5 4 -4 824.592 229.949 13
5 4 -3 322.447 184.89 13
5 4 -2 7425.97 636.329 22
5 4 -1 1904.8 335.708 15
5 4 -1 2291.66 365.051 22
5 4 0 6.33014 129.734 15
5 4 0 37.7036 119.004 22
5 4 1 22736.9 1113.67 15
5 4 1 21742.8 1102.54 22
5 4 2 -65.1505 139.349 15
5 4 2 -14.4177 98.9711 22
5 4 3 6847.06 586.893 15
5 4 3 6887.49 612.322 22
5 4 4 195.048 137.318 15
-5 -4 -4 216.005 131.071 25
5 4 4 215.243 132.149 22
-5 -4 -5 3258.17 358.837 25
5 4 5 2962.14 367.698 22
-5 -4 -6 361.248 113.31 25
5 5 -11 90.7699 66.161 13
5 5 -10 468.561 154.511 13
5 5 -9 5114.44 523.174 13
5 5 -8 99.2079 139.491 13
5 5 -7 7757.78 693.578 13
5 5 -6 711.943 229.345 13
5 5 -5 5640.14 585.836 13
5 5 -4 11439.4 808.2 13
5 5 -3 95.2335 124.763 13
5 5 -3 203.572 139.074 22
5 5 -2 6470.7 609.19 15
5 5 -2 6637.49 612.933 22
5 5 -1 322.944 177.878 15
5 5 -1 239.735 142.181 22
5 5 0 15348.9 905.565 15
5 5 0 15282.6 925.369 22
5 5 1 1978.87 339.889 15
5 5 1 1626.05 313.776 22
5 5 2 1495.13 283.099 15
5 5 2 1309.05 274.826 22
5 5 3 1747.94 308.099 22
-5 -5 -4 795.959 188.94 25
5 5 4 736.278 192.492 22
-5 -5 -5 681.531 142.98 25
5 5 5 906.782 185.393 22
5 6 -11 1388.44 205.037 13
5 6 -10 5054.08 453.093 13
5 6 -9 3498.12 420.481 13
5 6 -8 409.65 188.846 13
5 6 -7 499.429 223.922 13
5 6 -6 16285.5 958.936 13
5 6 -5 1084.38 265.739 13
5 6 -4 2334.69 367.738 13
5 6 -4 2119.88 336.567 22
5 6 -3 998.462 239.413 22
5 6 -2 30.348 144.088 15
5 6 -2 262.249 142.035 22
5 6 -1 12701.3 807.36 15
5 6 -1 12471.5 821.755 22
5 6 0 1072.06 246.056 15
5 6 0 1341.43 277.229 22
5 6 1 786.113 206.716 15
5 6 1 496.954 176.972 22
5 6 2 3500.94 402.999 22
5 6 3 22.9821 82.8209 22
5 6 4 494.871 138.463 22
5 7 -10 2676.94 311.013 13
5 7 -9 6411.59 521.379 13
5 7 -8 7980.05 615.032 13
5 7 -7 40.5654 111.258 13
5 7 -6 3039.15 404.856 13
5 7 -5 153.078 125.548 13
5 7 -5 200.112 131.319 22
5 7 -4 809.661 219.542 22
5 7 -3 909.749 241.036 15
5 7 -3 1105.53 257.656 22
5 7 -2 369.149 152.981 15
5 7 -2 526.743 182.128 22
5 7 -1 6144.56 504.172 15
5 7 -1 5625.79 521.534 22
5 7 0 302.396 141.769 22
5 7 1 6175.67 497.47 22
5 7 2 -17.102 78.0182 22
5 8 -9 2013.83 267.331 13
5 8 -8 314.995 123.727 13
5 8 -7 10390.5 639.278 13
5 8 -7 8108.46 519.619 22
5 8 -6 5789.21 475.648 13
5 8 -6 5429.36 456.978 22
5 8 -5 7532.59 555.573 15
5 8 -5 8484.44 589.802 22
5 8 -4 2388.6 317.563 15
5 8 -4 2485.16 332.907 22
5 8 -3 2026.85 279.512 15
5 8 -3 1904.44 289.463 22
5 8 -2 -38.2109 97.4023 22
5 8 -1 176.452 106.068 22
5 8 0 212.335 107.702 22
5 9 -6 2009.33 237.567 15
5 9 -6 1211.32 186.961 22
5 9 -5 5620.21 381.769 15
5 9 -5 6668.36 444.807 22
5 9 -4 463.484 133.383 22
6 -10 0 1167.06 185.208 17
6 -10 0 1402.3 204.686 16
6 -10 1 39.8005 64.5269 17
6 -10 1 -172.852 110.921 16
6 -10 2 17545.8 764.948 16
6 -10 2 10016.4 567.546 14
6 -10 3 -61.0227 103.314 16
6 -10 3 24.0521 60.7448 14
6 -10 4 13474.5 706.28 14
6 -10 5 393.258 148.905 14
6 -10 6 22660.4 877.849 14
6 -9 -2 1092.83 197.819 16
6 -9 -1 4473.68 421.538 16
6 -9 0 226.064 116.631 17
6 -9 0 261.131 147.42 16
6 -9 1 22930.1 1010.38 16
6 -9 2 428.533 153.138 14
6 -9 3 3766 414.142 14
6 -9 4 4842.79 475.532 14
6 -9 5 8925.13 632.301 14
6 -9 6 628.807 197.889 14
-6 9 -7 161.376 94.1463 20
6 -9 7 -1.07763 121.839 14
6 -9 8 8908.4 534.242 14
-6 9 -8 7842.86 464.896 20
6 -8 -4 262.711 125.661 16
6 -8 -3 455.516 162.471 16
6 -8 -2 717.191 201.063 16
6 -8 -1 6199.99 557.114 16
6 -8 0 7208.19 614.249 16
6 -8 1 4841.07 502.413 24
6 -8 2 492.647 169.788 14
6 -8 2 603.147 203.656 24
6 -8 3 14188.2 841.611 14
6 -8 3 14731.8 849.734 24
6 -8 4 868.854 231.642 14
6 -8 4 1229.24 249.534 24
6 -8 5 755.789 214.554 14
-6 8 -6 987.81 223.024 20
6 -8 6 1655.83 304.56 14
6 -8 7 5911.07 516.193 14
-6 8 -7 5108.79 451.947 20
6 -8 8 6055.64 484.859 14
-6 8 -8 5247.85 429.628 20
6 -7 -5 1261.38 213.311 19
6 -7 -5 1210.42 220.941 16
6 -7 -4 83.8132 96.0069 19
6 -7 -4 62.9203 129.092 16
6 -7 -3 4749.18 501.915 16
6 -7 -2 6223.35 588.144 16
6 -7 -1 2410.97 382.783 16
6 -7 0 6400.22 615.271 24
6 -7 1 157.593 152.635 24
6 -7 2 2684.69 375.709 14
6 -7 2 2665.08 403.047 24
6 -7 3 6488.36 589.239 14
6 -7 3 6253.86 589.196 24
6 -7 4 6292.5 591.411 14
6 -7 4 7618.11 635.638 24
6 -7 5 14466.8 880.011 14
6 -7 5 16539.3 904.749 24
6 -7 6 1236.75 275.563 14
6 -7 6 878.312 221.545 24
6 -7 7 6082.63 543.436 14
6 -7 8 1323.11 253.13 14
6 -7 9 11038.3 601.665 14
-6 7 -9 9133.31 552.155 20
6 -6 -6 223.463 120.587 19
6 -6 -5 378.313 148.666 19
6 -6 -5 514.183 191.672 16
6 -6 -4 -13.0059 56.3897 19
6 -6 -4 200.281 180.345 16
6 -6 -3 9322.13 683.523 19
6 -6 -3 8344.87 690.263 16
6 -6 -2 -98.0922 142.295 16
6 -6 -1 3355.06 457.096 24
6 -6 0 1080.45 264.514 24
6 -6 1 169.82 132.058 24
6 -6 2 1208.77 268.826 14
6 -6 2 1363.68 303.938 24
6 -6 3 17592.4 973.692 14
6 -6 3 16096.8 951.8 24
6 -6 4 409.085 191.763 14
6 -6 4 815.489 231.756 24
6 -6 5 3169.9 435.844 14
6 -6 6 16781 955.695 14
6 -6 7 6338.24 576.668 14
6 -6 8 16582.1 855.571 14
6 -6 9 3316.86 347.149 14
6 -5 -7 348.804 148.868 19
6 -5 -6 2802.6 376.153 19
6 -5 -6 2724.19 368.716 16
6 -5 -5 1980.95 329.761 19
6 -5 -5 1484.8 293.645 16
6 -5 -4 10161.9 744.9 19
6 -5 -4 10354.2 767.469 16
6 -5 -3 2730.44 387.261 19
6 -5 -3 1952.56 353.556 16
6 -5 -2 110.814 149.671 16
6 -5 -2 529.806 196.633 24
6 -5 -2 337.494 187.634 13
6 -5 -1 135.898 139.731 24
6 -5 -1 567.83 229.289 13
6 -5 0 1748.34 340.089 24
6 -5 0 1977.64 372.449 13
6 -5 1 19278.9 1044.22 24
6 -5 2 76.3954 109.49 14
6 -5 2 174.141 163.302 24
6 -5 3 12425.6 826.87 14
6 -5 4 18101.6 1002.11 14
6 -5 5 58.5866 103.843 14
6 -5 6 347.286 164.257 14
6 -5 7 1547.56 308.101 14
6 -5 8 2315.07 342.182 14
6 -5 9 808.723 198.043 14
6 -4 -8 4127.16 399.418 19
6 -4 -7 481.67 169.074 19
6 -4 -6 7680.99 642.788 19
6 -4 -6 7734.77 631.578 16
6 -4 -5 539.54 214.933 19
6 -4 -5 685.964 239.294 16
6 -4 -4 63102.2 1888.24 19
6 -4 -4 62244.8 1864.33 16
6 -4 -4 62834.8 1866.68 13
6 -4 -3 57340.4 1773.74 19
6 -4 -3 53801.3 1733.56 16
6 -4 -3 54955.3 1752.27 24
6 -4 -3 54139.5 1775.62 13
6 -4 -2 853.867 244.37 24
6 -4 -2 609.704 234.83 13
6 -4 -1 4338.99 528.756 13
6 -4 -1 5283.26 555.291 24
6 -4 0 2487.26 380.603 24
6 -4 0 1735.54 339.379 13
6 -4 1 13973.7 918.691 13
6 -4 1 15556.3 927.813 24
6 -4 2 19893.4 1011.08 14
6 -4 3 16154.4 939.546 14
6 -4 4 24431.3 1115.86 15
6 -4 4 23935.3 1160 14
6 -4 5 270.497 155.01 15
6 -4 5 215.059 151.771 14
6 -4 6 1195.95 275.31 14
6 -4 7 3381.29 441.218 14
6 -4 7 3099.74 378.989 21
6 -4 8 1407.51 272.174 14
6 -4 8 1393.92 246.81 21
6 -4 9 203.121 121.266 14
6 -3 -9 6274.17 460.01 19
6 -3 -8 818.59 210.753 19
6 -3 -7 3588.84 447.695 19
6 -3 -6 11607.9 813.199 19
6 -3 -6 11044.4 762.027 16
6 -3 -5 33779 1397.41 19
6 -3 -5 33768.8 1351.75 16
6 -3 -5 37090.1 1430.91 13
6 -3 -4 267.336 192.924 19
6 -3 -4 455.642 203.961 16
6 -3 -4 318.062 165.428 24
6 -3 -4 279.759 178.464 13
6 -3 -3 23138.4 1153.77 19
6 -3 -3 21689 1087.41 16
6 -3 -3 22137.2 1107.54 24
6 -3 -3 21601.8 1133.3 13
6 -3 -2 30912.5 1289.7 19
6 -3 -2 28735 1256.97 24
6 -3 -2 29630.3 1328.85 13
6 -3 -1 3244.61 433.991 24
6 -3 -1 3250.37 450.742 13
6 -3 0 15393.9 961.119 13
6 -3 0 18552.3 996.004 24
6 -3 1 3792.38 488.233 13
6 -3 2 15616.9 890.494 14
6 -3 2 14393.7 910.248 13
6 -3 3 5495 540.635 15
6 -3 4 9096.35 706.833 15
6 -3 5 6225.76 581.611 15
6 -3 6 2147.46 358.071 15
6 -3 6 2280.7 344.079 21
6 -3 7 1559.97 305.967 14
6 -3 7 1559.88 279.096 21
6 -3 8 -18.527 156.114 14
6 -3 8 107.733 77.609 21
6 -3 9 1929.88 261.86 14
6 -3 9 2111.96 266.647 21
6 -2 -9 194.255 135.692 19
6 -2 -8 5815.44 538.534 19
6 -2 -7 12262 831.97 19
6 -2 -6 1146.8 275.117 19
6 -2 -6 1606.13 306.034 16
6 -2 -6 1421.55 295.781 13
6 -2 -5 13145.7 882.021 19
6 -2 -5 13487.6 851.321 16
6 -2 -5 12945.2 875.575 13
6 -2 -4 4145.85 496.806 19
6 -2 -4 4814.11 514.548 16
6 -2 -4 4570.54 505.875 24
6 -2 -4 4342.76 516.009 13
6 -2 -3 28948.1 1278.08 19
6 -2 -3 31610.2 1277.08 16
6 -2 -3 29886.2 1250.97 24
6 -2 -3 30094.9 1339.53 13
6 -2 -2 3815.6 458.085 19
6 -2 -2 3209.31 426.609 24
6 -2 -2 2924.26 427.78 13
6 -2 -1 8323.16 662.896 24
6 -2 -1 8193.64 703.411 13
6 -2 0 53185.4 1747.4 13
6 -2 1 426.734 187.591 13
6 -2 2 11394.8 773.193 15
6 -2 2 11246.2 791.668 13
6 -2 3 1599.16 313.891 15
6 -2 4 17781.6 991.378 15
6 -2 5 10016.8 746.713 15
6 -2 6 160.727 169.746 15
6 -2 6 241.478 123.324 21
6 -2 7 428.627 159.668 21
6 -2 8 -31.5694 117.07 14
6 -2 8 -32.9994 99.9443 21
6 -2 9 3070.47 306.869 14
6 -2 9 2910.11 296.784 21
6 -1 -10 7138.83 461.203 19
6 -1 -9 47.105 111.522 19
6 -1 -8 4872.02 511.835 19
6 -1 -7 2483.07 392.666 19
6 -1 -7 2306.78 350.844 13
6 -1 -6 7101.48 658.093 19
6 -1 -6 7407.8 658.591 13
6 -1 -5 26571.6 1247.51 19
6 -1 -5 27191.3 1271 13
6 -1 -4 537.438 197.304 19
6 -1 -4 277.286 160.964 13
6 -1 -3 21560.4 1103.05 19
6 -1 -3 21226 1125.52 13
6 -1 -2 983.208 270.443 19
6 -1 -2 1290.68 275.925 24
6 -1 -2 848.036 249.592 13
6 -1 -1 42273 1473.46 19
6 -1 -1 43327.4 1456.34 24
6 -1 -1 38252.4 1487.7 13
6 -1 0 1021.7 228.703 15
6 -1 0 1298.43 291.911 13
6 -1 1 13043.3 831.422 15
6 -1 1 13217.6 855.676 13
6 -1 2 16765.7 956.587 15
6 -1 3 29603.9 1281.21 15
6 -1 4 4484.27 512.73 15
6 -1 5 9480.66 728.465 15
6 -1 6 183.211 175.835 15
6 -1 7 1186.66 237.472 21
6 -1 8 3929.92 374.526 21
6 0 -10 1707.47 248.354 19
6 0 -9 340.696 156.536 19
6 0 -8 17507.4 952.561 19
6 0 -8 18431 929.324 13
6 0 -7 414.484 204.341 19
6 0 -7 618.595 201.859 13
6 0 -6 353.321 208.576 19
6 0 -6 -26.2875 101.932 13
6 0 -5 3336.26 460.273 19
6 0 -5 3245.4 456.005 13
6 0 -4 15387.6 943.464 19
6 0 -4 14159.5 924.429 13
6 0 -3 11111.8 795.203 19
6 0 -3 9411.73 752.995 13
6 0 -2 54913.5 1730.88 19
6 0 -2 53923 1645.85 15
6 0 -2 50809.4 1721.19 13
6 0 -1 1615.55 310.011 15
6 0 -1 1862.74 353.363 13
6 0 0 8822.4 693.218 15
6 0 0 9320.21 728.868 13
6 0 1 22845.9 1114.07 15
6 0 2 636.625 215.744 15
6 0 3 15921.4 946.644 15
6 0 3 16003.4 918.422 22
6 0 4 5292.84 551.326 15
6 0 4 5348.12 544.171 22
6 0 5 8639.05 683.664 15
6 0 6 4886.83 490.21 15
6 0 7 2577.62 327.058 21
6 0 8 4186.12 354.795 21
6 1 -10 974.192 199.136 19
6 1 -9 4129.18 434.595 19
6 1 -8 4994.34 516.539 19
6 1 -8 6178.94 558.356 13
6 1 -7 8650.22 710.615 19
6 1 -7 8447.95 694.481 13
6 1 -6 2919.73 434.758 19
6 1 -6 3493.85 466.511 13
6 1 -5 14814.2 937.549 19
6 1 -5 15696.4 978.603 13
6 1 -4 272.449 177.89 19
6 1 -4 646.225 234.486 13
6 1 -3 13914.9 894.571 19
6 1 -3 13621.8 843.575 15
6 1 -3 11731.6 843.257 13
6 1 -2 18930.4 1006.42 15
6 1 -2 17509.6 1011.78 13
6 1 -1 500.006 184.326 15
6 1 -1 686.017 214.779 13
6 1 0 10470.9 758.111 15
6 1 1 5192.76 543.949 15
6 1 2 7934.83 668.383 15
6 1 2 8109 660.984 22
6 1 3 12363.6 833.918 15
6 1 3 13664.8 854.502 22
6 1 4 3012.42 422.465 15
6 1 4 2231.09 356.179 22
6 1 5 10600.2 721.311 15
6 1 6 5.38098 97.3778 15
6 1 7 2782.05 312.679 21
6 2 -10 -27.9939 54.3773 18
6 2 -9 1242 258.405 19
6 2 -9 1459.9 249.838 18
6 2 -9 1320.93 243.692 13
6 2 -8 3880.55 450.12 19
6 2 -8 3420 431.463 13
6 2 -7 21584.8 1100.12 19
6 2 -7 21188.6 1098.54 13
6 2 -6 50987.7 1716.34 19
6 2 -6 50457.5 1730.37 13
6 2 -5 1291.91 310.447 19
6 2 -5 1693.54 337.825 13
6 2 -4 23684.6 1197.31 13
6 2 -3 234.139 146.299 15
6 2 -3 456.619 226.5 13
6 2 -2 9825.43 739.843 15
6 2 -2 9311.59 742.53 13
6 2 -1 -75.3025 123.948 15
6 2 -1 73.6169 111.358 13
6 2 0 19884.5 1054.01 15
6 2 1 3560.57 463.972 15
6 2 1 3578.97 435.141 22
6 2 2 -128.033 172.976 15
6 2 2 -300.203 170.092 22
6 2 3 1521.52 303.727 15
6 2 3 1692.67 313.053 22
6 2 4 914.061 242.665 15
6 2 4 624.212 197.321 22
6 2 5 1380.64 259.695 15
6 3 -10 363.203 116.685 13
6 3 -9 2284.77 325.137 13
6 3 -8 534.885 184.969 13
6 3 -7 2903.56 423.585 13
6 3 -6 722.502 250.134 13
6 3 -5 44461.6 1623.58 13
6 3 -4 11741.7 837.186 13
6 3 -3 3782.95 465.421 15
6 3 -3 3651.53 470.059 13
6 3 -2 14862.7 917.526 15
6 3 -2 14387.9 894.037 13
6 3 -1 9450.45 732.625 15
6 3 0 12645.4 845.425 15
6 3 0 13708.6 844.206 22
6 3 1 565.887 220.098 15
6 3 1 553.126 191.18 22
6 3 2 8343.31 667.903 15
6 3 2 8629.06 668.178 22
6 3 3 5352.99 515.917 15
6 3 3 5160.5 508.482 22
6 3 4 3054.02 361.06 15
6 3 4 2626.63 342.384 22
6 3 5 182.815 107.701 15
6 4 -10 3550.43 339.217 13
6 4 -9 47.7179 99.8459 13
6 4 -8 393.094 160.749 13
6 4 -7 2287.1 372.63 13
6 4 -6 13214.3 868.124 13
6 4 -5 1166.48 291.128 13
6 4 -4 1489.16 320.375 13
6 4 -3 3847.85 470.972 15
6 4 -3 4503.76 502.813 13
6 4 -2 3260.2 433.338 15
6 4 -1 2901.98 419.993 15
6 4 -1 3416.35 423.542 22
6 4 0 8901.62 699.405 15
6 4 0 10179.8 715.616 22
6 4 1 5464.92 527.011 15
6 4 1 4772.96 489.112 22
6 4 2 15315.4 829.95 15
6 4 2 14222 813.078 22
6 4 3 1939.99 289.984 15
6 4 3 1605.44 274.622 22
6 4 4 3326.98 309.599 15
6 4 4 3320.76 344.244 22
6 5 -9 7333.62 532.978 13
6 5 -8 1118.28 248.725 13
6 5 -7 3027.34 408.911 13
6 5 -6 3526.81 438.442 13
6 5 -5 209.263 131.194 13
6 5 -4 112.695 128.259 15
6 5 -4 117.82 141.168 13
6 5 -3 4871.47 515.075 15
6 5 -2 2484.69 384.562 15
6 5 -2 2826.14 368.421 22
6 5 -1 9671.53 692.761 15
6 5 -1 9393.46 668.61 22
6 5 0 86.144 118.923 15
6 5 0 99.389 109.842 22
6 5 1 6768.09 534.31 15
6 5 1 6753.83 540.225 22
6 5 2 -115.719 103.371 15
6 5 2 200.44 115.519 22
6 5 3 2435.26 290.045 22
6 6 -9 6227.1 453.084 13
6 6 -8 873.315 202.714 13
6 6 -7 3423.09 385.998 13
6 6 -6 2747.29 361.127 13
6 6 -5 84.0016 140.206 15
6 6 -5 57.0914 121.846 13
6 6 -4 1687.54 295.976 15
6 6 -3 582.555 193.876 15
6 6 -3 511.487 159.451 22
6 6 -2 1194.71 237.833 15
6 6 -2 931.71 207.265 22
6 6 -1 289.41 143.225 15
6 6 -1 321.562 134.926 22
6 6 0 404.435 145.611 15
6 6 0 152.027 106.666 22
6 6 1 1849.38 229.063 15
6 6 1 1570.16 237.969 22
6 7 -7 611.513 166.346 15
6 7 -7 1281.3 212.053 13
6 7 -6 -183.137 124.947 15
6 7 -6 1.56597 78.9361 13
6 7 -5 2808.09 329.307 15
6 7 -4 193.896 111.84 15
6 7 -4 245.577 104.444 22
6 7 -3 3750.7 364.346 15
6 7 -3 3530.07 343.331 22
6 7 -2 148.824 96.3599 15
6 7 -2 13.8026 85.2766 22
6 7 -1 647.338 138.32 15
6 7 -1 768.185 163.721 22
7 -9 0 8544.97 505.631 16
7 -9 1 4074.86 370.83 16
7 -9 2 9417.08 566.482 16
7 -9 3 516.849 160.363 16
7 -9 4 450.189 119.928 14
7 -9 5 922.003 169.297 14
7 -8 -2 390.756 143.601 16
7 -8 -1 1575.25 258.345 16
7 -8 0 1125.53 242.908 16
7 -8 1 2454.79 334.573 16
7 -8 2 4648.65 439.976 24
7 -8 3 -5.78769 78.2829 14
7 -8 3 239.905 142.905 24
7 -8 4 3668.99 367.252 14
7 -8 4 3844.96 376.027 24
7 -8 5 424.185 142.642 14
7 -8 5 242.429 104.771 24
7 -8 6 1296.5 210.475 14
7 -7 -4 348.267 129.46 16
7 -7 -3 852.021 199.195 16
7 -7 -2 3966.35 421.672 16
7 -7 -1 3424.81 408.106 16
7 -7 0 6841.75 576.177 16
7 -7 0 5658.51 526.406 24
7 -7 1 4813.6 492.693 24
7 -7 2 2016.52 321.794 24
7 -7 3 2814.68 342.699 14
7 -7 3 2469.66 350.486 24
7 -7 4 1403.1 251.575 14
7 -7 4 1601.2 275.616 24
7 -7 5 1503.21 260.478 14
7 -7 5 1821.38 279.477 24
7 -7 6 1774.97 268.574 14
7 -7 6 2119.56 272.936 24
-7 7 -6 2108.58 261.057 20
-7 7 -7 1096.82 181.67 20
7 -7 7 1830.58 249.771 14
7 -7 7 1525.47 207.065 24
7 -6 -5 2103.25 250.623 19
7 -6 -5 3137.53 327.087 16
7 -6 -4 12.4204 62.5533 19
7 -6 -4 236.508 130.045 16
7 -6 -3 906.399 223.147 16
7 -6 -2 5504.15 524.68 16
7 -6 -1 4201.72 476.244 16
7 -6 -1 4005.89 469.799 24
7 -6 0 3446.78 439.787 24
7 -6 1 7791.39 652.588 24
7 -6 2 1988.89 344.835 24
7 -6 3 5888.13 518.638 14
7 -6 3 6369.14 573.525 24
7 -6 4 41.884 83.4902 14
7 -6 4 4.08105 90.943 24
7 -6 5 634.788 192.3 14
7 -6 5 941.898 227.724 24
7 -6 6 17.5609 98.7047 14
7 -6 6 52.3308 103.426 24
7 -6 7 2166.55 283.841 14
7 -6 7 2557.25 288.866 24
7 -5 -6 264.445 106.803 19
7 -5 -5 1338.92 233.25 19
7 -5 -5 990.663 216.749 16
7 -5 -4 11757.5 693.134 19
7 -5 -4 10890.9 701.485 16
7 -5 -3 19351.7 972.173 16
7 -5 -2 21409.3 1042.11 16
7 -5 -2 21249.2 1051.54 24
7 -5 -1 16016.4 920.817 16
7 -5 -1 15972.5 939.101 24
7 -5 0 4221.69 498.147 24
7 -5 1 -64.5249 134.55 24
7 -5 2 1249.51 290.638 24
7 -5 3 5413.95 503.023 14
7 -5 3 5104.77 531.201 24
7 -5 4 14.0395 90.1753 14
7 -5 4 41.811 118.892 24
7 -5 5 15350.6 842.651 14
7 -5 5 16279.4 876.224 24
7 -5 6 -258.934 149.09 14
7 -5 6 378.457 145.827 24
7 -5 7 2717.62 327.124 14
7 -5 7 3057.22 327.378 24
7 -4 -7 7048.34 473.63 19
7 -4 -6 280.614 137.627 19
7 -4 -5 4943.78 475.203 19
7 -4 -5 4838.67 463.025 16
7 -4 -4 708.123 205.753 19
7 -4 -4 781.426 231.017 16
7 -4 -4 595.791 205.883 13
7 -4 -3 2135.69 329.443 19
7 -4 -3 1611.36 295.997 16
7 -4 -3 2247.21 356.906 24
7 -4 -3 2334.91 375.505 13
7 -4 -2 10045.7 720.13 16
7 -4 -2 9745.64 758.944 13
7 -4 -2 9658.91 727.608 24
7 -4 -1 10309.5 789.327 13
7 -4 -1 11021.2 786.233 24
7 -4 0 1904.58 342.567 24
7 -4 0 1500.67 337.566 13
7 -4 1 6508.64 610.633 24
7 -4 2 134.775 126.958 24
7 -4 3 1085.95 251.866 14
7 -4 3 2025.27 353.746 24
7 -4 4 18864.1 955.041 14
7 -4 5 48.3069 152.303 14
7 -4 6 21967 967.812 14
7 -4 7 5588.51 456.474 14
7 -3 -7 111.556 118.587 19
7 -3 -6 6299.91 536.794 19
7 -3 -6 6130.84 489.062 16
7 -3 -5 321.796 166.21 19
7 -3 -5 523.72 170.328 16
7 -3 -5 331.399 161.056 13
7 -3 -4 458.639 188.686 19
7 -3 -4 825.175 209.718 16
7 -3 -4 504.433 199.763 13
7 -3 -3 10812.1 751.866 19
7 -3 -3 10233.3 709.125 16
7 -3 -3 10618.6 737.574 24
7 -3 -3 10041.1 766.33 13
7 -3 -2 1276.2 272.981 16
7 -3 -2 1478.04 302.442 24
7 -3 -2 1350.42 299.744 13
7 -3 -1 11896.5 855.666 13
7 -3 -1 12139.8 814.047 24
7 -3 0 2403.3 382.948 24
7 -3 0 2182.46 388.86 13
7 -3 1 23655.3 1172.62 13
7 -3 1 23156.8 1135.08 24
7 -3 3 4756.15 482.97 15
7 -3 3 4472.78 473.254 14
7 -3 4 623.216 190.079 15
7 -3 4 470.675 193.257 14
7 -3 5 14768.1 827.963 14
7 -3 6 8762.62 610.338 14
7 -3 7 6243.85 472.765 14
7 -2 -8 443.806 152.257 19
7 -2 -7 732.378 200.324 19
7 -2 -6 7252.19 596.928 19
7 -2 -6 6925.83 563.983 13
7 -2 -5 5426.48 537.651 19
7 -2 -5 4972.18 519.425 13
7 -2 -4 757.186 225.272 19
7 -2 -4 707.713 237.535 13
7 -2 -3 689.7 223.345 19
7 -2 -3 822.999 224.196 24
7 -2 -3 410.836 208.337 13
7 -2 -2 392.486 160.41 19
7 -2 -2 363.229 176.021 24
7 -2 -2 489.18 220.754 13
7 -2 -1 768.697 235.246 24
7 -2 -1 559.786 225.562 13
7 -2 0 3049.43 442.868 13
7 -2 0 3019.12 412.503 24
7 -2 1 21504.7 1102.05 13
7 -2 1 20702.5 1052.49 24
7 -2 2 169.988 155.415 15
7 -2 3 4246.55 468.695 15
7 -2 3 4662.22 484.592 14
7 -2 4 734.031 211.523 15
7 -2 4 1214.45 250.623 14
7 -2 5 3563.02 407.088 15
7 -2 5 3713.29 413.833 14
7 -2 6 7961.9 567.374 14
7 -2 7 1269.36 213.443 14
7 -2 7 775.58 151.697 21
7 -1 -8 1259.77 238.133 19
7 -1 -7 8298.18 612.094 19
7 -1 -7 7952.38 572.269 13
7 -1 -6 8493.3 658.225 19
7 -1 -6 8927.4 667.861 13
7 -1 -5 9576.26 716.469 19
7 -1 -5 9107.67 715.01 13
7 -1 -4 6782.31 617.216 19
7 -1 -4 8182.4 697.733 13
7 -1 -3 3122.51 420.025 19
7 -1 -3 3061.31 455.443 13
7 -1 -2 21296.1 1132.16 13
7 -1 -1 903.108 234.962 24
7 -1 -1 682.572 244.796 13
7 -1 0 20091.1 1000.75 15
7 -1 0 21541.7 1107.27 13
7 -1 0 21482.1 1043.85 24
7 -1 1 38.6591 93.4911 15
7 -1 1 -35.7749 120.223 13
7 -1 2 185.857 140.357 15
7 -1 3 1033.92 240.494 15
7 -1 4 4320.82 461.598 15
7 -1 5 478.797 189.627 15
7 -1 5 520.197 153.356 21
7 -1 6 6096.85 471.734 14
7 -1 6 5386.61 407.65 21
7 0 -8 3536.27 385.802 19
7 0 -8 3354.12 338.143 13
7 0 -7 6553.22 557.517 19
7 0 -7 7090.31 566.961 13
7 0 -6 14.3616 143.948 19
7 0 -6 43.3826 124.568 13
7 0 -5 4372.25 500.648 19
7 0 -5 4948.83 532.046 13
7 0 -4 6252.4 601.771 19
7 0 -4 5634.22 595.808 13
7 0 -3 2663.61 410.824 13
7 0 -2 7236.3 658.858 13
7 0 -1 5362.8 527.567 15
7 0 -1 5475.65 567.545 13
7 0 0 10645.7 744.959 15
7 0 0 10824 763.046 13
7 0 1 226.485 148.961 15
7 0 2 3970.54 465.538 15
7 0 3 941.806 248.197 15
7 0 4 -15.489 122.965 15
7 0 5 3351.2 362.043 15
7 0 5 3362.24 336.543 21
7 0 6 913.932 165.692 21
7 1 -8 1529.03 241.241 13
7 1 -7 1674.53 295.117 13
7 1 -6 305.808 148.906 13
7 1 -5 24306.3 1164.85 13
7 1 -4 1137.02 297.321 13
7 1 -3 7337 600.681 15
7 1 -3 7670.93 669.455 13
7 1 -2 921.962 232.009 15
7 1 -2 1415.43 315.216 13
7 1 -1 193.229 143.756 15
7 1 -1 296.091 165.7 13
7 1 0 9690.02 713.262 15
7 1 1 6606.79 590.471 15
7 1 2 3089.02 408.403 15
7 1 3 2340.67 346.306 15
7 1 4 -12.2587 127.231 15
7 1 5 1265.71 222.912 15
7 2 -8 5056.53 438.595 13
7 2 -7 19.2422 108.359 13
7 2 -6 4560.24 493.409 13
7 2 -5 589.098 166.994 15
7 2 -5 413.483 183.006 13
7 2 -4 20696.2 979.597 15
7 2 -4 19797 1039.31 13
7 2 -3 4350.7 469.338 15
7 2 -3 4943.33 525.058 13
7 2 -2 3927.92 452.011 15
7 2 -2 4125.47 473.995 13
7 2 -1 9702.38 701.728 15
7 2 0 0.94559 141.653 15
7 2 1 16404.1 895.92 15
7 2 2 1680.16 293.402 15
7 2 2 1507.47 251.218 22
7 2 3 2781.98 345.73 15
7 2 4 2369.77 290.047 15
7 3 -8 1713.31 256.158 13
7 3 -7 142.533 114.356 13
7 3 -6 690.914 169.975 15
7 3 -6 481.368 191.657 13
7 3 -5 2768.78 349.066 15
7 3 -5 3112.48 409.449 13
7 3 -4 2308.39 339.905 15
7 3 -4 2276.09 346.724 13
7 3 -3 30331.2 1197.5 15
7 3 -3 32050 1232.25 13
7 3 -2 10034.6 694.753 15
7 3 -1 235.997 169.132 15
7 3 0 5381.05 502.762 15
7 3 1 3017.96 370.621 15
7 3 1 3234.14 347.172 22
7 3 2 -111.292 124.932 15
7 3 2 89.0712 87.2083 22
7 3 3 9137.03 526.049 15
7 4 -8 80.8827 76.6423 13
7 4 -7 2889.38 292.957 15
7 4 -7 5268.59 459.081 13
7 4 -6 2093.98 284.332 15
7 4 -6 2183.59 319.421 13
7 4 -5 113.88 115.818 15
7 4 -5 59.619 119.287 13
7 4 -4 6040.51 507.986 15
7 4 -4 5888.86 500.769 13
7 4 -3 152.753 132.698 15
7 4 -2 151.786 123.196 15
7 4 -1 2196.07 320.659 15
7 4 0 2900.57 348.43 15
7 4 0 2856.16 306.138 22
7 4 1 1257.73 226.999 15
7 4 1 1339.21 203.347 22
7 5 -7 907.655 161.102 15
7 5 -7 1351.15 218.027 13
7 5 -6 126.56 88.3752 15
7 5 -6 36.9363 87.797 13
7 5 -5 63.2483 102.855 15
7 5 -5 145.022 95.4772 13
7 5 -4 13163.1 690.928 15
7 5 -3 998.857 212.103 15
7 5 -2 58.3879 108.07 15
7 5 -1 2225.64 281.625 15
8 -7 0 5859.69 425.446 16
8 -7 1 5055.69 400.885 16
8 -7 2 6705.71 460.436 16
8 -7 2 6917.17 467.399 24
8 -7 3 162.785 107.738 24
8 -6 -2 927.961 177.249 16
8 -6 -1 12353.1 646.538 16
8 -6 0 121.794 96.0195 16
8 -6 0 381.117 148.601 24
8 -6 1 7795.4 530.369 16
8 -6 1 8413.5 567.851 24
8 -6 2 4341.14 410.107 24
8 -6 3 5342.35 439.227 24
8 -6 4 -59.3593 86.8706 24
8 -5 -3 12391.9 611.264 16
8 -5 -2 31862 1034.2 16
8 -5 -1 -148.382 111.659 16
8 -5 -1 65.8736 97.311 24
8 -5 0 6281.57 486.779 16
8 -5 0 6850.74 538.033 24
8 -5 1 4872.8 429.623 16
8 -5 1 4854.03 454.437 24
8 -5 2 172.121 136.699 24
8 -5 3 323.869 135.98 24
8 -5 4 1736.42 259.258 24
8 -4 -4 9953.57 519.316 16
8 -4 -3 4138.92 363.739 16
8 -4 -2 328.706 121.854 16
8 -4 -1 3739.33 372.306 16
8 -4 -1 3659.57 399.486 24
8 -4 0 367.24 134.308 16
8 -4 0 381.573 162.397 24
8 -4 1 6734.12 546.586 24
8 -4 2 935.648 212.953 24
8 -4 3 7918.25 561.344 24
8 -4 4 1383.87 197.981 14
8 -4 4 1440.77 232.864 24
8 -3 -5 4061.17 349.824 19
8 -3 -4 563.373 178.313 13
8 -3 -3 993.579 233.894 13
8 -3 -2 10462.2 708.03 13
8 -3 -2 10997.8 661.178 24
8 -3 -1 -66.907 94.4307 24
8 -3 0 3510.3 397.787 24
8 -3 1 4492.95 447.186 24
8 -3 2 3466.4 379.546 24
8 -3 3 3395.53 371.504 24
8 -3 4 688.672 145.491 14
8 -3 4 596.23 153.831 24
8 -2 -5 -23.852 88.542 13
8 -2 -4 4707 453.244 13
8 -2 -3 4675.95 472.263 13
8 -2 -2 447.385 184.596 13
8 -2 -1 13778.3 814.097 13
8 -2 -1 14172.3 751.004 24
8 -2 0 10309.7 648.295 24
8 -2 1 3979.75 404.4 24
8 -2 2 4082.6 400.452 24
8 -2 3 -27.9191 79.4036 15
8 -2 3 6.44584 86.396 24
8 -2 4 10082.8 559.863 24
8 -1 -6 1832.07 247.154 13
8 -1 -5 701.09 182.323 13
8 -1 -4 797.411 206.485 13
8 -1 -3 -74.8458 141.252 13
8 -1 -2 484.843 188.505 13
8 -1 -1 20193.3 952.944 13
8 -1 0 2731.21 344.536 13
8 -1 1 12729.3 665.74 15
8 -1 1 14066.7 709.623 24
8 -1 2 3396.28 349.221 15
8 -1 2 3869.07 367.572 24
8 -1 3 2660.93 298.499 15
8 -1 3 2848.69 298.905 24
8 0 -6 161.936 109.722 13
8 0 -5 1574.42 261.479 13
8 0 -4 446.194 177.396 13
8 0 -3 -38.0412 113.874 13
8 0 -2 2313.21 335.499 13
8 0 -1 -258.009 112.615 15
8 0 -1 144.516 120.763 13
8 0 0 1312.94 230.476 15
8 0 1 4446.32 402.675 15
8 0 2 1406.56 232.613 15
8 0 3 5172.74 389.366 15
8 1 -6 2848.3 312.773 13
8 1 -5 2082.23 290.103 13
8 1 -4 2685.96 340.156 13
8 1 -3 2205.08 311.471 13
8 1 -2 2358.28 283.469 15
8 1 -2 3031.57 346.718 13
8 1 -1 59.6171 85.1673 15
8 1 0 552.164 161.77 15
8 1 1 267.41 120.452 15
8 1 2 479.875 149.441 15
8 2 -5 1490.54 229.593 13
8 2 -4 291.98 123.762 13
8 2 -3 1280.83 202.172 15
8 2 -3 1171.82 214.94 13
8 2 -2 108.917 105.397 15
8 2 -1 2345.46 283.598 15
8 2 0 1565.82 233.428 15
8 3 -3 1105.62 183.916 15
8 3 -2 74.7253 76.491 15
