#------------------------------------------------------------------------------
#$Date: 2020-02-21 02:24:15 +0200 (Fri, 21 Feb 2020) $
#$Revision: 248350 $
#$URL: file:///home/coder/svn-repositories/cod/cif/4/03/79/4037948.cif $
#------------------------------------------------------------------------------
#
# This file is available in the Crystallography Open Database (COD),
# http://www.crystallography.net/
#
# All data on this site have been placed in the public domain by the
# contributors.
#
data_4037948
loop_
_publ_author_name
'Pan, Zhengbing'
'Mao, Kaimin'
'Zhu, Guangzhou'
'Wang, Chang'
'Zhang, Jinpeng'
'Rong, Liangce'
_publ_section_title
;
 Copper-catalyzed Annulation Reaction of Alkenes and N-alkyl(aryl)-1-
 (methylthio)-2-nitroethenamine: an Approach for the Synthesis of
 Isoxazole Derivatives.
;
_journal_name_full               'The Journal of organic chemistry'
_journal_paper_doi               10.1021/acs.joc.9b03157
_journal_year                    2020
_chemical_formula_moiety         'C12 H13 N3 O4'
_chemical_formula_sum            'C12 H13 N3 O4'
_chemical_formula_weight         263.25
_space_group_crystal_system      triclinic
_space_group_IT_number           2
_space_group_name_Hall           '-P 1'
_space_group_name_H-M_alt        'P -1'
_atom_sites_solution_hydrogens   geom
_atom_sites_solution_primary     dual
_audit_creation_date             2018-07-10
_audit_creation_method
;
Olex2 1.2
(compiled 2018.05.29 svn.r3508 for OlexSys, GUI svn.r5506)
;
_cell_angle_alpha                96.609(4)
_cell_angle_beta                 93.905(4)
_cell_angle_gamma                91.966(4)
_cell_formula_units_Z            2
_cell_length_a                   7.7970(4)
_cell_length_b                   8.5423(4)
_cell_length_c                   9.3211(4)
_cell_measurement_reflns_used    3731
_cell_measurement_temperature    99.99(10)
_cell_measurement_theta_max      28.4890
_cell_measurement_theta_min      3.0640
_cell_volume                     614.71(5)
_computing_cell_refinement       'CrysAlisPro 1.171.38.43f (Rigaku OD, 2015)'
_computing_data_collection       'CrysAlisPro 1.171.38.43f (Rigaku OD, 2015)'
_computing_data_reduction        'CrysAlisPro 1.171.38.43f (Rigaku OD, 2015)'
_computing_molecular_graphics    'Olex2 (Dolomanov et al., 2009)'
_computing_publication_material  'Olex2 (Dolomanov et al., 2009)'
_computing_structure_refinement  'ShelXL (Sheldrick, 2015)'
_computing_structure_solution    'ShelXT (Sheldrick, 2015)'
_diffrn_ambient_environment      N~2~
_diffrn_ambient_temperature      99.99(10)
_diffrn_detector                 'CCD plate'
_diffrn_detector_area_resol_mean 5.2684
_diffrn_detector_type            AtlasS2
_diffrn_measured_fraction_theta_full 1.000
_diffrn_measured_fraction_theta_max 1.000
_diffrn_measurement_details
;
List of Runs (angles in degrees, time in seconds):

  # Type    Start    End  Width  t~exp~   \w     \q     \k     \f   Frames
--------------------------------------------------------------------------
  1  \w    -60.00  40.00   1.00    1.00    --   11.90 -57.00  60.00  100
  2  \w    -21.00  88.00   1.00    1.00    --   11.90  77.00 -30.00  109
  3  \w    -16.00  85.00   1.00    1.00    --   11.90  57.00-150.00  101
  4  \w     34.00  99.00   1.00    1.00    --   11.90-178.00  60.00   65
  5  \w    -16.00  31.00   1.00    1.00    --   11.90  57.00  90.00   47
  6  \w    -20.00  53.00   1.00    1.00    --   11.90 -99.00-120.00   73
;
_diffrn_measurement_device       'four-circle diffractometer'
_diffrn_measurement_device_type  'SuperNova, Dual, Cu at zero, AtlasS2'
_diffrn_measurement_method       '\w scans'
_diffrn_orient_matrix_type
'CrysAlisPro convention (1999,Acta A55,543-557)'
_diffrn_orient_matrix_UB_11      -0.0749221000
_diffrn_orient_matrix_UB_12      -0.0254212000
_diffrn_orient_matrix_UB_13      -0.0452708000
_diffrn_orient_matrix_UB_21      -0.0471191000
_diffrn_orient_matrix_UB_22      -0.0040825000
_diffrn_orient_matrix_UB_23      0.0620225000
_diffrn_orient_matrix_UB_31      -0.0222639000
_diffrn_orient_matrix_UB_32      0.0796045000
_diffrn_orient_matrix_UB_33      -0.0017693000
_diffrn_radiation_monochromator  mirror
_diffrn_radiation_probe          x-ray
_diffrn_radiation_type           MoK\a
_diffrn_radiation_wavelength     0.71073
_diffrn_reflns_av_R_equivalents  0.0239
_diffrn_reflns_av_unetI/netI     0.0260
_diffrn_reflns_Laue_measured_fraction_full 1.000
_diffrn_reflns_Laue_measured_fraction_max 1.000
_diffrn_reflns_limit_h_max       9
_diffrn_reflns_limit_h_min       -9
_diffrn_reflns_limit_k_max       10
_diffrn_reflns_limit_k_min       -10
_diffrn_reflns_limit_l_max       11
_diffrn_reflns_limit_l_min       -11
_diffrn_reflns_number            6952
_diffrn_reflns_point_group_measured_fraction_full 1.000
_diffrn_reflns_point_group_measured_fraction_max 1.000
_diffrn_reflns_theta_full        24.998
_diffrn_reflns_theta_max         24.998
_diffrn_reflns_theta_min         2.205
_diffrn_source                   'micro-focus sealed X-ray tube'
_diffrn_source_type              'SuperNova (Mo) X-ray Source'
_exptl_absorpt_coefficient_mu    0.109
_exptl_absorpt_correction_T_max  1.00000
_exptl_absorpt_correction_T_min  0.66162
_exptl_absorpt_correction_type   multi-scan
_exptl_absorpt_process_details
;
CrysAlisPro 1.171.38.43f (Rigaku Oxford Diffraction, 2015)
Empirical absorption correction using spherical harmonics,
 implemented in SCALE3 ABSPACK scaling algorithm.
;
_exptl_crystal_colour            colourless
_exptl_crystal_colour_primary    colourless
_exptl_crystal_density_diffrn    1.422
_exptl_crystal_description       block
_exptl_crystal_F_000             276
_exptl_crystal_size_max          0.13
_exptl_crystal_size_mid          0.12
_exptl_crystal_size_min          0.11
_refine_diff_density_max         0.222
_refine_diff_density_min         -0.198
_refine_diff_density_rms         0.041
_refine_ls_extinction_method     none
_refine_ls_goodness_of_fit_ref   1.048
_refine_ls_hydrogen_treatment    constr
_refine_ls_matrix_type           full
_refine_ls_number_parameters     174
_refine_ls_number_reflns         2162
_refine_ls_number_restraints     0
_refine_ls_restrained_S_all      1.048
_refine_ls_R_factor_all          0.0450
_refine_ls_R_factor_gt           0.0384
_refine_ls_shift/su_max          0.000
_refine_ls_shift/su_mean         0.000
_refine_ls_structure_factor_coef Fsqd
_refine_ls_weighting_details
'w=1/[\s^2^(Fo^2^)+(0.0492P)^2^+0.1980P] where P=(Fo^2^+2Fc^2^)/3'
_refine_ls_weighting_scheme      calc
_refine_ls_wR_factor_gt          0.0978
_refine_ls_wR_factor_ref         0.1026
_reflns_Friedel_coverage         0.000
_reflns_number_gt                1870
_reflns_number_total             2162
_reflns_threshold_expression     'I > 2\s(I)'
_iucr_refine_instructions_details
;
TITL 3_0711_a.res in P-1
    3_0711.res
    created by SHELXL-2018/3 at 16:33:10 on 10-Jul-2018
REM Old TITL 3_0711 in P-1
REM SHELXT solution in P-1: R1 0.137, Rweak 0.006, Alpha 0.031
REM <I/s> 0.000 for 0 systematic absences, Orientation as input
REM Formula found by SHELXT: C13 N3 O3
CELL 0.71073 7.797 8.5423 9.3211 96.609 93.905 91.966
ZERR 2 0.0004 0.0004 0.0004 0.004 0.004 0.004
LATT 1
SFAC C H N O
UNIT 24 26 6 8

L.S. 20
PLAN  20
SIZE 0.11 0.12 0.13
BOND
list 4
fmap 2 53
acta
OMIT -3 50
REM <olex2.extras>
REM <HklSrc "%.\\3_0711.hkl">
REM </olex2.extras>

WGHT    0.049200    0.198000
FVAR       0.95476
O3    4    0.771512    0.693749    0.153293    11.00000    0.03055    0.02511 =
         0.02677   -0.00037    0.00319    0.00433
O4    4    0.276600    0.934716    0.057187    11.00000    0.04040    0.02664 =
         0.03123    0.00175    0.00094    0.00650
O2    4    0.701990    0.292713    0.654602    11.00000    0.05922    0.04238 =
         0.04945    0.02646    0.01985    0.01168
N3    3    0.262766    0.673901   -0.025190    11.00000    0.03436    0.02624 =
         0.02895   -0.00186   -0.00099    0.00521
AFIX  43
H3    2    0.315513    0.586889   -0.029435    11.00000   -1.20000
AFIX   0
N2    3    0.610921    0.673752    0.073513    11.00000    0.03153    0.02699 =
         0.02479    0.00264    0.00306    0.00026
O1    4    0.742713    0.266145    0.428336    11.00000    0.10365    0.02420 =
         0.04809    0.00403    0.02095    0.00916
N1    3    0.723239    0.347986    0.541419    11.00000    0.03693    0.02855 =
         0.04115    0.01212    0.00934    0.00614
C5    1    0.742304    0.744657    0.412264    11.00000    0.02078    0.02239 =
         0.02653    0.00090   -0.00067    0.00092
C10   1    0.517294    0.788456    0.114704    11.00000    0.03360    0.02235 =
         0.02140    0.00410    0.00517    0.00074
C6    1    0.742501    0.582130    0.413398    11.00000    0.02662    0.02430 =
         0.02439   -0.00053    0.00213    0.00329
AFIX  43
H6    2    0.754721    0.515811    0.328655    11.00000   -1.20000
AFIX   0
C11   1    0.340578    0.804512    0.046001    11.00000    0.03294    0.02787 =
         0.01969    0.00353    0.00514    0.00245
C9    1    0.603012    0.907854    0.229151    11.00000    0.03030    0.02123 =
         0.02525    0.00396    0.00181    0.00178
AFIX  23
H9A   2    0.531484    0.930671    0.309515    11.00000   -1.20000
H9B   2    0.633291    1.005107    0.190707    11.00000   -1.20000
AFIX   0
C4    1    0.724167    0.839790    0.542020    11.00000    0.02818    0.02341 =
         0.03213   -0.00161   -0.00187    0.00254
AFIX  43
H4    2    0.723942    0.948703    0.542430    11.00000   -1.20000
AFIX   0
C1    1    0.724173    0.520592    0.542982    11.00000    0.02508    0.02472 =
         0.03195    0.00573    0.00132    0.00375
C7    1    0.762937    0.820556    0.273269    11.00000    0.02997    0.01905 =
         0.02590    0.00000    0.00387    0.00170
C2    1    0.705765    0.613623    0.672163    11.00000    0.03016    0.03882 =
         0.02426    0.00775    0.00124    0.00540
AFIX  43
H2    2    0.693321    0.568896    0.757428    11.00000   -1.20000
AFIX   0
C3    1    0.706464    0.775172    0.670423    11.00000    0.03542    0.03684 =
         0.02439   -0.00414   -0.00178    0.00563
AFIX  43
H3A   2    0.695020    0.840878    0.755676    11.00000   -1.20000
AFIX   0
C8    1    0.929828    0.919155    0.280699    11.00000    0.03145    0.02699 =
         0.04064    0.00427    0.00592   -0.00051
AFIX 137
H8A   2    1.025230    0.854360    0.299035    11.00000   -1.50000
H8B   2    0.929287    1.004326    0.357419    11.00000   -1.50000
H8C   2    0.940459    0.961104    0.190340    11.00000   -1.50000
AFIX   0
C12   1    0.090787    0.675519   -0.095713    11.00000    0.03082    0.03589 =
         0.03253   -0.00098    0.00136    0.00354
AFIX 137
H12A  2    0.096116    0.724362   -0.183141    11.00000   -1.50000
H12B  2    0.018075    0.734000   -0.031913    11.00000   -1.50000
H12C  2    0.044611    0.569265   -0.118652    11.00000   -1.50000
AFIX   0
HKLF 4




REM  3_0711_a.res in P-1
REM wR2 = 0.1026, GooF = S = 1.048, Restrained GooF = 1.048 for all data
REM R1 = 0.0384 for 1870 Fo > 4sig(Fo) and 0.0450 for all 2162 data
REM 174 parameters refined using 0 restraints

END  
     
WGHT      0.0454      0.2140 

REM Highest difference peak  0.222,  deepest hole -0.198,  1-sigma level  0.041
Q1    1   0.8622  0.6789  0.0699  11.00000  0.05    0.22
Q2    1   0.7651  0.7805  0.3423  11.00000  0.05    0.18
Q3    1   0.3638  0.6980 -0.1006  11.00000  0.05    0.16
Q4    1   0.6855  0.8589  0.2620  11.00000  0.05    0.16
Q5    1   0.5399  0.8564  0.1723  11.00000  0.05    0.16
Q6    1   0.7771  0.5691  0.6064  11.00000  0.05    0.16
Q7    1  -0.0109  0.6565 -0.0152  11.00000  0.05    0.16
Q8    1   0.8634  0.3004  0.4604  11.00000  0.05    0.15
Q9    1   0.5309  0.7042  0.1447  11.00000  0.05    0.15
Q10   1   0.5834  0.7760  0.0537  11.00000  0.05    0.14
Q11   1   0.6001  0.5656  0.0242  11.00000  0.05    0.14
Q12   1   0.6599  0.5541  0.6002  11.00000  0.05    0.14
Q13   1   0.6841  0.5565  0.4866  11.00000  0.05    0.13
Q14   1  -0.0162  0.7985  0.1126  11.00000  0.05    0.13
Q15   1   0.7928  0.6778  0.4146  11.00000  0.05    0.13
Q16   1   0.3551  1.0552  0.0487  11.00000  0.05    0.13
Q17   1   0.4578  0.8138  0.0546  11.00000  0.05    0.12
Q18   1   0.7168  0.5508  0.7809  11.00000  0.05    0.12
Q19   1   0.0407  0.7880 -0.0865  11.00000  0.05    0.12
Q20   1   0.6829  0.6671  0.3972  11.00000  0.05    0.12

  REM The information below was added by Olex2.
  REM
  REM R1 = 0.0384 for 1870 Fo > 4sig(Fo) and 0.0450 for all 8251 data
  REM n/a parameters refined using n/a restraints
  REM Highest difference peak 0.22, deepest hole -0.20
  REM Mean Shift 0, Max Shift 0.000.

  REM +++ Tabular Listing of Refinement Information +++
  REM R1_all = 0.0450
  REM R1_gt = 0.0384
  REM wR_ref = 0.1026
  REM GOOF = 1.048
  REM Shift_max = 0.000
  REM Shift_mean = 0
  REM Reflections_all = 8251
  REM Reflections_gt = 1870
  REM Parameters = n/a
  REM Hole = -0.20
  REM Peak = 0.22
  REM Flack = n/a

  
;
_cod_data_source_file            jo9b03157_si_002.cif
_cod_data_source_block           3_0711
_cod_database_code               4037948
_shelx_shelxl_version_number     2018/3
_shelx_space_group_comment
;
The symmetry employed for this shelxl refinement is uniquely defined
by the following loop, which should always be used as a source of
symmetry information in preference to the above space-group names.
They are only intended as comments.
;
_shelx_estimated_absorpt_t_max   0.988
_shelx_estimated_absorpt_t_min   0.986
_reflns_odcompleteness_completeness 100.00
_reflns_odcompleteness_iscentric 1
_reflns_odcompleteness_theta     26.32
_olex2_refinement_description
;
1. Fixed Uiso
 At 1.2 times of:
  All C(H) groups, All C(H,H) groups, All N(H) groups
 At 1.5 times of:
  All C(H,H,H) groups
2.a Secondary CH2 refined with riding coordinates:
 C9(H9A,H9B)
2.b Aromatic/amide H refined with riding coordinates:
 N3(H3), C6(H6), C4(H4), C2(H2), C3(H3A)
2.c Idealised Me refined as rotating group:
 C8(H8A,H8B,H8C), C12(H12A,H12B,H12C)
;
_olex2_submission_special_instructions 'No special instructions were received'
_oxdiff_exptl_absorpt_empirical_details
;
Empirical correction (ABSPACK) includes:
- Absorption correction using spherical harmonics
- Frame scaling
- Detector area scaling
;
_oxdiff_exptl_absorpt_empirical_full_max 1.973
_oxdiff_exptl_absorpt_empirical_full_min 0.624
loop_
_space_group_symop_operation_xyz
'x, y, z'
'-x, -y, -z'
loop_
_atom_site_label
_atom_site_type_symbol
_atom_site_fract_x
_atom_site_fract_y
_atom_site_fract_z
_atom_site_U_iso_or_equiv
_atom_site_adp_type
_atom_site_occupancy
_atom_site_site_symmetry_order
_atom_site_calc_flag
_atom_site_refinement_flags_posn
_atom_site_refinement_flags_adp
_atom_site_refinement_flags_occupancy
_atom_site_disorder_assembly
_atom_site_disorder_group
O3 O 0.77151(14) 0.69375(12) 0.15329(11) 0.0276(3) Uani 1 1 d . . . . .
O4 O 0.27660(15) 0.93472(13) 0.05719(12) 0.0328(3) Uani 1 1 d . . . . .
O2 O 0.70199(18) 0.29271(15) 0.65460(14) 0.0478(4) Uani 1 1 d . . . . .
N3 N 0.26277(18) 0.67390(16) -0.02519(14) 0.0303(3) Uani 1 1 d . . . . .
H3 H 0.315513 0.586889 -0.029435 0.036 Uiso 1 1 calc R . . . .
N2 N 0.61092(17) 0.67375(15) 0.07351(14) 0.0278(3) Uani 1 1 d . . . . .
O1 O 0.7427(2) 0.26614(15) 0.42834(16) 0.0578(4) Uani 1 1 d . . . . .
N1 N 0.72324(19) 0.34799(17) 0.54142(16) 0.0345(4) Uani 1 1 d . . . . .
C5 C 0.74230(19) 0.74466(17) 0.41226(16) 0.0235(4) Uani 1 1 d . . . . .
C10 C 0.5173(2) 0.78846(18) 0.11470(16) 0.0255(4) Uani 1 1 d . . . . .
C6 C 0.7425(2) 0.58213(18) 0.41340(17) 0.0253(4) Uani 1 1 d . . . . .
H6 H 0.754721 0.515811 0.328655 0.030 Uiso 1 1 calc R . . . .
C11 C 0.3406(2) 0.80451(18) 0.04600(16) 0.0266(4) Uani 1 1 d . . . . .
C9 C 0.6030(2) 0.90785(18) 0.22915(17) 0.0255(4) Uani 1 1 d . . . . .
H9A H 0.531484 0.930671 0.309515 0.031 Uiso 1 1 calc R . . . .
H9B H 0.633291 1.005107 0.190707 0.031 Uiso 1 1 calc R . . . .
C4 C 0.7242(2) 0.83979(19) 0.54202(18) 0.0284(4) Uani 1 1 d . . . . .
H4 H 0.723942 0.948703 0.542430 0.034 Uiso 1 1 calc R . . . .
C1 C 0.7242(2) 0.52059(18) 0.54298(17) 0.0270(4) Uani 1 1 d . . . . .
C7 C 0.7629(2) 0.82056(17) 0.27327(17) 0.0251(4) Uani 1 1 d . . . . .
C2 C 0.7058(2) 0.6136(2) 0.67216(17) 0.0307(4) Uani 1 1 d . . . . .
H2 H 0.693321 0.568896 0.757428 0.037 Uiso 1 1 calc R . . . .
C3 C 0.7065(2) 0.7752(2) 0.67042(18) 0.0329(4) Uani 1 1 d . . . . .
H3A H 0.695020 0.840878 0.755676 0.039 Uiso 1 1 calc R . . . .
C8 C 0.9298(2) 0.91915(19) 0.28070(19) 0.0329(4) Uani 1 1 d . . . . .
H8A H 1.025230 0.854360 0.299035 0.049 Uiso 1 1 calc GR . . . .
H8B H 0.929287 1.004326 0.357419 0.049 Uiso 1 1 calc GR . . . .
H8C H 0.940459 0.961104 0.190340 0.049 Uiso 1 1 calc GR . . . .
C12 C 0.0908(2) 0.6755(2) -0.09571(18) 0.0335(4) Uani 1 1 d . . . . .
H12A H 0.096116 0.724362 -0.183141 0.050 Uiso 1 1 calc GR . . . .
H12B H 0.018075 0.734000 -0.031913 0.050 Uiso 1 1 calc GR . . . .
H12C H 0.044611 0.569265 -0.118652 0.050 Uiso 1 1 calc GR . . . .
loop_
_atom_site_aniso_label
_atom_site_aniso_U_11
_atom_site_aniso_U_22
_atom_site_aniso_U_33
_atom_site_aniso_U_23
_atom_site_aniso_U_13
_atom_site_aniso_U_12
O3 0.0305(6) 0.0251(6) 0.0268(6) -0.0004(5) 0.0032(5) 0.0043(5)
O4 0.0404(7) 0.0266(6) 0.0312(6) 0.0018(5) 0.0009(5) 0.0065(5)
O2 0.0592(9) 0.0424(8) 0.0494(8) 0.0265(7) 0.0198(7) 0.0117(7)
N3 0.0344(8) 0.0262(7) 0.0290(7) -0.0019(6) -0.0010(6) 0.0052(6)
N2 0.0315(8) 0.0270(7) 0.0248(7) 0.0026(6) 0.0031(6) 0.0003(6)
O1 0.1037(13) 0.0242(7) 0.0481(8) 0.0040(6) 0.0210(8) 0.0092(7)
N1 0.0369(8) 0.0286(8) 0.0411(9) 0.0121(7) 0.0093(7) 0.0061(6)
C5 0.0208(8) 0.0224(8) 0.0265(8) 0.0009(6) -0.0007(6) 0.0009(6)
C10 0.0336(9) 0.0224(8) 0.0214(8) 0.0041(6) 0.0052(7) 0.0007(7)
C6 0.0266(8) 0.0243(8) 0.0244(8) -0.0005(6) 0.0021(6) 0.0033(6)
C11 0.0329(9) 0.0279(9) 0.0197(8) 0.0035(6) 0.0051(7) 0.0025(7)
C9 0.0303(9) 0.0212(8) 0.0253(8) 0.0040(6) 0.0018(7) 0.0018(6)
C4 0.0282(9) 0.0234(8) 0.0321(9) -0.0016(7) -0.0019(7) 0.0025(7)
C1 0.0251(8) 0.0247(8) 0.0319(9) 0.0057(7) 0.0013(7) 0.0038(6)
C7 0.0300(9) 0.0190(7) 0.0259(8) 0.0000(6) 0.0039(7) 0.0017(6)
C2 0.0302(9) 0.0388(10) 0.0243(8) 0.0077(7) 0.0012(7) 0.0054(7)
C3 0.0354(10) 0.0368(10) 0.0244(8) -0.0041(7) -0.0018(7) 0.0056(8)
C8 0.0314(9) 0.0270(9) 0.0406(10) 0.0043(7) 0.0059(8) -0.0005(7)
C12 0.0308(9) 0.0359(10) 0.0325(9) -0.0010(7) 0.0014(7) 0.0035(7)
loop_
_atom_type_symbol
_atom_type_description
_atom_type_scat_dispersion_real
_atom_type_scat_dispersion_imag
_atom_type_scat_source
C C 0.0033 0.0016 'International Tables Vol C Tables 4.2.6.8 and 6.1.1.4'
H H 0.0000 0.0000 'International Tables Vol C Tables 4.2.6.8 and 6.1.1.4'
N N 0.0061 0.0033 'International Tables Vol C Tables 4.2.6.8 and 6.1.1.4'
O O 0.0106 0.0060 'International Tables Vol C Tables 4.2.6.8 and 6.1.1.4'
loop_
_geom_angle_atom_site_label_1
_geom_angle_atom_site_label_2
_geom_angle_atom_site_label_3
_geom_angle
_geom_angle_site_symmetry_1
_geom_angle_site_symmetry_3
_geom_angle_publ_flag
N2 O3 C7 109.18(10) . . ?
C11 N3 C12 121.44(14) . . ?
C10 N2 O3 108.98(12) . . ?
O2 N1 C1 118.23(15) . . ?
O1 N1 O2 122.66(15) . . ?
O1 N1 C1 119.11(14) . . ?
C6 C5 C4 118.66(14) . . ?
C6 C5 C7 121.60(14) . . ?
C4 C5 C7 119.74(13) . . ?
N2 C10 C11 121.94(14) . . ?
N2 C10 C9 114.53(14) . . ?
C9 C10 C11 123.43(13) . . ?
C1 C6 C5 118.85(15) . . ?
O4 C11 N3 124.19(15) . . ?
O4 C11 C10 119.11(14) . . ?
N3 C11 C10 116.69(14) . . ?
C10 C9 C7 100.56(12) . . ?
C3 C4 C5 121.34(15) . . ?
C6 C1 N1 117.93(14) . . ?
C2 C1 N1 119.06(14) . . ?
C2 C1 C6 123.02(15) . . ?
O3 C7 C5 108.17(11) . . ?
O3 C7 C9 103.55(12) . . ?
O3 C7 C8 106.66(12) . . ?
C5 C7 C9 111.96(12) . . ?
C8 C7 C5 111.90(13) . . ?
C8 C7 C9 113.95(13) . . ?
C1 C2 C3 117.84(15) . . ?
C2 C3 C4 120.29(15) . . ?
loop_
_geom_bond_atom_site_label_1
_geom_bond_atom_site_label_2
_geom_bond_distance
_geom_bond_site_symmetry_2
_geom_bond_publ_flag
O3 N2 1.4069(17) . ?
O3 C7 1.4713(18) . ?
O4 C11 1.2309(19) . ?
O2 N1 1.2233(18) . ?
N3 C11 1.335(2) . ?
N3 C12 1.454(2) . ?
N2 C10 1.281(2) . ?
O1 N1 1.217(2) . ?
N1 C1 1.473(2) . ?
C5 C6 1.390(2) . ?
C5 C4 1.396(2) . ?
C5 C7 1.529(2) . ?
C10 C11 1.497(2) . ?
C10 C9 1.494(2) . ?
C6 C1 1.386(2) . ?
C9 C7 1.531(2) . ?
C4 C3 1.388(2) . ?
C1 C2 1.383(2) . ?
C7 C8 1.519(2) . ?
C2 C3 1.382(2) . ?
loop_
_refln_index_h
_refln_index_k
_refln_index_l
_refln_F_squared_meas
_refln_F_squared_sigma
0 0 -1 84.9 1.84
0 0 1 82.83 1.89
0 0 1 85.64 1.84
0 0 -1 82.45 1.87
0 0 2 926.82 13.34
0 0 2 909.38 13.57
0 0 -2 899.94 13.44
0 0 -2 916.3 13.31
0 0 -3 265.02 5.72
0 0 -3 265.93 5.83
0 0 3 261.31 5.97
0 0 3 269.9 5.77
0 0 4 17.66 1.56
0 0 4 22.11 1.61
0 0 -4 19.63 1.52
0 0 4 18.54 1.1
0 0 -4 18.62 1.49
0 0 5 90.79 2.88
0 0 -5 87.45 3.73
0 0 5 87.37 3.72
0 0 -5 92.74 3.81
0 0 5 94.88 4.12
0 0 6 106.04 3.41
0 0 -6 109.36 4.6
0 0 -6 110.87 4.61
0 0 6 101.27 4.75
0 0 6 105.42 4.53
0 0 7 20.39 2.26
0 0 7 22.78 1.61
0 0 -7 24.56 2.33
0 0 7 22.09 2.22
0 0 -8 160.93 6.63
0 0 8 156.31 6.63
0 0 -8 165.29 7.33
0 0 -8 154.23 6.54
0 0 8 157.56 4.68
0 0 8 162.22 7.15
0 0 -9 16.66 2.48
0 0 9 18.44 2.38
0 0 10 54.47 4.5
0 0 -10 60.02 5.08
0 0 -11 4.32 1.61
0 0 11 6.31 1.68
0 0 -12 1.2 1.49
0 1 -12 -1.71 1.22
0 -1 12 2.43 1.21
0 1 -11 3.23 1.43
0 -1 11 2.71 1.35
0 1 -10 14.66 2.72
0 1 -10 17.26 2.52
0 -1 10 15.38 2.29
0 1 -9 56.05 4.17
0 -1 9 51.9 3.97
0 -1 9 44.41 2.86
0 1 -9 43.27 3.33
0 -1 8 22.93 2.47
0 -1 8 24.21 2.51
0 1 -8 26.97 2.72
0 -1 8 26.81 2.18
0 1 -7 5.72 0.99
0 -1 7 6.57 1.06
0 -1 7 5.07 1.09
0 -1 7 3.01 0.81
0 1 -7 4.88 1.1
0 -1 6 56.11 2.86
0 1 -6 59.77 3.52
0 -1 6 53.04 3.03
0 -1 6 55.65 3.24
0 1 -6 58.23 2.95
0 -1 5 9.11 1.08
0 -1 5 10.65 1.27
0 1 -5 10.67 1.09
0 -1 5 10.98 1.2
0 1 -5 12.17 1.45
0 1 -4 94.05 2.99
0 1 -4 89.26 3.61
0 -1 4 89.58 3.06
0 -1 4 90.07 3.24
0 -1 4 94.38 3.54
0 1 -3 4.3 0.69
0 -1 3 4.72 0.67
0 -1 3 4.71 0.64
0 1 -3 4.67 0.52
0 -1 3 4.87 0.53
0 1 -2 1826.2 25.9
0 1 -2 1854.87 24.18
0 1 -2 1926.77 26.71
0 -1 2 1856.29 23.99
0 1 -2 1844.68 25.31
0 -1 2 1828.06 25.56
0 -1 2 1861.41 25.57
0 1 -1 234.71 5.39
0 1 -1 239.48 4.65
0 -1 1 237 4.69
0 -1 0 76.82 2.03
0 1 0 79.33 2.12
0 -1 0 77.04 2.11
0 -1 -1 2901.96 37.16
0 -1 -1 2888.57 38.6
0 1 1 2876.32 38.45
0 1 1 2875.06 37.14
0 -1 -1 2872.58 38.53
0 1 2 37.23 1.9
0 1 2 35.86 1.97
0 1 2 35.6 1.26
0 -1 -2 35.1 1.95
0 -1 -2 37.89 1.69
0 1 3 115.67 4.21
0 -1 -3 116.54 3.45
0 -1 -3 111.69 4.08
0 1 3 113.45 3.79
0 -1 -4 406.21 9.47
0 1 4 410.93 9.71
0 1 4 391.18 8.83
0 -1 -4 414.57 8.4
0 1 5 6.11 1.04
0 -1 -5 5.6 0.9
0 1 5 7.14 1.27
0 -1 -5 7.5 1.23
0 1 6 24.61 2.28
0 -1 -6 17.92 2.2
0 1 6 19.79 1.1
0 1 6 19.8 2.24
0 -1 -6 22.33 1.95
0 -1 -7 125.11 5.84
0 1 7 119.97 5.63
0 1 7 113.22 5.89
0 -1 -7 117.74 5.05
0 -1 -7 110.27 5.98
0 1 7 117.66 3.09
0 1 8 78.37 2.28
0 -1 -8 74.8 4.36
0 1 8 80.1 5
0 -1 -8 85.77 5.62
0 1 9 12.83 2.16
0 -1 -9 12.46 2.34
0 1 10 31.58 3.7
0 -1 -10 33.74 4.04
0 -1 -11 10.17 2.46
0 1 11 10.81 2.46
0 -2 12 23.92 3.33
0 2 -12 21.23 3.92
0 -2 11 8.08 1.73
0 2 -11 9.43 2.62
0 -2 10 9.22 1.79
0 2 -10 9.45 1.75
0 2 -10 7.33 2.23
0 2 -9 15.99 2.07
0 -2 9 10.1 1.77
0 2 -9 11.92 2.38
0 -2 8 10.3 1.62
0 2 -8 10.16 1.39
0 2 -8 7.42 1.77
0 2 -7 4.16 0.84
0 -2 7 3.53 0.74
0 -2 7 3.96 0.94
0 2 -7 4.33 1.21
0 -2 7 4.12 0.98
0 2 -7 5.99 1.38
0 -2 6 87.2 4.26
0 -2 6 81.93 3.33
0 2 -6 85.72 3.42
0 -2 6 83.44 4.08
0 2 -6 69.91 4.72
0 2 -6 84.75 4.61
0 -2 5 89.78 4.06
0 -2 5 93.74 4.1
0 2 -5 94.49 3.21
0 2 -5 88.37 4.91
0 -2 5 90.04 3.03
0 2 -5 92.5 4.49
0 2 -4 102.58 2.98
0 2 -4 107.91 5.1
0 -2 4 101.79 3.98
0 2 -4 99.6 4.36
0 -2 4 101.56 4.08
0 -2 4 100.03 2.66
0 -2 3 116.89 3.98
0 2 -3 105.09 4.18
0 -2 3 114.74 4.38
0 -2 3 98.76 2.18
0 2 -3 109.41 4.82
0 -2 3 106.84 3.98
0 2 -3 105.32 3.69
0 2 -3 104.78 3.04
0 2 -2 929.78 17.53
0 -2 2 956.27 16.89
0 2 -2 932.95 15.21
0 -2 2 902.62 15.4
0 2 -2 918.96 13.55
0 -2 2 932.6 15.32
0 -2 2 935.14 13.61
0 2 -1 588.87 9.57
0 2 -1 568.07 10.4
0 -2 1 587.15 9.51
0 2 -1 578.37 12.37
0 -2 0 3275.11 44.04
0 2 0 3244.23 43.97
0 -2 0 3294.79 43.66
0 -2 0 3246 43.55
0 -2 0 3273.73 43.99
0 2 0 3264.11 43.87
0 2 1 241.88 6.04
0 -2 -1 242.62 6.06
0 -2 -1 238.02 5.36
0 2 1 238.36 5.32
0 2 1 242.99 5.76
0 -2 -1 240.22 6.21
0 2 2 28.44 2.07
0 -2 -2 30.09 2.18
0 2 2 26.01 1.44
0 -2 -2 28.32 1.52
0 -2 -2 25.36 1.93
0 -2 -3 455.1 9.49
0 -2 -3 459.47 10.97
0 2 3 447.58 10.6
0 2 3 474.14 8.2
0 2 3 472.74 10.76
0 -2 -3 475.14 10.77
0 2 4 2046.8 32.97
0 2 4 2074.02 28.27
0 2 4 2097.26 32.89
0 -2 -4 2031.79 30.24
0 -2 -4 2094.34 33.53
0 -2 -5 154.77 5.13
0 2 5 155.07 6.51
0 2 5 141.14 6.09
0 -2 -5 157.36 6.37
0 2 5 154.6 3.78
0 -2 -5 151.64 6.58
0 -2 -6 40.05 2.68
0 -2 -6 40.17 3.56
0 2 6 37.77 3.25
0 2 6 35.4 1.55
0 2 6 39.6 3.42
0 -2 -6 36.34 3.15
0 -2 -7 52.05 3.3
0 2 7 48.05 4.09
0 -2 -7 55.05 4.5
0 2 7 55.43 4.22
0 -2 -8 15.46 2.58
0 -2 -8 14.09 1.84
0 2 8 15.15 2.34
0 -2 -9 0.73 0.73
0 2 9 0.41 0.54
0 2 10 16.14 2.79
0 -2 -10 17.11 3.05
0 -2 -11 20.88 3.59
0 -2 -12 0.91 1.3
0 3 -12 37.32 5.67
0 -3 12 44.88 4.59
0 -3 11 0.81 0.81
0 3 -11 -0.96 1.77
0 3 -10 -0.7 1.19
0 -3 10 0.33 0.68
0 3 -9 13.66 2.8
0 -3 9 13.45 2.16
0 3 -9 15.56 1.8
0 -3 9 14.25 2.11
0 3 -8 30.69 2.29
0 3 -8 31.98 2.62
0 3 -8 29.59 4
0 -3 8 32.49 3.06
0 -3 8 34.96 3.16
0 3 -7 16.74 1.54
0 -3 7 14.51 1.29
0 -3 7 18.33 2.19
0 3 -7 15.15 2.66
0 -3 7 15.08 1.92
0 3 -7 15.05 1.63
0 -3 6 9.31 1.5
0 -3 6 8.09 0.83
0 3 -6 8.65 1.92
0 3 -6 10.25 1.81
0 3 -6 8.47 1.13
0 -3 5 254.45 4.86
0 3 -5 275.69 9.06
0 3 -5 271.23 10.04
0 -3 5 259.17 7.73
0 3 -5 254.85 6.35
0 -3 4 149.31 2.93
0 3 -4 153.73 5.4
0 3 -4 154.16 4.23
0 3 -4 146.51 6.14
0 -3 4 152.37 5.81
0 -3 4 157.06 6.22
0 -3 4 149.84 5.43
0 -3 3 62.38 2.36
0 -3 3 59.33 3.36
0 -3 3 63.77 3.31
0 3 -3 55.59 2.23
0 -3 3 57.06 3.77
0 3 -3 57.7 3.14
0 -3 3 61.12 1.96
0 3 -3 60.18 4.22
0 3 -2 326.28 6.78
0 3 -2 333.58 10.32
0 -3 2 327.97 10.04
0 -3 2 330.59 8.32
0 3 -2 335.21 8.15
0 -3 2 317.76 6.87
0 3 -1 186.08 5.61
0 3 -1 184.71 5.12
0 -3 1 182.31 4.8
0 3 -1 182.29 7.27
0 -3 1 176.01 4.96
0 -3 0 711.97 13.2
0 3 0 702.73 13.14
0 -3 0 686.53 12.75
0 -3 0 699.07 13.28
0 3 0 697.12 13.01
0 -3 0 703.88 12.69
0 3 1 680.87 12.45
0 -3 -1 672.55 12.59
0 3 1 667.51 12.8
0 -3 -1 658.56 13.13
0 -3 -1 672.19 13.55
0 3 2 30.02 2.42
0 -3 -2 35.92 2.18
0 3 2 34.89 2.09
0 -3 -2 33.38 2.68
0 -3 -2 30.66 2.45
0 -3 -3 6.62 1.25
0 3 3 6.65 0.96
0 3 3 5.45 1.26
0 -3 -3 6.33 1.32
0 -3 -4 193.6 7.34
0 3 4 195.26 5.17
0 -3 -4 201.47 7.82
0 -3 -4 182.58 6.17
0 3 4 200.21 7.54
0 -3 -5 346.7 8.84
0 3 5 341.25 10.84
0 -3 -5 360.48 10.92
0 3 5 339.53 7.2
0 -3 -5 349.37 11.36
0 3 6 48.71 2.11
0 3 6 46.99 4.02
0 -3 -6 53.15 4.42
0 -3 -6 49.85 3.13
0 3 7 8.09 0.61
0 -3 -7 11.2 1.58
0 -3 -7 13.05 2.34
0 3 7 8.62 1.86
0 -3 -8 1.94 0.86
0 3 8 1.32 0.98
0 -3 -8 -0.41 0.6
0 3 9 18.48 2.98
0 -3 -9 18.53 3.23
0 -3 -10 6.84 2.14
0 -3 -11 6.75 2.45
0 4 -12 38.67 6.17
0 -4 12 41.9 4.54
0 4 -11 30.6 5.01
0 -4 11 32.46 3.85
0 4 -10 17.05 3.52
0 -4 10 20.88 2.85
0 4 -9 -0.6 0.7
0 -4 9 1.39 0.84
0 4 -8 62.95 3.31
0 4 -8 72.84 6.53
0 -4 8 63.58 4.53
0 4 -7 54.64 2.83
0 -4 7 56.97 4.04
0 -4 7 44.96 3.87
0 4 -7 57.46 5.59
0 -4 6 6.46 1.32
0 4 -6 4.86 0.78
0 4 -6 6.87 1.79
0 -4 6 4.8 1.23
0 -4 5 86.14 5
0 4 -5 87.17 3.2
0 4 -5 102.66 4.93
0 -4 5 100.08 4.91
0 4 -5 96.22 6.59
0 -4 5 97.09 5.5
0 -4 4 246.53 7.76
0 -4 4 226.93 4.44
0 4 -4 227.01 9.96
0 -4 4 230.34 8.15
0 -4 4 237.61 9.07
0 4 -4 223.95 5.53
0 4 -4 237.69 7.59
0 -4 3 -0.43 0.55
0 -4 3 -0.06 0.27
0 4 -3 0.22 0.32
0 4 -3 0.44 0.67
0 -4 3 -0.18 0.29
0 -4 3 0.12 0.16
0 4 -3 -0.03 0.16
0 4 -2 64.42 3.63
0 -4 2 60.33 3.61
0 4 -2 63.08 3.05
0 -4 2 65.45 3.16
0 4 -2 62.22 4.83
0 -4 2 58.57 4.56
0 -4 2 64.04 2.79
0 -4 1 799.45 16.29
0 -4 1 809.86 15.17
0 4 -1 807.55 15.84
0 -4 1 824.14 14.75
0 4 -1 807.27 15.31
0 -4 0 15.74 1.62
0 -4 0 11.59 1.52
0 -4 0 12.63 1.59
0 4 0 11.77 1.49
0 -4 0 15.54 1.67
0 4 0 14 1.68
0 4 1 69.84 3.58
0 -4 -1 66.84 3.67
0 -4 -1 69.53 4.02
0 4 1 69.89 3.65
0 -4 -1 65.64 3.74
0 -4 -2 10.38 1.62
0 -4 -2 11.36 1.44
0 4 2 9.25 1.5
0 -4 -2 7.65 1.34
0 4 2 10.11 1.33
0 -4 -3 6.44 1.4
0 4 3 9.54 1.62
0 -4 -3 8.09 1.51
0 -4 -3 6.03 1.23
0 4 3 8.06 1.14
0 -4 -3 8.1 1.2
0 4 4 165.67 5.4
0 -4 -4 173.62 7.44
0 -4 -4 162.89 6.7
0 -4 -4 155.38 7.44
0 -4 -5 2.72 0.86
0 -4 -5 3.52 1.31
0 4 5 1.92 0.56
0 -4 -6 1.11 0.56
0 -4 -6 1 1.03
0 4 6 0.53 0.34
0 -4 -7 128.25 8
0 -4 -7 117.99 5.46
0 4 7 121.03 3.44
0 -4 -8 60.31 5.71
0 -4 -9 4.56 1.62
0 -4 -10 13.25 3.04
0 5 -11 25.59 5.06
0 -5 11 31.17 3.88
0 -5 10 0.61 0.64
0 5 -10 0.08 1.2
0 5 -9 1.01 1.27
0 -5 9 1.93 0.83
0 5 -8 3.59 1.92
0 -5 8 6.07 1.47
0 5 -7 28.69 1.59
0 -5 7 32.24 3.21
0 5 -7 27.49 4.09
0 -5 6 56.89 4.09
0 5 -6 54.47 5.61
0 5 -6 54.51 2.39
0 5 -5 1.52 0.98
0 5 -5 1.07 0.36
0 -5 5 1.37 0.68
0 -5 5 2.13 1.04
0 5 -5 2.07 0.77
0 -5 4 80.4 4.65
0 -5 4 67.65 5.32
0 5 -4 75.52 6.13
0 5 -4 77.1 4.54
0 -5 4 74.52 4.92
0 -5 4 77.59 2.71
0 5 -4 80.42 3.42
0 -5 4 72.71 3.36
0 -5 3 2.85 0.65
0 -5 3 4.13 1.51
0 5 -3 3.54 0.99
0 5 -3 3.37 1.35
0 -5 3 2.83 0.79
0 5 -3 2.64 0.69
0 -5 3 3.45 1.04
0 -5 3 6.5 1.3
0 5 -2 46 2.97
0 -5 2 40.16 2.82
0 5 -2 40 3.16
0 -5 2 38.42 4.18
0 -5 2 40.41 3.25
0 -5 2 44.28 2.68
0 5 -2 43.07 4.45
0 5 -1 54.13 3.6
0 -5 1 58.84 3.4
0 -5 1 55.53 3.52
0 5 -1 62.06 3.69
0 -5 1 55.36 3.9
0 -5 1 58.94 3.78
0 5 0 286.7 8.79
0 -5 0 282.28 8.59
0 -5 0 283.97 8.26
0 -5 0 296.11 9.37
0 -5 0 284.06 8.99
0 5 1 13.77 1.74
0 -5 -1 14.13 2.03
0 -5 -1 13.66 1.86
0 -5 -1 13.23 1.82
0 5 2 4.88 1.19
0 -5 -2 4.47 1.1
0 -5 -2 1.83 0.65
0 -5 -2 3.16 1.06
0 5 2 2.49 0.77
0 -5 -3 81.9 5.45
0 -5 -3 88.02 4.64
0 -5 -3 84.8 5.6
0 5 3 82.3 4.23
0 5 3 76.94 4.98
0 -5 -3 74.72 4.91
0 -5 -4 18.06 2.68
0 5 4 18.74 1.94
0 -5 -4 18.82 2.48
0 5 4 19.11 2.64
0 -5 -5 1.87 0.83
0 -5 -5 1.5 0.93
0 5 5 1.14 0.45
0 -5 -6 44.33 4.67
0 -5 -6 33.58 3.03
0 5 6 42.4 2.64
0 5 7 2.04 0.53
0 -5 -7 1.97 1.08
0 -5 -8 4.73 1.75
0 -5 -9 0.63 1.15
0 -5 -10 31.38 4.99
0 6 -11 7.92 4.14
0 -6 10 6.6 1.76
0 6 -10 2.59 1.54
0 6 -9 4 2.09
0 -6 9 4.4 1.35
0 6 -8 4.18 2.2
0 -6 8 1.69 0.81
0 -6 7 -0.36 0.56
0 6 -7 -0.62 0.88
0 6 -6 91.58 7.98
0 -6 6 102.04 5.9
0 6 -6 84.09 3.06
0 -6 5 715.22 10.92
0 -6 5 694.99 11.12
0 6 -5 752.46 13.48
0 6 -5 765.42 17.83
0 6 -5 698.8 22.79
0 -6 5 797.09 18.03
0 6 -4 64.74 3.4
0 -6 4 66.08 3.73
0 -6 4 65.6 2.86
0 6 -4 61.91 4.37
0 -6 4 64.4 4.48
0 6 -4 60.3 6.05
0 -6 3 302.03 9.1
0 -6 3 298.46 7.9
0 6 -3 306.81 8.69
0 6 -3 300.11 13.63
0 -6 3 299.52 10.23
0 6 -3 305.03 10.15
0 -6 2 4.61 0.94
0 -6 2 4.01 1.01
0 -6 2 6.28 1.43
0 6 -2 4.61 1.25
0 -6 2 5.91 1.75
0 -6 2 5.41 1.44
0 6 -2 4.71 1.11
0 -6 1 167.41 7.69
0 -6 1 175.29 6.73
0 -6 1 156.93 9.56
0 -6 1 170.22 7.03
0 -6 1 172.05 7.27
0 6 -1 161.85 7.02
0 -6 0 12.41 1.94
0 -6 0 12.62 2.93
0 -6 0 15.87 1.94
0 6 0 11.66 1.87
0 -6 0 8.79 1.81
0 -6 0 10.44 1.78
0 -6 -1 36.25 3.39
0 -6 -1 30.95 3.07
0 -6 -1 32.55 3.42
0 6 1 31.24 2.98
0 -6 -2 208.89 8.39
0 -6 -2 214.48 9.35
0 6 2 217.32 8.28
0 6 2 219.42 8.07
0 -6 -3 8.41 1.93
0 6 3 11.26 1.73
0 6 3 12.3 2.09
0 -6 -3 14.39 2.13
0 -6 -4 7.95 1.98
0 6 4 10.63 1.66
0 6 5 43 3.14
0 6 5 33.03 4.01
0 -6 -5 46.66 4.88
0 -6 -5 33.57 3.51
0 6 6 6.67 1.19
0 -6 -6 7.47 2.16
0 -6 -7 5.5 1.94
0 -6 -8 5.29 2.04
0 -6 -9 -0.43 0.89
0 7 -10 11.37 3.48
0 -7 9 1.33 0.91
0 7 -9 1.43 1.2
0 -7 8 0.1 0.47
0 7 -8 -0.56 1.74
0 -7 7 2.2 1.43
0 7 -7 2.23 1.68
0 7 -6 11.71 3.22
0 -7 6 15.66 2.48
0 7 -5 199.94 8.84
0 -7 5 199.27 5.38
0 -7 5 191.64 6.47
0 -7 5 206.09 8.87
0 7 -5 211.48 12.67
0 -7 5 185.06 4.61
0 7 -4 249.2 13.58
0 7 -4 255.88 9.97
0 -7 4 266.22 8.89
0 -7 4 262.35 7.05
0 -7 4 256.25 10
0 -7 3 7.66 1.28
0 -7 3 10.92 1.96
0 7 -3 9.49 1.79
0 -7 3 6.74 1.48
0 -7 2 21.56 2.55
0 -7 2 20.85 2.75
0 -7 2 18.64 2.15
0 -7 2 19.87 2.76
0 7 -2 23.06 2.83
0 -7 1 218.55 8.91
0 7 -1 206.01 8.62
0 -7 1 232.54 8.78
0 -7 1 205.48 8.07
0 -7 0 50.14 4.35
0 7 0 43.43 3.8
0 -7 0 51.41 4.09
0 -7 -1 17.37 2.63
0 7 1 19.43 2.54
0 7 2 2.62 1
0 -7 -2 4.41 1.57
0 7 3 18.08 2.38
0 -7 -3 12.88 2.5
0 -7 -3 18.81 2.63
0 7 3 16.71 2.49
0 -7 -4 1.36 1.21
0 7 4 2.34 0.93
0 7 5 10.35 1.74
0 -7 -5 9.31 2.52
0 -7 -6 0.01 0.77
0 -7 -7 61.76 6.67
0 8 -9 32.01 5.96
0 -8 8 21.18 3.23
0 8 -8 25.44 5.1
0 -8 7 3.07 1.19
0 8 -7 4.17 2.21
0 8 -6 3.21 1.71
0 -8 6 4.64 1.55
0 -8 5 162.92 8.38
0 8 -5 152.99 11.51
0 -8 5 161.77 6.59
0 8 -5 166.61 8.51
0 8 -4 15.69 2.51
0 -8 4 12.94 2.1
0 -8 4 12.86 2.32
0 -8 3 3.76 1.21
0 8 -3 5.4 1.52
0 -8 3 4.65 1.5
0 -8 3 6.99 1.95
0 -8 3 2.92 0.89
0 -8 2 7.63 1.85
0 -8 2 6.35 1.63
0 8 -2 5.77 1.58
0 -8 2 6.9 1.61
0 -8 2 5.76 1.35
0 8 -1 143.29 7.65
0 -8 1 149.75 7.93
0 -8 1 168.61 8.67
0 -8 1 178.22 7.7
0 -8 0 180.58 9.17
0 8 0 175.04 8.45
0 -8 -1 301.03 12.37
0 8 1 279.78 10.76
0 8 2 21.3 2.77
0 -8 -2 21.47 3.39
0 -8 -3 5.86 1.97
0 8 3 6.82 1.55
0 8 4 0.27 0.35
0 -8 -4 3.33 1.6
0 -8 -5 1.99 1.48
0 8 5 2.2 0.96
0 -8 -6 21.45 4.05
0 9 -8 9.62 3.34
0 9 -7 2.71 1.7
0 -9 7 -0.53 0.96
0 9 -6 0.8 1.02
0 -9 6 1.88 0.74
0 9 -5 4.98 1.59
0 -9 5 7.9 1.89
0 -9 4 1.77 1.06
0 -9 4 1.12 0.67
0 -9 4 -0.97 0.92
0 9 -4 0 0.56
0 9 -3 0.96 0.99
0 -9 3 0.18 0.6
0 -9 3 0.05 0.73
0 -9 2 5.78 1.55
0 -9 2 6.29 1.81
0 9 -2 4.87 1.64
0 -9 2 5.09 1.71
0 -9 1 338.03 13.42
0 -9 1 370.99 14.19
0 9 -1 344.86 13.05
0 9 0 1.87 0.9
0 -9 0 0.25 0.52
0 9 1 3.46 1.13
0 -9 -1 4.57 1.68
0 9 2 1.18 0.74
0 -9 -2 0.64 0.87
0 -9 -3 5.93 2.15
0 9 3 5.01 1.49
0 -9 -4 6.25 2.27
0 9 4 5.17 1.35
0 -9 -5 27.73 4.51
0 -10 5 4.15 1.57
0 10 -4 39.92 4.63
0 -10 4 49.06 5.11
0 10 -3 22.75 3.42
0 -10 3 23.17 3.43
0 -10 3 26.45 3.76
0 -10 2 29.47 4.01
0 10 -2 36.5 4.32
0 -10 2 28.27 3.97
0 -10 1 56.52 5.73
0 10 -1 60.77 5.57
0 -10 1 54.36 5.64
0 -10 0 9.49 2.52
0 10 0 10.36 2.33
0 -10 0 7.52 2.25
0 10 1 11.6 2.43
0 -10 -1 11.5 2.95
0 -10 -2 52.47 6.06
0 10 2 59.5 5.36
0 10 3 54.84 5.07
0 -10 -3 51.87 6.31
0 -11 2 64.77 6.4
0 -11 1 15.42 3.11
0 -11 1 17.78 3.58
0 -11 0 1.45 1.02
0 -11 0 0.14 1.16
0 11 0 0.19 0.89
0 -11 -1 18.35 3.47
0 11 1 29.22 4
0 -11 -1 23.98 4.28
0 -11 -2 0.23 0.74
0 11 2 -0.49 0.91
1 -11 -2 17.53 3.74
1 -11 -2 14.63 2.83
1 -11 -1 -0.18 1.11
1 -11 -1 0.86 0.9
1 -11 0 3.06 1.1
1 -11 0 4.9 2.08
1 -11 1 23.91 3.67
1 -11 2 6.68 2.13
1 -11 3 29.17 4.12
1 -10 -3 -0.42 0.72
1 -10 -3 0.57 1.2
1 -10 -2 10.69 2.8
1 -10 -2 6.11 1.91
1 -10 -1 16.11 2.99
1 -10 -1 18.83 3.56
-1 10 1 17.5 2.9
-1 10 0 5.99 1.8
1 -10 0 6.09 1.69
1 -10 0 4.44 1.72
1 -10 1 5.97 2
1 -10 1 7.68 1.94
1 -10 2 74.79 6.09
1 -10 2 69.3 5.98
1 -10 3 2.77 1.66
1 -10 4 59.05 5.48
1 -10 5 31.09 3.95
1 -9 -5 -0.32 1.3
1 -9 -4 7.86 2.4
-1 9 3 8.48 1.9
1 -9 -3 10.22 2.55
-1 9 2 20.35 2.8
1 -9 -2 21.93 3.73
1 -9 -1 -0.07 0.82
1 -9 -1 0.48 1.02
-1 9 1 0.73 0.66
1 -9 0 10.58 2.24
-1 9 0 13.32 2.36
1 -9 0 12.4 2.42
1 -9 1 -0.15 0.57
1 -9 1 0.62 0.71
1 -9 1 1.38 1.11
-1 9 -1 1.14 0.7
1 -9 2 59.68 6.02
1 -9 2 68.57 5.36
1 -9 2 59.81 5.16
-1 9 -2 62.61 5.23
1 -9 3 52.91 4.79
1 -9 3 46.88 4.26
1 -9 3 53.21 6.03
1 -9 4 17.44 2.79
1 -9 4 16.37 3.44
-1 9 -5 -0.94 1.24
1 -9 5 0.62 0.59
-1 9 -6 33.33 5.91
1 -9 6 35.77 4.15
-1 9 -7 1.41 0.81
1 -9 7 1.34 0.81
1 -8 -6 34.17 5.07
1 -8 -5 -0.63 1.34
-1 8 4 5.73 1.38
1 -8 -4 6.83 2.19
-1 8 3 4.45 1.18
1 -8 -3 4.5 1.61
1 -8 -2 250.63 11.74
-1 8 2 258.03 9.79
-1 8 1 110.57 6.31
1 -8 -1 105.49 7.05
1 -8 0 7.3 1.83
-1 8 0 5.71 1.49
1 -8 0 5.1 1.46
1 -8 0 3.91 1.28
1 -8 1 11.22 2.31
1 -8 1 7.29 1.69
1 -8 1 7.25 1.47
1 -8 1 9.99 1.96
-1 8 -1 7.85 1.68
-1 8 -2 1.22 0.78
1 -8 2 0.75 0.52
1 -8 2 1.06 0.76
1 -8 2 1.23 0.69
1 -8 2 0.73 0.71
1 -8 3 0.6 0.82
-1 8 -3 -1.51 0.84
1 -8 3 0.06 0.65
1 -8 3 0.5 0.46
1 -8 3 0.96 0.92
1 -8 4 3.88 1.04
1 -8 4 2.65 1.08
-1 8 -4 3.02 1.65
1 -8 5 5.67 1.47
-1 8 -5 3.14 1.98
1 -8 6 19.36 2.89
-1 8 -6 21.48 4.46
1 -8 7 12.7 2.37
-1 8 -7 12.07 3.59
-1 8 -8 1.37 1.77
1 -8 8 5.29 1.76
1 -7 -7 4.72 1.94
1 -7 -6 0.98 1.22
1 -7 -5 61.26 5.99
1 -7 -4 19.69 2.6
-1 7 4 24.72 2.53
1 -7 -4 21.78 3.49
-1 7 4 18.43 3.34
1 -7 -4 16.77 2.71
-1 7 3 714.18 16.21
1 -7 -3 698.64 20.07
1 -7 -3 650.49 17.41
1 -7 -2 3.79 1.29
1 -7 -2 0.77 0.83
-1 7 2 2.02 0.94
-1 7 1 27.51 2.87
1 -7 -1 27.05 3.23
1 -7 0 6.37 1.42
1 -7 0 7.9 1.83
-1 7 0 6.7 1.4
1 -7 0 8.18 1.51
1 -7 0 4.64 1.33
-1 7 -1 38.24 3.5
1 -7 1 42.62 3.75
1 -7 1 45.03 4.46
1 -7 1 48.66 3.91
1 -7 1 41.84 3.18
-1 7 -2 10.94 1.9
1 -7 2 9.82 1.78
1 -7 2 11.06 1.51
1 -7 2 13.57 2.58
1 -7 2 9.47 1.63
1 -7 3 13.68 1.42
-1 7 -3 11.96 2.02
1 -7 3 10.97 1.9
1 -7 3 12.89 1.76
-1 7 -3 13.35 3
1 -7 4 1.5 0.59
-1 7 -4 0.86 0.66
1 -7 4 1.88 0.45
1 -7 4 1.62 0.8
-1 7 -5 4.78 1.96
1 -7 5 6.05 1.53
-1 7 -6 26.44 4.57
1 -7 6 25.39 3.09
1 -7 7 54.91 4.77
-1 7 -7 50.56 6.68
1 -7 8 19.36 2.97
-1 7 -8 19.03 4.43
-1 7 -9 20.99 4.69
1 -7 9 26.95 3.55
1 -6 -8 2.49 1.56
1 -6 -7 5.89 1.99
1 -6 -6 0.65 0.96
-1 6 5 31.64 4.3
1 -6 -5 31.97 3.11
-1 6 5 37.91 2.64
1 -6 -5 35.45 4.21
1 -6 -4 505.55 14.78
1 -6 -4 532.24 13.68
-1 6 4 531.94 17.94
-1 6 4 566 12.63
1 -6 -4 586.97 17.48
1 -6 -3 148.36 7.96
-1 6 3 143.7 5.87
1 -6 -3 138.58 6.56
-1 6 2 1032.96 19.89
-1 6 2 982.97 23.43
1 -6 -2 960.47 20.74
1 -6 -2 952.48 20.86
1 -6 -2 1022.55 22.79
1 -6 -1 73.47 4.51
1 -6 -1 63.59 4.64
1 -6 -1 64 4.46
-1 6 1 64.87 4.1
1 -6 0 1.34 0.57
-1 6 0 1.5 0.65
1 -6 0 2.75 1.45
1 -6 0 3.39 0.86
1 -6 0 1.52 0.7
1 -6 0 2.66 0.94
1 -6 1 79.17 4.53
1 -6 1 77.21 5.1
1 -6 1 78.57 4.72
1 -6 1 80.02 4.05
1 -6 1 78.38 6.59
-1 6 -1 85.95 4.83
1 -6 1 83.68 5.79
1 -6 2 110.48 4.96
1 -6 2 104.15 5.44
1 -6 2 115.83 7.16
1 -6 2 102.93 4.18
-1 6 -2 106.63 7.82
-1 6 -2 103.23 5.44
1 -6 3 69.24 2.86
-1 6 -3 66.04 4.43
-1 6 -3 78.47 6.81
1 -6 3 69.93 3.62
1 -6 3 73.1 4.54
-1 6 -4 210.43 11.7
1 -6 4 217.58 4.38
1 -6 4 233.96 6.11
1 -6 4 228.4 8.53
1 -6 5 62.76 4.43
-1 6 -5 52.81 5.91
1 -6 6 81.79 5.26
-1 6 -6 68.69 7.03
1 -6 7 6.94 1.67
-1 6 -7 7.42 2.45
-1 6 -8 49.43 6.44
1 -6 8 59.6 4.88
-1 6 -9 124.33 10.88
1 -6 9 138.23 7.92
1 -6 10 5 1.76
-1 6 -10 2.29 1.34
1 -5 -9 5.01 2
1 -5 -8 1.39 1.07
1 -5 -7 12.73 2.74
-1 5 7 7.75 1.91
1 -5 -6 3.51 0.88
1 -5 -6 4.1 1.3
-1 5 6 1.29 0.96
-1 5 5 77.66 3.32
1 -5 -5 75.04 4.16
-1 5 5 79.16 5.59
-1 5 5 69.92 6.04
1 -5 -5 76.35 5.77
1 -5 -4 68.62 3.81
1 -5 -4 72.17 5.31
1 -5 -4 65.92 4.24
-1 5 4 74.06 5.11
-1 5 4 65.74 3.3
-1 5 3 19.78 2.89
1 -5 -3 23.22 2.25
-1 5 3 15.52 2.25
-1 5 3 21.61 1.94
1 -5 -3 18.7 2.58
1 -5 -3 17.47 2.28
-1 5 2 160.36 6.89
1 -5 -2 159.74 6.4
1 -5 -2 165.55 7.32
1 -5 -2 168.8 6.85
-1 5 2 167.58 8.2
-1 5 2 160.7 5.85
1 -5 -1 5.33 1.68
1 -5 -1 4.96 1.17
-1 5 1 4.18 1.01
1 -5 -1 2.93 1.04
1 -5 -1 5.61 1.15
-1 5 1 3.75 1.16
1 -5 -1 3.27 0.88
-1 5 1 3.03 0.8
1 -5 0 19.45 2.19
1 -5 0 20.09 2.51
-1 5 0 19.93 2.06
1 -5 0 22.57 2.3
1 -5 0 19.32 1.93
1 -5 0 21.44 3.14
1 -5 1 429.15 11.9
-1 5 -1 452.43 11.24
1 -5 1 441.52 11.22
1 -5 1 440.88 9.8
1 -5 1 441.42 13.28
1 -5 1 442.4 10.76
-1 5 -2 102.47 4.99
1 -5 2 109.94 3.72
1 -5 2 107.26 5.04
1 -5 2 108.49 4.26
1 -5 2 107.87 5.56
-1 5 -2 107.08 7.22
1 -5 3 20.17 2.45
1 -5 3 19.55 1.55
1 -5 3 19.07 2.79
-1 5 -3 22.84 2.36
1 -5 3 19.93 2.17
1 -5 3 18.96 1.18
-1 5 -3 17.59 2.94
-1 5 -4 0.39 0.87
1 -5 4 1.16 0.86
1 -5 4 1.08 0.62
1 -5 4 1.92 0.9
1 -5 4 1.42 0.3
-1 5 -5 64.57 6.02
1 -5 5 62.37 4.12
1 -5 6 2.91 0.99
-1 5 -6 2.29 1.09
1 -5 7 30.77 3.16
-1 5 -7 27.81 4.38
1 -5 8 0.58 0.68
-1 5 -8 0.16 0.99
-1 5 -9 25.24 4.58
1 -5 9 30.66 3.55
-1 5 -10 -1.19 1.54
1 -5 10 0.01 0.53
-1 5 -11 1.78 1.25
1 -5 11 0.36 0.64
1 -4 -10 1.88 1.32
1 -4 -9 0.46 1.44
1 -4 -8 36.66 4.53
-1 4 8 38.8 4.4
-1 4 7 12.63 2.33
1 -4 -7 10.78 2.37
1 -4 -7 13.66 1.58
-1 4 6 21.19 2.86
1 -4 -6 22.55 3.08
1 -4 -6 17.14 1.68
1 -4 -5 0.53 0.74
1 -4 -5 0.68 0.36
-1 4 5 0.38 0.56
1 -4 -4 57.65 2.94
-1 4 4 67.64 2.83
1 -4 -4 69.63 4.5
1 -4 -4 65.38 4.62
-1 4 4 67.1 4.53
1 -4 -4 62.87 3.47
-1 4 3 678.08 15.7
1 -4 -3 665.31 14.62
-1 4 3 659.21 17.16
1 -4 -3 696.1 15.41
-1 4 3 674.99 12.47
1 -4 -3 704.23 16.25
1 -4 -3 652.88 13.06
1 -4 -2 30.37 2.57
-1 4 2 22.9 2.27
1 -4 -2 23.75 2.03
1 -4 -2 23.71 2.41
-1 4 2 24.32 2.78
-1 4 2 19.5 1.69
1 -4 -1 183.08 6.55
-1 4 1 172.89 6.14
-1 4 1 181.66 5.74
1 -4 -1 177.79 6.04
1 -4 -1 186.03 7.25
-1 4 1 183.55 7.57
1 -4 -1 175.03 6.07
-1 4 0 1067.45 18.87
1 -4 0 1098.74 19.78
1 -4 0 1058.56 23.72
1 -4 0 1069.42 19.07
1 -4 0 1075.31 21.7
1 -4 0 1138.91 18.64
-1 4 0 1137.33 19.21
1 -4 0 1102.43 19.37
-1 4 -1 575.91 11.16
1 -4 1 562.74 12.86
1 -4 1 586.03 10.73
1 -4 1 574.69 12.16
1 -4 1 572.22 11.47
-1 4 -1 591.13 16.2
1 -4 1 571.88 14.48
-1 4 -1 582.19 12.29
1 -4 2 559.47 12.16
1 -4 2 552.1 9.44
-1 4 -2 582.23 12.46
-1 4 -2 563.2 16.04
1 -4 2 577.26 10.37
-1 4 -3 15.36 2.48
1 -4 3 13.98 1
1 -4 3 13.77 0.71
1 -4 3 16.18 1.77
1 -4 4 121.63 5.21
1 -4 4 129.14 5.95
1 -4 4 129.77 6.46
-1 4 -5 140.58 8.11
1 -4 5 137.8 5.9
-1 4 -5 138.75 6.8
1 -4 5 136.13 6.41
1 -4 6 0.24 0.37
1 -4 6 0.72 0.65
1 -4 7 0.91 0.66
-1 4 -7 0.92 0.71
1 -4 8 8.35 1.69
-1 4 -8 8.72 2.12
1 -4 9 105.86 6.52
-1 4 -9 90.15 7.9
-1 4 -10 -2.95 1.66
1 -4 10 0.06 0.65
1 -4 11 56.33 5.23
-1 4 -11 55.75 6.93
1 -3 -11 7.34 2.32
1 -3 -10 -0.95 0.79
1 -3 -9 25.34 3.81
-1 3 9 21.62 3.29
1 -3 -8 1.25 0.9
-1 3 8 2.62 1.22
1 -3 -8 2.54 0.72
-1 3 7 9.22 1.84
1 -3 -7 10.77 2.15
1 -3 -7 10.95 1.34
-1 3 6 88.75 5.56
1 -3 -6 97.76 3.87
1 -3 -5 8.04 1
-1 3 5 6.88 1.33
1 -3 -5 10.98 1.79
1 -3 -4 162.89 4.72
-1 3 4 158.66 6.55
1 -3 -3 373.28 7.55
-1 3 3 350.71 11.19
1 -3 -3 364.07 8.44
-1 3 3 362.31 7.05
-1 3 3 365.4 9.87
-1 3 2 409.6 11.61
-1 3 2 434.93 8.36
1 -3 -2 426.77 8.76
1 -3 -2 421.68 9.92
-1 3 2 426.62 10.16
1 -3 -1 277.92 8.46
1 -3 -1 264.94 6.87
-1 3 1 269.41 7.08
-1 3 1 269.15 6.33
1 -3 -1 258.47 6.62
-1 3 1 269.78 8.76
1 -3 0 344.82 10.47
1 -3 0 352.4 9.88
-1 3 0 351.42 7.68
1 -3 0 348.92 7.44
1 -3 0 353.42 7.82
-1 3 0 351.35 7.81
1 -3 0 352.72 8.22
-1 3 -1 393.01 7.62
1 -3 1 406.25 7.87
1 -3 1 393.9 9.17
-1 3 -1 408.42 8.84
1 -3 1 406.44 8.67
1 -3 1 402.45 7.3
-1 3 -1 403.9 11.57
-1 3 -2 267.95 7.55
-1 3 -2 274.46 9.36
1 -3 2 265.61 4.63
1 -3 2 266.26 6.81
1 -3 2 267 5.04
-1 3 -3 160.2 7.21
1 -3 3 167.9 5.89
1 -3 3 163.07 5.41
-1 3 -4 207.23 8.47
1 -3 4 205.94 6.55
-1 3 -5 167.79 6.85
1 -3 5 172.28 6.29
-1 3 -5 184.18 8.39
-1 3 -6 13.79 2.45
-1 3 -6 10.21 0.85
1 -3 6 11.07 1.62
-1 3 -6 9.08 0.77
1 -3 6 11.19 1.73
-1 3 -6 12.37 1.9
-1 3 -7 71.67 2.47
-1 3 -7 66.56 2.71
-1 3 -7 75.55 5.92
-1 3 -7 77.36 2.98
1 -3 7 74.71 4.63
1 -3 7 74.01 4.53
-1 3 -8 23.62 1.85
-1 3 -8 24.39 1.82
1 -3 8 22.45 2.65
1 -3 8 23.02 2.74
-1 3 -8 23.85 1.61
-1 3 -8 26.22 3.79
-1 3 -9 95.3 4.07
-1 3 -9 93.55 7.57
1 -3 9 99.55 6.1
1 -3 10 8.06 1.79
-1 3 -10 9.68 2.59
-1 3 -11 1.59 1.05
1 -3 11 1.77 0.9
1 -3 12 32.76 4.17
1 -2 -12 6.71 2.33
1 -2 -11 23.61 3.89
1 -2 -10 45.43 5
-1 2 10 42.84 4.32
-1 2 10 39.86 4.41
-1 2 9 4.39 1.47
1 -2 -9 3.81 1.55
-1 2 9 2.6 1.07
-1 2 8 169.25 8.23
-1 2 8 159.83 7.33
1 -2 -8 153.92 5.79
1 -2 -7 0.12 0.24
-1 2 7 -0.18 0.3
-1 2 7 -0.07 0.48
-1 2 6 80.25 4.26
-1 2 6 78.2 4.84
1 -2 -6 86.03 4.9
1 -2 -6 85.87 3.51
-1 2 5 84.53 4.68
-1 2 5 82.01 3.97
1 -2 -5 87.8 3.19
1 -2 -5 92.75 4.72
-1 2 4 31.31 2.17
1 -2 -4 32.85 1.65
-1 2 4 29.12 2.47
1 -2 -3 948.66 13.91
-1 2 3 929.7 16.95
1 -2 -3 913.46 13.23
-1 2 2 221.73 6.11
1 -2 -2 228.92 5.21
-1 2 2 215.78 7.31
1 -2 -2 219.81 4.68
1 -2 -1 48.8 2.02
-1 2 1 43.73 2.97
1 -2 -1 47.67 2.26
-1 2 1 46.83 2.26
1 -2 -1 44.4 2.88
1 -2 0 618.97 12.92
1 -2 0 625.03 10.14
1 -2 0 628.79 13.09
1 -2 0 623.05 10.69
1 -2 0 638.05 10.18
-1 2 0 617.16 13.05
-1 2 0 625.28 13.09
-1 2 0 608.81 10.19
-1 2 -1 859.71 12.33
1 -2 1 871.99 13.67
-1 2 -1 841.61 14.01
1 -2 1 868.7 12.34
1 -2 2 275.23 6.26
1 -2 2 267.29 6.5
1 -2 3 554.13 10.82
-1 2 -3 549.38 12.79
1 -2 3 545.16 10.95
-1 2 -4 415.19 6.38
-1 2 -4 448.87 10.17
1 -2 4 438.16 9.71
-1 2 -4 433.55 11.37
1 -2 4 423.93 9.6
-1 2 -4 399.84 6.82
-1 2 -5 600.55 9.62
-1 2 -5 593.27 10.4
1 -2 5 618.83 12.87
1 -2 5 598.98 12.92
-1 2 -5 595.97 14.77
-1 2 -6 119.71 5.57
-1 2 -6 116.02 6.18
-1 2 -6 109.69 3.98
-1 2 -6 119.49 3.53
1 -2 6 110.93 5.13
1 -2 7 47.53 3.53
-1 2 -7 53.83 3.04
-1 2 -7 46.73 2.41
-1 2 -7 47.21 4.19
-1 2 -8 6.66 1.25
1 -2 8 2.5 0.68
1 -2 8 3.27 0.97
-1 2 -8 3.66 1.42
-1 2 -8 4.51 0.82
-1 2 -9 140.15 5.99
1 -2 9 123.43 5.97
-1 2 -9 124.42 8.04
1 -2 9 125.78 6.71
1 -2 10 49.71 4.43
-1 2 -10 54.13 5.63
-1 2 -11 60.6 6.51
1 -2 11 63.97 5.39
1 -2 12 39.87 4.66
1 -1 -12 13.02 2.87
1 -1 -11 1.9 1.31
1 -1 -10 1.44 1.32
-1 1 10 3.74 1.41
-1 1 10 3.82 1.41
-1 1 9 31.55 3.11
1 -1 -9 31.21 2.86
-1 1 9 37.55 3.82
-1 1 8 138.73 6.96
-1 1 8 131.41 5.88
1 -1 -8 128.04 5.41
1 -1 -7 182.89 7.33
-1 1 7 192.56 7.74
1 -1 -7 183.79 6.05
-1 1 7 182.73 6.4
-1 1 6 76.03 4.38
-1 1 6 77.67 3.62
1 -1 -6 84.1 3.52
1 -1 -6 87.25 4.55
-1 1 5 75.1 3.11
1 -1 -5 67.41 2.82
-1 1 5 74.75 3.95
1 -1 -4 31.44 2.26
1 -1 -4 31.79 1.62
-1 1 4 30.24 2.25
-1 1 4 32.02 1.71
1 -1 -3 4.07 0.75
-1 1 3 5.38 0.87
1 -1 -3 4.47 0.47
-1 1 3 2.69 0.4
-1 1 2 1562.68 22.9
-1 1 1 1782.75 24.68
-1 1 0 151.41 4.12
1 -1 0 144.04 2.84
-1 1 0 142.05 3.13
1 -1 0 152.86 4.1
-1 1 0 142.82 2.86
1 -1 0 141.67 4.69
1 -1 0 139.29 3.23
1 -1 1 71.57 2.23
-1 1 -1 67.06 1.85
1 -1 2 1328.55 17.8
1 -1 2 1314.96 19.67
-1 1 -2 1326.1 17.89
-1 1 -3 162.11 3.78
1 -1 3 154.63 4.69
-1 1 -3 162.49 3.85
-1 1 -3 166.74 4.9
-1 1 -4 30.72 2.2
-1 1 -4 31.37 1.7
-1 1 -4 33.94 1.9
-1 1 -5 107.52 4.08
-1 1 -5 116.7 4.81
1 -1 5 106.86 4.57
-1 1 -5 113.72 3.78
-1 1 -6 38.97 2.35
-1 1 -6 42.38 3.04
1 -1 6 38.67 2.55
1 -1 6 32.11 2.65
-1 1 -6 38.15 2.64
1 -1 7 22.35 2.04
-1 1 -7 20.69 2.15
1 -1 7 20.76 2.3
-1 1 -7 20.85 1.88
-1 1 -7 22.48 2.41
-1 1 -8 182.03 7.22
1 -1 8 185.12 7.73
-1 1 -9 6.43 1.24
1 -1 9 5.12 1.42
1 -1 10 4.07 1.32
-1 1 -10 5.64 1.51
-1 1 -10 3.1 1.41
1 -1 11 3.36 1.49
-1 1 -11 3.97 1.54
1 -1 12 40.54 4.7
1 0 -12 1.55 1.04
-1 0 11 11.99 2.19
1 0 -11 6.26 1.81
-1 0 10 3.06 1.04
-1 0 10 1.96 0.96
1 0 -10 4.39 1.52
-1 0 9 12.02 2.11
-1 0 9 9.71 1.6
1 0 -9 8.44 1.68
1 0 -8 337.98 10.45
-1 0 8 309.96 9.16
1 0 -8 336.72 9.88
-1 0 8 343.5 10.79
-1 0 7 836.82 15.98
-1 0 7 850.72 17.79
1 0 -7 869.83 16.65
-1 0 7 816.34 12.59
1 0 -7 848.11 17.4
-1 0 6 6.09 0.63
-1 0 6 5.18 1.04
1 0 -6 6.16 1.06
-1 0 6 5.12 0.89
1 0 -5 2.04 0.6
-1 0 5 1.98 0.49
1 0 -5 2.41 0.61
-1 0 5 2.85 0.42
-1 0 5 1.18 0.41
1 0 -4 541.31 9.63
-1 0 4 502.45 10.31
-1 0 4 517.9 8.2
-1 0 4 524.98 9.29
1 0 -4 517.86 10.45
-1 0 3 2.87 0.54
1 0 -3 2.35 0.53
-1 0 3 2.27 0.38
-1 0 3 2.2 0.32
1 0 -3 2.7 0.33
1 0 -2 1389.45 20.33
-1 0 2 1395.58 18.64
1 0 -2 1399.42 18.62
-1 0 2 1368.6 19.91
-1 0 1 419.35 7.33
1 0 0 814.42 11.99
-1 0 0 798.45 11.79
1 0 0 794.12 13.1
-1 0 0 791.8 12.15
1 0 1 83.71 2.59
1 0 1 86.19 2.54
-1 0 -2 194.62 4.8
1 0 2 188.75 4.8
-1 0 -2 203.02 4.76
1 0 2 205.78 4.77
-1 0 -3 14.97 1.34
-1 0 -3 17.25 1.4
1 0 3 15.14 1.36
-1 0 -3 18.19 1.46
1 0 4 346.14 8.43
-1 0 -4 362.18 8.47
-1 0 -4 364.26 8.35
-1 0 -4 362.73 8.63
1 0 5 0.54 0.34
-1 0 -5 0.52 0.41
-1 0 -5 0.13 0.26
-1 0 -5 0.14 0.2
-1 0 -6 6.39 1.23
-1 0 -6 7.88 1.29
-1 0 -6 7.41 1.23
1 0 6 5.59 1.1
-1 0 -7 214.49 8.02
-1 0 -7 212.85 7.68
1 0 7 228.05 6.39
1 0 7 211.22 7.88
1 0 8 446.8 12.99
-1 0 -8 453.61 11.84
-1 0 -8 452.6 13.15
1 0 8 439.07 10.03
-1 0 -9 110.51 6.45
-1 0 -9 117.03 5.84
1 0 9 123.55 6.86
1 0 10 14.85 2.63
-1 0 -10 20.85 2.99
-1 0 -11 19.06 2.97
1 0 11 26.14 3.7
1 0 12 6.51 2.08
1 1 -12 32.62 4.7
1 1 -11 9.8 2.43
-1 -1 11 8.29 1.72
1 1 -11 8.27 1.92
1 1 -10 -0.04 0.61
-1 -1 10 -0.02 0.44
-1 -1 10 0.74 0.61
-1 -1 9 12.46 1.89
1 1 -9 17.86 2.74
-1 -1 9 13.77 1.91
1 1 -9 12.96 1.97
1 1 -8 0.29 0.53
-1 -1 8 1.52 0.87
1 1 -8 0.3 0.52
1 1 -8 1.43 0.78
-1 -1 8 -0.04 0.27
-1 -1 8 -0.57 0.49
1 1 -7 71.56 4.23
-1 -1 7 68.75 3.7
-1 -1 7 66.9 3.8
-1 -1 7 80.24 3.44
-1 -1 6 242.03 6.33
-1 -1 6 246.36 7.07
-1 -1 6 251.75 6.95
1 1 -6 240.92 7.58
1 1 -6 251.3 7.46
1 1 -5 193.65 5.96
-1 -1 5 191.23 5.27
-1 -1 5 195.79 5.6
-1 -1 5 197.4 5.61
1 1 -5 199.6 6.23
1 1 -4 662.57 12.41
1 1 -4 647.29 10.91
-1 -1 4 636.93 11.37
-1 -1 4 628.31 11.25
1 1 -4 610.97 12.1
-1 -1 4 623.72 11.2
1 1 -4 625.33 11.94
-1 -1 3 5061.2 66.42
-1 -1 3 5099.17 66.45
1 1 -3 5093.21 66.19
1 1 -3 5090.27 67.27
-1 -1 3 5053.24 66.09
1 1 -3 5099.96 67.17
1 1 -2 6163.96 81.56
1 1 -2 6295.79 80.71
1 1 -2 6196.6 81.79
-1 -1 2 6274.35 80.92
-1 -1 2 6348.03 80.45
1 1 -2 6390.6 81.24
-1 -1 2 6248.49 80.94
-1 -1 1 126.96 3.75
1 1 -1 125.21 3.42
1 1 -1 124.26 3.8
1 1 -1 124.36 3.53
-1 -1 1 123.84 3.45
-1 -1 1 126.48 3.54
-1 -1 0 110.82 3.43
-1 -1 -1 3.02 0.61
1 1 1 4.72 0.84
-1 -1 -2 96.22 3.74
1 1 2 96.4 3.98
1 1 2 92.11 3.64
-1 -1 -2 101.96 3.69
1 1 3 676.62 13.56
-1 -1 -3 662.06 13.17
-1 -1 -3 701.79 12.73
-1 -1 -3 703.04 13.63
-1 -1 -4 38.96 2.46
1 1 4 40.28 2.82
-1 -1 -4 36.21 2.72
-1 -1 -4 38.95 2.72
-1 -1 -5 35.45 2.92
-1 -1 -5 33.24 2.47
1 1 5 33.6 2.81
-1 -1 -6 109.43 5.3
-1 -1 -6 109.34 4.9
-1 -1 -6 108.41 5.62
1 1 6 104.4 5.41
-1 -1 -7 0.04 0.39
1 1 7 0.53 0.81
-1 -1 -7 -0.01 0.41
1 1 8 22.02 1.7
-1 -1 -8 19.76 2.71
1 1 8 18.28 2.58
1 1 9 5.64 1.74
-1 -1 -9 3.97 1.39
-1 -1 -10 6.84 2.1
1 1 10 4.34 1.68
-1 -1 -11 13.89 2.74
1 1 11 11.42 2.65
1 2 -12 1.45 1.3
-1 -2 12 2.21 0.96
1 2 -11 49.7 5.71
-1 -2 11 56.15 4.61
-1 -2 10 8.29 1.61
1 2 -10 6.19 1.91
-1 -2 10 7.75 1.6
1 2 -9 30.44 3.78
-1 -2 9 33.69 3.08
-1 -2 9 35 3.01
-1 -2 9 30.33 2.63
1 2 -9 28.89 2.93
-1 -2 8 11.67 1.6
1 2 -8 8.68 1.9
-1 -2 8 8.67 1.38
1 2 -7 34.2 2.75
1 2 -7 34.09 3.21
-1 -2 7 34.22 2.67
1 2 -7 31.3 3.31
-1 -2 7 33.38 2.65
-1 -2 7 36.07 2.5
-1 -2 6 2.87 0.81
-1 -2 6 4.2 0.78
1 2 -6 5.24 0.97
1 2 -6 6.32 1.39
-1 -2 6 5.85 1.09
1 2 -6 3.44 1.02
-1 -2 5 121.19 4.76
-1 -2 5 117.1 4.52
-1 -2 5 112.16 3.75
1 2 -5 109.56 4.69
1 2 -5 109.61 4.4
1 2 -5 115.3 5.55
1 2 -5 121.04 4.38
1 2 -4 2058.9 30.31
-1 -2 4 2012.22 30.81
1 2 -4 2023.64 30.41
-1 -2 4 2041.5 30.44
1 2 -4 2015.36 30.91
1 2 -4 2027.04 32.72
-1 -2 4 2060.66 28.68
1 2 -3 673.45 14.05
-1 -2 3 649.36 12.71
-1 -2 3 670.12 11.59
1 2 -3 648.28 12.68
1 2 -3 670 12.4
-1 -2 3 686.46 12.88
-1 -2 3 675.43 12.73
-1 -2 2 589.05 11.45
1 2 -2 591.08 11.41
-1 -2 2 616.78 12.35
-1 -2 2 589.81 11.22
1 2 -2 583.67 11.17
1 2 -2 611.04 12.73
1 2 -1 654.02 11.96
-1 -2 1 640.39 13.2
-1 -2 1 664.62 12.06
1 2 -1 644.68 11.73
-1 -2 0 1.97 0.56
1 2 0 1.68 0.46
-1 -2 0 1.16 0.37
1 2 0 1.69 0.53
-1 -2 -1 348.95 8.38
1 2 1 359.08 7.7
-1 -2 -2 183.76 6.14
1 2 2 186.16 5.26
1 2 2 178.77 6.13
-1 -2 -2 179.55 6.31
1 2 3 80.58 4.55
-1 -2 -3 86.69 4.25
-1 -2 -3 91.98 4.54
1 2 3 82.23 4.22
-1 -2 -3 76.77 3.91
1 2 4 37.7 3.23
-1 -2 -4 30.96 2.79
-1 -2 -4 34.64 2.51
-1 -2 -5 182.07 6.36
-1 -2 -5 194.64 7.47
-1 -2 -5 179.54 7.49
1 2 5 175.1 7.58
-1 -2 -6 1.79 0.79
-1 -2 -6 1.53 0.69
1 2 6 -0.14 0.59
-1 -2 -6 2.19 0.93
-1 -2 -7 2.36 1.02
1 2 7 4.67 1.31
-1 -2 -7 1.99 0.8
1 2 8 170.85 8.93
1 2 8 185.67 5.72
-1 -2 -8 164.28 8.54
-1 -2 -9 52.61 5.15
1 2 9 57.12 5.42
-1 -2 -10 7.81 2.3
1 2 10 1.77 0.83
1 2 11 35.63 4.91
-1 -2 -11 34.81 4.58
1 3 -12 3.56 1.69
-1 -3 12 7.57 1.82
1 3 -11 1.29 1.17
-1 -3 11 7.3 1.76
-1 -3 10 1.86 0.82
1 3 -10 0.69 1.09
-1 -3 9 20.38 2.5
-1 -3 9 19.89 2.47
1 3 -9 20.93 3.43
-1 -3 9 22.98 2.23
-1 -3 8 4.72 1.14
-1 -3 8 5.43 1.19
1 3 -8 5.01 1.55
-1 -3 8 7.1 1.14
1 3 -8 5.09 1.17
-1 -3 7 14.46 1.44
1 3 -7 14.43 2.47
-1 -3 7 18.15 2.11
1 3 -7 10.81 1.71
1 3 -6 14.68 2.38
1 3 -6 16.93 1.85
-1 -3 6 15.42 1.32
-1 -3 6 15.75 1.86
1 3 -6 12.86 1.71
1 3 -5 144.34 5.67
1 3 -5 142.63 7.12
-1 -3 5 152.91 5.75
-1 -3 5 145.07 4.14
1 3 -5 142.4 5.52
1 3 -4 19.51 1.9
-1 -3 4 20.75 2.13
1 3 -4 18.89 2.41
-1 -3 4 21.8 2.05
1 3 -4 23.2 2.02
-1 -3 4 18.3 1.99
-1 -3 4 21.71 1.54
-1 -3 3 1249.11 20.7
1 3 -3 1264.92 21.01
1 3 -3 1250.19 21.45
-1 -3 3 1262.55 22.08
-1 -3 3 1312.96 23.35
-1 -3 3 1226.68 21.86
1 3 -3 1264.94 24.41
-1 -3 2 323.93 8.58
-1 -3 2 315.14 8.05
1 3 -2 321.89 7.98
1 3 -2 307.53 8.12
-1 -3 2 315.42 9.74
1 3 -2 315.48 9.98
-1 -3 1 296.71 9.52
1 3 -1 298.59 7.76
1 3 -1 307.11 7.86
-1 -3 1 300.23 7.84
1 3 0 46.78 2.73
-1 -3 0 44.16 2.79
1 3 0 45.46 2.88
-1 -3 0 46.64 2.84
1 3 1 1252.62 17.79
1 3 1 1256.47 20.77
-1 -3 -1 1229.52 20.96
-1 -3 -1 1293.19 22.14
1 3 1 1261.35 22.21
-1 -3 -2 573.09 13.36
1 3 2 561.76 11.58
-1 -3 -2 559.85 13.96
1 3 3 240.1 6.79
-1 -3 -3 222.43 8.09
-1 -3 -3 241.84 8.45
-1 -3 -4 34.68 3.13
-1 -3 -4 35.97 2.97
-1 -3 -4 33.98 3.24
1 3 4 40.52 2.6
-1 -3 -5 0.37 0.47
-1 -3 -5 1.03 0.63
-1 -3 -5 1.66 0.74
1 3 5 1 0.48
1 3 6 0.77 0.38
1 3 6 0.53 0.49
-1 -3 -6 1.66 0.66
-1 -3 -6 1.88 0.75
-1 -3 -7 25.07 2.65
1 3 7 30.2 2.2
-1 -3 -7 24.68 3.32
1 3 7 27.59 3.52
-1 -3 -8 27.98 3.73
1 3 8 22.03 3.39
1 3 8 28.33 2
-1 -3 -9 -0.42 0.84
1 3 9 0.09 0.71
-1 -3 -10 0.2 0.78
1 3 10 1.36 1.09
-1 -3 -11 -0.31 1.16
1 4 -12 1.46 2.11
-1 -4 12 -0.45 0.89
-1 -4 11 0.89 0.95
1 4 -11 0.06 0.88
1 4 -10 22.31 4.07
-1 -4 10 23.66 3.01
-1 -4 9 44.49 3.89
-1 -4 9 44.28 2.69
1 4 -8 132.23 8.93
-1 -4 8 154.82 7.07
1 4 -8 146.76 6.52
-1 -4 8 131.55 6.9
-1 -4 8 151.08 4.81
-1 -4 7 12.78 1.19
1 4 -7 14.12 2.71
-1 -4 7 13.5 1.94
-1 -4 7 12.94 2.05
1 4 -7 12.52 1.81
1 4 -7 13.37 1.78
1 4 -6 58.27 3.83
1 4 -6 59.4 5.34
-1 -4 6 59.34 3.94
-1 -4 6 55.84 2.42
1 4 -6 60.19 3.66
-1 -4 6 55.7 4.17
1 4 -5 6.45 1.21
-1 -4 5 6.94 1.47
-1 -4 5 6.73 1.44
1 4 -5 6.75 1.72
1 4 -5 6.81 1.2
-1 -4 5 6.97 0.86
-1 -4 5 8.14 1.43
-1 -4 4 608.49 13.97
-1 -4 4 591.63 11.54
1 4 -4 579.14 16.59
1 4 -4 581.6 13.59
1 4 -4 587.41 12.7
-1 -4 4 584.88 15.24
-1 -4 4 573.92 12.27
-1 -4 4 571.41 14.26
-1 -4 3 50.71 4.12
1 4 -3 42.11 3.1
-1 -4 3 52.42 3.24
1 4 -3 53.49 4.49
1 4 -3 48.45 3.03
-1 -4 3 50.73 3.51
1 4 -2 408.74 10.5
-1 -4 2 402.17 10.22
-1 -4 2 402.87 12.85
1 4 -2 408.77 10.06
1 4 -2 399.24 12.89
-1 -4 1 300.98 11.04
-1 -4 1 297.54 8.65
1 4 -1 291.95 8.52
1 4 -1 310.68 8.8
-1 -4 0 800.42 16.65
-1 -4 0 830.59 16.9
1 4 0 837.12 16.39
1 4 0 824.2 17.02
-1 -4 -1 382.47 10.13
-1 -4 -1 379.82 10.73
1 4 1 381.49 9.86
-1 -4 -1 381.65 10.51
1 4 2 46.89 2.62
-1 -4 -2 43.88 3.47
-1 -4 -2 44.04 3.55
1 4 2 43.22 2.95
-1 -4 -3 274.33 9.59
-1 -4 -3 294.77 10.28
-1 -4 -3 288.03 10.37
1 4 3 301.08 8.49
-1 -4 -4 22.9 2.73
-1 -4 -4 20.34 2.76
-1 -4 -4 23.94 2.76
1 4 4 19.16 1.96
-1 -4 -5 -0.25 0.56
-1 -4 -5 0.09 0.49
1 4 5 0.23 0.43
-1 -4 -6 88.35 5.08
1 4 6 89.72 4.28
-1 -4 -6 88.36 6.37
1 4 7 0.97 0.62
-1 -4 -7 -0.27 0.73
-1 -4 -8 8.25 2.29
-1 -4 -9 18.06 3.4
-1 -4 -10 1.44 1.34
1 5 -12 4.17 2.34
-1 -5 11 1.06 0.84
1 5 -11 1.59 1.31
1 5 -10 0.73 1.15
-1 -5 10 2.12 1.05
-1 -5 9 2.5 1.07
1 5 -9 2.74 1.37
1 5 -8 0.31 0.94
-1 -5 8 -1.04 0.81
-1 -5 8 0 0.16
1 5 -7 14.06 1.75
1 5 -7 13.41 2.05
-1 -5 7 15.48 1.17
-1 -5 7 13.59 2.15
1 5 -7 15.47 3.11
1 5 -6 0.75 0.47
-1 -5 6 1.49 0.84
-1 -5 6 0.61 0.35
1 5 -6 0.34 0.74
1 5 -6 1.52 0.73
1 5 -5 1.11 0.59
-1 -5 5 0.96 0.31
-1 -5 5 1.71 1.01
1 5 -5 1.59 0.69
1 5 -5 1.26 0.93
-1 -5 5 3.29 1.06
-1 -5 5 1.84 0.69
-1 -5 4 1.14 0.7
1 5 -4 1.16 0.67
1 5 -4 3.82 0.91
1 5 -4 2.39 0.71
-1 -5 4 1.1 0.86
-1 -5 4 2.31 0.88
-1 -5 4 1.9 0.68
1 5 -3 3 0.77
-1 -5 3 4.22 1.22
-1 -5 3 2.42 0.87
1 5 -3 2.35 0.81
1 5 -3 1.58 0.91
-1 -5 3 0.89 0.86
-1 -5 3 3.28 0.9
1 5 -2 36.54 3.08
-1 -5 2 26.41 2.82
-1 -5 2 32.95 3.83
-1 -5 2 36.07 2.99
1 5 -2 39.49 3.1
-1 -5 1 93.08 6.65
1 5 -1 92.07 4.91
-1 -5 1 98.06 5.42
-1 -5 1 87.5 3.61
-1 -5 1 94.16 5.03
1 5 0 27.29 2.61
-1 -5 0 30.22 2.89
-1 -5 0 28.87 3.85
-1 -5 0 27.29 2.7
-1 -5 0 27.4 2.75
-1 -5 -1 18.27 2.34
-1 -5 -1 16.08 2.13
1 5 1 14.38 2.2
1 5 1 15.93 1.99
-1 -5 -1 15.99 2.23
1 5 2 121.69 4.64
-1 -5 -2 118.92 6.46
1 5 2 128.1 5.77
-1 -5 -2 122.15 6.35
1 5 2 118.28 6.48
1 5 3 1.29 0.66
1 5 3 1.48 0.72
-1 -5 -3 1.38 0.79
-1 -5 -3 0.76 0.62
1 5 4 8.05 1.43
-1 -5 -4 9.14 2.02
-1 -5 -4 6.14 1.65
-1 -5 -5 17.66 2.52
1 5 5 20.99 2.27
-1 -5 -5 21.12 3.14
-1 -5 -6 18 3.1
1 5 6 25.68 2.45
-1 -5 -7 116.7 8.2
1 5 7 108.39 4.93
-1 -5 -8 12.93 2.91
-1 -5 -9 37.28 5.05
-1 -6 11 0.9 1
1 6 -11 2.3 1.83
1 6 -10 1.26 1.59
-1 -6 10 0.97 0.95
-1 -6 9 3.91 1.29
1 6 -9 -0.68 1.23
1 6 -8 -0.07 1.02
-1 -6 8 0.44 0.58
-1 -6 7 4.61 1.39
1 6 -7 3.19 1.46
-1 -6 7 3.24 0.48
1 6 -7 4.46 1.4
1 6 -6 164.91 7.8
-1 -6 6 168.2 7.79
1 6 -6 152.48 6.08
1 6 -6 166.49 10.58
-1 -6 6 164.35 4.57
-1 -6 5 209.67 6.53
1 6 -5 198.74 11.34
-1 -6 5 213.53 8.87
-1 -6 5 211.71 7.41
1 6 -5 214.84 7.54
1 6 -5 214.71 8.75
-1 -6 4 392.99 12.44
1 6 -4 356.58 15.14
-1 -6 4 391.81 11.34
1 6 -4 364.42 11.76
1 6 -4 400.06 11.07
-1 -6 3 6 1.45
1 6 -3 8.61 1.64
-1 -6 3 8.28 1.58
-1 -6 3 8.29 2.12
-1 -6 2 51.1 5.33
-1 -6 2 48.43 3.84
1 6 -2 49.95 3.94
-1 -6 2 47.04 3.52
1 6 -1 56.39 4.23
1 6 -1 55.22 4.12
-1 -6 1 50.78 3.84
-1 -6 1 56.28 5.82
-1 -6 1 57.74 4.29
-1 -6 1 48.33 4.12
-1 -6 1 55.97 2.93
-1 -6 0 1.25 0.93
-1 -6 0 0.58 0.38
-1 -6 0 1.18 1.05
1 6 0 2.52 0.95
-1 -6 0 1.25 0.84
1 6 0 0 0.47
-1 -6 -1 92.1 5.71
-1 -6 -1 78.56 5.37
-1 -6 -1 74.33 5.1
1 6 1 85.53 5.71
1 6 1 79.51 4.9
-1 -6 -2 308.26 11.52
1 6 2 296.51 9.98
-1 -6 -3 408.9 15.05
1 6 3 430.38 12.37
1 6 3 435.9 11.62
-1 -6 -3 430.67 14.58
1 6 4 386.31 11.54
1 6 4 368.57 11.85
-1 -6 -4 392.12 14.38
-1 -6 -5 19.37 3.18
1 6 5 18.11 2.31
-1 -6 -6 10.23 2.36
1 6 6 10.38 1.72
-1 -6 -7 0.36 0.72
-1 -6 -8 1.46 1.54
-1 -7 10 1.17 1.42
1 7 -10 -2.55 1.76
1 7 -9 19.58 4.27
-1 -7 9 25.41 3.45
1 7 -8 29.91 5.04
-1 -7 8 24.99 3.28
-1 -7 7 98.6 6.46
1 7 -7 105.52 6.66
1 7 -7 90.75 8.64
-1 -7 6 2.35 0.56
1 7 -6 2.39 1.21
-1 -7 6 4.81 1.45
1 7 -6 3.63 1.22
1 7 -5 12.13 3.02
1 7 -5 9.21 1.86
-1 -7 5 10.11 1.98
-1 -7 5 10.31 1.47
-1 -7 5 8.59 1.38
-1 -7 5 13.34 1.96
-1 -7 4 76.07 5.54
1 7 -4 72.43 5.23
-1 -7 4 84.84 5.4
-1 -7 4 78.48 4.43
-1 -7 3 2.83 1.14
1 7 -3 3.59 1.18
1 7 -3 3.44 1.13
-1 -7 3 3.78 1.07
-1 -7 3 5.25 1.28
-1 -7 2 40.71 3.27
-1 -7 2 40.19 3.54
1 7 -2 39.08 3.79
-1 -7 2 41.19 3.88
1 7 -2 35.42 3.54
-1 -7 1 32.21 3.37
-1 -7 1 34.7 2.12
1 7 -1 33.58 3.54
1 7 -1 28.53 3.2
-1 -7 1 27.24 3.26
1 7 0 38.09 3.65
-1 -7 0 41.44 4.09
1 7 1 82.92 5.51
-1 -7 -1 86.85 6.16
1 7 2 1.51 0.68
-1 -7 -2 0.69 0.83
-1 -7 -3 147.98 8.81
1 7 3 157.58 7.62
1 7 4 108.4 6.18
-1 -7 -4 89.24 7.18
1 7 5 20.27 2.62
-1 -7 -5 17.95 3.34
1 7 6 -0.14 0.36
-1 -7 -6 0.55 1.33
-1 -7 -7 0.54 0.73
1 8 -9 10.35 3.4
1 8 -8 12.62 3.73
-1 -8 8 6.74 1.85
-1 -8 7 18.48 2.88
1 8 -7 15.18 3.92
1 8 -7 17.35 2.87
1 8 -6 28.72 3.6
-1 -8 6 40.11 4.21
1 8 -6 36.38 5.65
-1 -8 5 22.45 3.24
1 8 -5 27.93 3.53
-1 -8 5 22.64 2.8
1 8 -4 5.74 1.63
1 8 -4 2.94 1.2
-1 -8 4 3.35 1.07
-1 -8 4 3.32 1.24
-1 -8 4 4.67 1.44
-1 -8 3 21.49 2.8
-1 -8 3 21.15 3.16
1 8 -3 18.41 2.62
-1 -8 3 16.61 2.37
-1 -8 3 22.59 3.08
1 8 -3 21.72 3.09
-1 -8 2 25.55 3.12
-1 -8 2 24.92 2.47
1 8 -2 25.17 3.28
-1 -8 2 25.92 3.36
1 8 -1 9.73 1.98
-1 -8 1 9.98 2.12
-1 -8 0 0.22 0.8
1 8 0 1.26 0.93
-1 -8 -1 0.77 0.92
1 8 1 0.53 0.64
1 8 2 -0.76 0.78
-1 -8 -2 0.45 0.74
1 8 3 85.66 5.95
-1 -8 -3 86.42 7.09
-1 -8 -4 2.67 1.69
1 8 4 5.3 1.52
1 8 5 15.85 2.49
-1 -8 -5 10.35 2.79
-1 -8 -6 15.89 3.46
1 9 -8 39.07 6.61
1 9 -7 9.06 2.14
1 9 -7 12.06 3.63
-1 -9 7 6.36 1.91
-1 -9 6 42.69 4.68
1 9 -6 45.45 4.76
1 9 -5 -0.41 0.65
-1 -9 5 1.39 1.26
1 9 -4 34.31 4.05
-1 -9 4 33.14 4.21
-1 -9 4 33.98 4.02
1 9 -3 107.79 7.25
-1 -9 3 121.27 8.16
-1 -9 3 109.85 7.5
-1 -9 2 155.39 9.02
1 9 -2 150.03 8.56
-1 -9 2 141.76 8.96
1 9 -1 38.17 4.28
-1 -9 1 38.23 4.52
1 9 0 2.26 1.15
-1 -9 0 0.99 1.15
1 9 1 0.49 0.99
-1 -9 -1 0.84 0.89
1 9 2 2.72 1.19
-1 -9 -2 6.93 2.25
1 9 3 12.31 2.41
-1 -9 -3 11.78 2.84
-1 -9 -4 11.09 2.88
1 9 4 8.45 2.06
1 10 -5 11.44 2.46
-1 -10 5 13.28 2.82
1 10 -4 139.21 8.96
-1 -10 4 168.92 10.06
1 10 -3 8.36 2.3
-1 -10 3 5.62 1.94
-1 -10 3 7.64 2.22
1 10 -2 8.2 2.12
-1 -10 2 9.71 2.32
-1 -10 2 13.09 2.86
-1 -10 1 2.15 1.59
1 10 -1 4.92 1.7
-1 -10 0 0.5 1
1 10 0 1.74 1.19
-1 -10 -1 17.46 3.5
1 10 1 12.49 2.56
-1 -10 -2 2.46 1.49
1 10 2 0.76 0.8
-1 -10 -3 16.88 3.64
1 10 3 13.57 2.69
-1 -11 2 8.88 2.59
-1 -11 1 7.54 2.16
-1 -11 1 6.74 2.18
-1 -11 0 1.59 1.76
-1 -11 -1 2.21 1.59
1 11 1 0.99 0.8
1 11 2 18.37 3.3
2 -11 -2 -0.03 0.97
2 -11 -1 31.91 4.01
2 -11 -1 27.36 4.43
2 -11 0 0.21 0.94
2 -11 0 -0.54 1.68
2 -11 1 1.25 0.92
2 -11 2 2.93 1.27
2 -11 3 1.15 0.59
2 -10 -3 51.5 6.11
2 -10 -2 66.3 5.4
2 -10 -2 59.11 6.35
2 -10 -1 33.66 4.65
2 -10 -1 32.39 3.78
2 -10 0 0.48 0.59
2 -10 0 2.24 1.6
2 -10 1 23.12 3.39
2 -10 1 26.77 3.48
2 -10 2 0.25 0.53
2 -10 3 1.57 0.77
2 -10 4 0.55 1.95
2 -10 4 1.98 1.19
2 -10 5 12.2 3.56
2 -10 5 17.02 2.96
2 -10 6 40.08 6.57
2 -9 -5 -0.12 0.91
2 -9 -4 7.12 2.19
2 -9 -3 0.24 0.71
2 -9 -3 -0.17 0.54
2 -9 -2 0.56 1.26
2 -9 -2 -0.52 0.79
2 -9 -1 14.68 2.86
2 -9 -1 20.87 2.79
2 -9 0 44.21 5.19
2 -9 0 37.14 4.26
2 -9 0 37.14 3.76
2 -9 1 61.06 6.33
2 -9 1 57.9 4.72
2 -9 1 57.42 5.05
2 -9 2 0.28 0.53
2 -9 2 0.34 0.63
2 -9 2 1.74 1
2 -9 3 59.72 6.99
2 -9 3 58.36 4.92
2 -9 3 52.47 4.27
2 -9 4 12.58 2.44
2 -9 4 13.57 3.56
2 -9 5 16.52 4.02
2 -9 5 14.28 2.58
-2 9 -5 18.98 4.39
-2 9 -6 45.1 7.01
2 -9 6 51.52 5.02
2 -8 -6 1.76 1.55
2 -8 -5 19.29 3.46
2 -8 -4 3.86 1.12
2 -8 -4 4.83 1.92
2 -8 -3 9.28 1.71
2 -8 -3 6.15 1.96
2 -8 -2 2.68 0.89
2 -8 -2 1.98 1.03
2 -8 -1 50.98 4.13
2 -8 -1 59.35 5.22
2 -8 0 45.05 5
2 -8 0 46.48 3.94
2 -8 0 55.33 5.03
2 -8 1 195.21 7.63
2 -8 1 205.01 8.54
2 -8 1 198.36 8.88
2 -8 1 201.48 11.3
2 -8 2 5.66 1.38
2 -8 2 5.81 2.08
2 -8 2 7.81 1.66
2 -8 2 5.52 1.13
2 -8 3 0.25 0.58
2 -8 3 -0.06 0.51
2 -8 3 -0.08 0.81
2 -8 4 8.95 1.77
-2 8 -4 6.22 2.22
2 -8 4 9.39 1.35
2 -8 5 22.03 3
-2 8 -5 19 4.17
2 -8 6 2.2 1.07
-2 8 -6 1.33 1
-2 8 -7 53.71 7.53
2 -8 7 62.11 5.41
2 -8 8 2.77 1.44
-2 8 -8 4.19 2.3
2 -7 -7 7.2 2.37
-2 7 6 82.26 6.84
2 -7 -6 77.34 7.11
2 -7 -5 62.87 6.04
-2 7 5 64.11 5.83
-2 7 4 44.15 4.56
-2 7 4 38.63 5.23
2 -7 -4 38.67 3.66
2 -7 -4 37.26 3.7
2 -7 -4 46.42 4.93
2 -7 -3 171.95 9.24
2 -7 -3 165.61 6.98
-2 7 3 157.75 8.37
-2 7 3 150.07 9.93
2 -7 -3 165.97 7.9
2 -7 -2 8.43 1.45
2 -7 -2 8.23 1.93
-2 7 2 4.42 1.35
2 -7 -1 24.96 3.55
2 -7 -1 23.06 2.5
-2 7 1 20.66 2.66
2 -7 -1 23.45 3.11
2 -7 0 17.5 2.96
2 -7 0 14.64 1.96
2 -7 0 14.12 1.98
2 -7 0 19.82 2.73
2 -7 1 95.87 7.38
2 -7 1 106.55 5.56
2 -7 1 97.25 4.82
2 -7 1 97.71 5.57
2 -7 2 8.08 1.55
2 -7 2 7.75 1.23
2 -7 2 4.39 1.7
2 -7 2 7.28 1.39
2 -7 3 1.92 0.96
2 -7 3 1.95 0.58
2 -7 3 0.76 0.88
-2 7 -3 1.19 1.26
2 -7 3 1.34 0.52
2 -7 4 140.12 4.46
-2 7 -4 144.3 10.49
2 -7 4 142.68 6.96
2 -7 4 130.77 3.75
2 -7 5 33.08 3.44
-2 7 -5 33.09 5.18
2 -7 6 19.4 2.76
-2 7 -6 28 4.98
-2 7 -7 34.14 5.62
2 -7 7 37.46 4.01
2 -7 8 50.13 4.78
-2 7 -8 42.92 6.68
-2 7 -9 4.08 2.45
2 -7 9 2.32 1.35
-2 6 8 23.3 3.78
2 -6 -8 21.11 3.86
-2 6 7 23.85 3.69
2 -6 -7 18.97 3.51
-2 6 6 139.92 8.58
2 -6 -6 144.2 8.98
2 -6 -5 116.26 5.12
2 -6 -5 124.86 7.93
-2 6 5 136.08 7.88
2 -6 -5 126.5 5.56
-2 6 4 6.94 2.35
2 -6 -4 10.63 1.68
-2 6 4 12.2 2.29
2 -6 -4 10.56 2.27
2 -6 -4 8.58 1.58
2 -6 -3 -0.11 0.49
2 -6 -3 -0.36 0.57
-2 6 3 0.82 0.86
-2 6 3 -0.07 0.72
2 -6 -2 90.98 5.28
-2 6 2 90.51 5.48
2 -6 -2 94.74 4.71
2 -6 -2 86.38 5.73
-2 6 2 85.69 6.81
-2 6 1 63.17 4.31
2 -6 -1 61.8 3.78
2 -6 -1 54.75 4.15
2 -6 -1 61.65 4.04
2 -6 -1 55.52 4.27
2 -6 -1 63.97 5.42
2 -6 0 2.84 0.99
2 -6 0 4 1.24
2 -6 0 1.33 0.82
2 -6 0 3.64 0.99
-2 6 0 3.62 1.07
2 -6 0 3.85 1.56
2 -6 0 2.5 0.81
2 -6 1 14.5 2.68
2 -6 1 12 1.75
2 -6 1 8.56 1.65
-2 6 -1 12.13 1.63
2 -6 1 11.26 1.47
2 -6 1 12.76 1.72
2 -6 2 39.25 3.13
-2 6 -2 34.9 4.52
2 -6 2 39.67 2.86
2 -6 2 37.25 2.38
2 -6 2 33.68 4.16
2 -6 3 30.93 2.85
-2 6 -3 26.32 4.06
2 -6 3 28.81 2.06
2 -6 3 29.34 1.84
-2 6 -4 344.82 15.36
2 -6 4 352.25 10.83
-2 6 -5 679.99 23.22
2 -6 5 738.71 17.52
2 -6 6 165.89 7.71
-2 6 -6 130.82 10.03
2 -6 7 13.46 2.29
-2 6 -7 14.86 3.39
2 -6 8 26.56 3.4
-2 6 -8 29.01 5.25
-2 6 -9 -0.11 1.19
2 -6 9 0.73 0.57
-2 6 -10 4.72 2.01
2 -6 10 5.33 1.74
-2 5 9 -0.41 0.98
2 -5 -9 1.22 1.25
-2 5 8 2.03 1.4
2 -5 -8 5.58 2.1
2 -5 -7 17.8 3.23
-2 5 7 13.29 2.72
2 -5 -6 187.94 5.32
-2 5 6 197.64 9.5
2 -5 -6 191.85 9.87
-2 5 5 62.65 5.01
-2 5 5 52.79 5.67
2 -5 -5 64 3.05
2 -5 -5 60.25 3.19
2 -5 -4 255.72 7.73
2 -5 -4 255.67 7.61
-2 5 4 252.57 9.78
-2 5 4 235.73 11.79
2 -5 -3 115.88 5.19
-2 5 3 103.7 7.39
-2 5 3 105.97 5.86
2 -5 -3 106.38 5.68
2 -5 -2 63.09 5.72
2 -5 -2 65.59 3.98
-2 5 2 60.21 4.1
2 -5 -2 63.94 3.37
2 -5 -2 65.01 4.11
2 -5 -1 232.33 8.01
2 -5 -1 220.89 10.58
2 -5 -1 233.6 10.06
2 -5 -1 236.31 7.67
2 -5 -1 229.71 6.86
-2 5 1 225.23 7.84
2 -5 0 158.98 6.59
-2 5 0 143.92 5.72
2 -5 0 150.77 8.38
2 -5 0 158.42 5.61
2 -5 0 150.9 8.1
2 -5 0 152.79 5.58
2 -5 0 150.4 6.15
-2 5 -1 109.87 7.3
2 -5 1 106.87 6.89
-2 5 -1 106.87 4.46
2 -5 1 110.69 4.24
2 -5 1 106.64 4.68
2 -5 1 109.85 5.56
2 -5 1 112.61 7.11
2 -5 1 114.2 4.82
2 -5 2 227.63 8.48
2 -5 2 250.95 11.07
2 -5 2 251.06 10.63
-2 5 -2 237.98 6.39
-2 5 -2 248.24 11.34
2 -5 2 248.09 7.65
2 -5 2 236.32 6.58
2 -5 2 233.69 6
2 -5 3 0.94 0.45
-2 5 -3 1.93 0.96
2 -5 3 0.9 0.74
2 -5 3 -0.23 0.6
2 -5 3 0.54 0.29
2 -5 4 0.47 0.31
-2 5 -4 0.36 0.56
-2 5 -5 22.09 3.63
2 -5 5 27.14 2.78
2 -5 6 351.59 11.15
-2 5 -6 321.79 14.87
-2 5 -7 -0.82 0.89
2 -5 7 0.55 0.61
-2 5 -8 11.53 2.93
2 -5 8 9.36 1.97
-2 5 -9 2.19 1.62
2 -5 9 1.61 1.07
-2 5 -10 2.56 1.49
2 -5 10 3.97 1.32
-2 4 10 0.06 1.11
2 -4 -10 2.84 1.47
2 -4 -9 4.92 1.96
-2 4 9 2.19 1.44
-2 4 8 188.71 9.8
2 -4 -8 186.31 10.26
2 -4 -7 1.53 0.44
-2 4 7 0.34 0.83
2 -4 -6 110.79 3.52
-2 4 6 98.17 6.25
2 -4 -5 28.8 1.64
-2 4 5 30.57 3.19
-2 4 5 25.06 3.65
2 -4 -5 27.76 1.67
2 -4 -4 8.24 1.07
2 -4 -4 11.06 1.83
-2 4 4 7.93 2.07
-2 4 4 7.1 1.48
2 -4 -4 10.82 1.11
2 -4 -3 142.02 5.08
-2 4 3 134.04 6.08
2 -4 -3 143.73 6.17
-2 4 2 154.24 6.1
2 -4 -2 157.03 6.06
2 -4 -2 153.7 4.64
2 -4 -2 149.53 5.45
-2 4 2 149.02 8.17
2 -4 -1 193.89 6.45
2 -4 -1 217.96 6.68
2 -4 -1 200.83 8.74
2 -4 -1 206.31 5.56
2 -4 -1 184.88 8.6
-2 4 1 195.91 9.12
-2 4 1 195.21 6.5
-2 4 0 22.1 1.89
2 -4 0 21.76 1.72
2 -4 0 21.38 1.79
2 -4 0 19.65 1.99
2 -4 0 18.67 2.65
2 -4 1 49.6 3.25
2 -4 1 53.06 4.47
-2 4 -1 51.95 4.49
-2 4 -1 49.95 2.57
2 -4 1 49.98 2.8
2 -4 1 53.44 2.59
-2 4 -2 40.76 3.98
2 -4 2 41.36 2.06
-2 4 -2 38.17 1.95
2 -4 2 40.37 2.64
2 -4 2 37.56 1.99
-2 4 -3 164.61 6.57
-2 4 -3 148 8.02
2 -4 3 168.23 5.97
2 -4 3 152.31 7.14
-2 4 -3 149.94 3.4
2 -4 3 140.47 2.99
2 -4 3 142.36 2.99
2 -4 4 10.23 1.5
-2 4 -4 13.26 1.94
2 -4 4 8.57 1.75
-2 4 -4 13.52 2.41
2 -4 4 10.44 1.67
-2 4 -5 181.17 9.57
2 -4 5 183.98 7.04
2 -4 5 180.78 7.65
2 -4 6 112.74 5.78
-2 4 -6 113.66 7.73
-2 4 -7 120.7 8.41
2 -4 7 128.13 6.55
2 -4 8 74.32 5.23
-2 4 -8 70.37 6.75
-2 4 -9 32.69 4.89
2 -4 9 35.56 3.9
-2 4 -10 -0.67 0.77
2 -4 10 0.05 0.59
-2 4 -11 1.07 1.2
2 -4 11 2.55 1.32
2 -3 -11 29.67 4.57
-2 3 11 25.32 3.91
2 -3 -10 2.8 1.83
-2 3 10 3.17 1.3
-2 3 9 0.93 1.13
-2 3 8 -0.25 0.71
-2 3 7 20.23 2.78
2 -3 -7 18.51 1.46
-2 3 6 30.86 3.23
2 -3 -6 37.84 1.85
-2 3 5 77.55 4.78
2 -3 -5 71.04 2.3
2 -3 -5 78.15 4.78
2 -3 -4 148.35 3.92
2 -3 -4 145.24 3.22
2 -3 -4 141.24 6.12
-2 3 4 147.41 6.28
-2 3 4 141.38 7.93
2 -3 -3 181.32 4.89
2 -3 -3 166.97 4.09
-2 3 3 172.48 6.37
-2 3 2 16.37 2.43
-2 3 2 20.31 1.9
2 -3 -2 18.25 1.5
2 -3 -2 18.86 1.12
2 -3 -2 20.11 1.89
-2 3 1 16.03 2.37
2 -3 -1 17.84 1.55
2 -3 -1 16.93 1.15
2 -3 -1 14.57 2.01
-2 3 1 17.53 1.63
2 -3 -1 15.69 1.53
2 -3 -1 18.18 2.39
-2 3 0 318.91 10.18
2 -3 0 320.35 7.42
2 -3 0 320.77 7.82
2 -3 0 304.85 10.61
2 -3 0 333.64 10.19
2 -3 0 334.1 6.86
-2 3 0 328.13 7.35
-2 3 0 315.89 7.44
-2 3 -1 130.65 6.31
2 -3 1 137.57 4.34
2 -3 1 139.57 6.83
2 -3 1 134.34 4.89
2 -3 1 135.09 6.05
-2 3 -1 140.76 4.76
-2 3 -1 141.08 3.91
2 -3 1 134.44 4.11
-2 3 -2 -0.1 0.11
-2 3 -2 0.65 0.65
2 -3 2 0.15 0.16
2 -3 2 0.08 0.25
2 -3 2 0.54 0.56
2 -3 3 188.01 6.02
-2 3 -3 183.55 7.89
-2 3 -3 180.86 3.42
-2 3 -4 18.96 2.61
2 -3 4 23.73 2.18
2 -3 5 161.82 6.35
-2 3 -5 158.42 6.66
-2 3 -5 158.87 8.03
2 -3 5 170.77 6.79
-2 3 -6 137.98 7.87
2 -3 6 141.32 6.28
2 -3 6 141.83 6.43
-2 3 -7 9.98 2.34
2 -3 7 15.01 2.17
2 -3 7 12.39 1.97
-2 3 -7 11.71 0.75
-2 3 -8 35.5 4.5
2 -3 8 33.4 3.42
-2 3 -8 29.65 1.61
-2 3 -9 36.07 4.78
2 -3 9 39.7 3.99
2 -3 10 40.67 4.33
-2 3 -10 33.27 4.98
2 -3 11 54.44 5.24
-2 3 -11 51.25 6.54
-2 2 12 6.81 2.37
2 -2 -12 4.64 1.98
-2 2 11 2.99 1.47
2 -2 -11 3.34 1.75
-2 2 10 0.31 0.8
-2 2 9 14.96 2.09
-2 2 9 10.15 2.07
2 -2 -8 130.26 4.87
-2 2 8 132.43 5.91
-2 2 8 132.46 7.39
2 -2 -7 29.66 1.97
-2 2 7 30.01 3.2
-2 2 7 25.35 2.25
2 -2 -6 94.5 3.15
-2 2 6 93.89 3.95
-2 2 6 91.31 5.24
2 -2 -6 91.95 5.26
-2 2 5 147.04 6.24
2 -2 -5 149.58 3.52
2 -2 -5 159.71 6.52
2 -2 -4 561.82 8.33
2 -2 -4 579.4 8.5
2 -2 -3 449.39 7.6
-2 2 3 428.23 13.12
-2 2 3 436.84 10.18
-2 2 2 128.18 6.46
-2 2 2 131.18 4.58
2 -2 -2 134.89 4.79
2 -2 -1 274.49 7.77
-2 2 1 258.8 9.43
2 -2 -1 279.3 9.21
-2 2 1 260.95 5.08
-2 2 1 265.07 6.44
2 -2 -1 279.9 6.83
2 -2 -1 266.84 4.72
2 -2 0 1535.01 23.19
2 -2 0 1557.41 27.98
2 -2 0 1536.7 21.68
2 -2 0 1581.02 25.26
-2 2 0 1516.05 21.88
-2 2 0 1554.96 22.57
-2 2 0 1543.53 28.24
-2 2 0 1587.41 25.8
2 -2 1 580.9 10.71
-2 2 -1 587.96 13.05
2 -2 1 604.39 12.39
-2 2 -1 597.1 10.71
2 -2 1 605.69 10.59
-2 2 -1 596.52 10.04
-2 2 -2 41.37 2.99
2 -2 2 41.5 2.63
-2 2 -2 35.57 2.21
-2 2 -2 39.76 1.76
2 -2 2 35.96 2.16
2 -2 2 39.13 1.74
2 -2 3 193.89 5.86
-2 2 -3 191.56 4.5
-2 2 -3 192.88 7.09
2 -2 3 173.95 3.68
-2 2 -4 223.75 4.95
2 -2 4 235.43 7.1
-2 2 -4 242.29 8.4
-2 2 -4 217.82 4.76
-2 2 -5 107.7 3.33
2 -2 5 113.75 5.14
-2 2 -5 97.56 5.52
-2 2 -5 113.1 5.2
-2 2 -5 98.85 3.3
2 -2 6 108.79 5.36
-2 2 -6 110.56 5.54
-2 2 -6 111.8 3.58
-2 2 -6 103.8 3.81
-2 2 -6 101.29 6.03
2 -2 7 33.51 2.95
-2 2 -7 26.85 3.26
2 -2 7 31.86 3.04
-2 2 -7 31.39 1.95
-2 2 -7 30.61 2.2
-2 2 -8 1.15 0.67
-2 2 -8 1.37 0.94
2 -2 8 0.97 0.73
-2 2 -8 -0.2 0.22
2 -2 8 -0.43 0.85
2 -2 9 60.28 4.84
-2 2 -9 55.25 5.56
-2 2 -9 57.29 3.61
-2 2 -10 9.15 2.31
2 -2 10 11.49 2.29
-2 2 -11 0.33 0.9
2 -2 11 0.05 1.07
-2 1 12 0.86 0.95
2 -1 -12 1.52 1.17
-2 1 11 5.78 1.84
-2 1 10 44.27 4.5
-2 1 9 1.19 0.95
-2 1 9 0.76 0.46
-2 1 8 114.79 6.39
-2 1 8 119.29 5.05
2 -1 -8 113.4 4.94
-2 1 7 173.96 5.59
2 -1 -7 178.16 5.72
-2 1 7 177.82 7.49
2 -1 -7 172.52 7.49
-2 1 6 36.63 2.1
-2 1 6 36.49 3.01
2 -1 -6 41.85 2.29
2 -1 -6 44.58 3.4
-2 1 5 90.82 4.44
2 -1 -5 81.17 2.87
-2 1 5 85.82 2.8
-2 1 4 10.98 1.39
-2 1 4 11.36 0.76
-2 1 3 8.55 1.1
2 -1 -3 9.07 1.23
-2 1 2 62.47 2.86
2 -1 -1 925.49 18.55
2 -1 -1 930.48 15.93
2 -1 -1 943.64 14.74
-2 1 1 929.36 12.84
2 -1 -1 946.65 13.38
-2 1 1 927.21 15.27
-2 1 0 382.57 7.9
2 -1 0 378.14 8.34
2 -1 0 389.12 10.62
-2 1 0 383.73 6.85
2 -1 0 396.51 7.42
-2 1 0 388.86 7.96
2 -1 0 394.57 6.96
-2 1 -1 680.24 11.96
2 -1 1 681.36 11.47
-2 1 -1 686.53 12.18
-2 1 -1 684.18 11.54
2 -1 1 668.9 11.82
-2 1 -1 660.96 11.37
-2 1 -2 25.53 1.61
2 -1 2 25.59 1.78
-2 1 -2 23.77 1.71
-2 1 -2 27.65 1.96
2 -1 2 22.86 1.48
2 -1 3 162.18 5.29
-2 1 -3 163.77 4.59
2 -1 3 155.7 4.37
2 -1 4 42.52 2.81
-2 1 -4 41.47 2.34
-2 1 -5 139.65 4.82
-2 1 -5 133.62 5.56
-2 1 -5 128.76 4.72
2 -1 5 141.83 5.73
2 -1 6 253.7 8.56
-2 1 -6 256.18 8.54
-2 1 -6 239.56 7.39
-2 1 -6 258.08 7.25
2 -1 7 89.7 5.24
-2 1 -7 85.55 4.49
-2 1 -7 93.46 4.27
2 -1 8 182.08 7.09
2 -1 8 205.68 8.63
-2 1 -8 191.71 7.43
-2 1 -9 4.07 1.05
2 -1 9 3.97 1.11
2 -1 9 5.71 1.42
2 -1 10 123.5 7.74
-2 1 -10 117.17 8.27
2 -1 11 29.81 4.04
-2 1 -11 23.52 3.88
2 -1 12 14.64 3.14
-2 0 12 14.08 2.7
2 0 -12 13.76 3.03
2 0 -12 13.86 2.88
2 0 -11 4.98 1.49
-2 0 11 9.14 2
-2 0 10 124.56 7.17
-2 0 10 112.11 5.66
2 0 -9 8.79 1.65
-2 0 9 12.06 2.14
-2 0 9 12.61 1.72
-2 0 8 161.99 7.16
-2 0 8 150.02 5.55
2 0 -8 147.04 6.28
-2 0 7 328.68 8.05
-2 0 7 331.78 9.96
2 0 -7 301.49 8.76
2 0 -7 320.25 10.34
2 0 -6 5.14 0.98
2 0 -6 7.44 1.4
-2 0 6 6.07 1.19
-2 0 6 3.53 0.66
-2 0 5 57.33 2.4
-2 0 5 59.39 3.31
2 0 -5 57.91 2.01
2 0 -4 150.18 5.61
2 0 -4 159.34 3.85
-2 0 4 157.17 3.83
-2 0 4 154.38 5.17
2 0 -3 371.58 9.11
2 0 -3 381.36 7.15
-2 0 3 361.65 6.54
-2 0 3 372.44 8.38
-2 0 2 495.24 9.9
2 0 -2 485.24 10.55
-2 0 1 507.21 11.92
-2 0 1 490.1 10.03
-2 0 1 498.85 9.24
2 0 -1 520.12 11.67
2 0 0 9553.12 124.64
2 0 0 9999 124.29
-2 0 0 9633.72 123.17
-2 0 0 9256.86 124.11
2 0 0 9744.47 126.81
-2 0 0 9834.42 127
2 0 1 3743.48 51.29
2 0 1 3742.59 51.21
-2 0 -1 3748.39 50.58
-2 0 -1 3806.11 51.36
2 0 2 1918.07 28.9
-2 0 -2 1910.05 28.52
2 0 2 1930.98 28.4
2 0 3 15.47 1.63
-2 0 -3 17.7 1.6
2 0 3 17.73 1.62
2 0 4 44.92 3.01
-2 0 -4 39.56 2.73
-2 0 -4 42.45 2.76
2 0 4 44 2.73
-2 0 -5 185.91 6.45
-2 0 -5 183.41 6.61
2 0 5 182.16 6.89
-2 0 -5 183.5 6.53
2 0 6 100.21 5.36
-2 0 -6 99.53 5.01
-2 0 -6 92.09 4.87
-2 0 -7 0.15 0.33
-2 0 -7 0.14 0.64
2 0 7 1.61 0.97
-2 0 -8 132.09 6.15
2 0 8 142.79 7.52
-2 0 -8 143.41 7.01
-2 0 -9 6.82 1.72
2 0 9 6.21 1.8
-2 0 -10 64.11 5.12
2 0 10 62.04 5.71
2 0 11 7.6 2.14
2 0 12 -0.43 1.27
2 1 -12 -0.32 1.43
-2 -1 11 12.11 2.37
2 1 -11 13.73 2.94
-2 -1 11 9.24 1.69
-2 -1 10 3.27 1.13
2 1 -10 1.79 1.21
-2 -1 10 3.28 1.02
-2 -1 9 139.04 5.94
-2 -1 9 150.48 7.02
2 1 -8 -0.16 0.47
-2 -1 8 0.4 0.48
-2 -1 8 -0.07 0.41
2 1 -7 2.19 0.89
2 1 -7 1.93 0.78
-2 -1 7 -0.01 0.47
-2 -1 7 0.39 0.3
2 1 -6 0.57 0.33
-2 -1 6 0.75 0.47
2 1 -6 0.54 0.36
-2 -1 6 0.97 0.45
2 1 -5 146.67 4.5
-2 -1 5 142.49 4.55
2 1 -5 135.89 5.1
-2 -1 5 147.3 5.14
2 1 -5 145.79 5.98
-2 -1 4 423.72 8.78
2 1 -4 434.23 10.73
2 1 -4 441.23 8.92
-2 -1 4 424.9 9.44
-2 -1 3 105.99 4.1
2 1 -3 108.55 4.65
2 1 -3 110.88 3.76
2 1 -3 103.47 4.64
2 1 -3 110.84 3.64
2 1 -2 28.71 1.87
-2 -1 2 26.35 1.98
2 1 -2 25.9 1.51
-2 -1 2 28.36 1.32
2 1 -2 28.64 2.26
-2 -1 1 60.14 3.28
-2 -1 1 61.97 3.18
-2 -1 0 1143.8 19.97
-2 -1 0 1165.14 19.64
-2 -1 0 1150.2 19.38
2 1 0 1179.53 19.38
2 1 1 862.19 16.79
-2 -1 -1 842.83 15.45
2 1 1 832.08 15.37
2 1 2 83.48 4.34
-2 -1 -2 81.86 3.83
2 1 2 80.43 3.86
2 1 3 8.17 1.25
2 1 3 9.12 1.48
-2 -1 -3 10.02 1.43
-2 -1 -3 9.22 1.3
2 1 4 54.94 3.85
-2 -1 -4 55.04 3.32
-2 -1 -4 50.39 3.31
-2 -1 -4 53.09 3.52
2 1 4 51.73 3.44
-2 -1 -5 40.46 3.01
-2 -1 -5 34 3
2 1 5 30.64 3.02
-2 -1 -6 3.93 1.08
-2 -1 -6 4.94 1.21
2 1 6 3.3 1.13
-2 -1 -6 7.39 1.39
2 1 7 45.13 4.19
-2 -1 -7 42.79 3.64
-2 -1 -7 47.51 4.05
2 1 8 4.33 1.52
-2 -1 -8 5.81 1.58
2 1 9 88.33 6.85
-2 -1 -9 92.69 6.36
2 1 10 47.01 5.33
-2 -1 -10 43.97 4.65
2 1 11 5.63 2.01
2 1 12 33.53 5.19
2 2 -12 5.12 2.01
2 2 -11 9.09 2.53
-2 -2 11 15.21 2.25
-2 -2 10 2.11 0.74
2 2 -10 1.32 0.68
-2 -2 10 3.64 1.11
-2 -2 9 31.26 2.87
2 2 -9 35.76 4.09
2 2 -9 36.68 3.62
-2 -2 9 36.9 3.18
2 2 -8 36.51 3.81
2 2 -8 30.67 3.16
-2 -2 8 31.15 2.69
-2 -2 8 34.04 2.75
-2 -2 8 31.34 2.74
-2 -2 7 212.13 7.17
2 2 -7 201.48 8.65
2 2 -7 231.47 6.76
-2 -2 7 207.41 6.95
-2 -2 7 222.62 7.07
2 2 -7 220.21 8.83
-2 -2 6 778.69 15.81
2 2 -6 789.81 17.32
2 2 -6 815.56 15.22
2 2 -6 760.71 17.63
-2 -2 6 785.87 15.26
-2 -2 6 792.86 15.06
-2 -2 5 379.17 9.65
-2 -2 5 382.59 9.24
2 2 -5 391.39 10.73
2 2 -5 377.74 10.57
2 2 -5 379.95 10.95
-2 -2 5 383.47 8.99
2 2 -5 382.94 9.26
-2 -2 4 573.57 12.26
-2 -2 4 559.64 11.6
2 2 -4 576.69 13.03
2 2 -4 573.31 11.78
-2 -2 4 569 11.99
2 2 -4 542.6 13.25
-2 -2 3 70.33 3.51
-2 -2 3 64.16 3.41
2 2 -3 75.99 4.12
2 2 -3 68.06 3.65
-2 -2 3 66.92 3.1
2 2 -3 66.52 3.27
2 2 -2 110.27 4.89
-2 -2 2 111.43 4.41
-2 -2 2 116.18 4.8
2 2 -2 108.41 4.24
-2 -2 1 1636.93 24.81
2 2 -1 1638.29 25.48
-2 -2 1 1598.84 26.42
-2 -2 1 1574.57 26
2 2 -1 1641.21 26.57
2 2 0 400.95 7.78
-2 -2 0 395.95 9.8
-2 -2 -1 773.2 15.53
-2 -2 -2 399.28 11.04
-2 -2 -2 404.34 10.49
2 2 2 393.12 10.45
2 2 3 51.08 3.54
2 2 3 46.39 3.83
-2 -2 -3 45.22 3.28
-2 -2 -3 50.94 3.56
2 2 4 285.91 10.51
-2 -2 -4 313.16 9.94
2 2 4 307.68 9.77
-2 -2 -4 311.19 9.24
2 2 5 181.72 8.53
-2 -2 -5 194.38 7.21
-2 -2 -5 181.5 7.6
-2 -2 -5 174.68 7.69
-2 -2 -6 5.98 1.46
-2 -2 -6 10.62 1.9
2 2 6 6.57 1.7
-2 -2 -6 6.78 1.35
2 2 7 14.75 2.66
-2 -2 -7 12.22 2.2
-2 -2 -8 0.73 0.59
2 2 8 -1.05 0.84
-2 -2 -9 0.13 0.54
2 2 9 2.15 1.27
2 2 10 35.96 4.97
-2 -2 -10 32.09 4.21
-2 -2 -11 3.57 1.73
2 2 11 4.98 2.11
2 3 -12 2.91 1.99
2 3 -11 0.83 0.76
-2 -3 11 2.25 0.94
2 3 -10 1.03 0.96
-2 -3 10 2.08 0.88
-2 -3 10 -0.18 0.64
-2 -3 9 7.59 1.49
2 3 -9 3.5 1.45
-2 -3 9 6.68 1.28
2 3 -9 4.53 1.52
-2 -3 8 6.96 1.38
-2 -3 8 6.37 1.41
2 3 -8 4.11 1.45
2 3 -8 6.46 1.62
-2 -3 8 8.74 1.36
2 3 -7 21.52 2.19
-2 -3 7 20.09 2.2
2 3 -7 17.34 2.69
-2 -3 7 19.48 1.85
2 3 -6 8.87 1.41
-2 -3 6 8.68 1.17
2 3 -6 6.19 1.58
-2 -3 6 8.81 1.44
2 3 -5 372.08 10.03
-2 -3 5 376.96 10.15
2 3 -5 367.35 11.89
2 3 -5 391.09 11.34
-2 -3 5 370.63 9.01
-2 -3 4 171.21 5.94
2 3 -4 182.57 7.58
2 3 -4 164.59 6.17
-2 -3 4 182.49 6.47
-2 -3 4 165.4 6.39
2 3 -4 180.23 7.04
-2 -3 3 390.49 10.32
2 3 -3 366.05 9.59
2 3 -3 387.76 11.25
-2 -3 3 376.61 10.38
-2 -3 3 375.3 10.09
2 3 -3 375.82 10.42
-2 -3 2 0.27 0.47
2 3 -2 0.35 0.44
-2 -3 2 0.09 0.35
2 3 -2 0.36 0.34
-2 -3 2 0.6 0.33
-2 -3 1 633.76 15.37
-2 -3 1 653.16 11.39
2 3 -1 627.85 13.41
-2 -3 1 634.71 14.19
2 3 -1 637.59 14.13
-2 -3 0 73.58 4.13
2 3 0 72.94 4.13
2 3 0 77.96 3.96
2 3 1 23.63 2.18
-2 -3 -1 20.7 2.23
2 3 1 19.72 1.25
-2 -3 -2 222.33 8.78
2 3 2 230.91 7.41
-2 -3 -2 216.6 7.98
2 3 3 378.3 10.24
-2 -3 -3 377.73 11.69
-2 -3 -3 375.38 11.39
2 3 3 386.12 11.64
2 3 4 21.2 2.21
-2 -3 -4 20.36 2.48
-2 -3 -4 22.14 2.63
-2 -3 -4 25.37 2.89
2 3 4 23.17 2.76
2 3 5 188.96 7.14
-2 -3 -5 196.5 8.48
-2 -3 -5 192.84 7.71
-2 -3 -5 206.34 8.95
2 3 6 113.95 5.5
2 3 6 111.03 7.46
-2 -3 -6 120 7.12
2 3 7 50.07 5.2
-2 -3 -7 43.21 4.43
2 3 7 48.92 3.58
-2 -3 -8 2.86 1.23
2 3 8 2.09 0.72
2 3 8 2.68 1.25
-2 -3 -9 10.12 2.55
2 3 9 8.79 2.43
-2 -3 -10 9.23 2.47
2 3 10 4.79 1.75
-2 -3 -11 6.06 1.95
2 4 -12 2.77 1.87
-2 -4 12 4.12 1.54
2 4 -11 0.9 1.11
-2 -4 11 0.69 0.77
2 4 -10 1.28 1.2
-2 -4 10 0.14 0.71
2 4 -9 2.64 1.16
-2 -4 9 2.94 1.02
-2 -4 9 2 0.69
-2 -4 8 42.97 3.95
2 4 -8 50.44 3.83
-2 -4 8 50.74 3.91
2 4 -8 49.1 5.28
-2 -4 8 53.7 3.12
2 4 -8 43.49 4.04
-2 -4 7 1.17 0.81
2 4 -7 1.12 0.64
2 4 -7 1.53 1.1
-2 -4 7 0.25 0.31
-2 -4 7 0.84 0.63
-2 -4 6 227.24 9.03
2 4 -6 240.89 8.55
-2 -4 6 230.68 8.42
-2 -4 6 233.42 6.81
2 4 -6 243.09 10.87
2 4 -5 237.16 8.37
-2 -4 5 229.42 7.16
-2 -4 5 242.61 8.59
-2 -4 5 218.23 8.12
2 4 -5 222.42 9.99
2 4 -5 230.84 8.59
-2 -4 4 20.1 2.47
-2 -4 4 19.39 2.06
2 4 -4 18.73 2.68
-2 -4 4 19.98 2.44
-2 -4 4 19.3 2.19
-2 -4 4 20.18 2.32
2 4 -4 21.29 2.38
2 4 -4 16.96 2.07
2 4 -3 104.02 6.23
-2 -4 3 102.06 5.93
-2 -4 3 100.11 5.24
2 4 -3 104.79 5.28
2 4 -3 94.91 4.94
-2 -4 3 107.13 5.54
2 4 -2 178.11 6.85
-2 -4 2 185.78 8.38
2 4 -2 207.44 7.54
-2 -4 2 188.31 7.42
-2 -4 1 748.21 12.05
-2 -4 1 781.06 19.6
2 4 -1 783.56 16.37
-2 -4 1 804.12 17.31
-2 -4 0 43.49 3.47
2 4 0 51.98 3.5
2 4 1 265.32 8.38
-2 -4 -1 277.02 9.33
2 4 2 -0.08 0.24
-2 -4 -2 1.03 0.72
-2 -4 -2 0.42 0.51
2 4 2 0.48 0.47
-2 -4 -3 175.89 7.9
2 4 3 186.62 7.15
-2 -4 -3 177.93 8.52
-2 -4 -3 187.71 8.28
2 4 3 182.15 8.24
-2 -4 -4 45.12 4.05
2 4 4 43.52 3.37
-2 -4 -4 44.24 4.12
2 4 5 19.92 2.3
-2 -4 -5 20.44 2.98
-2 -4 -6 17.85 2.91
2 4 6 19.38 2.3
-2 -4 -7 108.72 7.55
2 4 7 110.46 5.57
-2 -4 -8 67.86 6.34
-2 -4 -9 1.08 1.34
-2 -4 -10 6.95 2.34
-2 -5 12 4.36 1.6
-2 -5 11 0.07 0.55
2 5 -11 1.81 1.21
2 5 -10 16.1 3.68
-2 -5 10 20.63 2.93
-2 -5 9 6.74 1.63
2 5 -9 5.83 2.12
2 5 -8 63.94 4.66
-2 -5 8 55.44 4.39
2 5 -8 49.02 5.67
-2 -5 8 57.57 3.06
2 5 -7 5.29 1.38
-2 -5 7 6.39 1.03
-2 -5 7 7.05 1.59
2 5 -7 4.13 1.57
2 5 -6 188.84 8.03
2 5 -6 178.4 10
-2 -5 6 173.9 6.03
-2 -5 6 164.42 7.79
-2 -5 6 196.71 8.16
2 5 -5 -0.42 0.48
-2 -5 5 0.3 0.44
2 5 -5 0.72 0.67
-2 -5 5 0.48 0.53
-2 -5 5 0.35 0.4
2 5 -4 4.72 1.19
-2 -5 4 6.82 1.5
2 5 -4 4.46 1.44
-2 -5 4 4.64 1.2
-2 -5 4 6.23 1.59
-2 -5 4 4.81 1.19
-2 -5 3 10.49 1.9
2 5 -3 12.89 1.93
-2 -5 3 12.41 2.37
-2 -5 3 15.9 2.25
2 5 -2 77.98 4.73
-2 -5 2 74.76 4.97
-2 -5 2 73.99 5.83
-2 -5 2 72.92 4.79
-2 -5 1 10.18 1.82
2 5 -1 11.15 1.89
-2 -5 1 11.06 1.89
-2 -5 1 10.77 2.4
2 5 -1 8.41 1.55
-2 -5 0 5.54 1.37
2 5 0 5.99 1.34
2 5 0 5.09 1.42
-2 -5 0 3.95 1.21
2 5 1 27.61 2.79
2 5 1 34.11 3.5
-2 -5 -1 37.24 3.55
2 5 2 33.33 3.09
-2 -5 -2 25.65 3.52
-2 -5 -2 29.06 3.29
-2 -5 -2 33.08 3.55
2 5 2 30.87 3.44
2 5 3 250.71 9.02
-2 -5 -3 250.93 10.41
-2 -5 -3 241.7 11
2 5 4 17.43 2.3
-2 -5 -4 27.82 3.5
2 5 5 62.98 4.4
-2 -5 -5 60.05 5.51
-2 -5 -6 12.98 2.72
2 5 6 12.91 1.95
2 5 7 18.82 2.41
-2 -5 -7 16.15 3.15
-2 -5 -8 0.86 0.75
-2 -5 -9 8.44 2.53
-2 -6 11 37.58 4.25
2 6 -11 40.63 6.35
-2 -6 10 0.92 0.94
2 6 -10 2.31 1.7
-2 -6 9 0.64 1.01
2 6 -9 -0.16 1.2
2 6 -8 3.62 1.34
-2 -6 8 3.92 1.29
2 6 -8 3.5 1.66
2 6 -7 2.32 0.98
-2 -6 7 1.18 0.52
-2 -6 7 0.92 0.63
2 6 -7 1.93 1.21
-2 -6 6 1.52 0.72
-2 -6 6 2.62 1.07
2 6 -6 -0.15 0.58
2 6 -6 2.66 1.49
2 6 -5 408.78 13.03
2 6 -5 422.29 16.65
-2 -6 5 404.82 13.27
-2 -6 5 421.56 12.52
2 6 -5 406.81 12.42
-2 -6 5 413.97 11.56
2 6 -4 215.96 9.02
-2 -6 4 213.73 9.27
-2 -6 4 209.85 8.9
2 6 -4 211.75 8.63
-2 -6 3 90.66 7.08
-2 -6 3 80.56 5.46
2 6 -3 81.36 5.25
2 6 -3 77.94 5.16
-2 -6 2 15.59 2.38
-2 -6 2 18 3.22
2 6 -2 12.03 2.1
2 6 -2 9.75 1.81
2 6 -1 192.24 8.26
-2 -6 1 200.26 11.44
-2 -6 1 190.49 8.69
2 6 -1 200.83 8.88
-2 -6 0 27.41 3.29
2 6 0 30.62 3.18
2 6 0 29.6 3.43
2 6 1 0.05 0.39
-2 -6 -1 0.64 0.52
-2 -6 -2 -0.17 0.48
2 6 2 0.01 0.37
2 6 3 28.63 3.17
-2 -6 -3 32.57 3.92
2 6 4 289.81 10.63
2 6 4 302.67 9.39
-2 -6 -4 301.23 12.82
2 6 5 49.18 4.18
-2 -6 -5 38.73 4.71
-2 -6 -6 15.2 3.1
2 6 6 11.41 1.99
-2 -6 -7 20.17 3.69
-2 -6 -8 27.7 4.53
2 7 -10 4.24 2.23
-2 -7 10 5.6 1.68
-2 -7 9 7.24 1.85
2 7 -9 1.87 1.77
-2 -7 8 3.54 1.53
2 7 -8 3.27 1.87
2 7 -8 2.54 1.25
2 7 -7 1.61 0.82
2 7 -7 1.01 0.85
-2 -7 6 27.82 2.58
2 7 -6 26.9 3.44
2 7 -6 23.02 4.1
-2 -7 6 33.87 3.79
2 7 -5 39.61 4.06
-2 -7 5 39.22 3.54
-2 -7 5 34.73 3.89
-2 -7 5 40.18 3.88
2 7 -5 35.67 3.62
2 7 -4 160.26 8.16
-2 -7 4 151.05 8.29
-2 -7 4 155.8 8.13
2 7 -4 143.52 7.59
2 7 -3 7.85 1.74
-2 -7 3 6 1.55
2 7 -3 4.88 1.48
-2 -7 2 73.37 2.77
-2 -7 2 73.28 5.62
2 7 -2 73.51 5.37
2 7 -1 127.63 7.11
-2 -7 1 138.63 7.82
2 7 0 34.23 3.63
-2 -7 0 33.21 3.87
2 7 1 4.97 1.48
-2 -7 -1 6.21 1.88
2 7 2 35.33 3.78
-2 -7 -2 34.64 4.18
2 7 3 39.41 3.95
-2 -7 -3 40.07 4.7
2 7 4 27.12 3.29
-2 -7 -4 24.41 3.75
-2 -7 -5 9.52 2.64
2 7 5 11.81 2.12
-2 -7 -6 8.56 2.36
2 7 6 8.96 1.9
-2 -7 -7 54.45 6.37
2 8 -10 4.92 2.64
2 8 -9 40.11 6.58
2 8 -8 26.66 3.67
2 8 -8 27.54 5.07
-2 -8 8 23.96 3.51
2 8 -7 -2.52 1.19
-2 -8 7 1.33 1.03
2 8 -7 0.56 1.45
-2 -8 6 31.03 3.98
2 8 -6 32.13 3.92
2 8 -5 4.36 1.38
-2 -8 5 3.99 1.43
-2 -8 5 3.65 1.29
-2 -8 4 95.21 6.79
-2 -8 4 91.82 6.87
2 8 -4 89.85 6.45
2 8 -3 5.55 1.75
-2 -8 3 3.24 0.9
-2 -8 3 3.01 1.48
-2 -8 2 10.54 2.3
2 8 -2 11.54 2.31
-2 -8 1 174.38 9.57
2 8 -1 171.04 8.91
-2 -8 0 2.31 1.44
2 8 0 1.16 1.03
-2 -8 -1 4.36 1.8
2 8 1 2.53 1
2 8 2 0.76 0.88
-2 -8 -2 0.22 0.61
-2 -8 -3 6.27 2.15
2 8 3 3.6 1.44
-2 -8 -4 1.23 1.39
2 8 4 1.48 0.99
-2 -8 -5 1.74 1.03
2 8 5 5.27 1.64
-2 -8 -6 4.59 2.08
2 9 -7 0.63 1
-2 -9 7 1.57 1.41
2 9 -6 0.02 0.49
-2 -9 6 1.31 0.96
2 9 -5 3.14 1.3
-2 -9 5 4.14 1.36
-2 -9 5 4.74 1.72
2 9 -4 1.13 1.04
-2 -9 4 1.39 1.18
-2 -9 4 0.83 0.58
-2 -9 3 -0.11 0.74
2 9 -3 0.92 1.1
-2 -9 3 0.03 1.12
-2 -9 2 6.85 2.02
2 9 -2 4.88 1.68
2 9 -1 6.66 1.9
-2 -9 1 7.54 2.37
-2 -9 0 82.09 7.09
2 9 0 81.29 6.5
-2 -9 -1 -0.51 1.12
2 9 1 1.15 0.98
-2 -9 -2 0.02 1.16
2 9 2 0.86 0.8
-2 -9 -3 5.37 2.11
2 9 3 8.08 2.08
2 9 4 10.93 2.42
-2 -9 -4 10.49 2.91
2 10 -4 122.84 8.47
-2 -10 4 114.2 8.7
-2 -10 4 109.35 8.34
2 10 -3 -0.09 0.82
-2 -10 3 0.63 1.13
-2 -10 3 3.04 1.63
2 10 -2 2.38 1.38
-2 -10 2 1.49 1.11
-2 -10 1 -0.43 1
2 10 -1 -0.22 1
2 10 0 42.25 4.99
-2 -10 0 40.11 5.38
-2 -10 -1 1.27 1.36
2 10 1 -0.54 0.92
2 10 2 51.5 5.54
-2 -10 -2 52.62 6.49
2 10 3 1.35 1.22
2 10 4 64.38 6.09
-2 -11 2 0.99 0.96
-2 -11 1 1.69 1.46
-2 -11 0 1.75 1.54
3 -11 -2 9.85 2.83
3 -11 -1 12.15 3.23
3 -11 1 -0.72 0.69
3 -11 2 1.36 1.35
3 -11 3 4.49 1.61
3 -10 -3 29.15 4.58
3 -10 -2 5.71 2.08
3 -10 -1 2.07 0.82
3 -10 -1 -0.18 0.82
3 -10 0 1.47 0.6
3 -10 0 2.02 1.53
3 -10 1 9.62 2.23
3 -10 1 8.85 1.96
3 -10 1 10.84 3.16
3 -10 2 0.19 0.65
3 -10 2 2.02 1.79
3 -10 3 8.22 2
3 -10 3 5.46 2.53
3 -10 4 50.55 7.43
3 -10 4 59.33 5.43
3 -10 5 14.38 2.69
3 -10 5 9.21 3.56
3 -10 6 39.86 7.02
3 -10 7 21.26 5.27
3 -9 -5 3.26 1.89
3 -9 -4 5.02 1.83
3 -9 -3 9.87 2.57
3 -9 -2 1.18 0.81
3 -9 -2 1.38 1.07
3 -9 -1 13.88 2.12
3 -9 -1 16.91 3.15
3 -9 0 13.76 2.27
3 -9 0 12.54 2.57
3 -9 0 15.62 3.49
3 -9 1 17.37 2.5
3 -9 1 15.98 2.7
3 -9 1 19.24 3.94
3 -9 2 2.41 1.05
3 -9 2 2 0.77
3 -9 2 3.07 1.31
3 -9 3 5.84 2.6
3 -9 3 4.58 1.54
3 -9 4 -0.4 1.58
3 -9 4 0.74 0.76
-3 9 -4 0.91 0.97
3 -9 5 32.86 6.12
3 -9 5 31.97 3.92
-3 9 -5 29.7 5.69
3 -9 6 0.59 0.82
3 -9 6 1.76 2.33
-3 9 -6 3.4 1.87
3 -8 -6 34.66 4.94
-3 8 6 37.48 4.91
3 -8 -5 3.73 1.67
-3 8 5 7.41 2.28
3 -8 -4 9.84 2.26
-3 8 4 8.04 2.16
3 -8 -3 17.15 3.03
3 -8 -3 23.64 2.37
-3 8 3 18.14 3.02
-3 8 2 19.15 3
3 -8 -2 19.07 2.21
3 -8 -2 16.5 3.02
3 -8 -1 21.77 3.88
-3 8 1 17.77 2.77
3 -8 -1 20.98 3.34
3 -8 -1 21.77 2.43
3 -8 0 96.72 8.21
3 -8 0 86.92 5.11
-3 8 0 77.51 5.36
3 -8 0 91.1 6.3
3 -8 1 30.95 4.74
3 -8 1 27.16 2.88
3 -8 1 27.45 3.25
3 -8 1 25.85 2.74
3 -8 2 2.81 1.02
3 -8 2 7 1.61
3 -8 2 6.57 2.46
3 -8 3 70.14 7.67
-3 8 -3 53.89 6.79
3 -8 3 58.15 4.62
3 -8 3 66.52 4.08
3 -8 4 117.67 10.4
3 -8 4 109.03 6.56
-3 8 -4 103.31 9.71
3 -8 5 -0.45 0.83
-3 8 -5 3.88 2.47
3 -8 6 10.72 2.34
-3 8 -6 7.16 3.1
3 -8 7 37.69 4.25
-3 8 -7 35.82 6.24
3 -7 -7 2.18 1.33
-3 7 7 0.02 1.01
3 -7 -6 0.26 0.77
-3 7 6 0.13 1.01
-3 7 5 52.02 5.25
3 -7 -5 48.33 5.24
3 -7 -4 3.97 0.83
3 -7 -4 5.57 1.8
-3 7 4 5.78 1.79
3 -7 -3 210.73 9.16
-3 7 3 217.14 9.97
3 -7 -3 219.22 6.89
3 -7 -3 215.79 10.33
3 -7 -2 8.77 1.93
3 -7 -2 12.83 1.62
-3 7 2 10.63 2.05
-3 7 1 93.83 5.76
3 -7 -1 107.71 8.18
3 -7 -1 104.47 4.95
3 -7 -1 106.33 6.49
3 -7 0 24.49 3.85
-3 7 0 23.23 2.7
3 -7 0 28.08 2.6
3 -7 0 26.68 2.75
3 -7 0 31.89 3.44
-3 7 -1 61.31 4.13
3 -7 1 64.3 4.13
3 -7 1 83.22 7.43
3 -7 1 80.96 5.09
3 -7 1 66.11 4.13
-3 7 -2 20.44 2.12
3 -7 2 23.79 4.09
-3 7 -2 19.62 3.77
3 -7 2 22.47 2.5
3 -7 2 18.21 2.2
3 -7 2 16.66 1.93
3 -7 3 0.89 0.72
3 -7 3 0.83 0.52
3 -7 3 -0.14 0.83
-3 7 -3 1.57 0.67
3 -7 3 0.45 0.37
-3 7 -4 125.31 9.99
3 -7 4 121.88 6.48
3 -7 4 105.73 2.97
3 -7 5 7.81 1.73
-3 7 -5 4.32 1.81
3 -7 6 3.57 1.32
-3 7 -6 4.72 1.98
-3 7 -7 18.19 4.3
3 -7 7 19.08 2.92
-3 7 -8 -0.5 1.18
3 -7 8 1.67 1.16
-3 6 8 76.78 6.97
3 -6 -8 73.16 7.14
-3 6 7 41.83 4.95
3 -6 -7 47.31 5.4
-3 6 6 32.49 4.06
3 -6 -5 2.19 0.49
-3 6 5 2.37 1.38
3 -6 -4 73.79 4.6
3 -6 -4 80.42 3.2
-3 6 4 84.03 5.89
3 -6 -4 70.63 3.75
3 -6 -3 720.64 17.24
-3 6 3 747.53 18.88
3 -6 -3 764.18 13.81
-3 6 2 550.58 19.96
3 -6 -2 525.68 14.35
-3 6 2 578.54 15.27
3 -6 -2 556.28 11.56
3 -6 -1 7.86 1.2
3 -6 -1 6.52 1.47
3 -6 -1 5.6 1.79
3 -6 -1 6.33 1.34
-3 6 1 7.96 1.61
3 -6 0 1.47 0.59
3 -6 0 0.88 0.7
-3 6 0 0.84 0.58
3 -6 0 0.08 0.31
3 -6 1 21.58 3.68
-3 6 -1 21.62 2.21
3 -6 1 19.04 2.01
-3 6 -1 18.19 3.26
3 -6 1 19.37 2.22
3 -6 1 15.35 1.84
3 -6 2 4.44 0.92
3 -6 2 1.85 1.06
3 -6 2 2.27 0.77
-3 6 -2 3.56 0.88
-3 6 -2 1.84 1.24
3 -6 2 4.07 0.95
3 -6 3 8.01 1.5
3 -6 3 9.32 1.24
-3 6 -3 9.35 1.16
3 -6 3 9.73 2.55
3 -6 3 11.71 1.32
3 -6 4 58.36 4.21
-3 6 -4 55.37 6.1
3 -6 5 21.27 2.65
-3 6 -5 22.27 4.13
-3 6 -6 77.1 7.86
3 -6 6 92.22 5.8
-3 6 -7 3.98 1.63
3 -6 7 5.13 1.61
3 -6 8 112.01 7.13
-3 6 -8 102.23 9.82
3 -6 9 70.05 6.03
-3 6 -9 64.89 8.12
3 -5 -9 20.8 3.91
-3 5 9 21.81 3.69
-3 5 8 12.74 2.69
-3 5 7 19.29 3.1
-3 5 6 25.07 3.37
-3 5 5 53.09 4.67
3 -5 -5 56.03 3.16
3 -5 -5 46.27 1.44
3 -5 -4 35.82 2.81
3 -5 -4 34.62 1.92
-3 5 4 29.22 3.21
3 -5 -4 35.93 1.62
-3 5 3 8.13 2.21
3 -5 -3 9.2 1.45
3 -5 -3 11.93 2.53
3 -5 -3 9.85 0.96
-3 5 3 10.25 1.78
3 -5 -2 85.61 4.7
3 -5 -2 87.39 3.31
3 -5 -2 92.83 6.97
3 -5 -2 80.08 6.34
-3 5 2 80.81 4.8
-3 5 2 96.37 7.61
3 -5 -2 90.38 5.05
3 -5 -1 105.59 7.31
-3 5 1 104.26 7.69
3 -5 -1 92.81 6.65
-3 5 1 90.84 4.84
3 -5 -1 99.03 3.85
3 -5 -1 95.42 4.92
3 -5 -1 91.96 4.94
3 -5 0 0.08 0.24
3 -5 0 0.24 0.5
3 -5 0 1.34 0.7
3 -5 0 1.1 0.83
-3 5 0 0.39 0.45
3 -5 0 0.01 0.31
3 -5 1 0.68 0.63
3 -5 1 0.16 0.89
3 -5 1 0.25 0.34
3 -5 1 -0.2 0.45
-3 5 -1 -0.01 0.99
-3 5 -1 0.67 0.4
3 -5 1 1.13 0.59
3 -5 2 23.91 2.08
3 -5 2 28.1 4
3 -5 2 26.51 3.4
-3 5 -2 29.36 3.91
-3 5 -2 22.44 1.83
3 -5 2 26.36 2.37
-3 5 -2 23.95 2.6
3 -5 2 22.81 2.61
-3 5 -3 17.52 1.4
-3 5 -3 15.01 2.84
-3 5 -3 18.12 2.41
3 -5 3 17.21 1.38
3 -5 3 22 2.25
3 -5 3 17.1 1.34
-3 5 -4 12.8 0.84
3 -5 4 16.55 2.09
-3 5 -4 14.74 3
-3 5 -5 199.93 11.46
3 -5 5 222.32 8.45
-3 5 -6 1.39 1.36
3 -5 6 2.78 0.95
3 -5 7 25.05 3.12
-3 5 -7 25.29 4.45
-3 5 -8 5.89 2.43
3 -5 8 4.64 1.45
-3 5 -9 4.03 2.16
3 -5 9 3.26 1.21
-3 5 -10 1.33 1.31
3 -5 10 1.45 1.05
3 -4 -10 13.68 3.23
-3 4 10 9.01 2.4
-3 4 9 33.11 4.29
-3 4 8 194.87 10.1
-3 4 7 21.87 3.17
-3 4 6 136.69 7.43
-3 4 5 85.34 5.51
3 -4 -5 90.19 3.44
3 -4 -4 108.22 4.31
-3 4 4 99.85 5.6
-3 4 4 92.48 7.4
-3 4 3 672.75 20.97
3 -4 -3 660.72 10.08
-3 4 3 700.11 15.81
3 -4 -3 707.2 13.87
3 -4 -3 696.09 16.13
3 -4 -2 0.87 0.29
3 -4 -2 0.82 0.55
3 -4 -2 0.93 0.58
3 -4 -2 0.68 0.52
-3 4 2 0.9 0.52
3 -4 -1 42.01 4.31
3 -4 -1 47.7 2.28
-3 4 1 42.3 2.93
3 -4 -1 43.36 2.93
3 -4 -1 45.56 3.15
3 -4 0 950.26 23.82
-3 4 0 945.6 22.34
3 -4 0 954.3 16.07
-3 4 0 956.89 17.18
3 -4 0 921.77 17.95
3 -4 0 953.77 17.93
-3 4 -1 805.51 14.56
3 -4 1 824.48 22.08
-3 4 -1 812.17 20.49
3 -4 1 818.39 15.01
-3 4 -1 818.72 16.08
3 -4 1 823.41 15.72
3 -4 1 792.56 16.49
3 -4 2 198 6.29
-3 4 -2 216.38 9.77
3 -4 2 216.86 10.62
3 -4 2 211.34 7.55
3 -4 2 221.77 8.88
3 -4 2 209.05 6.65
-3 4 -2 219 5.6
3 -4 3 89.44 4.95
-3 4 -3 84.92 6.19
3 -4 3 97 4.6
3 -4 3 89.66 5.36
-3 4 -3 98.95 5.09
-3 4 -3 89.45 2.95
3 -4 3 83.08 3.02
3 -4 4 187.89 7.68
-3 4 -4 176.32 9.41
3 -4 4 183.91 6.96
-3 4 -4 175.98 3.77
-3 4 -4 197.6 7.8
-3 4 -5 24.51 3.49
3 -4 5 25.47 2.65
-3 4 -6 1.15 0.76
3 -4 6 0.6 0.44
-3 4 -7 1.09 1.13
3 -4 7 -0.51 0.48
-3 4 -8 3.5 1.32
3 -4 8 3.23 1.22
-3 4 -9 3.89 1.87
3 -4 9 3.45 1.3
-3 4 -10 24.84 4.73
3 -4 10 19.75 3.16
-3 3 11 1.27 0.72
-3 3 10 46.25 5.13
-3 3 9 6.43 1.9
-3 3 8 44.68 4.46
-3 3 7 0.9 0.62
-3 3 6 34.36 3.46
3 -3 -5 50.01 2.01
-3 3 5 50.09 3.89
-3 3 4 202.55 7.54
-3 3 4 190.64 10.17
3 -3 -4 196.44 7.81
3 -3 -4 198.95 5.26
-3 3 3 40.48 3.05
3 -3 -3 53.47 3.72
-3 3 3 53.88 5.2
3 -3 -3 47.03 2.49
3 -3 -2 3.72 1.25
3 -3 -2 5.98 1.28
3 -3 -2 5.9 0.53
3 -3 -2 6.56 1.24
-3 3 2 4.91 0.94
3 -3 -1 144.79 6.49
3 -3 -1 136.42 3.71
-3 3 1 138.77 4.15
3 -3 -1 135.24 7.58
-3 3 1 151.95 5.27
3 -3 -1 148.06 5.69
3 -3 0 187.13 9.07
-3 3 0 206.79 8.13
3 -3 0 211.81 7.68
3 -3 0 190.12 5.1
3 -3 0 206.91 6.65
-3 3 0 185.93 5.33
-3 3 0 199.22 5.87
-3 3 -1 357.55 11.3
3 -3 1 340.11 8.85
3 -3 1 365.26 13.09
3 -3 1 358.84 8.2
3 -3 1 352.32 10.23
-3 3 -1 356.94 8.43
-3 3 -1 367.66 7.99
3 -3 2 357.02 8.8
-3 3 -2 337.54 11.27
3 -3 2 350.53 8.11
-3 3 -2 361.43 7.57
3 -3 3 12.91 1.61
-3 3 -3 11.62 1.59
-3 3 -3 10.59 1.93
3 -3 3 10.6 1.02
-3 3 -3 12.48 1.09
-3 3 -4 399.45 7.51
3 -3 4 393.35 10.52
-3 3 -4 407.96 10.95
-3 3 -4 380.85 12.87
-3 3 -5 18.09 1.27
-3 3 -5 22.11 1.4
3 -3 5 22.52 2.43
-3 3 -5 18.64 2.87
-3 3 -6 2.15 0.5
-3 3 -6 3.06 1.24
-3 3 -6 2.75 0.47
3 -3 6 3.17 1.07
-3 3 -7 30.8 1.84
-3 3 -7 31.71 4.15
-3 3 -7 29.75 1.47
3 -3 7 33.36 3.37
-3 3 -8 11.28 2.69
3 -3 8 15.38 2.42
3 -3 9 55.68 4.93
-3 3 -9 55.5 6.12
-3 3 -10 14.04 3.26
3 -3 10 13.05 2.5
-3 2 11 15.12 2.98
-3 2 10 31.89 4.11
-3 2 9 5.34 1.59
-3 2 8 4.89 1.46
-3 2 7 26.34 3.01
-3 2 6 -0.16 0.37
-3 2 5 124.07 8.2
-3 2 5 128.93 5.92
3 -2 -5 122.87 6.2
3 -2 -5 118.4 2.79
-3 2 4 26.41 3.52
-3 2 4 28.82 2.56
3 -2 -4 30.43 2.84
-3 2 3 697.05 14.43
3 -2 -2 171.27 8.22
3 -2 -2 148.85 3.25
3 -2 -2 148.53 5.53
3 -2 -2 160.59 6.11
-3 2 2 164.32 5.6
3 -2 -1 30.4 1.51
3 -2 -1 29.43 2.44
3 -2 -1 29.26 2.27
-3 2 1 29.8 1.43
-3 2 1 30.32 2.17
3 -2 -1 29.59 3.29
-3 2 0 4.34 0.66
3 -2 0 3.42 1.13
-3 2 0 4.89 1.01
3 -2 0 5.9 1.08
3 -2 0 6.98 1.06
-3 2 0 4.61 0.82
3 -2 0 5.71 0.75
-3 2 -1 599.31 13.69
3 -2 1 601.48 12.24
-3 2 -1 602.85 11.44
3 -2 1 620.71 11.6
3 -2 1 626.51 12.48
-3 2 -1 609.19 11.81
3 -2 1 583.16 16.6
-3 2 -2 584.12 13.72
-3 2 -2 562.37 11.71
3 -2 2 569.66 11.38
3 -2 2 565.92 11.68
-3 2 -2 564.27 11.22
3 -2 3 155.91 5.69
-3 2 -3 165.26 6.85
-3 2 -3 158.71 5.18
3 -2 3 154.28 4.7
3 -2 4 621.45 14.04
-3 2 -4 635.35 15.78
-3 2 -4 661.22 14.37
-3 2 -4 643.51 11.8
3 -2 4 632.82 11.47
3 -2 5 78.47 4.51
-3 2 -5 70.64 4.91
-3 2 -5 76.17 4.5
-3 2 -5 71.78 3.3
3 -2 6 159.4 7.05
-3 2 -6 157.64 5.23
-3 2 -6 147.92 7.74
-3 2 -6 157.51 5.34
-3 2 -7 6.26 1.78
-3 2 -7 5.2 0.93
3 -2 7 5.06 1.32
-3 2 -7 5.11 0.99
3 -2 8 99.23 6.19
-3 2 -8 79.57 6.4
-3 2 -8 89.47 3.95
-3 2 -8 91.3 4.45
-3 2 -9 2.6 1.38
3 -2 9 1.57 0.98
-3 2 -10 3.11 1.62
3 -2 10 5.3 1.75
3 -2 11 8.26 2.17
-3 1 12 6.54 2.04
-3 1 11 2.59 1.31
-3 1 10 69.28 5.74
-3 1 9 1.08 0.67
-3 1 9 2.01 0.68
-3 1 8 71.16 3.39
-3 1 8 74.61 5.16
-3 1 7 28.67 1.79
-3 1 7 23.77 2.77
-3 1 6 7.57 0.76
3 -1 -6 7.92 1.68
-3 1 6 10.02 1.64
3 -1 -5 81.02 4.9
3 -1 -5 79.23 2.56
-3 1 5 76.32 2.1
3 -1 -4 324.02 9.98
-3 1 4 344.73 9.25
-3 1 3 132.58 5.1
-3 1 2 45.2 1.53
3 -1 -2 44.48 2.03
-3 1 1 3.82 0.84
3 -1 -1 3.13 1.09
3 -1 -1 5.53 0.63
-3 1 1 3 0.59
3 -1 -1 2.58 0.71
-3 1 1 3.31 0.5
-3 1 0 14.44 2.24
3 -1 0 13.77 1.63
3 -1 0 14.14 1.34
3 -1 0 13.94 2.14
-3 1 0 14.21 1.18
-3 1 0 18.92 1.53
-3 1 0 15.7 1.64
3 -1 1 999.73 21.93
3 -1 1 976.6 16.87
-3 1 -1 995.67 16.62
-3 1 -1 980.45 16.98
-3 1 -1 989.64 17.86
-3 1 -1 997.59 17.44
3 -1 1 993.75 18.03
3 -1 2 335.78 8.46
-3 1 -2 341.86 8.31
-3 1 -2 334.43 8.46
-3 1 -2 337.26 8.41
3 -1 2 323.11 8.27
3 -1 3 4.86 0.9
3 -1 3 4.26 0.93
-3 1 -3 4.67 0.91
3 -1 4 61.74 3.8
-3 1 -4 60.97 3.43
3 -1 4 61.86 3.26
-3 1 -5 0.77 0.6
-3 1 -5 0.89 0.52
3 -1 5 1.75 0.56
3 -1 5 1.87 0.82
3 -1 6 35.39 3.29
-3 1 -6 34.23 2.73
-3 1 -6 37.04 2.92
3 -1 7 93.53 5.85
-3 1 -7 95.93 5.04
3 -1 8 34.62 3.79
-3 1 -8 32.28 2.77
-3 1 -8 36.09 3.24
-3 1 -9 1.06 0.72
3 -1 9 1.17 1.01
-3 1 -10 16.88 3.25
3 -1 10 14.75 2.92
3 -1 11 0.74 1.08
-3 0 12 6.95 1.93
-3 0 11 5.17 1.62
3 0 -11 2.47 1.23
3 0 -10 2.23 0.9
-3 0 10 3.54 1.2
3 0 -9 0.44 0.66
-3 0 9 0.4 0.39
-3 0 9 0.63 0.52
-3 0 8 195.37 5.98
-3 0 8 204.3 8.33
-3 0 7 254.26 6.47
-3 0 7 254.82 8.85
3 0 -6 33.1 1.81
3 0 -6 32.1 3.27
-3 0 6 31.1 1.81
-3 0 6 37.16 3.01
3 0 -5 55.82 4.1
3 0 -5 51.47 2.45
-3 0 5 57.06 2.27
-3 0 5 54.82 3.46
3 0 -4 169.5 5.06
-3 0 4 172.16 4.24
-3 0 4 179.8 6.18
-3 0 3 303.43 10.81
3 0 -3 302.32 9.29
-3 0 3 293.88 8.07
-3 0 2 30.85 2.4
-3 0 2 24.99 1.83
-3 0 2 26.44 2.97
-3 0 1 772.37 15.34
3 0 -1 822.05 17.79
-3 0 1 785.07 18.52
-3 0 1 754.13 11.01
3 0 -1 781.57 16.14
-3 0 1 795.35 14.04
3 0 0 1927.42 30.39
3 0 0 1886.97 33.02
-3 0 0 1927.12 33.43
-3 0 0 1895.08 28.63
-3 0 0 1878.87 30.52
-3 0 0 1950.98 30.29
3 0 0 1894.35 30.85
3 0 1 66.88 3.71
3 0 1 71.81 4.71
-3 0 -1 73.93 3.43
-3 0 -1 74.05 3.89
3 0 1 74.01 3.9
3 0 2 296.21 8.7
-3 0 -2 306.75 8.06
-3 0 -2 298.14 8.48
3 0 2 286.56 8.2
3 0 3 450.58 11.51
-3 0 -3 433.06 10.81
3 0 4 659.71 14.69
-3 0 -4 633.96 13.57
3 0 4 615.44 13.15
-3 0 -5 65.27 4.19
-3 0 -5 66.54 4.16
3 0 5 65.09 3.96
3 0 5 63.13 4.41
-3 0 -6 8.35 1.54
3 0 6 12.83 2.21
-3 0 -7 1.15 0.84
-3 0 -7 0.62 0.54
3 0 7 -0.22 0.55
3 0 8 868.55 22.69
-3 0 -8 845.89 19.38
-3 0 -8 908.7 20.71
-3 0 -9 5.53 1.5
3 0 9 2.66 1.69
3 0 10 70.86 6.66
3 0 11 10.38 2.88
3 1 -11 1.1 0.72
-3 -1 11 1.66 1.05
3 1 -10 0.09 0.65
-3 -1 10 2.13 1.02
-3 -1 10 1.46 0.58
-3 -1 9 33.13 2.66
3 1 -9 28.03 3.28
-3 -1 9 32.03 3.22
-3 -1 8 38.12 2.68
3 1 -8 45.59 3.76
-3 -1 8 42.45 3.52
3 1 -7 26.39 3.15
3 1 -7 28.43 2.7
-3 -1 7 28.45 2.14
-3 -1 7 25.33 2.5
3 1 -7 27.54 1.97
3 1 -6 241.02 9.36
3 1 -6 229.76 7.44
-3 -1 6 247.13 6.51
-3 -1 6 235.7 7.76
3 1 -6 237.56 6.65
3 1 -5 128.92 4.69
3 1 -5 125.35 4.78
-3 -1 5 138.2 4.56
3 1 -5 144.52 6.94
-3 -1 5 136.03 5.48
3 1 -4 120.32 4.54
3 1 -4 116.21 4.06
-3 -1 4 118.67 4.35
-3 -1 4 118.2 5.03
-3 -1 3 206.11 6.93
3 1 -3 211.11 6.39
3 1 -3 192.53 4.68
3 1 -3 198.08 7.68
-3 -1 2 275.89 9.5
-3 -1 2 287.45 8.43
-3 -1 2 263.39 4.75
3 1 -2 277.39 8.99
3 1 -1 49.69 3.47
-3 -1 1 42.83 3.48
-3 -1 1 36.84 2.74
-3 -1 1 44 3.14
3 1 0 0.91 0.54
3 1 0 0.73 0.33
-3 -1 0 0.32 0.23
3 1 1 36.34 3.06
3 1 1 31.58 2.96
-3 -1 -1 33.21 2.7
-3 -1 -1 33.94 2.76
3 1 1 32.63 2.71
3 1 2 212.54 8.16
-3 -1 -2 196.46 7.14
3 1 2 197.85 7.04
3 1 3 43.88 3.74
-3 -1 -3 47.56 3.44
3 1 3 49.53 3.51
3 1 4 27.65 3.07
-3 -1 -4 24.46 2.43
-3 -1 -4 24.14 2.56
3 1 4 24.38 2.58
-3 -1 -5 123.45 5.96
3 1 5 115.06 6.7
-3 -1 -5 119.3 6.12
3 1 5 121.98 6.1
3 1 6 203.35 9.54
-3 -1 -6 214.51 8.55
-3 -1 -6 224.08 8.99
-3 -1 -7 17.19 2.48
-3 -1 -7 18.15 2.56
3 1 7 19.04 2.97
3 1 8 42.38 4.77
-3 -1 -8 44.37 4.3
-3 -1 -9 14.84 2.69
3 1 9 20.17 3.49
3 1 10 2.16 1.49
-3 -1 -10 -0.13 0.64
3 1 11 4.47 1.93
-3 -2 11 65.23 5.07
3 2 -11 54.37 5.71
3 2 -10 8.68 2.17
-3 -2 10 12.04 2.09
-3 -2 10 12.47 1.87
3 2 -9 2.48 1.15
-3 -2 9 1.48 0.78
-3 -2 9 1.9 0.68
3 2 -8 154.01 8.22
3 2 -8 149.5 7.68
-3 -2 8 170.34 6.37
-3 -2 8 163.91 6.82
3 2 -8 176.29 6.11
-3 -2 7 -0.06 0.34
3 2 -7 0.39 0.42
-3 -2 7 0.87 0.6
3 2 -7 0.67 0.4
3 2 -7 0.17 0.67
3 2 -7 0.46 0.65
3 2 -6 28.29 2.42
3 2 -6 30.63 3.27
3 2 -6 30.07 2.91
-3 -2 6 29.48 2.34
3 2 -6 30.62 3.39
-3 -2 6 26.11 2.38
3 2 -5 249.13 7.65
3 2 -5 237.7 8.06
-3 -2 5 254.91 7.58
3 2 -5 260.66 9.82
-3 -2 5 259.39 8
3 2 -4 269.17 7.86
-3 -2 4 260.77 8.17
3 2 -4 265.44 7.86
3 2 -3 76.91 3.96
-3 -2 3 77.3 4.29
-3 -2 3 74.75 3.09
3 2 -2 66.01 3.7
-3 -2 2 60 3.98
-3 -2 2 62.48 3.21
-3 -2 2 58.17 3.87
3 2 -2 59.41 4.09
-3 -2 1 210.3 7.55
-3 -2 1 214.17 7.78
3 2 0 47.41 3.07
-3 -2 0 45.8 3.65
-3 -2 0 49.41 3.55
3 2 1 120.2 5.27
-3 -2 -1 122.78 5.79
3 2 1 113.12 5.49
-3 -2 -2 230.13 8.28
3 2 2 239.09 8.43
3 2 3 111.83 6.65
-3 -2 -3 109.21 5.62
-3 -2 -3 100.88 5.57
3 2 3 104.73 5.64
3 2 4 11.19 1.95
-3 -2 -4 9.39 1.73
3 2 4 12.94 2.31
-3 -2 -4 11.29 1.79
3 2 5 43.67 4.45
-3 -2 -5 41.58 3.76
-3 -2 -5 56.22 4.46
3 2 5 46.66 4.01
3 2 6 31.03 3.89
-3 -2 -6 25.98 3.2
3 2 7 58.8 5.76
-3 -2 -7 69.47 5.47
3 2 8 231.54 12.25
-3 -2 -8 231.13 10.77
-3 -2 -9 15.84 2.88
3 2 9 15.52 3.27
-3 -2 -10 2.08 1.47
3 2 10 2.28 1.34
3 2 11 20.68 4.32
3 3 -11 9.19 2.65
-3 -3 11 9.49 1.83
-3 -3 10 49.87 3.94
3 3 -10 48.25 5.37
-3 -3 10 48.67 3.89
3 3 -9 175.37 9.8
-3 -3 9 172.04 7.25
-3 -3 9 182.53 7.3
-3 -3 8 21.42 2.34
3 3 -8 20.07 3.06
-3 -3 8 20.6 2.27
3 3 -8 21.04 2.33
3 3 -7 49.08 3.6
3 3 -7 45.46 4.3
-3 -3 7 49.19 3.48
3 3 -7 47.65 4.5
-3 -3 7 53.33 3.51
3 3 -6 13.23 2.26
-3 -3 6 14.02 1.95
3 3 -6 17.02 2.15
-3 -3 6 13.05 1.74
3 3 -6 11.13 2.13
3 3 -5 24.66 2.45
-3 -3 5 24.18 2.38
3 3 -5 26.66 2.86
-3 -3 5 22.14 2.34
3 3 -5 24.95 3.02
3 3 -4 644.1 14.8
3 3 -4 665.6 15.88
-3 -3 4 670.37 13.88
-3 -3 4 693.06 15.45
3 3 -3 20.51 2.2
-3 -3 3 24.73 2.56
-3 -3 3 18.88 2.09
-3 -3 2 4.02 0.99
-3 -3 2 4.26 1.1
3 3 -2 5.18 1.13
-3 -3 2 3.13 0.98
3 3 -1 468.89 12.08
-3 -3 1 475.89 11.32
-3 -3 1 471.46 12.99
3 3 0 27.49 2.61
-3 -3 0 21.03 2.47
-3 -3 -1 9.36 1.74
3 3 1 7.85 1.43
3 3 1 10.1 1.29
-3 -3 -2 206.26 8.92
-3 -3 -2 208.52 8.49
3 3 2 196.94 8.26
-3 -3 -3 9.15 1.76
-3 -3 -3 10.5 1.91
3 3 3 11.14 1.97
-3 -3 -4 20.95 2.7
-3 -3 -4 19.06 2.66
3 3 4 22.33 2.87
-3 -3 -5 8.04 1.85
-3 -3 -6 -0.6 0.68
3 3 6 1.19 0.56
3 3 7 57.68 6.09
-3 -3 -7 51.88 5.17
3 3 8 3.69 1.51
-3 -3 -8 5.65 1.79
-3 -3 -9 2.54 1.33
3 3 9 1.38 0.89
-3 -3 -10 -0.63 1.09
3 3 10 -0.98 1.56
-3 -3 -11 0.89 1.45
-3 -4 11 0.71 0.65
3 4 -10 13.73 2.99
-3 -4 10 13.1 2.14
-3 -4 9 13.49 2.16
3 4 -9 13.32 2.09
3 4 -9 14.02 2.91
-3 -4 9 12.26 1.75
3 4 -8 159.42 9.43
-3 -4 8 163.11 7.29
3 4 -8 147.84 8.53
-3 -4 8 159.26 6.34
3 4 -8 175.64 7.64
3 4 -7 0.83 0.53
-3 -4 7 2.39 0.93
3 4 -7 2.32 1.24
-3 -4 7 2.11 1.02
3 4 -7 1.78 0.94
3 4 -6 80.31 4.95
-3 -4 6 76.43 5.35
-3 -4 6 84.85 4.6
3 4 -6 75.56 5.77
-3 -4 6 84.64 5.05
3 4 -6 76.9 5.56
3 4 -5 113.5 5.88
-3 -4 5 117.55 6.52
-3 -4 5 112.61 5.62
3 4 -5 113.04 6.78
-3 -4 5 116.08 5.58
-3 -4 5 110.91 5.92
3 4 -5 113.25 6.56
3 4 -4 582.96 14.65
-3 -4 4 581.57 15.65
-3 -4 4 628.94 15.3
-3 -4 4 570.9 14.81
-3 -4 4 630.58 15.78
3 4 -4 620.54 16.43
3 4 -3 92.09 5.12
-3 -4 3 92.29 5.64
-3 -4 3 83.64 5.28
3 4 -3 89.11 5.5
-3 -4 2 46.65 3.12
3 4 -2 41.43 3.37
-3 -4 2 45.26 3.96
-3 -4 2 47.89 4.19
3 4 -2 48.18 4
3 4 -1 3.41 1.14
3 4 -1 4.44 1.24
-3 -4 1 2.92 0.64
-3 -4 1 6.28 1.61
-3 -4 1 2.98 1.05
3 4 0 1174.97 23.18
-3 -4 0 1139.78 24.15
3 4 0 1171.01 24.14
3 4 1 49.45 3.79
-3 -4 -1 47.52 4.57
-3 -4 -1 47.56 4.09
3 4 1 46.7 4.09
3 4 2 34.93 3.28
3 4 2 37.21 2.45
-3 -4 -2 33.69 3.85
-3 -4 -2 36.31 3.66
3 4 2 38.31 3.81
3 4 3 140.14 6.79
-3 -4 -3 138.32 7.53
3 4 4 24.04 2.78
-3 -4 -4 23.12 3.15
-3 -4 -5 2.34 1.22
3 4 5 2.07 0.77
3 4 6 20.19 2.67
-3 -4 -6 20.49 3.27
-3 -4 -7 0.01 0.53
3 4 7 1.38 0.82
-3 -4 -8 1.77 0.92
3 4 8 2.6 1.06
-3 -4 -9 2.12 1.45
-3 -4 -10 2.93 1.66
-3 -5 11 17.6 2.78
3 5 -10 12.52 3.08
-3 -5 10 15.42 2.52
-3 -5 9 14.11 2.36
3 5 -9 13.41 2.28
3 5 -9 11.84 2.91
3 5 -8 78.26 7.04
-3 -5 8 85.46 5.57
-3 -5 8 91.45 4.59
3 5 -8 87.51 5.74
-3 -5 7 11.01 1.96
3 5 -7 9.7 2.02
3 5 -7 9.52 2.57
-3 -5 7 10.33 1.59
3 5 -7 11.44 2.06
3 5 -6 15.05 2.54
3 5 -6 13.55 2.23
-3 -5 6 17.01 2.5
-3 -5 6 14.89 2.01
3 5 -6 14.97 2.83
-3 -5 6 8.59 1.68
3 5 -5 324.07 11.14
-3 -5 5 358.16 11.06
3 5 -5 340.21 13.45
-3 -5 5 304.62 11.19
-3 -5 5 329.03 11.51
3 5 -5 314.64 11.67
-3 -5 4 27.09 3.29
-3 -5 4 31.83 3.37
3 5 -4 22.69 2.69
3 5 -4 26.17 3.18
3 5 -3 1.68 1.07
3 5 -3 1.44 0.89
-3 -5 3 2.27 1.13
-3 -5 3 3.25 1.15
-3 -5 2 38.81 2.61
3 5 -2 41.23 3.65
-3 -5 2 31.07 3.48
-3 -5 2 44.59 4.62
3 5 -2 43.24 3.94
3 5 -1 3.61 1.21
3 5 -1 3.51 1.2
-3 -5 1 5.03 1.82
-3 -5 1 4.49 1.34
-3 -5 0 15.34 2.41
3 5 0 12.92 2.19
3 5 1 71.11 4.89
-3 -5 -1 72.76 5.48
3 5 2 41.95 3.8
-3 -5 -2 45.89 4.4
-3 -5 -3 1.97 0.78
3 5 3 4.3 1.28
-3 -5 -4 24.47 3.43
3 5 4 25.78 3.07
-3 -5 -5 4.31 1.51
3 5 5 6.92 1.67
3 5 6 41.42 3.95
-3 -5 -6 42.02 5.01
3 5 7 41.39 3.97
-3 -5 -7 38.85 4.99
-3 -5 -8 -0.58 1.08
-3 -5 -9 5.48 2.12
-3 -6 11 2.06 1.22
-3 -6 10 8.34 2
3 6 -10 3.3 1.86
3 6 -9 43.6 5.87
-3 -6 9 52.36 4.72
3 6 -9 53.16 4.81
-3 -6 8 0.95 0.81
-3 -6 8 1.78 0.62
3 6 -8 1.88 1.04
3 6 -8 2.59 1.75
3 6 -7 29.38 4.4
3 6 -7 31.15 3.55
-3 -6 7 24.17 3.13
-3 -6 7 22.48 2.38
3 6 -6 12.9 2.35
3 6 -6 18.95 2.77
-3 -6 6 15.32 2.45
3 6 -6 14.78 3.02
-3 -6 6 14.77 2.09
-3 -6 5 159.07 7.59
-3 -6 5 167.08 8.23
-3 -6 5 143.34 7.86
3 6 -5 146.6 7.95
3 6 -5 144.13 7.67
3 6 -4 363.17 12.49
-3 -6 4 346.51 14.11
3 6 -4 364.56 12.95
3 6 -3 153.17 7.74
-3 -6 3 148.29 9.26
-3 -6 3 165.52 8.62
3 6 -3 147.82 7.95
3 6 -2 23.65 3
-3 -6 2 23.37 1.54
-3 -6 2 22.14 3.7
-3 -6 2 26.41 3.36
-3 -6 1 17.73 2.79
3 6 -1 18.43 2.65
-3 -6 0 6.37 1.65
3 6 0 2.24 0.88
3 6 1 112.72 6.62
-3 -6 -1 101.92 6.94
-3 -6 -2 3.75 1.39
3 6 2 7.95 1.83
3 6 3 482.86 15.13
-3 -6 -3 512.39 17.36
3 6 4 106.6 6.68
-3 -6 -4 106.74 7.83
3 6 5 64.39 5.19
-3 -6 -5 72.2 6.66
-3 -6 -6 2.83 1.65
3 6 6 1.4 0.88
-3 -6 -7 1.2 1.44
-3 -6 -8 4.19 2.26
3 7 -9 4.53 1.67
-3 -7 9 2.04 1.11
3 7 -9 4.93 1.85
3 7 -8 89.11 8.51
-3 -7 8 103.57 6.9
3 7 -8 97.08 6.97
-3 -7 7 1.4 0.59
3 7 -7 1.09 0.77
-3 -7 7 1.61 1.07
3 7 -6 61.22 5.32
-3 -7 6 66.32 4.76
-3 -7 6 65.7 5.55
3 7 -5 8.46 1.92
-3 -7 5 12.8 2.51
-3 -7 5 9.8 2.14
-3 -7 5 9.39 1.9
3 7 -4 83.68 6.15
-3 -7 4 97.05 6.82
-3 -7 3 30.21 2.32
-3 -7 3 27.92 3.71
3 7 -3 31.62 3.66
-3 -7 2 63.46 5.67
3 7 -2 60.07 5.1
-3 -7 1 17.37 2.91
3 7 -1 15.27 2.62
3 7 0 0.25 0.67
-3 -7 0 2.12 1.16
3 7 1 117.67 7.25
-3 -7 -1 109.41 7.71
3 7 2 34.63 3.92
-3 -7 -2 29.15 4.03
3 7 3 109.63 7.18
-3 -7 -3 109.76 8.21
3 7 4 33.94 3.92
-3 -7 -4 34.21 4.74
-3 -7 -5 53.52 6.06
3 7 5 47.14 4.7
3 7 6 1.76 1.09
-3 -7 -6 3.45 1.83
3 8 -9 12.71 2.62
3 8 -9 8.52 2.83
3 8 -8 1.58 1.19
-3 -8 8 -0.1 1.11
3 8 -7 9.16 2.24
-3 -8 7 10.1 2.3
3 8 -6 0.43 0.68
-3 -8 6 0.93 0.9
-3 -8 6 0.63 0.6
-3 -8 6 0.31 0.47
3 8 -5 49.41 5.01
-3 -8 5 59.03 5.68
-3 -8 5 55.18 5.31
3 8 -4 13.89 2.64
-3 -8 4 14.95 2.92
3 8 -3 1.06 0.83
-3 -8 3 1.37 0.92
3 8 -2 5.25 1.8
-3 -8 2 4.24 1.46
-3 -8 1 6.06 1.98
3 8 -1 6.02 1.66
3 8 0 56.8 5.31
-3 -8 0 54.49 5.78
-3 -8 -1 7.29 2.23
3 8 1 5.82 1.87
-3 -8 -2 12.52 3.05
3 8 2 17.74 2.96
3 8 3 47.85 4.96
-3 -8 -3 46.23 5.62
-3 -8 -4 0.11 0.9
3 8 4 0.87 0.9
3 8 5 31.74 4.14
-3 -8 -5 46.68 5.95
3 9 -7 10.58 2.5
3 9 -6 13.25 2.75
-3 -9 6 14.93 3.06
3 9 -5 2.93 1.45
-3 -9 5 1.62 1.11
-3 -9 5 2.28 1.15
-3 -9 4 79.98 7.19
-3 -9 4 77.45 7.01
3 9 -4 62.45 5.98
3 9 -3 15.06 2.85
-3 -9 3 11.41 2.86
3 9 -2 7.11 2.1
-3 -9 2 7.5 2.31
3 9 -1 1.48 1.1
-3 -9 1 0.51 0.76
3 9 0 1.22 1.09
-3 -9 0 0.63 1.19
-3 -9 -1 2.82 1.61
3 9 1 4.99 1.7
-3 -9 -2 2.04 1.6
3 9 2 -0.61 1.06
3 9 3 4.51 1.72
-3 -9 -3 5.55 2.12
3 9 4 11.34 2.6
-3 -10 4 0.01 1.25
-3 -10 3 24.04 4.42
3 10 -2 -2.28 1.27
-3 -10 2 1.6 1.02
3 10 -1 2.03 1.03
-3 -10 1 1.24 0.91
-3 -10 0 0.04 0.92
3 10 0 -0.09 0.67
-3 -10 -1 -0.08 1.34
3 10 1 1.45 1.26
3 10 2 50.03 5.65
3 10 3 2.26 1.46
-3 -11 3 4.83 2.11
-3 -11 2 0.81 0.79
-3 -11 1 14.45 3.59
4 -11 2 7.14 1.87
4 -10 -3 11.05 2.93
4 -10 -2 37.06 5.1
4 -10 -1 26.87 4.3
4 -10 0 19.89 2.71
4 -10 0 23.72 3.85
4 -10 0 17.61 4.2
4 -10 1 1.61 0.83
4 -10 1 0.79 1.01
4 -10 2 10.17 2.15
4 -10 2 13.98 3.8
4 -10 3 -0.18 0.68
4 -10 3 -1.51 2.23
4 -10 4 3.57 1.59
4 -10 4 2.83 2.08
4 -10 5 9.46 3.69
4 -10 6 36.22 6.96
4 -9 -4 0.86 0.78
-4 9 4 0.93 0.99
4 -9 -3 15.9 3.24
-4 9 3 22.56 3.67
4 -9 -2 1.88 1.27
-4 9 2 0.94 0.93
4 -9 -1 0.54 0.53
4 -9 -1 1.4 1.13
-4 9 1 1.17 0.9
4 -9 0 0.47 0.62
4 -9 0 0.01 0.51
4 -9 0 1.34 1.6
-4 9 0 0.29 0.91
4 -9 1 56.67 7.3
4 -9 1 55.38 4.4
4 -9 1 60.36 5.31
4 -9 2 1.24 0.58
4 -9 2 -0.2 1.58
4 -9 3 12.79 2.3
4 -9 3 12.94 3.76
4 -9 4 1.07 0.92
4 -9 4 0.51 1.01
-4 9 -4 0.83 1.05
4 -9 5 0.69 0.52
4 -9 5 -0.82 1.98
-4 9 -5 -0.39 0.97
4 -9 6 -3.11 2.19
4 -9 6 -0.19 0.66
4 -9 7 -0.9 1.9
4 -8 -5 2.15 1.25
-4 8 5 0.9 1.04
4 -8 -4 1.14 1.38
-4 8 4 0.7 0.91
-4 8 3 53.72 5.25
4 -8 -3 53.41 5.4
4 -8 -2 12.72 1.67
4 -8 -2 10.64 2.22
-4 8 2 11.19 2.33
4 -8 -1 1.29 0.71
4 -8 -1 0.37 0.7
4 -8 -1 1.23 1.17
-4 8 1 -0.08 0.73
4 -8 0 1.44 0.75
4 -8 0 1.68 1.11
4 -8 0 1.06 1.28
-4 8 0 -0.44 0.59
4 -8 1 20.74 4.23
-4 8 -1 21.43 2.69
4 -8 1 19.8 2.43
4 -8 1 23.55 3.16
4 -8 2 98.88 9.44
-4 8 -2 96.54 5.31
4 -8 2 102.08 5.86
4 -8 2 105.46 6.07
4 -8 3 2.2 1.18
4 -8 3 1.4 0.86
-4 8 -3 -0.42 1.48
4 -8 4 6.33 1.73
4 -8 4 0.9 1.57
-4 8 -4 3.46 1.7
4 -8 5 1.03 0.72
4 -8 5 -0.77 2.17
-4 8 -5 0.85 1.26
-4 8 -6 53.53 7.68
4 -8 6 66.37 5.59
-4 8 -7 7.14 3.47
4 -8 7 4.99 1.64
4 -7 -7 5.81 1.94
-4 7 6 79.83 7
4 -7 -6 77.35 6.99
-4 7 5 -0.14 0.81
-4 7 4 0.14 0.87
-4 7 3 294.23 11.83
4 -7 -3 275.88 7.03
4 -7 -2 1.16 0.55
-4 7 2 2.69 1.14
4 -7 -1 8.5 2.48
-4 7 1 6.17 1.49
4 -7 -1 7.31 1.23
4 -7 0 35.35 5.05
-4 7 0 40.29 3.61
4 -7 0 38.14 3
4 -7 0 35.74 3.63
4 -7 1 155.13 10.96
-4 7 -1 142.49 6.52
4 -7 1 134.17 6.07
4 -7 1 145.34 6.97
4 -7 2 3.45 0.95
4 -7 2 3.88 1.29
4 -7 2 3.83 2.01
-4 7 -2 3.06 1.88
-4 7 -2 3.77 1
4 -7 2 2.38 0.89
-4 7 -3 37.66 2.71
4 -7 3 39.67 5.97
-4 7 -3 42.12 5.69
4 -7 3 34.56 3.34
4 -7 3 42.82 3.01
4 -7 4 4.33 1.3
4 -7 4 4.04 2
-4 7 -4 2.18 1.31
-4 7 -5 296 16.56
4 -7 5 288.38 11.15
-4 7 -6 0.91 1.44
4 -7 6 4.15 1.5
4 -7 7 27.15 3.64
-4 7 -7 27.19 5.39
-4 7 -8 2.35 1.48
4 -7 8 4.65 1.64
-4 6 8 25.48 4.09
-4 6 7 1.99 1.01
-4 6 6 16.98 2.94
-4 6 5 87.34 6.47
4 -6 -4 1.18 0.78
-4 6 4 0.36 0.48
4 -6 -4 0.48 0.18
4 -6 -3 12.48 1.99
4 -6 -3 13.49 1.19
-4 6 3 17.55 2.64
-4 6 2 239.87 9.43
4 -6 -2 227.16 6.19
4 -6 -1 6.35 1.09
4 -6 -1 5.95 2.21
-4 6 1 4.74 1.2
4 -6 0 3.92 1.09
4 -6 0 3.46 0.84
4 -6 0 2.38 1.19
-4 6 0 3.61 1.06
4 -6 1 29.88 2.98
4 -6 1 30.74 4.74
4 -6 1 29.35 2.58
-4 6 -1 32.04 2.76
-4 6 -1 23.72 3.86
4 -6 2 86.33 4.85
-4 6 -2 92.45 7.73
4 -6 2 87.86 8.04
4 -6 2 89.26 4.84
-4 6 -2 88.63 4.34
4 -6 3 19.62 4
-4 6 -3 19.43 1.81
4 -6 3 19.92 2.35
-4 6 -3 21.09 3.77
4 -6 3 20.29 1.88
4 -6 3 21.22 1.95
-4 6 -4 160.79 10.82
-4 6 -4 157.56 4.59
4 -6 4 165.13 7.45
-4 6 -5 177.73 12.01
4 -6 5 209.22 8.89
-4 6 -6 405.09 19.18
4 -6 6 454.96 14.33
-4 6 -7 4.55 2.06
4 -6 7 3.2 1.48
-4 6 -8 19.19 4.32
4 -6 8 14.34 2.71
-4 5 8 30.98 4.28
-4 5 7 0.94 0.99
-4 5 6 11.14 2.19
4 -5 -5 7.32 2.31
-4 5 5 9.21 2.11
4 -5 -4 127.83 5.72
4 -5 -4 118.06 8.17
-4 5 4 136.69 7.2
4 -5 -3 32.38 1.49
4 -5 -3 29.48 3.91
-4 5 3 33.24 3.31
4 -5 -3 33.13 2.93
4 -5 -2 30.27 3.81
4 -5 -2 30.12 4.28
4 -5 -2 29.83 1.8
-4 5 2 32.09 3.07
4 -5 -2 25.57 2.58
4 -5 -1 7.86 1.44
4 -5 -1 6.78 2.02
4 -5 -1 7.27 1.87
-4 5 1 7.82 1.43
4 -5 -1 5.82 1.32
4 -5 -1 7.93 1.07
4 -5 0 22.73 2.56
4 -5 0 21.98 2.44
4 -5 0 24.76 3.27
4 -5 0 23.72 2
4 -5 0 18.42 3.44
-4 5 0 18.99 2.09
4 -5 1 20.17 3.62
4 -5 1 22.93 2.14
4 -5 1 25.01 3.22
-4 5 -1 20.6 3.3
-4 5 -1 23.42 2.16
-4 5 -1 24.31 2.52
4 -5 1 26.75 2.66
4 -5 2 105.35 8.52
4 -5 2 97.94 5.12
-4 5 -2 105.56 7.61
4 -5 2 100.61 6.46
-4 5 -2 105.46 4.37
-4 5 -2 97.48 5.39
4 -5 2 100.78 4.9
4 -5 3 46.65 5.72
-4 5 -3 32.26 4.25
4 -5 3 40.79 3.26
-4 5 -3 40.85 2.4
4 -5 3 38.63 2.56
-4 5 -4 118.05 8.68
4 -5 4 135.69 6.39
-4 5 -4 128.65 3.86
4 -5 4 113.85 2.92
4 -5 5 108.68 6
-4 5 -5 99.25 8.17
4 -5 6 156.32 7.81
-4 5 -6 141.99 10.36
-4 5 -7 -0.5 1.2
4 -5 7 0.6 0.89
-4 5 -8 3.74 1.75
4 -5 8 5.09 1.68
4 -5 9 48.4 5.02
-4 5 -9 56.69 7.5
-4 4 9 3.77 1.69
-4 4 8 2.05 1.39
-4 4 7 154.63 8.58
4 -4 -6 64.14 2.51
-4 4 6 69.55 5.33
4 -4 -5 31.8 2.28
-4 4 5 29.94 3.34
4 -4 -4 4.1 0.89
-4 4 4 3.76 1.13
-4 4 3 18.19 2.3
4 -4 -3 19.15 1.9
-4 4 2 1 0.57
4 -4 -2 0.62 0.34
4 -4 -2 2.43 1.4
-4 4 2 0.49 0.74
4 -4 -2 1.43 0.36
4 -4 -2 1.03 0.52
-4 4 1 0.3 0.36
4 -4 -1 0.06 0.64
-4 4 1 -0.34 0.76
4 -4 -1 1.01 0.62
4 -4 -1 0.18 0.29
4 -4 0 75.75 4.59
4 -4 0 65.01 6.1
-4 4 0 64.82 5.2
4 -4 0 70.18 3.31
-4 4 0 72.82 3.66
-4 4 0 65.43 3.67
-4 4 -1 0.29 0.38
4 -4 1 0.5 0.99
4 -4 1 0.04 0.27
-4 4 -1 0.25 0.66
4 -4 1 0.26 0.67
4 -4 1 0.38 0.31
4 -4 2 63.66 6.17
4 -4 2 71.93 3.95
4 -4 2 72.36 4.79
-4 4 -2 69.78 4.08
4 -4 2 72.09 3.91
-4 4 -2 71.6 3.4
-4 4 -2 62.37 5.35
4 -4 3 57.29 3.76
-4 4 -3 57.86 5.33
-4 4 -3 57.89 3.93
4 -4 3 50.79 2.97
-4 4 -3 57.36 2.81
4 -4 4 3.77 0.61
-4 4 -4 4.07 0.68
-4 4 -4 3.61 1.37
4 -4 4 4.46 1.2
4 -4 5 64.66 4.53
-4 4 -5 67.97 2.48
-4 4 -6 20.82 1.14
4 -4 6 21.71 2.8
-4 4 -6 24.2 3.82
-4 4 -6 21.6 1.05
-4 4 -7 12.44 2.86
4 -4 7 14.29 2.43
-4 4 -8 23.23 4.19
4 -4 8 21.33 3.09
4 -4 9 28.31 3.82
-4 4 -9 25.61 4.66
-4 3 10 17.06 3.24
-4 3 9 32.66 4.14
-4 3 8 14.94 2.67
-4 3 7 112.2 6.86
4 -3 -6 206.2 4.4
-4 3 6 216.69 9.18
-4 3 5 57.68 4.36
4 -3 -5 60.63 2.8
-4 3 4 2.37 0.89
4 -3 -4 2.51 0.94
4 -3 -3 152.61 7.17
-4 3 3 138.28 9.29
4 -3 -3 142.45 6.62
-4 3 3 152.19 6.37
4 -3 -2 35.1 3.26
-4 3 2 32.69 4.4
4 -3 -2 34.13 1.71
4 -3 -2 32.35 2.94
-4 3 2 34.11 2.79
4 -3 -2 29.63 3.97
4 -3 -1 32.67 3.05
4 -3 -1 33.17 4.09
-4 3 1 35.12 4.49
4 -3 -1 32.66 1.9
4 -3 -1 36.15 2.96
-4 3 1 35.21 1.97
-4 3 1 36.54 2.79
4 -3 0 71.51 4.46
4 -3 0 72.09 6.09
4 -3 0 72.2 3.23
-4 3 0 63.44 4.54
4 -3 0 61.01 3.85
-4 3 0 67.63 3.11
-4 3 0 67.33 3.6
4 -3 1 41.84 3.34
4 -3 1 38.79 2.58
-4 3 -1 40.66 3.68
4 -3 1 38.9 2.95
-4 3 -1 42.81 2.7
4 -3 1 41.19 3.1
-4 3 -1 37.6 2.57
4 -3 1 42.39 4.72
4 -3 2 31.76 4.21
4 -3 2 29.37 2.42
-4 3 -2 28.27 3.21
4 -3 2 30.5 2.52
-4 3 -2 28.97 2.19
4 -3 3 3.65 0.84
-4 3 -3 4.68 0.92
-4 3 -3 5.17 1.13
-4 3 -3 2.04 0.99
4 -3 3 1.88 0.64
4 -3 4 28.38 2.74
-4 3 -4 27.57 3.41
-4 3 -4 23.46 1.96
4 -3 4 24.82 1.85
-4 3 -5 59.41 3.13
4 -3 5 59.95 4.26
-4 3 -5 62.75 5.51
4 -3 5 62.82 2.68
-4 3 -6 21.19 1.84
-4 3 -6 17.92 1.61
4 -3 6 18.96 2.55
-4 3 -6 19.4 3.17
-4 3 -7 0.06 0.79
-4 3 -7 0.07 0.24
4 -3 7 -0.47 0.64
-4 3 -8 3.92 1.84
4 -3 8 3.17 1.34
-4 3 -9 0.31 0.86
4 -3 9 0.75 0.94
-4 3 -10 1.78 1.57
4 -3 10 0.62 0.73
-4 2 11 50.28 5.6
-4 2 10 10.35 2.27
-4 2 9 26.46 3.62
-4 2 8 1.07 0.49
-4 2 7 87.02 5.71
4 -2 -6 11.44 0.93
4 -2 -6 13.8 0.96
-4 2 6 13.94 2.11
-4 2 5 4.39 1.18
4 -2 -4 173.55 7.93
-4 2 4 159.54 9.72
4 -2 -4 176.97 6.54
-4 2 4 175.37 6.95
-4 2 3 2.11 1.24
-4 2 3 0.95 0.54
4 -2 -3 1.16 0.48
4 -2 -3 0.98 0.65
4 -2 -2 413.87 12.02
4 -2 -2 422.78 14.63
4 -2 -2 404.03 9.25
-4 2 2 382.52 6.76
-4 2 2 398.22 10.3
4 -2 -1 85.57 6.31
4 -2 -1 85.58 5
4 -2 -1 83.78 3.49
-4 2 1 86.34 4.36
4 -2 -1 87.13 3.63
-4 2 1 81.22 2.92
-4 2 1 91.13 4.36
-4 2 0 47.61 3.11
4 -2 0 43.79 4.53
4 -2 0 54.97 2.92
4 -2 0 59.34 4.12
-4 2 0 54.7 3.6
-4 2 0 53.19 2.67
4 -2 0 52.61 2.78
4 -2 0 53.63 3.74
-4 2 -1 311.13 8.73
4 -2 1 329.55 13.05
4 -2 1 297.72 8.08
-4 2 -1 294.45 9.37
-4 2 -1 310.87 7.88
4 -2 1 310.08 9.35
4 -2 2 1.27 0.77
-4 2 -2 1.84 0.68
4 -2 2 0 0.23
-4 2 -2 0.32 0.4
4 -2 2 0.91 0.64
-4 2 -3 10.22 1.54
-4 2 -3 11.07 1.55
-4 2 -3 7.2 1.48
4 -2 3 11.03 1.46
4 -2 3 12.43 1.69
4 -2 4 91.29 4.98
-4 2 -4 86.87 4.55
-4 2 -4 81.49 5.32
-4 2 -4 84.98 4.74
-4 2 -4 81.71 4.02
4 -2 4 82.15 3.97
4 -2 5 206.43 8.28
-4 2 -5 212.37 6.9
4 -2 5 218.77 6.73
4 -2 6 40.65 3.78
-4 2 -6 46.18 4.49
-4 2 -6 46.15 3.12
-4 2 -7 8.1 1.33
-4 2 -7 10.51 2.47
4 -2 7 8.71 1.87
-4 2 -7 10.51 1.54
-4 2 -8 16.52 3.14
-4 2 -8 20.88 2.28
4 -2 8 20.48 3.04
-4 2 -9 0.39 1.01
4 -2 9 -1.23 1.14
-4 2 -10 2.02 1.26
4 -2 10 0.39 0.61
-4 1 11 8.96 2.39
-4 1 10 8.66 2.14
-4 1 9 4.08 1.33
-4 1 8 4.73 1.35
-4 1 7 122.71 3.12
-4 1 7 147.76 7.11
4 -1 -6 11.88 1.16
-4 1 6 15.72 2.21
-4 1 5 200.34 7.65
-4 1 4 5.21 1.62
-4 1 4 3.63 0.37
-4 1 4 3.92 1
4 -1 -4 4.52 0.75
-4 1 4 3.19 0.32
4 -1 -4 4.57 1.24
-4 1 3 105.79 2.77
4 -1 -3 98.77 2.64
-4 1 3 101.92 4.94
4 -1 -2 36.25 3.93
-4 1 2 31.16 3.89
-4 1 2 30.37 1.62
4 -1 -2 32.87 3.16
-4 1 2 33.11 2.73
4 -1 -1 5.75 1.39
4 -1 -1 0.95 0.54
-4 1 1 3.48 0.87
-4 1 1 3.94 1.48
-4 1 1 3.89 0.7
4 -1 -1 2.78 0.84
-4 1 1 3.92 0.67
4 -1 -1 3.59 1.14
-4 1 0 719.9 15.5
4 -1 0 721.77 19.71
-4 1 0 731.69 13.26
-4 1 0 700.69 13.45
4 -1 0 724.32 16.43
4 -1 0 704.11 14.73
4 -1 1 65.32 3.81
-4 1 -1 68.34 3.45
-4 1 -1 83.4 3.91
4 -1 1 68.85 5.6
4 -1 1 68.32 4.24
-4 1 -1 70.23 4.17
4 -1 2 339.48 9.75
-4 1 -2 342.87 9.29
-4 1 -2 351.62 9.76
4 -1 2 322.74 9.59
4 -1 3 0.02 0.32
4 -1 3 0.46 0.52
-4 1 -3 0.38 0.34
-4 1 -3 0.35 0.5
4 -1 4 34.97 3.19
-4 1 -4 35.16 3.08
-4 1 -4 33.03 2.89
4 -1 4 38.25 2.95
-4 1 -5 14.13 1.94
4 -1 5 11.11 1.66
4 -1 5 12.52 2.08
4 -1 6 3.91 1.09
4 -1 6 4.92 1.48
-4 1 -6 4.66 1.11
4 -1 7 74.73 5.75
-4 1 -7 64.81 4.26
-4 1 -7 72.17 4.75
4 -1 8 46.39 4.82
-4 1 -8 48.15 4.01
-4 1 -9 3.02 1.51
4 -1 9 1.45 1.23
-4 1 -10 9 2.47
4 -1 10 8.3 2.36
-4 0 12 9.69 2.45
-4 0 11 21.56 3.37
-4 0 10 0.31 0.81
4 0 -9 53.19 4.08
-4 0 9 62.22 4.98
-4 0 8 110.41 3.95
4 0 -8 97.58 5.05
-4 0 8 109.76 6.27
4 0 -7 783.6 13.56
-4 0 7 757.86 12.97
-4 0 7 793.24 18.03
-4 0 6 5.26 0.69
4 0 -6 6.11 0.97
-4 0 6 6.69 1.42
4 0 -6 7.2 1.02
4 0 -5 9.81 1.28
-4 0 5 9.05 2.2
4 0 -5 11.5 2.1
-4 0 5 12.26 1.76
4 0 -5 8.68 0.92
-4 0 5 9.44 0.93
-4 0 4 0.64 0.54
-4 0 4 1.5 0.66
4 0 -4 1.29 0.81
4 0 -4 2.38 0.96
-4 0 3 57.61 3.76
-4 0 3 54.22 5.01
-4 0 3 52.68 2.97
4 0 -3 46.72 4.03
-4 0 2 83.38 4.63
-4 0 2 80.1 3.75
-4 0 2 82.81 6.1
-4 0 1 15.49 1.97
4 0 -1 13.24 2.28
-4 0 1 11.25 2.35
-4 0 1 16.97 1.09
4 0 -1 15.35 2.2
4 0 0 2099.98 38.34
-4 0 0 2103.08 32.33
-4 0 0 2125.19 35.21
4 0 0 2099.97 35.15
-4 0 0 2143.22 34.77
4 0 0 2065.48 35.48
4 0 1 1517.53 27.87
4 0 1 1513.54 31.22
-4 0 -1 1589.98 25.68
-4 0 -1 1534.67 27.51
4 0 1 1506.19 27.59
4 0 2 379.59 11.49
-4 0 -2 388.31 11.23
4 0 2 387.64 11.06
4 0 3 70.55 4.78
-4 0 -3 63.26 3.98
-4 0 -3 60.54 4.17
4 0 3 62.9 4.06
4 0 4 55.13 4.42
-4 0 -4 66.05 4.26
-4 0 -4 63.67 4.35
4 0 4 63.64 4.22
-4 0 -5 7.22 1.53
4 0 5 6.77 1.41
4 0 5 4.7 1.34
-4 0 -6 9.77 1.81
4 0 6 9.97 1.79
4 0 6 10.08 2.11
-4 0 -7 8.49 1.87
-4 0 -7 7.64 1.54
4 0 7 8.37 2.19
-4 0 -8 16.8 2.59
4 0 8 10.9 2.42
-4 0 -9 4.29 1.35
4 0 9 8.75 2.5
4 0 10 21.69 3.87
-4 -1 11 7.76 1.86
-4 -1 10 1.82 0.8
-4 -1 9 28.73 2.37
4 1 -9 24.76 3.01
-4 -1 9 26.48 3.16
-4 -1 8 1.76 0.62
-4 -1 8 1.14 0.58
4 1 -8 2.42 0.64
4 1 -8 1.82 0.87
-4 -1 7 5.9 1.03
-4 -1 7 4.22 1.21
4 1 -7 3.95 0.79
4 1 -7 4.73 0.95
4 1 -6 85.69 4.2
4 1 -6 85.5 6.14
4 1 -6 81.49 4
-4 -1 6 88.04 3.72
-4 -1 6 89.91 5.02
4 1 -5 44.53 3.05
4 1 -5 40.05 4.05
4 1 -5 36.9 2.25
-4 -1 5 41.36 2.62
4 1 -5 47.84 4.44
-4 -1 5 41.72 3.31
-4 -1 4 6.21 1.32
4 1 -4 6.32 1.2
-4 -1 4 5.13 1.52
4 1 -4 4.97 1.38
-4 -1 3 27.18 2.71
-4 -1 3 26.13 3.33
4 1 -3 30.6 3.33
-4 -1 2 227.82 8.29
-4 -1 2 220.08 9.81
-4 -1 2 199.78 7.36
4 1 -1 188.79 8.28
-4 -1 1 190.1 7.26
-4 -1 1 196.53 9.04
-4 -1 1 206.26 8.03
-4 -1 1 210.15 8.02
4 1 0 66.2 4.86
-4 -1 0 63.77 4.07
-4 -1 0 58.8 4.16
4 1 0 65.16 4.49
4 1 1 1380.47 27.77
4 1 1 1409.55 28.44
-4 -1 -1 1369.29 26.45
4 1 1 1421.48 26.51
4 1 2 7.08 1.47
4 1 2 6.99 1.67
-4 -1 -2 7.36 1.43
-4 -1 -2 8.09 1.59
4 1 3 6.77 1.43
4 1 3 6.07 1.56
-4 -1 -3 6.75 1.43
-4 -1 -3 5.63 1.32
4 1 4 168.32 8.67
-4 -1 -4 167.41 7.8
4 1 4 159.51 7.44
4 1 5 359.64 13.54
-4 -1 -5 376.42 12.35
4 1 5 349.22 11.82
4 1 6 296.01 12.87
-4 -1 -6 291.9 11.24
4 1 6 292.1 10.92
4 1 7 119.95 8.45
-4 -1 -7 128.55 7.56
-4 -1 -8 21.95 3.24
4 1 8 18.27 3.48
4 1 9 42.94 5.58
-4 -1 -9 41.16 4.56
4 1 10 5.3 2.25
-4 -2 11 5.32 1.44
-4 -2 10 -0.42 0.49
-4 -2 9 19.57 2.57
-4 -2 9 17.57 2.03
4 2 -9 17.23 2.73
4 2 -9 19.91 2.05
4 2 -8 52.06 3.52
4 2 -8 44.11 4.03
-4 -2 8 47.08 3.2
-4 -2 8 53.33 4.11
4 2 -7 190.23 7.12
4 2 -7 185.52 7.78
-4 -2 7 205.3 6.86
-4 -2 7 207.47 7.97
4 2 -6 40.18 3.13
4 2 -6 33.35 2.87
-4 -2 6 39.21 2.89
-4 -2 6 36.35 3.14
-4 -2 5 17.74 2.24
4 2 -5 21.35 2.3
4 2 -5 19.74 1.96
-4 -2 5 21.12 2.17
4 2 -5 21.82 3.1
4 2 -4 303.34 9.4
-4 -2 4 315.75 10.15
-4 -2 4 288.04 11.83
4 2 -4 311.96 11.75
4 2 -3 92.55 5
-4 -2 3 85.34 5.89
-4 -2 3 84.43 5.06
-4 -2 3 82.07 2.93
4 2 -3 84.62 5.7
-4 -2 2 2.31 0.99
-4 -2 2 3.82 0.79
-4 -2 2 2.82 1.04
-4 -2 2 2.17 0.87
4 2 -2 2.9 0.97
-4 -2 1 11.67 2.01
-4 -2 1 12.95 2.03
4 2 0 451.07 12.58
-4 -2 0 438.78 13.1
4 2 1 267.61 9.67
-4 -2 -1 251.29 9.5
-4 -2 -1 248.98 9.52
4 2 1 254.05 9.49
4 2 2 31.24 3.31
-4 -2 -2 37.8 3.48
-4 -2 -2 31.81 3.29
4 2 2 36.16 3.48
4 2 3 16.21 2.43
-4 -2 -3 18.08 2.4
4 2 3 21.39 3.1
-4 -2 -3 21.5 2.8
4 2 4 502.33 16.89
-4 -2 -4 489.08 14.74
4 2 4 468.8 14.53
4 2 5 26.71 3.93
-4 -2 -5 29.15 3.53
-4 -2 -6 5.05 1.57
4 2 6 0.54 0.61
4 2 7 45.73 5.5
-4 -2 -7 45.89 4.74
-4 -2 -8 3.14 1.49
4 2 8 3.48 2.01
-4 -2 -9 3.14 1.23
4 2 9 3.63 1.97
-4 -2 -10 3.62 1.6
4 2 10 2.39 1.53
-4 -3 10 3.73 1.16
-4 -3 10 4.76 1.37
-4 -3 9 3.31 1.06
4 3 -9 1.53 0.75
-4 -3 9 2.91 0.98
4 3 -9 0.87 0.92
4 3 -8 26.11 2.74
4 3 -8 23.39 3.13
-4 -3 8 22.68 2.48
-4 -3 8 25.35 2.74
4 3 -7 12.06 1.88
-4 -3 7 8.45 1.53
4 3 -7 7.36 1.7
4 3 -6 12.86 1.9
-4 -3 6 11 1.76
4 3 -6 9.19 1.74
-4 -3 6 9.67 1.73
4 3 -5 0.56 0.71
-4 -3 5 1.18 0.76
4 3 -5 1.24 0.99
-4 -3 4 0.17 0.47
4 3 -4 0.52 0.47
-4 -3 4 1.12 0.64
-4 -3 4 1.16 0.47
4 3 -4 0.89 0.54
4 3 -3 70.66 4.55
-4 -3 3 74.4 5.32
-4 -3 3 78.58 5.19
-4 -3 3 66.44 3.91
-4 -3 3 77.64 5.25
4 3 -3 81.33 5.68
4 3 -2 63.36 4.37
-4 -3 2 69.9 4.94
-4 -3 2 63.31 4.21
-4 -3 2 68.78 4.95
4 3 -2 68.89 5.13
4 3 -1 148.58 6.94
-4 -3 1 142.79 6.72
-4 -3 1 138.03 7.22
4 3 -1 141.1 7.34
4 3 0 78.92 4.28
-4 -3 0 72.37 5.43
-4 -3 0 80.75 5.45
4 3 0 72.73 5.14
4 3 1 4.36 1.4
4 3 1 3.67 1.05
-4 -3 -1 2.27 0.95
-4 -3 -1 1.82 1.03
4 3 2 18.35 2.42
-4 -3 -2 20.78 2.89
-4 -3 -2 19.92 2.74
4 3 2 21.94 2.88
-4 -3 -3 103.69 6.56
-4 -3 -4 39.73 4.23
-4 -3 -5 445.52 15.39
-4 -3 -6 73.69 6.14
-4 -3 -7 4.83 1.75
4 3 7 0.77 1.01
-4 -3 -8 0.96 0.71
4 3 8 -0.59 1.24
-4 -3 -9 3.48 1.56
4 3 9 1.25 1.36
-4 -3 -10 6.21 2.21
-4 -4 10 0.2 0.78
4 4 -9 16.59 2.4
-4 -4 9 21.58 2.68
4 4 -9 20.14 3.36
-4 -4 9 18.03 2.32
-4 -4 8 2.64 1.07
4 4 -8 3.4 1.23
-4 -4 8 2.35 0.85
4 4 -8 2.01 1.08
4 4 -7 199.8 8.56
4 4 -7 181.62 9.18
-4 -4 7 199.5 8.3
-4 -4 7 194.05 7.93
4 4 -6 1.51 0.67
-4 -4 6 0.73 0.63
-4 -4 6 0.55 0.37
4 4 -6 0.06 0.66
4 4 -5 5.57 1.33
-4 -4 5 7.84 1.35
-4 -4 5 4.59 1.19
4 4 -4 18.78 2.86
-4 -4 4 16.5 2.41
4 4 -4 18.08 2.45
-4 -4 4 16.65 2.15
-4 -4 4 14.69 2.37
4 4 -3 45.13 3.86
-4 -4 3 40.56 3.77
-4 -4 3 42.63 3.78
-4 -4 3 44.5 4.24
4 4 -3 40.71 4.1
4 4 -2 8.46 1.81
-4 -4 2 10.47 1.81
-4 -4 2 7.48 1.72
-4 -4 2 10.17 2
4 4 -2 5.96 1.43
4 4 -1 2.91 1.21
4 4 -1 3.29 1.15
-4 -4 1 2.92 1.18
4 4 0 415.26 12.88
-4 -4 0 369.98 14.04
-4 -4 0 401.48 13.63
4 4 0 411.19 13.62
-4 -4 -1 13.95 2.45
4 4 1 16.13 2.42
4 4 1 17.69 1.74
-4 -4 -2 20.41 2.97
4 4 2 19.66 2.76
4 4 2 19.04 2.11
-4 -4 -3 1.64 1
4 4 3 2.62 1.08
4 4 4 144.92 7.75
-4 -4 -4 154.75 8.87
-4 -4 -5 1.38 1.11
4 4 5 1.05 0.42
-4 -4 -6 16.39 3.2
4 4 6 10.01 2.01
-4 -4 -7 17.57 3.42
4 4 7 13.92 2.47
4 4 8 22.03 3.14
-4 -4 -8 25.35 4.26
-4 -4 -9 40.12 5.45
-4 -5 10 14.19 2.45
4 5 -9 6.7 1.82
-4 -5 9 9.57 1.93
-4 -5 9 8.17 1.58
4 5 -9 8.84 2.56
4 5 -8 6.8 1.62
-4 -5 8 10.28 1.96
4 5 -8 5.92 1.9
-4 -5 8 7.06 1.49
4 5 -7 16.93 2.57
-4 -5 7 12.98 2.19
4 5 -7 17.8 3.08
-4 -5 7 12.91 2.09
4 5 -6 258.43 10.28
-4 -5 6 263.99 10.02
-4 -5 6 260.06 10.42
4 5 -5 2.93 1.11
-4 -5 5 4.42 1.3
-4 -5 5 2.68 0.98
4 5 -4 -0.8 0.85
-4 -5 4 1.22 0.86
-4 -5 4 1.9 0.8
-4 -5 4 2.54 1.14
-4 -5 4 0.83 0.51
4 5 -3 52.01 4.44
-4 -5 3 61.42 4.47
-4 -5 3 53.71 4.94
-4 -5 3 54.75 4.94
4 5 -2 101.51 6.29
-4 -5 2 110.52 5.37
-4 -5 2 93.97 6.93
-4 -5 2 99.88 6.81
4 5 -1 1.18 0.73
-4 -5 1 0.59 0.63
4 5 0 3.56 1.13
-4 -5 0 2.97 1.31
-4 -5 -1 7.15 1.95
4 5 1 5.75 1.47
-4 -5 -2 8.69 2.12
4 5 2 9.54 1.95
4 5 2 5.06 0.66
4 5 3 77.34 5.71
4 5 3 72.41 4
-4 -5 -3 87.93 6.79
-4 -5 -4 19.26 3.38
4 5 4 20.27 2.95
-4 -5 -5 -0.08 1.02
4 5 5 0.87 0.78
-4 -5 -6 0.67 1.26
4 5 6 0.74 0.79
-4 -5 -7 13.35 3.03
4 5 7 7.87 1.97
-4 -5 -8 11.79 3
-4 -6 10 42.57 4.4
4 6 -10 39.54 4.31
4 6 -9 0.13 1.09
-4 -6 9 1.03 0.88
4 6 -8 92.29 6.56
4 6 -8 98.46 8.19
-4 -6 8 94.41 6.48
-4 -6 8 88.26 5.26
4 6 -7 56.92 5.09
-4 -6 7 52.55 4.3
-4 -6 7 59.97 5.1
4 6 -6 0.65 0.81
-4 -6 6 1.48 1.09
-4 -6 6 0.02 0.71
4 6 -5 22.07 3.1
-4 -6 5 18.55 3.02
-4 -6 5 17.19 2.71
4 6 -4 166.44 8.57
-4 -6 4 147.84 7.51
-4 -6 4 141.27 8.72
-4 -6 4 153.49 8.89
4 6 -3 81.07 5.94
-4 -6 3 97.95 5.3
-4 -6 3 79.54 6.86
-4 -6 3 94.15 6.93
-4 -6 2 4.87 1.71
4 6 -2 6.93 1.74
-4 -6 2 4.5 1.55
4 6 -1 2.98 1.01
-4 -6 1 4.34 1.54
-4 -6 0 16.89 2.96
4 6 0 10.51 2.14
-4 -6 -1 0.19 0.45
4 6 1 1.53 1.1
-4 -6 -2 16.01 3.1
4 6 2 16.63 2.78
4 6 3 24.82 3.46
-4 -6 -3 31.47 4.38
4 6 4 226.1 10.68
-4 -6 -4 218.47 12.06
-4 -6 -5 5.3 2.09
4 6 5 4 1.45
-4 -6 -6 19.64 3.8
4 6 6 18.71 3.04
-4 -6 -7 0.88 1.68
4 7 -10 2.7 1.42
4 7 -9 14.71 2.86
-4 -7 9 19.11 3.12
4 7 -8 -1.12 0.71
-4 -7 8 1.32 1.15
4 7 -7 5.04 1.58
-4 -7 7 3.11 1.21
-4 -7 7 3.79 1.35
-4 -7 6 5.43 1.54
4 7 -6 2.54 0.96
-4 -7 6 4.26 1.56
4 7 -5 4.24 1.48
-4 -7 5 3.02 1.49
-4 -7 5 2.71 1.22
4 7 -4 11.67 2.31
-4 -7 4 15.06 2.93
4 7 -3 54.52 5.11
-4 -7 3 49.77 5.33
4 7 -2 30.35 3.82
-4 -7 2 23.65 3.73
4 7 -1 12.4 2.36
-4 -7 1 11.71 2.54
4 7 0 62.5 5.56
-4 -7 0 72.32 6.54
-4 -7 -1 22 3.62
4 7 1 22.02 3.34
4 7 2 0.98 0.9
-4 -7 -2 0.45 0.8
-4 -7 -3 4.9 1.85
4 7 3 0.47 1
-4 -7 -4 2.9 1.44
4 7 4 2.8 1.7
-4 -7 -5 3.32 1.93
4 7 5 1.2 0.83
-4 -7 -6 8.07 2.31
4 7 6 10.01 2.38
4 8 -8 46.79 5.24
4 8 -7 0.26 0.84
-4 -8 7 2.23 1.33
4 8 -6 67.2 6.14
-4 -8 6 56.8 5.21
-4 -8 6 70.89 6.5
4 8 -5 4.72 1.64
-4 -8 5 5.25 2.02
-4 -8 5 7.58 2.05
-4 -8 5 8 2.34
4 8 -4 17.88 3.19
-4 -8 4 16.02 3.25
4 8 -3 12.69 2.68
-4 -8 3 8.84 2.43
4 8 -2 6.56 1.98
-4 -8 2 7.06 2.13
4 8 -1 77.19 6.58
-4 -8 1 79.67 7.24
-4 -8 0 4.35 1.93
4 8 0 4.84 1.82
-4 -8 -1 1.1 1.33
4 8 1 1.6 1.58
-4 -8 -2 1.28 0.87
4 8 2 0.8 1.17
-4 -8 -3 14.51 3.47
4 8 3 6.75 2.02
-4 -8 -4 0.4 0.79
4 8 4 -0.25 0.98
4 8 5 3.99 1.62
-4 -9 6 2.3 1.37
4 9 -5 1.36 0.93
-4 -9 5 3.31 1.41
-4 -9 5 2.13 1.37
-4 -9 5 2.56 1.93
4 9 -4 6 2.18
-4 -9 4 5.39 2.13
4 9 -3 0.82 0.67
-4 -9 3 1.2 1.41
4 9 -2 0.98 1.04
-4 -9 2 -0.54 0.75
4 9 -1 0.37 1.11
-4 -9 1 1.25 1.14
4 9 0 80.5 7.16
-4 -9 0 79.62 7.79
-4 -9 -1 3.49 1.56
4 9 1 9.13 2.47
-4 -9 -2 7.11 2.47
4 9 2 3.71 1.77
4 9 3 0.06 0.61
4 9 4 2.97 1.49
-4 -10 4 15.45 3.61
-4 -10 3 14.12 3.46
-4 -10 2 0.99 1.1
-4 -10 1 9.07 2.88
-4 -10 0 2.6 1.52
5 -10 -2 -1.29 0.97
-5 10 2 1.16 0.7
5 -10 0 3.98 2.04
5 -10 1 3 2.41
5 -10 2 1.8 1.27
5 -10 2 2.17 0.89
5 -10 3 26.22 5.81
5 -10 3 29.38 3.78
5 -10 4 20.68 5.43
5 -10 4 28.05 3.78
5 -9 -4 2.05 0.78
5 -9 -3 0.61 1.06
-5 9 3 0.27 0.78
5 -9 -2 5.78 1.95
-5 9 2 5.62 1.82
5 -9 -1 1.69 0.68
5 -9 -1 3.09 1.67
-5 9 1 2.23 1.27
5 -9 0 4 1.64
5 -9 0 3.11 2.47
-5 9 0 4.45 1.43
5 -9 0 2.54 0.91
5 -9 1 3.42 2.25
5 -9 1 3 0.93
5 -9 2 58.37 8.07
5 -9 2 58.62 4.75
5 -9 3 -0.15 1.26
5 -9 3 3.29 1.27
5 -9 4 1.71 1.89
-5 9 -4 -1.42 1.45
5 -9 4 1.31 0.99
5 -9 5 1.27 1.11
5 -9 5 4.55 1.61
5 -8 -5 0.38 0.83
-5 8 5 2.03 1.28
-5 8 4 0.56 0.73
-5 8 3 0.06 1.12
-5 8 2 55.58 5.27
5 -8 -1 16.29 2.87
5 -8 -1 15.48 3.89
5 -8 -1 15.22 1.92
-5 8 1 16.91 2.77
5 -8 0 3.73 1.36
5 -8 0 8.03 3
-5 8 0 4.11 1.28
5 -8 0 6 1.33
5 -8 1 -0.29 0.77
5 -8 1 -0.53 1.26
-5 8 -1 0.26 0.64
5 -8 1 0.02 0.61
-5 8 -2 2.55 0.92
5 -8 2 1.88 0.71
5 -8 3 8.94 3.39
-5 8 -3 4.47 2.2
5 -8 3 3.74 1.34
5 -8 4 1.44 1.2
-5 8 -4 -0.69 1.91
5 -8 4 -0.11 0.84
5 -8 5 3.06 2.18
-5 8 -5 2.15 1.55
5 -8 5 2.98 1.21
5 -8 6 26.63 5.94
-5 8 -6 25.95 5.7
5 -8 6 24.33 3.48
-5 7 6 0.49 0.93
-5 7 5 15.12 2.96
-5 7 4 13.71 2.79
-5 7 3 19.4 3.07
5 -7 -2 28.68 2.19
-5 7 2 29.1 3.51
5 -7 -1 1.35 1.36
-5 7 1 0.35 0.48
5 -7 -1 0.74 0.51
5 -7 0 27.76 4.92
5 -7 0 31.03 2.75
-5 7 0 28.59 3.16
5 -7 1 6.32 2.5
-5 7 -1 8.43 1.67
5 -7 1 7.94 1.56
5 -7 2 44.08 6.52
-5 7 -2 41.71 5.67
5 -7 2 41.16 3.57
-5 7 -2 41.65 3.36
5 -7 3 31.14 5.67
-5 7 -3 19.75 2.12
5 -7 3 24.98 2.96
-5 7 -3 24.61 4.44
5 -7 3 22.43 2.34
5 -7 4 6.19 3.16
-5 7 -4 10.45 3.04
5 -7 4 10.81 2.12
5 -7 5 85.69 9.94
-5 7 -5 73.94 8.41
5 -7 5 71.79 5.53
5 -7 6 28.02 3.66
-5 7 -6 27.57 5.37
-5 7 -7 25.33 5.27
5 -7 7 23.03 3.45
-5 6 7 0.01 0.56
-5 6 6 16.33 3.03
-5 6 5 24.38 3.52
-5 6 4 64.42 5.48
5 -6 -3 102.24 3.14
-5 6 3 116.34 6.97
5 -6 -2 508.24 20.72
5 -6 -2 509.06 10.42
-5 6 2 512.19 14.97
5 -6 -1 43.56 5.68
5 -6 -1 38.87 2.69
-5 6 1 32.02 3.26
5 -6 0 1.36 0.85
-5 6 0 3.8 1.16
5 -6 1 13.76 3.3
5 -6 1 15.11 2.38
5 -6 1 16.73 2.05
-5 6 -1 17.1 3.34
-5 6 -1 14.27 1.94
5 -6 2 204.86 13.4
5 -6 2 189.69 8.48
-5 6 -2 200.68 11.84
5 -6 2 196.83 7.81
-5 6 -2 219.99 7.46
5 -6 2 185.66 7.69
5 -6 3 103.12 9.69
-5 6 -3 97.64 8.47
5 -6 3 114.7 6.06
-5 6 -3 107.02 4.69
5 -6 3 94.34 4.86
5 -6 4 2.52 1.32
-5 6 -4 1.98 1.65
-5 6 -4 2.42 0.7
5 -6 4 2.1 1.03
5 -6 5 0.46 1.32
-5 6 -5 -0.67 1.33
5 -6 5 0.35 0.62
-5 6 -6 5.36 2.03
5 -6 6 5.2 1.66
-5 6 -7 0.27 0.87
5 -6 7 -0.11 0.76
-5 6 -8 -1.48 1.42
5 -6 8 2.66 1.63
-5 5 8 -0.03 0.9
-5 5 7 29.86 4.02
-5 5 6 21.5 3.28
-5 5 5 30.18 3.64
5 -5 -4 39.41 4.45
-5 5 4 44.29 4.18
5 -5 -4 39.11 3.28
5 -5 -3 13.75 1.92
5 -5 -3 12.3 0.83
-5 5 3 11.39 2.04
5 -5 -2 1.55 0.54
5 -5 -2 1.31 0.65
5 -5 -2 2.08 1.1
5 -5 -2 1.24 0.32
-5 5 2 3.56 1.16
5 -5 -1 92.18 7.99
5 -5 -1 91.81 3.95
5 -5 -1 79.31 5.79
-5 5 1 89.17 5.12
-5 5 0 0.44 0.57
5 -5 0 0.98 1.02
5 -5 0 1.01 1.01
-5 5 0 0.19 0.8
5 -5 0 -0.22 0.65
5 -5 0 0.63 0.42
5 -5 1 2.81 1.17
-5 5 -1 3.5 0.94
-5 5 -1 2.66 0.93
5 -5 1 2.89 1.57
-5 5 -1 1.31 1.21
5 -5 1 1.88 0.95
5 -5 1 2.79 0.85
5 -5 1 3.2 0.9
5 -5 2 93.93 8.7
5 -5 2 100.08 5.2
-5 5 -2 93.55 7.41
5 -5 2 96.19 5.32
-5 5 -2 105.24 4.77
5 -5 3 133.87 10.6
5 -5 3 125.5 6.22
-5 5 -3 114.61 8.55
-5 5 -3 128.97 4.99
5 -5 3 123.72 5.58
5 -5 4 110.29 9.88
5 -5 4 97.21 5.71
-5 5 -4 84.09 7.57
-5 5 -4 98.45 3.95
5 -5 4 86.8 3.79
5 -5 5 78.29 5.43
-5 5 -5 77.68 7.54
-5 5 -5 78.21 3.09
-5 5 -6 0.26 1.28
5 -5 6 1.41 0.92
-5 5 -7 -0.27 1.37
5 -5 7 -0.24 0.71
-5 5 -8 0.66 1.23
5 -5 8 2.11 1.11
-5 4 9 3.29 1.66
-5 4 8 11.21 2.47
-5 4 7 9.66 2.18
-5 4 6 105.15 6.83
5 -4 -5 12.63 1.61
-5 4 5 13.83 2.41
5 -4 -4 1.12 0.59
-5 4 4 -0.23 0.45
-5 4 3 71.4 4.78
5 -4 -2 37.85 5.01
5 -4 -2 38.02 2.19
-5 4 2 34.99 3.14
5 -4 -1 23.49 2.99
5 -4 -1 22.14 3.75
5 -4 -1 24.22 1.92
-5 4 1 24.71 2
-5 4 1 23.21 2.51
5 -4 0 302.73 14.64
5 -4 0 306.07 11.25
5 -4 0 326.35 8.66
-5 4 0 325.32 12.49
-5 4 0 330.5 9.67
-5 4 -1 2.94 0.77
5 -4 1 1.78 1.07
-5 4 -1 3.33 0.92
-5 4 -1 2.72 1.08
5 -4 1 0.55 0.62
5 -4 1 2.54 0.73
5 -4 1 2.49 0.85
5 -4 2 696.76 23.72
5 -4 2 684.86 15.34
-5 4 -2 632.43 19.5
-5 4 -2 647.66 15.33
5 -4 2 669.96 16.04
-5 4 -2 703.62 14.44
5 -4 3 8.25 2.44
-5 4 -3 8.77 2.18
-5 4 -3 13.6 1.58
5 -4 3 12.49 1.91
5 -4 3 9.88 1.56
-5 4 -4 14.89 2.92
5 -4 4 15.92 1.7
5 -4 4 16.83 2.3
-5 4 -4 14.47 1.57
5 -4 5 0.67 0.38
-5 4 -5 -0.21 0.6
5 -4 5 -0.34 0.65
-5 4 -6 12.86 2.9
5 -4 6 14.92 2.39
-5 4 -6 17.35 1.48
5 -4 7 80.21 6.02
-5 4 -7 65.48 7.03
-5 4 -8 -1.01 0.9
5 -4 8 1.61 0.97
-5 4 -9 1.75 1.11
5 -4 9 1.65 1.35
-5 3 9 0.09 0.94
-5 3 8 49.37 4.91
-5 3 7 -0.13 0.72
5 -3 -6 0.13 0.2
5 -3 -6 0.77 0.77
-5 3 6 0.75 0.69
-5 3 5 3.08 1.24
5 -3 -5 3.45 0.87
5 -3 -4 28.55 2.82
-5 3 4 33.03 3.22
5 -3 -3 130.77 5.81
-5 3 3 130.9 6.32
-5 3 2 1.8 0.43
5 -3 -2 1.03 0.84
-5 3 2 0.78 0.46
5 -3 -2 0.78 0.53
5 -3 -2 1.1 0.45
5 -3 -1 17.13 1.73
5 -3 -1 18.55 3.33
5 -3 -1 15.72 1.82
-5 3 1 14.55 1.39
5 -3 -1 15.17 2.43
-5 3 1 15.75 1.99
-5 3 0 5.33 0.93
5 -3 0 5.48 1.91
-5 3 0 3.05 0.98
5 -3 0 5.58 1.42
-5 3 0 4.12 1.01
5 -3 0 7.39 1.21
5 -3 0 5.9 1.13
5 -3 0 5.76 1.38
5 -3 1 63.63 6.44
5 -3 1 55.6 3.51
-5 3 -1 52.51 4.44
5 -3 1 54.76 4.17
-5 3 -1 59.45 3.72
-5 3 -2 16.99 1.97
5 -3 2 14.09 1.89
5 -3 2 21.83 3.83
-5 3 -2 18.58 2.08
-5 3 -2 13.26 2.33
5 -3 2 16.21 2.19
5 -3 3 2.65 0.87
-5 3 -3 1.25 0.32
5 -3 3 1.96 1.32
5 -3 3 1.94 0.82
5 -3 4 10.87 1.58
-5 3 -4 11.6 1.63
-5 3 -4 9.14 2.09
5 -3 4 11.42 1.87
5 -3 5 0.42 0.43
-5 3 -5 0.17 0.72
-5 3 -5 0.74 0.41
5 -3 5 0.29 0.52
-5 3 -6 6.1 1.83
5 -3 6 8.88 1.87
-5 3 -6 11.57 1.63
-5 3 -7 55.54 3.57
5 -3 7 50.09 4.86
-5 3 -7 53.08 5.96
-5 3 -8 6.07 2.17
5 -3 8 6.77 1.93
-5 3 -9 2.06 1.49
5 -3 9 0.14 0.77
-5 2 10 12.54 2.77
-5 2 9 138.78 8.55
-5 2 8 18.59 2.89
5 -2 -7 0.15 0.15
-5 2 7 0.96 0.75
-5 2 6 1.12 0.73
5 -2 -6 0.72 0.61
-5 2 5 2.95 1.04
5 -2 -5 4.22 0.96
5 -2 -4 89.49 3.73
-5 2 4 100.73 5.52
5 -2 -3 84.75 3.19
-5 2 3 86.91 2.32
-5 2 3 90.81 5.08
5 -2 -2 41.49 4.88
-5 2 2 43.21 5.4
5 -2 -2 37.61 3.88
-5 2 2 41.58 2.02
5 -2 -2 38.19 2.01
5 -2 -2 46.5 4.19
-5 2 2 41.14 3.36
5 -2 -1 -0.24 0.7
-5 2 1 0.04 0.57
-5 2 1 0.75 0.51
5 -2 -1 -0.04 0.3
-5 2 1 0.77 0.65
5 -2 -1 0.18 0.4
5 -2 -1 0.78 0.36
-5 2 1 0.53 0.33
-5 2 0 166.03 6.78
5 -2 0 163.49 9.79
5 -2 0 162.12 6.39
-5 2 0 149.45 6.51
-5 2 0 166.88 5.53
5 -2 0 162.11 7.61
-5 2 -1 45.14 3.49
5 -2 1 46.2 5.37
5 -2 1 44.44 3.32
-5 2 -1 41.13 3.44
5 -2 1 42.96 3.79
-5 2 -2 64.6 4.22
5 -2 2 62.61 6.28
5 -2 2 57.91 4
-5 2 -2 62.05 4.51
-5 2 -2 64.32 3.93
5 -2 2 61.7 4.33
-5 2 -3 19.2 2.3
5 -2 3 19.93 2.48
5 -2 3 22.38 3.85
-5 2 -3 20.16 2.66
-5 2 -3 20.54 2.3
5 -2 3 20.18 2.37
-5 2 -4 272.33 9.52
5 -2 4 264.47 9.87
-5 2 -4 257.61 10.55
-5 2 -4 269.55 8.63
5 -2 4 261.19 8.69
5 -2 5 121.2 6.85
-5 2 -5 129.45 6.48
-5 2 -5 102.38 6.79
-5 2 -5 118.9 5.66
5 -2 5 117.5 5.62
5 -2 6 2.04 0.92
-5 2 -6 3.06 1.38
5 -2 6 2.96 1.24
-5 2 -6 1.78 0.72
-5 2 -7 1.35 1.38
5 -2 7 1.5 1.09
-5 2 -7 2.09 0.8
-5 2 -8 1.59 1.28
5 -2 8 -0.09 0.77
-5 2 -9 4.31 1.91
5 -2 9 4.46 1.73
-5 1 11 31.62 4.36
-5 1 10 5.17 1.85
-5 1 9 2.2 1.18
-5 1 8 9.13 2.09
5 -1 -7 32.19 2.12
5 -1 -7 32.26 2.14
-5 1 7 33.91 3.58
5 -1 -6 23.93 2.12
5 -1 -6 23.03 1.47
-5 1 6 23.01 2.78
-5 1 5 2.43 0.97
-5 1 4 2.93 0.89
-5 1 4 3.06 0.45
-5 1 3 3.9 1.53
5 -1 -3 2.5 1.09
-5 1 3 2.29 0.76
-5 1 3 2.98 0.52
5 -1 -3 2.2 0.98
5 -1 -2 6.17 1.94
-5 1 2 6.12 2.01
-5 1 2 3.55 0.67
5 -1 -2 2.49 1.09
-5 1 2 6.08 1.32
-5 1 1 25.67 2.75
5 -1 -1 29.81 2.79
5 -1 -1 18.82 3.13
-5 1 1 22.21 3.65
-5 1 1 23.84 1.89
-5 1 1 23.79 1.93
5 -1 -1 22.17 2.85
-5 1 0 152.23 6.86
5 -1 0 146.39 9.02
5 -1 0 152.12 6.85
-5 1 0 149.17 5.43
-5 1 0 153.63 5.61
5 -1 0 146.23 7.44
-5 1 -1 367.14 11.36
5 -1 1 364.34 14.99
5 -1 1 346.57 11.07
-5 1 -1 360.14 9.91
5 -1 1 378.05 12.01
5 -1 2 295.03 13.47
5 -1 2 282.67 10.12
-5 1 -2 288.79 10.32
-5 1 -2 313.2 9.32
-5 1 -2 268.99 8.95
-5 1 -2 319.15 10.16
5 -1 2 304.09 10.39
5 -1 3 79.67 5.33
-5 1 -3 69.43 4.42
-5 1 -3 69.92 4.51
-5 1 -3 83.72 5.07
5 -1 3 74.65 4.75
5 -1 4 8.5 1.62
-5 1 -4 5.92 1.33
5 -1 4 9.02 1.85
-5 1 -4 7.42 1.52
5 -1 5 3.65 1.35
-5 1 -5 2.43 0.95
5 -1 5 2.37 0.8
5 -1 6 11.54 1.89
5 -1 6 11.41 2.35
-5 1 -6 12.83 2.07
-5 1 -7 9.21 2.3
5 -1 7 9.7 2.37
-5 1 -7 6.11 1.61
-5 1 -8 7.47 2.23
5 -1 8 3.25 1.41
-5 1 -8 3.76 1.28
-5 1 -9 20.5 3.66
5 -1 9 14.65 3.28
-5 0 11 2.58 1.18
-5 0 10 8.43 2.07
-5 0 9 29.88 3.61
-5 0 8 103.77 6.37
5 0 -7 42.19 2.83
5 0 -7 32.44 2.23
-5 0 7 37.5 1.9
-5 0 7 43.25 3.98
5 0 -6 23.8 2.28
-5 0 6 24.25 1.52
-5 0 6 18.62 2.51
5 0 -5 62.33 3.99
-5 0 5 57.25 3.24
-5 0 5 61.23 2.81
-5 0 5 63.9 4.49
-5 0 4 16.74 1.74
-5 0 4 21.63 2.56
-5 0 3 171.3 7.45
-5 0 3 172.21 10.19
-5 0 3 164.04 5.85
5 0 -3 159.45 8.4
-5 0 2 122.48 6.27
-5 0 2 130.77 8.79
5 0 -2 113.73 6.87
-5 0 2 115.52 4.91
-5 0 1 2.29 0.97
5 0 -1 1.36 0.94
-5 0 1 3.68 1.65
-5 0 1 2.74 0.52
-5 0 1 3.01 0.86
5 0 -1 3.07 1.14
5 0 0 655.3 17.02
5 0 0 661.97 19.6
-5 0 0 718.26 17.5
-5 0 0 634.84 12.31
-5 0 0 733.7 17.24
5 0 0 690.9 17.82
5 0 1 591.44 16.41
5 0 1 597.22 19.02
-5 0 -1 618.06 14.03
-5 0 -1 608.68 15.78
5 0 1 581.31 15.97
5 0 2 86.52 5.86
5 0 2 84.54 6.86
-5 0 -2 90.75 4.91
-5 0 -2 87.4 5.48
5 0 2 89.31 5.56
5 0 3 36.87 3.93
-5 0 -3 32.2 3.4
5 0 3 35.3 3.46
5 0 4 9.79 1.86
5 0 4 12.74 2.49
-5 0 -4 12.42 2.16
5 0 5 27.92 3.72
-5 0 -5 34.94 3.67
5 0 5 33.58 3.55
5 0 6 3.95 1.28
5 0 6 2.32 1.51
-5 0 -6 4.4 1.38
5 0 7 37.13 4.79
-5 0 -7 35.79 3.92
5 0 8 281.2 14.07
-5 0 -8 263.95 11.51
5 0 9 58.58 6.74
-5 -1 11 9.5 2.21
-5 -1 10 14.25 2.54
-5 -1 9 109.04 6.8
5 1 -8 11.07 1.54
-5 -1 8 9.29 1.91
-5 -1 8 11.38 1.39
5 1 -7 64.41 3.95
5 1 -7 55.17 3.09
-5 -1 7 63 3.21
-5 -1 7 60.09 4.57
5 1 -6 60.37 3.98
-5 -1 6 61.96 3.32
-5 -1 6 67.45 4.72
5 1 -5 -0.13 0.36
-5 -1 5 0.23 0.4
-5 -1 4 6.54 1.44
5 1 -4 5.81 1.3
-5 -1 4 4.5 1.64
-5 -1 3 74.02 4.99
-5 -1 3 73.1 4.54
-5 -1 3 74.24 6.37
5 1 -3 74.57 5.82
-5 -1 2 4.21 1.25
-5 -1 2 3.66 1.49
5 1 -2 7.35 1.61
5 1 -1 178.65 8.93
-5 -1 1 181.03 9.81
-5 -1 1 180.61 8.22
-5 -1 1 185.84 8.24
5 1 -1 167.44 8.44
5 1 0 35.72 3.94
-5 -1 0 34.26 3.11
-5 -1 0 32.47 3.45
5 1 0 33.47 3.58
5 1 1 13.85 2.29
5 1 1 13.22 2.53
-5 -1 -1 13.48 2.01
-5 -1 -1 10.18 1.88
-5 -1 -2 25.42 2.74
5 1 2 21.6 3.3
5 1 2 22.76 3.19
-5 -1 -2 28.47 3.26
5 1 2 29.73 3.29
5 1 3 26.99 3.65
5 1 3 21.22 2.75
-5 -1 -3 19.32 2.72
5 1 4 87.67 6.84
-5 -1 -4 81.28 5.8
5 1 4 77.95 5.62
5 1 5 15.25 2.91
-5 -1 -5 10.64 2.24
-5 -1 -6 9.13 2.07
5 1 6 5.45 1.76
-5 -1 -7 2.86 0.96
5 1 7 3.26 1.53
-5 -1 -8 7.33 2.05
5 1 8 11.53 3.02
5 1 9 38.77 5.85
-5 -1 -9 42.47 4.94
-5 -2 11 37.63 4.29
-5 -2 10 9.89 2.2
-5 -2 9 20.33 2.8
5 2 -8 100.4 5.39
-5 -2 8 99.89 4.76
-5 -2 8 98.03 6
5 2 -7 3.55 1.06
-5 -2 7 5.41 1.12
5 2 -7 2.2 0.72
5 2 -6 21.29 2.51
-5 -2 6 22.98 2.37
-5 -2 6 19.42 2.6
-5 -2 5 62.84 4.68
5 2 -5 68.3 4.6
5 2 -4 15.34 2.23
-5 -2 4 8.74 2.27
-5 -2 4 16.54 2.44
5 2 -3 320.15 10.8
-5 -2 3 298.73 10.92
-5 -2 3 300.88 12.81
-5 -2 2 116.09 6.53
-5 -2 2 123.14 8.02
-5 -2 2 129.95 7.14
-5 -2 2 120.38 4.62
-5 -2 2 125.54 7
5 2 -2 115.79 7.24
5 2 -1 28.19 3.3
-5 -2 1 20 2.67
-5 -2 1 21.39 3.15
-5 -2 1 21.54 2.87
5 2 -1 24.82 3.22
5 2 0 19.03 2.82
-5 -2 0 18.28 2.57
5 2 0 16.52 2.52
-5 -2 0 14.9 2.4
5 2 1 197.33 9.31
-5 -2 -1 210.7 8.9
-5 -2 -1 187.51 9.04
5 2 1 193.61 9.03
5 2 2 354.61 13.44
-5 -2 -2 358.35 12.85
5 2 2 341.67 12.37
5 2 3 228.86 11.05
-5 -2 -3 209.88 9.87
5 2 4 362.75 15.38
-5 -2 -4 367.12 13.64
-5 -2 -5 4.36 1.47
5 2 5 1.89 0.94
-5 -2 -6 -0.37 0.64
5 2 6 -0.41 0.91
-5 -2 -7 12.84 2.75
5 2 7 10.49 2.76
-5 -2 -8 19.74 3.49
5 2 8 24.55 4.46
-5 -2 -9 26.45 4.13
5 2 9 31.95 5.39
-5 -3 10 64.57 5.14
5 3 -9 40.67 3.67
-5 -3 9 39.3 3.34
-5 -3 9 37.99 3.85
5 3 -8 23.41 2.82
-5 -3 8 25.51 2.67
-5 -3 8 22.43 2.82
5 3 -7 3.99 1.15
-5 -3 7 6.29 1.39
-5 -3 7 5.18 1.42
5 3 -6 0.42 0.53
-5 -3 6 0.52 0.56
-5 -3 6 0.9 0.86
5 3 -5 25.29 2.99
-5 -3 5 17.88 3.31
-5 -3 5 19.33 2.69
5 3 -4 28.06 3.11
-5 -3 4 30.84 3.44
-5 -3 4 23.85 3.59
-5 -3 4 24.22 1.73
5 3 -3 67.97 4.98
-5 -3 3 71.3 5.97
-5 -3 3 61.68 5.04
-5 -3 3 64.1 3.63
-5 -3 3 66.51 5.29
5 3 -2 55.53 4.58
-5 -3 2 60.31 5.35
-5 -3 2 59.42 4.09
-5 -3 2 54.4 4.8
5 3 -1 85.1 5.77
-5 -3 1 84.61 6.12
-5 -3 1 80.08 5.88
5 3 0 5.36 1.39
-5 -3 0 4.97 1.47
-5 -3 0 4.96 1.56
5 3 1 105.54 6.17
-5 -3 -1 93 6.49
5 3 2 5.38 1.58
-5 -3 -2 1.72 1.17
5 3 3 39.75 4.3
-5 -3 -3 40.93 4.48
-5 -3 -4 124.73 8.08
-5 -3 -5 10.38 2.49
-5 -3 -6 -0.48 0.69
-5 -3 -7 0.92 0.87
-5 -3 -8 29.03 4.48
-5 -3 -9 4.2 1.81
-5 -4 10 15.09 2.4
-5 -4 9 4.82 1.34
5 4 -9 7.33 1.61
-5 -4 9 5.86 1.56
5 4 -8 20.47 2.88
-5 -4 8 26.85 3.01
-5 -4 8 29.86 3.33
5 4 -7 56.76 4.71
-5 -4 7 60.22 4.63
-5 -4 7 56.2 4.6
5 4 -6 26.01 3.2
-5 -4 6 28.82 3.41
-5 -4 6 23.46 2.98
5 4 -5 3.84 1.16
-5 -4 5 3.36 1.75
-5 -4 5 2.55 0.67
-5 -4 5 2.76 1.25
5 4 -4 127.15 7.15
-5 -4 4 123.96 8.01
-5 -4 4 125.12 7.47
-5 -4 4 109.86 5.35
-5 -4 4 122.5 7.54
5 4 -3 26.05 3.2
-5 -4 3 29 3.66
-5 -4 3 18.31 2.89
-5 -4 3 23.35 2.8
-5 -4 3 25.01 3.45
5 4 -2 1.72 0.88
-5 -4 2 1.3 0.9
-5 -4 2 3.2 1.14
-5 -4 2 4.51 1.51
5 4 -1 0.33 0.48
-5 -4 1 -0.01 0.49
5 4 0 125.1 7.31
-5 -4 0 121.93 7.77
5 4 1 11.42 2.25
5 4 1 12.96 1.84
-5 -4 -1 8.13 2.14
5 4 2 452.57 15.33
5 4 2 484.27 13.53
-5 -4 -2 486.01 16.66
5 4 3 156.44 7.94
-5 -4 -3 164.14 9.59
-5 -4 -4 1.53 1.23
5 4 4 -0.07 0.64
-5 -4 -5 1.39 0.95
-5 -4 -6 1.19 1.21
-5 -4 -7 31.39 4.71
5 4 7 19.51 3.2
-5 -4 -8 9.16 2.82
5 4 8 10.52 2.38
-5 -4 -9 5.32 2.33
-5 -5 10 12.41 2.29
5 5 -9 15.63 2.68
-5 -5 9 18.95 2.73
-5 -5 9 15.36 2.4
5 5 -8 4.77 1.57
-5 -5 8 5.64 1.55
-5 -5 8 2.73 1.16
5 5 -7 0.51 0.62
-5 -5 7 2.23 1.24
-5 -5 7 2.77 1.09
5 5 -6 0.39 0.58
-5 -5 6 0.9 0.74
-5 -5 6 0.62 0.94
5 5 -5 32.84 3.8
-5 -5 5 30.1 3.69
-5 -5 5 23.21 3.6
-5 -5 5 30.88 3.05
5 5 -4 49.73 4.65
-5 -5 4 42.18 4.48
-5 -5 4 51.94 5.07
-5 -5 4 45.61 4.17
-5 -5 4 45.91 4.83
5 5 -3 8.17 1.94
-5 -5 3 9.53 2.1
-5 -5 3 6.33 1.71
-5 -5 3 8.75 2.15
5 5 -2 27.64 3.51
-5 -5 2 30.18 3.18
-5 -5 2 26.5 3.75
-5 -5 2 25.49 3.69
5 5 -1 6.66 1.7
-5 -5 1 10.49 2.68
-5 -5 1 6.16 1.97
5 5 0 70.07 5.66
-5 -5 0 58.77 5.68
5 5 1 16 2.82
-5 -5 -1 15.72 2.89
-5 -5 -2 16.37 3.22
5 5 2 17.96 2.99
5 5 2 15.18 1.67
-5 -5 -3 1.2 0.92
5 5 3 1.81 1.1
5 5 3 0.14 0.42
-5 -5 -4 0.29 1
5 5 4 -0.03 0.54
5 5 4 -1.63 0.84
-5 -5 -5 1.74 1.1
5 5 5 -0.71 0.71
-5 -5 -6 0.15 1.37
5 5 6 0.38 0.9
-5 -5 -7 0.6 1.33
5 5 7 0.33 0.99
-5 -6 10 1.56 0.83
5 6 -9 57.35 5.47
-5 -6 9 62.77 5.39
5 6 -8 4.14 1.5
-5 -6 8 5.72 1.72
-5 -6 8 3.75 1.37
5 6 -7 1.45 1.01
-5 -6 7 1.73 1.07
-5 -6 7 1.39 0.65
5 6 -6 31.67 3.98
-5 -6 6 32.79 3.98
-5 -6 6 28.42 3.81
5 6 -5 67.44 5.79
-5 -6 5 66.56 5.84
-5 -6 5 84.36 6.76
5 6 -4 293.24 12.46
-5 -6 4 312.56 13.54
-5 -6 4 302.19 13.52
5 6 -3 123.02 7.9
-5 -6 3 109.89 8.08
-5 -6 3 137.74 8.96
5 6 -2 4.52 1.42
-5 -6 2 7.36 2.24
5 6 -1 5.51 1.68
-5 -6 1 7.11 2.24
5 6 0 -0.41 1.05
-5 -6 0 -0.13 0.62
5 6 1 6.42 1.8
-5 -6 -1 3.31 1.33
-5 -6 -2 1.96 1.48
5 6 2 4.05 1.56
5 6 3 71.06 6.19
-5 -6 -3 72.56 7.06
-5 -6 -4 31.01 4.83
5 6 4 34.7 4.37
5 6 5 35.32 4.54
-5 -6 -5 46.88 5.97
-5 -6 -6 36.91 5.51
5 6 6 26.21 3.9
5 7 -9 6.01 1.97
-5 -7 9 3.54 1.48
5 7 -8 9.13 2.32
-5 -7 8 9.95 2.29
5 7 -7 4.43 1.76
-5 -7 7 4.95 1.68
-5 -7 7 5.18 1.73
5 7 -6 3.04 1.46
-5 -7 6 -1.21 1.17
-5 -7 6 2.69 1.44
5 7 -5 24.64 3.72
-5 -7 5 36.52 4.61
-5 -7 5 29.25 4.22
5 7 -4 13.55 2.79
-5 -7 4 12.29 2.88
5 7 -3 35.95 4.49
-5 -7 3 41.17 5.14
5 7 -2 7.32 2.09
-5 -7 2 6.3 2.11
5 7 -1 3.17 1.43
-5 -7 1 2.86 1.67
5 7 0 16.8 3.07
-5 -7 0 16.69 3.38
5 7 1 15.63 3.03
-5 -7 -1 16.98 3.37
-5 -7 -2 21.18 3.83
5 7 2 19.75 3.51
5 7 3 111.3 8.15
-5 -7 -3 128.49 9.9
5 7 4 36.22 4.74
-5 -7 -4 37.99 5.58
5 7 5 0.7 0.84
5 7 6 1.91 1.71
5 8 -7 0.25 1.02
5 8 -6 8.57 2.5
-5 -8 6 4.04 1.66
-5 -8 6 7.26 2.39
5 8 -5 6.15 2.04
-5 -8 5 6.26 2.1
-5 -8 5 4.39 1.86
5 8 -4 10.51 2.6
-5 -8 4 12.04 3.04
5 8 -3 0.86 0.71
-5 -8 3 -1.29 1.03
5 8 -2 -0.96 0.93
-5 -8 2 0.34 0.8
5 8 -1 55.75 5.88
-5 -8 1 52.74 6.27
5 8 0 11.75 2.79
-5 -8 0 8 2.53
5 8 1 -0.04 1.12
-5 -8 -1 0.1 0.69
-5 -8 -2 6.73 2.29
5 8 2 2.21 1.32
-5 -8 -3 13.26 3.21
5 8 3 17.31 3.32
5 8 4 8.69 2.26
5 8 5 7.28 2.42
-5 -9 5 -0.32 1.01
-5 -9 5 2.13 1.53
-5 -9 4 5.25 2.09
-5 -9 3 3.81 1.83
-5 -9 2 3.74 1.9
5 9 -1 0.3 0.8
-5 -9 1 2.29 1.45
5 9 0 22.2 3.97
-5 -9 0 24.58 4.54
-5 -10 4 1.31 1.69
6 -9 -3 1.79 0.91
-6 9 3 3.47 1.74
6 -9 -2 -0.81 0.99
-6 9 2 0.56 0.7
6 -9 -1 0.95 1.06
6 -9 -1 5.3 2.38
-6 9 1 3.99 1.59
6 -9 0 24.92 5.39
6 -9 1 57.64 8.19
6 -9 2 3.91 1.87
6 -9 2 3.24 1.37
6 -9 3 -0.11 2.27
6 -9 3 1.56 1.14
6 -9 4 -0.01 0.57
-6 8 4 5.27 1.95
-6 8 3 -0.12 0.89
-6 8 2 15.28 2.92
6 -8 -1 34.25 5.98
-6 8 1 32.69 3.95
6 -8 0 5.99 2.69
-6 8 0 2.32 1.12
6 -8 1 2.72 1.87
-6 8 -1 2.43 0.99
6 -8 1 3.81 1.16
6 -8 2 22.08 5.15
6 -8 2 17.48 2.63
6 -8 3 15.97 4.34
6 -8 3 24.34 3.2
-6 8 -3 23.37 4.96
6 -8 4 4.85 2.83
-6 8 -4 4.13 2.12
6 -8 4 3.52 1.25
6 -8 5 26.28 6.01
-6 8 -5 22.51 5.17
6 -8 5 21.67 3.3
-6 7 5 7.34 2.15
-6 7 4 7.54 2.11
-6 7 3 96.86 7
-6 7 2 36 4.06
6 -7 -1 42.91 6.36
-6 7 1 42.59 4.2
6 -7 0 16.99 3.98
6 -7 0 19.23 2.24
-6 7 0 17.8 2.6
6 -7 1 -0.28 2.37
-6 7 -1 -0.35 0.53
6 -7 1 -0.34 0.62
6 -7 2 -0.47 1.82
-6 7 -2 0.78 1.34
-6 7 -2 1.45 0.8
6 -7 2 0.34 0.53
-6 7 -3 -1.36 1.3
6 -7 3 0.81 0.65
6 -7 4 -0.6 1.92
-6 7 -4 2.25 1.47
6 -7 4 -0.38 0.6
6 -7 5 138.83 13.45
6 -7 5 131.07 7.86
-6 7 -5 127.94 11.47
6 -7 6 2.99 2.66
-6 7 -6 2.91 2.34
6 -7 6 1.28 0.85
-6 6 6 7.05 1.93
-6 6 5 3.5 1.12
-6 6 4 106.27 7.19
-6 6 3 30.33 3.65
6 -6 -2 74.51 8.16
-6 6 2 63.14 5.12
6 -6 -1 22.83 4.62
6 -6 -1 24.65 2.26
-6 6 1 27.28 3.12
6 -6 0 33.57 5.6
6 -6 0 28.53 2.68
-6 6 0 31.56 3.27
6 -6 1 30.02 5.48
6 -6 1 41.16 3.39
-6 6 -1 34.98 4.92
-6 6 -1 32.93 3.17
6 -6 2 14.62 3.84
6 -6 2 20.64 2.53
-6 6 -2 10.18 2.8
-6 6 -2 18.62 2.23
6 -6 3 7.42 3.03
-6 6 -3 2.99 1.76
6 -6 3 8 1.69
-6 6 -3 5.28 1.15
6 -6 4 6.77 2.69
-6 6 -4 8.59 2.81
6 -6 4 6.25 1.57
6 -6 5 146.85 13.27
6 -6 5 131.24 7.69
-6 6 -5 130.07 10.99
6 -6 6 233.39 17.26
6 -6 6 203.35 10.14
-6 6 -6 196.37 14.04
-6 6 -7 6.84 2.78
6 -6 7 9.64 2.33
-6 5 7 6.34 1.94
-6 5 6 6.85 1.96
-6 5 5 2.07 1.02
-6 5 4 7.58 1.83
6 -5 -3 -0.48 0.89
-6 5 3 0.64 0.5
6 -5 -2 34.15 2.46
6 -5 -2 38.78 5.58
6 -5 -2 32.87 3.59
-6 5 2 31.42 3.38
6 -5 -1 114.7 9.67
6 -5 -1 113.77 4.99
6 -5 -1 99.91 6.18
-6 5 1 115.13 6.22
6 -5 0 58.5 7.09
6 -5 0 58.55 3.76
-6 5 0 57.77 5.61
6 -5 0 43.68 3.98
-6 5 0 52.87 3.73
-6 5 0 58.79 4.23
6 -5 1 54.76 6.87
6 -5 1 56.13 3.92
-6 5 -1 47.97 5.32
-6 5 -1 52.22 3.92
6 -5 1 53.87 4.68
-6 5 -1 57.66 4.01
6 -5 2 19.64 4.36
-6 5 -2 17.26 3.24
-6 5 -2 19.23 2.18
6 -5 2 13.39 2.1
6 -5 2 13.97 2.29
-6 5 -3 1.16 0.68
6 -5 3 1.43 1.41
-6 5 -3 0.42 1.14
6 -5 3 -0.26 0.6
6 -5 4 17.37 4.28
-6 5 -4 19.03 3.81
-6 5 -4 20.2 2.05
6 -5 4 20.13 2.81
6 -5 5 2.61 1.95
-6 5 -5 -1 1.46
6 -5 5 0.71 0.95
-6 5 -6 6.96 2.46
6 -5 6 10.29 2.19
-6 5 -7 1.69 1.28
6 -5 7 5.58 1.74
-6 4 8 2.62 1.47
-6 4 7 62.54 5.69
-6 4 6 -0.51 0.76
-6 4 5 17.41 2.76
-6 4 4 0.02 0.63
-6 4 3 0.47 0.61
6 -4 -3 0 0.56
-6 4 2 2.6 0.99
-6 4 2 3.14 0.66
6 -4 -2 2.86 1.8
6 -4 -2 2.19 0.61
6 -4 -1 40.08 5.52
6 -4 -1 39.32 3
-6 4 1 37.13 2.6
-6 4 1 35.59 3.32
6 -4 0 508.42 20.65
6 -4 0 515.64 12.82
-6 4 0 493.88 16.22
-6 4 0 485.6 11.81
6 -4 0 491.54 15.63
-6 4 0 528.55 13.64
6 -4 1 55.94 6.72
6 -4 1 62.55 4.13
-6 4 -1 52.84 5.12
-6 4 -1 52.72 3.66
6 -4 1 50.65 4.53
-6 4 -1 56.71 3.9
6 -4 2 71.15 7.83
6 -4 2 87.6 5.19
-6 4 -2 80 6.58
6 -4 2 78.47 5.41
-6 4 -2 78.15 4.56
6 -4 3 2.19 1.12
-6 4 -3 3.78 1.55
-6 4 -3 3.98 0.97
6 -4 3 3.02 1.12
6 -4 3 1.53 0.88
6 -4 4 0.77 0.53
6 -4 4 0.34 1.34
-6 4 -4 -0.6 0.81
-6 4 -4 1 0.54
6 -4 4 -0.06 0.74
6 -4 5 37.23 3.95
6 -4 5 42.67 6.78
-6 4 -5 37.37 5.17
-6 4 -5 36.22 2.79
-6 4 -6 -0.3 0.75
6 -4 6 -0.61 0.67
-6 4 -7 0.25 0.82
6 -4 7 0.68 1.11
-6 4 -8 5.31 2.09
6 -4 8 7.66 2.2
-6 3 8 1.7 0.94
-6 3 7 0.23 0.84
-6 3 6 29.49 3.58
-6 3 5 2.47 1.11
-6 3 4 1.13 0.69
6 -3 -4 1.01 0.44
6 -3 -3 21.65 1.85
-6 3 3 28.28 3.07
6 -3 -2 121.06 9.28
6 -3 -2 111.5 4.36
-6 3 2 116.12 3.95
-6 3 2 113.55 6.15
6 -3 -1 254.65 13.74
6 -3 -1 237.78 8.4
-6 3 1 228.89 6.66
-6 3 1 247.85 9.14
6 -3 0 61.64 6.72
6 -3 0 57.75 4.04
-6 3 0 51.74 4.46
6 -3 0 54.4 4.82
-6 3 0 59.9 4.23
-6 3 -1 4.78 1.09
6 -3 1 4.58 2
-6 3 -1 3.47 1.22
-6 3 -1 2.73 0.78
6 -3 1 3.89 1.11
6 -3 1 4.5 1.28
6 -3 2 -0.24 0.87
-6 3 -2 0.4 0.81
6 -3 2 0.91 0.77
-6 3 -2 -0.48 0.74
6 -3 2 -0.36 0.59
6 -3 3 18.98 2.5
-6 3 -3 24.14 2.66
6 -3 3 22.53 2.88
-6 3 -3 18.59 2.99
-6 3 -4 151.12 6.84
6 -3 4 149.18 7.82
-6 3 -4 129.77 8.44
6 -3 4 129.79 6.41
-6 3 -5 2.84 1.21
-6 3 -5 0.45 0.54
6 -3 5 0.41 0.99
-6 3 -6 0.81 1.37
-6 3 -6 0.71 0.39
6 -3 6 0.7 0.83
-6 3 -7 1.88 1.42
6 -3 7 0.66 0.69
-6 3 -8 2.05 1.26
6 -3 8 1.54 1.09
-6 2 9 3.01 1.06
-6 2 8 0.54 0.62
-6 2 7 57.06 5.13
-6 2 6 24.5 3.09
-6 2 5 26.92 3.23
-6 2 4 9.62 1.83
-6 2 3 53.21 2.23
-6 2 3 52.4 4.19
6 -2 -2 119.7 9.01
-6 2 2 118.13 4.12
-6 2 2 116.54 6.22
6 -2 -1 2.26 1.27
-6 2 1 2.19 0.75
6 -2 -1 0.93 0.62
-6 2 1 2.18 0.8
-6 2 1 1.11 0.39
-6 2 0 5.65 1.36
6 -2 0 5.56 2
-6 2 0 4.02 1.14
6 -2 0 3.56 1.07
6 -2 0 4.99 1.52
-6 2 0 4.56 0.96
6 -2 1 1.6 1.6
-6 2 -1 0.89 0.75
-6 2 -1 0.59 0.55
6 -2 1 0.8 0.72
6 -2 1 1.07 0.77
-6 2 -1 1.83 0.72
6 -2 2 2.19 1.13
6 -2 2 1.17 1.02
-6 2 -2 1.27 0.69
-6 2 -2 2.94 0.98
6 -2 2 4.37 1.21
6 -2 3 5.96 1.5
-6 2 -3 4.86 1.3
6 -2 3 3.92 1.77
-6 2 -3 3.46 1.19
6 -2 3 5.8 1.49
6 -2 4 18.46 2.5
6 -2 4 23.88 4.43
-6 2 -4 18.78 2.58
-6 2 -4 18.84 3.01
6 -2 4 16.29 2.78
-6 2 -5 119.03 6.77
6 -2 5 112.4 7.37
-6 2 -5 88.19 6.86
6 -2 5 95.76 5.69
-6 2 -6 1.76 1.39
-6 2 -6 -0.56 0.69
6 -2 6 1.11 0.93
-6 2 -6 0.05 0.41
-6 2 -7 0.73 0.65
-6 2 -7 0.91 1.05
6 -2 7 2.26 1.3
-6 2 -8 0.85 1.05
6 -2 8 1.83 1.42
-6 1 10 1.17 1.12
-6 1 9 1.74 1.11
-6 1 8 57.67 5.21
6 -1 -7 35.04 2.78
-6 1 7 29.42 3.52
6 -1 -6 11.17 1.71
-6 1 6 10.85 2.04
-6 1 5 1.09 0.24
-6 1 5 0.86 0.71
-6 1 5 0.85 0.22
-6 1 4 0.42 0.49
-6 1 4 1.16 0.36
-6 1 3 14.48 1.36
-6 1 3 19.53 2.58
-6 1 2 108.19 6.17
6 -1 -2 108.05 8.23
-6 1 2 108.46 4.34
6 -1 -1 -0.27 0.81
-6 1 1 -0.01 0.69
-6 1 1 -0.21 0.31
-6 1 0 78.07 5.4
6 -1 0 88.38 5.82
6 -1 0 89.42 7.59
-6 1 0 86.33 4.47
-6 1 0 75.35 4.24
6 -1 0 85.53 6.22
-6 1 -1 111.05 6.56
6 -1 1 103.61 6.5
6 -1 1 101.79 8.32
-6 1 -1 102.91 5.18
-6 1 -1 103.23 5.38
6 -1 1 104.43 6.68
6 -1 2 45.37 4.36
6 -1 2 38.86 5.25
-6 1 -2 48.91 4.36
-6 1 -2 41.5 3.59
6 -1 2 34.36 3.7
6 -1 3 102.42 6.91
6 -1 3 126.94 9.74
-6 1 -3 104.75 6.73
-6 1 -3 88.05 5.64
-6 1 -3 110.56 6.44
6 -1 3 107.11 6.5
6 -1 4 25.24 3.53
6 -1 4 24.69 4.35
-6 1 -4 26.08 3.18
-6 1 -4 27.51 3.26
6 -1 4 28.57 3.35
6 -1 5 35.24 4.32
-6 1 -5 34.64 3.89
-6 1 -5 46.87 4.32
6 -1 5 34.92 3.69
-6 1 -6 -0.06 0.94
6 -1 6 -0.21 0.68
-6 1 -6 0.02 0.5
-6 1 -7 11.47 2.65
6 -1 7 13.77 2.98
-6 1 -7 14.07 2.44
6 -1 8 34.62 5.11
-6 1 -8 27.9 4.24
-6 0 10 7.76 2.18
-6 0 9 0.86 0.62
-6 0 8 96.01 6.5
6 0 -7 243.81 8.43
-6 0 7 256.26 10.56
6 0 -6 139.72 6.59
-6 0 6 130.39 4.08
-6 0 6 142.54 7.44
-6 0 5 22.3 2.01
-6 0 5 22.82 2.95
-6 0 4 34.09 2.58
-6 0 4 37.29 3.68
-6 0 3 1.62 0.85
-6 0 3 1.57 0.55
6 0 -2 0.38 0.61
-6 0 2 1.44 0.78
-6 0 1 114.44 6.7
6 0 -1 109.41 7.93
-6 0 1 114.54 8.84
-6 0 1 104.08 5.01
6 0 0 632.45 20.7
-6 0 0 630.52 17.54
-6 0 0 623.5 14.53
-6 0 0 590.05 12.58
6 0 1 389.3 14.2
6 0 1 408.39 16.69
-6 0 -1 408.45 14.02
-6 0 -1 393.99 11.45
-6 0 -1 370.61 9.95
-6 0 -1 405.15 13.49
6 0 1 382.7 13.6
6 0 2 58.72 5.46
6 0 2 65.31 6.59
-6 0 -2 55.55 4.79
6 0 2 51.63 4.79
6 0 3 19.44 2.91
6 0 3 27.69 4.64
-6 0 -3 25.22 3.3
6 0 3 25.23 3.65
6 0 4 0.05 0.76
6 0 4 -0.72 0.9
-6 0 -4 0.31 0.78
6 0 5 0.39 0.68
-6 0 -5 2.43 1.25
6 0 6 11.5 2.86
-6 0 -6 9.75 2.27
6 0 7 6.26 2.41
-6 0 -7 10.24 2.3
6 0 8 10.58 2.84
-6 -1 11 33.73 4.3
-6 -1 10 -0.83 0.81
-6 -1 9 11.47 2.28
-6 -1 8 0.09 0.83
6 1 -7 13.67 2.06
-6 -1 7 12.22 2.26
-6 -1 7 11.98 1.43
6 1 -6 13.7 2.15
-6 -1 6 17.16 2.59
-6 -1 6 14.75 1.73
6 1 -5 7.14 1.56
-6 -1 5 8.93 1.84
-6 -1 4 129.43 7.16
-6 -1 3 18.09 2.7
-6 -1 2 0.67 0.82
-6 -1 2 -0.03 0.69
-6 -1 2 0.53 0.43
6 1 -1 2.36 1.24
-6 -1 1 3.89 1.63
-6 -1 1 4.65 1.23
-6 -1 1 2.22 1.06
-6 -1 1 2.12 1.01
6 1 0 9.86 2.37
-6 -1 0 15.19 2.7
-6 -1 0 12.67 2
-6 -1 0 16.6 2.62
6 1 1 100.29 7.67
-6 -1 -1 113.84 7.1
6 1 2 153.91 9.26
6 1 2 166.26 10.34
-6 -1 -2 171.63 9.07
6 1 3 2.64 1.24
6 1 3 4.47 1.74
-6 -1 -3 2.1 0.95
6 1 4 1.87 1.5
6 1 4 0.28 0.87
-6 -1 -4 -0.1 0.51
6 1 5 20.55 3.74
-6 -1 -5 15.64 2.84
6 1 6 41.94 5.65
-6 -1 -6 41.99 4.73
6 1 7 2.74 1.76
-6 -1 -7 6.76 1.95
6 1 8 6.47 2.09
-6 -1 -8 7.22 2.08
-6 -2 11 2.54 1.45
-6 -2 10 6.71 1.97
-6 -2 9 3.12 1.26
6 2 -8 5.26 1.4
-6 -2 8 4.22 1.57
6 2 -7 14.22 2.26
-6 -2 7 13.58 1.85
-6 -2 7 11.05 2.12
6 2 -6 3.77 1.24
-6 -2 6 3.3 1
-6 -2 6 1.79 1.04
-6 -2 5 7.81 1.7
6 2 -5 11.52 2.08
6 2 -4 9.54 2.02
-6 -2 4 14.61 2.43
-6 -2 4 9.95 1.92
-6 -2 3 261.97 10.95
-6 -2 3 244.08 13.11
-6 -2 2 32.16 3.54
-6 -2 2 43.81 5.3
-6 -2 2 41.31 4.28
-6 -2 2 34.4 2.31
-6 -2 2 40.47 4.25
6 2 -1 12.81 2.5
-6 -2 1 9.75 1.93
-6 -2 1 10.73 2.19
-6 -2 1 9.81 2.12
6 2 0 34.15 4.13
-6 -2 0 40.96 4.4
6 2 1 20.91 3.24
-6 -2 -1 25.13 3.48
6 2 2 76.74 6.66
-6 -2 -2 83.18 6.48
6 2 3 8.38 2.43
-6 -2 -3 8.8 2.22
6 2 4 101.95 8.39
-6 -2 -4 103.33 7.58
6 2 5 14.94 3.46
-6 -2 -5 14.48 2.92
6 2 6 0.69 1.4
-6 -2 -6 -0.19 1.13
6 2 7 13.72 3.74
-6 -2 -7 14.47 3.09
6 2 8 -0.27 1.14
-6 -2 -8 -0.34 1.02
-6 -3 10 0.27 0.68
-6 -3 9 4.19 1.45
6 3 -8 1.5 0.86
-6 -3 8 2.88 1.04
-6 -3 8 2.11 1.08
6 3 -7 0.06 0.59
-6 -3 7 0.2 0.49
-6 -3 7 0.4 0.65
6 3 -6 12.22 2.29
-6 -3 6 13.01 2.39
6 3 -5 86.37 6.1
-6 -3 5 86.59 6.26
6 3 -4 0.02 0.7
-6 -3 4 1.86 1.22
6 3 -3 6.76 1.76
-6 -3 3 3.69 1.67
-6 -3 3 5.38 0.93
-6 -3 3 4.35 1.5
-6 -3 3 6.14 1.73
6 3 -2 94.78 6.64
-6 -3 2 94.28 7.49
-6 -3 2 95.6 6.89
-6 -3 2 95.57 5.21
-6 -3 2 100.81 7.09
-6 -3 1 153.18 8.91
6 3 0 94.54 6.42
-6 -3 0 88.26 6.8
6 3 1 250.11 10.99
-6 -3 -1 266.04 12.19
6 3 2 7.13 1.98
-6 -3 -2 6.69 2.01
6 3 3 0.95 1.06
-6 -3 -3 1.77 1.27
6 3 4 1.77 1.12
-6 -3 -4 -0.5 0.86
-6 -3 -5 37.6 4.91
-6 -3 -6 6.03 2.03
-6 -3 -7 10.99 2.82
-6 -3 -8 0.9 0.98
-6 -4 10 5.72 1.58
-6 -4 9 0.77 0.95
6 4 -8 8.42 1.98
-6 -4 8 8.9 1.84
-6 -4 8 9.76 2.13
6 4 -7 12.41 2.39
-6 -4 7 10.19 2.04
-6 -4 7 12.78 2.45
6 4 -6 8.34 2.01
-6 -4 6 9.67 2.06
6 4 -5 25.66 3.47
-6 -4 5 24.02 3.51
6 4 -4 15.96 2.73
-6 -4 4 13.4 3.11
-6 -4 4 9.26 2.14
-6 -4 4 9.79 1.36
6 4 -3 7.39 1.87
-6 -4 3 7.26 2.15
-6 -4 3 6.88 1.48
-6 -4 3 7.23 2.06
-6 -4 3 11.82 2.6
6 4 -2 1.24 0.83
-6 -4 2 0.65 1.03
-6 -4 2 0.5 0.81
-6 -4 2 0.96 0.81
6 4 -1 41.2 4.5
-6 -4 1 38.3 4.66
6 4 0 208.56 10.55
-6 -4 0 208.26 11.09
6 4 1 12.99 2.63
6 4 1 11.82 2.03
-6 -4 -1 6.6 2.12
6 4 2 87.33 5.98
-6 -4 -2 82.65 7.07
6 4 3 4.02 1.65
-6 -4 -3 3.43 1.8
6 4 4 12.41 2.59
-6 -4 -4 14.35 3.05
6 4 5 17.11 3.38
-6 -4 -5 14.99 3.3
-6 -4 -6 -0.2 0.79
-6 -4 -7 2.03 1.67
-6 -4 -8 25.11 4.74
6 5 -9 0.56 1.11
-6 -5 9 2.76 1.24
6 5 -8 0.18 0.68
-6 -5 8 2.07 1.23
-6 -5 8 2.23 1.17
-6 -5 7 0.56 0.95
6 5 -7 2.23 1.16
-6 -5 7 1.63 0.8
6 5 -6 3.88 1.36
-6 -5 6 4.81 1.69
-6 -5 5 0.55 0.74
6 5 -5 0.75 0.98
-6 -5 4 0.52 0.74
6 5 -4 1.27 0.74
-6 -5 4 0.88 0.93
6 5 -3 8.62 2.12
-6 -5 3 10.87 2.47
-6 -5 3 5.44 1.57
-6 -5 3 9.11 2.38
6 5 -2 66.39 5.91
-6 -5 2 58.51 5.59
-6 -5 2 64.94 6.24
6 5 -1 146.3 8.91
-6 -5 1 148.05 9.86
-6 -5 1 142.11 9.42
6 5 0 157.24 9.26
-6 -5 0 128.35 9.11
6 5 1 4.78 1.71
-6 -5 -1 3.98 1.48
6 5 2 0.31 0.65
-6 -5 -2 1.8 1.51
6 5 3 48.63 5.28
-6 -5 -3 55.35 6.22
6 5 4 0.96 0.84
-6 -5 -4 -0.09 0.71
6 5 5 39.9 4.89
-6 -5 -5 45.17 5.86
-6 -5 -6 13.74 3.42
6 5 6 5.45 1.72
6 5 7 3.18 1.25
6 6 -9 -0.63 0.94
-6 -6 9 -0.32 0.58
6 6 -8 1.77 1.4
-6 -6 8 0.44 0.73
-6 -6 8 1.28 1.13
6 6 -7 1.02 1.19
-6 -6 7 -0.61 0.83
-6 -6 7 0.58 0.84
6 6 -6 8.68 2.15
-6 -6 6 6.86 1.97
6 6 -5 10.94 2.56
-6 -6 5 12.03 2.7
6 6 -4 0.66 0.75
-6 -6 4 -0.05 1.09
-6 -6 4 0.65 1.04
6 6 -3 2.33 1.44
-6 -6 3 3.99 1.72
6 6 -2 72.34 6.42
-6 -6 2 68.3 6.78
6 6 -1 5.02 1.82
-6 -6 1 5.03 2.13
6 6 0 16.23 3.15
-6 -6 0 14.69 3.28
6 6 1 2.49 1.35
-6 -6 -1 2.24 0.77
6 6 2 10.32 2.68
-6 -6 -2 8.71 2.53
6 6 3 77.12 6.95
-6 -6 -3 75.14 7.68
6 6 4 91.37 7.67
-6 -6 -4 90.06 8.6
-6 -6 -5 12.76 3.39
6 6 5 11.68 2.86
6 6 6 8.52 2.38
6 7 -8 2.13 1.47
-6 -7 8 1.14 1.07
6 7 -7 1.36 1.11
-6 -7 7 -0.95 1
-6 -7 7 0.33 0.76
6 7 -6 13.84 3.07
-6 -7 6 8.31 2.25
6 7 -5 5.28 2
-6 -7 5 4.4 1.77
-6 -7 5 3.48 1.59
6 7 -4 65.65 6.41
-6 -7 4 56.55 6.29
-6 -7 4 54.08 6.22
6 7 -3 21.8 3.63
-6 -7 3 22.48 4.06
6 7 -2 8.11 2.38
-6 -7 2 6.8 2.31
6 7 -1 7.75 2.41
-6 -7 1 3.23 1.84
6 7 0 16.15 3.34
-6 -7 0 19.7 4.01
6 7 1 9.49 2.68
-6 -7 -1 7.4 2.28
6 7 2 0.32 0.98
-6 -7 -2 -1.24 1.44
6 7 3 10.17 2.54
-6 -7 -3 6.58 2.48
6 7 4 14.12 2.94
6 7 5 0.47 1.6
-6 -8 6 2.4 1.27
-6 -8 5 6.82 2.27
-6 -8 5 6.26 2.61
6 8 -4 24.92 4.23
-6 -8 4 27.73 4.49
-6 -8 4 31.01 4.92
6 8 -3 8.18 2.21
-6 -8 3 10.87 2.9
6 8 -2 2.16 1.75
-6 -8 2 5.43 2.11
6 8 -1 18.38 3.56
-6 -8 1 22.35 4.36
6 8 0 22.01 3.99
-6 -8 0 16.08 3.79
6 8 1 -1.22 0.95
-6 -9 5 8.81 2.62
-7 8 3 3.62 1.62
-7 8 2 39.97 4.79
7 -8 -1 2.66 2.09
-7 8 1 0.41 1.01
7 -8 0 3.12 2.25
-7 8 0 2.87 1.1
7 -8 1 0.57 2.3
7 -8 2 -3 2.13
7 -8 2 -0.12 0.72
-7 8 -3 3.89 2.12
7 -8 3 2.06 0.93
-7 8 -4 -0.45 1.87
7 -8 4 0.08 0.7
-7 7 4 1.75 1.39
-7 7 3 11.52 2.54
-7 7 2 6.82 1.77
7 -7 -1 -1.18 1.6
-7 7 1 0.1 0.84
7 -7 0 3.4 1.75
-7 7 0 2.12 1.15
7 -7 1 0.16 1.29
-7 7 -1 0.58 0.41
7 -7 1 -0.11 0.64
7 -7 2 5.49 2.68
-7 7 -2 9.38 2.88
7 -7 2 5.65 1.53
7 -7 3 -0.3 1.97
-7 7 -3 0.69 1.11
7 -7 3 2.47 1.21
7 -7 4 7.82 3.6
-7 7 -4 3.24 2.23
7 -7 4 5.82 1.85
7 -7 5 51.62 5.17
-7 7 -5 48.28 7.26
-7 6 5 1 1.12
-7 6 4 21.52 3.33
-7 6 3 5.59 1.68
7 -6 -2 144.93 12.15
-7 6 2 150.76 8.3
7 -6 -1 87.27 9.28
-7 6 1 77.14 5.62
-7 6 0 4.84 1.41
7 -6 0 5.51 2.82
7 -6 0 6.52 1.53
-7 6 -1 3.47 1.1
7 -6 1 5.91 2.56
-7 6 -1 6.82 2.3
7 -6 1 3.24 1.22
7 -6 2 66.46 8.6
7 -6 2 61.03 4.79
-7 6 -2 54.81 6.44
-7 6 -2 66.43 4.59
7 -6 3 23.42 5.48
7 -6 3 30.36 3.62
-7 6 -3 24.5 4.56
-7 6 -4 -0.14 0.91
7 -6 4 0.78 0.67
-7 6 -5 11.25 3.51
7 -6 5 17.19 2.95
-7 6 -6 4.49 2.44
7 -6 6 7.54 2.21
-7 5 6 37.88 4.61
-7 5 5 4.79 1.76
-7 5 4 0.46 0.7
-7 5 3 0.7 0.77
7 -5 -2 102.01 9.86
-7 5 2 104.88 6.62
-7 5 1 0.49 0.68
7 -5 -1 0.73 1.13
7 -5 -1 0.68 0.5
-7 5 0 3.69 1.3
7 -5 0 4.2 2.2
7 -5 0 4.5 1.31
-7 5 -1 12.08 2.03
7 -5 1 13.87 3.86
-7 5 -1 8.86 2.38
7 -5 1 10.24 1.95
-7 5 -2 3.92 1.09
7 -5 2 3.07 2.45
-7 5 -2 4.08 1.81
7 -5 2 3.01 1.06
-7 5 -3 0.8 0.64
7 -5 3 1.28 1.59
-7 5 -3 1.7 1.27
7 -5 3 0.87 0.9
7 -5 4 13.59 4.06
-7 5 -4 19.62 4.07
7 -5 4 16.83 2.82
7 -5 5 65.39 8.86
7 -5 5 66.52 5.84
-7 5 -5 58.3 7.29
7 -5 6 3.04 1.85
-7 5 -6 1.76 1.6
7 -5 6 4.16 1.76
-7 5 -7 8.59 3.26
-7 4 7 42.09 4.88
-7 4 6 15.78 2.94
-7 4 5 24.87 3.45
-7 4 4 24.59 3.33
-7 4 3 132.9 7.48
-7 4 2 3.17 1.26
7 -4 -2 1.9 1.61
7 -4 -1 -0.09 1.29
-7 4 1 0.07 0.72
7 -4 -1 -0.29 0.63
-7 4 0 4.31 1.04
7 -4 0 3.81 1.65
-7 4 0 5.76 1.53
-7 4 0 3.75 1.53
7 -4 0 4.87 1.28
7 -4 1 20.53 2.77
7 -4 1 25.71 5.02
-7 4 -1 21.02 3.37
-7 4 -1 23.21 2.75
7 -4 2 71.93 8.44
7 -4 2 79.5 5.63
-7 4 -2 81.99 6.89
-7 4 -2 72.71 4.86
7 -4 3 5.27 2.43
-7 4 -3 4.36 1.65
-7 4 -3 4.53 1.24
7 -4 3 7 1.81
7 -4 4 4.19 2
-7 4 -4 5.45 2.19
-7 4 -4 1.92 0.81
7 -4 4 4.74 1.53
-7 4 -5 6.74 2.64
7 -4 5 8.55 2.16
7 -4 6 1.42 2.1
-7 4 -6 2.52 1.99
7 -4 6 5.22 2.01
-7 4 -7 2.18 1.73
7 -4 7 0.73 0.8
-7 3 7 0.56 0.97
-7 3 6 17.12 2.86
-7 3 5 1.62 1.22
-7 3 4 2.32 1.2
-7 3 3 433.09 13.92
-7 3 2 102.39 4.1
-7 3 2 118.11 6.69
7 -3 -1 27.73 3.15
7 -3 -1 29.43 5.03
-7 3 1 25.61 3.14
-7 3 0 -0.04 0.4
7 -3 0 1.68 1.67
-7 3 0 0.52 0.42
-7 3 0 0.18 0.49
7 -3 0 0.59 0.69
7 -3 1 0.18 1.26
-7 3 -1 -0.19 0.98
7 -3 1 0.65 0.78
-7 3 -1 0.83 0.4
-7 3 -2 59.67 4.66
7 -3 2 56.68 7.4
7 -3 2 61.43 5.28
-7 3 -2 49.31 5.07
-7 3 -3 3 1.07
7 -3 3 -0.57 0.85
-7 3 -3 1.76 0.98
7 -3 3 2.3 1.14
-7 3 -4 0.6 0.72
7 -3 4 0.67 1.39
-7 3 -4 0.48 0.99
7 -3 4 0.15 0.9
7 -3 5 -0.04 1.7
-7 3 -5 1.3 0.76
-7 3 -5 -0.73 1.11
7 -3 5 0.51 0.78
-7 3 -6 -1.24 1.13
7 -3 6 -0.44 0.77
-7 3 -7 1.18 0.97
7 -3 7 1.73 1.57
-7 2 8 6.37 1.81
-7 2 7 1 0.9
-7 2 6 -0.01 0.57
-7 2 5 60.38 5.1
-7 2 4 66.04 5.24
-7 2 3 125.79 4.21
-7 2 3 158.01 7.93
7 -2 -2 69.22 7.5
-7 2 2 71.19 5.25
7 -2 -1 0.07 0.65
-7 2 1 0.58 0.63
-7 2 1 -1.16 0.97
-7 2 1 -0.06 0.36
-7 2 0 0.73 0.47
-7 2 0 0.48 0.39
7 -2 0 -0.19 0.71
-7 2 0 0.57 0.52
-7 2 -1 162.35 8.22
7 -2 1 161.73 11.73
7 -2 1 170.33 8.91
-7 2 -1 144.57 7.66
7 -2 2 0.96 1.29
-7 2 -2 1.14 0.67
-7 2 -2 0.57 0.56
7 -2 2 -0.49 0.74
7 -2 3 1.9 1.83
-7 2 -3 0.41 0.46
7 -2 3 -0.26 0.57
-7 2 -3 0.52 0.45
-7 2 -4 34.8 3.87
7 -2 4 34.12 4.43
7 -2 4 34.78 5.83
-7 2 -4 32.79 4.16
7 -2 5 18.68 4.31
-7 2 -5 21.37 3.06
-7 2 -5 14.88 3
7 -2 5 16.61 3.25
-7 2 -6 42.01 4.34
7 -2 6 46.53 5.65
-7 2 -6 37.15 5
-7 2 -7 1.13 1.35
7 -2 7 0.05 0.66
-7 2 -8 0.75 0.92
-7 1 8 12.49 2.6
-7 1 7 33.05 3.95
-7 1 6 20.74 3.06
-7 1 5 -0.83 0.68
-7 1 4 51.08 4.64
-7 1 3 41.27 2.67
-7 1 3 51.16 4.54
7 -1 -2 0.26 0.68
-7 1 2 -0.33 0.48
7 -1 -1 3.76 1.76
-7 1 1 1.69 1.02
-7 1 1 2.31 0.7
-7 1 1 2.66 0.84
-7 1 0 96.13 6.51
7 -1 0 96.69 8.56
-7 1 0 85.83 4.85
-7 1 0 92.21 5.01
-7 1 -1 219.15 10.03
7 -1 1 196.6 10.22
7 -1 1 215.53 13.19
-7 1 -1 177.81 7.84
7 -1 2 20.74 4.32
-7 1 -2 21.24 3.2
-7 1 -2 16.16 2.4
7 -1 2 17.37 3.11
7 -1 3 10.02 3.05
-7 1 -3 7.71 1.98
7 -1 3 10.43 2.61
-7 1 -3 9.77 2.14
7 -1 4 4.56 2.31
-7 1 -4 3.74 1.35
-7 1 -4 4.23 1.53
7 -1 4 2.64 1.07
-7 1 -4 4.85 1.6
7 -1 5 18.41 4.4
-7 1 -5 20.01 3.17
-7 1 -5 14.22 2.74
7 -1 5 12.17 3.01
-7 1 -5 16.96 2.79
-7 1 -6 1.45 1.07
7 -1 6 1.17 1.04
-7 1 -6 0.73 0.82
-7 1 -7 -1.14 1.01
7 -1 7 -2.18 1.43
-7 1 -8 21.87 4.02
-7 0 9 13.47 2.73
-7 0 8 2.56 1.29
7 0 -7 26.3 3.01
-7 0 7 33.74 3.94
7 0 -6 66.54 5.01
-7 0 6 66.23 5.45
-7 0 5 30.41 3.63
-7 0 4 25.04 3.27
-7 0 3 67 5.43
-7 0 2 44.58 4.52
-7 0 2 38.69 3.12
7 0 -1 0.13 0.61
-7 0 1 0.47 0.34
-7 0 1 0.68 0.72
-7 0 1 0.59 0.33
-7 0 0 61.25 5.44
-7 0 0 51.64 3.42
7 0 1 468.01 19.35
-7 0 -1 496.17 16.34
7 0 2 72.49 6.69
7 0 2 85.23 8.27
-7 0 -2 86.7 6.76
-7 0 -2 68.07 4.58
-7 0 -2 83.16 6.43
-7 0 -3 0.58 0.52
7 0 3 -0.62 1.45
-7 0 -3 0.49 0.6
7 0 3 1.11 1.05
-7 0 -3 0.8 0.89
7 0 4 1.37 1.41
7 0 4 -0.23 1.02
-7 0 -4 1.12 1.01
7 0 5 1.12 1.88
7 0 5 1.4 1.15
-7 0 -5 0.47 0.68
7 0 6 5.56 2.16
-7 0 -6 2.7 1.31
7 0 7 1.38 1.19
-7 0 -7 1.53 1.11
-7 0 -8 55.15 6.13
-7 -1 9 3.64 1.45
-7 -1 8 -0.39 0.99
7 1 -7 -0.35 0.84
-7 -1 7 0.3 0.75
7 1 -6 51.25 4.57
-7 -1 6 52.5 3.61
-7 -1 6 58.41 5.12
7 1 -5 20.97 3
-7 -1 5 15.91 2.7
-7 -1 4 3.78 1.4
-7 -1 4 1.12 0.56
-7 -1 3 83.34 6.27
-7 -1 3 68.97 4.73
-7 -1 2 0.65 0.74
-7 -1 2 1.02 0.77
7 1 -1 55.6 6.09
-7 -1 1 60.25 5.41
-7 -1 1 49.87 2.6
-7 -1 0 0.67 0.46
7 1 0 2.23 1.11
-7 -1 0 0.41 0.84
7 1 1 1.37 1.18
-7 -1 -1 0.88 0.61
-7 -1 -1 2.28 1.2
7 1 2 -0.29 0.92
-7 -1 -2 1.62 0.98
7 1 3 13.17 3.27
-7 -1 -3 20.71 3.35
7 1 4 6.24 2.19
7 1 4 2.92 1.66
-7 -1 -4 2.4 1.29
7 1 5 12.15 3.35
7 1 5 16.5 3.78
-7 -1 -5 10.4 2.52
7 1 6 3.47 1.77
-7 -1 -6 7.28 2.2
7 1 7 22.99 4.69
-7 -1 -7 25.92 4.11
-7 -2 9 3.07 1.22
-7 -2 8 4.6 1.54
7 2 -7 11.44 2.2
-7 -2 7 13.47 2.57
7 2 -6 62.14 5.23
-7 -2 6 61.59 5.48
-7 -2 5 0.63 1.03
7 2 -5 -0.36 0.67
7 2 -4 2.08 1.17
-7 -2 4 2.95 1.33
-7 -2 3 68.81 5.93
-7 -2 2 2.16 1.03
-7 -2 2 1.91 0.46
-7 -2 2 3.22 0.47
-7 -2 1 13.5 2.74
-7 -2 1 15.01 2.89
-7 -2 0 21.26 3.41
7 2 0 17.16 3.2
-7 -2 0 18.69 3.19
7 2 1 68.24 6.53
-7 -2 -1 68.16 6.2
7 2 2 12.03 2.86
-7 -2 -2 10.04 2.42
7 2 3 2.62 1.57
-7 -2 -3 0.23 0.82
7 2 4 70.79 7.51
-7 -2 -4 73.57 6.85
7 2 5 5.89 2.21
-7 -2 -5 6.3 2.27
7 2 6 17.46 4.03
-7 -2 -6 22.91 4.07
-7 -2 -7 7.82 2.62
-7 -3 10 -0.28 1.07
-7 -3 9 2.28 1.27
7 3 -8 2.09 1.21
-7 -3 8 2.34 1.21
7 3 -7 0.39 0.63
-7 -3 7 -0.28 0.88
-7 -3 7 0.1 0.72
7 3 -6 17.06 2.97
-7 -3 6 23.98 3.52
7 3 -5 1.9 1.07
-7 -3 5 0.31 0.79
7 3 -4 10.6 2.35
-7 -3 4 8.63 2.28
7 3 -3 36.27 4.39
-7 -3 3 31.89 4.25
7 3 -2 2.07 1.13
-7 -3 2 1.61 0.89
-7 -3 2 0.67 0.58
-7 -3 1 10.99 2.62
-7 -3 1 11.91 2.71
7 3 0 0.4 0.76
-7 -3 0 0.05 0.79
7 3 1 0.49 0.89
-7 -3 -1 0.96 0.78
7 3 2 0.41 0.56
-7 -3 -2 0.36 0.87
7 3 3 0.8 0.56
-7 -3 -3 -0.09 1
7 3 4 10.62 2.98
-7 -3 -4 5.55 1.89
7 3 5 9.53 2.87
-7 -3 -5 6.88 2.33
-7 -3 -6 0.54 1.17
-7 -3 -7 1.51 1.29
-7 -4 9 0.55 0.83
7 4 -8 64.3 5.73
-7 -4 8 62.51 5.67
7 4 -7 15.29 2.84
-7 -4 7 19.15 2.91
-7 -4 7 18.06 3.14
7 4 -6 0.94 0.99
-7 -4 6 1.27 1.03
-7 -4 5 33.36 4.34
7 4 -5 27.16 3.89
7 4 -4 88.37 7.04
-7 -4 4 95.17 7.39
7 4 -3 17.25 3.13
-7 -4 3 17.8 3.25
-7 -4 3 15.05 3.02
7 4 -2 64.57 6.04
-7 -4 2 67.12 6.57
-7 -4 2 67.32 6.46
7 4 -1 9.57 2.32
-7 -4 1 10.6 2.69
7 4 0 10.6 2.63
-7 -4 0 12.39 2.93
7 4 1 12.13 2.81
7 4 1 7.45 1.92
-7 -4 -1 8.4 2.39
7 4 2 6.98 1.96
-7 -4 -2 3.68 1.57
-7 -4 -3 0.54 1.27
-7 -4 -4 1.2 1.52
-7 -4 -5 7.29 2.73
-7 -4 -6 -0.73 0.73
-7 -5 9 0.76 1.06
7 5 -8 3.08 1.61
-7 -5 8 0.08 0.65
7 5 -7 22.39 3.74
-7 -5 7 17.73 3.16
-7 -5 7 18.82 3.28
7 5 -6 7.45 2.13
-7 -5 6 7.84 2.27
7 5 -5 15.07 3.04
-7 -5 5 21.14 3.61
7 5 -4 11.32 2.66
-7 -5 4 10.45 2.54
7 5 -3 9.56 2.52
-7 -5 3 7.9 2.32
-7 -5 3 8.08 2.38
7 5 -2 60.68 6.17
-7 -5 2 66.54 6.71
7 5 -1 30.02 4.33
-7 -5 1 28.6 4.39
7 5 0 1.41 0.97
-7 -5 0 1.4 1.13
7 5 1 2.47 1.3
-7 -5 -1 3.9 1.81
7 5 2 9.57 2.62
-7 -5 -2 6.9 2.17
7 5 3 11.85 2.86
-7 -5 -3 8.29 2.67
7 5 4 7.18 2.44
-7 -5 -4 7.72 2.8
7 5 5 7.65 2.29
-7 -5 -5 9.3 2.83
7 5 6 10.88 2.81
7 6 -8 0.67 0.67
-7 -6 8 1.81 0.87
-7 -6 8 0.81 0.77
7 6 -7 3.26 1.43
-7 -6 7 6.15 1.97
-7 -6 7 2.67 1.19
7 6 -6 1.63 1.01
-7 -6 6 1.15 1.37
7 6 -5 11.31 2.64
-7 -6 5 15.45 3.27
7 6 -4 386.58 16.43
-7 -6 4 401.46 17.35
-7 -6 4 389.85 17.28
7 6 -3 6.75 2.28
-7 -6 3 8.64 2.54
-7 -6 3 4.13 1.74
7 6 -2 51.65 5.79
-7 -6 2 48.41 5.93
7 6 -1 -0.29 0.88
-7 -6 1 0.03 0.78
7 6 0 11.56 2.97
-7 -6 0 14.49 3.38
7 6 1 18.63 3.61
-7 -6 -1 15.46 3.63
7 6 2 11.21 2.86
-7 -6 -2 2.84 1.76
7 6 3 1.72 1.69
-7 -6 -3 -2.14 1.54
7 6 4 18.38 3.87
-7 -7 7 -0.33 1.06
-7 -7 6 3.47 1.56
-7 -7 5 9.64 2.59
7 7 -4 22.05 4.01
-7 -7 4 22.99 4.34
-7 -7 4 22.27 4.26
7 7 -3 34.69 4.99
-7 -7 3 36.72 5.55
7 7 -2 5.95 2.12
-7 -7 2 5.56 2.3
7 7 -1 6.65 2.24
-7 -7 1 6.02 2.42
7 7 0 2.04 1.18
-7 -7 0 0.98 1.43
-7 -8 5 12.34 3.2
-7 -8 4 39.54 5.82
-8 7 2 55.71 5.57
-8 7 1 4.7 1.66
-8 7 0 1.53 1.03
-8 7 -2 0.23 1.3
-8 7 -3 7.82 3.04
8 -7 3 8.68 2.08
-8 7 -4 -0.06 1.29
8 -7 4 2.06 0.86
-8 6 3 32.69 4.16
8 -6 -2 61.96 8.4
-8 6 2 63.16 5.59
8 -6 -1 67.96 8.75
-8 6 1 62.82 5.37
-8 6 0 2.16 0.97
8 -6 0 0.12 1.28
-8 6 -1 2.04 1.26
-8 6 -1 1.44 1.36
8 -6 2 -1.28 2.03
-8 6 -2 0.15 0.93
8 -6 2 0.06 0.98
-8 6 -3 9.43 2.95
8 -6 3 17.12 3.14
8 -6 4 41.67 4.81
-8 6 -4 41.3 6.49
-8 6 -5 10.46 2.99
8 -6 5 16.99 3.32
-8 5 4 0.14 0.77
-8 5 3 3.29 1.34
8 -5 -2 40.66 6.62
-8 5 2 34.44 3.94
8 -5 -1 33.58 6.15
-8 5 1 38.32 4.08
-8 5 0 0.97 0.53
8 -5 0 1.19 1.85
8 -5 0 0.99 0.68
8 -5 1 40.42 4.42
8 -5 1 46.38 7.23
-8 5 -1 34.6 4.8
-8 5 -1 47.8 4.27
-8 5 -2 0.21 0.51
8 -5 2 0.3 1.03
8 -5 2 -0.43 0.56
-8 5 -3 0.44 0.73
8 -5 3 -0.77 2.04
-8 5 -3 -0.08 0.87
8 -5 3 0.06 0.98
8 -5 4 2.19 1.68
-8 5 -4 4.9 2.22
8 -5 4 5.3 2.12
-8 5 -5 1.54 1.23
8 -5 5 6.57 1.96
-8 5 -6 5.62 2.61
-8 4 5 8.5 2.16
-8 4 4 19.34 3.17
-8 4 3 3.04 1.36
8 -4 -2 1.85 1.54
-8 4 2 1.32 1.09
8 -4 -1 2.77 2.13
-8 4 1 2.36 1.25
8 -4 -1 3.07 1.09
8 -4 0 33.62 4
8 -4 0 31.78 5.9
-8 4 0 25.88 3.69
-8 4 0 39.54 3.99
8 -4 1 7.26 3.08
-8 4 -1 8.84 1.93
-8 4 -1 5.19 1.78
8 -4 1 4.86 1.41
8 -4 2 131.19 12.18
8 -4 2 116.78 8
-8 4 -2 106.02 8.3
-8 4 -2 112.65 6.66
8 -4 3 4.29 2.71
-8 4 -3 5.66 2.33
-8 4 -3 8.5 1.96
8 -4 3 8.93 2.25
8 -4 4 1.15 1.32
-8 4 -4 -0.09 1.49
8 -4 4 2.45 1.45
8 -4 5 5.86 2.61
-8 4 -5 1.49 1.28
8 -4 5 2.78 1.48
-8 4 -6 36.17 5.88
-8 3 6 44.99 4.94
-8 3 5 1.67 1.32
-8 3 4 -0.61 0.9
-8 3 3 0.4 0.71
8 -3 -2 6.18 2.41
-8 3 2 3.58 1.28
8 -3 -1 2.2 1.85
-8 3 1 4.57 1.51
8 -3 0 8.03 2.94
-8 3 0 4.37 1.5
-8 3 0 5.78 1.66
8 -3 0 4.08 1.38
8 -3 1 5.07 2.48
-8 3 -1 2.14 0.97
8 -3 1 2.56 1.27
-8 3 -1 2.35 1.02
8 -3 2 4.27 2.14
-8 3 -2 2.21 1.25
8 -3 2 2.26 1.27
-8 3 -2 5.18 1.58
-8 3 -3 14.09 2.36
8 -3 3 18.95 4.76
-8 3 -3 12.36 2.95
8 -3 3 14.24 3.03
-8 3 -4 0.67 0.65
8 -3 4 2.05 1.44
-8 3 -4 2.11 1.6
8 -3 4 0.53 0.93
8 -3 5 34.91 6.64
-8 3 -5 20.06 4.2
8 -3 5 31.22 4.79
-8 3 -6 6.64 2.71
8 -3 6 7.09 2.15
-8 3 -7 0.72 1.11
-8 2 6 130.98 8.32
-8 2 5 118.14 7.64
-8 2 4 24.51 3.39
-8 2 3 5.17 1.51
8 -2 -2 3.98 2.37
-8 2 2 2.37 1.29
8 -2 -1 91.28 9.08
-8 2 1 80.94 6.16
8 -2 0 11.55 3.31
-8 2 0 11.1 1.97
-8 2 0 9.83 2.2
-8 2 -1 -0.93 0.85
8 -2 1 1.69 1.46
-8 2 -1 -0.33 0.47
8 -2 1 -0.11 0.73
-8 2 -2 0.78 0.76
-8 2 -2 -0.36 0.56
8 -2 2 -0.36 0.75
-8 2 -3 3.7 1.49
8 -2 3 1.52 1.13
8 -2 4 4.7 2.72
-8 2 -4 -0.9 1.27
8 -2 4 0.94 1.21
-8 2 -4 4.24 1.65
8 -2 5 1.26 1.73
-8 2 -5 1.33 1.22
8 -2 5 3.22 1.77
-8 2 -5 2.69 1.38
-8 2 -6 -3.21 1.71
8 -2 6 -0.8 1.04
-8 2 -7 10.28 3.3
-8 1 7 128.59 8.34
-8 1 6 8.41 2.11
-8 1 5 0.17 0.87
-8 1 4 13.85 2.67
-8 1 3 31.27 3.85
8 -1 -2 2.39 1.69
-8 1 2 -1 1.29
-8 1 1 8.65 2.23
8 -1 -1 12.81 3.32
8 -1 0 4.13 2.06
-8 1 0 1.02 1.12
-8 1 0 2.32 0.83
8 -1 1 10.33 3.22
-8 1 -1 13.31 2.24
-8 1 -1 12.62 2.58
8 -1 2 2.7 1.76
-8 1 -2 0.72 0.67
8 -1 2 1.99 1.76
-8 1 -2 2.97 1.34
-8 1 -3 4.46 1.82
8 -1 3 2.61 1.95
-8 1 -3 0.07 0.84
8 -1 3 3.86 1.68
8 -1 4 5.54 2.56
-8 1 -4 4.27 1.49
-8 1 -4 5.4 1.87
8 -1 4 6.05 2.07
8 -1 5 3.86 2.49
-8 1 -5 1.13 0.74
8 -1 5 4.1 2.06
-8 1 -5 4.94 1.65
-8 1 -6 -0.13 0.73
8 -1 6 -2.22 1.84
-8 1 -6 2.45 1.56
8 -1 6 2.74 1.84
8 -1 7 4.12 2.72
-8 1 -7 5.01 2.04
-8 0 7 56.66 5.49
8 0 -6 256.01 11.23
-8 0 6 281.77 12.22
-8 0 5 1.15 1.01
-8 0 4 0.88 1.02
-8 0 3 1.57 1.18
-8 0 2 22.55 3.5
-8 0 1 59.47 5.61
8 0 -1 58 6.85
-8 0 0 45.83 5.08
8 0 0 52.87 6.65
-8 0 0 50.48 3.59
-8 0 -1 29.62 4.23
8 0 1 26.98 4.82
-8 0 -1 26.52 2.91
-8 0 -2 27.68 3.26
-8 0 -2 29.83 4.27
8 0 3 39.97 5.58
-8 0 -3 37.21 4.84
8 0 3 39.1 6.33
-8 0 -3 32.68 3.76
-8 0 -3 39.98 4.78
-8 0 -4 -0.26 1.09
8 0 4 3.8 2.16
-8 0 -4 0.91 0.93
8 0 4 1.39 1.54
-8 0 -4 0.29 0.82
8 0 5 32.09 6.07
-8 0 -5 23.42 3.52
-8 0 -5 30.46 4.44
8 0 5 35.14 5.83
-8 0 -5 34.92 4.88
8 0 6 16.22 4.44
-8 0 -6 15.4 3.05
8 0 6 10.53 3.36
-8 0 -6 14.81 3.28
8 0 7 1.99 2.03
-8 0 -7 1.33 1.51
-8 -1 7 9.37 2.43
8 1 -6 51.74 5.13
-8 -1 6 65.42 5.79
8 1 -5 0.54 0.58
-8 -1 5 -1.88 1.32
-8 -1 4 9.35 2.25
-8 -1 3 17.99 3.35
-8 -1 2 13.16 2.8
-8 -1 1 17.11 3.15
8 1 -1 13.77 3.26
8 1 0 7.8 2.43
-8 -1 0 12.53 2.77
-8 -1 0 8.17 1.37
8 1 1 51.22 6.46
-8 -1 -1 47.96 5.43
-8 -1 -1 51.3 3.78
-8 -1 -1 54.17 5.66
-8 -1 -2 15.37 3.22
8 1 2 15.91 3.82
-8 -1 -2 14.7 3.07
8 1 3 -0.38 0.99
-8 -1 -3 -0.41 1.03
8 1 4 10.4 3.18
-8 -1 -4 9.18 2.57
8 1 5 1.85 1.67
8 1 5 2.48 2.34
-8 -1 -5 0.69 0.93
8 1 6 1.8 2.29
-8 -1 -6 0.02 0.83
8 1 7 0.89 1.06
8 2 -7 3.32 1.29
-8 -2 7 4.04 1.53
8 2 -6 0.81 0.84
-8 -2 6 1.18 0.73
-8 -2 5 6.56 1.88
8 2 -5 7.72 2.32
8 2 -4 4.26 1.53
-8 -2 4 3.21 1.41
-8 -2 3 89.77 7.22
-8 -2 2 11.13 2.69
-8 -2 1 1.89 1.2
8 2 0 21.8 3.91
-8 -2 0 16.44 3.28
-8 -2 0 16.04 3.13
-8 -2 -1 6.31 2.04
8 2 1 7.76 2.52
-8 -2 -1 7.85 2.49
8 2 2 1.29 1.38
-8 -2 -2 1.45 1.13
8 2 3 3.55 1.82
-8 -2 -3 2.85 1.5
8 2 4 17.08 4.07
-8 -2 -4 15.35 3.46
8 2 5 66.95 8.18
-8 -2 -5 63.1 6.88
8 2 6 5.83 2.61
-8 -2 -6 5.32 1.92
-8 -2 -7 29.03 4.89
8 3 -7 3.22 1.55
-8 -3 7 2.02 1.14
8 3 -6 1.2 1
-8 -3 6 1.04 0.64
8 3 -5 3.16 1.65
-8 -3 5 2.12 1.14
8 3 -4 7.71 2.14
-8 -3 4 8.5 2.39
-8 -3 3 6.1 2.14
8 3 -3 5.54 1.93
8 3 -2 75.74 7.02
-8 -3 2 87.88 7.58
-8 -3 1 56.32 6.22
-8 -3 1 47.94 5.61
-8 -3 0 1.37 1.4
-8 -3 0 2.25 1.52
8 3 1 12.77 2.94
-8 -3 -1 10.4 2.88
8 3 2 2.5 1.32
-8 -3 -2 9.49 2.7
8 3 3 9.38 2.73
-8 -3 -3 15.88 3.57
-8 -3 -4 0.69 0.81
-8 -3 -5 15.43 3.52
-8 -3 -6 -0.48 1.51
8 4 -7 1.26 1.26
-8 -4 7 2.84 1.29
-8 -4 6 6.75 2
8 4 -6 6.45 2.14
8 4 -5 -0.84 1.05
-8 -4 5 -1.27 1.06
8 4 -4 6.31 1.89
-8 -4 4 5.66 2.09
8 4 -3 2.83 1.6
-8 -4 3 3.44 1.71
-8 -4 2 4.43 1.89
8 4 -2 3.66 1.66
-8 -4 2 5.59 2.37
-8 -4 1 0.29 0.75
8 4 -1 -0.2 0.93
-8 -4 1 1.69 1.52
8 4 0 29.83 4.75
-8 -4 0 31.91 4.9
8 4 1 34.72 4.99
-8 -4 -1 32.76 5.03
-8 -4 -2 30.97 5.06
-8 -4 -3 10.52 2.99
-8 -4 -4 0.56 0.74
8 5 -7 3.76 1.69
8 5 -6 21.75 3.9
-8 -5 6 28.53 4.46
8 5 -5 11.06 2.83
-8 -5 5 13.72 2.83
8 5 -4 3.93 1.9
-8 -5 4 1.81 1.58
8 5 -3 21.03 3.93
-8 -5 3 31.12 4.73
-8 -5 3 27.44 4.55
8 5 -2 1.25 0.84
-8 -5 2 2.39 1.13
-8 -5 2 4.07 1.85
8 5 -1 5.23 1.97
-8 -5 1 4.68 2.13
8 5 0 1.5 1.49
-8 -5 0 -0.32 0.79
8 5 1 0.02 0.6
-8 -5 -1 2.02 1.44
8 5 2 -0.16 0.99
-8 -5 -2 -0.54 1.35
-8 -6 4 9.61 2.65
-8 -6 3 -0.72 0.96
-8 -6 2 -0.74 1.69
-9 6 1 15.1 2.84
-9 6 0 -0.12 0.86
-9 5 2 14.78 2.82
-9 5 1 20.57 3.28
-9 5 0 14.86 2.76
-9 5 -1 26.89 3.55
9 -5 2 7.34 2.32
9 -5 3 0.54 1.02
9 -5 4 28.78 4.63
-9 4 3 9.13 2.21
9 -4 -2 3.33 2.19
-9 4 2 3.43 1.56
9 -4 -1 21.19 5.02
-9 4 1 17.48 3.11
9 -4 0 -0.38 1.06
-9 4 0 2.03 1.23
9 -4 1 40.45 5.17
9 -4 1 40.26 7.08
-9 4 -1 35.78 4.03
9 -4 2 0.14 1.12
-9 4 -2 1.83 1
9 -4 2 -0.43 0.89
9 -4 3 3.11 1.44
-9 4 -4 1.73 1.74
9 -4 4 2.92 1.43
-9 4 -5 17.88 4.23
-9 3 4 5.5 1.88
-9 3 3 28.4 3.9
9 -3 -2 -2.27 1.73
-9 3 2 0.21 0.94
9 -3 -1 25.65 5.41
-9 3 1 32.22 4.03
9 -3 0 18.68 4.51
-9 3 0 22.55 3.41
9 -3 1 2.98 1.99
9 -3 1 0.7 1.05
-9 3 -1 -0.19 1.03
9 -3 2 2.05 0.95
9 -3 2 1.72 1.83
-9 3 -2 0.07 0.84
9 -3 3 30.39 6.25
9 -3 3 30.06 4.84
-9 3 -3 31.18 3.92
-9 3 -4 2.24 1.45
9 -3 4 1.19 0.83
-9 3 -5 9.85 3.22
-9 3 -6 36.12 5.94
-9 2 4 1.56 0.8
-9 2 3 32.92 4.22
-9 2 2 8.11 2.09
9 -2 -1 0.23 0.87
-9 2 1 2.39 1.43
9 -2 0 27.43 5.41
-9 2 0 14.89 2.82
-9 2 -1 8.83 2.22
9 -2 1 8.31 2.97
-9 2 -2 20.18 3.5
9 -2 2 19.08 4.72
9 -2 2 16.98 3.77
9 -2 3 0.59 1.45
-9 2 -3 1.01 1.15
-9 2 -3 3.22 1.67
9 -2 3 -0.39 0.86
9 -2 4 1.26 2.48
-9 2 -4 -1.24 1.31
-9 2 -4 -1.02 1.37
9 -2 4 -2.57 1.65
-9 2 -5 3.75 1.91
-9 2 -6 16.51 3.87
-9 1 5 2.92 1.35
-9 1 4 17.71 3.15
-9 1 3 20.21 3.36
-9 1 2 -0.25 0.65
-9 1 1 0.13 0.76
9 -1 -1 -1.36 1.34
-9 1 0 10.64 2.38
9 -1 0 7.19 2.82
-9 1 -1 36.35 4.74
9 -1 1 40.72 6.57
9 -1 2 37.6 6.59
-9 1 -2 32.5 4.46
9 -1 3 -1.42 2.33
-9 1 -3 0.73 0.78
9 -1 3 2.08 1.03
-9 1 -3 1.52 1.32
-9 1 -4 10.79 2.75
9 -1 4 10.8 3.88
-9 1 -4 7.91 2.32
9 -1 4 7.85 2.5
-9 1 -5 1.16 0.98
9 -1 5 -2.9 2.13
-9 1 -5 -0.6 1.76
-9 1 -6 6.52 2.41
-9 0 5 13.83 2.88
-9 0 4 3.17 1.54
-9 0 3 14.56 2.9
-9 0 2 -0.41 0.98
9 0 -1 2.02 1.3
-9 0 1 1.48 1.04
-9 0 0 110.44 8.4
9 0 0 89.24 9.26
-9 0 -1 73.63 6.89
9 0 1 55.56 7.51
-9 0 -2 67.07 6.77
9 0 2 76.34 9.1
9 0 3 0.67 1.03
-9 0 -3 1.38 0.95
-9 0 -3 0.31 1
9 0 4 6.34 3.02
-9 0 -4 5.73 1.99
-9 0 -4 3.91 1.8
-9 0 -5 -1.26 1.68
9 0 5 0.01 1.53
-9 0 -5 2.66 1.51
-9 0 -5 1.63 1.37
-9 0 -6 2.69 1.17
9 1 -6 22.1 3.76
9 1 -5 5.52 2.01
-9 -1 5 7.78 2.12
-9 -1 4 15.53 3.1
-9 -1 3 26.21 3.98
-9 -1 2 1.83 1.22
-9 -1 1 1.03 0.98
-9 -1 0 13.54 3.22
9 1 0 9.03 3.15
9 1 1 9.61 3.27
-9 -1 -1 7.58 2.51
9 1 2 11.2 3.45
-9 -1 -2 16.07 3.44
-9 -1 -2 9.79 2.64
9 1 3 2.14 1.34
-9 -1 -3 2.1 1.33
-9 -1 -3 4.16 1.82
-9 -1 -4 9.85 2.77
9 1 4 5.76 2.44
-9 -1 -4 11.71 2.48
-9 -1 -4 8.55 2.49
9 1 5 2.73 2.1
-9 -1 -5 1.59 1.08
-9 -1 -5 0.84 1.1
-9 -1 -5 -0.32 1.1
-9 -1 -6 5.51 1.84
9 2 -6 3.08 1.41
9 2 -5 6.25 2.1
9 2 -4 1.97 1.46
-9 -2 4 3.65 1.61
-9 -2 3 8.57 2.53
-9 -2 2 1.41 1.28
-9 -2 1 7.79 2.46
9 2 0 -0.34 0.82
-9 -2 0 -0.02 1.09
-9 -2 -1 40.19 5.5
9 2 1 40.46 5.97
-9 -2 -1 46.68 5.81
9 2 2 0.79 1.04
-9 -2 -2 1.93 1.2
-9 -2 -2 1.6 1.68
9 2 3 4.2 2.31
-9 -2 -3 4.75 2.11
-9 -2 -3 10.12 2.81
-9 -2 -4 10.15 2.8
-9 -2 -5 10.1 3
9 3 -6 0.92 1.32
9 3 -5 1.26 1.19
9 3 -4 1.96 1.44
-9 -3 4 0.83 0.91
9 3 -3 39.5 5.27
-9 -3 3 41.87 5.44
-9 -3 2 4.28 2.05
9 3 -2 0.73 1.44
-9 -3 1 1.33 1.14
-9 -3 0 3.48 1.99
-9 -3 0 3.52 1.67
-9 -3 -1 39.58 5.77
-9 -3 -1 37.04 5.54
-9 -3 -2 18.35 3.88
-9 -3 -3 10.31 2.98
9 4 -6 2.12 1.72
9 4 -5 37.45 5.24
9 4 -4 68.48 7.28
9 4 -3 1.23 1.27
9 4 -2 4.92 2.14
-10 4 0 15.87 3.04
-10 4 -1 0.26 0.76
-10 3 0 2.83 1.36
-10 3 -1 1.94 1.27
10 -3 2 7.11 2.97
-10 3 -2 8.67 2.17
10 -3 3 -0.07 1.72
-10 2 0 6.74 2.02
-10 2 -1 1.72 1.44
-10 2 -2 0.14 0.71
-10 2 -3 32.63 4.61
10 -2 3 22.02 4.83
10 -1 -1 3.2 1.62
-10 1 0 -3.65 1.63
10 -1 0 0.86 1.19
-10 1 -1 8.54 2.35
10 -1 1 3.32 2.18
10 -1 2 4.6 2.61
-10 1 -2 5.26 1.81
-10 1 -3 0.89 1.14
10 0 0 1.19 1.68
10 0 1 0.13 1.17
10 0 2 15.93 4.55
10 0 3 -0.29 1.3
10 1 -5 0.88 0.91
10 1 0 -0.19 1.88
10 1 1 17.37 4.3
10 1 2 13.82 3.81
10 1 3 -1.1 1.9
