#------------------------------------------------------------------------------
#$Date: 2020-10-19 10:35:42 +0300 (Mon, 19 Oct 2020) $
#$Revision: 258458 $
#$URL: file:///home/coder/svn-repositories/cod/cif/4/03/75/4037550.cif $
#------------------------------------------------------------------------------
#
# This file is available in the Crystallography Open Database (COD),
# http://www.crystallography.net/
#
# All data on this site have been placed in the public domain by the
# contributors.
#
data_4037550
loop_
_publ_author_name
'Li, Xinhong'
'Wang, Songmeng'
'Li, Shengli'
'Li, Kangming'
'Mo, Xin'
'Liu, Lingyan'
'Chang, Weixing'
'Li, Jing'
_publ_section_title
;
 Temperature-Controlled Divergent Hydroamination Cyclization
 [2+2]-Cycloaddition Cascade Reactions of Homopropargylic Amines with
 2-Butynedioates: Direct Access To Pyrrolo- b-cyclobutene and Dihydro-1
 H-azepines.
;
_journal_issue                   3
_journal_name_full               'The Journal of organic chemistry'
_journal_page_first              1288
_journal_page_last               1298
_journal_paper_doi               10.1021/acs.joc.8b02730
_journal_volume                  84
_journal_year                    2019
_chemical_absolute_configuration unk
_chemical_formula_moiety         'C28 H29 N O5'
_chemical_formula_sum            'C28 H29 N O5'
_chemical_formula_weight         459.58
_space_group_crystal_system      triclinic
_space_group_IT_number           1
_space_group_name_Hall           'P 1'
_space_group_name_H-M_alt        'P 1'
_symmetry_Int_Tables_number      1
_atom_sites_solution_primary     dual
_audit_creation_date             2018-05-13
_audit_creation_method
;
Olex2 1.2
(compiled 2017.08.10 svn.r3458 for OlexSys, GUI svn.r5381)
;
_cell_angle_alpha                73.997(14)
_cell_angle_beta                 75.084(14)
_cell_angle_gamma                62.95(2)
_cell_formula_units_Z            1
_cell_length_a                   7.9305(16)
_cell_length_b                   8.0260(16)
_cell_length_c                   10.9367(14)
_cell_measurement_reflns_used    597
_cell_measurement_temperature    120.00(10)
_cell_measurement_theta_max      24.8120
_cell_measurement_theta_min      3.7540
_cell_volume                     588.8(2)
_computing_cell_refinement
;
CrysAlisPro, Agilent Technologies,
Version 1.171.36.32 (release 02-08-2013 CrysAlis171 .NET)
(compiled Aug  2 2013,16:46:58)
;
_computing_data_collection
;
CrysAlisPro, Agilent Technologies,
Version 1.171.36.32 (release 02-08-2013 CrysAlis171 .NET)
(compiled Aug  2 2013,16:46:58)
;
_computing_data_reduction
;
CrysAlisPro, Agilent Technologies,
Version 1.171.36.32 (release 02-08-2013 CrysAlis171 .NET)
(compiled Aug  2 2013,16:46:58)
;
_computing_molecular_graphics    'Olex2 (Dolomanov et al., 2009)'
_computing_publication_material  'Olex2 (Dolomanov et al., 2009)'
_computing_structure_refinement  'olex2.refine (Bourhis et al., 2015)'
_computing_structure_solution    'ShelXT (Sheldrick, 2015)'
_diffrn_ambient_temperature      120.00(10)
_diffrn_detector_area_resol_mean 16.2116
_diffrn_measured_fraction_theta_full 0.4727
_diffrn_measured_fraction_theta_max 0.4727
_diffrn_measurement_details
;
#__ type_ start__ end____ width___ exp.time_
  1 omega  -41.00   26.00   1.0000    3.0600
omega____ theta____ kappa____ phi______ frames
    -       18.5490  -57.0000 -120.0000 67

#__ type_ start__ end____ width___ exp.time_
  2 omega   66.00   93.00   1.0000    3.0600
omega____ theta____ kappa____ phi______ frames
    -       18.5490  178.0000 -120.0000 27

#__ type_ start__ end____ width___ exp.time_
  3 omega  -52.00   63.00   1.0000    3.0600
omega____ theta____ kappa____ phi______ frames
    -       18.5490  -19.0000  -60.0000 115
;
_diffrn_measurement_device_type  'SuperNova, Single source at offset, Eos'
_diffrn_measurement_method       '\w scans'
_diffrn_orient_matrix_UB_11      -0.0894474000
_diffrn_orient_matrix_UB_12      0.0244664000
_diffrn_orient_matrix_UB_13      -0.0178189000
_diffrn_orient_matrix_UB_21      0.0407845000
_diffrn_orient_matrix_UB_22      0.0112905000
_diffrn_orient_matrix_UB_23      -0.0659145000
_diffrn_orient_matrix_UB_31      0.0258161000
_diffrn_orient_matrix_UB_32      -0.0972963000
_diffrn_orient_matrix_UB_33      0.0009320000
_diffrn_radiation_monochromator  mirror
_diffrn_radiation_type           'Mo K\a'
_diffrn_radiation_wavelength     0.71073
_diffrn_reflns_av_R_equivalents  0.0298
_diffrn_reflns_av_unetI/netI     0.0701
_diffrn_reflns_limit_h_max       6
_diffrn_reflns_limit_h_min       -9
_diffrn_reflns_limit_k_max       6
_diffrn_reflns_limit_k_min       -8
_diffrn_reflns_limit_l_max       12
_diffrn_reflns_limit_l_min       -12
_diffrn_reflns_number            2066
_diffrn_reflns_theta_full        25.0186
_diffrn_reflns_theta_max         25.02
_diffrn_reflns_theta_min         2.90
_diffrn_source                   'SuperNova (Mo) X-ray Source'
_exptl_absorpt_coefficient_mu    0.089
_exptl_absorpt_correction_T_max  1.00000
_exptl_absorpt_correction_T_min  0.51795
_exptl_absorpt_correction_type   multi-scan
_exptl_absorpt_process_details
;
CrysAlisPro, Agilent Technologies,
Version 1.171.36.32 (release 02-08-2013 CrysAlis171 .NET)
(compiled Aug  2 2013,16:46:58)
Empirical absorption correction using spherical harmonics,
 implemented in SCALE3 ABSPACK scaling algorithm.
;
_exptl_crystal_colour
;
;
_exptl_crystal_density_diffrn    1.2959
_exptl_crystal_description
;
;
_exptl_crystal_F_000             244.1293
_refine_diff_density_max         0.1821
_refine_diff_density_min         -0.2235
_refine_diff_density_rms         0.0425
_refine_ls_abs_structure_details
'Flack, H. D. (1983). Acta Cryst. A39, 876-881.'
_refine_ls_abs_structure_Flack   0(2)
_refine_ls_d_res_high            0.8403
_refine_ls_d_res_low             7.0256
_refine_ls_goodness_of_fit_ref   0.9614
_refine_ls_hydrogen_treatment    constr
_refine_ls_matrix_type           full
_refine_ls_number_constraints    51
_refine_ls_number_parameters     309
_refine_ls_number_reflns         1955
_refine_ls_number_restraints     3
_refine_ls_restrained_S_all      0.9614
_refine_ls_R_factor_all          0.0639
_refine_ls_R_factor_gt           0.0573
_refine_ls_shift/su_max          0.6806
_refine_ls_shift/su_mean         0.1330
_refine_ls_structure_factor_coef Fsqd
_refine_ls_weighting_details
'w=1/[\s^2^(Fo^2^)+(0.1P)^2^] where P=(Fo^2^+2Fc^2^)/3'
_refine_ls_weighting_scheme      calc
_refine_ls_wR_factor_gt          0.1398
_refine_ls_wR_factor_ref         0.1529
_reflns_Friedel_coverage         0.108
_reflns_limit_h_max              6
_reflns_limit_h_min              -9
_reflns_limit_k_max              6
_reflns_limit_k_min              -8
_reflns_limit_l_max              12
_reflns_limit_l_min              -12
_reflns_number_gt                1708
_reflns_number_total             1955
_reflns_threshold_expression     I>=2u(I)
_iucr_refine_instructions_details
;
TITL a_a.res in P1
REM Old TITL A in P-1
REM SHELXT solution in P1
REM R1 0.116, Rweak 0.035, Alpha 0.000, Orientation as input
REM Flack x = -0.237 ( 3.078 ) from Parsons' quotients
REM Formula found by SHELXT: C28 N O5
CELL 0.71073 7.9305 8.026 10.9367 73.997 75.084 62.951
ZERR 22 0.0016 0.0016 0.0014 0.014 0.014 0.02
LATT -1
SFAC C N O H
UNIT 22 22 22 1

L.S. 10
PLAN  20
FMAP 2
list 4
ACTA 
WGHT 0.1
FVAR 1.602591
REM <olex2.extras>
REM <HklSrc "%.\\A.hkl">
REM </olex2.extras>

O001  3     0.71578  0.41216  0.38558  11.00000  0.02284  0.02186  0.03486 =
 -0.00507 -0.00884 -0.00878 
O002  3     0.62748  0.29584  0.19250  11.00000  0.02872  0.01763  0.03819 =
 -0.01389 -0.00152 -0.01096 
O003  3     0.77153  0.64029  0.22876  11.00000  0.02814  0.02495  0.03561 =
 -0.00223 -0.00637 -0.01387 
O004  3     0.19462  0.86294  0.18452  11.00000  0.03030  0.01506  0.03520 =
 -0.00808 -0.01118 -0.00920 
O005  3     0.36291  0.23875  0.27215  11.00000  0.03712  0.01756  0.03940 =
 -0.00877 -0.00725 -0.01243 
N006  2     0.37100  0.62288  0.54330  11.00000  0.03217  0.01905  0.02645 =
 -0.00482 -0.00487 -0.01417 
C007  1     0.66414  0.57021  0.29533  11.00000  0.02454  0.02252  0.01953 =
 -0.01069 -0.00246 -0.01009 
C008  1     0.44837  0.33938  0.24805  11.00000  0.02692  0.02004  0.02852 =
 -0.00317 -0.00927 -0.01168 
C009  1     0.34393  0.54295  0.27451  11.00000  0.02664  0.01642  0.02685 =
 -0.00653 -0.00811 -0.01338 
C00A  1     0.26282  0.42782  0.74445  11.00000  0.03062  0.02194  0.02675 =
 -0.00474 -0.00659 -0.01487 
C00B  1     0.48588  0.76516  0.05210  11.00000  0.03742  0.01890  0.02649 =
 -0.00258 -0.01067 -0.01022 
AFIX 43
H00B  4     0.58798  0.78477 -0.00415  11.00000 -1.20000 
AFIX 0
C00C  1     0.24096  0.68078  0.15536  11.00000  0.03512  0.00930  0.03483 =
 -0.00625 -0.01255 -0.00833 
AFIX 13
H00C  4     0.13135  0.66353  0.14452  11.00000 -1.20000 
AFIX 0
C00D  1     0.30566  0.70088  0.42092  11.00000  0.02466  0.01913  0.02283 =
 -0.00887 -0.00283 -0.00911 
AFIX 13
H00D  4     0.21712  0.83564  0.41433  11.00000 -1.20000 
AFIX 0
C00E  1     0.15769  0.58702  0.80262  11.00000  0.03390  0.01992  0.02879 =
 -0.00485 -0.00971 -0.01300 
AFIX 43
H00E  4     0.15631  0.70464  0.75877  11.00000 -1.20000 
AFIX 0
C00F  1     0.59544  0.57568  0.68050  11.00000  0.03291  0.01879  0.03135 =
 -0.00897 -0.00855 -0.01062 
AFIX 43
H00F  4     0.58183  0.46582  0.72815  11.00000 -1.20000 
AFIX 0
C00G  1     0.26963  0.25322  0.81357  11.00000  0.03217  0.01977  0.03835 =
 -0.00221 -0.00908 -0.00872 
AFIX 43
H00G  4     0.34410  0.14475  0.77743  11.00000 -1.20000 
AFIX 0
C00H  1     0.05514  0.57124  0.92539  11.00000  0.03069  0.02814  0.03214 =
 -0.01539 -0.00342 -0.00842 
AFIX 43
H00H  4    -0.01756  0.67899  0.96252  11.00000 -1.20000 
AFIX 0
C00I  1     0.49452  0.67884  0.57687  11.00000  0.02895  0.02067  0.02727 =
 -0.00918 -0.00371 -0.01465 
C00J  1     0.52195  0.84096  0.50542  11.00000  0.03514  0.02369  0.03161 =
 -0.00328 -0.01348 -0.01399 
AFIX 43
H00J  4     0.45730  0.91203  0.43571  11.00000 -1.20000 
AFIX 0
C00K  1     0.45307  0.65848  0.29028  11.00000  0.02653  0.01731  0.01854 =
 -0.00424 -0.00341 -0.01281 
C00L  1     0.39265  0.83319  0.17795  11.00000  0.02611  0.01359  0.03660 =
 -0.00997 -0.00372 -0.00861 
AFIX 13
H00L  4     0.40818  0.94393  0.18591  11.00000 -1.20000 
AFIX 0
C00M  1     0.39279  0.67118  0.03742  11.00000  0.04021  0.01654  0.02669 =
 -0.00580 -0.00678 -0.01354 
AFIX 43
H00M  4     0.41620  0.61200 -0.03104  11.00000 -1.20000 
AFIX 0
C00N  1     0.21309  0.58075  0.40312  11.00000  0.02625  0.02125  0.03476 =
 -0.00970 -0.00109 -0.01330 
AFIX 13
H00N  4     0.07805  0.65583  0.39282  11.00000 -1.20000 
AFIX 0
C00O  1     0.74028  0.79530  0.64210  11.00000  0.03533  0.02969  0.04854 =
 -0.00538 -0.01573 -0.01984 
AFIX 43
H00O  4     0.82034  0.83453  0.66434  11.00000 -1.20000 
AFIX 0
C00P  1     0.16651  0.23813  0.93629  11.00000  0.05109  0.02592  0.03841 =
 0.00773 -0.01097 -0.02225 
AFIX 43
H00P  4     0.16909  0.12030  0.98070  11.00000 -1.20000 
AFIX 0
C00Q  1     0.36147  0.43960  0.60445  11.00000  0.02703  0.01680  0.03058 =
 -0.00885  0.00052 -0.01251 
AFIX 13
H00Q  4     0.49050  0.33670  0.59807  11.00000 -1.20000 
AFIX 0
C00R  1     0.72975  0.11287  0.14786  11.00000  0.03804  0.01419  0.05447 =
 -0.00924 -0.00996 -0.01069 
AFIX 23
H00a  4     0.86587  0.06510  0.14912  11.00000 -1.20000 
H00i  4     0.68426  0.02048  0.20480  11.00000 -1.20000 
AFIX 0
C00S  1     0.94547  0.17253  0.51790  11.00000  0.03263  0.02392  0.04523 =
 -0.00584 -0.01125 -0.00650 
AFIX 137
H00k  4     0.92380  0.07215  0.50259  11.00000 -1.50000 
H00r  4     1.07435  0.12368  0.53427  11.00000 -1.50000 
H00s  4     0.85719  0.22167  0.59114  11.00000 -1.50000 
AFIX 0
C00T  1     0.06012  0.39635  0.99312  11.00000  0.03338  0.04188  0.02721 =
 -0.00776 -0.00167 -0.01894 
AFIX 43
H00T  4    -0.00745  0.38557  1.07599  11.00000 -1.20000 
AFIX 0
C00U  1     0.23974  0.42049  0.52193  11.00000  0.04455  0.03625  0.02580 =
 -0.00895 -0.00085 -0.02690 
AFIX 23
H00u  4     0.11608  0.43110  0.57182  11.00000 -1.20000 
H00v  4     0.30486  0.29751  0.49554  11.00000 -1.20000 
AFIX 0
C00V  1     0.91627  0.32674  0.40340  11.00000  0.02853  0.04159  0.05610 =
 -0.00041 -0.02133 -0.01270 
AFIX 23
H00w  4     0.99796  0.27572  0.32778  11.00000 -1.20000 
H00x  4     0.95019  0.42270  0.41494  11.00000 -1.20000 
AFIX 0
C00W  1     0.71398  0.63277  0.71347  11.00000  0.03789  0.03385  0.03703 =
 0.00075 -0.01533 -0.01733 
AFIX 43
H00y  4     0.77740  0.56284  0.78385  11.00000 -1.20000 
AFIX 0
C00X  1     0.64424  0.89670  0.53735  11.00000  0.02815  0.02464  0.03857 =
 -0.00422 -0.00437 -0.01410 
AFIX 43
H00z  4     0.66227  1.00359  0.48790  11.00000 -1.20000 
AFIX 0
C00Y  1     0.69531  0.14033  0.01107  11.00000  0.05667  0.02856  0.05244 =
 -0.01761 -0.00177 -0.01881 
AFIX 137
H00   4     0.73643  0.23511 -0.04429  11.00000 -1.50000 
H     4     0.76665  0.02216 -0.01959  11.00000 -1.50000 
Ha    4     0.56121  0.18096  0.01114  11.00000 -1.50000 
AFIX 0
HKLF 4

END
Q1 1 0.916667 0.583333 0.222222 11 0.05 0.18
Q2 1 0.75 0.916667 0.472222 11 0.05 0.16
Q3 1 0.541667 0.583333 0.361111 11 0.05 0.16
Q4 1 0.583333 0.708333 0.194444 11 0.05 0.15
Q5 1 0.583333 0.416667 0.444444 11 0.05 0.15
Q6 1 0.083333 0.625 0.194444 11 0.05 0.14
Q7 1 0.708333 0.75 0 11 0.05 0.14
Q8 1 0.166667 0.541667 0.333333 11 0.05 0.14
Q9 1 0.25 0.666667 0.611111 11 0.05 0.14
Q10 1 0.333333 0.5 0.805556 11 0.05 0.13
Q11 1 0.458333 0.541667 0.805556 11 0.05 0.13
Q12 1 0.708333 0.708333 0.138889 11 0.05 0.13
Q13 1 1.25 0.083333 0.416667 11 0.05 0.13
Q14 1 0.375 0.083333 1.027778 11 0.05 0.12
Q15 1 0.25 0.208333 0.333333 11 0.05 0.12
Q16 1 0.75 0.5 -0.027778 11 0.05 0.12
Q17 1 0.333333 0.625 0.333333 11 0.05 0.12
Q18 1 0.625 0.291667 0.194444 11 0.05 0.12
Q19 1 0.541667 0.25 -0.111111 11 0.05 0.12
Q20 1 1.166667 0.416667 0.194444 11 0.05 0.11

  REM The information below was added by Olex2.
  REM
  REM R1 = 0.0573 for 1708 Fo > 4sig(Fo) and 0.0639 for all 1955 data
  REM 309 parameters refined using 3 restraints
  REM Highest difference peak 0.1821, deepest hole -0.2235
  REM Mean Shift 0.1330, Max Shift 0.6806.

  REM +++ Tabular Listing of Refinement Information +++
  REM R1_all = 0.0639
  REM R1_gt = 0.0573
  REM wR_ref = 0.1529
  REM GOOF = 0.9614
  REM Shift_max = 0.6806
  REM Shift_mean = 0.1330
  REM Reflections_all = 1955
  REM Reflections_gt = 1708
  REM Parameters = 309
  REM Hole = -0.2235
  REM Peak = 0.1821
  REM Flack = 0(2)
;
_cod_data_source_file            jo8b02730_si_004.cif
_cod_data_source_block           A
_cod_depositor_comments
;

2020-10-10
Z value and formula fixed to values more according to usual
chemical conventions.                 miguel
;
_cod_original_formula_sum            'C1.273 H1.318 N0.045 O0.227'
_cod_original_formula_weight         20.89
_cod_original_formula_moiety         '0.05(C28 H29 N O5)'
_cod_original_formula_units_Z            22
_cod_original_sg_symbol_Hall     ' P 1'
_cod_database_code               4037550
_chemical_oxdiff_formula         'C N O'
_reflns_odcompleteness_completeness 72.17
_reflns_odcompleteness_iscentric 1
_reflns_odcompleteness_theta     26.32
_olex2_refinement_description
;
1. Fixed Uiso
 At 1.2 times of:
  All C(H) groups, All C(H,H) groups
 At 1.5 times of:
  All C(H,H,H) groups
2.a Ternary CH refined with riding coordinates:
 C00C(H00C), C00D(H00D), C00L(H00L), C00N(H00N), C00Q(H00Q)
2.b Secondary CH2 refined with riding coordinates:
 C00R(H00a,H00i), C00U(H00u,H00v), C00V(H00w,H00x)
2.c Aromatic/amide H refined with riding coordinates:
 C00B(H00B), C00E(H00E), C00F(H00F), C00G(H00G), C00H(H00H), C00J(H00J),
 C00M(H00M), C00O(H00O), C00P(H00P), C00T(H00T), C00W(H00y), C00X(H00z)
2.d Idealised Me refined as rotating group:
 C00S(H00k,H00r,H00s), C00Y(H00,H,Ha)
;
_iucr_refine_fcf_details
;
data_A
_computing_structure_refinement   'olex2.refine (Bourhis et al., 2015)'
_shelx_refln_list_code            4
loop_
  _space_group_symop_id
  _space_group_symop_operation_xyz
  1  x,y,z

_space_group_crystal_system       triclinic
_space_group_IT_number            1
_space_group_name_H-M_alt         'P 1'
_space_group_name_Hall            ' P 1'
_symmetry_space_group_name_H-M    'P 1'
_symmetry_space_group_name_Hall   ' P 1'
_symmetry_Int_Tables_number       1
_cell_length_a                    7.9305(16)
_cell_length_b                    8.0260(16)
_cell_length_c                    10.9367(14)
_cell_angle_alpha                 73.997(14)
_cell_angle_beta                  75.084(14)
_cell_angle_gamma                 62.95(2)
_cell_volume                      588.8(2)
loop_
  _refln_index_h
  _refln_index_k
  _refln_index_l
  _refln_F_squared_calc
  _refln_F_squared_meas
  _refln_F_squared_sigma
  _refln_F_squared_weight
  _refln_observed_status
-9 -6 -6 2.722 0.238 0.732 2186.340 o
-9 -6 -5 16.996 24.740 7.842 19.133 o
-9 -6 -4 8.470 9.232 5.108 46.535 o
-9 -6 -3 4.512 2.169 1.881 340.003 o
-9 -6 -2 18.535 26.048 8.399 16.673 o
-9 -5 -6 20.271 18.331 6.339 28.387 o
-9 -5 -5 13.096 13.558 5.685 36.683 o
-9 -5 -4 0.727 0.105 2.546 192.657 o
-9 -5 -3 12.547 11.883 5.517 39.107 o
-9 -5 -2 8.334 10.902 5.264 43.767 o
-9 -5 -1 18.245 25.803 8.079 17.961 o
-9 -5 0 8.168 14.714 5.813 35.848 o
-9 -4 -6 20.363 17.358 6.452 27.547 o
-9 -4 -5 37.595 34.221 8.800 13.777 o
-9 -4 -4 28.190 32.578 8.819 14.438 o
-9 -4 -3 3.952 0.128 1.409 607.201 o
-9 -4 -2 29.184 22.221 7.079 21.806 o
-9 -4 -1 26.182 42.297 10.361 10.655 o
-9 -4 0 12.161 11.650 5.420 40.562 o
-9 -3 -6 1.639 6.160 4.018 76.932 o
-9 -3 -5 2.633 3.372 1.927 329.105 o
-9 -3 -4 11.869 13.379 5.393 40.829 o
-9 -3 -3 53.645 62.419 11.953 7.148 o
-9 -3 -2 33.638 31.044 8.605 14.743 o
-9 -3 -1 27.037 22.840 7.441 20.181 o
-9 -3 0 0.220 -1.846 2.134 274.497 o
-9 -2 -4 3.170 5.981 3.808 85.197 o
-9 -2 -3 14.452 16.637 6.374 29.113 o
-9 -2 -2 33.396 45.419 10.968 9.307 o
-9 -2 -1 20.557 28.151 8.192 17.253 o
-8 -8 -5 80.135 83.394 12.378 5.704 o
-8 -8 -4 14.787 14.021 4.828 49.166 o
-8 -8 -3 15.378 16.338 5.712 35.619 o
-8 -7 -8 79.910 97.228 13.986 4.647 o
-8 -7 -7 52.718 64.303 11.272 7.859 o
-8 -7 -6 23.625 23.794 6.623 25.265 o
-8 -7 -5 25.282 36.351 8.523 15.424 o
-8 -7 -4 10.783 6.506 3.567 91.931 o
-8 -7 -3 16.506 12.362 4.894 47.631 o
-8 -7 -2 9.439 6.113 3.672 88.171 o
-8 -7 -1 23.754 19.604 6.319 27.814 o
-8 -7 0 8.288 18.218 6.300 30.458 o
-8 -6 -9 6.456 6.058 3.570 95.057 o
-8 -6 -8 13.131 13.437 5.354 41.095 o
-8 -6 -7 8.459 7.028 4.003 75.027 o
-8 -6 -6 22.419 12.370 4.661 49.295 o
-8 -6 -5 4.526 7.406 4.034 75.414 o
-8 -6 -4 46.436 57.096 10.859 8.747 o
-8 -6 -3 37.798 32.095 8.142 15.789 o
-8 -6 -2 7.815 9.765 4.696 54.898 o
-8 -6 -1 1.932 3.352 3.115 128.044 o
-8 -6 0 24.696 21.127 6.607 25.414 o
-8 -6 1 46.381 58.440 11.369 8.082 o
-8 -6 2 17.223 14.367 5.914 33.217 o
-8 -5 -9 41.723 52.054 10.532 9.518 o
-8 -5 -8 9.845 7.729 4.166 68.702 o
-8 -5 -7 4.006 2.492 2.986 138.232 o
-8 -5 -6 12.017 11.428 4.668 53.893 o
-8 -5 -5 1.668 0.421 1.608 480.396 o
-8 -5 -4 99.033 99.587 14.531 4.038 o
-8 -5 -3 107.125 110.252 15.501 3.500 o
-8 -5 -2 32.359 25.877 7.273 20.155 o
-8 -5 -1 45.962 49.332 10.474 9.479 o
-8 -5 0 29.904 51.357 10.746 9.673 o
-8 -5 1 31.581 41.841 9.921 11.294 o
-8 -5 2 1.838 1.795 1.312 712.133 o
-8 -5 3 24.098 20.660 7.047 22.753 o
-8 -4 -9 17.057 17.669 6.058 31.495 o
-8 -4 -8 4.841 10.174 4.376 63.793 o
-8 -4 -7 4.563 4.260 2.838 151.384 o
-8 -4 -6 31.569 23.303 6.829 22.751 o
-8 -4 -5 72.573 66.546 11.502 6.866 o
-8 -4 -4 114.497 102.188 14.258 3.845 o
-8 -4 -3 1.403 -2.496 2.219 253.280 o
-8 -4 -2 6.824 7.822 4.135 70.969 o
-8 -4 -1 26.498 26.103 7.659 19.052 o
-8 -4 0 2.235 0.759 1.460 577.993 o
-8 -4 1 19.430 19.702 6.810 24.905 o
-8 -4 2 22.042 25.344 7.554 20.026 o
-8 -4 3 57.711 68.941 13.001 6.045 o
-8 -3 -9 0.072 1.857 3.115 128.748 o
-8 -3 -8 29.830 29.934 7.959 17.299 o
-8 -3 -7 71.092 74.489 12.074 6.316 o
-8 -3 -6 22.502 21.166 6.658 25.407 o
-8 -3 -5 24.680 21.575 6.386 26.959 o
-8 -3 -4 0.019 -2.087 1.990 315.702 o
-8 -3 -3 64.174 71.020 11.790 6.825 o
-8 -3 -2 12.021 13.141 5.241 43.095 o
-8 -3 -1 14.001 16.061 5.833 34.548 o
-8 -3 0 22.533 32.364 8.574 15.590 o
-8 -3 1 2.902 0.265 1.538 519.386 o
-8 -3 2 19.317 32.543 8.862 14.851 o
-8 -3 3 29.341 45.034 10.357 10.484 o
-8 -2 -8 12.417 19.573 6.580 27.474 o
-8 -2 -7 19.580 26.749 7.445 20.745 o
-8 -2 -6 2.077 0.183 0.931 1409.230 o
-8 -2 -5 32.962 32.547 8.056 16.519 o
-8 -2 -4 0.706 2.036 1.896 346.313 o
-8 -2 -3 9.577 4.232 2.539 177.236 o
-8 -2 -2 3.550 4.536 3.150 124.078 o
-8 -2 -1 49.776 56.901 10.852 8.624 o
-8 -2 0 7.348 4.092 3.130 122.628 o
-8 -2 1 35.070 49.157 10.778 9.471 o
-8 -2 2 23.702 39.910 9.672 12.252 o
-8 -2 3 10.736 11.440 5.389 41.327 o
-8 -1 -7 0.112 2.772 3.979 78.876 o
-8 -1 -6 7.201 13.137 5.124 46.121 o
-8 -1 -5 1.148 2.348 2.196 257.876 o
-8 -1 -4 19.404 15.687 5.872 33.088 o
-8 -1 -3 0.931 1.067 2.032 301.842 o
-8 -1 -2 54.219 76.864 12.724 6.248 o
-8 -1 -1 1.896 2.663 1.908 339.035 o
-8 -1 0 0.740 0.849 1.071 1084.380 o
-8 -1 1 57.958 83.133 13.986 5.217 o
-8 -1 2 3.408 7.121 4.544 59.905 o
-8 -1 3 2.395 1.737 2.426 210.702 o
-8 0 -5 2.172 4.575 3.220 119.516 o
-8 0 -4 34.766 39.415 9.166 12.860 o
-8 0 -3 39.500 33.232 8.177 15.461 o
-8 0 -2 58.099 63.435 11.689 7.248 o
-8 0 -1 0.813 -0.744 0.479 5380.060 o
-8 0 0 7.055 11.401 5.194 45.116 o
-8 0 1 22.638 20.593 7.141 22.394 o
-7 -8 -8 13.463 11.225 4.505 57.043 o
-7 -8 -7 18.036 17.973 5.521 37.058 o
-7 -8 -6 5.340 6.471 3.321 110.041 o
-7 -8 -5 64.496 64.031 10.190 8.609 o
-7 -8 -4 14.122 6.650 3.146 111.105 o
-7 -8 -3 37.978 33.910 7.429 18.222 o
-7 -8 -2 16.492 21.310 5.809 33.760 o
-7 -8 -1 13.080 14.955 5.007 46.377 o
-7 -8 0 4.789 5.038 3.088 127.910 o
-7 -7 -9 9.711 17.272 5.548 38.717 o
-7 -7 -8 48.058 54.768 9.734 10.413 o
-7 -7 -7 10.183 7.032 5.420 41.371 o
-7 -7 -6 6.485 3.037 2.441 200.149 o
-7 -7 -5 10.321 7.807 3.606 89.927 o
-7 -7 -4 26.776 29.923 6.911 22.519 o
-7 -7 -3 28.490 22.435 5.930 29.642 o
-7 -7 -2 54.153 44.345 8.702 12.303 o
-7 -7 -1 2.475 4.299 2.507 195.812 o
-7 -7 0 40.517 30.997 7.359 18.357 o
-7 -7 1 32.089 24.600 6.615 23.802 o
-7 -7 2 4.152 2.609 2.235 243.757 o
-7 -6 -10 21.164 16.314 5.696 34.463 o
-7 -6 -9 20.029 21.754 6.308 28.387 o
-7 -6 -8 53.593 49.079 9.360 10.895 o
-7 -6 -7 9.756 10.042 4.404 61.378 o
-7 -6 -6 150.489 133.014 15.100 2.860 o
-7 -6 -5 170.807 174.493 17.389 2.090 o
-7 -6 -4 5.982 7.885 3.138 121.503 o
-7 -6 -3 79.922 86.404 12.354 5.683 o
-7 -6 -2 5.864 4.805 2.819 151.487 o
-7 -6 -1 4.233 5.303 3.321 111.177 o
-7 -6 0 8.474 8.177 3.722 85.859 o
-7 -6 1 98.192 98.766 13.904 4.310 o
-7 -6 2 31.421 33.672 7.986 16.864 o
-7 -6 3 4.595 9.715 4.408 63.044 o
-7 -6 4 9.982 16.564 6.008 33.260 o
-7 -5 -10 22.737 17.533 6.117 29.884 o
-7 -5 -9 44.703 45.119 9.224 11.884 o
-7 -5 -8 5.944 4.832 3.325 109.948 o
-7 -5 -7 13.086 11.490 4.614 54.664 o
-7 -5 -6 35.316 26.192 6.884 21.626 o
-7 -5 -5 24.625 30.869 7.340 20.491 o
-7 -5 -4 27.300 25.429 6.767 23.625 o
-7 -5 -3 307.574 330.655 24.662 0.781 o
-7 -5 -2 39.766 29.043 7.223 19.154 o
-7 -5 -1 18.942 15.197 4.953 45.190 o
-7 -5 0 44.166 58.299 10.466 9.369 o
-7 -5 1 144.555 138.489 16.595 2.613 o
-7 -5 2 61.070 57.030 10.602 8.443 o
-7 -5 3 23.352 23.685 6.935 23.323 o
-7 -5 4 6.530 4.338 3.181 119.536 o
-7 -4 -10 10.021 9.590 4.338 63.157 o
-7 -4 -9 15.089 31.383 7.608 20.128 o
-7 -4 -8 6.658 4.014 2.644 170.668 o
-7 -4 -7 13.183 12.059 4.267 62.963 o
-7 -4 -6 15.767 24.230 6.238 29.504 o
-7 -4 -5 55.190 46.159 8.839 11.867 o
-7 -4 -4 51.392 53.347 9.757 10.222 o
-7 -4 -3 29.585 22.933 6.689 23.930 o
-7 -4 -2 23.107 11.362 4.256 57.358 o
-7 -4 -1 17.629 13.616 5.112 43.415 o
-7 -4 0 24.766 16.747 5.798 32.473 o
-7 -4 1 118.605 140.432 16.852 2.826 o
-7 -4 2 243.824 255.664 22.719 1.107 o
-7 -4 3 49.288 60.332 11.490 7.809 o
-7 -4 4 12.951 22.007 7.055 23.885 o
-7 -4 5 1.059 2.021 1.585 493.919 o
-7 -3 -10 14.413 20.660 6.607 26.948 o
-7 -3 -9 5.279 2.710 2.414 207.501 o
-7 -3 -8 58.921 43.363 8.932 11.507 o
-7 -3 -7 10.695 11.918 4.470 58.920 o
-7 -3 -6 57.855 56.750 9.987 9.415 o
-7 -3 -5 30.351 24.612 6.378 25.635 o
-7 -3 -4 72.302 81.256 11.837 6.353 o
-7 -3 -3 16.837 14.504 5.003 45.267 o
-7 -3 -2 35.030 33.267 7.398 18.772 o
-7 -3 -1 251.799 293.405 23.191 1.006 o
-7 -3 0 106.044 107.102 14.449 3.883 o
-7 -3 1 154.500 179.543 18.935 2.005 o
-7 -3 2 60.823 78.433 12.608 6.145 o
-7 -3 3 12.079 9.025 4.415 60.325 o
-7 -3 4 21.551 32.979 8.780 14.964 o
-7 -3 5 17.747 25.519 8.406 16.709 o
-7 -2 -10 4.080 3.477 3.049 132.322 o
-7 -2 -9 9.111 8.691 3.808 81.661 o
-7 -2 -8 3.354 4.139 2.068 283.704 o
-7 -2 -7 25.825 33.388 8.021 17.271 o
-7 -2 -6 284.037 291.376 23.062 0.925 o
-7 -2 -5 35.326 30.253 7.118 20.171 o
-7 -2 -4 1.398 1.600 1.744 407.862 o
-7 -2 -3 17.713 23.078 6.199 29.600 o
-7 -2 -2 36.446 34.786 7.569 17.813 o
-7 -2 -1 135.065 124.931 15.002 3.138 o
-7 -2 0 1.698 -3.547 2.535 194.131 o
-7 -2 1 2.095 1.055 0.728 2229.110 o
-7 -2 2 19.112 13.854 5.342 39.617 o
-7 -2 3 16.399 24.382 7.340 21.736 o
-7 -2 4 0.010 1.293 1.702 431.389 o
-7 -2 5 2.059 7.382 4.828 53.278 o
-7 -1 -9 6.401 7.799 3.901 79.644 o
-7 -1 -8 0.577 0.467 1.865 358.992 o
-7 -1 -7 2.349 2.585 2.231 248.144 o
-7 -1 -6 58.816 62.177 10.937 8.037 o
-7 -1 -5 78.718 67.399 11.101 6.970 o
-7 -1 -4 21.914 23.486 6.475 26.616 o
-7 -1 -3 74.858 65.713 10.758 7.473 o
-7 -1 -2 14.415 4.618 2.924 127.639 o
-7 -1 -1 2.206 1.149 0.931 1388.220 o
-7 -1 0 10.367 5.334 2.971 130.459 o
-7 -1 1 2.436 1.783 2.363 221.788 o
-7 -1 2 14.669 25.336 7.585 20.540 o
-7 -1 3 9.145 6.370 4.143 70.063 o
-7 -1 4 16.924 21.929 7.172 22.768 o
-7 -1 5 12.307 10.890 5.564 38.625 o
-7 0 -8 25.034 34.174 8.430 15.833 o
-7 0 -7 6.630 5.587 3.613 92.920 o
-7 0 -6 52.908 60.803 11.198 8.001 o
-7 0 -5 35.139 38.154 8.508 14.630 o
-7 0 -4 26.584 28.751 7.402 20.082 o
-7 0 -3 159.455 169.151 17.743 2.158 o
-7 0 -2 57.618 58.031 10.306 8.957 o
-7 0 -1 16.513 15.746 4.945 46.131 o
-7 0 0 51.666 56.563 10.334 9.247 o
-7 0 1 67.682 77.401 12.588 5.988 o
-7 0 2 22.753 22.817 6.931 23.486 o
-7 0 3 19.331 23.218 7.227 22.130 o
-7 0 4 39.458 52.218 11.031 8.879 o
-7 0 5 6.200 3.368 2.348 215.914 o
-7 1 -6 1.661 1.464 2.336 227.929 o
-7 1 -5 14.553 14.013 4.922 47.547 o
-7 1 -4 7.287 9.948 4.104 71.378 o
-7 1 -3 15.331 17.132 5.747 35.142 o
-7 1 -2 3.551 4.478 2.476 198.972 o
-7 1 -1 32.962 44.644 9.193 12.743 o
-7 1 0 14.659 10.688 4.579 54.954 o
-7 1 1 29.038 33.244 8.239 16.203 o
-7 1 2 14.859 33.894 8.667 15.698 o
-7 1 3 23.960 22.104 7.273 21.421 o
-7 1 4 2.256 2.858 2.877 149.858 o
-7 2 -3 0.898 1.164 1.374 658.172 o
-7 2 -2 0.046 -1.153 0.650 2955.810 o
-7 2 -1 3.844 6.615 3.532 98.416 o
-7 2 0 1.564 0.187 1.589 492.843 o
-7 2 1 0.015 0.027 1.297 743.413 o
-7 2 2 17.526 13.453 4.972 45.724 o
-6 -8 -9 27.655 27.100 7.133 21.394 o
-6 -8 -8 15.991 19.087 5.774 34.489 o
-6 -8 -7 150.501 162.473 16.715 2.414 o
-6 -8 -6 19.814 16.968 5.206 40.770 o
-6 -8 -5 56.342 59.502 9.866 9.595 o
-6 -8 -4 24.854 21.738 5.786 31.930 o
-6 -8 -3 29.479 33.493 7.160 20.570 o
-6 -8 -2 11.341 9.905 3.504 92.862 o
-6 -8 -1 11.225 9.302 3.808 80.015 o
-6 -7 -10 0.767 0.565 0.973 1312.220 o
-6 -7 -9 26.142 20.691 5.922 30.496 o
-6 -7 -8 30.852 37.208 7.667 17.948 o
-6 -7 -7 30.377 32.800 7.032 21.125 o
-6 -7 -6 30.021 23.514 5.852 29.761 o
-6 -7 -5 182.167 180.201 16.174 2.116 o
-6 -7 -4 23.499 20.130 5.206 38.933 o
-6 -7 -3 65.388 50.987 8.430 11.602 o
-6 -7 -2 45.545 31.223 6.405 21.689 o
-6 -7 -1 193.961 189.733 16.672 1.928 o
-6 -7 0 88.617 83.612 11.050 6.325 o
-6 -7 1 45.778 37.496 7.698 16.077 o
-6 -7 2 0.445 -0.058 1.378 657.526 o
-6 -7 3 0.370 -4.964 2.893 149.317 o
-6 -7 4 16.278 14.632 5.034 44.929 o
-6 -6 -11 5.308 6.008 3.652 91.589 o
-6 -6 -10 3.849 2.784 2.083 280.143 o
-6 -6 -9 76.084 65.576 10.474 7.700 o
-6 -6 -8 75.377 87.069 11.650 6.297 o
-6 -6 -7 33.036 24.277 6.148 26.673 o
-6 -6 -6 57.568 45.326 8.204 13.036 o
-6 -6 -5 48.077 44.177 7.826 15.039 o
-6 -6 -4 18.757 14.667 4.380 56.274 o
-6 -6 -3 0.738 2.472 1.834 369.699 o
-6 -6 -2 10.919 7.522 3.715 84.706 o
-6 -6 -1 171.474 169.762 15.909 2.294 o
-6 -6 0 12.214 13.433 4.544 56.201 o
-6 -6 1 297.056 290.395 21.972 0.925 o
-6 -6 2 139.438 133.069 14.885 3.049 o
-6 -6 3 47.212 44.275 8.800 12.652 o
-6 -6 4 3.464 6.062 3.282 114.019 o
-6 -6 5 7.660 7.589 3.613 91.637 o
-6 -5 -11 24.110 37.640 8.153 16.740 o
-6 -5 -10 37.891 30.133 7.441 18.430 o
-6 -5 -9 41.864 42.604 8.430 14.079 o
-6 -5 -8 3.752 7.001 3.352 108.939 o
-6 -5 -7 69.317 68.594 10.322 8.105 o
-6 -5 -6 210.365 202.445 17.447 1.700 o
-6 -5 -5 57.671 47.269 8.515 12.271 o
-6 -5 -4 37.679 43.359 7.908 15.986 o
-6 -5 -3 54.280 55.157 8.885 11.498 o
-6 -5 -2 1.890 0.872 0.868 1606.570 o
-6 -5 -1 132.260 115.061 13.382 3.687 o
-6 -5 0 127.862 132.126 14.562 3.298 o
-6 -5 1 183.647 172.877 16.891 2.052 o
-6 -5 2 193.919 196.235 18.308 1.751 o
-6 -5 3 16.300 16.268 5.840 33.997 o
-6 -5 4 80.477 97.294 13.554 4.849 o
-6 -5 5 12.752 10.112 4.384 60.583 o
-6 -5 6 7.687 14.508 5.798 36.117 o
-6 -4 -11 5.490 4.287 3.271 114.074 o
-6 -4 -10 24.979 21.205 6.588 25.494 o
-6 -4 -9 24.549 35.557 7.850 17.964 o
-6 -4 -8 18.722 16.073 5.132 42.346 o
-6 -4 -7 1.761 0.113 1.117 989.211 o
-6 -4 -6 26.317 26.535 6.058 28.625 o
-6 -4 -5 59.442 47.288 8.321 12.514 o
-6 -4 -4 197.484 189.908 16.805 1.888 o
-6 -4 -3 182.574 187.073 16.614 2.034 o
-6 -4 -2 55.288 53.304 8.710 11.827 o
-6 -4 -1 42.653 38.477 7.729 16.286 o
-6 -4 0 37.675 46.186 8.640 13.727 o
-6 -4 1 131.031 144.462 15.423 2.967 o
-6 -4 2 126.505 127.991 14.780 3.293 o
-6 -4 3 1.473 -0.300 0.876 1608.200 o
-6 -4 4 145.870 171.476 18.327 2.177 o
-6 -4 5 103.921 130.121 16.945 3.020 o
-6 -3 -11 25.092 27.575 7.215 21.267 o
-6 -3 -10 48.050 54.421 9.968 10.039 o
-6 -3 -9 20.805 26.103 6.814 24.259 o
-6 -3 -8 12.560 8.052 3.750 81.790 o
-6 -3 -7 19.236 16.556 4.988 44.259 o
-6 -3 -6 211.483 219.912 18.316 1.574 o
-6 -3 -5 82.366 82.642 10.910 6.686 o
-6 -3 -4 56.226 54.219 8.889 11.378 o
-6 -3 -3 125.552 124.740 13.519 3.681 o
-6 -3 -2 108.695 109.781 12.572 4.514 o
-6 -3 -1 132.445 142.184 14.679 3.129 o
-6 -3 0 280.930 274.151 21.154 1.022 o
-6 -3 1 242.357 278.539 21.450 1.129 o
-6 -3 2 75.253 88.545 12.179 5.902 o
-6 -3 3 59.249 72.951 11.552 7.177 o
-6 -3 4 8.339 9.695 4.236 66.769 o
-6 -2 -11 2.642 3.391 2.768 161.314 o
-6 -2 -10 50.266 48.702 9.629 10.643 o
-6 -2 -9 19.366 30.553 7.301 21.318 o
-6 -2 -8 1.860 0.600 0.767 2052.000 o
-6 -2 -7 2.598 1.927 1.912 336.758 o
-6 -2 -6 253.711 260.729 20.266 1.173 o
-6 -2 -5 206.599 221.041 18.405 1.592 o
-6 -2 -4 45.060 38.956 7.702 16.064 o
-6 -2 -3 14.140 17.058 4.762 50.077 o
-6 -2 -2 6.095 4.816 2.254 231.296 o
-6 -2 -1 24.750 22.131 5.556 34.179 o
-6 -2 0 51.157 41.864 8.075 14.157 o
-6 -2 1 77.608 92.933 12.413 5.619 o
-6 -2 2 151.849 169.735 17.062 2.315 o
-6 -2 3 13.712 9.298 4.100 68.270 o
-6 -2 4 2.780 3.679 2.838 153.316 o
-6 -1 -10 0.035 1.363 0.985 1284.870 o
-6 -1 -9 6.504 2.570 2.087 270.236 o
-6 -1 -8 9.827 5.770 2.979 130.329 o
-6 -1 -7 166.696 206.771 19.001 1.825 o
-6 -1 -6 339.790 372.075 25.437 0.667 o
-6 -1 -5 61.305 55.321 9.508 9.955 o
-6 -1 -4 230.962 271.020 20.504 1.229 o
-6 -1 -3 12.650 8.745 3.512 91.756 o
-6 -1 -2 78.772 83.082 10.867 6.854 o
-6 -1 -1 57.044 58.903 9.220 10.572 o
-6 -1 0 54.762 42.799 8.200 13.441 o
-6 -1 1 159.570 176.117 17.081 2.216 o
-6 -1 2 234.970 267.360 21.645 1.166 o
-6 -1 3 92.337 111.965 14.609 4.018 o
-6 -1 4 66.945 96.488 14.258 4.766 o
-6 0 -10 13.632 21.419 6.347 29.125 o
-6 0 -9 23.587 32.033 7.815 18.371 o
-6 0 -8 56.538 81.723 12.393 6.386 o
-6 0 -7 23.871 32.317 7.503 19.710 o
-6 0 -6 25.250 22.665 6.569 25.461 o
-6 0 -5 14.461 11.140 4.408 58.930 o
-6 0 -4 43.505 49.768 8.920 12.456 o
-6 0 -3 4.199 3.216 1.974 308.840 o
-6 0 -2 11.573 13.503 4.482 57.927 o
-6 0 -1 6.750 3.489 2.106 262.704 o
-6 0 0 32.058 50.236 9.154 12.713 o
-6 0 1 0.438 1.223 1.374 659.855 o
-6 0 2 41.528 41.607 8.492 13.986 o
-6 0 3 51.549 61.348 10.750 8.585 o
-6 0 4 88.485 120.052 15.824 3.588 o
-6 0 5 23.070 24.323 7.725 19.173 o
-6 1 -8 12.110 14.745 5.140 44.475 o
-6 1 -7 6.069 14.578 4.793 52.587 o
-6 1 -6 14.296 19.464 5.778 34.764 o
-6 1 -5 11.182 15.142 5.097 45.383 o
-6 1 -4 9.799 10.318 4.112 69.823 o
-6 1 -3 27.270 22.338 6.179 27.934 o
-6 1 -2 60.234 49.881 8.979 11.078 o
-6 1 -1 7.633 5.805 3.224 114.801 o
-6 1 0 2.976 0.023 1.433 597.209 o
-6 1 1 3.091 1.437 0.818 1705.080 o
-6 1 2 12.397 14.967 5.346 41.200 o
-6 1 3 106.282 125.344 15.664 3.359 o
-6 1 4 26.828 47.666 10.271 10.691 o
-6 1 5 0.340 4.225 3.057 133.395 o
-6 2 -6 11.397 10.345 3.886 76.587 o
-6 2 -5 1.145 3.921 2.535 193.229 o
-6 2 -4 11.534 8.247 3.602 88.890 o
-6 2 -3 14.141 13.725 4.454 57.331 o
-6 2 -2 26.235 29.541 6.981 22.237 o
-6 2 -1 0.543 2.504 2.422 212.560 o
-6 2 0 8.607 6.759 3.173 116.718 o
-6 2 1 14.603 19.429 5.728 35.275 o
-6 2 2 0.985 2.235 2.266 242.447 o
-6 2 3 8.240 9.808 4.411 61.784 o
-6 2 4 25.554 40.280 9.197 13.317 o
-6 2 5 0.483 1.939 3.158 125.219 o
-6 3 2 0.031 -3.878 2.655 177.236 o
-6 3 3 0.398 -0.530 1.020 1200.120 o
-6 3 4 2.952 1.904 2.979 139.797 o
-5 -8 -9 6.915 20.114 6.101 32.457 o
-5 -8 -8 43.300 49.204 8.737 12.910 o
-5 -8 -7 56.141 73.866 10.914 7.932 o
-5 -8 -6 61.560 84.690 11.739 6.729 o
-5 -8 -5 70.281 104.361 13.195 5.192 o
-5 -8 -4 54.403 71.557 11.035 7.917 o
-5 -7 -10 9.706 12.214 4.341 62.620 o
-5 -7 -9 29.385 21.061 5.654 32.018 o
-5 -7 -8 66.741 85.617 11.214 6.981 o
-5 -7 -7 19.141 16.127 4.789 47.663 o
-5 -7 -6 39.242 41.366 7.351 17.859 o
-5 -7 -5 108.876 116.809 12.226 4.566 o
-5 -7 -4 6.680 9.037 3.243 112.832 o
-5 -7 -3 1.632 1.690 1.238 800.972 o
-5 -7 -2 33.659 24.799 5.498 31.527 o
-5 -7 -1 118.832 113.468 11.603 4.604 o
-5 -7 0 44.013 35.475 6.487 21.182 o
-5 -7 1 6.040 3.325 2.048 280.355 o
-5 -7 2 23.080 21.660 5.521 35.118 o
-5 -7 3 45.123 42.386 7.639 16.047 o
-5 -6 -11 51.010 55.496 9.656 10.348 o
-5 -6 -10 74.199 70.693 10.641 7.506 o
-5 -6 -9 264.005 253.320 19.819 1.168 o
-5 -6 -8 15.593 13.340 4.310 60.148 o
-5 -6 -7 190.068 174.295 15.248 2.179 o
-5 -6 -6 82.284 67.636 9.173 8.680 o
-5 -6 -5 7.123 5.626 2.710 160.596 o
-5 -6 -4 60.280 55.589 8.009 12.678 o
-5 -6 -3 100.861 105.486 11.062 5.503 o
-5 -6 -2 263.938 249.921 17.303 1.287 o
-5 -6 -1 313.396 286.361 18.721 0.980 o
-5 -6 0 12.885 11.673 3.574 87.203 o
-5 -6 1 139.079 109.828 12.175 3.964 o
-5 -6 2 33.456 34.645 6.787 21.734 o
-5 -6 3 0.879 1.799 1.994 313.363 o
-5 -6 4 11.296 8.313 3.442 96.829 o
-5 -6 5 8.421 12.787 4.844 51.145 o
-5 -6 6 8.748 8.585 4.408 61.926 o
-5 -5 -12 5.591 6.845 3.621 92.762 o
-5 -5 -11 47.166 61.441 10.108 9.681 o
-5 -5 -10 1.894 -0.436 1.499 552.247 o
-5 -5 -9 41.277 37.749 7.635 16.807 o
-5 -5 -8 23.944 23.541 5.654 33.217 o
-5 -5 -7 53.944 45.703 7.694 14.639 o
-5 -5 -6 97.317 105.369 11.533 5.366 o
-5 -5 -5 27.997 23.778 5.253 36.068 o
-5 -5 -4 4.371 3.839 1.865 342.024 o
-5 -5 -3 32.366 33.742 6.125 25.890 o
-5 -5 -2 38.972 30.246 6.136 24.678 o
-5 -5 -1 390.455 395.180 22.700 0.610 o
-5 -5 0 36.533 36.117 6.864 20.709 o
-5 -5 1 92.560 88.981 10.992 6.121 o
-5 -5 2 23.492 24.861 5.860 31.192 o
-5 -5 3 83.125 81.910 11.081 6.539 o
-5 -5 4 33.949 40.256 8.114 15.855 o
-5 -5 5 8.348 13.842 5.708 37.177 o
-5 -5 6 32.683 39.692 9.512 12.166 o
-5 -5 7 37.024 46.369 10.497 9.896 o
-5 -4 -12 12.378 14.535 5.089 45.264 o
-5 -4 -11 10.723 6.514 3.173 114.267 o
-5 -4 -10 12.303 10.945 4.034 70.712 o
-5 -4 -9 18.059 21.251 5.724 34.322 o
-5 -4 -8 197.943 192.957 16.454 1.907 o
-5 -4 -7 90.297 74.431 10.050 7.218 o
-5 -4 -6 47.092 36.947 6.767 19.265 o
-5 -4 -5 64.979 60.600 8.636 10.879 o
-5 -4 -4 151.554 138.859 12.997 3.240 o
-5 -4 -3 74.346 78.114 9.769 8.194 o
-5 -4 -2 38.031 37.690 6.771 20.758 o
-5 -4 -1 123.332 118.098 12.214 4.210 o
-5 -4 0 28.038 30.070 6.249 26.428 o
-5 -4 1 23.239 18.674 5.046 41.419 o
-5 -4 2 16.358 16.634 4.871 47.288 o
-5 -4 3 246.305 264.335 20.278 1.194 o
-5 -4 5 214.299 237.885 21.392 1.315 o
-5 -4 6 108.746 153.588 17.817 2.657 o
-5 -4 7 9.874 9.255 4.244 65.966 o
-5 -3 -12 33.111 39.879 8.582 14.509 o
-5 -3 -11 37.011 30.417 7.180 19.634 o
-5 -3 -10 39.403 35.615 7.538 17.516 o
-5 -3 -9 18.081 17.046 5.124 42.513 o
-5 -3 -8 39.048 33.061 6.849 20.617 o
-5 -3 -7 155.578 145.680 13.857 2.950 o
-5 -3 -6 373.051 340.202 21.139 0.712 o
-5 -3 -5 42.213 36.047 6.670 20.626 o
-5 -3 -4 200.080 204.677 15.925 1.895 o
-5 -3 -3 146.448 141.752 12.974 3.307 o
-5 -3 -2 15.492 18.312 4.668 51.029 o
-5 -3 -1 12.802 10.809 3.586 87.208 o
-5 -3 0 47.589 61.866 9.006 11.521 o
-5 -3 1 2.083 0.767 0.927 1410.990 o
-5 -3 2 78.464 76.778 10.688 7.148 o
-5 -3 3 41.852 45.598 8.753 13.133 o
-5 -3 6 41.388 34.864 8.235 15.026 o
-5 -3 7 0.998 0.276 1.121 989.375 o
-5 -3 8 1.926 0.389 0.903 1495.030 o
-5 -2 -12 13.439 10.645 4.404 59.641 o
-5 -2 -11 160.695 218.588 19.604 1.765 o
-5 -2 -10 56.983 55.235 9.407 10.392 o
-5 -2 -9 94.005 98.817 12.506 5.045 o
-5 -2 -8 75.424 77.156 10.591 7.358 o
-5 -2 -7 394.849 424.554 24.499 0.559 o
-5 -2 -6 14.814 10.069 3.648 82.993 o
-5 -2 -5 25.965 24.405 5.482 34.221 o
-5 -2 -4 272.950 285.419 18.927 1.111 o
-5 -2 -3 281.663 278.461 18.386 1.112 o
-5 -2 -2 520.023 553.523 26.383 0.356 o
-5 -2 -1 290.587 321.018 20.041 0.958 o
-5 -2 0 100.076 98.567 11.182 5.578 o
-5 -2 1 78.834 86.587 10.688 6.926 o
-5 -2 2 45.671 62.582 9.555 10.628 o
-5 -2 7 40.777 42.499 9.041 12.647 o
-5 -2 8 29.752 34.155 8.103 16.578 o
-5 -1 -11 19.626 14.083 5.412 38.517 o
-5 -1 -10 26.364 20.652 5.911 30.550 o
-5 -1 -9 121.746 134.459 14.870 3.292 o
-5 -1 -8 8.455 5.805 2.951 134.628 o
-5 -1 -7 98.376 102.040 12.152 5.065 o
-5 -1 -6 182.426 198.490 16.630 1.988 o
-5 -1 -5 232.604 245.638 18.246 1.399 o
-5 -1 -4 240.458 239.914 17.591 1.411 o
-5 -1 -3 76.704 79.270 9.874 7.931 o
-5 -1 -2 71.460 75.104 9.329 8.941 o
-5 -1 -1 13.662 13.811 3.983 70.436 o
-5 -1 0 48.627 54.230 8.184 13.518 o
-5 -1 1 259.769 250.267 18.518 1.249 o
-5 -1 2 68.996 65.978 9.820 8.765 o
-5 -1 8 38.790 50.084 9.298 11.955 o
-5 0 -11 0.406 3.660 2.617 181.959 o
-5 0 -10 7.369 9.652 3.995 75.200 o
-5 0 -9 20.739 34.642 7.491 19.980 o
-5 0 -8 24.021 29.011 7.075 22.065 o
-5 0 -7 97.154 99.981 12.323 5.040 o
-5 0 -6 30.171 32.718 6.829 22.217 o
-5 0 -5 25.446 18.530 5.136 39.397 o
-5 0 -4 15.552 18.697 5.112 43.262 o
-5 0 -3 133.240 138.715 13.491 3.431 o
-5 0 -2 95.097 91.648 10.633 6.211 o
-5 0 -1 141.252 138.458 13.040 3.408 o
-5 0 0 7.552 13.016 4.158 68.782 o
-5 0 1 41.512 42.106 7.460 17.113 o
-5 0 2 101.566 104.587 12.401 4.828 o
-5 0 3 56.579 72.527 10.883 7.976 o
-5 1 -10 5.406 7.328 3.504 98.834 o
-5 1 -9 0.585 -1.055 1.300 738.307 o
-5 1 -8 27.440 31.823 7.277 20.388 o
-5 1 -7 7.153 5.591 2.792 151.799 o
-5 1 -6 41.093 49.106 8.395 13.948 o
-5 1 -5 148.810 153.557 15.096 2.754 o
-5 1 -4 43.434 47.872 8.305 14.023 o
-5 1 -3 33.709 36.511 7.083 20.109 o
-5 1 -2 50.405 58.046 8.846 11.761 o
-5 1 -1 9.243 12.226 3.746 82.893 o
-5 1 0 3.136 3.878 2.426 208.346 o
-5 1 1 0.672 0.779 0.607 3342.090 o
-5 1 2 29.203 41.510 7.877 17.091 o
-5 1 3 8.057 7.192 3.621 91.125 o
-5 2 -9 0.999 -0.113 1.347 686.926 o
-5 2 -8 3.938 10.018 3.839 82.797 o
-5 2 -7 27.202 21.193 5.599 33.159 o
-5 2 -6 7.820 7.324 3.329 107.113 o
-5 2 -5 23.855 29.849 6.339 26.672 o
-5 2 -4 42.150 40.178 7.332 17.615 o
-5 2 -3 114.500 104.213 12.066 4.649 o
-5 2 -2 10.653 8.737 3.442 97.269 o
-5 2 -1 25.440 22.727 5.611 33.334 o
-5 2 0 14.889 20.274 5.077 43.761 o
-5 2 1 31.028 29.864 6.452 24.505 o
-5 2 2 63.214 69.054 10.120 8.630 o
-5 2 3 29.793 28.603 6.892 22.267 o
-5 2 4 149.811 196.153 19.410 1.924 o
-5 3 -3 9.248 9.119 3.177 114.230 o
-5 3 -2 7.181 10.910 3.598 91.542 o
-5 3 -1 5.883 2.936 1.721 390.358 o
-5 3 0 160.186 174.462 15.353 2.463 o
-5 3 1 129.093 133.532 13.795 3.466 o
-5 3 2 19.493 17.642 5.175 41.199 o
-5 3 3 0.285 2.317 1.729 416.880 o
-5 3 4 53.666 73.403 11.471 7.447 o
-5 3 5 12.940 15.637 5.541 38.323 o
-4 -8 -9 4.159 8.212 3.267 113.874 o
-4 -7 -11 25.261 21.427 6.335 27.243 o
-4 -7 -10 4.219 4.902 2.920 143.237 o
-4 -7 -9 50.528 46.482 8.184 13.713 o
-4 -7 -8 82.555 106.826 11.782 5.658 o
-4 -7 -7 79.304 79.091 9.859 7.816 o
-4 -7 -6 37.576 31.951 6.070 25.209 o
-4 -7 -5 401.630 484.851 24.211 0.515 o
-4 -7 -4 195.496 267.617 17.401 1.594 o
-4 -7 -3 291.618 356.034 20.383 0.896 o
-4 -7 -2 232.345 282.689 17.946 1.327 o
-4 -7 -1 38.641 41.670 6.557 21.293 o
-4 -7 0 32.717 30.106 5.595 30.163 o
-4 -7 1 69.554 65.783 8.169 11.029 o
-4 -7 4 7.940 15.302 5.829 35.653 o
-4 -7 5 38.825 51.711 10.918 9.071 o
-4 -6 -11 9.900 7.464 3.866 79.231 o
-4 -6 -10 1.710 -0.670 1.398 635.416 o
-4 -6 -9 41.381 41.424 7.550 16.863 o
-4 -6 -8 66.390 74.999 9.645 8.868 o
-4 -6 -7 25.342 28.934 5.879 30.041 o
-4 -6 -6 38.807 37.593 6.351 22.699 o
-4 -6 -5 62.955 63.859 8.052 11.925 o
-4 -6 -4 41.669 43.005 6.487 20.902 o
-4 -6 -3 738.019 723.670 27.688 0.204 o
-4 -6 -2 232.520 236.854 15.092 1.614 o
-4 -6 -1 39.675 37.881 5.930 24.790 o
-4 -6 0 39.072 31.464 5.439 29.120 o
-4 -6 1 75.181 57.968 7.741 11.564 o
-4 -6 2 60.651 56.267 7.744 13.160 o
-4 -6 3 48.284 57.789 8.364 12.966 o
-4 -6 4 56.117 57.986 6.844 15.822 o
-4 -6 5 80.337 94.619 14.356 4.489 o
-4 -6 6 4.432 13.710 5.268 44.133 o
-4 -5 -12 68.129 80.840 12.117 6.276 o
-4 -5 -11 33.721 42.125 7.939 16.368 o
-4 -5 -10 7.278 5.802 2.963 135.263 o
-4 -5 -9 51.191 56.535 8.854 11.744 o
-4 -5 -8 16.811 20.153 5.046 43.587 o
-4 -5 -7 79.183 87.797 10.077 7.404 o
-4 -5 -6 229.429 217.537 15.434 1.676 o
-4 -5 -5 37.289 39.034 6.312 23.076 o
-4 -5 -4 15.312 14.052 3.625 81.390 o
-4 -5 -3 61.684 53.300 6.970 15.020 o
-4 -5 -2 80.359 85.123 8.846 8.600 o
-4 -5 -1 33.149 23.957 4.657 40.677 o
-4 -5 0 15.530 10.536 3.310 97.084 o
-4 -5 1 4.079 4.462 1.814 360.278 o
-4 -5 2 33.954 26.815 5.583 30.385 o
-4 -5 3 13.471 10.240 2.781 134.863 o
-4 -5 4 148.252 128.844 15.080 2.919 o
-4 -5 5 12.865 12.280 5.066 45.840 o
-4 -5 6 1.965 8.060 4.077 74.486 o
-4 -5 7 17.593 26.364 7.861 18.935 o
-4 -4 -12 64.054 73.076 11.591 6.971 o
-4 -4 -11 16.849 8.983 3.890 72.868 o
-4 -4 -10 34.914 40.217 7.861 16.611 o
-4 -4 -9 119.237 121.220 12.740 4.086 o
-4 -4 -8 150.055 189.172 15.540 2.464 o
-4 -4 -7 10.002 10.022 3.329 103.431 o
-4 -4 -6 10.329 8.367 2.963 128.649 o
-4 -4 -5 72.817 63.996 8.017 11.056 o
-4 -4 -4 198.298 216.560 14.601 1.982 o
-4 -4 -3 232.833 225.103 14.885 1.664 o
-4 -4 -2 32.326 36.931 5.879 27.158 o
-4 -4 -1 112.003 97.201 9.785 5.945 o
-4 -4 0 39.714 30.059 5.556 28.293 o
-4 -4 1 16.116 18.872 4.633 51.290 o
-4 -4 2 13.170 10.941 3.668 83.346 o
-4 -4 3 15.733 19.250 5.436 38.574 o
-4 -4 4 42.737 43.289 8.796 13.051 o
-4 -4 5 177.363 217.124 19.437 1.687 o
-4 -4 6 0.891 3.251 2.912 146.852 o
-4 -4 7 1.055 1.133 1.487 561.962 o
-4 -4 8 3.108 2.418 2.543 190.885 o
-4 -3 -12 0.473 -1.067 2.075 290.112 o
-4 -3 -11 14.738 12.027 4.248 62.625 o
-4 -3 -10 68.743 55.936 9.006 10.192 o
-4 -3 -9 199.111 182.506 15.758 2.008 o
-4 -3 -8 98.521 98.571 11.159 5.642 o
-4 -3 -7 47.847 51.349 7.554 15.419 o
-4 -3 -6 217.186 198.377 14.640 1.898 o
-4 -3 -5 37.925 33.816 5.879 26.084 o
-4 -3 -4 38.330 34.579 5.790 26.448 o
-4 -3 -3 366.439 374.618 19.546 0.717 o
-4 -3 -2 474.653 472.255 22.170 0.457 o
-4 -3 -1 88.460 79.185 8.823 8.297 o
-4 -3 0 409.571 440.603 21.972 0.557 o
-4 -3 1 78.385 106.370 10.719 6.518 o
-4 -3 2 16.120 14.609 4.228 61.518 o
-4 -3 3 5.647 6.592 3.294 111.532 o
-4 -3 4 11.487 12.222 3.991 72.230 o
-4 -3 5 58.455 70.043 10.412 8.491 o
-4 -3 6 25.982 28.755 7.149 21.424 o
-4 -3 7 2.280 4.828 2.803 157.066 o
-4 -3 8 43.022 55.223 10.552 9.362 o
-4 -3 9 42.045 66.297 12.140 7.245 o
-4 -2 -12 18.315 15.138 5.299 40.243 o
-4 -2 -11 6.008 7.324 3.547 96.158 o
-4 -2 -10 23.037 24.222 5.903 30.991 o
-4 -2 -9 42.664 49.301 8.075 14.647 o
-4 -2 -8 117.292 111.658 12.230 4.422 o
-4 -2 -7 65.985 77.767 9.442 9.058 o
-4 -2 -6 55.447 48.748 7.141 15.765 o
-4 -2 -5 9.750 7.020 2.655 159.576 o
-4 -2 -4 704.351 734.062 28.747 0.211 o
-4 -2 -3 387.080 407.145 20.445 0.635 o
-4 -2 -2 178.650 199.171 13.834 2.336 o
-4 -2 -1 116.000 119.429 10.715 4.962 o
-4 -2 0 39.202 40.299 6.440 21.883 o
-4 -2 1 347.023 351.494 20.052 0.774 o
-4 -2 4 19.040 22.303 5.272 39.251 o
-4 -2 5 100.105 124.682 13.063 4.343 o
-4 -2 6 12.532 10.454 3.874 76.164 o
-4 -2 7 66.143 62.941 10.439 8.262 o
-4 -2 8 4.629 10.637 4.392 63.346 o
-4 -2 9 4.348 5.389 3.399 106.144 o
-4 -1 -12 22.426 30.600 7.709 19.007 o
-4 -1 -11 19.711 17.708 5.494 36.970 o
-4 -1 -10 15.582 21.310 5.661 35.599 o
-4 -1 -9 11.368 19.188 5.214 42.900 o
-4 -1 -8 18.205 17.218 4.684 49.729 o
-4 -1 -7 38.655 33.034 6.265 23.688 o
-4 -1 -6 5.251 5.946 2.652 170.477 o
-4 -1 -5 19.008 23.074 4.848 45.215 o
-4 -1 -4 372.941 396.858 20.590 0.667 o
-4 -1 -3 189.543 204.863 14.391 2.135 o
-4 -1 -2 649.951 621.463 25.554 0.263 o
-4 -1 -1 49.761 36.215 5.766 23.275 o
-4 -1 0 161.803 179.866 13.441 2.705 o
-4 -1 1 128.624 134.864 12.090 3.945 o
-4 -1 5 57.160 50.263 7.807 13.733 o
-4 -1 6 18.159 19.530 5.295 39.673 o
-4 -1 7 60.230 61.410 9.539 9.786 o
-4 -1 8 13.864 11.634 4.439 58.342 o
-4 -1 9 10.979 9.189 4.314 63.478 o
-4 0 -11 8.488 7.569 4.092 71.765 o
-4 0 -10 10.290 15.843 5.108 45.333 o
-4 0 -9 67.883 78.180 10.711 7.550 o
-4 0 -8 144.097 179.734 15.867 2.526 o
-4 0 -7 7.349 5.280 2.546 180.415 o
-4 0 -6 19.706 14.138 3.979 65.720 o
-4 0 -5 38.312 34.303 6.203 23.976 o
-4 0 -4 15.994 17.408 4.213 61.094 o
-4 0 -3 182.635 216.735 15.302 2.049 o
-4 0 -2 6.661 6.537 2.581 175.983 o
-4 0 -1 113.471 121.427 10.813 4.968 o
-4 0 0 247.918 239.630 15.633 1.480 o
-4 0 1 164.927 183.589 14.181 2.532 o
-4 0 2 14.161 14.624 4.170 64.301 o
-4 0 6 32.923 24.082 5.214 34.568 o
-4 0 7 5.793 5.241 2.515 188.194 o
-4 0 8 10.512 15.843 4.688 53.215 o
-4 1 -11 19.205 32.173 7.846 18.630 o
-4 1 -10 20.186 31.480 7.355 20.890 o
-4 1 -9 25.010 21.189 5.634 33.444 o
-4 1 -8 34.929 33.949 6.826 21.347 o
-4 1 -7 68.413 79.309 10.318 7.895 o
-4 1 -6 282.708 319.095 20.266 0.977 o
-4 1 -5 55.523 65.744 8.765 11.208 o
-4 1 -4 24.140 28.918 5.630 32.620 o
-4 1 -3 12.515 13.491 3.859 75.581 o
-4 1 -2 15.177 10.945 3.267 99.471 o
-4 1 -1 100.617 92.937 9.652 6.606 o
-4 1 0 9.474 7.772 2.722 152.418 o
-4 1 1 204.659 219.558 15.578 1.834 o
-4 1 2 265.971 284.504 18.857 1.141 o
-4 2 -10 18.386 28.634 7.063 22.875 o
-4 2 -9 13.983 14.173 4.894 48.208 o
-4 2 -8 15.902 16.525 4.746 49.753 o
-4 2 -7 45.569 60.476 8.916 11.901 o
-4 2 -6 111.233 126.967 12.483 4.290 o
-4 2 -5 87.250 92.540 10.330 6.725 o
-4 2 -4 99.488 107.227 10.961 5.575 o
-4 2 -3 44.139 53.985 7.717 15.238 o
-4 2 -2 17.941 18.775 4.384 55.455 o
-4 2 -1 208.711 212.141 15.325 1.852 o
-4 2 0 7.281 9.134 3.298 108.682 o
-4 2 1 135.630 144.212 12.701 3.542 o
-4 2 2 83.551 102.508 11.132 6.109 o
-4 2 3 76.963 108.208 12.409 5.428 o
-4 3 -6 8.291 8.994 3.224 112.393 o
-4 3 -5 17.108 15.115 3.936 68.683 o
-4 3 -4 46.339 48.818 6.911 17.858 o
-4 3 -3 60.991 66.087 7.951 12.197 o
-4 3 -2 37.371 37.437 5.965 25.224 o
-4 3 -1 23.098 21.430 4.626 47.212 o
-4 3 0 112.082 108.527 10.704 5.265 o
-4 3 1 15.122 12.798 3.683 79.996 o
-4 3 2 46.624 47.553 7.612 15.633 o
-4 3 3 3.267 3.800 2.219 247.768 o
-4 4 2 144.101 132.294 12.740 3.486 o
-4 4 3 22.001 27.664 6.140 28.795 o
-4 4 4 19.412 17.299 5.089 42.520 o
-4 4 5 78.404 89.293 12.312 5.712 o
-3 -7 -8 53.737 57.236 8.352 12.515 o
-3 -7 -7 12.472 9.757 3.251 104.967 o
-3 -7 -6 0.795 -1.378 1.371 664.335 o
-3 -7 -5 204.232 227.797 13.289 1.997 o
-3 -7 -4 116.638 131.581 9.426 5.282 o
-3 -7 -3 196.280 204.945 11.669 2.348 o
-3 -7 3 12.756 17.728 5.673 36.481 o
-3 -7 4 10.497 10.357 4.715 53.584 o
-3 -7 5 42.892 41.401 9.613 11.324 o
-3 -6 -10 40.440 40.147 7.986 15.617 o
-3 -6 -9 12.746 12.763 4.302 62.069 o
-3 -6 -8 51.475 47.962 7.386 15.656 o
-3 -6 -7 13.238 12.596 3.446 92.112 o
-3 -6 -6 41.431 44.341 6.343 21.479 o
-3 -6 -5 124.421 136.121 10.739 4.467 o
-3 -6 -4 168.793 185.695 12.113 2.774 o
-3 -6 -3 276.914 319.640 15.758 1.141 o
-3 -6 -2 124.902 134.030 9.870 4.790 o
-3 -6 -1 44.842 40.910 5.342 26.332 o
-3 -6 0 0.377 0.195 0.522 4574.280 o
-3 -6 1 31.361 28.050 4.528 42.153 o
-3 -6 2 105.175 97.381 7.310 7.884 o
-3 -6 3 3.419 5.957 3.582 96.037 o
-3 -6 4 114.596 99.443 13.499 4.137 o
-3 -6 5 108.972 114.862 15.166 3.541 o
-3 -6 6 21.399 29.101 7.888 18.388 o
-3 -6 7 27.170 38.138 9.294 13.036 o
-3 -5 -11 118.228 140.217 15.571 3.125 o
-3 -5 -10 25.285 29.817 6.783 23.502 o
-3 -5 -9 1.559 0.868 0.950 1358.120 o
-3 -5 -8 50.949 52.568 7.772 14.386 o
-3 -5 -7 9.844 14.029 3.715 82.989 o
-3 -5 -6 104.872 138.224 11.436 4.713 o
-3 -5 -5 79.341 96.001 9.088 8.085 o
-3 -5 -4 42.403 41.526 5.509 26.002 o
-3 -5 -3 45.840 47.483 5.692 23.189 o
-3 -5 -2 5.156 6.097 1.951 304.516 o
-3 -5 -1 57.275 51.961 5.996 18.732 o
-3 -5 0 39.419 29.486 4.746 35.158 o
-3 -5 1 22.521 17.132 3.788 67.040 o
-3 -5 2 14.427 14.275 3.545 85.411 o
-3 -5 3 10.811 6.308 2.944 131.138 o
-3 -5 4 44.894 47.000 8.792 12.745 o
-3 -5 5 184.435 204.194 19.161 1.708 o
-3 -5 6 20.059 17.946 5.969 31.745 o
-3 -5 7 5.511 8.648 4.707 55.326 o
-3 -5 8 3.296 9.064 4.415 63.223 o
-3 -4 -11 99.149 103.216 13.246 4.523 o
-3 -4 -10 455.192 504.735 28.318 0.413 o
-3 -4 -9 7.715 2.897 1.873 322.097 o
-3 -4 -8 100.479 102.613 10.828 5.693 o
-3 -4 -7 22.682 27.306 5.276 37.090 o
-3 -4 -6 35.278 37.079 5.875 26.379 o
-3 -4 -5 209.453 223.514 13.916 1.918 o
-3 -4 -4 47.129 49.118 6.094 20.849 o
-3 -4 -3 255.869 254.846 13.706 1.488 o
-3 -4 -2 712.092 753.585 25.118 0.212 o
-3 -4 -1 361.929 406.230 17.506 0.725 o
-3 -4 0 244.811 253.764 14.177 1.535 o
-3 -4 1 342.844 348.056 17.459 0.838 o
-3 -4 2 112.720 108.297 11.155 5.039 o
-3 -4 3 44.614 44.224 7.534 16.331 o
-3 -4 4 2.225 2.332 1.308 709.051 o
-3 -4 5 403.740 452.214 27.411 0.497 o
-3 -4 6 22.644 18.592 6.043 30.449 o
-3 -4 7 28.086 26.029 7.266 20.731 o
-3 -4 8 1.831 1.114 0.860 1632.070 o
-3 -4 9 12.998 19.176 6.693 26.555 o
-3 -3 -12 10.048 10.567 4.587 56.599 o
-3 -3 -11 40.729 60.429 10.034 10.159 o
-3 -3 -10 173.617 193.342 16.953 2.043 o
-3 -3 -9 23.564 30.530 6.214 27.583 o
-3 -3 -8 36.459 32.080 6.016 25.810 o
-3 -3 -7 6.884 6.428 2.562 178.118 o
-3 -3 -6 88.618 74.135 8.371 8.915 o
-3 -3 -5 185.305 188.331 12.646 2.467 o
-3 -3 -4 285.641 300.000 15.567 1.152 o
-3 -3 -3 396.807 446.074 18.880 0.606 o
-3 -3 -2 169.008 177.409 11.478 2.930 o
-3 -3 -1 87.045 95.394 8.317 8.345 o
-3 -3 0 71.983 65.958 7.098 12.588 o
-3 -3 1 26.066 26.407 4.762 42.335 o
-3 -3 2 64.110 53.950 7.378 13.694 o
-3 -3 3 18.883 22.591 5.070 42.019 o
-3 -3 4 127.852 132.380 13.028 3.710 o
-3 -3 5 146.076 150.403 14.835 2.857 o
-3 -3 6 46.593 48.188 8.765 12.624 o
-3 -3 7 66.696 77.417 11.778 6.646 o
-3 -3 8 52.110 74.933 12.047 6.914 o
-3 -3 9 25.064 40.206 9.395 12.841 o
-3 -2 -11 1.872 4.139 3.010 136.920 o
-3 -2 -10 35.245 32.609 6.989 20.609 o
-3 -2 -9 8.213 9.103 3.734 85.216 o
-3 -2 -8 27.514 26.177 5.408 34.178 o
-3 -2 -7 2.662 1.137 0.958 1296.750 o
-3 -2 -6 5.889 6.814 2.620 172.377 o
-3 -2 -5 8.809 10.116 2.741 149.363 o
-3 -2 -4 94.221 90.550 8.367 7.992 o
-3 -2 -3 533.681 482.296 19.990 0.408 o
-3 -2 -2 325.961 320.493 15.723 0.964 o
-3 -2 -1 104.707 86.002 7.830 7.903 o
-3 -2 0 68.071 65.538 7.047 13.183 o
-3 -2 1 63.592 62.707 7.343 13.304 o
-3 -2 2 61.774 61.535 7.433 13.401 o
-3 -2 3 196.454 179.053 13.312 2.313 o
-3 -2 4 217.583 198.525 14.796 1.881 o
-3 -2 5 15.350 21.855 5.198 41.542 o
-3 -2 6 80.694 81.104 10.984 6.723 o
-3 -2 7 1.904 0.973 1.705 425.990 o
-3 -2 8 11.105 6.012 3.255 108.873 o
-3 -2 9 18.875 25.200 6.822 24.538 o
-3 -2 10 36.184 44.777 9.458 11.939 o
-3 -1 -11 2.579 3.208 2.737 165.094 o
-3 -1 -10 104.109 114.936 13.161 4.323 o
-3 -1 -9 55.754 60.834 9.049 10.883 o
-3 -1 -8 48.833 59.055 8.145 13.351 o
-3 -1 -7 271.841 305.405 18.370 1.099 o
-3 -1 -6 218.557 195.491 13.807 1.969 o
-3 -1 -5 95.829 80.688 8.212 8.347 o
-3 -1 -4 104.994 100.043 8.870 6.743 o
-3 -1 -3 924.574 854.274 28.003 0.141 o
-3 -1 -2 283.754 282.047 14.882 1.222 o
-3 -1 -1 246.961 221.407 12.689 1.715 o
-3 -1 0 147.645 148.153 10.544 3.794 o
-3 -1 1 170.064 166.383 11.934 2.926 o
-3 -1 3 66.383 83.884 8.184 10.496 o
-3 -1 4 78.356 77.577 8.445 9.451 o
-3 -1 5 22.309 24.721 5.143 39.312 o
-3 -1 6 5.362 3.952 2.029 287.029 o
-3 -1 7 5.823 5.482 2.776 155.586 o
-3 -1 8 3.046 3.064 2.710 168.048 o
-3 -1 9 2.648 0.677 1.725 414.546 o
-3 -1 10 24.055 15.878 5.233 39.144 o
-3 0 -11 24.738 35.892 8.013 17.286 o
-3 0 -10 8.609 11.545 4.264 65.447 o
-3 0 -9 65.938 75.276 10.116 8.335 o
-3 0 -8 93.088 90.052 10.567 6.365 o
-3 0 -7 61.361 56.878 8.068 12.389 o
-3 0 -6 46.467 44.878 6.662 19.093 o
-3 0 -5 121.603 121.314 10.412 4.885 o
-3 0 -4 30.550 28.011 4.781 39.458 o
-3 0 -3 864.098 895.765 29.222 0.147 o
-3 0 -2 62.252 57.622 6.857 14.910 o
-3 0 -1 700.423 715.334 24.495 0.224 o
-3 0 0 349.705 319.951 15.758 0.892 o
-3 0 1 58.568 60.429 7.102 14.630 o
-3 0 4 56.518 58.630 6.666 16.202 o
-3 0 5 14.362 14.286 3.461 89.051 o
-3 0 6 32.860 42.300 6.537 22.442 o
-3 0 7 54.967 58.241 8.282 12.501 o
-3 0 8 1.419 1.094 1.199 858.749 o
-3 0 9 34.393 38.325 7.406 18.494 o
-3 0 10 6.547 6.284 2.897 141.882 o
-3 1 -10 83.236 86.949 12.156 5.706 o
-3 1 -9 127.083 156.547 14.975 3.037 o
-3 1 -8 10.649 11.529 3.520 91.995 o
-3 1 -7 26.669 25.328 5.276 36.015 o
-3 1 -6 44.793 44.905 6.759 19.005 o
-3 1 -5 104.662 109.734 10.073 5.828 o
-3 1 -4 95.407 107.090 9.621 6.541 o
-3 1 -3 178.316 205.868 13.141 2.386 o
-3 1 -2 17.588 13.721 3.321 91.333 o
-3 1 -1 224.440 219.542 13.098 1.873 o
-3 1 0 649.955 630.118 23.163 0.268 o
-3 1 1 91.402 91.306 8.691 7.865 o
-3 1 5 37.354 37.928 4.953 32.371 o
-3 1 6 11.778 15.652 3.496 89.707 o
-3 1 7 61.854 60.359 7.620 13.065 o
-3 1 8 44.059 47.767 7.172 17.375 o
-3 1 9 4.073 1.511 1.526 513.660 o
-3 2 -9 23.720 20.776 5.716 33.033 o
-3 2 -8 3.245 2.289 1.818 368.462 o
-3 2 -7 5.841 4.030 2.426 202.948 o
-3 2 -6 16.367 13.908 3.913 70.504 o
-3 2 -5 66.509 68.388 8.021 11.429 o
-3 2 -4 96.244 105.880 9.574 6.562 o
-3 2 -3 209.837 222.794 13.842 1.924 o
-3 2 -2 99.170 123.592 10.178 5.717 o
-3 2 -1 21.056 23.338 4.326 53.257 o
-3 2 0 156.276 178.496 11.989 3.038 o
-3 2 1 2.361 1.752 1.090 1011.890 o
-3 3 -8 8.343 8.870 3.641 89.407 o
-3 3 -7 1.016 4.489 2.617 181.299 o
-3 3 -6 16.829 18.557 4.225 59.875 o
-3 3 -5 157.234 180.925 12.658 2.889 o
-3 3 -4 459.011 524.858 21.672 0.450 o
-3 3 -3 215.783 212.760 12.829 1.999 o
-3 3 -2 8.327 8.356 2.437 188.356 o
-3 3 -1 11.169 13.429 3.255 104.015 o
-3 3 0 26.349 32.282 5.003 37.817 o
-3 3 1 16.919 24.970 4.563 50.675 o
-3 3 2 68.095 63.458 7.811 11.876 o
-3 4 -2 132.195 114.259 8.340 5.466 o
-3 4 -1 32.230 29.385 4.104 46.958 o
-3 4 0 13.656 15.010 3.154 104.720 o
-3 4 1 102.873 95.740 8.753 7.042 o
-3 4 2 147.276 128.248 10.914 3.937 o
-3 4 3 36.371 39.419 6.479 22.342 o
-2 -8 3 39.465 43.944 9.341 12.016 o
-2 -7 2 70.703 46.400 8.628 11.003 o
-2 -7 3 6.034 4.404 2.379 209.667 o
-2 -7 4 31.721 22.657 6.269 26.299 o
-2 -7 5 7.793 9.824 4.735 54.024 o
-2 -6 -6 5.587 4.910 2.142 256.464 o
-2 -6 -5 2.018 1.686 0.970 1280.130 o
-2 -6 -4 75.967 74.886 6.300 12.914 o
-2 -6 -3 11.681 11.257 1.986 237.008 o
-2 -6 -2 296.581 308.819 10.330 1.238 o
-2 -6 -1 18.744 14.204 1.943 185.433 o
-2 -6 0 124.475 115.785 6.787 6.453 o
-2 -6 1 175.952 173.491 7.965 3.380 o
-2 -6 2 26.265 22.728 2.993 81.978 o
-2 -6 3 22.481 16.021 5.815 32.939 o
-2 -6 4 17.246 13.425 4.602 52.669 o
-2 -6 5 2.318 3.905 1.842 359.875 o
-2 -6 6 10.487 15.037 5.478 39.736 o
-2 -6 7 17.733 24.760 7.320 21.694 o
-2 -5 -8 135.057 150.010 13.456 3.315 o
-2 -5 -7 278.759 286.599 17.381 1.144 o
-2 -5 -6 497.429 553.635 22.828 0.393 o
-2 -5 -5 103.929 123.561 9.321 5.986 o
-2 -5 -4 26.360 26.325 3.933 55.797 o
-2 -5 -3 324.401 347.043 14.266 0.958 o
-2 -5 -2 636.533 684.493 19.690 0.269 o
-2 -5 -1 244.053 235.872 10.260 1.819 o
-2 -5 0 120.058 117.444 7.211 6.446 o
-2 -5 1 75.244 70.504 6.150 13.582 o
-2 -5 2 81.145 76.003 5.732 13.037 o
-2 -5 3 234.789 241.210 18.078 1.408 o
-2 -5 4 68.727 62.026 9.687 9.056 o
-2 -5 5 28.223 21.867 6.086 28.507 o
-2 -5 6 14.438 15.263 5.303 41.267 o
-2 -5 7 13.034 13.425 5.136 44.466 o
-2 -5 8 3.213 1.250 2.694 170.614 o
-2 -4 -9 1.725 0.421 0.537 4093.150 o
-2 -4 -8 89.620 113.122 11.506 5.500 o
-2 -4 -7 130.040 139.883 11.844 3.932 o
-2 -4 -6 192.020 226.726 14.075 2.042 o
-2 -4 -5 269.003 313.990 15.578 1.192 o
-2 -4 -4 123.759 156.376 10.065 4.426 o
-2 -4 -3 43.764 44.594 4.816 29.359 o
-2 -4 -2 106.243 121.664 7.569 6.897 o
-2 -4 -1 149.696 154.382 8.484 4.159 o
-2 -4 0 30.141 35.806 4.143 45.596 o
-2 -4 1 83.883 85.857 5.572 12.202 o
-2 -4 2 2.539 1.966 1.226 801.472 o
-2 -4 3 179.659 191.006 14.909 2.238 o
-2 -4 4 101.284 98.049 11.315 5.474 o
-2 -4 5 20.063 16.941 4.949 44.469 o
-2 -4 6 176.611 194.222 17.525 1.954 o
-2 -4 7 23.562 23.553 6.351 27.245 o
-2 -4 8 11.303 12.993 4.766 51.816 o
-2 -4 9 0.587 5.533 4.201 70.607 o
-2 -3 -9 14.240 15.999 4.750 50.475 o
-2 -3 -8 40.490 30.639 6.035 24.873 o
-2 -3 -7 62.182 67.921 8.107 11.708 o
-2 -3 -6 16.793 15.598 3.590 80.258 o
-2 -3 -5 15.440 13.616 3.158 102.707 o
-2 -3 -4 323.877 352.401 15.563 0.924 o
-2 -3 -3 427.507 417.261 16.026 0.609 o
-2 -3 -2 250.446 269.369 11.786 1.567 o
-2 -3 -1 21.636 21.688 3.189 84.150 o
-2 -3 0 236.410 224.900 10.984 1.891 o
-2 -3 1 337.072 359.371 17.529 0.837 o
-2 -3 2 312.436 330.211 17.350 0.952 o
-2 -3 3 2.924 2.694 1.631 455.697 o
-2 -3 4 67.823 87.540 9.975 8.074 o
-2 -3 5 94.208 95.628 11.035 5.915 o
-2 -3 6 50.553 51.591 8.515 12.703 o
-2 -3 7 29.095 25.406 6.319 26.207 o
-2 -3 8 162.880 184.075 17.728 2.074 o
-2 -3 9 2.246 2.235 0.907 1431.170 o
-2 -3 10 17.577 34.279 8.414 16.412 o
-2 -2 -10 8.463 4.151 2.360 206.224 o
-2 -2 -9 127.604 142.581 14.138 3.328 o
-2 -2 -8 154.996 145.201 13.172 3.098 o
-2 -2 -7 25.323 26.749 5.151 37.663 o
-2 -2 -6 13.354 13.067 3.337 96.956 o
-2 -2 -5 160.013 172.640 11.537 3.105 o
-2 -2 -4 186.598 197.761 11.389 2.543 o
-2 -2 -3 178.912 193.260 10.482 2.797 o
-2 -2 -2 434.751 411.545 15.224 0.609 o
-2 -2 -1 706.454 616.019 19.141 0.253 o
-2 -2 0 25.761 24.405 3.500 67.013 o
-2 -2 1 541.440 538.423 19.538 0.379 o
-2 -2 2 3.159 3.890 1.791 376.031 o
-2 -2 3 315.957 337.111 16.992 0.939 o
-2 -2 4 188.492 195.453 13.569 2.282 o
-2 -2 5 25.752 22.544 5.027 39.863 o
-2 -2 6 56.999 60.608 8.780 11.267 o
-2 -2 7 11.347 10.369 3.851 77.908 o
-2 -2 8 32.437 26.247 6.245 25.919 o
-2 -2 9 3.932 4.719 2.628 176.443 o
-2 -2 10 24.056 26.103 7.094 22.143 o
-2 -1 -9 13.794 11.568 4.326 61.221 o
-2 -1 -8 163.390 177.542 14.321 2.565 o
-2 -1 -7 48.125 49.286 6.857 17.723 o
-2 -1 -6 187.391 184.675 12.522 2.479 o
-2 -1 -5 470.430 509.649 20.773 0.452 o
-2 -1 -4 344.606 310.424 14.500 0.947 o
-2 -1 -3 63.228 63.949 5.996 16.404 o
-2 -1 -2 1798.990 1645.790 36.370 0.039 o
-2 -1 -1 4452.150 3893.240 69.840 0.007 o
-2 -1 0 84.094 75.303 6.043 12.216 o
-2 -1 2 86.083 76.117 6.607 11.152 o
-2 -1 3 517.264 538.688 19.998 0.397 o
-2 -1 4 25.783 23.743 4.283 50.727 o
-2 -1 5 18.453 13.834 3.765 73.374 o
-2 -1 6 28.999 40.026 6.705 22.470 o
-2 -1 7 121.523 142.939 13.305 3.651 o
-2 -1 8 54.018 61.527 9.193 10.735 o
-2 -1 9 85.936 95.156 12.121 5.529 o
-2 -1 10 52.202 65.865 10.676 8.551 o
-2 -1 11 45.454 65.214 11.233 8.156 o
-2 0 -9 44.117 33.045 6.911 19.502 o
-2 0 -8 75.952 71.304 9.306 8.808 o
-2 0 -7 14.497 13.437 3.699 79.704 o
-2 0 -6 176.302 182.755 12.584 2.623 o
-2 0 -5 75.692 68.699 7.223 11.800 o
-2 0 -4 694.968 678.204 22.976 0.237 o
-2 0 -3 169.687 168.287 9.855 3.262 o
-2 0 -2 816.212 729.994 21.625 0.188 o
-2 0 -1 420.622 398.832 14.722 0.650 o
-2 0 0 907.427 788.024 22.346 0.156 o
-2 0 2 469.579 409.318 14.188 0.563 o
-2 0 3 310.744 329.148 13.620 1.052 o
-2 0 4 346.531 382.989 16.081 0.810 o
-2 0 5 486.954 575.518 22.209 0.396 o
-2 0 6 124.303 125.963 10.688 4.630 o
-2 0 7 58.937 55.204 7.600 13.733 o
-2 0 8 17.863 12.697 3.676 77.569 o
-2 0 9 1.023 -0.837 0.857 1692.520 o
-2 0 10 60.363 80.563 11.027 7.504 o
-2 0 11 0.635 1.491 2.138 273.005 o
-2 1 -8 0.893 0.086 0.989 1272.720 o
-2 1 -7 42.457 35.354 6.097 23.479 o
-2 1 -6 40.875 39.337 5.926 24.320 o
-2 1 -5 107.763 120.636 9.609 5.739 o
-2 1 -4 289.107 347.873 15.859 1.039 o
-2 1 -3 88.670 74.758 6.592 10.966 o
-2 1 -2 323.904 312.382 13.429 1.039 o
-2 1 -1 76.628 69.159 5.992 13.764 o
-2 1 0 50.134 49.282 4.890 25.645 o
-2 1 3 220.291 210.669 8.998 2.266 o
-2 1 4 586.999 594.071 18.658 0.327 o
-2 1 5 11.877 11.179 2.531 161.067 o
-2 1 6 171.884 172.235 11.416 2.935 o
-2 1 7 0.535 1.137 0.981 1290.890 o
-2 1 8 0.287 1.398 1.141 957.076 o
-2 1 9 2.867 5.498 2.496 196.222 o
-2 1 10 28.906 39.267 7.051 20.767 o
-2 1 11 2.192 5.545 2.897 147.010 o
-2 2 -7 87.128 95.059 10.057 6.881 o
-2 2 -6 167.672 195.690 13.398 2.538 o
-2 2 -5 82.117 81.081 7.826 9.762 o
-2 2 -4 204.572 226.683 12.545 2.062 o
-2 2 -3 36.698 46.412 5.155 29.402 o
-2 2 -2 132.151 142.682 8.819 4.778 o
-2 2 -1 99.245 124.526 8.340 6.743 o
-2 2 0 300.216 283.231 12.693 1.216 o
-2 2 1 882.317 860.415 25.254 0.151 o
-2 2 4 594.268 407.507 11.490 0.422 o
-2 2 5 167.796 142.869 8.001 3.930 o
-2 2 6 113.854 88.697 7.110 7.732 o
-2 2 7 88.012 77.448 7.359 9.963 o
-2 2 8 25.108 20.079 4.030 57.532 o
-2 2 9 42.518 35.553 5.778 25.236 o
-2 3 -6 1.067 0.249 0.818 1851.870 o
-2 3 -5 94.994 95.807 8.547 7.635 o
-2 3 -4 79.551 83.818 7.184 10.674 o
-2 3 -3 110.862 122.568 8.149 6.313 o
-2 3 -2 50.166 52.942 4.999 24.474 o
-2 3 -1 18.518 20.231 3.025 97.697 o
-2 3 0 45.168 48.464 5.085 26.457 o
-2 3 1 149.847 150.551 9.399 3.989 o
-2 3 6 54.418 40.256 3.473 34.029 o
-2 4 -4 40.001 43.924 5.175 28.521 o
-2 4 -3 34.392 35.650 3.975 44.783 o
-2 4 -2 127.997 119.024 6.697 6.221 o
-2 4 -1 22.165 18.355 2.484 118.676 o
-2 4 1 20.831 19.351 3.204 86.793 o
-2 4 2 24.535 24.359 3.964 57.609 o
-2 5 3 6.512 6.580 2.453 193.953 o
-1 -8 2 17.160 17.315 5.494 37.710 o
-1 -8 3 15.755 9.528 3.247 100.679 o
-1 -7 1 81.302 66.472 9.719 8.186 o
-1 -7 2 5.336 2.410 1.986 302.380 o
-1 -7 3 4.704 4.579 2.683 168.568 o
-1 -7 4 21.867 31.363 7.546 19.775 o
-1 -7 5 6.699 8.578 4.038 74.219 o
-1 -6 1 180.930 167.788 14.329 2.419 o
-1 -6 2 156.743 153.024 14.325 2.798 o
-1 -6 3 27.000 25.640 6.129 28.023 o
-1 -6 4 209.607 216.268 18.678 1.568 o
-1 -6 5 56.996 63.497 10.509 8.596 o
-1 -6 6 15.446 14.702 5.428 39.342 o
-1 -6 7 27.264 38.765 8.944 13.941 o
-1 -5 0 87.512 100.756 9.777 6.944 o
-1 -5 1 68.309 81.918 9.407 8.833 o
-1 -5 2 22.307 21.791 2.845 96.212 o
-1 -5 3 3.774 3.532 1.073 971.151 o
-1 -5 4 27.672 28.019 6.035 28.317 o
-1 -5 5 5.866 5.003 2.768 156.718 o
-1 -5 6 25.134 21.364 5.934 30.553 o
-1 -5 7 10.270 10.003 4.038 72.082 o
-1 -5 8 8.561 7.842 4.232 67.175 o
-1 -4 -5 191.492 234.463 13.379 2.076 o
-1 -4 -4 96.325 122.455 8.406 6.910 o
-1 -4 -3 76.728 84.001 6.000 12.678 o
-1 -4 -2 441.341 492.494 13.503 0.548 o
-1 -4 -1 106.581 126.142 5.050 8.154 o
-1 -4 0 128.048 122.105 16.038 3.005 o
-1 -4 1 148.230 157.377 6.002 4.723 o
-1 -4 2 218.976 255.666 9.004 2.032 o
-1 -4 3 167.948 179.471 8.323 3.433 o
-1 -4 4 30.175 37.106 6.740 22.331 o
-1 -4 5 46.616 38.882 7.094 17.932 o
-1 -4 6 53.375 56.349 9.014 11.283 o
-1 -4 7 0.052 -0.522 1.943 331.068 o
-1 -4 8 5.535 2.940 2.204 246.285 o
-1 -4 9 28.329 24.974 6.775 23.451 o
-1 -3 -6 113.823 135.012 10.961 4.697 o
-1 -3 -5 144.351 180.684 11.451 3.327 o
-1 -3 -4 817.943 976.581 26.847 0.151 o
-1 -3 -3 380.656 415.914 14.192 0.719 o
-1 -3 -2 95.174 107.608 5.907 9.368 o
-1 -3 -1 203.550 226.037 7.639 2.484 o
-1 -3 0 18.732 17.426 1.654 205.592 o
-1 -3 1 309.475 338.890 15.516 0.993 o
-1 -3 2 792.466 882.737 28.198 0.165 o
-1 -3 3 34.875 36.082 5.506 29.241 o
-1 -3 4 72.693 74.411 8.550 9.862 o
-1 -3 5 126.913 134.992 12.319 3.911 o
-1 -3 6 240.803 257.965 18.261 1.329 o
-1 -3 7 256.699 257.447 19.285 1.212 o
-1 -3 8 74.059 74.201 10.641 7.435 o
-1 -3 9 37.174 34.914 7.764 16.998 o
-1 -3 10 1.068 -1.406 1.608 482.359 o
-1 -2 -7 29.197 35.167 6.031 27.116 o
-1 -2 -6 12.575 12.814 3.485 90.937 o
-1 -2 -5 85.522 94.736 8.107 8.673 o
-1 -2 -4 1067.510 1144.720 29.553 0.098 o
-1 -2 -3 1091.370 1156.670 27.762 0.095 o
-1 -2 -2 1681.710 1774.430 35.152 0.041 o
-1 -2 -1 1621.380 1574.620 29.568 0.047 o
-1 -2 0 427.339 410.612 8.997 0.673 o
-1 -2 1 671.948 649.302 20.146 0.260 o
-1 -2 2 458.767 462.151 17.381 0.518 o
-1 -2 3 194.682 221.174 12.845 2.160 o
-1 -2 4 142.612 138.765 10.996 3.901 o
-1 -2 5 10.914 7.425 2.613 160.737 o
-1 -2 6 64.702 75.669 9.146 9.590 o
-1 -2 7 493.474 502.450 25.854 0.399 o
-1 -2 8 176.283 177.779 15.824 2.222 o
-1 -2 9 7.822 5.155 2.262 223.271 o
-1 -2 10 16.570 17.066 5.346 39.831 o
-1 -2 11 10.902 7.452 4.158 68.511 o
-1 -1 -7 143.561 160.445 12.946 3.205 o
-1 -1 -6 254.970 292.914 16.159 1.280 o
-1 -1 -5 286.093 312.289 15.080 1.141 o
-1 -1 -4 205.237 220.278 11.233 2.202 o
-1 -1 -3 812.703 799.620 22.022 0.178 o
-1 -1 -2 636.962 623.581 16.692 0.292 o
-1 -1 1 1913.230 1694.200 33.882 0.036 o
-1 -1 2 25.741 23.023 3.115 78.788 o
-1 -1 3 1.677 3.232 1.495 547.272 o
-1 -1 4 216.106 241.530 13.336 1.834 o
-1 -1 5 116.473 116.318 9.995 5.312 o
-1 -1 6 166.814 196.866 13.900 2.472 o
-1 -1 7 137.411 136.522 12.374 3.666 o
-1 -1 8 215.593 239.225 17.568 1.548 o
-1 -1 9 24.839 26.644 6.101 28.605 o
-1 -1 10 55.294 62.571 10.268 9.011 o
-1 -1 11 21.510 20.492 6.183 29.264 o
-1 0 -7 95.570 100.888 10.345 6.197 o
-1 0 -6 267.969 286.439 16.123 1.237 o
-1 0 -5 135.636 134.591 9.691 4.516 o
-1 0 -4 666.277 643.617 20.773 0.262 o
-1 0 -3 23.475 18.218 2.928 94.071 o
-1 0 -2 1390.500 1163.330 25.414 0.070 o
-1 0 -1 439.184 361.041 10.774 0.686 o
-1 0 1 788.533 594.807 13.815 0.230 o
-1 0 2 675.530 534.502 14.632 0.300 o
-1 0 3 942.021 892.039 23.062 0.138 o
-1 0 4 386.054 410.860 15.902 0.692 o
-1 0 5 176.151 185.800 11.299 2.783 o
-1 0 6 58.781 48.090 6.327 17.732 o
-1 0 7 70.805 71.090 8.247 10.572 o
-1 0 8 90.704 95.398 10.349 6.505 o
-1 0 9 38.023 27.088 5.992 26.195 o
-1 0 10 31.607 39.450 7.853 17.033 o
-1 0 11 15.753 10.739 4.022 68.829 o
-1 0 12 49.192 48.164 9.598 10.779 o
-1 1 -6 127.273 132.656 10.801 4.416 o
-1 1 -5 1097.890 1018.380 30.806 0.101 o
-1 1 -4 1380.160 1465.480 34.871 0.059 o
-1 1 -3 959.690 897.583 23.327 0.134 o
-1 1 -2 1764.910 1669.690 33.816 0.040 o
-1 1 -1 1344.190 1219.130 24.775 0.071 o
-1 1 0 1875.770 1669.920 31.044 0.037 o
-1 1 2 4386.410 3544.720 55.753 0.007 o
-1 1 3 1025.830 952.227 20.932 0.120 o
-1 1 4 731.398 705.199 19.418 0.223 o
-1 1 5 151.155 153.760 9.150 3.973 o
-1 1 6 55.362 53.826 6.039 18.789 o
-1 1 7 0.984 0.553 0.697 2536.010 o
-1 1 8 81.085 92.544 9.493 7.709 o
-1 1 9 9.886 12.701 3.905 76.104 o
-1 1 10 40.762 36.020 6.966 19.573 o
-1 1 11 4.419 7.865 3.329 109.703 o
-1 1 12 8.606 4.637 2.387 200.719 o
-1 2 -5 56.328 49.761 6.023 19.065 o
-1 2 -4 245.758 256.244 12.432 1.613 o
-1 2 -3 510.314 538.275 16.840 0.419 o
-1 2 -2 165.200 193.292 8.313 3.346 o
-1 2 -1 35.269 30.764 2.733 66.273 o
-1 2 0 92.627 87.077 4.851 11.809 o
-1 2 3 182.731 147.425 4.816 3.967 o
-1 2 4 76.981 78.834 4.661 15.267 o
-1 2 5 99.591 92.248 6.121 9.489 o
-1 2 6 21.971 20.332 3.251 82.468 o
-1 2 7 144.159 133.758 9.516 4.336 o
-1 2 8 108.713 91.901 8.663 6.896 o
-1 2 9 53.078 52.521 7.129 15.867 o
-1 2 10 26.565 27.364 5.638 32.064 o
-1 2 11 15.096 18.658 5.003 45.148 o
-1 3 -3 143.297 138.002 7.846 4.777 o
-1 3 -2 663.460 704.093 17.070 0.257 o
-1 3 -1 88.437 69.828 3.812 15.230 o
-1 3 1 370.267 355.017 11.735 0.850 o
-1 3 4 242.623 179.228 5.607 2.397 o
-1 3 5 45.502 33.715 3.010 47.488 o
-1 3 6 15.661 13.488 2.266 169.734 o
-1 3 7 61.655 40.731 4.579 24.591 o
-1 3 8 125.935 106.970 8.535 5.793 o
-1 3 9 83.461 67.959 7.491 10.651 o
-1 4 1 8.075 8.062 0.930 824.858 o
-1 4 2 13.750 13.846 2.145 192.280 o
-1 4 3 26.845 26.041 3.578 62.935 o
-1 4 6 2.393 1.593 0.545 3651.370 o
-1 5 2 19.730 16.575 2.223 148.307 o
0 -7 1 57.178 59.004 8.827 11.232 o
0 -7 2 11.193 8.239 2.944 128.771 o
0 -7 3 26.699 29.451 6.666 24.010 o
0 -7 4 23.677 20.262 5.938 30.988 o
0 -7 5 29.082 29.451 7.643 18.671 o
0 -6 1 85.732 89.962 10.081 7.043 o
0 -6 2 63.073 65.935 9.002 10.246 o
0 -6 3 41.616 45.092 7.850 15.644 o
0 -6 4 10.739 8.858 3.777 81.762 o
0 -6 5 11.429 7.554 3.551 91.654 o
0 -6 6 12.067 6.861 3.617 88.324 o
0 -6 7 4.513 0.549 2.519 193.824 o
0 -5 -7 144.538 160.581 15.209 2.743 o
0 -5 -6 16.308 13.363 4.314 59.633 o
0 -5 -5 28.241 22.968 5.268 35.958 o
0 -5 -4 48.237 45.941 7.258 16.623 o
0 -5 -3 341.372 385.399 21.765 0.718 o
0 -5 0 222.641 233.999 14.216 1.750 o
0 -5 1 45.255 36.534 5.798 24.257 o
0 -5 2 47.786 47.273 6.927 17.696 o
0 -5 3 59.120 53.464 7.741 13.492 o
0 -5 4 1.739 3.372 1.865 353.992 o
0 -5 5 74.484 70.564 10.057 8.082 o
0 -5 6 3.378 3.532 2.184 255.642 o
0 -5 7 17.720 18.756 5.778 34.103 o
0 -5 8 2.754 1.943 1.480 555.269 o
0 -4 -9 6.142 4.061 2.655 170.087 o
0 -4 -8 138.021 143.667 13.406 3.331 o
0 -4 -7 18.231 20.776 4.980 43.950 o
0 -4 -6 35.398 37.254 6.498 22.646 o
0 -4 -5 206.173 224.994 15.536 1.806 o
0 -4 -4 26.688 24.323 4.813 41.855 o
0 -4 -3 129.016 141.611 11.642 3.996 o
0 -4 -2 511.781 581.615 24.172 0.363 o
0 -4 0 520.384 611.078 21.652 0.357 o
0 -4 1 250.879 300.787 15.298 1.317 o
0 -4 2 37.342 33.977 5.276 30.529 o
0 -4 3 15.893 15.403 2.133 177.978 o
0 -4 4 168.895 148.645 7.719 3.880 o
0 -4 5 81.987 79.730 10.050 7.488 o
0 -4 6 197.069 222.054 17.774 1.695 o
0 -4 7 70.196 76.884 10.925 7.276 o
0 -4 8 4.987 8.753 3.855 81.963 o
0 -4 9 6.469 6.868 3.154 120.378 o
0 -3 -9 42.825 44.831 6.826 19.086 o
0 -3 -8 112.494 119.690 11.027 4.931 o
0 -3 -7 9.545 16.229 4.112 68.329 o
0 -3 -6 246.681 308.952 17.229 1.236 o
0 -3 -5 239.661 267.668 15.462 1.456 o
0 -3 -4 109.704 121.808 9.956 5.474 o
0 -3 -3 451.078 524.196 20.936 0.464 o
0 -3 -2 628.579 794.620 26.048 0.234 o
0 -3 -1 118.549 177.982 11.132 3.966 o
0 -3 0 290.697 301.254 12.997 1.209 o
0 -3 1 127.148 129.358 8.504 5.303 o
0 -3 2 508.182 536.755 12.043 0.443 o
0 -3 3 399.931 458.768 12.653 0.652 o
0 -3 4 61.456 60.667 7.480 13.389 o
0 -3 5 34.023 38.489 6.319 23.792 o
0 -3 6 45.902 39.248 6.732 19.413 o
0 -3 7 162.666 160.624 14.558 2.637 o
0 -3 8 176.804 167.948 15.952 2.246 o
0 -3 9 6.512 4.431 2.192 242.983 o
0 -3 10 16.596 9.952 4.030 68.273 o
0 -2 -9 42.844 38.438 5.428 26.844 o
0 -2 -8 85.730 80.139 7.888 9.434 o
0 -2 -7 104.666 106.604 9.099 6.457 o
0 -2 -6 67.114 57.599 6.378 15.333 o
0 -2 -5 485.771 498.291 19.328 0.451 o
0 -2 -4 292.948 299.716 14.329 1.162 o
0 -2 -3 343.472 400.402 15.812 0.800 o
0 -2 -2 178.252 210.435 10.832 2.636 o
0 -2 -1 65.046 97.395 6.806 12.045 o
0 -2 0 917.872 1040.540 23.319 0.129 o
0 -2 1 847.279 842.549 21.779 0.164 o
0 -2 2 20.347 21.857 2.099 142.859 o
0 -2 3 11.459 14.294 1.976 229.733 o
0 -2 4 51.558 57.221 6.358 18.124 o
0 -2 5 21.357 19.530 4.197 57.023 o
0 -2 6 56.439 57.345 7.511 14.111 o
0 -2 7 102.915 102.496 10.669 5.699 o
0 -2 8 92.221 85.605 10.388 6.618 o
0 -2 9 91.937 98.466 12.113 5.314 o
0 -2 10 24.067 37.204 8.060 17.110 o
0 -2 11 14.762 10.887 4.614 54.102 o
0 -1 -8 72.511 65.771 5.875 14.909 o
0 -1 -7 39.502 35.479 4.228 38.545 o
0 -1 -6 518.790 541.896 17.868 0.405 o
0 -1 -5 1.676 0.888 0.639 2922.120 o
0 -1 -4 30.316 33.104 3.711 53.138 o
0 -1 -3 326.107 324.935 11.373 1.051 o
0 -1 -2 2047.970 2225.590 40.622 0.027 o
0 -1 1 289.424 277.753 5.799 1.474 o
0 -1 2 270.822 261.268 6.910 1.638 o
0 -1 3 568.921 520.006 14.284 0.384 o
0 -1 4 74.121 71.370 6.487 13.073 o
0 -1 5 52.489 55.803 6.214 18.569 o
0 -1 6 74.922 54.304 6.693 13.728 o
0 -1 7 181.565 177.604 13.125 2.516 o
0 -1 8 153.810 132.691 12.292 3.413 o
0 -1 9 22.832 21.917 5.264 38.126 o
0 -1 10 13.499 8.656 3.641 85.227 o
0 -1 11 15.829 16.003 5.529 37.769 o
0 -1 12 8.990 11.221 4.816 51.763 o
0 0 -7 72.572 48.885 3.660 22.655 o
0 0 -6 79.246 68.972 4.283 16.497 o
0 0 2 291.767 270.487 8.817 1.409 o
0 0 3 424.478 381.823 9.563 0.705 o
0 0 4 636.585 595.258 18.199 0.297 o
0 0 5 337.171 333.774 14.484 0.934 o
0 0 6 79.212 85.052 7.787 9.885 o
0 0 7 72.684 81.704 8.395 9.787 o
0 0 8 326.367 310.089 18.273 0.917 o
0 0 9 148.489 127.162 12.425 3.531 o
0 0 10 23.286 22.069 5.572 34.455 o
0 0 11 3.089 4.750 3.349 110.159 o
0 0 12 1.997 -0.970 1.371 659.119 o
0 1 -2 271.024 250.910 10.014 1.566 o
0 1 -1 289.437 282.491 9.162 1.378 o
0 1 0 3594.170 3728.090 58.537 0.009 o
0 1 1 490.137 554.328 14.640 0.442 o
0 1 2 2048.280 2244.060 41.136 0.027 o
0 1 3 326.354 344.431 13.238 0.977 o
0 1 6 519.209 564.327 20.173 0.384 o
0 1 7 39.564 36.690 5.358 28.672 o
0 1 8 72.306 80.470 8.741 9.423 o
0 1 9 6.133 8.617 2.924 138.334 o
0 1 10 17.110 18.631 4.960 45.108 o
0 1 11 1.620 1.390 0.413 6437.500 o
0 1 12 12.564 9.648 3.944 73.955 o
0 2 -6 56.324 39.065 2.936 36.590 o
0 2 -5 21.248 16.194 2.188 145.151 o
0 2 -4 51.483 47.607 3.874 31.114 o
0 2 -3 11.487 12.362 2.013 229.826 o
0 2 -2 20.482 23.042 2.244 130.409 o
0 2 -1 847.043 883.927 15.586 0.164 o
0 2 0 917.055 1019.660 22.863 0.131 o
0 2 1 64.766 80.849 2.524 22.522 o
0 2 2 177.967 216.896 12.216 2.434 o
0 2 3 343.683 403.209 14.605 0.815 o
0 2 7 104.779 110.388 9.072 6.380 o
0 2 8 85.564 89.254 8.862 8.128 o
0 2 9 42.999 35.997 6.070 23.421 o
0 2 10 1.756 3.812 1.698 424.879 o
0 2 11 9.581 6.627 2.301 207.150 o
0 2 12 11.281 5.673 2.971 128.704 o
0 3 -5 34.036 26.835 3.609 54.285 o
0 3 -4 61.407 54.425 5.342 19.714 o
0 3 -3 399.598 411.012 16.295 0.661 o
0 3 -2 507.417 566.847 19.542 0.396 o
0 3 -1 127.313 145.120 8.889 4.875 o
0 3 0 290.748 329.623 12.872 1.150 o
0 3 1 118.790 148.791 7.725 5.546 o
0 3 2 629.448 779.939 13.496 0.261 o
0 3 3 450.944 507.663 17.070 0.501 o
0 3 8 112.525 107.608 9.298 5.973 o
0 3 9 42.860 43.048 6.424 20.943 o
0 3 10 12.665 14.780 3.983 70.804 o
0 3 11 13.060 10.758 3.602 86.306 o
0 3 12 2.424 -0.249 1.624 469.433 o
0 4 1 1.653 3.785 1.437 589.491 o
0 4 2 512.189 592.286 14.825 0.401 o
0 4 3 129.160 147.328 5.812 5.775 o
0 4 9 6.168 6.436 2.395 204.041 o
0 5 2 171.079 202.410 11.077 2.766 o
0 5 3 341.053 416.577 10.501 0.862 o
0 5 4 48.108 50.291 3.544 34.351 o
1 -7 3 0.781 2.430 2.138 272.456 o
1 -7 4 11.313 11.502 4.201 65.976 o
1 -6 -9 3.741 2.772 2.192 253.914 o
1 -6 -8 17.462 13.367 5.210 42.040 o
1 -6 -7 28.238 20.103 5.763 31.469 o
1 -6 -6 3.339 2.180 1.908 335.323 o
1 -6 -5 61.624 53.327 9.076 10.684 o
1 -6 -4 14.957 11.716 3.956 71.121 o
1 -6 -3 6.470 9.111 3.415 102.440 o
1 -6 -2 61.872 54.242 8.768 11.155 o
1 -6 0 59.974 53.323 6.997 15.191 o
1 -6 1 46.484 47.241 6.927 17.906 o
1 -6 2 45.792 44.313 7.332 16.832 o
1 -6 3 12.631 13.164 4.478 57.624 o
1 -6 4 105.036 84.928 11.272 5.589 o
1 -6 5 0.414 0.055 1.900 346.080 o
1 -6 6 8.121 6.588 3.395 103.235 o
1 -5 -10 14.586 14.492 4.688 51.874 o
1 -5 -9 12.808 12.245 4.310 61.965 o
1 -5 -8 22.977 27.754 6.681 24.664 o
1 -5 -7 39.341 31.044 6.814 20.903 o
1 -5 -6 34.102 43.161 7.920 16.340 o
1 -5 -5 57.102 44.824 7.908 13.795 o
1 -5 -4 64.941 53.771 8.344 11.675 o
1 -5 -3 123.107 120.169 12.168 4.208 o
1 -5 -2 19.798 21.446 5.073 41.834 o
1 -5 -1 12.904 10.552 3.321 100.000 o
1 -5 0 208.388 210.129 9.986 2.332 o
1 -5 1 72.301 68.232 7.655 11.480 o
1 -5 2 93.983 96.340 9.586 6.882 o
1 -5 3 142.963 148.998 13.059 3.285 o
1 -5 4 46.934 47.276 7.756 15.192 o
1 -5 5 124.154 147.039 14.920 3.155 o
1 -5 6 14.011 10.478 4.065 68.788 o
1 -5 7 13.836 17.334 5.778 35.071 o
1 -5 8 29.328 40.342 9.228 13.014 o
1 -4 -10 0.192 1.008 1.507 549.903 o
1 -4 -9 33.230 44.547 7.935 16.306 o
1 -4 -8 27.823 27.333 6.117 27.737 o
1 -4 -7 131.861 137.278 13.632 3.431 o
1 -4 -6 2.359 3.072 2.469 202.847 o
1 -4 -5 33.108 41.062 7.020 20.140 o
1 -4 -4 34.213 29.218 5.692 29.075 o
1 -4 -3 26.804 23.611 4.988 39.683 o
1 -4 -2 13.758 18.896 4.505 55.092 o
1 -4 0 96.260 106.678 6.245 9.034 o
1 -4 1 105.064 112.118 7.051 7.576 o
1 -4 2 187.805 184.481 6.307 3.222 o
1 -4 3 5.503 4.401 1.215 718.587 o
1 -4 4 104.984 98.661 10.497 5.789 o
1 -4 5 110.298 110.579 11.918 4.738 o
1 -4 6 44.557 45.267 8.056 14.714 o
1 -4 7 63.645 63.365 10.209 8.645 o
1 -4 8 6.403 4.454 2.566 180.748 o
1 -4 9 2.877 4.084 2.605 181.320 o
1 -3 -10 82.237 90.874 10.630 6.743 o
1 -3 -9 83.629 71.978 9.399 8.230 o
1 -3 -8 125.712 143.702 13.079 3.630 o
1 -3 -7 61.747 60.671 8.181 11.953 o
1 -3 -6 15.717 16.731 4.326 58.710 o
1 -3 -5 45.275 56.205 7.285 16.237 o
1 -3 -4 242.669 272.624 15.847 1.406 o
1 -3 -3 190.923 213.573 13.601 2.161 o
1 -3 -2 149.097 164.619 11.502 3.378 o
1 -3 -1 370.006 387.318 9.802 0.830 o
1 -3 0 154.292 192.682 9.086 3.458 o
1 -3 1 88.506 89.740 3.412 13.794 o
1 -3 2 663.764 692.036 16.704 0.260 o
1 -3 3 143.084 134.266 6.558 5.226 o
1 -3 4 162.794 165.167 8.018 3.770 o
1 -3 5 23.339 20.220 4.614 47.602 o
1 -3 6 39.687 35.152 6.288 23.103 o
1 -3 7 8.774 7.301 2.796 147.021 o
1 -3 8 17.006 11.148 4.088 65.857 o
1 -3 9 33.763 20.570 5.724 30.209 o
1 -3 10 12.608 17.623 5.798 35.058 o
1 -2 -10 26.658 20.282 4.575 46.389 o
1 -2 -9 53.078 48.830 6.970 16.613 o
1 -2 -8 108.585 96.126 9.489 6.282 o
1 -2 -7 144.392 139.419 11.190 3.802 o
1 -2 -6 22.020 29.249 4.824 42.750 o
1 -2 0 92.567 90.784 3.891 12.545 o
1 -2 1 35.199 33.266 1.954 79.382 o
1 -2 2 165.395 187.093 5.459 3.817 o
1 -2 3 510.601 562.969 10.826 0.431 o
1 -2 4 245.907 248.266 13.554 1.579 o
1 -2 5 56.367 49.706 6.467 17.576 o
1 -2 6 50.295 46.190 6.670 18.273 o
1 -2 7 24.860 29.109 5.708 31.657 o
1 -2 8 101.388 93.607 10.933 5.759 o
1 -2 9 33.914 31.352 6.639 22.729 o
1 -2 10 0.155 0.685 1.273 770.424 o
1 -2 11 9.872 11.136 4.719 53.574 o
1 -1 -9 9.965 6.931 2.106 238.612 o
1 -1 -8 81.136 66.126 6.993 11.704 o
1 -1 1 1345.120 1238.650 25.130 0.070 o
1 -1 2 1764.850 1700.520 34.649 0.040 o
1 -1 3 959.605 891.192 15.876 0.139 o
1 -1 4 1379.940 1406.890 34.564 0.061 o
1 -1 5 1098.830 1094.540 30.947 0.096 o
1 -1 6 127.539 110.190 9.504 5.243 o
1 -1 7 137.679 140.860 11.872 3.751 o
1 -1 8 212.415 185.006 14.702 1.987 o
1 -1 9 31.148 21.715 5.373 34.051 o
1 -1 10 12.042 9.656 4.003 72.306 o
1 -1 11 10.559 7.301 3.987 74.422 o
1 -1 12 3.953 6.569 4.190 70.271 o
1 0 -3 942.305 893.164 21.508 0.138 o
1 0 -2 676.059 556.992 14.005 0.295 o
1 0 2 1390.560 1107.700 25.647 0.072 o
1 0 3 23.420 20.928 3.220 80.815 o
1 0 4 666.533 691.057 22.871 0.247 o
1 0 7 95.831 97.975 9.419 6.874 o
1 0 8 115.397 122.817 11.451 4.631 o
1 0 9 74.939 83.834 10.345 7.455 o
1 0 10 8.398 10.852 4.127 69.888 o
1 0 11 17.393 20.959 6.210 29.744 o
1 0 12 3.103 2.029 1.203 820.717 o
1 1 -3 1.663 1.476 1.047 1113.270 o
1 1 -2 25.704 19.881 2.893 89.217 o
1 1 -1 1913.200 1664.470 33.921 0.036 o
1 1 1 1012.340 896.696 19.873 0.127 o
1 1 2 637.295 634.249 17.502 0.287 o
1 1 3 812.279 827.759 23.031 0.173 o
1 1 4 204.944 218.090 11.907 2.157 o
1 1 9 18.830 11.922 3.913 69.278 o
1 1 10 32.453 29.319 6.604 23.378 o
1 1 11 31.212 36.682 7.772 17.528 o
1 1 12 0.071 -2.975 2.406 215.845 o
1 2 -2 459.284 449.547 16.891 0.529 o
1 2 -1 671.731 662.108 19.947 0.257 o
1 2 0 427.312 437.434 14.874 0.603 o
1 2 1 1619.830 1569.320 30.331 0.047 o
1 2 2 1680.690 1804.040 35.973 0.040 o
1 2 3 1092.360 1179.130 21.553 0.096 o
1 2 4 1067.970 1065.530 28.065 0.103 o
1 2 5 85.439 86.540 6.923 10.290 o
1 2 10 17.799 18.082 5.027 43.905 o
1 2 11 15.486 19.098 5.229 41.484 o
1 2 12 14.630 15.867 5.794 34.883 o
1 3 0 18.819 22.984 3.602 73.300 o
1 3 1 203.658 227.692 9.037 2.362 o
1 3 2 95.017 86.178 5.829 10.535 o
1 3 3 380.977 415.560 15.551 0.702 o
1 3 11 26.533 41.031 7.834 17.553 o
1 3 12 11.016 11.689 4.723 53.027 o
1 4 2 441.934 494.900 12.039 0.554 o
1 4 3 76.832 71.409 6.132 13.321 o
1 4 11 38.061 34.385 6.717 21.305 o
1 4 12 5.555 8.983 3.493 98.825 o
1 5 2 59.755 71.514 4.715 19.923 o
1 5 3 30.717 38.551 4.439 40.581 o
1 5 4 7.110 7.702 2.262 221.166 o
2 -7 -5 15.473 9.481 4.657 53.184 o
2 -7 -4 34.251 34.054 8.266 15.622 o
2 -7 -3 49.384 47.035 9.769 10.500 o
2 -7 -2 27.432 24.880 7.145 21.509 o
2 -6 -7 38.537 36.176 8.558 14.287 o
2 -6 -6 14.573 15.423 5.770 35.203 o
2 -6 -5 28.543 34.622 8.173 16.417 o
2 -6 -4 73.625 58.027 10.190 8.299 o
2 -6 -3 3.134 1.912 1.180 852.452 o
2 -6 -2 8.119 7.192 3.325 107.131 o
2 -6 -1 43.065 39.213 7.935 15.544 o
2 -6 0 136.501 136.308 14.862 3.072 o
2 -6 3 21.342 17.961 4.960 43.565 o
2 -6 4 11.172 9.259 3.528 92.218 o
2 -6 5 19.717 19.433 5.369 38.248 o
2 -5 -9 21.032 22.540 6.510 26.583 o
2 -5 -8 0.212 0.043 1.316 721.482 o
2 -5 -7 41.311 35.771 7.978 15.779 o
2 -5 -6 39.740 39.750 8.336 14.657 o
2 -5 -5 18.856 14.383 4.820 47.616 o
2 -5 -4 63.471 65.822 10.283 8.503 o
2 -5 -3 6.509 6.693 3.613 92.665 o
2 -5 -2 25.980 30.647 6.627 24.272 o
2 -5 -1 8.060 11.806 3.968 75.253 o
2 -5 0 101.794 94.247 6.480 8.900 o
2 -5 1 111.949 110.220 7.419 6.985 o
2 -5 2 82.848 76.148 6.579 11.553 o
2 -5 3 172.694 168.474 13.939 2.565 o
2 -5 4 50.491 53.530 8.340 13.011 o
2 -5 5 26.918 24.561 6.027 28.964 o
2 -5 6 14.327 14.402 4.828 49.266 o
2 -5 7 9.884 13.301 5.229 43.763 o
2 -4 -10 4.776 5.073 3.021 133.429 o
2 -4 -9 20.038 22.291 6.249 28.816 o
2 -4 -8 62.705 64.015 10.236 8.643 o
2 -4 -7 33.069 36.273 7.227 19.570 o
2 -4 -6 21.705 23.502 5.634 34.043 o
2 -4 -5 16.275 15.146 4.559 53.608 o
2 -4 -4 10.052 7.102 3.006 126.795 o
2 -4 -3 46.371 52.358 8.270 13.620 o
2 -4 -2 24.565 21.668 5.147 38.985 o
2 -4 -1 20.877 24.752 5.389 36.815 o
2 -4 0 195.413 188.710 8.605 2.798 o
2 -4 1 22.097 23.624 3.062 86.300 o
2 -4 2 127.842 139.057 11.626 4.056 o
2 -4 3 34.470 39.234 4.576 36.837 o
2 -4 4 39.886 42.608 6.950 19.250 o
2 -4 5 4.238 5.217 2.278 231.596 o
2 -4 6 36.674 43.188 8.001 15.801 o
2 -4 7 23.995 33.937 7.741 18.552 o
2 -4 8 12.195 14.309 5.284 42.252 o
2 -4 9 5.668 10.859 4.976 49.382 o
2 -3 -10 41.517 35.619 7.188 18.575 o
2 -3 -9 8.175 6.876 3.259 111.393 o
2 -3 -8 40.448 48.001 8.149 14.729 o
2 -3 -7 135.931 139.762 13.663 3.335 o
2 -3 -6 54.434 60.040 8.515 11.997 o
2 -3 -1 149.969 135.833 5.587 5.166 o
2 -3 0 45.158 42.643 3.322 40.772 o
2 -3 1 18.523 17.876 2.366 139.737 o
2 -3 2 50.077 49.321 3.232 35.466 o
2 -3 3 110.795 122.784 5.631 7.652 o
2 -3 4 79.542 83.171 6.184 12.090 o
2 -3 5 94.987 113.106 10.972 5.621 o
2 -3 6 1.066 1.900 1.674 442.991 o
2 -3 7 20.799 18.876 5.058 42.165 o
2 -3 8 87.392 70.533 10.633 6.949 o
2 -3 9 11.933 14.951 5.198 43.559 o
2 -3 10 26.420 29.335 7.702 18.707 o
2 -2 -10 14.682 17.331 4.626 52.475 o
2 -2 -9 42.414 35.759 6.362 22.076 o
2 -2 0 299.737 298.081 9.395 1.272 o
2 -2 1 99.150 117.546 7.415 7.542 o
2 -2 2 131.963 136.572 6.103 5.806 o
2 -2 3 36.890 38.458 2.837 56.731 o
2 -2 4 205.148 221.875 9.012 2.382 o
2 -2 5 81.824 83.778 6.123 11.855 o
2 -2 6 167.576 183.725 14.153 2.504 o
2 -2 7 87.236 96.001 10.879 6.263 o
2 -2 8 43.519 42.001 7.682 16.128 o
2 -2 9 54.205 43.951 8.313 13.175 o
2 -2 10 8.353 8.823 3.940 76.911 o
2 -2 11 39.404 52.564 10.349 9.898 o
2 -1 -3 220.162 233.598 7.927 2.205 o
2 -1 -2 549.058 483.990 11.424 0.430 o
2 -1 1 76.643 66.153 5.735 14.477 o
2 -1 2 324.041 320.940 13.655 1.017 o
2 -1 3 88.510 86.065 7.484 9.410 o
2 -1 5 107.659 113.110 6.354 7.807 o
2 -1 6 40.860 37.803 6.144 23.315 o
2 -1 7 42.380 38.006 6.456 21.400 o
2 -1 8 0.883 1.639 2.367 222.493 o
2 -1 9 88.001 85.543 11.233 6.184 o
2 -1 10 0.101 -0.218 0.919 1480.040 o
2 -1 11 17.435 19.386 5.961 32.209 o
2 0 -4 346.656 346.393 13.947 0.896 o
2 0 -3 311.270 321.046 12.187 1.100 o
2 0 -2 469.730 430.402 13.624 0.551 o
2 0 -1 517.085 443.010 13.277 0.481 o
2 0 1 421.036 383.799 14.737 0.663 o
2 0 2 816.316 713.897 21.894 0.190 o
2 0 3 169.823 176.588 10.778 3.034 o
2 0 9 44.244 42.090 7.772 15.756 o
2 0 10 1.636 2.901 2.258 243.040 o
2 0 11 35.230 35.635 8.360 15.172 o
2 0 12 10.527 10.159 5.027 47.432 o
2 1 -2 86.248 72.710 6.354 11.670 o
2 1 -1 503.769 471.379 16.236 0.464 o
2 1 1 4454.230 3859.130 70.607 0.007 o
2 1 2 1798.430 1554.350 36.417 0.041 o
2 1 3 63.699 59.008 6.066 16.585 o
2 1 6 187.516 142.328 6.569 3.674 o
2 1 10 8.754 8.410 3.376 102.936 o
2 1 11 15.949 20.270 6.393 28.472 o
2 1 12 2.814 1.994 1.873 349.884 o
2 2 -1 540.887 524.492 19.371 0.386 o
2 2 0 25.955 28.287 4.073 52.678 o
2 2 1 706.261 644.595 19.959 0.245 o
2 2 2 434.477 420.539 15.991 0.595 o
2 2 3 179.135 192.863 11.171 2.706 o
2 2 6 13.323 13.079 2.687 139.344 o
2 2 7 25.275 32.048 4.154 50.330 o
2 2 11 3.672 4.485 2.815 154.673 o
2 2 12 11.229 18.713 6.238 30.640 o
2 3 1 21.637 21.227 2.575 111.137 o
2 3 2 250.604 269.467 12.857 1.516 o
2 3 3 427.501 432.684 17.658 0.581 o
2 3 12 0.346 2.017 2.928 145.637 o
2 4 1 149.670 151.003 9.380 3.992 o
2 4 2 106.348 131.546 9.352 5.707 o
2 4 3 43.782 45.867 5.603 24.433 o
2 5 2 635.986 698.701 22.614 0.259 o
2 5 3 324.096 358.284 16.902 0.886 o
2 6 3 11.755 12.666 2.570 155.131 o
3 -6 -5 5.842 6.144 3.204 117.667 o
3 -6 -4 7.454 7.612 3.742 85.814 o
3 -6 -3 51.204 53.868 10.871 8.602 o
3 -6 -2 68.704 59.577 11.253 7.366 o
3 -6 -1 18.190 12.588 5.264 41.148 o
3 -6 0 58.535 69.108 11.767 7.064 o
3 -6 1 80.528 78.924 12.144 5.912 o
3 -6 2 59.704 48.289 9.613 10.110 o
3 -5 -7 17.738 19.223 6.374 28.438 o
3 -5 -6 10.720 2.449 4.007 74.902 o
3 -5 -5 29.036 31.515 7.744 18.143 o
3 -5 -4 36.886 25.106 6.709 22.375 o
3 -5 -3 7.070 7.141 3.516 97.149 o
3 -5 -2 6.749 5.190 2.617 172.771 o
3 -5 -1 2.642 2.944 1.460 566.266 o
3 -5 0 36.452 47.701 9.057 12.731 o
3 -5 1 117.257 105.763 13.242 4.113 o
3 -5 2 1.378 1.908 1.277 755.076 o
3 -5 3 144.928 137.565 15.650 2.792 o
3 -5 4 17.958 16.112 4.521 53.321 o
3 -5 5 3.257 4.980 2.920 144.077 o
3 -5 6 18.105 19.336 5.852 33.176 o
3 -4 -9 11.607 12.008 4.532 57.022 o
3 -4 -8 11.648 8.017 3.664 86.119 o
3 -4 -7 24.121 21.641 6.070 29.569 o
3 -4 -6 24.933 33.236 7.620 19.015 o
3 -4 -5 1.199 -3.964 2.581 187.360 o
3 -4 -4 8.107 11.280 4.022 73.445 o
3 -4 -3 36.419 44.886 8.488 14.295 o
3 -4 -2 147.074 144.602 15.010 2.847 o
3 -4 -1 102.776 100.016 12.296 4.905 o
3 -4 0 13.665 10.793 2.157 199.464 o
3 -4 1 32.159 31.486 3.629 53.507 o
3 -4 2 132.237 127.045 12.699 3.772 o
3 -4 3 280.535 284.212 12.939 1.301 o
3 -4 4 10.578 13.680 3.069 116.077 o
3 -4 5 12.710 16.104 4.086 67.149 o
3 -4 6 45.733 47.296 8.453 13.464 o
3 -4 7 5.018 9.037 3.730 87.290 o
3 -4 8 14.118 21.571 6.592 27.047 o
3 -3 -9 5.798 3.586 1.631 428.398 o
3 -3 -8 3.120 1.472 0.650 2556.830 o
3 -3 -1 16.924 13.787 1.413 276.768 o
3 -3 0 26.395 28.007 3.138 73.116 o
3 -3 1 11.201 9.964 2.367 184.694 o
3 -3 2 8.351 9.168 1.988 266.210 o
3 -3 3 215.771 209.678 16.920 1.683 o
3 -3 4 458.672 464.251 16.217 0.525 o
3 -3 5 157.175 166.723 15.207 2.561 o
3 -3 6 16.876 12.814 4.135 64.076 o
3 -3 7 1.025 -1.320 1.795 387.338 o
3 -3 8 8.358 5.424 2.504 183.468 o
3 -3 9 1.497 1.199 0.685 2555.110 o
3 -2 -10 9.370 11.646 4.462 59.697 o
3 -2 4 96.329 101.850 9.438 6.743 o
3 -2 5 66.613 69.890 5.564 16.287 o
3 -2 6 16.377 18.026 2.973 106.809 o
3 -2 7 5.837 5.985 2.753 157.720 o
3 -2 8 3.252 3.130 1.947 321.021 o
3 -2 9 23.711 29.704 7.285 20.944 o
3 -2 10 41.728 46.763 9.691 11.086 o
3 -1 -4 160.564 180.427 8.325 3.587 o
3 -1 -3 50.991 51.929 3.940 29.889 o
3 -1 -2 26.917 28.778 2.959 76.531 o
3 -1 7 26.651 22.501 2.842 86.460 o
3 -1 8 10.610 11.626 3.971 73.645 o
3 -1 9 126.793 115.960 13.651 3.699 o
3 -1 10 83.286 82.767 12.288 5.681 o
3 -1 11 25.157 31.519 8.188 16.780 o
3 0 -3 344.359 358.580 14.539 0.875 o
3 0 -2 7.353 9.076 2.068 254.936 o
3 0 -1 58.599 51.104 4.883 22.612 o
3 0 10 8.650 15.177 5.354 41.892 o
3 0 11 24.764 20.025 6.713 24.784 o
3 0 12 1.303 3.310 3.271 116.409 o
3 1 -2 253.577 264.927 13.386 1.487 o
3 1 -1 170.306 156.131 9.866 3.367 o
3 1 8 48.634 34.400 2.971 44.537 o
3 1 11 2.608 0.039 1.666 445.111 o
3 1 12 4.021 4.517 3.894 81.496 o
3 2 8 27.457 25.994 3.746 58.691 o
4 -5 -5 11.018 13.507 5.548 38.828 o
4 -5 -4 12.703 13.472 4.968 47.410 o
4 -5 -3 12.740 10.007 4.252 64.171 o
4 -5 -2 93.820 88.744 13.893 4.499 o
4 -5 -1 29.394 34.509 8.387 15.622 o
4 -5 0 3.185 9.656 4.439 62.527 o
4 -5 1 49.693 57.567 10.774 8.715 o
4 -5 2 9.941 14.652 5.245 43.349 o
4 -5 3 36.782 32.414 7.554 17.977 o
4 -5 4 14.182 13.480 4.618 53.713 o
4 -4 -7 42.657 41.362 9.076 12.475 o
4 -4 -6 27.753 40.178 9.037 13.609 o
4 -4 -5 78.601 53.043 10.283 8.074 o
4 -4 -4 19.498 20.741 6.171 29.724 o
4 -4 -3 22.000 18.771 5.922 31.684 o
4 -4 -2 143.844 149.231 16.824 2.525 o
4 -4 -1 93.991 90.725 12.919 4.938 o
4 -4 0 142.788 155.804 16.871 2.495 o
4 -4 1 146.372 144.493 16.015 2.667 o
4 -4 2 117.557 127.139 14.656 3.468 o
4 -4 3 19.474 15.475 2.882 107.824 o
4 -4 4 47.315 49.980 8.527 13.030 o
4 -4 5 1.093 2.325 1.569 502.971 o
4 -4 6 17.833 13.764 4.143 62.885 o
4 -4 7 23.932 21.641 5.802 32.031 o
4 -3 0 112.202 107.001 6.331 7.717 o
4 -3 1 23.130 16.127 2.951 95.922 o
4 -3 2 37.296 33.345 4.848 34.309 o
4 -3 3 60.958 60.690 7.102 14.293 o
4 -3 4 46.233 46.379 5.142 26.127 o
4 -3 5 17.050 15.488 3.042 104.304 o
4 -3 6 8.293 10.649 3.699 86.159 o
4 -3 7 9.265 7.114 3.255 110.353 o
4 -3 8 22.347 23.576 6.261 28.166 o
4 -2 -2 83.445 59.502 3.072 18.849 o
4 -2 6 111.417 119.620 8.298 6.280 o
4 -2 7 45.617 44.578 8.192 14.270 o
4 -2 8 15.888 17.257 5.249 41.361 o
4 -2 9 14.041 13.869 5.288 41.783 o
4 -2 10 18.284 32.399 8.262 16.993 o
4 -1 -4 117.096 132.929 7.554 6.048 o
4 -1 -3 41.637 36.729 3.855 40.527 o
4 -1 -2 265.699 265.627 11.362 1.498 o
4 -1 9 25.015 20.372 5.848 31.479 o
4 -1 10 20.187 23.393 6.549 26.365 o
4 -1 11 19.171 28.186 7.916 18.495 o
4 0 -2 14.159 13.312 2.846 124.674 o
4 0 -1 164.961 163.684 10.190 3.340 o
4 0 11 8.480 10.626 4.922 49.859 o
4 1 12 22.448 34.801 9.870 11.963 o
5 -4 -5 1.189 1.320 1.452 588.284 o
5 -4 0 8.547 6.794 3.808 82.581 o
5 -4 1 9.050 6.627 3.138 118.718 o
5 -4 2 2.490 2.831 0.720 2130.600 o
5 -4 3 33.603 32.570 7.756 17.552 o
5 -4 4 15.182 8.040 3.699 81.585 o
5 -3 3 9.293 8.889 2.578 167.047 o
5 -3 4 188.866 184.117 10.595 2.702 o
5 -3 5 35.619 27.328 4.106 45.217 o
5 -3 6 6.583 6.370 2.691 163.106 o
5 -3 7 3.899 2.932 1.947 318.996 o
5 -2 6 7.767 5.529 2.940 136.825 o
5 -2 7 27.203 28.700 6.506 24.997 o
5 -2 8 3.920 3.177 2.293 231.690 o
5 -2 9 1.000 1.631 1.904 343.362 o
5 -1 9 0.579 2.095 1.347 684.172 o
5 -1 10 5.417 9.711 4.104 72.198 o
6 -2 7 23.051 20.488 5.560 34.876 o
;
_olex2_submission_special_instructions 'No special instructions were received'
loop_
_space_group_symop_id
_space_group_symop_operation_xyz
1 x,y,z
loop_
_atom_site_label
_atom_site_type_symbol
_atom_site_fract_x
_atom_site_fract_y
_atom_site_fract_z
_atom_site_U_iso_or_equiv
_atom_site_adp_type
_atom_site_occupancy
_atom_site_refinement_flags_posn
O1 O 0.1946(5) 0.8629(5) 0.1845(4) 0.0249(9) Uani 1.000000 .
O2 O 0.3629(5) 0.2387(5) 0.2721(4) 0.0299(10) Uani 1.000000 .
O3 O 0.6275(5) 0.2958(5) 0.1925(4) 0.0264(9) Uani 1.000000 .
O4 O 0.7715(5) 0.6403(5) 0.2288(4) 0.0289(10) Uani 1.000000 .
O5 O 0.7158(5) 0.4122(5) 0.3856(4) 0.0258(9) Uani 1.000000 .
N1 N 0.3710(6) 0.6229(6) 0.5433(4) 0.0243(11) Uani 1.000000 .
C1 C 0.3615(8) 0.4396(8) 0.6045(5) 0.0235(12) Uani 1.000000 .
H1 H 0.4905(8) 0.3367(8) 0.5981(5) 0.0282(15) Uiso 1.000000 R
C2 C 0.2397(9) 0.4205(9) 0.5219(5) 0.0317(15) Uani 1.000000 .
H2 H 0.3049(9) 0.2975(9) 0.4955(5) 0.0381(18) Uiso 1.000000 R
H3 H 0.1161(9) 0.4311(9) 0.5718(5) 0.0381(18) Uiso 1.000000 R
C3 C 0.2131(8) 0.5807(8) 0.4031(5) 0.0258(13) Uani 1.000000 .
H4 H 0.0781(8) 0.6558(8) 0.3928(5) 0.0309(16) Uiso 1.000000 R
C4 C 0.3057(7) 0.7009(7) 0.4209(5) 0.0212(12) Uani 1.000000 .
H5 H 0.2171(7) 0.8356(7) 0.4143(5) 0.0255(14) Uiso 1.000000 R
C5 C 0.4531(7) 0.6585(7) 0.2903(5) 0.0191(12) Uani 1.000000 .
C6 C 0.3439(7) 0.5430(7) 0.2745(5) 0.0202(12) Uani 1.000000 .
C7 C 0.2410(8) 0.6808(7) 0.1554(5) 0.0248(13) Uani 1.000000 .
H6 H 0.1313(8) 0.6635(7) 0.1445(5) 0.0298(15) Uiso 1.000000 R
C8 C 0.3926(7) 0.8332(7) 0.1780(5) 0.0243(13) Uani 1.000000 .
H9 H 0.4082(7) 0.9439(7) 0.1859(5) 0.0292(15) Uiso 1.000000 R
C9 C 0.4859(8) 0.7652(7) 0.0521(5) 0.0273(13) Uani 1.000000 .
H8 H 0.5880(8) 0.7848(7) -0.0041(5) 0.0328(16) Uiso 1.000000 R
C10 C 0.3928(8) 0.6712(7) 0.0374(5) 0.0264(13) Uani 1.000000 .
H7 H 0.4162(8) 0.6120(7) -0.0310(5) 0.0316(16) Uiso 1.000000 R
C11 C 0.4484(8) 0.3394(7) 0.2481(5) 0.0236(13) Uani 1.000000 .
C12 C 0.7297(9) 0.1129(8) 0.1479(6) 0.0344(15) Uani 1.000000 .
H15 H 0.8659(9) 0.0651(8) 0.1491(6) 0.0413(18) Uiso 1.000000 R
H16 H 0.6843(9) 0.0205(8) 0.2048(6) 0.0413(18) Uiso 1.000000 R
C13 C 0.6953(10) 0.1403(9) 0.0111(7) 0.0445(18) Uani 1.000000 .
H17 H 0.5612(14) 0.181(6) 0.0111(10) 0.067(3) Uiso 1.000000 GR
H18 H 0.767(5) 0.0222(18) -0.0196(18) 0.067(3) Uiso 1.000000 GR
H19 H 0.736(6) 0.235(5) -0.0443(11) 0.067(3) Uiso 1.000000 GR
C14 C 0.6641(8) 0.5702(7) 0.2953(5) 0.0207(12) Uani 1.000000 .
C15 C 0.9163(9) 0.3267(9) 0.4034(7) 0.0416(17) Uani 1.000000 .
H10 H 0.9502(9) 0.4227(9) 0.4149(7) 0.050(2) Uiso 1.000000 R
H11 H 0.9980(9) 0.2757(9) 0.3278(7) 0.050(2) Uiso 1.000000 R
C16 C 0.9455(8) 0.1725(8) 0.5179(6) 0.0350(15) Uani 1.000000 .
H12 H 0.924(6) 0.072(3) 0.5026(18) 0.053(2) Uiso 1.000000 GR
H13 H 1.074(2) 0.124(4) 0.534(3) 0.053(2) Uiso 1.000000 GR
H14 H 0.857(4) 0.2217(17) 0.5911(11) 0.053(2) Uiso 1.000000 GR
C17 C 0.4945(8) 0.6788(8) 0.5769(5) 0.0230(12) Uani 1.000000 .
C18 C 0.5220(8) 0.8410(8) 0.5054(5) 0.0281(14) Uani 1.000000 .
H24 H 0.4573(8) 0.9120(8) 0.4357(5) 0.0337(16) Uiso 1.000000 R
C19 C 0.6442(8) 0.8967(8) 0.5373(6) 0.0297(14) Uani 1.000000 .
H23 H 0.6623(8) 1.0036(8) 0.4879(6) 0.0357(17) Uiso 1.000000 R
C20 C 0.7403(8) 0.7953(8) 0.6421(6) 0.0338(15) Uani 1.000000 .
H22 H 0.8203(8) 0.8345(8) 0.6643(6) 0.0406(18) Uiso 1.000000 R
C21 C 0.7140(9) 0.6328(8) 0.7135(6) 0.0349(16) Uani 1.000000 .
H21 H 0.7774(9) 0.5628(8) 0.7839(6) 0.0419(19) Uiso 1.000000 R
C22 C 0.5954(8) 0.5757(8) 0.6805(5) 0.0260(13) Uani 1.000000 .
H20 H 0.5818(8) 0.4658(8) 0.7281(5) 0.0312(16) Uiso 1.000000 R
C23 C 0.2628(8) 0.4278(8) 0.7444(5) 0.0244(13) Uani 1.000000 .
C24 C 0.1577(8) 0.5870(8) 0.8026(5) 0.0257(13) Uani 1.000000 .
H25 H 0.1563(8) 0.7046(8) 0.7588(5) 0.0309(15) Uiso 1.000000 R
C25 C 0.0551(8) 0.5712(8) 0.9254(5) 0.0299(14) Uani 1.000000 .
H26 H -0.0176(8) 0.6790(8) 0.9625(5) 0.0359(17) Uiso 1.000000 R
C26 C 0.0601(9) 0.3964(9) 0.9931(6) 0.0331(15) Uani 1.000000 .
H27 H -0.0075(9) 0.3856(9) 1.0760(6) 0.0398(18) Uiso 1.000000 R
C27 C 0.1665(10) 0.2381(9) 0.9363(6) 0.0382(16) Uani 1.000000 .
H28 H 0.1691(10) 0.1203(9) 0.9807(6) 0.0458(19) Uiso 1.000000 R
C28 C 0.2696(8) 0.2532(8) 0.8136(6) 0.0308(14) Uani 1.000000 .
H29 H 0.3441(8) 0.1447(8) 0.7774(6) 0.0370(17) Uiso 1.000000 R
loop_
_atom_site_aniso_label
_atom_site_aniso_U_11
_atom_site_aniso_U_22
_atom_site_aniso_U_33
_atom_site_aniso_U_12
_atom_site_aniso_U_13
_atom_site_aniso_U_23
O1 0.030(2) 0.015(2) 0.035(2) -0.0092(15) -0.0112(18) -0.0081(16)
O2 0.037(3) 0.018(2) 0.039(2) -0.0124(18) -0.007(2) -0.0088(18)
O3 0.029(2) 0.018(2) 0.038(2) -0.0110(16) -0.0015(18) -0.0139(17)
O4 0.028(2) 0.025(2) 0.036(2) -0.0139(18) -0.0064(19) -0.0022(18)
O5 0.023(2) 0.022(2) 0.035(2) -0.0088(16) -0.0088(17) -0.0051(17)
N1 0.032(3) 0.019(3) 0.026(2) -0.014(2) -0.005(2) -0.005(2)
C1 0.027(3) 0.017(3) 0.031(3) -0.013(2) 0.001(2) -0.009(2)
C2 0.045(4) 0.036(4) 0.026(3) -0.027(3) -0.001(3) -0.009(3)
C3 0.026(3) 0.021(3) 0.035(3) -0.013(2) -0.001(2) -0.010(2)
C4 0.025(3) 0.019(3) 0.023(3) -0.009(2) -0.003(2) -0.009(2)
C5 0.027(3) 0.017(3) 0.019(3) -0.013(2) -0.003(2) -0.004(2)
C6 0.027(3) 0.016(3) 0.027(3) -0.013(2) -0.008(2) -0.007(2)
C7 0.035(3) 0.009(3) 0.035(3) -0.008(2) -0.013(3) -0.006(2)
C8 0.026(3) 0.014(3) 0.037(3) -0.009(2) -0.004(3) -0.010(2)
C9 0.037(3) 0.019(3) 0.026(3) -0.010(2) -0.011(3) -0.003(2)
C10 0.040(4) 0.017(3) 0.027(3) -0.014(3) -0.007(3) -0.006(2)
C11 0.027(3) 0.020(3) 0.029(3) -0.012(2) -0.009(2) -0.003(2)
C12 0.038(4) 0.014(3) 0.054(4) -0.011(3) -0.010(3) -0.009(3)
C13 0.057(5) 0.029(4) 0.052(4) -0.019(3) -0.002(4) -0.018(3)
C14 0.025(3) 0.023(3) 0.020(3) -0.010(2) -0.002(2) -0.011(2)
C15 0.029(3) 0.042(4) 0.056(4) -0.013(3) -0.021(3) -0.000(3)
C16 0.033(3) 0.024(3) 0.045(4) -0.006(3) -0.011(3) -0.006(3)
C17 0.029(3) 0.021(3) 0.027(3) -0.015(2) -0.004(2) -0.009(2)
C18 0.035(3) 0.024(3) 0.032(3) -0.014(2) -0.013(3) -0.003(3)
C19 0.028(3) 0.025(3) 0.039(3) -0.014(2) -0.004(3) -0.004(3)
C20 0.035(4) 0.030(4) 0.049(4) -0.020(3) -0.016(3) -0.005(3)
C21 0.038(4) 0.034(4) 0.037(3) -0.017(3) -0.015(3) 0.001(3)
C22 0.033(4) 0.019(3) 0.031(3) -0.011(2) -0.009(3) -0.009(2)
C23 0.031(3) 0.022(3) 0.027(3) -0.015(2) -0.007(2) -0.005(2)
C24 0.034(3) 0.020(3) 0.029(3) -0.013(2) -0.010(2) -0.005(2)
C25 0.031(3) 0.028(4) 0.032(3) -0.008(3) -0.003(3) -0.015(3)
C26 0.033(4) 0.042(4) 0.027(3) -0.019(3) -0.002(3) -0.008(3)
C27 0.051(4) 0.026(4) 0.038(3) -0.022(3) -0.011(3) 0.008(3)
C28 0.032(3) 0.020(3) 0.038(3) -0.009(2) -0.009(3) -0.002(3)
loop_
_atom_type_symbol
_atom_type_scat_dispersion_real
_atom_type_scat_dispersion_imag
_atom_type_scat_Cromer_Mann_a1
_atom_type_scat_Cromer_Mann_a2
_atom_type_scat_Cromer_Mann_a3
_atom_type_scat_Cromer_Mann_a4
_atom_type_scat_Cromer_Mann_b1
_atom_type_scat_Cromer_Mann_b2
_atom_type_scat_Cromer_Mann_b3
_atom_type_scat_Cromer_Mann_b4
_atom_type_scat_Cromer_Mann_c
_atom_type_scat_source
_atom_type_scat_dispersion_source
H 0.00000 0.00000 0.49300 0.32291 0.14019 0.04081 10.51090 26.12570 3.14236
57.79970 0.0030380000826
'International Tables Volume C Table 6.1.1.4 (pp. 500-502)'
'Henke, Gullikson and Davis, At. Data and Nucl. Data Tables, 1993, 54, 2'
C 0.00347 0.00161 2.31000 1.02000 1.58860 0.86500 20.84390 10.20750 0.56870
51.65120 0.215599998832
'International Tables Volume C Table 6.1.1.4 (pp. 500-502)'
'Henke, Gullikson and Davis, At. Data and Nucl. Data Tables, 1993, 54, 2'
O 0.01158 0.00611 3.04850 2.28680 1.54630 0.86700 13.27710 5.70110 0.32390
32.90890 0.250800013542
'International Tables Volume C Table 6.1.1.4 (pp. 500-502)'
'Henke, Gullikson and Davis, At. Data and Nucl. Data Tables, 1993, 54, 2'
N 0.00653 0.00323 12.21260 3.13220 2.01250 1.16630 0.00570 9.89330 28.99750
0.58260 -11.5290002823
'International Tables Volume C Table 6.1.1.4 (pp. 500-502)'
'Henke, Gullikson and Davis, At. Data and Nucl. Data Tables, 1993, 54, 2'
loop_
_geom_angle_atom_site_label_1
_geom_angle_atom_site_label_2
_geom_angle_atom_site_label_3
_geom_angle
C8 O1 C7 96.0(4)
C12 O3 C11 116.8(4)
C15 O5 C14 115.4(4)
C1 N1 C4 114.1(4)
C1 N1 C17 121.1(4)
C17 N1 C4 120.9(4)
C2 C1 N1 103.5(4)
C2 C1 C23 108.5(4)
C23 C1 N1 115.0(5)
C1 C2 C3 107.9(5)
C2 C3 C4 105.8(4)
C2 C3 C6 120.5(5)
C4 C3 C6 91.3(4)
C3 C4 N1 107.5(4)
C3 C4 C5 91.0(4)
C5 C4 N1 120.7(4)
C4 C5 C6 86.4(4)
C4 C5 C14 118.8(4)
C6 C5 C14 122.8(4)
C8 C5 C4 111.2(4)
C8 C5 C6 101.1(4)
C8 C5 C14 113.0(4)
C3 C6 C5 91.2(4)
C3 C6 C7 112.0(4)
C3 C6 C11 119.6(4)
C5 C6 C7 99.6(4)
C5 C6 C11 122.8(4)
C7 C6 C11 109.3(4)
C6 C7 O1 100.1(4)
C10 C7 O1 102.1(4)
C10 C7 C6 108.1(4)
C5 C8 O1 99.6(4)
C5 C8 C9 108.6(4)
C9 C8 O1 101.8(4)
C10 C9 C8 106.2(5)
C7 C10 C9 105.7(5)
O2 C11 O3 126.2(5)
C6 C11 O2 120.2(5)
C6 C11 O3 113.5(5)
C13 C12 O3 109.4(4)
O4 C14 O5 124.7(5)
C5 C14 O4 123.0(5)
C5 C14 O5 112.2(4)
C16 C15 O5 109.3(5)
C18 C17 N1 120.3(5)
C18 C17 C22 117.7(5)
C22 C17 N1 122.0(5)
C19 C18 C17 120.8(5)
C20 C19 C18 120.9(6)
C19 C20 C21 118.5(5)
C20 C21 C22 120.5(5)
C21 C22 C17 121.5(5)
C1 C23 C24 122.8(5)
C1 C23 C28 118.3(5)
C28 C23 C24 118.8(5)
C25 C24 C23 120.4(5)
C26 C25 C24 120.4(5)
C27 C26 C25 119.2(6)
C26 C27 C28 120.6(5)
C27 C28 C23 120.6(5)
loop_
_geom_bond_atom_site_label_1
_geom_bond_atom_site_label_2
_geom_bond_distance
O1 C7 1.443(7)
O1 C8 1.462(6)
O2 C11 1.212(7)
O3 C11 1.315(7)
O3 C12 1.470(7)
O4 C14 1.209(7)
O5 C14 1.340(6)
O5 C15 1.460(7)
N1 C1 1.466(7)
N1 C4 1.432(7)
N1 C17 1.404(7)
C1 C2 1.559(8)
C3 C2 1.536(7)
C4 C3 1.526(7)
C4 C5 1.603(7)
C5 C8 1.564(7)
C6 C3 1.531(8)
C6 C5 1.592(7)
C6 C7 1.587(7)
C7 C10 1.513(8)
C9 C8 1.504(8)
C9 C10 1.332(8)
C11 C6 1.532(8)
C12 C13 1.528(10)
C14 C5 1.501(7)
C16 C15 1.479(8)
C17 C18 1.400(8)
C18 C19 1.385(8)
C20 C19 1.388(8)
C20 C21 1.399(8)
C22 C17 1.399(7)
C22 C21 1.371(8)
C23 C1 1.528(7)
C23 C24 1.392(8)
C23 C28 1.381(8)
C24 C25 1.385(8)
C25 C26 1.383(8)
C27 C26 1.379(9)
C28 C27 1.386(8)
loop_
_refln_index_h
_refln_index_k
_refln_index_l
_refln_F_squared_meas
_refln_F_squared_sigma
0 0 2 674.96 21.51
0 0 2 720.25 25.29
0 0 3 1008.05 36.31
0 0 3 958.93 31.51
0 0 4 1528.8 46.74
0 0 5 857.23 37.2
0 0 -6 177.14 11
0 0 6 218.44 20
0 0 -7 125.55 9.4
0 0 7 209.84 21.56
0 0 8 796.4 46.93
0 0 9 326.59 31.91
0 0 10 56.68 14.31
0 0 11 12.2 8.6
0 0 12 -2.49 3.52
0 -1 12 28.82 12.37
0 -1 11 41.1 14.2
0 -1 10 22.23 9.35
0 -1 9 56.29 13.52
0 -1 8 340.79 31.57
0 -1 7 456.14 33.71
0 -1 6 139.47 17.19
0 -1 5 143.32 15.96
0 -1 4 183.3 16.66
0 -1 3 1371.98 44.07
0 -1 3 1298.61 43.15
0 1 -2 644.41 25.72
0 -1 2 668.33 26.02
0 -1 2 673.33 24.27
0 1 -1 725.52 23.53
0 -1 1 724.71 23.69
0 -1 1 705.73 19.15
0 1 0 9574.84 150.34
0 1 1 1391.81 30.43
0 1 1 1467.01 36.43
0 1 2 5763.41 105.65
0 -1 -2 5715.97 104.33
0 1 3 884.6 34
0 -1 -3 834.53 29.21
0 -1 -4 85.02 9.53
0 -1 -5 2.28 1.64
0 -1 -6 1391.75 45.89
0 1 6 1449.36 51.81
0 -1 -7 91.12 10.86
0 1 7 94.23 13.76
0 1 8 206.67 22.45
0 -1 -8 168.92 15.09
0 1 9 22.13 7.51
0 1 10 47.85 12.74
0 1 11 3.57 1.06
0 1 12 24.78 10.13
0 -2 11 27.96 11.85
0 -2 10 95.55 20.7
0 -2 9 252.89 31.11
0 -2 8 219.86 26.68
0 -2 7 263.24 27.4
0 -2 6 147.28 19.29
0 2 -6 100.33 7.54
0 -2 5 50.16 10.78
0 2 -5 41.59 5.62
0 2 -4 122.27 9.95
0 -2 4 146.96 16.33
0 -2 3 33.59 7.54
0 -2 3 38.94 6.86
0 2 -3 31.75 5.17
0 2 -2 64.34 9.25
0 -2 2 54.11 8.89
0 2 -2 55.37 7.37
0 -2 2 57.25 6.78
0 -2 1 2233.84 56.79
0 -2 1 2121.97 42.87
0 2 -1 2283.88 55.98
0 2 -1 2255.68 57.26
0 2 0 2618.8 58.72
0 -2 0 2738.23 66.8
0 -2 0 2618.45 59.14
0 -2 -1 250.14 17.48
0 2 1 203.61 8.89
0 2 1 206.77 11.65
0 2 1 221.66 16.28
0 2 2 595.59 28.41
0 2 2 532.84 21.3
0 -2 -2 540.46 27.82
0 2 3 1035.56 37.51
0 -2 -3 1028.35 40.61
0 -2 -4 769.76 36.8
0 -2 -5 1279.76 49.64
0 -2 -6 147.93 16.38
0 2 7 283.51 23.3
0 -2 -7 273.79 23.37
0 2 8 229.23 22.76
0 -2 -8 205.82 20.26
0 -2 -9 98.72 13.94
0 2 9 92.45 15.59
0 2 10 9.79 4.36
0 2 11 17.02 5.91
0 2 12 14.57 7.63
0 -3 10 25.56 10.35
0 -3 9 11.38 5.63
0 -3 8 431.34 40.97
0 -3 7 412.53 37.39
0 -3 6 100.8 17.29
0 -3 5 98.85 16.23
0 3 -5 68.92 9.27
0 -3 4 155.81 19.21
0 3 -4 139.78 13.72
0 3 -3 1055.6 41.85
0 -3 3 1199.28 42.31
0 -3 3 1146.61 50.75
0 3 -2 1455.83 50.19
0 -3 2 1341.58 51.41
0 -3 2 1398.66 38.72
0 3 -1 372.71 22.83
0 -3 1 332.23 21.84
0 -3 0 773.71 33.38
0 3 0 846.57 33.06
0 -3 -1 457.11 28.59
0 3 1 382.14 19.84
0 -3 -2 2040.82 66.9
0 3 2 2034.33 48.03
0 3 2 1968.05 50.07
0 3 3 1303.83 43.84
0 -3 -3 1346.29 53.77
0 -3 -4 312.84 25.57
0 -3 -5 687.45 39.71
0 -3 -6 793.48 44.25
0 -3 -7 41.68 10.56
0 3 8 276.37 23.88
0 -3 -8 307.4 28.32
0 -3 -9 115.14 17.53
0 3 9 110.56 16.5
0 3 10 37.96 10.23
0 3 11 27.63 9.25
0 3 12 -0.64 4.17
0 -4 9 17.64 8.1
0 -4 8 22.48 9.9
0 -4 7 197.46 28.06
0 -4 6 570.3 45.65
0 -4 5 204.77 25.81
0 -4 4 405.88 33.98
0 -4 4 368.04 24.41
0 -4 3 38.17 6.59
0 -4 3 42.36 9.86
0 -4 2 80.35 7.49
0 -4 2 107.45 14.8
0 -4 1 772.51 39.29
0 -4 0 1569.43 55.61
0 4 1 9.72 3.69
0 4 2 1565.54 47.53
0 -4 -2 1493.76 62.08
0 4 2 1489.39 39.23
0 4 3 373.83 20.56
0 4 3 383.33 21.71
0 -4 -3 363.7 29.9
0 -4 -4 62.47 12.36
0 -4 -5 577.85 39.9
0 -4 -6 95.68 16.69
0 -4 -7 53.36 12.79
0 -4 -8 368.98 34.43
0 4 9 16.53 6.15
0 -4 -9 10.43 6.82
0 -5 8 4.99 3.8
0 -5 7 48.17 14.84
0 -5 6 9.07 5.61
0 -5 5 181.23 25.83
0 -5 4 8.66 4.79
0 -5 3 137.31 19.88
0 -5 2 121.41 17.79
0 -5 1 93.83 14.89
0 -5 0 600.98 36.51
0 5 2 519.85 28.45
0 5 3 1065.71 38.89
0 5 3 1073.74 37.43
0 -5 -3 989.82 55.9
0 -5 -4 117.99 18.64
0 5 4 134.13 12.29
0 5 4 122.55 13.55
0 -5 -5 58.99 13.53
0 -5 -6 34.32 11.08
0 -5 -7 412.42 39.06
0 -6 7 1.41 6.47
0 -6 6 17.62 9.29
0 -6 5 19.4 9.12
0 -6 4 22.75 9.7
0 -6 3 115.81 20.16
0 -6 2 169.34 23.12
0 -6 1 231.05 25.89
0 -7 5 75.64 19.63
0 -7 4 52.04 15.25
0 -7 3 75.64 17.12
0 -7 2 21.16 7.56
0 -7 1 151.54 22.67
1 -7 3 6.24 5.49
1 -7 4 29.54 10.79
1 -6 -9 7.12 5.63
1 -6 -8 34.33 13.38
1 -6 -7 51.63 14.8
1 -6 -6 5.6 4.9
1 -6 -5 136.96 23.31
1 -6 -4 30.09 10.16
1 -6 -3 23.4 8.77
1 -6 -2 139.31 22.52
1 -6 0 136.95 17.97
1 -6 1 121.33 17.79
1 -6 2 113.81 18.83
1 -6 3 33.81 11.5
1 -6 4 218.12 28.95
1 -6 5 0.14 4.88
1 -6 6 16.92 8.72
1 -5 -10 37.22 12.04
1 -5 -9 31.45 11.07
1 -5 -8 71.28 17.16
1 -5 -7 79.73 17.5
1 -5 -6 110.85 20.34
1 -5 -5 115.12 20.31
1 -5 -4 138.1 21.43
1 -5 -3 308.63 31.25
-1 5 2 42.57 5.71
1 -5 -2 55.08 13.03
1 -5 -1 27.1 8.53
1 -5 0 527.2 32.59
1 -5 0 558.82 41.57
1 -5 1 175.24 19.66
1 -5 2 247.43 24.62
1 -5 3 382.67 33.54
1 -5 4 121.42 19.92
1 -5 5 377.64 38.32
1 -5 6 26.91 10.44
1 -5 7 44.52 14.84
1 -5 8 103.61 23.7
1 -4 -10 2.59 3.87
1 -4 -9 114.41 20.38
1 -4 -8 70.2 15.71
1 -4 -7 352.57 35.01
1 -4 -6 7.89 6.34
-1 4 6 4.09 1.4
1 -4 -5 105.46 18.03
1 -4 -4 75.04 14.62
-1 4 3 66.88 9.19
1 -4 -3 60.64 12.81
1 -4 -2 48.53 11.57
-1 4 2 35.56 5.51
-1 4 1 21.27 3.22
-1 4 1 19.97 3.56
1 -4 0 253.73 25.16
1 -4 0 285.81 20.41
1 -4 1 309.22 27.67
1 -4 1 273 21.8
1 -4 2 467.74 18.77
1 -4 2 490.66 32.06
1 -4 3 9.13 3.47
1 -4 3 15.37 6.49
1 -4 4 253.39 26.96
1 -4 5 284 30.61
1 -4 6 116.26 20.69
1 -4 7 162.74 26.22
1 -4 8 11.44 6.59
1 -4 9 10.49 6.69
1 -3 -10 233.39 27.3
-1 3 9 174.54 19.24
1 -3 -9 184.86 24.14
1 -3 -8 369.07 33.59
-1 3 8 274.73 21.92
1 -3 -7 155.82 21.01
-1 3 7 104.61 11.76
-1 3 6 34.64 5.82
1 -3 -6 42.97 11.11
-1 3 5 86.59 7.73
1 -3 -5 144.35 18.71
-1 3 4 460.31 14.4
1 -3 -4 700.18 40.7
1 -3 -3 548.52 34.93
1 -3 -2 422.79 29.54
-1 3 1 911.79 30.14
1 -3 -1 1023.53 46.39
1 -3 -1 982.23 29.97
1 -3 0 478.34 22.41
1 -3 0 525.01 31.71
1 -3 1 236.35 11.78
1 -3 1 239.05 21.39
-1 3 -1 179.34 9.79
1 -3 1 211.63 16.6
1 -3 2 1793.31 48.06
1 -3 2 1684.82 58.15
1 -3 2 1850.88 63.53
-1 3 -2 1808.32 43.84
1 -3 3 347.68 22.12
1 -3 3 340.83 25.98
-1 3 -3 354.43 20.15
1 -3 4 407.74 30.44
1 -3 4 437.15 27.96
1 -3 5 51.93 11.85
1 -3 6 90.28 16.15
1 -3 7 18.75 7.18
1 -3 8 28.63 10.5
1 -3 9 52.83 14.7
1 -3 10 45.26 14.89
-1 2 11 47.92 12.85
1 -2 -10 52.09 11.75
-1 2 10 70.28 14.48
-1 2 9 134.89 18.31
1 -2 -9 125.41 17.9
1 -2 -8 246.88 24.37
-1 2 8 236.03 22.25
-1 2 7 343.53 24.44
1 -2 -7 358.07 28.74
1 -2 -6 75.12 12.39
-1 2 6 52.22 8.35
-1 2 5 236.92 15.72
-1 2 4 202.47 11.97
-1 2 3 378.63 12.37
1 -2 0 230.21 17.6
1 -2 0 234.54 12.14
-1 2 0 223.64 12.46
1 -2 1 86.04 10.33
1 -2 1 82.71 8.62
1 -2 1 87.17 7.7
-1 2 -1 79.01 7.02
1 -2 2 498.22 22.74
-1 2 -2 496.43 21.35
1 -2 2 455.04 24.29
1 -2 2 484.16 26.18
1 -2 3 1501.45 49.15
1 -2 3 1387.98 49.62
-1 2 -3 1382.45 43.25
1 -2 3 1443.08 45.96
-1 2 -4 658.11 31.93
1 -2 4 637.62 34.81
1 -2 5 127.66 16.61
-1 2 -5 127.8 15.47
1 -2 6 118.63 17.13
1 -2 7 74.76 14.66
1 -2 8 240.41 28.08
1 -2 9 80.52 17.05
1 -2 10 1.76 3.27
1 -2 11 28.6 12.12
-1 1 12 11.91 6.13
-1 1 11 20.2 8.55
-1 1 10 92.51 17.89
-1 1 9 32.62 10.03
1 -1 -9 17.8 5.41
1 -1 -8 169.83 17.96
-1 1 8 237.68 24.38
-1 1 7 1.42 1.79
-1 1 6 138.24 15.51
-1 1 5 394.9 23.5
-1 1 4 1811.16 49.87
-1 1 3 2445.6 53.76
-1 1 2 9103.89 143.19
-1 1 0 4288.86 79.73
-1 1 -1 3131.08 63.63
1 -1 1 3181.21 64.54
1 -1 2 4367.43 88.99
-1 1 -2 4288.26 86.85
-1 1 -3 2305.26 59.91
1 -1 3 2217.42 49.2
1 -1 3 2386.75 60.73
1 -1 3 2292.5 63.62
-1 1 -4 3763.79 89.56
1 -1 4 3613.3 88.77
-1 1 -5 2615.5 79.12
1 -1 5 2811.1 79.48
-1 1 -6 340.7 27.74
1 -1 6 283 24.41
1 -1 7 361.77 30.49
1 -1 8 475.15 37.76
1 -1 9 55.77 13.8
1 -1 10 24.8 10.28
1 -1 11 18.75 10.24
1 -1 12 16.87 10.76
-1 0 12 123.7 24.65
-1 0 11 27.58 10.33
-1 0 10 101.32 20.17
-1 0 9 69.57 15.39
-1 0 8 245.01 26.58
-1 0 7 182.58 21.18
-1 0 6 123.51 16.25
-1 0 5 477.19 29.02
-1 0 4 1055.21 40.84
1 0 -3 2293.91 55.24
-1 0 3 2291.02 59.23
-1 0 2 1372.76 37.58
1 0 -2 1430.52 35.97
-1 0 1 1527.64 35.48
-1 0 -1 927.26 27.67
1 0 2 2844.91 65.87
-1 0 -2 2987.78 65.27
-1 0 -3 46.79 7.52
1 0 3 53.75 8.27
-1 0 -4 1653 53.35
1 0 4 1774.84 58.74
-1 0 -5 345.67 24.89
-1 0 -6 735.66 41.41
1 0 7 251.63 24.19
-1 0 -7 259.11 26.57
1 0 8 315.43 29.41
1 0 9 215.31 26.57
1 0 10 27.87 10.6
1 0 11 53.83 15.95
1 0 12 5.21 3.09
-1 -1 11 52.63 15.88
-1 -1 10 160.7 26.37
-1 -1 9 68.43 15.67
-1 -1 8 614.4 45.12
-1 -1 7 350.63 31.78
-1 -1 6 505.61 35.7
-1 -1 5 298.74 25.67
-1 -1 4 620.32 34.25
-1 -1 3 8.3 3.84
1 1 -3 3.79 2.69
-1 -1 2 59.13 8
1 1 -2 51.06 7.43
-1 -1 1 4351.21 87.02
1 1 -1 4274.85 87.12
1 1 1 2302.98 51.04
-1 -1 -2 1601.54 42.87
1 1 2 1628.94 44.95
1 1 3 2125.93 59.15
-1 -1 -3 2053.66 56.56
-1 -1 -4 565.74 28.85
1 1 4 560.12 30.58
-1 -1 -5 802.05 38.73
-1 -1 -6 752.29 41.5
-1 -1 -7 412.07 33.25
1 1 9 30.62 10.05
1 1 10 75.3 16.96
1 1 11 94.21 19.96
1 1 12 -7.64 6.18
-1 -2 11 19.14 10.68
-1 -2 10 43.83 13.73
-1 -2 9 13.24 5.81
-1 -2 8 456.59 40.64
-1 -2 7 1290.44 66.4
-1 -2 6 194.34 23.49
-1 -2 5 19.07 6.71
-1 -2 4 356.39 28.24
-1 -2 3 568.04 32.99
1 2 -2 1154.57 43.38
-1 -2 2 1186.94 44.64
-1 -2 1 1667.6 51.74
1 2 -1 1700.49 51.23
-1 -2 0 1058.27 29.66
-1 -2 0 1048.81 36.86
1 2 0 1123.46 38.2
1 2 1 4030.47 77.9
-1 -2 -1 4044.09 75.94
1 2 2 4633.3 92.39
-1 -2 -2 4557.26 90.28
1 2 3 3083.34 74.81
-1 -2 -3 2970.66 71.3
1 2 3 2972.63 73.94
-1 -2 -4 2939.99 75.9
1 2 4 2736.59 72.08
-1 -2 -5 243.31 20.82
1 2 5 222.26 17.78
-1 -2 -6 32.91 8.95
-1 -2 -7 90.32 15.49
1 2 10 46.44 12.91
1 2 11 49.05 13.43
1 2 12 40.75 14.88
-1 -3 10 -3.61 4.13
-1 -3 9 89.67 19.94
-1 -3 8 190.57 27.33
-1 -3 7 661.2 49.53
-1 -3 6 662.53 46.9
-1 -3 5 346.7 31.64
-1 -3 4 191.11 21.96
-1 -3 3 92.67 14.14
-1 -3 2 2267.13 72.42
-1 -3 1 870.37 39.85
-1 -3 0 46.23 8.37
-1 -3 0 44.22 4.93
1 3 0 59.03 9.25
1 3 1 568.13 21.73
-1 -3 -1 580.53 19.62
1 3 1 614.55 30.22
1 3 2 221.33 14.97
-1 -3 -2 276.37 15.17
1 3 3 1067.28 39.94
-1 -3 -3 1068.19 36.45
-1 -3 -4 2508.15 68.95
-1 -3 -5 464.05 29.41
-1 -3 -6 346.75 28.15
1 3 11 105.38 20.12
1 3 12 30.02 12.13
-1 -4 9 64.14 17.4
-1 -4 8 7.55 5.66
-1 -4 7 -1.34 4.99
-1 -4 6 144.72 23.15
-1 -4 5 99.86 18.22
-1 -4 4 95.3 17.31
-1 -4 3 453.68 26.72
-1 -4 3 473.3 35.63
-1 -4 2 669.59 40.44
-1 -4 2 650.14 28.19
-1 -4 1 396.64 17.89
-1 -4 1 424.52 30.37
-1 -4 0 296.82 12.14
-1 -4 0 379.2 27.13
-1 -4 -1 323.97 12.97
-1 -4 -2 1264.87 34.68
1 4 2 1273.17 39.83
1 4 2 1267.82 49.05
-1 -4 -3 215.74 15.41
1 4 3 183.4 15.75
-1 -4 -4 314.5 21.59
-1 -4 -5 602.17 34.36
1 4 11 88.31 17.25
1 4 12 23.07 8.97
-1 -5 8 20.14 10.87
-1 -5 7 25.69 10.37
-1 -5 6 54.87 15.24
-1 -5 5 12.85 7.11
-1 -5 4 71.96 15.5
-1 -5 3 11.71 3.57
-1 -5 3 6.2 3.55
-1 -5 2 61.05 7.67
-1 -5 2 47.41 5.94
-1 -5 2 73.33 14.31
-1 -5 1 210.39 24.16
-1 -5 0 258.77 25.11
1 5 2 183.67 12.11
1 5 3 99.01 11.4
1 5 4 19.78 5.81
-1 -6 7 99.56 22.97
-1 -6 6 37.76 13.94
-1 -6 5 163.08 26.99
-1 -6 4 555.44 47.97
-1 -6 3 65.85 15.74
-1 -6 2 393.01 36.79
-1 -6 1 430.93 36.8
-1 -7 5 22.03 10.37
-1 -7 4 80.55 19.38
-1 -7 3 11.76 6.89
-1 -7 2 6.19 5.1
-1 -7 1 170.72 24.96
-1 -8 3 24.47 8.34
-1 -8 2 44.47 14.11
2 -7 -5 24.35 11.96
2 -7 -4 87.46 21.23
2 -7 -3 120.8 25.09
2 -7 -2 63.9 18.35
2 -6 -7 92.91 21.98
2 -6 -6 39.61 14.82
2 -6 -5 88.92 20.99
2 -6 -4 149.03 26.17
2 -6 -3 4.91 3.03
2 -6 -2 18.47 8.54
2 -6 -1 100.71 20.38
2 -6 0 350.08 38.17
2 -6 3 46.13 12.74
2 -6 4 23.78 9.06
2 -6 5 49.91 13.79
2 -5 -9 57.89 16.72
2 -5 -8 0.11 3.38
2 -5 -7 91.87 20.49
2 -5 -6 102.09 21.41
2 -5 -5 36.94 12.38
2 -5 -4 169.05 26.41
2 -5 -3 17.19 9.28
-2 5 3 16.9 6.3
2 -5 -2 78.71 17.02
2 -5 -1 30.32 10.19
2 -5 0 244.37 20.3
2 -5 0 237.16 29.07
2 -5 1 305.65 32.48
2 -5 1 269.65 23.53
2 -5 2 206.42 27.66
2 -5 2 188.5 21.34
2 -5 3 432.69 35.8
2 -5 4 137.48 21.42
2 -5 5 63.08 15.48
2 -5 6 36.99 12.4
2 -5 7 34.16 13.43
2 -4 -10 13.03 7.76
2 -4 -9 57.25 16.05
2 -4 -8 164.41 26.29
2 -4 -7 93.16 18.56
2 -4 -6 60.36 14.47
2 -4 -5 38.9 11.71
2 -4 -4 18.24 7.72
2 -4 -3 134.47 21.24
-2 4 2 62.56 10.18
2 -4 -2 55.65 13.22
2 -4 -1 63.57 13.84
-2 4 1 49.7 8.23
2 -4 0 515.16 38.79
2 -4 0 470.96 24.86
-2 4 -1 47.14 6.38
2 -4 1 59.58 12.84
2 -4 1 61.31 9.95
-2 4 -2 305.69 17.2
2 -4 2 322.41 30.34
2 -4 2 382.13 28.02
-2 4 -3 91.56 10.21
2 -4 3 103.44 17.77
2 -4 3 98.58 15.67
2 -4 4 109.43 17.85
-2 4 -4 112.81 13.29
2 -4 5 13.4 5.85
2 -4 6 110.92 20.55
2 -4 7 87.16 19.88
2 -4 8 36.75 13.57
2 -4 9 27.89 12.78
2 -3 -10 91.48 18.46
2 -3 -9 17.66 8.37
2 -3 -8 123.28 20.93
2 -3 -7 358.95 35.09
2 -3 -6 154.2 21.87
-2 3 6 103.39 8.92
2 -3 -1 348.86 14.35
-2 3 1 386.66 24.14
-2 3 0 124.47 13.06
2 -3 0 109.16 10.02
2 -3 0 110.46 16.27
2 -3 1 45.66 7.54
2 -3 1 46.37 10.26
-2 3 -1 51.96 7.77
-2 3 -2 135.97 12.84
2 -3 2 126.56 14.18
2 -3 2 131.87 13.38
2 -3 2 118.66 15.9
2 -3 3 325.04 27.29
-2 3 -3 314.79 20.93
2 -3 3 298.04 24.28
2 -3 3 323.37 23.96
2 -3 4 212.09 22.23
2 -3 4 215.17 22.7
-2 3 -4 215.27 18.45
2 -3 5 290.49 28.18
-2 3 -5 246.06 21.95
-2 3 -6 0.64 2.1
2 -3 6 4.88 4.3
2 -3 7 48.48 12.99
2 -3 8 181.15 27.31
2 -3 9 38.4 13.35
2 -3 10 75.34 19.78
2 -2 -10 44.51 11.88
-2 2 9 91.31 14.84
2 -2 -9 91.84 16.34
-2 2 8 51.57 10.35
-2 2 7 198.91 18.9
-2 2 6 227.8 18.26
-2 2 5 366.93 20.55
-2 2 4 1046.6 29.51
-2 2 1 2209.8 64.86
-2 2 0 727.42 32.6
2 -2 0 765.56 24.13
2 -2 1 323.19 20.61
2 -2 1 285.1 17.19
-2 2 -1 319.82 21.42
-2 2 -2 366.45 22.65
2 -2 2 349.96 22.61
2 -2 2 351.49 21.75
2 -2 3 93.57 12.38
2 -2 3 98.5 12.22
2 -2 3 104.49 13.35
-2 2 -3 119.2 13.24
2 -2 4 594.92 34.83
2 -2 4 548.63 30.76
-2 2 -4 582.19 32.22
-2 2 -5 208.24 20.1
2 -2 5 234.47 23.33
2 -2 5 203.02 17.22
2 -2 6 471.86 36.35
-2 2 -6 502.59 34.41
-2 2 -7 244.14 25.83
2 -2 7 246.56 27.94
2 -2 8 107.87 19.73
2 -2 9 112.88 21.35
2 -2 10 22.66 10.12
2 -2 11 135 26.58
-2 1 11 14.24 7.44
-2 1 10 100.85 18.11
-2 1 9 14.12 6.41
-2 1 8 3.59 2.93
-2 1 7 2.92 2.52
-2 1 6 442.35 29.32
-2 1 5 28.71 6.5
-2 1 4 1525.75 47.92
2 -1 -3 599.95 20.36
-2 1 3 541.06 23.11
2 -1 -2 1243.03 29.34
-2 1 0 126.57 12.56
-2 1 -1 177.62 15.39
2 -1 1 169.9 14.73
-2 1 -2 802.29 34.49
2 -1 2 824.27 35.07
2 -1 3 221.04 19.22
-2 1 -3 192 16.93
-2 1 -4 893.44 40.73
-2 1 -5 309.83 24.68
2 -1 5 290.5 16.32
2 -1 6 97.09 15.78
-2 1 -6 101.03 15.22
-2 1 -7 90.8 15.66
2 -1 7 97.61 16.58
2 -1 8 4.21 6.08
-2 1 -8 0.22 2.54
2 -1 9 219.7 28.85
2 -1 10 -0.56 2.36
2 -1 11 49.79 15.31
-2 0 11 3.83 5.49
-2 0 10 206.91 28.32
-2 0 9 -2.15 2.2
-2 0 8 32.61 9.44
-2 0 7 141.78 19.52
-2 0 6 323.51 27.45
-2 0 5 1478.1 57.04
2 0 -4 889.64 35.82
-2 0 4 983.63 41.3
2 0 -3 824.54 31.3
-2 0 3 845.35 34.98
-2 0 2 1051.25 36.44
2 0 -2 1105.4 34.99
2 0 -1 1137.78 34.1
-2 0 0 2023.88 57.39
-2 0 -1 1024.32 37.81
2 0 1 985.71 37.85
-2 0 -2 1874.84 55.54
2 0 2 1833.5 56.23
-2 0 -3 432.21 25.31
2 0 3 453.53 27.68
-2 0 -4 1741.83 59.01
-2 0 -5 176.44 18.55
-2 0 -6 469.37 32.32
-2 0 -7 34.51 9.5
-2 0 -8 183.13 23.9
-2 0 -9 84.87 17.75
2 0 9 108.1 19.96
2 0 10 7.45 5.8
2 0 11 91.52 21.47
2 0 12 26.09 12.91
-2 -1 11 167.49 28.85
-2 -1 10 169.16 27.42
-2 -1 9 244.39 31.13
-2 -1 8 158.02 23.61
-2 -1 7 367.11 34.17
-2 -1 6 102.8 17.22
-2 -1 5 35.53 9.67
-2 -1 4 60.98 11
-2 -1 3 1383.51 51.36
-2 -1 2 195.49 16.97
2 1 -2 186.74 16.32
2 1 -1 1210.64 41.7
-2 -1 0 193.4 15.52
-2 -1 -1 9999 179.37
2 1 1 9911.38 181.34
-2 -1 -2 4226.88 93.41
2 1 2 3992.04 93.53
-2 -1 -3 164.24 15.4
2 1 3 151.55 15.58
-2 -1 -4 797.26 37.24
-2 -1 -5 1308.93 53.35
2 1 6 365.54 16.87
-2 -1 -6 474.3 32.16
-2 -1 -7 126.58 17.61
-2 -1 -8 455.98 36.78
-2 -1 -9 29.71 11.11
2 1 10 21.6 8.67
2 1 11 52.06 16.42
2 1 12 5.12 4.81
-2 -2 10 67.04 18.22
-2 -2 9 12.12 6.75
-2 -2 8 67.41 16.04
-2 -2 7 26.63 9.89
-2 -2 6 155.66 22.55
-2 -2 5 57.9 12.91
-2 -2 4 501.98 34.85
-2 -2 3 865.8 43.64
-2 -2 2 9.99 4.6
-2 -2 1 1382.83 50.18
2 2 -1 1347.05 49.75
-2 -2 0 62.68 8.99
2 2 0 72.65 10.46
-2 -2 -1 1582.12 49.16
2 2 1 1655.51 51.26
-2 -2 -2 1056.97 39.1
2 2 2 1080.07 41.07
-2 -2 -3 496.35 26.92
2 2 3 495.33 28.69
-2 -2 -4 507.91 29.25
-2 -2 -5 443.39 29.63
-2 -2 -6 33.56 8.57
2 2 6 33.59 6.9
2 2 7 82.31 10.67
-2 -2 -7 68.7 13.23
-2 -2 -8 372.92 33.83
-2 -2 -9 366.19 36.31
-2 -2 -10 10.66 6.06
2 2 11 11.52 7.23
2 2 12 48.06 16.02
-2 -3 10 88.04 21.61
-2 -3 9 5.74 2.33
-2 -3 8 472.76 45.53
-2 -3 7 65.25 16.23
-2 -3 6 132.5 21.87
-2 -3 5 245.6 28.34
-2 -3 4 224.83 25.62
-2 -3 3 6.92 4.19
-2 -3 2 848.08 44.56
-2 -3 1 922.97 45.02
-2 -3 0 577.61 28.21
2 3 1 51.56 8.44
-2 -3 -1 55.7 8.19
2 3 1 58.65 10.64
2 3 2 692.07 33.02
-2 -3 -2 691.82 30.27
2 3 3 1111.26 45.35
-2 -3 -3 1071.65 41.16
-2 -3 -4 905.07 39.97
-2 -3 -5 34.97 8.11
-2 -3 -6 40.06 9.22
-2 -3 -7 174.44 20.82
-2 -3 -8 78.69 15.5
-2 -3 -9 41.09 12.2
2 3 12 5.18 7.52
-2 -4 9 14.21 10.79
-2 -4 8 33.37 12.24
-2 -4 7 60.49 16.31
-2 -4 6 498.82 45.01
-2 -4 5 43.51 12.71
-2 -4 4 251.82 29.06
-2 -4 3 490.56 38.29
-2 -4 2 5.05 3.15
-2 -4 1 214.48 17.99
-2 -4 1 230.18 23.61
-2 -4 0 91.96 10.64
-2 -4 -1 396.5 21.79
2 4 1 387.82 24.09
2 4 2 337.85 24.02
-2 -4 -2 312.47 19.44
2 4 3 117.8 14.39
-2 -4 -3 114.53 12.37
-2 -4 -4 401.62 25.85
-2 -4 -5 806.42 40.01
-2 -4 -6 582.3 36.15
-2 -4 -7 359.26 30.42
-2 -4 -8 290.53 29.55
-2 -4 -9 1.08 1.38
-2 -5 8 3.21 6.92
-2 -5 7 34.48 13.19
-2 -5 6 39.2 13.62
-2 -5 5 56.16 15.63
-2 -5 4 159.3 24.88
-2 -5 3 619.5 46.43
-2 -5 2 199.13 24.98
-2 -5 2 193.04 18.22
-2 -5 1 171.2 14.97
-2 -5 1 202.79 24.16
-2 -5 0 301.63 18.52
-2 -5 -1 605.79 26.35
2 5 2 1794.47 58.08
-2 -5 -2 1757.98 50.57
2 5 3 920.18 43.41
-2 -5 -3 891.31 36.64
-2 -5 -4 67.61 10.1
-2 -5 -5 317.34 23.94
-2 -5 -6 1421.9 58.63
-2 -5 -7 736.07 44.64
-2 -5 -8 385.27 34.56
-2 -6 7 63.59 18.8
-2 -6 6 38.62 14.07
-2 -6 5 10.03 4.73
-2 -6 4 34.48 11.82
-2 -6 3 31.66 7.56
-2 -6 3 61.53 15.45
-2 -6 2 62.77 15.21
-2 -6 2 56.7 8.91
-2 -6 1 438.77 23.85
-2 -6 1 463.51 39.79
-2 -6 0 297.37 17.43
-2 -6 -1 36.48 4.99
-2 -6 -2 793.14 26.53
-2 -6 -3 28.91 5.1
2 6 3 32.53 6.6
-2 -6 -4 192.33 16.18
-2 -6 -5 4.33 2.49
-2 -6 -6 12.61 5.5
-2 -7 5 25.23 12.16
-2 -7 4 58.19 16.1
-2 -7 3 11.31 6.11
-2 -7 2 119.17 22.16
-2 -8 3 112.86 23.99
3 -6 -5 15.78 8.23
3 -6 -4 19.55 9.61
3 -6 -3 138.35 27.92
3 -6 -2 153.01 28.9
3 -6 -1 32.33 13.52
3 -6 0 177.49 30.22
3 -6 1 202.7 31.19
3 -6 2 124.02 24.69
3 -5 -7 49.37 16.37
3 -5 -6 6.29 10.29
3 -5 -5 80.94 19.89
3 -5 -4 64.48 17.23
3 -5 -3 18.34 9.03
3 -5 -2 13.33 6.72
3 -5 -1 7.56 3.75
3 -5 0 122.51 23.26
3 -5 1 271.63 34.01
3 -5 2 4.9 3.28
3 -5 3 320.41 30.54
3 -5 3 400.8 41.04
3 -5 4 41.38 11.61
3 -5 5 12.79 7.5
3 -5 6 49.66 15.03
3 -4 -9 30.84 11.64
3 -4 -8 20.59 9.41
3 -4 -7 55.58 15.59
3 -4 -6 85.36 19.57
3 -4 -5 -10.18 6.63
3 -4 -4 28.97 10.33
-3 4 3 101.24 16.64
3 -4 -3 115.28 21.8
-3 4 2 329.38 28.03
3 -4 -2 371.38 38.55
-3 4 1 245.89 22.48
3 -4 -1 256.87 31.58
3 -4 0 27.72 5.54
-3 4 0 38.55 8.1
3 -4 1 82.63 16.68
-3 4 -1 75.47 10.54
3 -4 1 80.04 11.24
3 -4 2 350.74 27.13
-3 4 -2 293.45 21.42
3 -4 2 285.51 31.61
3 -4 3 735.27 43.67
3 -4 3 722.48 51.22
3 -4 4 32.43 10.34
3 -4 4 38.31 12.18
3 -4 5 32.14 10.01
3 -4 5 53.13 14.54
3 -4 6 121.47 21.71
3 -4 7 23.21 9.58
3 -4 8 55.4 16.93
3 -3 -9 9.21 4.19
3 -3 -8 3.78 1.67
-3 3 2 162.98 20.06
-3 3 1 64.13 11.72
3 -3 -1 35.41 3.63
3 -3 0 71.93 8.06
-3 3 0 82.91 12.85
3 -3 1 25.59 6.08
-3 3 -1 34.49 8.36
3 -3 2 22.68 7.73
-3 3 -2 21.46 6.26
3 -3 2 24.19 6.8
-3 3 -3 546.43 32.95
3 -3 3 489.94 37.14
3 -3 3 576.85 35.8
-3 3 -4 1347.99 55.66
3 -3 4 1157.22 59.15
3 -3 4 1224.96 58.66
3 -3 5 466.04 37.33
3 -3 5 387.93 35.13
-3 3 -5 464.67 32.51
-3 3 -6 47.66 10.85
3 -3 6 32.91 10.62
3 -3 7 -3.39 4.61
-3 3 -7 11.53 6.72
3 -3 8 13.93 6.43
-3 3 -8 22.78 9.35
3 -3 9 3.08 1.76
3 -2 -10 29.91 11.46
-3 2 1 4.5 2.8
-3 2 0 458.43 30.79
-3 2 -1 59.94 11.11
-3 2 -2 317.42 26.14
-3 2 -3 572.2 35.55
3 -2 4 261.58 24.24
-3 2 -4 271.93 24.59
-3 2 -5 175.64 20.6
3 -2 5 194.64 22.55
3 -2 5 167.71 18.47
3 -2 6 44.98 9.76
3 -2 6 48.23 12.26
-3 2 -6 35.72 10.05
-3 2 -7 10.35 6.23
3 -2 7 15.37 7.07
3 -2 8 8.04 5
-3 2 -8 5.88 4.67
3 -2 9 76.29 18.71
-3 2 -9 53.36 14.68
3 -2 10 120.1 24.89
-3 1 9 3.88 3.92
-3 1 8 122.68 18.42
-3 1 7 155.02 19.57
-3 1 6 40.2 8.98
-3 1 5 97.41 12.72
3 -1 -4 463.39 21.38
3 -1 -3 133.37 10.12
3 -1 -2 73.91 7.6
-3 1 1 234.5 22.32
-3 1 0 1618.33 59.49
-3 1 -1 563.85 33.64
-3 1 -2 35.24 8.53
-3 1 -3 528.73 33.75
-3 1 -4 275.04 24.71
-3 1 -5 281.83 25.87
-3 1 -6 115.33 17.36
3 -1 7 57.79 7.3
-3 1 -7 65.05 13.55
-3 1 -8 29.61 9.04
3 -1 8 29.86 10.2
3 -1 9 297.82 35.06
-3 1 -9 402.06 38.46
3 -1 10 212.57 31.56
-3 1 -10 223.31 31.22
3 -1 11 80.95 21.03
-3 0 10 16.14 7.44
-3 0 9 98.43 19.02
-3 0 8 2.81 3.08
-3 0 7 149.58 21.27
-3 0 6 108.64 16.79
-3 0 5 36.69 8.89
-3 0 4 150.58 17.12
3 0 -3 920.94 37.34
3 0 -2 23.31 5.31
-3 0 1 155.2 18.24
3 0 -1 131.25 12.54
-3 0 0 821.73 40.47
-3 0 -1 1837.19 62.91
-3 0 -2 147.99 17.61
-3 0 -3 2300.59 75.05
-3 0 -4 71.94 12.28
-3 0 -5 311.57 26.74
-3 0 -6 115.26 17.11
-3 0 -7 146.08 20.72
-3 0 -8 231.28 27.14
-3 0 -9 193.33 25.98
-3 0 -10 29.65 10.95
3 0 10 38.98 13.75
3 0 11 51.43 17.24
-3 0 -11 92.18 20.58
3 0 12 8.5 8.4
-3 -1 10 40.78 13.44
-3 -1 9 1.74 4.43
-3 -1 8 7.87 6.96
-3 -1 7 14.08 7.13
-3 -1 6 10.15 5.21
-3 -1 5 63.49 13.21
-3 -1 4 199.24 21.69
-3 -1 3 215.44 21.02
3 1 -2 680.41 34.38
-3 -1 1 427.32 30.65
3 1 -1 400.99 25.34
-3 -1 0 380.5 27.08
-3 -1 -1 568.64 32.59
-3 -1 -2 724.38 38.22
-3 -1 -3 2194.03 71.92
-3 -1 -4 256.94 22.78
-3 -1 -5 207.23 21.09
-3 -1 -6 502.08 35.46
-3 -1 -7 784.37 47.18
-3 -1 -8 151.67 20.92
3 1 8 88.35 7.63
-3 -1 -9 156.24 23.24
-3 -1 -10 295.19 33.8
-3 -1 -11 8.24 7.03
3 1 11 0.1 4.28
3 1 12 11.6 10
-3 -2 10 115 24.29
-3 -2 9 64.72 17.52
-3 -2 8 15.44 8.36
-3 -2 7 2.5 4.38
-3 -2 6 208.3 28.21
-3 -2 5 56.13 13.35
-3 -2 4 509.87 38
-3 -2 3 459.86 34.19
-3 -2 2 158.04 19.09
-3 -2 1 161.05 18.86
-3 -2 0 168.32 18.1
-3 -2 -1 220.88 20.11
-3 -2 -2 823.12 40.38
-3 -2 -3 1238.68 51.34
-3 -2 -4 232.56 21.49
-3 -2 -5 25.98 7.04
-3 -2 -6 17.5 6.73
-3 -2 -7 2.92 2.46
3 2 8 66.76 9.62
-3 -2 -8 67.23 13.89
-3 -2 -9 23.38 9.59
-3 -2 -10 83.75 17.95
-3 -2 -11 10.63 7.73
-3 -3 9 103.26 24.13
-3 -3 8 192.45 30.94
-3 -3 7 198.83 30.25
-3 -3 6 123.76 22.51
-3 -3 5 386.28 38.1
-3 -3 4 339.99 33.46
-3 -3 3 58.02 13.02
-3 -3 2 138.56 18.95
-3 -3 1 67.82 12.23
-3 -3 0 169.4 18.23
-3 -3 -1 245 21.36
-3 -3 -2 455.64 29.48
-3 -3 -3 1145.65 48.49
-3 -3 -4 770.49 39.98
-3 -3 -5 483.69 32.48
-3 -3 -6 190.4 21.5
-3 -3 -7 16.51 6.58
-3 -3 -8 82.39 15.45
-3 -3 -9 78.41 15.96
-3 -3 -10 496.56 43.54
-3 -3 -11 155.2 25.77
-3 -3 -12 27.14 11.78
-3 -4 9 49.25 17.19
-3 -4 8 2.86 2.21
-3 -4 7 66.85 18.66
-3 -4 6 47.75 15.52
-3 -4 5 1161.42 70.4
-3 -4 4 5.99 3.36
-3 -4 3 113.58 19.35
-3 -4 2 278.14 28.65
-3 -4 1 893.91 44.84
-3 -4 0 651.74 36.41
-3 -4 -1 1043.32 44.96
-3 -4 -2 1935.43 64.51
-3 -4 -3 654.52 35.2
-3 -4 -4 126.15 15.65
-3 -4 -5 574.05 35.74
-3 -4 -6 95.23 15.09
-3 -4 -7 70.13 13.55
-3 -4 -8 263.54 27.81
-3 -4 -9 7.44 4.81
-3 -4 -10 1296.31 72.73
-3 -4 -11 265.09 34.02
-3 -5 8 23.28 11.34
-3 -5 7 22.21 12.09
-3 -5 6 46.09 15.33
-3 -5 5 524.43 49.21
-3 -5 4 120.71 22.58
-3 -5 3 16.2 7.56
-3 -5 2 29.77 7.98
-3 -5 2 47.98 12.98
-3 -5 1 44 9.73
-3 -5 0 75.73 12.19
-3 -5 -1 133.45 15.4
-3 -5 -2 15.66 5.01
-3 -5 -3 121.95 14.62
-3 -5 -4 106.65 14.15
-3 -5 -5 246.56 23.34
-3 -5 -6 355 29.37
-3 -5 -7 36.03 9.54
-3 -5 -8 135.01 19.96
-3 -5 -9 2.23 2.44
-3 -5 -10 76.58 17.42
-3 -5 -11 360.12 39.99
-3 -6 7 97.95 23.87
-3 -6 6 74.74 20.26
-3 -6 5 295 38.95
-3 -6 4 255.4 34.67
-3 -6 3 25.35 7.21
-3 -6 3 6.95 5.11
-3 -6 2 239.79 22.92
-3 -6 2 268.86 32.73
-3 -6 1 72.04 11.63
-3 -6 0 0.5 1.34
-3 -6 -1 105.07 13.72
-3 -6 -2 344.23 25.35
-3 -6 -3 820.93 40.47
-3 -6 -4 476.92 31.11
-3 -6 -5 349.6 27.58
-3 -6 -6 113.88 16.29
-3 -6 -7 32.35 8.85
-3 -6 -8 123.18 18.97
-3 -6 -9 32.78 11.05
-3 -6 -10 103.11 20.51
-3 -7 5 106.33 24.69
-3 -7 4 26.6 12.11
-3 -7 3 45.53 14.57
-3 -7 -3 526.36 29.97
-3 -7 -4 337.94 24.21
-3 -7 -5 585.05 34.13
-3 -7 -6 -3.54 3.52
-3 -7 -7 25.06 8.35
-3 -7 -8 147 21.45
4 -5 -5 34.69 14.25
4 -5 -4 34.6 12.76
4 -5 -3 25.7 10.92
4 -5 -2 227.92 35.68
4 -5 -1 88.63 21.54
4 -5 0 24.8 11.4
4 -5 1 147.85 27.67
4 -5 2 37.63 13.47
4 -5 3 83.25 19.4
4 -5 4 34.62 11.86
4 -4 -7 106.23 23.31
4 -4 -6 103.19 23.21
-4 4 5 229.33 31.62
4 -4 -5 136.23 26.41
-4 4 4 44.43 13.07
4 -4 -4 53.27 15.85
-4 4 3 71.05 15.77
4 -4 -3 48.21 15.21
-4 4 2 339.77 32.72
4 -4 -2 383.27 43.21
4 -4 -1 233.01 33.18
4 -4 0 400.15 43.33
4 -4 1 371.1 41.13
4 -4 2 326.53 37.64
4 -4 3 38.99 9.2
4 -4 3 41.06 12.46
4 -4 4 111.38 16.99
4 -4 4 155.18 25.2
4 -4 5 5.97 4.03
4 -4 6 35.35 10.64
4 -4 7 55.58 14.9
-4 3 3 9.76 5.7
-4 3 2 122.13 19.55
-4 3 1 32.87 9.46
4 -3 0 274.81 16.26
-4 3 0 278.73 27.49
-4 3 -1 55.04 11.88
4 -3 1 41.42 7.58
4 -3 2 85.64 12.45
-4 3 -2 96.15 15.32
-4 3 -3 169.73 20.42
4 -3 3 155.87 18.24
-4 3 -4 125.38 17.75
4 -3 4 115.62 17.48
4 -3 4 123.47 20.16
4 -3 5 41.28 10.95
4 -3 5 38.09 11.15
-4 3 -5 38.82 10.11
4 -3 6 27.35 9.5
-4 3 -6 23.1 8.28
4 -3 7 18.27 8.36
4 -3 8 60.55 16.08
-4 2 3 277.91 31.87
-4 2 2 263.27 28.59
4 -2 -2 152.82 7.89
-4 2 1 370.38 32.62
-4 2 0 23.46 8.47
-4 2 -1 544.84 39.36
-4 2 -2 48.22 11.26
-4 2 -3 138.65 19.82
-4 2 -4 275.39 28.15
-4 2 -5 237.67 26.53
-4 2 -6 326.09 32.06
4 -2 6 301.38 28.18
4 -2 6 314.69 32.57
-4 2 -7 155.32 22.9
4 -2 7 114.49 21.04
4 -2 8 44.32 13.48
-4 2 -8 42.44 12.19
-4 2 -9 36.4 12.57
4 -2 9 35.62 13.58
4 -2 10 83.21 21.22
-4 2 -10 73.54 18.14
4 -1 -4 341.4 19.4
4 -1 -3 94.33 9.9
-4 1 2 730.69 48.43
4 -1 -2 682.21 29.18
-4 1 1 563.89 40.01
-4 1 0 19.96 6.99
-4 1 -1 238.69 24.79
-4 1 -2 28.11 8.39
-4 1 -3 34.65 9.91
-4 1 -4 74.27 14.46
-4 1 -5 168.85 22.51
-4 1 -6 819.53 52.05
-4 1 -7 203.69 26.5
-4 1 -8 87.19 17.53
-4 1 -9 54.42 14.47
4 -1 9 52.32 15.02
4 -1 10 60.08 16.82
-4 1 -10 80.85 18.89
-4 1 -11 82.63 20.15
4 -1 11 72.39 20.33
-4 0 8 40.69 12.04
-4 0 7 13.46 6.46
-4 0 6 61.85 13.39
-4 0 2 37.56 10.71
4 0 -2 34.19 7.31
-4 0 1 471.51 36.42
4 0 -1 420.39 26.17
-4 0 0 615.44 40.15
-4 0 -1 311.86 27.77
-4 0 -2 16.79 6.63
-4 0 -3 556.64 39.3
-4 0 -4 44.71 10.82
-4 0 -5 88.1 15.93
-4 0 -6 36.31 10.22
-4 0 -7 13.56 6.54
-4 0 -8 461.61 40.75
-4 0 -9 200.79 27.51
-4 0 -10 40.69 13.12
-4 0 -11 19.44 10.51
4 0 11 27.29 12.64
-4 -1 9 23.6 11.08
-4 -1 8 29.88 11.4
-4 -1 7 157.72 24.5
-4 -1 6 50.16 13.6
-4 -1 5 129.09 20.05
-4 -1 1 346.37 31.05
-4 -1 0 461.95 34.52
-4 -1 -1 93.01 14.81
-4 -1 -2 1596.1 65.63
-4 -1 -3 526.15 36.96
-4 -1 -4 1019.25 52.88
-4 -1 -5 59.26 12.45
-4 -1 -6 15.27 6.81
-4 -1 -7 84.84 16.09
-4 -1 -8 44.22 12.03
-4 -1 -9 49.28 13.39
-4 -1 -10 54.73 14.54
-4 -1 -11 45.48 14.11
4 1 12 89.38 25.35
-4 -1 -12 78.59 19.8
-4 -2 9 13.84 8.73
-4 -2 8 27.32 11.28
-4 -2 7 161.65 26.81
-4 -2 6 26.85 9.95
-4 -2 5 320.22 33.55
-4 -2 4 57.28 13.54
-4 -2 1 902.74 51.5
-4 -2 0 103.5 16.54
-4 -2 -1 306.73 27.52
-4 -2 -2 511.53 35.53
-4 -2 -3 1045.67 52.51
-4 -2 -4 1885.29 73.83
-4 -2 -5 18.03 6.82
-4 -2 -6 125.2 18.34
-4 -2 -7 199.73 24.25
-4 -2 -8 286.77 31.41
-4 -2 -9 126.62 20.74
-4 -2 -10 62.21 15.16
-4 -2 -11 18.81 9.11
-4 -2 -12 38.88 13.61
-4 -3 9 170.27 31.18
-4 -3 8 141.83 27.1
-4 -3 7 12.4 7.2
-4 -3 6 73.85 18.36
-4 -3 5 179.89 26.74
-4 -3 4 31.39 10.25
-4 -3 3 16.93 8.46
-4 -3 2 37.52 10.86
-4 -3 1 273.19 27.53
-4 -3 0 1131.6 56.43
-4 -3 -1 203.37 22.66
-4 -3 -2 1212.89 56.94
-4 -3 -3 962.13 50.2
-4 -3 -4 88.81 14.87
-4 -3 -5 86.85 15.1
-4 -3 -6 509.49 37.6
-4 -3 -7 131.88 19.4
-4 -3 -8 253.16 28.66
-4 -3 -9 468.73 40.47
-4 -3 -10 143.66 23.13
-4 -3 -11 30.89 10.91
-4 -3 -12 -2.74 5.33
-4 -4 8 6.21 6.53
-4 -4 7 2.91 3.82
-4 -4 6 8.35 7.48
-4 -4 5 557.64 49.92
-4 -4 4 111.18 22.59
-4 -4 3 49.44 13.96
-4 -4 2 28.1 9.42
-4 -4 1 48.47 11.9
-4 -4 0 77.2 14.27
-4 -4 -1 249.64 25.13
-4 -4 -2 94.85 15.1
-4 -4 -3 578.13 38.23
-4 -4 -4 556.19 37.5
-4 -4 -5 164.36 20.59
-4 -4 -6 21.49 7.61
-4 -4 -7 25.74 8.55
-4 -4 -8 485.85 39.91
-4 -4 -9 311.33 32.72
-4 -4 -10 103.29 20.19
-4 -4 -11 23.07 9.99
-4 -4 -12 187.68 29.77
-4 -5 7 67.71 20.19
-4 -5 6 20.7 10.47
-4 -5 5 31.54 13.01
-4 -5 4 330.91 38.73
-4 -5 3 28.14 9.8
-4 -5 3 24.34 10.43
-4 -5 2 68.87 14.34
-4 -5 1 11.46 4.66
-4 -5 0 27.06 8.5
-4 -5 -1 61.53 11.96
-4 -5 -2 218.62 22.72
-4 -5 -3 136.89 17.9
-4 -5 -4 36.09 9.31
-4 -5 -5 100.25 16.21
-4 -5 -6 558.7 39.64
-4 -5 -7 225.49 25.88
-4 -5 -8 51.76 12.96
-4 -5 -9 145.2 22.74
-4 -5 -10 14.9 7.61
-4 -5 -11 108.19 20.39
-4 -5 -12 207.62 31.12
-4 -6 6 35.21 13.53
-4 -6 5 243.01 36.87
-4 -6 4 158.39 23.57
-4 -6 4 135.02 26.38
-4 -6 3 148.42 21.48
-4 -6 2 144.51 19.89
-4 -6 1 148.88 19.88
-4 -6 0 80.81 13.97
-4 -6 -1 97.29 15.23
-4 -6 -2 608.31 38.76
-4 -6 -3 1858.6 71.11
-4 -6 -4 110.45 16.66
-4 -6 -5 164.01 20.68
-4 -6 -6 96.55 16.31
-4 -6 -7 74.31 15.1
-4 -6 -8 192.62 24.77
-4 -6 -9 106.39 19.39
-4 -6 -10 -1.72 3.59
-4 -6 -11 19.17 9.93
-4 -7 5 132.81 28.04
-4 -7 4 39.3 14.97
-4 -7 1 168.95 20.98
-4 -7 0 77.32 14.37
-4 -7 -1 107.02 16.84
-4 -7 -2 726.03 46.09
-4 -7 -3 914.4 52.35
-4 -7 -4 687.32 44.69
-4 -7 -5 1245.24 62.18
-4 -7 -6 82.06 15.59
-4 -7 -7 203.13 25.32
-4 -7 -8 274.36 30.26
-4 -7 -9 119.38 21.02
-4 -7 -10 12.59 7.5
-4 -7 -11 55.03 16.27
-4 -8 -9 21.09 8.39
5 -4 -5 3.39 3.73
5 -4 0 17.45 9.78
5 -4 1 17.02 8.06
5 -4 2 7.27 1.85
5 -4 3 83.65 19.92
5 -4 4 20.65 9.5
-5 3 5 40.16 14.23
-5 3 4 188.52 29.46
-5 3 3 5.95 4.44
-5 3 2 45.31 13.29
-5 3 1 342.95 35.43
-5 3 0 448.07 39.43
-5 3 -1 7.54 4.42
-5 3 -2 28.02 9.24
5 -3 3 22.83 6.62
-5 3 -3 23.42 8.16
5 -3 4 456.64 43.21
5 -3 4 482.95 35.03
5 -3 5 66.18 13.49
5 -3 5 75.69 16.91
5 -3 6 16.36 6.91
5 -3 7 7.53 5
-5 2 4 503.78 49.85
-5 2 3 73.46 17.7
-5 2 2 177.35 25.99
-5 2 1 76.7 16.57
-5 2 0 52.07 13.04
-5 2 -1 58.37 14.41
-5 2 -2 22.44 8.84
-5 2 -3 267.65 30.99
-5 2 -4 103.19 18.83
-5 2 -5 76.66 16.28
-5 2 -6 18.81 8.55
5 -2 6 14.2 7.55
-5 2 -7 54.43 14.38
5 -2 7 73.71 16.71
5 -2 8 8.16 5.89
-5 2 -8 25.73 9.86
-5 2 -9 -0.29 3.46
5 -2 9 4.19 4.89
-5 1 3 18.47 9.3
-5 1 2 106.61 20.23
-5 1 1 2 1.56
-5 1 0 9.96 6.23
-5 1 -1 31.4 9.62
-5 1 -2 149.08 22.72
-5 1 -3 93.77 18.19
-5 1 -4 122.95 21.33
-5 1 -5 394.38 38.77
-5 1 -6 126.12 21.56
-5 1 -7 14.36 7.17
-5 1 -8 81.73 18.69
-5 1 -9 -2.71 3.34
5 -1 9 5.38 3.46
5 -1 10 24.94 10.54
-5 1 -10 18.82 9
-5 0 3 186.27 27.95
-5 0 2 268.61 31.85
-5 0 1 108.14 19.16
-5 0 0 33.43 10.68
-5 0 -1 355.6 33.49
-5 0 -2 235.38 27.31
-5 0 -3 356.26 34.65
-5 0 -4 48.02 13.13
-5 0 -5 47.59 13.19
-5 0 -6 84.03 17.54
-5 0 -7 256.78 31.65
-5 0 -8 74.51 18.17
-5 0 -9 88.97 19.24
-5 0 -10 24.79 10.26
-5 0 -11 9.4 6.72
-5 -1 8 128.63 23.88
-5 -1 2 169.45 25.22
-5 -1 1 642.76 47.56
-5 -1 0 139.28 21.02
-5 -1 -1 35.47 10.23
-5 -1 -2 192.89 23.96
-5 -1 -3 203.59 25.36
-5 -1 -4 616.17 45.18
-5 -1 -5 630.87 46.86
-5 -1 -6 509.78 42.71
-5 -1 -7 262.07 31.21
-5 -1 -8 14.91 7.58
-5 -1 -9 345.33 38.19
-5 -1 -10 53.04 15.18
-5 -1 -11 36.17 13.9
-5 -2 8 87.72 20.81
-5 -2 7 109.15 23.22
-5 -2 2 160.73 24.54
-5 -2 1 222.38 27.45
-5 -2 0 253.15 28.72
-5 -2 -1 824.47 51.47
-5 -2 -2 1421.61 67.76
-5 -2 -3 715.17 47.22
-5 -2 -4 733.04 48.61
-5 -2 -5 62.68 14.08
-5 -2 -6 25.86 9.37
-5 -2 -7 1090.38 62.92
-5 -2 -8 198.16 27.2
-5 -2 -9 253.79 32.12
-5 -2 -10 141.86 24.16
-5 -2 -11 561.4 50.35
-5 -2 -12 27.34 11.31
-5 -3 8 1 2.32
-5 -3 7 0.71 2.88
-5 -3 6 89.54 21.15
-5 -3 3 117.11 22.48
-5 -3 2 197.19 27.45
-5 -3 1 1.97 2.38
-5 -3 0 158.89 23.13
-5 -3 -1 27.76 9.21
-5 -3 -2 47.03 11.99
-5 -3 -3 364.06 33.32
-5 -3 -4 525.67 40.9
-5 -3 -5 92.58 17.13
-5 -3 -6 873.74 54.29
-5 -3 -7 374.15 35.59
-5 -3 -8 84.91 17.59
-5 -3 -9 43.78 13.16
-5 -3 -10 91.47 19.36
-5 -3 -11 78.12 18.44
-5 -3 -12 102.42 22.04
-5 -4 7 23.77 10.9
-5 -4 6 394.46 45.76
-5 -4 5 610.96 54.94
-5 -4 3 678.89 52.08
-5 -4 2 42.72 12.51
-5 -4 1 47.96 12.96
-5 -4 0 77.23 16.05
-5 -4 -1 303.31 31.37
-5 -4 -2 96.8 17.39
-5 -4 -3 200.62 25.09
-5 -4 -4 356.63 33.38
-5 -4 -5 155.64 22.18
-5 -4 -6 94.89 17.38
-5 -4 -7 191.16 25.81
-5 -4 -8 495.57 42.26
-5 -4 -9 54.58 14.7
-5 -4 -10 28.11 10.36
-5 -4 -11 16.73 8.15
-5 -4 -12 37.33 13.07
-5 -5 7 119.09 26.96
-5 -5 6 101.94 24.43
-5 -5 5 35.55 14.66
-5 -5 4 103.39 20.84
-5 -5 3 210.37 28.46
-5 -5 2 63.85 15.05
-5 -5 1 228.53 28.23
-5 -5 0 92.76 17.63
-5 -5 -1 1014.94 58.3
-5 -5 -2 77.68 15.76
-5 -5 -3 86.66 15.73
-5 -5 -4 9.86 4.79
-5 -5 -5 61.07 13.49
-5 -5 -6 270.62 29.62
-5 -5 -7 117.38 19.76
-5 -5 -8 60.46 14.52
-5 -5 -9 96.95 19.61
-5 -5 -10 -1.12 3.85
-5 -5 -11 157.8 25.96
-5 -5 -12 17.58 9.3
-5 -6 6 22.05 11.32
-5 -6 5 32.84 12.44
-5 -6 4 21.35 8.84
-5 -6 3 4.62 5.12
-5 -6 2 88.98 17.43
-5 -6 1 282.07 31.27
-5 -6 0 29.98 9.18
-5 -6 -1 735.46 48.08
-5 -6 -2 641.87 44.44
-5 -6 -3 270.92 28.41
-5 -6 -4 142.77 20.57
-5 -6 -5 14.45 6.96
-5 -6 -6 173.71 23.56
-5 -6 -7 447.64 39.16
-5 -6 -8 34.26 11.07
-5 -6 -9 650.6 50.9
-5 -6 -10 181.56 27.33
-5 -6 -11 142.53 24.8
-5 -7 3 108.86 19.62
-5 -7 2 55.63 14.18
-5 -7 1 8.54 5.26
-5 -7 0 91.11 16.66
-5 -7 -1 291.42 29.8
-5 -7 -2 63.69 14.12
-5 -7 -3 4.34 3.18
-5 -7 -4 23.21 8.33
-5 -7 -5 300 31.4
-5 -7 -6 106.24 18.88
-5 -7 -7 41.42 12.3
-5 -7 -8 219.89 28.8
-5 -7 -9 54.09 14.52
-5 -7 -10 31.37 11.15
-5 -8 -4 183.78 28.34
-5 -8 -5 268.03 33.89
-5 -8 -6 217.51 30.15
-5 -8 -7 189.71 28.03
-5 -8 -8 126.37 22.44
-5 -8 -9 51.66 15.67
-6 3 4 4.89 7.65
-6 3 3 -1.36 2.62
-6 3 2 -9.96 6.82
-6 2 5 4.98 8.11
-6 2 4 103.45 23.62
-6 2 3 25.19 11.33
-6 2 2 5.74 5.82
-6 2 1 49.9 14.71
-6 2 0 17.36 8.15
-6 2 -1 6.43 6.22
-6 2 -2 75.87 17.93
-6 2 -3 35.25 11.44
-6 2 -4 21.18 9.25
-6 2 -5 10.07 6.51
-6 2 -6 26.57 9.98
6 -2 7 52.62 14.28
-6 1 5 10.85 7.85
-6 1 4 122.42 26.38
-6 1 3 321.92 40.23
-6 1 2 38.44 13.73
-6 1 1 3.69 2.1
-6 1 0 0.06 3.68
-6 1 -1 14.91 8.28
-6 1 -2 128.11 23.06
-6 1 -3 57.37 15.87
-6 1 -4 26.5 10.56
-6 1 -5 38.89 13.09
-6 1 -6 49.99 14.84
-6 1 -7 37.44 12.31
-6 1 -8 37.87 13.2
-6 0 5 62.47 19.84
-6 0 4 308.33 40.64
-6 0 3 157.56 27.61
-6 0 2 106.86 21.81
-6 0 1 3.14 3.53
-6 0 0 129.02 23.51
-6 0 -1 8.96 5.41
-6 0 -2 34.68 11.51
-6 0 -3 8.26 5.07
-6 0 -4 127.82 22.91
-6 0 -5 28.61 11.32
-6 0 -6 58.21 16.87
-6 0 -7 83 19.27
-6 0 -8 209.89 31.83
-6 0 -9 82.27 20.07
-6 0 -10 55.01 16.3
-6 -1 4 247.81 36.62
-6 -1 3 287.56 37.52
-6 -1 2 686.66 55.59
-6 -1 1 452.32 43.87
-6 -1 0 109.92 21.06
-6 -1 -1 151.28 23.68
-6 -1 -2 213.38 27.91
-6 -1 -3 22.46 9.02
-6 -1 -4 696.06 52.66
-6 -1 -5 142.08 24.42
-6 -1 -6 955.6 65.33
-6 -1 -7 531.05 48.8
-6 -1 -8 14.82 7.65
-6 -1 -9 6.6 5.36
-6 -1 -10 3.5 2.53
-6 -2 4 9.45 7.29
-6 -2 3 23.88 10.53
-6 -2 2 435.93 43.82
-6 -2 1 238.68 31.88
-6 -2 0 107.52 20.74
-6 -2 -1 56.84 14.27
-6 -2 -2 12.37 5.79
-6 -2 -3 43.81 12.23
-6 -2 -4 100.05 19.78
-6 -2 -5 567.7 47.27
-6 -2 -6 669.63 52.05
-6 -2 -7 4.95 4.91
-6 -2 -8 1.54 1.97
-6 -2 -9 78.47 18.75
-6 -2 -10 125.08 24.73
-6 -2 -11 8.71 7.11
-6 -3 4 24.9 10.88
-6 -3 3 187.36 29.67
-6 -3 2 227.41 31.28
-6 -3 1 715.37 55.09
-6 -3 0 704.1 54.33
-6 -3 -1 365.17 37.7
-6 -3 -2 281.95 32.29
-6 -3 -3 320.37 34.72
-6 -3 -4 139.25 22.83
-6 -3 -5 212.25 28.02
-6 -3 -6 564.8 47.04
-6 -3 -7 42.52 12.81
-6 -3 -8 20.68 9.63
-6 -3 -9 67.04 17.5
-6 -3 -10 139.77 25.6
-6 -3 -11 70.82 18.53
-6 -4 5 334.19 43.52
-6 -4 4 440.4 47.07
-6 -4 3 -0.77 2.25
-6 -4 2 328.72 37.96
-6 -4 1 371.02 39.61
-6 -4 0 118.62 22.19
-6 -4 -1 98.82 19.85
-6 -4 -2 136.9 22.37
-6 -4 -3 480.46 42.67
-6 -4 -4 487.74 43.16
-6 -4 -5 121.45 21.37
-6 -4 -6 68.15 15.56
-6 -4 -7 0.29 2.87
-6 -4 -8 41.28 13.18
-6 -4 -9 91.32 20.16
-6 -4 -10 54.46 16.92
-6 -4 -11 11.01 8.4
-6 -5 6 37.26 14.89
-6 -5 5 25.97 11.26
-6 -5 4 249.88 34.81
-6 -5 3 41.78 15
-6 -5 2 503.99 47.02
-6 -5 1 444 43.38
-6 -5 0 339.34 37.4
-6 -5 -1 295.51 34.37
-6 -5 -2 2.24 2.23
-6 -5 -3 141.66 22.82
-6 -5 -4 111.36 20.31
-6 -5 -5 121.4 21.87
-6 -5 -6 519.94 44.81
-6 -5 -7 176.17 26.51
-6 -5 -8 17.98 8.61
-6 -5 -9 109.42 21.65
-6 -5 -10 77.39 19.11
-6 -5 -11 96.67 20.94
-6 -6 5 19.49 9.28
-6 -6 4 15.57 8.43
-6 -6 3 113.71 22.6
-6 -6 2 341.76 38.23
-6 -6 1 745.82 56.43
-6 -6 0 34.5 11.67
-6 -6 -1 436 40.86
-6 -6 -2 19.32 9.54
-6 -6 -3 6.35 4.71
-6 -6 -4 37.67 11.25
-6 -6 -5 113.46 20.1
-6 -6 -6 116.41 21.07
-6 -6 -7 62.35 15.79
-6 -6 -8 223.62 29.92
-6 -6 -9 168.42 26.9
-6 -6 -10 7.15 5.35
-6 -6 -11 15.43 9.38
-6 -7 4 37.58 12.93
-6 -7 3 -12.75 7.43
-6 -7 2 -0.15 3.54
-6 -7 1 96.3 19.77
-6 -7 0 214.74 28.38
-6 -7 -1 487.29 42.82
-6 -7 -2 80.19 16.45
-6 -7 -3 130.95 21.65
-6 -7 -4 51.7 13.37
-6 -7 -5 462.81 41.54
-6 -7 -6 60.39 15.03
-6 -7 -7 84.24 18.06
-6 -7 -8 95.56 19.69
-6 -7 -9 53.14 15.21
-6 -7 -10 1.45 2.5
-6 -8 -1 23.89 9.78
-6 -8 -2 25.44 9
-6 -8 -3 86.02 18.39
-6 -8 -4 55.83 14.86
-6 -8 -5 152.82 25.34
-6 -8 -6 43.58 13.37
-6 -8 -7 417.28 42.93
-6 -8 -8 49.02 14.83
-6 -8 -9 69.6 18.32
-7 2 2 34.55 12.77
-7 2 1 0.07 3.33
-7 2 0 0.48 4.08
-7 2 -1 16.99 9.07
-7 2 -2 -2.96 1.67
-7 2 -3 2.99 3.53
-7 1 4 7.34 7.39
-7 1 3 56.77 18.68
-7 1 2 87.05 22.26
-7 1 1 85.38 21.16
-7 1 0 27.45 11.76
-7 1 -1 114.66 23.61
-7 1 -2 11.5 6.36
-7 1 -3 44 14.76
-7 1 -4 25.55 10.54
-7 1 -5 35.99 12.64
-7 1 -6 3.76 6
-7 0 5 8.65 6.03
-7 0 4 134.11 28.33
-7 0 3 59.63 18.56
-7 0 2 58.6 17.8
-7 0 1 198.79 32.33
-7 0 0 145.27 26.54
-7 0 -1 40.44 12.7
-7 0 -2 149.04 26.47
-7 0 -3 434.43 45.57
-7 0 -4 73.84 19.01
-7 0 -5 97.99 21.85
-7 0 -6 156.16 28.76
-7 0 -7 14.35 9.28
-7 0 -8 87.77 21.65
-7 -1 5 27.97 14.29
-7 -1 4 56.32 18.42
-7 -1 3 16.36 10.64
-7 -1 2 65.07 19.48
-7 -1 1 4.58 6.07
-7 -1 0 13.7 7.63
-7 -1 -1 2.95 2.39
-7 -1 -2 11.86 7.51
-7 -1 -3 168.77 27.63
-7 -1 -4 60.32 16.63
-7 -1 -5 173.1 28.51
-7 -1 -6 159.69 28.09
-7 -1 -7 6.64 5.73
-7 -1 -8 1.2 4.79
-7 -1 -9 20.03 10.02
-7 -2 5 18.96 12.4
-7 -2 4 3.32 4.37
-7 -2 3 62.62 18.85
-7 -2 2 35.58 13.72
-7 -2 1 2.71 1.87
-7 -2 0 -9.11 6.51
-7 -2 -1 320.86 38.53
-7 -2 -2 89.34 19.44
-7 -2 -3 59.27 15.92
-7 -2 -4 4.11 4.48
-7 -2 -5 77.7 18.28
-7 -2 -6 748.34 59.23
-7 -2 -7 85.75 20.6
-7 -2 -8 10.63 5.31
-7 -2 -9 22.32 9.78
-7 -2 -10 8.93 7.83
-7 -3 5 65.54 21.59
-7 -3 4 84.7 22.55
-7 -3 3 23.18 11.34
-7 -3 2 201.44 32.38
-7 -3 1 461.12 48.63
-7 -3 0 275.07 37.11
-7 -3 -1 753.55 59.56
-7 -3 -2 85.44 19
-7 -3 -3 37.25 12.85
-7 -3 -4 208.69 30.4
-7 -3 -5 63.21 16.38
-7 -3 -6 145.75 25.65
-7 -3 -7 30.61 11.48
-7 -3 -8 111.37 22.94
-7 -3 -9 6.96 6.2
-7 -3 -10 53.06 16.97
-7 -4 5 5.19 4.07
-7 -4 4 56.52 18.12
-7 -4 3 154.95 29.51
-7 -4 2 656.62 58.35
-7 -4 1 360.67 43.28
-7 -4 0 43.01 14.89
-7 -4 -1 34.97 13.13
-7 -4 -2 29.18 10.93
-7 -4 -3 58.9 17.18
-7 -4 -4 137.01 25.06
-7 -4 -5 118.55 22.7
-7 -4 -6 62.23 16.02
-7 -4 -7 30.97 10.96
-7 -4 -8 10.31 6.79
-7 -4 -9 80.6 19.54
-7 -4 -10 24.63 11.14
-7 -5 4 11.14 8.17
-7 -5 3 60.83 17.81
-7 -5 2 146.47 27.23
-7 -5 1 355.68 42.62
-7 -5 0 149.73 26.88
-7 -5 -1 39.03 12.72
-7 -5 -2 74.59 18.55
-7 -5 -3 849.22 63.34
-7 -5 -4 65.31 17.38
-7 -5 -5 79.28 18.85
-7 -5 -6 67.27 17.68
-7 -5 -7 29.51 11.85
-7 -5 -8 12.41 8.54
-7 -5 -9 115.88 23.69
-7 -5 -10 45.03 15.71
-7 -6 4 42.54 15.43
-7 -6 3 24.95 11.32
-7 -6 2 86.48 20.51
-7 -6 1 253.66 35.71
-7 -6 0 21 9.56
-7 -6 -1 13.62 8.53
-7 -6 -2 12.34 7.24
-7 -6 -3 221.91 31.73
-7 -6 -4 20.25 8.06
-7 -6 -5 448.15 44.66
-7 -6 -6 341.62 38.78
-7 -6 -7 25.79 11.31
-7 -6 -8 126.05 24.04
-7 -6 -9 55.87 16.2
-7 -6 -10 41.9 14.63
-7 -7 2 6.7 5.74
-7 -7 1 63.18 16.99
-7 -7 0 79.61 18.9
-7 -7 -1 11.04 6.44
-7 -7 -2 113.89 22.35
-7 -7 -3 57.62 15.23
-7 -7 -4 76.85 17.75
-7 -7 -5 20.05 9.26
-7 -7 -6 7.8 6.27
-7 -7 -7 18.06 13.92
-7 -7 -8 140.66 25
-7 -7 -9 44.36 14.25
-7 -8 0 12.94 7.93
-7 -8 -1 38.41 12.86
-7 -8 -2 54.73 14.92
-7 -8 -3 87.09 19.08
-7 -8 -4 17.08 8.08
-7 -8 -5 164.45 26.17
-7 -8 -6 16.62 8.53
-7 -8 -7 46.16 14.18
-7 -8 -8 28.83 11.57
-8 0 1 52.89 18.34
-8 0 0 29.28 13.34
-8 0 -1 -1.91 1.23
-8 0 -2 162.92 30.02
-8 0 -3 85.35 21
-8 0 -4 101.23 23.54
-8 0 -5 11.75 8.27
-8 -1 3 4.46 6.23
-8 -1 2 18.29 11.67
-8 -1 1 213.51 35.92
-8 -1 0 2.18 2.75
-8 -1 -1 6.84 4.9
-8 -1 -2 197.41 32.68
-8 -1 -3 2.74 5.22
-8 -1 -4 40.29 15.08
-8 -1 -5 6.03 5.64
-8 -1 -6 33.74 13.16
-8 -1 -7 7.12 10.22
-8 -2 3 29.38 13.84
-8 -2 2 102.5 24.84
-8 -2 1 126.25 27.68
-8 -2 0 10.51 8.04
-8 -2 -1 146.14 27.87
-8 -2 -2 11.65 8.09
-8 -2 -3 10.87 6.52
-8 -2 -4 5.23 4.87
-8 -2 -5 83.59 20.69
-8 -2 -6 0.47 2.39
-8 -2 -7 68.7 19.12
-8 -2 -8 50.27 16.9
-8 -3 3 115.66 26.6
-8 -3 2 83.58 22.76
-8 -3 1 0.68 3.95
-8 -3 0 83.12 22.02
-8 -3 -1 41.25 14.98
-8 -3 -2 33.75 13.46
-8 -3 -3 182.4 30.28
-8 -3 -4 -5.36 5.11
-8 -3 -5 55.41 16.4
-8 -3 -6 54.36 17.1
-8 -3 -7 191.31 31.01
-8 -3 -8 76.88 20.44
-8 -3 -9 4.77 8
-8 -4 3 177.06 33.39
-8 -4 2 65.09 19.4
-8 -4 1 50.6 17.49
-8 -4 0 1.95 3.75
-8 -4 -1 67.04 19.67
-8 -4 -2 20.09 10.62
-8 -4 -3 -6.41 5.7
-8 -4 -4 262.45 36.62
-8 -4 -5 170.91 29.54
-8 -4 -6 59.85 17.54
-8 -4 -7 10.94 7.29
-8 -4 -8 26.13 11.24
-8 -4 -9 45.38 15.56
-8 -5 3 53.06 18.1
-8 -5 2 4.61 3.37
-8 -5 1 107.46 25.48
-8 -5 0 131.9 27.6
-8 -5 -1 126.7 26.9
-8 -5 -2 66.46 18.68
-8 -5 -3 283.16 39.81
-8 -5 -4 255.77 37.32
-8 -5 -5 1.08 4.13
-8 -5 -6 29.35 11.99
-8 -5 -7 6.4 7.67
-8 -5 -8 19.85 10.7
-8 -5 -9 133.69 27.05
-8 -6 2 36.9 15.19
-8 -6 1 150.09 29.2
-8 -6 0 54.26 16.97
-8 -6 -1 8.61 8
-8 -6 -2 25.08 12.06
-8 -6 -3 82.43 20.91
-8 -6 -4 146.64 27.89
-8 -6 -5 19.02 10.36
-8 -6 -6 31.77 11.97
-8 -6 -7 18.05 10.28
-8 -6 -8 34.51 13.75
-8 -6 -9 15.56 9.17
-8 -7 0 46.79 16.18
-8 -7 -1 50.35 16.23
-8 -7 -2 15.7 9.43
-8 -7 -3 31.75 12.57
-8 -7 -4 16.71 9.16
-8 -7 -5 93.36 21.89
-8 -7 -6 61.11 17.01
-8 -7 -7 165.15 28.95
-8 -7 -8 249.71 35.92
-8 -8 -3 41.96 14.67
-8 -8 -4 36.01 12.4
-8 -8 -5 214.18 31.79
-9 -2 -1 72.3 21.04
-9 -2 -2 116.65 28.17
-9 -2 -3 42.73 16.37
-9 -2 -4 15.36 9.78
-9 -3 0 -4.74 5.48
-9 -3 -1 58.66 19.11
-9 -3 -2 79.73 22.1
-9 -3 -3 160.31 30.7
-9 -3 -4 34.36 13.85
-9 -3 -5 8.66 4.95
-9 -3 -6 15.82 10.32
-9 -4 0 29.92 13.92
-9 -4 -1 108.63 26.61
-9 -4 -2 57.07 18.18
-9 -4 -3 0.33 3.62
-9 -4 -4 83.67 22.65
-9 -4 -5 87.89 22.6
-9 -4 -6 44.58 16.57
-9 -5 0 37.79 14.93
-9 -5 -1 66.27 20.75
-9 -5 -2 28 13.52
-9 -5 -3 30.52 14.17
-9 -5 -4 0.27 6.54
-9 -5 -5 34.82 14.6
-9 -5 -6 47.08 16.28
-9 -6 -2 66.9 21.57
-9 -6 -3 5.57 4.83
-9 -6 -4 23.71 13.12
-9 -6 -5 63.54 20.14
-9 -6 -6 0.61 1.88
