#------------------------------------------------------------------------------
#$Date: 2020-02-14 02:29:05 +0200 (Fri, 14 Feb 2020) $
#$Revision: 248140 $
#$URL: file:///home/coder/svn-repositories/cod/cif/4/03/79/4037921.cif $
#------------------------------------------------------------------------------
#
# This file is available in the Crystallography Open Database (COD),
# http://www.crystallography.net/
#
# All data on this site have been placed in the public domain by the
# contributors.
#
data_4037921
loop_
_publ_author_name
'Nikahd, Maryam'
'Mikusek, Jiri'
'Yu, Li-Juan'
'Coote, Michelle L.'
'Banwell, Martin G.'
'Ma, Chenxi'
'Gardiner, Michael G.'
_publ_section_title
;
 Exploiting Chitin as a Source of Biologically Fixed Nitrogen: Formation
 and Full Characterization of Small-Molecule Hetero- and Carbocyclic
 Pyrolysis Products.
;
_journal_name_full               'The Journal of organic chemistry'
_journal_paper_doi               10.1021/acs.joc.9b03438
_journal_year                    2020
_chemical_formula_moiety         'C8 H9 N O3'
_chemical_formula_sum            'C8 H9 N O3'
_chemical_formula_weight         167.16
_space_group_crystal_system      triclinic
_space_group_IT_number           2
_space_group_name_Hall           '-P 1'
_space_group_name_H-M_alt        'P -1'
_atom_sites_solution_hydrogens   geom
_atom_sites_solution_primary     dual
_audit_creation_date             2019-05-21
_audit_creation_method
;
Olex2 1.2
(compiled 2018.05.29 svn.r3508 for OlexSys, GUI svn.r5506)
;
_cell_angle_alpha                81.053(12)
_cell_angle_beta                 83.731(16)
_cell_angle_gamma                79.026(18)
_cell_formula_units_Z            2
_cell_length_a                   3.8928(10)
_cell_length_b                   9.3628(16)
_cell_length_c                   10.7006(14)
_cell_measurement_reflns_used    865
_cell_measurement_temperature    150.01(10)
_cell_measurement_theta_max      73.4330
_cell_measurement_theta_min      4.8750
_cell_volume                     376.94(13)
_computing_cell_refinement       'CrysAlisPro 1.171.40.36a (Rigaku OD, 2018)'
_computing_data_collection       'CrysAlisPro 1.171.40.36a (Rigaku OD, 2018)'
_computing_data_reduction        'CrysAlisPro 1.171.40.36a (Rigaku OD, 2018)'
_computing_molecular_graphics    'Olex2 (Dolomanov et al., 2009)'
_computing_publication_material  'Olex2 (Dolomanov et al., 2009)'
_computing_structure_refinement  'ShelXL (Sheldrick, 2015)'
_computing_structure_solution    'ShelXT (Sheldrick, 2015)'
_diffrn_ambient_environment      N~2~
_diffrn_ambient_temperature      150.01(10)
_diffrn_detector                 'CCD plate'
_diffrn_detector_area_resol_mean 8.1297
_diffrn_detector_type            EosS2
_diffrn_measured_fraction_theta_full 0.989
_diffrn_measured_fraction_theta_max 0.973
_diffrn_measurement_details
;
List of Runs (angles in degrees, time in seconds):

  # Type    Start    End  Width  t~exp~   \w     \q     \k     \f   Frames
--------------------------------------------------------------------------
  1  \w      7.00  63.00   1.00    4.00    --   37.32 -99.00   0.00   56
  2  \w     14.00  57.00   1.00    4.00    --   37.32 -99.00-150.00   43
  3  \w     18.00  75.00   1.00    4.00    --   37.32  19.00   0.00   57
  4  \w     22.00 108.00   1.00    4.00    --   37.32  19.00  60.00   86
  5  \w     42.00  75.00   1.00    4.00    --   37.32 -99.00  60.00   33
  6  \w    -18.00  31.00   1.00    4.00    --   37.32 -77.00  60.00   49
  7  \w    -28.00  49.00   1.00    4.00    --   37.32 -57.00 120.00   77
  8  \w     41.00  70.00   1.00    4.00    --   37.32 -99.00-120.00   29
  9  \w    -21.00  15.00   1.00    4.00    --   37.32 -57.00-120.00   36
 10  \w    106.00 154.00   1.00   18.00    --  111.00 111.00 -90.00   48
 11  \w    106.00 135.00   1.00   18.00    --  111.00 111.00  60.00   29
 12  \w     93.00 155.00   1.00   18.00    --  111.00  38.00 150.00   62
 13  \w     41.00  68.00   1.00   18.00    --  111.00 -12.00 -30.00   27
 14  \w     49.00 127.00   1.00   18.00    --  111.00 -50.00 -90.00   78
 15  \w     50.00  94.00   1.00   18.00    --  111.00 -92.00-180.00   44
 16  \w     62.00 145.00   1.00   18.00    --  111.00 178.00 150.00   83
 17  \w     63.00 109.00   1.00   18.00    --  111.00-111.00  90.00   46
 18  \w     44.00  69.00   1.00   18.00    --  111.00 -92.00 150.00   25
 19  \w     78.00 106.00   1.00   18.00    --  111.00-111.00 -90.00   28
 20  \w     77.00 134.00   1.00   18.00    --  111.00 -25.00  60.00   57
 21  \w     43.00 104.00   1.00   18.00    --  111.00 -92.00 -90.00   61
 22  \w     41.00  68.00   1.00   18.00    --  111.00-111.00 -90.00   27
 23  \w    108.00 163.00   1.00   18.00    --  111.00  50.00   0.00   55
 24  \w     97.00 132.00   1.00   18.00    --  111.00 -77.00   0.00   35
 25  \w     44.00 101.00   1.00   18.00    --  111.00 -64.00-180.00   57
 26  \w     75.00 104.00   1.00   18.00    --  111.00 -92.00 -30.00   29
 27  \w     58.00  99.00   1.00   18.00    --  111.00-111.00 120.00   41
 28  \w     76.00 108.00   1.00   18.00    --  111.00-111.00 -30.00   32
 29  \w    108.00 135.00   1.00   18.00    --  111.00 -12.00 -30.00   27
 30  \w     78.00 105.00   1.00   18.00    --  111.00-111.00-180.00   27
 31  \w    121.00 150.00   1.00   18.00    --  111.00 111.00-150.00   29
 32  \w    139.00 174.00   1.00   18.00    --  111.00  50.00  30.00   35
 33  \w    105.00 167.00   1.00   18.00    --  111.00  77.00-120.00   62
 34  \w     44.00 104.00   1.00   18.00    --  111.00 -50.00 120.00   60
 35  \w     43.00 108.00   1.00   18.00    --  111.00 -27.00-134.77   65
;
_diffrn_measurement_device       'four-circle diffractometer'
_diffrn_measurement_device_type  'SuperNova, Dual, Cu at home/near, EosS2'
_diffrn_measurement_method       '\w scans'
_diffrn_orient_matrix_type
'CrysAlisPro convention (1999,Acta A55,543-557)'
_diffrn_orient_matrix_UB_11      -0.3387274000
_diffrn_orient_matrix_UB_12      0.0548646000
_diffrn_orient_matrix_UB_13      0.0803259000
_diffrn_orient_matrix_UB_21      -0.1314794000
_diffrn_orient_matrix_UB_22      0.1090186000
_diffrn_orient_matrix_UB_23      -0.1152988000
_diffrn_orient_matrix_UB_31      -0.1777077000
_diffrn_orient_matrix_UB_32      -0.1172265000
_diffrn_orient_matrix_UB_33      -0.0404848000
_diffrn_radiation_monochromator  mirror
_diffrn_radiation_probe          x-ray
_diffrn_radiation_type           CuK\a
_diffrn_radiation_wavelength     1.54184
_diffrn_reflns_av_R_equivalents  0.0311
_diffrn_reflns_av_unetI/netI     0.0511
_diffrn_reflns_Laue_measured_fraction_full 0.989
_diffrn_reflns_Laue_measured_fraction_max 0.973
_diffrn_reflns_limit_h_max       4
_diffrn_reflns_limit_h_min       -4
_diffrn_reflns_limit_k_max       9
_diffrn_reflns_limit_k_min       -11
_diffrn_reflns_limit_l_max       13
_diffrn_reflns_limit_l_min       -13
_diffrn_reflns_number            2786
_diffrn_reflns_point_group_measured_fraction_full 0.989
_diffrn_reflns_point_group_measured_fraction_max 0.973
_diffrn_reflns_theta_full        67.684
_diffrn_reflns_theta_max         73.652
_diffrn_reflns_theta_min         4.197
_diffrn_source                   'micro-focus sealed X-ray tube'
_diffrn_source_type              'SuperNova (Cu) X-ray Source'
_exptl_absorpt_coefficient_mu    0.960
_exptl_absorpt_correction_T_max  1.00000
_exptl_absorpt_correction_T_min  0.46788
_exptl_absorpt_correction_type   multi-scan
_exptl_absorpt_process_details
;
CrysAlisPro 1.171.40.36a (Rigaku Oxford Diffraction, 2018)
Empirical absorption correction using spherical harmonics,
 implemented in SCALE3 ABSPACK scaling algorithm.
;
_exptl_crystal_colour            colourless
_exptl_crystal_colour_primary    colourless
_exptl_crystal_density_diffrn    1.473
_exptl_crystal_description       needle
_exptl_crystal_F_000             176
_exptl_crystal_size_max          0.171
_exptl_crystal_size_mid          0.078
_exptl_crystal_size_min          0.029
_refine_diff_density_max         0.392
_refine_diff_density_min         -0.268
_refine_diff_density_rms         0.086
_refine_ls_extinction_method     none
_refine_ls_goodness_of_fit_ref   1.029
_refine_ls_hydrogen_treatment    constr
_refine_ls_matrix_type           full
_refine_ls_number_parameters     111
_refine_ls_number_reflns         1486
_refine_ls_number_restraints     0
_refine_ls_restrained_S_all      1.029
_refine_ls_R_factor_all          0.0813
_refine_ls_R_factor_gt           0.0649
_refine_ls_shift/su_max          0.000
_refine_ls_shift/su_mean         0.000
_refine_ls_structure_factor_coef Fsqd
_refine_ls_weighting_details
'w=1/[\s^2^(Fo^2^)+(0.1093P)^2^] where P=(Fo^2^+2Fc^2^)/3'
_refine_ls_weighting_scheme      calc
_refine_ls_wR_factor_gt          0.1636
_refine_ls_wR_factor_ref         0.1760
_reflns_Friedel_coverage         0.000
_reflns_number_gt                1141
_reflns_number_total             1486
_reflns_threshold_expression     'I > 2\s(I)'
_cod_data_source_file            jo9b03438_si_002.cif
_cod_data_source_block           mn-27e3scaled
_cod_database_code               4037921
_shelx_shelxl_version_number     2016/6
_chemical_oxdiff_formula         C8H9N1O3
_shelx_space_group_comment
;
The symmetry employed for this shelxl refinement is uniquely defined
by the following loop, which should always be used as a source of
symmetry information in preference to the above space-group names.
They are only intended as comments.
;
_reflns_odcompleteness_completeness 96.57
_reflns_odcompleteness_iscentric 1
_reflns_odcompleteness_theta     74.33
_olex2_refinement_description
;
1. Fixed Uiso
 At 1.2 times of:
  All C(H) groups, All N(H) groups
 At 1.5 times of:
  All C(H,H,H) groups
2.a Aromatic/amide H refined with riding coordinates:
 N1(H1), C3(H3), C8(H8)
2.b Idealised Me refined as rotating group:
 C2(H2A,H2B,H2C), C7(H7A,H7B,H7C)
;
_shelx_res_file
;
TITL mn-27e3scaled_a.res in P-1
    mn-27e3scaled.res
    created by SHELXL-2016/6 at 10:17:19 on 20-May-2019
REM Old TITL MN-27e3scaled in P-1
REM SHELXT solution in P-1
REM R1 0.145, Rweak 0.009, Alpha 0.046, Orientation as input
REM Formula found by SHELXT: C8 N O3
CELL 1.54184 3.8928 9.3628 10.7006 81.053 83.731 79.026
ZERR 2 0.001 0.0016 0.0014 0.012 0.016 0.018
LATT 1
SFAC C H N O
UNIT 16 18 2 6

L.S. 4
PLAN  20
BOND $H
list 4
fmap 2
acta
OMIT 4 8 3
OMIT 4 7 0
OMIT -4 -7 1
OMIT 4 8 4
OMIT 3 9 5
REM <olex2.extras>
REM <HklSrc "%.\\MN-27e3scaled.hkl">
REM </olex2.extras>

WGHT    0.109300
FVAR       0.87083
O1    4    0.203224    0.598338    0.902154    11.00000    0.03460    0.02853 =
         0.02482   -0.00310    0.00876   -0.01092
O2    4    0.805039    0.635195    0.569639    11.00000    0.04068    0.03064 =
         0.02721   -0.00161    0.01227   -0.01344
O3    4    0.441867    0.185588    0.792879    11.00000    0.04406    0.03025 =
         0.03114   -0.00203    0.01222   -0.01577
N1    3    0.671626    0.366893    0.664769    11.00000    0.03031    0.02605 =
         0.02321   -0.00103    0.00620   -0.01018
AFIX  43
H1    2    0.802581    0.385516    0.596301    11.00000   -1.20000
AFIX   0
C1    1    0.278130    0.730997    0.849900    11.00000    0.02763    0.02858 =
         0.02688   -0.00298   -0.00036   -0.01028
C2    1    0.122129    0.849793    0.927914    11.00000    0.03338    0.03207 =
         0.03251   -0.00721    0.00465   -0.01036
AFIX 137
H2A   2   -0.128748    0.858311    0.936855    11.00000   -1.50000
H2B   2    0.183838    0.941204    0.886838    11.00000   -1.50000
H2C   2    0.210868    0.826342    1.010271    11.00000   -1.50000
AFIX   0
C3    1    0.476259    0.747454    0.738713    11.00000    0.03106    0.02611 =
         0.02714    0.00049    0.00120   -0.01077
AFIX  43
H3    2    0.520515    0.840515    0.704980    11.00000   -1.20000
AFIX   0
C4    1    0.620877    0.626089    0.670830    11.00000    0.02688    0.02761 =
         0.02414    0.00022    0.00089   -0.01011
C5    1    0.532091    0.484333    0.731707    11.00000    0.02770    0.02550 =
         0.02339   -0.00175    0.00046   -0.00910
C6    1    0.620069    0.226123    0.697573    11.00000    0.02991    0.02784 =
         0.02644   -0.00033    0.00023   -0.01030
C7    1    0.794266    0.121831    0.605767    11.00000    0.03807    0.02619 =
         0.03043   -0.00419    0.00735   -0.01136
AFIX 137
H7A   2    0.932454    0.037616    0.650951    11.00000   -1.50000
H7B   2    0.943292    0.170634    0.542585    11.00000   -1.50000
H7C   2    0.617821    0.090926    0.565386    11.00000   -1.50000
AFIX   0
C8    1    0.329721    0.477592    0.842464    11.00000    0.03083    0.02683 =
         0.02648   -0.00195    0.00306   -0.01037
AFIX  43
H8    2    0.274070    0.387391    0.879669    11.00000   -1.20000
AFIX   0
HKLF 4




REM  mn-27e3scaled_a.res in P-1
REM R1 =  0.0649 for    1141 Fo > 4sig(Fo)  and  0.0813 for all    1486 data
REM    111 parameters refined using      0 restraints

END

WGHT      0.1093      0.0000

REM Highest difference peak  0.392,  deepest hole -0.268,  1-sigma level  0.086
Q1    1  -0.0070  0.6262  0.8554  11.00000  0.05    0.39
Q2    1   0.0910  0.5534  0.8400  11.00000  0.05    0.39
Q3    1   0.8661  0.3333  0.7094  11.00000  0.05    0.39
Q4    1   0.4151  0.5385  0.9182  11.00000  0.05    0.35
Q5    1   0.7215  0.1748  0.6449  11.00000  0.05    0.34
Q6    1   0.1692  0.7898  0.8995  11.00000  0.05    0.33
Q7    1   0.7036  0.6748  0.7423  11.00000  0.05    0.32
Q8    1   0.5978  0.6775  0.5342  11.00000  0.05    0.31
Q9    1   0.4652  0.4434  0.6711  11.00000  0.05    0.31
Q10   1   0.9820  0.5546  0.5483  11.00000  0.05    0.29
Q11   1   1.0383  0.5912  0.6187  11.00000  0.05    0.29
Q12   1   0.3309  0.7937  0.9602  11.00000  0.05    0.28
Q13   1   0.3577  0.7219  0.6741  11.00000  0.05    0.26
Q14   1  -0.0730  0.8796  0.8883  11.00000  0.05    0.26
Q15   1   0.5556  0.2191  0.8465  11.00000  0.05    0.25
Q16   1   1.0018  0.1007  0.6580  11.00000  0.05    0.25
Q17   1   0.6617  0.7328  0.7970  11.00000  0.05    0.25
Q18   1   0.2246  0.2267  0.7460  11.00000  0.05    0.24
Q19   1   0.6666  0.1614  0.8380  11.00000  0.05    0.24
Q20   1   0.5472  0.4337  0.8657  11.00000  0.05    0.24
;
_shelx_res_checksum              9132
_shelx_hkl_file
;
   0   0  -1    1.91    0.56
   0   0  -1    1.50    0.45
   0   0  -2  857.41   12.12
   0   0  -2  853.22   11.94
   0   0  -3   19.95    2.35
   0   0  -4  224.36    8.96
   0   0  -4  230.73   10.84
   0   0  -5   84.00    7.64
   0   0  -5   79.15    6.01
   0   0  -6   38.67    4.72
   0   0  -6   34.40    5.94
   0   0  -7   21.24    3.99
   0   0  -7   19.31    4.92
   0   0  -8   50.28    8.31
   0   0  -9    5.62    1.45
   0   0  -9    5.03    1.31
   0   0  -9    4.63    1.40
   0   0 -10   -0.26    0.96
   0   0 -10    1.10    1.08
   0   0 -10    0.97    1.05
   0   0 -11   -0.59    1.19
   0   0 -11    0.03    0.81
   0   0 -11   -0.20    0.93
   0   0  12   29.29    2.66
   0   0 -12   29.73    2.22
   0   0  13   -0.02    0.60
   0   1 -12    7.42    1.16
   0   1 -12    7.12    1.17
   0  -1  12    6.23    1.31
   0   1 -11   84.36    4.02
   0   1 -11   91.05    4.59
   0   1 -11   80.22    3.93
   0   1 -10    6.43    1.47
   0   1 -10    7.71    1.57
   0   1  -9    1.28    1.04
   0   1  -8    8.46    2.88
   0   1  -8   12.65    4.53
   0   1  -7  184.71   12.14
   0   1  -7  190.80   14.93
   0   1  -6  153.24   12.12
   0   1  -6  170.33   10.91
   0   1  -5  439.37   15.52
   0   1  -4  158.87    8.35
   0   1  -3  396.04   11.45
   0   1  -2  913.59   11.34
   0   1  -2  904.57    6.73
   0  -1   2  910.33   13.96
   0  -1   0 1164.85    9.46
   0  -1   0 1164.30    8.44
   0  -1  -1    0.87    0.44
   0  -1  -3  288.53    7.58
   0  -1  -4    8.83    1.87
   0  -1  -4   10.26    2.62
   0  -1  -5   11.12    2.96
   0  -1  -5    9.31    2.13
   0  -1  -6   80.57    6.47
   0  -1  -6   81.62    8.38
   0  -1  -7    2.50    2.25
   0  -1  -8    1.78    2.49
   0  -1  -9   42.44    3.37
   0  -1  -9   48.08    3.51
   0  -1  -9   49.72    3.64
   0  -1  -9   40.98    3.33
   0  -1 -10   37.84    3.20
   0  -1 -10   33.93    3.20
   0  -1 -10   35.27    3.14
   0  -1 -11   35.25    2.96
   0  -1 -11   36.34    3.03
   0  -1 -11   40.51    3.14
   0   1  12   53.32    3.83
   0  -1 -12   55.89    3.14
   0   1  13    2.50    0.81
   0  -1 -13    1.95    0.74
   0   2 -12    0.39    0.49
   0  -2  12    0.37    0.68
   0   2 -11    0.30    0.73
   0   2 -11    0.56    0.92
   0   2 -10   25.18    2.37
   0   2 -10   27.90    2.77
   0   2  -9   16.04    2.03
   0   2  -8   21.42    2.27
   0   2  -7   20.05    5.36
   0   2  -7   21.79    4.62
   0   2  -6   -0.02    1.40
   0   2  -5   49.15    5.84
   0   2  -4  103.38    7.37
   0   2  -3  179.65    6.12
   0  -2   3  180.93    8.94
   0   2  -2  408.70    9.13
   0  -2   2  417.20   11.61
   0  -2   1  365.28    9.86
   0  -2   0  312.49    5.91
   0  -2   0  310.38    8.14
   0  -2  -1  426.22    7.17
   0  -2  -2    1.38    0.66
   0  -2  -3  117.83    6.87
   0  -2  -3   95.58    4.14
   0  -2  -4  666.16   18.49
   0  -2  -5    9.85    2.92
   0  -2  -6    9.43    3.35
   0  -2  -7   10.16    3.66
   0  -2  -8    6.18    2.94
   0  -2  -9   53.02    3.79
   0  -2  -9   50.92    3.82
   0  -2  -9   61.47    4.08
   0  -2 -10   11.41    2.06
   0  -2 -10   10.44    1.92
   0  -2 -11   49.22    3.53
   0   2  12   12.03    1.96
   0  -2 -12   11.52    1.65
   0   2  13   -0.01    0.68
   0  -2 -13    0.43    0.59
   0  -3  11    2.78    0.97
   0   3 -11    1.69    0.86
   0   3 -10    2.29    1.23
   0   3 -10   -0.18    0.74
   0  -3   9    0.35    0.88
   0   3  -9    0.98    0.95
   0   3  -8   99.34    4.74
   0   3  -7   20.67    4.76
   0   3  -6    0.89    1.32
   0   3  -5    0.59    1.36
   0   3  -4    6.78    2.49
   0  -3   3  317.27   12.98
   0  -3   2  281.81   11.29
   0  -3   1  396.77    9.58
   0  -3   1  403.71   12.31
   0  -3   1  406.80   12.99
   0  -3   0  161.68    7.41
   0  -3   0  153.71    5.16
   0  -3   0  166.77    8.17
   0  -3  -1  193.90    6.37
   0  -3  -1  190.81    8.04
   0  -3  -1  210.12    9.29
   0  -3  -2   40.22    4.49
   0  -3  -2   39.58    4.65
   0  -3  -2   32.96    2.47
   0  -3  -2   32.44    3.26
   0  -3  -3    1.64    1.41
   0  -3  -3   -0.20    1.33
   0  -3  -4  439.33   16.44
   0  -3  -5  126.49    9.96
   0  -3  -6   55.92    7.29
   0  -3  -7    0.47    2.01
   0  -3  -9  423.06    9.93
   0  -3  -9  424.24   10.45
   0  -3 -10   47.78    3.77
   0   3  11   34.22    3.42
   0  -3 -11   35.80    3.15
   0  -3 -12    1.57    1.15
   0   3  12    2.80    1.13
   0  -3 -13    3.95    0.86
   0  -3 -13    2.85    0.75
   0   4 -11    6.39    1.00
   0  -4  11    4.56    1.18
   0   4 -10    7.90    1.39
   0  -4  10    6.21    1.21
   0   4  -9   82.12    3.97
   0   4  -8  101.01    4.76
   0   4  -7  179.26    6.46
   0   4  -6   20.80    4.71
   0   4  -5    1.13    1.79
   0   4  -4    8.34    2.76
   0  -4   3  441.05   17.24
   0  -4   2  416.98   16.12
   0  -4   1  550.23   17.92
   0  -4   0  229.76   10.74
   0  -4   0  236.56   11.16
   0  -4  -1    0.73    1.73
   0  -4  -1    1.81    1.94
   0  -4  -2  486.38   17.31
   0  -4  -2  461.99   13.85
   0  -4  -3   -0.09    1.79
   0  -4  -3    0.07    1.41
   0  -4  -4  901.11   26.20
   0  -4  -4  900.27   26.63
   0  -4  -5    0.85    1.86
   0  -4  -5    2.05    2.37
   0  -4  -6   25.83    5.40
   0  -4  -6   27.40    5.84
   0  -4  -7   33.64    6.86
   0  -4  -7   29.50    6.44
   0  -4  -8   13.06    1.98
   0  -4  -8   13.25    2.07
   0  -4  -9  134.77    6.06
   0  -4  -9  129.37    5.68
   0  -4 -10   36.92    3.34
   0   4  10   31.68    3.27
   0  -4 -11    1.30    1.19
   0   4  11    0.68    1.10
   0  -4 -12    3.97    1.11
   0  -4 -12    5.19    1.15
   0  -5  10   12.71    1.42
   0   5 -10   17.15    1.62
   0  -5  10   17.42    1.93
   0   5  -9  174.77    5.65
   0   5  -9  178.42    5.28
   0  -5   9  163.50    5.98
   0  -5   9  180.54    6.84
   0   5  -8   53.21    3.37
   0   5  -7   95.48    4.80
   0  -5   6   15.03    2.14
   0   5  -5   72.05    9.08
   0   5  -4   15.02    4.00
   0  -5   3    4.50    2.83
   0  -5   2    5.02    2.97
   0  -5   1    6.80    3.06
   0  -5   0  141.48   10.08
   0  -5   0  141.26   10.12
   0  -5  -1   -0.10    1.68
   0  -5  -1    1.98    2.31
   0  -5  -2    3.17    2.12
   0  -5  -2    2.53    2.06
   0  -5  -3  101.36    9.37
   0  -5  -4    3.18    2.17
   0  -5  -4    2.22    2.18
   0  -5  -5    0.43    2.26
   0  -5  -5    0.72    2.23
   0  -5  -6   25.05    6.02
   0  -5  -6   22.41    5.54
   0  -5  -7   16.81    2.29
   0  -5  -8   27.20    2.91
   0  -5  -9   29.55    3.01
   0  -5 -10   25.71    2.73
   0  -5 -10   29.21    2.84
   0  -5 -11    5.93    1.40
   0  -5 -11    5.24    1.38
   0  -5 -12    0.38    0.87
   0  -5 -12    0.27    0.64
   0  -5 -12    0.05    0.67
   0  -6  10   -0.13    0.70
   0  -6   9    0.49    0.69
   0   6  -9    0.06    0.47
   0  -6   9    0.25    1.03
   0   6  -8    0.56    0.67
   0  -6   8    1.69    1.60
   0   6  -8    0.47    0.63
   0   6  -7   44.33    3.16
   0  -6   7   48.18    4.18
   0  -6   6    1.49    1.27
   0  -6   6    3.35    1.99
   0  -6   5   70.57    5.02
   0  -6   5   66.75    4.19
   0  -6   5   69.24    4.32
   0  -6   4    2.98    1.49
   0  -6   4    1.31    1.26
   0  -6   4    2.06    2.02
   0   6  -3   41.64    6.16
   0  -6   2   17.93    4.96
   0  -6   1    4.98    3.27
   0  -6   0    3.22    2.74
   0  -6  -1    5.27    3.15
   0  -6  -1    2.02    3.00
   0  -6  -2    8.02    3.68
   0  -6  -3   72.57    9.07
   0  -6  -4   74.91    9.44
   0  -6  -5   12.71    3.95
   0  -6  -6   19.04    2.28
   0  -6  -6   19.61    2.38
   0  -6  -6   20.10    2.45
   0  -6  -7    3.66    1.38
   0  -6  -7    5.28    1.62
   0  -6  -8   54.99    3.97
   0  -6  -8   57.22    3.98
   0  -6  -9    0.26    1.02
   0  -6  -9   -0.69    1.25
   0  -6 -10    3.54    1.48
   0  -6 -10    3.58    1.20
   0  -6 -10    3.14    1.24
   0  -6 -11   -0.34    0.76
   0  -6 -11    0.34    0.73
   0  -7   9   10.10    1.09
   0  -7   9   15.53    1.32
   0  -7   8   13.01    1.63
   0  -7   8   13.75    1.63
   0  -7   7    1.86    1.13
   0   7  -7    2.30    0.81
   0  -7   6    1.41    1.46
   0  -7   5    2.16    1.42
   0  -7   5   -0.64    1.31
   0  -7   5   -0.11    1.29
   0  -7   4   -1.66    1.42
   0  -7   4    1.15    1.31
   0  -7   4    1.24    1.27
   0  -7   3    2.13    1.28
   0  -7   3    2.26    1.59
   0  -7   2    5.95    1.74
   0  -7   2    3.61    1.41
   0  -7  -1  327.50   18.85
   0  -7  -1  358.84   21.23
   0  -7  -2  220.56   16.72
   0  -7  -3   60.31    9.15
   0  -7  -4   37.49    3.14
   0  -7  -4   37.52    3.02
   0  -7  -5    2.28    1.18
   0  -7  -5    4.52    1.40
   0  -7  -6   44.46    3.42
   0  -7  -6   42.56    3.39
   0  -7  -7   18.54    2.31
   0  -7  -7   20.96    2.44
   0  -7  -8    6.89    1.52
   0  -7  -8    6.27    1.56
   0  -7  -9    9.04    1.65
   0  -7  -9    7.64    1.46
   0  -7 -10    0.45    0.90
   0  -7 -10    1.53    0.92
   0  -7 -11    3.40    0.90
   0  -7 -11    2.92    0.75
   0  -8   8    0.71    0.46
   0   8  -7   14.36    1.29
   0   8  -6   14.61    1.66
   0  -8   6   11.34    1.57
   0  -8   6   13.13    1.72
   0  -8   5   22.31    2.34
   0  -8   4    1.93    1.49
   0  -8   4    1.48    1.13
   0  -8   3   48.34    3.77
   0  -8   3   39.16    3.30
   0  -8   3   37.18    3.46
   0  -8   2   15.34    2.42
   0  -8   2   11.14    1.88
   0  -8   2    9.87    2.11
   0  -8   1   15.13    2.28
   0  -8   1   11.23    1.90
   0  -8   0  197.15    7.00
   0  -8   0  195.13    7.03
   0  -8   0  196.39    7.48
   0  -8  -1  211.79    7.33
   0  -8  -1  221.77    7.35
   0  -8  -1  220.15    7.84
   0  -8  -2   71.37    4.50
   0  -8  -2   61.16    3.96
   0  -8  -2   68.27    5.06
   0  -8  -2   65.11    4.11
   0  -8  -3   16.41    2.29
   0  -8  -3   18.53    2.45
   0  -8  -3   16.82    2.07
   0  -8  -3   17.80    2.73
   0  -8  -4  108.85    5.48
   0  -8  -4  101.33    5.13
   0  -8  -4  112.87    6.02
   0  -8  -5    3.46    1.25
   0  -8  -5    2.70    1.38
   0  -8  -6    3.84    1.33
   0  -8  -6    4.09    1.36
   0  -8  -7   27.03    2.81
   0  -8  -7   26.31    2.54
   0  -8  -8    1.17    0.93
   0  -8  -8    0.52    1.05
   0  -8  -9    0.35    0.79
   0  -8  -9    0.52    0.70
   0  -8 -10   -0.40    0.52
   0  -8 -10    1.18    0.73
   0  -9   6    0.67    0.48
   0  -9   5   23.91    2.08
   0  -9   4    2.77    1.04
   0  -9   3    2.28    1.12
   0  -9   3    2.35    1.17
   0  -9   2    1.85    1.20
   0  -9   2    0.71    1.07
   0  -9   1   12.55    2.21
   0  -9   1    9.08    1.96
   0  -9   1    8.01    1.63
   0  -9   0   49.79    4.30
   0  -9   0   50.76    3.87
   0  -9  -1   22.59    2.37
   0  -9  -1   24.75    2.55
   0  -9  -1   25.54    3.32
   0  -9  -1   22.89    2.77
   0  -9  -2    1.33    1.24
   0  -9  -2    0.82    1.31
   0  -9  -2    1.92    1.19
   0  -9  -2    0.63    0.92
   0  -9  -3   10.59    1.88
   0  -9  -3   11.71    1.85
   0  -9  -3   11.19    2.02
   0  -9  -3   12.02    2.37
   0  -9  -4   23.73    2.87
   0  -9  -4   20.06    2.28
   0  -9  -4   18.34    2.51
   0  -9  -4   22.74    2.62
   0  -9  -5    7.25    1.60
   0  -9  -5    8.40    1.60
   0  -9  -5   11.47    2.00
   0  -9  -6    2.66    1.01
   0  -9  -6    2.39    1.22
   0  -9  -6    2.72    1.27
   0  -9  -7    1.35    1.00
   0  -9  -7    0.10    0.87
   0  -9  -7    0.58    0.86
   0  -9  -8    2.12    0.81
   0  -9  -8    2.32    0.99
   0  -9  -9   -0.32    0.58
   0  -9  -9    0.31    0.46
   0 -10   4    0.97    0.62
   0 -10   3   22.78    2.08
   0 -10   3   22.24    1.75
   0 -10   2   12.39    1.53
   0 -10   2   13.06    1.86
   0 -10   2    8.27    1.49
   0 -10   1    1.48    1.08
   0 -10   1    1.25    1.08
   0 -10   1    2.09    1.11
   0 -10   0    2.09    1.22
   0 -10   0    1.26    1.09
   0 -10   0    2.63    1.41
   0 -10  -1    3.67    1.40
   0 -10  -1    4.27    1.37
   0 -10  -1    4.78    1.65
   0 -10  -2   25.86    2.61
   0 -10  -2   23.34    2.73
   0 -10  -2   20.99    2.13
   0 -10  -2   20.14    2.05
   0 -10  -3    1.83    1.00
   0 -10  -3    3.39    0.97
   0 -10  -3    3.07    1.07
   0 -10  -3    2.82    1.25
   0 -10  -4    0.59    0.86
   0 -10  -4    0.04    0.74
   0 -10  -4    1.23    1.27
   0 -10  -5    0.43    0.93
   0 -10  -5    0.40    0.63
   0 -10  -5    0.80    0.83
   0 -10  -6    3.44    1.02
   0 -10  -6    4.05    1.09
   0 -10  -6    2.88    0.80
   0 -10  -7    2.16    0.73
   0 -10  -7    1.02    0.71
   0 -10  -7    0.99    0.58
   0 -11   1   38.77    2.18
   0 -11   1   43.41    2.08
   0 -11   0    3.74    0.86
   0 -11   0    3.41    0.78
   0 -11  -1    6.10    0.92
   0 -11  -1    6.17    1.07
   0 -11  -2    1.52    0.79
   0 -11  -3    7.38    1.20
   0 -11  -4    2.40    0.83
   1 -10  -5    1.90    0.81
   1 -10  -5    0.88    0.61
   1 -10  -4    3.84    0.98
   1 -10  -4    3.66    0.86
   1 -10  -3   -0.17    0.69
   1 -10  -3    0.17    0.75
   1 -10  -3    0.80    0.62
   1 -10  -2    0.06    0.74
   1 -10  -2   -0.35    0.75
   1 -10  -1    2.57    1.06
   1 -10  -1    3.50    1.03
   1 -10   0   10.86    1.65
   1 -10   0   12.47    1.43
   1 -10   1    0.39    0.75
   1 -10   2    1.11    0.75
   1 -10   3    3.23    0.76
   1  -9  -8   -0.09    0.41
   1  -9  -7   -0.14    0.67
   1  -9  -7   -0.38    0.58
   1  -9  -6    0.55    0.71
   1  -9  -6    0.65    0.88
   1  -9  -5    1.85    1.11
   1  -9  -5    0.93    0.76
   1  -9  -4    3.18    1.22
   1  -9  -4    3.46    1.05
   1  -9  -3    5.34    1.48
   1  -9  -3    4.93    1.42
   1  -9  -3    6.98    1.52
   1  -9  -2   11.17    1.75
   1  -9  -2   11.33    2.12
   1  -9  -2    9.95    1.87
   1  -9  -1   13.12    1.93
   1  -9  -1   10.71    1.76
   1  -9   0    3.14    1.22
   1  -9   1   18.16    2.08
   1  -9   1   20.30    2.11
   1  -9   2   11.24    1.74
   1  -9   2   12.16    2.09
   1  -9   3    5.39    1.38
   1  -9   3    5.86    1.37
   1  -9   4    0.31    0.87
  -1   9  -5    2.08    0.74
   1  -8  -9    0.72    0.59
   1  -8  -9    1.20    0.68
   1  -8  -8   -0.08    0.64
   1  -8  -8    0.66    0.69
   1  -8  -7    1.54    0.86
   1  -8  -7    1.91    1.06
   1  -8  -6    2.46    1.08
   1  -8  -6    1.22    0.97
   1  -8  -5   19.13    2.19
   1  -8  -5   19.85    2.40
   1  -8  -4    4.08    1.38
   1  -8  -3    0.21    0.96
   1  -8  -3    2.50    1.42
   1  -8  -2   87.66    4.93
   1  -8  -2   84.09    4.88
   1  -8  -1   12.29    1.97
   1  -8  -1   13.09    2.12
   1  -8   0   56.02    3.88
   1  -8   0   55.54    3.73
   1  -8   0   55.09    3.84
   1  -8   1   92.54    4.79
   1  -8   1   90.93    4.84
   1  -8   2  112.01    5.30
   1  -8   2  113.67    5.07
   1  -8   3    3.91    1.49
   1  -8   4    3.02    1.36
   1  -8   5   22.46    2.29
  -1   8  -6    1.41    0.80
  -1   8  -7   18.56    1.46
   1  -7 -10    1.18    0.66
   1  -7 -10    0.63    0.61
   1  -7  -9    1.95    0.93
   1  -7  -9    2.04    0.79
   1  -7  -8    1.03    0.82
   1  -7  -8    0.72    0.85
   1  -7  -7    8.28    1.43
   1  -7  -7    6.61    1.63
   1  -7  -6    4.96    1.61
   1  -7  -6    6.88    1.42
   1  -7  -5   27.90    2.93
   1  -7  -4   37.14    3.33
   1  -7  -3    5.13    1.45
   1  -7  -3    4.15    1.41
   1  -7  -2   22.82    2.56
   1  -7  -2   24.02    2.59
   1  -7  -1   71.25    4.38
   1  -7  -1   73.44    4.32
   1  -7   0  196.20    6.92
   1  -7   0  210.02    7.21
   1  -7   0  208.77    7.22
   1  -7   1  217.47    7.41
   1  -7   1  227.19    7.49
   1  -7   1  228.86    7.58
   1  -7   2   39.77    3.31
   1  -7   3    4.02    1.74
   1  -7   4    4.28    1.65
   1  -7   5    0.95    1.34
   1  -7   6    0.05    1.12
  -1   7  -7    0.66    0.78
  -1   7  -8    0.92    0.67
   1  -6 -11   28.96    1.79
   1  -6 -10    6.02    1.17
   1  -6 -10    7.61    1.16
   1  -6  -9    0.52    0.86
   1  -6  -9    0.34    0.87
   1  -6  -8    4.14    1.25
   1  -6  -8    3.97    1.40
   1  -6  -7    2.93    1.34
   1  -6  -7    2.05    1.19
   1  -6  -6   94.09    5.12
   1  -6  -6  100.47    4.99
   1  -6  -5    9.96    1.90
   1  -6  -5    9.41    1.71
   1  -6  -4   14.00    2.03
   1  -6  -4   14.37    1.98
   1  -6  -3   14.90    5.22
   1  -6  -2   62.50    8.58
   1  -6  -1   31.23    6.26
   1  -6   0    3.16    2.67
   1  -6   1   16.83    5.11
   1  -6   2    8.17    1.64
   1  -6   2    8.60    1.63
   1  -6   3    6.65    1.75
   1  -6   4    6.28    1.82
   1  -6   5   12.20    2.17
   1  -6   6    1.93    1.42
  -1   6  -7   20.81    2.37
   1  -6   7   17.47    2.23
   1  -6   7   21.99    2.57
   1  -6   8    2.26    1.29
  -1   6  -8   -0.43    0.78
  -1   6  -9   17.91    1.56
   1  -6   9   12.88    1.47
   1  -5 -11   15.93    1.63
   1  -5 -11   16.37    1.55
   1  -5 -10    0.81    0.85
   1  -5 -10    0.29    0.93
   1  -5 -10    0.75    0.83
   1  -5  -9   11.15    1.84
   1  -5  -8   45.28    3.56
   1  -5  -7   32.91    3.04
   1  -5  -6    6.69    1.52
   1  -5  -5   10.48    4.42
   1  -5  -4   13.56    4.78
   1  -5  -3    2.95    2.88
   1  -5  -2    2.89    2.02
   1  -5  -1   71.26    6.99
   1  -5  -1   63.90    7.47
   1  -5   0   21.42    5.01
   1  -5   1    0.84    2.04
   1  -5   2   40.10    6.79
   1  -5   3    2.75    3.03
   1  -5   4    5.07    3.95
   1  -5   5    2.34    1.52
   1  -5   6    6.09    1.72
  -1   5  -7   36.04    3.26
   1  -5   7   31.90    2.99
  -1   5  -8   10.05    1.72
  -1   5  -9   37.74    2.62
  -1   5 -10   12.05    1.28
   1  -5  10   11.31    1.58
  -1   5 -10   11.25    1.22
   1  -4 -12    2.45    0.69
   1  -4 -12    2.74    0.67
  -1   4  11   31.56    2.47
   1  -4 -11   33.75    2.50
   1  -4 -11   28.82    2.31
  -1   4  10    5.76    1.44
   1  -4 -10    5.65    1.50
  -1   4   9    2.41    1.22
   1  -4  -9    6.33    1.68
   1  -4  -8   83.26    4.37
  -1   4   8   77.08    4.56
   1  -4  -6   26.98    6.06
   1  -4  -5   28.16    5.87
   1  -4  -4   32.17    5.85
   1  -4  -3   -0.50    1.43
   1  -4  -2  750.24   19.90
   1  -4  -1    7.26    2.24
   1  -4   0  122.20    8.77
   1  -4   0  135.06    8.92
   1  -4   1    7.57    2.56
   1  -4   2   72.54    8.15
   1  -4   3  189.66   13.16
   1  -4   4  117.58   10.46
   1  -4   5   76.15    8.99
   1  -4   6    5.47    1.60
  -1   4  -7    2.47    1.26
  -1   4  -8    2.31    1.14
  -1   4  -9  106.11    4.77
  -1   4 -10   42.96    2.68
  -1   4 -11   41.40    2.17
  -1   4 -11   43.38    2.12
   1  -4  11   42.31    2.50
  -1   3  12   25.13    2.03
   1  -3 -12   21.71    1.74
   1  -3 -12   23.65    1.80
  -1   3  11   11.59    1.78
   1  -3 -11    9.54    1.67
  -1   3  10    5.84    1.54
   1  -3 -10    4.94    1.52
   1  -3  -9   60.67    3.95
  -1   3   9   58.89    4.28
  -1   3   8   41.27    3.59
   1  -3  -8   46.51    3.37
   1  -3  -7  574.76   27.97
   1  -3  -6   55.34    8.22
   1  -3  -5    2.77    2.13
   1  -3  -4   68.24    5.87
   1  -3  -4   69.42    7.69
   1  -3  -3  124.75    9.38
   1  -3  -3  133.30    7.76
   1  -3  -2  636.54   16.27
   1  -3  -1    2.96    1.52
   1  -3   0   63.75    5.59
   1  -3   1   69.63    6.21
   1  -3   1   63.94    5.15
   1  -3   2   48.13    5.46
  -1   3  -3  149.13   11.80
   1  -3   3  129.77    9.95
  -1   3  -4  108.70    8.91
   1  -3   4  106.84    8.89
   1  -3   5   78.88    7.93
  -1   3  -6    0.62    1.79
  -1   3  -7    1.68    1.09
  -1   3  -8    3.81    1.21
  -1   3  -9    1.79    1.03
  -1   3 -10   50.64    3.19
  -1   3 -11    0.48    0.69
  -1   3 -11    0.82    0.63
  -1   2  12    0.29    0.80
   1  -2 -12   -0.49    0.75
  -1   2  11    0.26    1.09
   1  -2 -11    0.80    0.97
   1  -2 -10   12.74    2.07
  -1   2  10   11.76    2.33
   1  -2  -9  117.21    5.53
  -1   2   9  124.96    6.62
  -1   2   8   32.40    3.33
   1  -2  -8   34.58    2.94
   1  -2  -7  170.62   14.60
   1  -2  -6   14.04    3.41
   1  -2  -6   14.46    4.21
   1  -2  -5   54.40    7.08
   1  -2  -5   58.98    6.04
   1  -2  -4    8.40    2.42
   1  -2  -4   10.29    3.24
   1  -2  -3    1.99    1.37
   1  -2  -3    2.80    1.64
   1  -2  -2  539.00   15.77
   1  -2  -2  555.51   13.90
   1  -2  -1   69.36    4.99
   1  -2   0    1.56    1.31
   1  -2   1  364.64   12.23
   1  -2   2  147.13    8.62
  -1   2  -3    9.43    2.90
   1  -2   4   44.89    5.24
  -1   2  -4   46.12    5.56
  -1   2  -5   55.65    6.49
   1  -2   5   34.51    4.84
  -1   2  -6   27.12    5.03
  -1   2  -7   10.15    3.74
  -1   2  -8    1.54    1.10
  -1   2  -9    0.03    0.95
  -1   2 -10   14.67    1.94
  -1   2 -11    4.68    1.15
  -1   2 -11    4.81    1.19
  -1   2 -12   10.55    1.31
  -1   2 -12    7.69    1.07
  -1   1  12    0.53    0.80
   1  -1 -12    0.60    0.79
   1  -1 -11    2.77    1.16
  -1   1  11    4.09    1.55
   1  -1 -10  102.72    5.02
  -1   1  10  108.59    6.36
  -1   1   9   63.05    5.03
  -1   1   8   29.91    3.32
   1  -1  -8   29.40    2.85
   1  -1  -7   65.44    8.07
   1  -1  -7   59.43    8.33
   1  -1  -6    9.81    3.34
   1  -1  -5    5.89    2.56
   1  -1  -4   80.33    7.06
   1  -1  -4   79.63    6.72
   1  -1  -3   13.38    2.78
   1  -1  -3   14.28    2.72
   1  -1  -2   43.82    3.93
   1  -1  -2   40.94    3.97
   1  -1  -1  331.92    9.84
   1  -1  -1  324.35    9.75
  -1   1   0   31.21    2.78
  -1   1  -1    4.33    1.14
   1  -1   1    4.75    1.58
   1  -1   2  190.53    8.54
  -1   1  -3    0.55    1.82
  -1   1  -4   80.80    7.13
  -1   1  -5   86.03    7.96
  -1   1  -6   26.12    4.55
  -1   1  -7  124.64   12.31
  -1   1  -8   62.94    3.91
  -1   1  -9   44.20    3.47
  -1   1 -10    0.52    0.97
  -1   1 -11   -0.18    0.97
  -1   1 -11    0.58    0.71
  -1   1 -12    5.32    1.10
  -1   1 -12    4.46    0.94
  -1   0  12    0.03    0.68
   1   0 -12    0.49    0.70
  -1   0  11   -0.10    1.01
   1   0 -11    0.59    1.06
  -1   0  10   62.76    4.59
  -1   0   9    8.34    2.06
   1   0  -9    8.55    1.75
   1   0  -8    4.54    1.33
   1   0  -7   10.86    3.95
   1   0  -6   49.47    6.86
   1   0  -5   25.82    4.57
   1   0  -4  149.89    9.22
   1   0  -3   36.33    4.05
   1   0  -2  313.03    9.06
   1   0  -1   65.49    3.36
  -1   0   0  685.50   14.66
  -1   0  -1    6.77    1.56
   1   0   1    8.98    1.82
   1   0   2 9999.00   53.06
  -1   0  -3   10.74    2.81
  -1   0  -4  225.76   11.77
  -1   0  -5    0.90    1.27
  -1   0  -5    1.25    1.70
  -1   0  -5    0.39    1.42
  -1   0  -6   77.24    8.34
  -1   0  -7   78.61    9.66
  -1   0  -8    2.36    2.62
  -1   0  -9   11.19    1.71
  -1   0  -9    9.73    1.80
  -1   0 -10   17.00    2.00
  -1   0 -10   19.58    2.39
  -1   0 -11    1.01    1.05
  -1   0 -11    0.01    0.73
  -1   0 -12    0.81    0.87
  -1   0 -12    0.78    0.59
   1   0  13    0.97    0.66
   1   1 -12    2.01    0.78
  -1  -1  12    1.48    0.65
  -1  -1  11   28.54    2.45
   1   1 -11   32.65    2.58
  -1  -1  10   18.47    2.42
   1   1 -10   20.96    2.44
   1   1  -9  139.35    6.24
  -1  -1   9  151.77    6.20
  -1  -1   9  138.53    6.70
  -1  -1   8    7.95    1.54
   1   1  -8    6.10    1.57
   1   1  -7    4.92    2.98
   1   1  -7    3.44    2.54
   1   1  -6   64.58    7.26
   1   1  -6   57.15    7.31
   1   1  -5  438.51   17.77
   1   1  -5  452.38   17.09
   1   1  -4  271.03   12.21
   1   1  -4  278.11   12.16
   1   1  -3  880.76   18.70
   1   1  -3  862.64   19.07
   1   1  -2  340.83    9.48
   1   1  -2  336.87   10.49
   1   1  -1  457.62    7.61
   1   1  -1  456.50   10.61
   1   1   0 1533.71   17.85
  -1  -1   0 1524.42   24.31
  -1  -1  -1    0.76    1.20
  -1  -1  -1    2.17    0.51
   1   1   1    3.06    1.15
  -1  -1  -2 1247.34   15.67
  -1  -1  -2 1250.22   20.10
   1   1   2 1258.49   15.98
  -1  -1  -3   16.11    2.42
  -1  -1  -3   16.16    3.15
  -1  -1  -4   41.50    4.54
  -1  -1  -4   43.86    5.50
  -1  -1  -4   42.17    3.25
  -1  -1  -5  122.94    9.01
  -1  -1  -5  134.55    9.32
  -1  -1  -6    3.99    2.23
  -1  -1  -6    3.58    2.16
  -1  -1  -7    7.30    3.30
  -1  -1  -8   27.47    6.02
  -1  -1  -9    2.39    1.37
  -1  -1  -9    2.97    1.37
  -1  -1 -10    0.12    1.06
  -1  -1 -10    0.38    1.18
  -1  -1 -11   23.19    2.32
  -1  -1 -11   25.04    2.63
  -1  -1 -12   29.35    2.46
   1   1  13   11.62    1.45
   1   2 -12    9.01    1.04
   1   2 -11    8.53    1.40
  -1  -2  11    6.94    1.19
  -1  -2  10    0.89    1.05
  -1  -2  10    1.31    0.98
   1   2 -10    1.52    0.99
  -1  -2   9    1.89    1.22
  -1  -2   9    1.02    1.14
   1   2  -9    1.20    1.11
  -1  -2   8   66.33    4.75
   1   2  -8   62.14    4.32
  -1  -2   8   70.99    4.63
   1   2  -7   35.22    6.07
   1   2  -7   35.59    6.67
   1   2  -6   22.06    4.80
   1   2  -6   21.59    4.36
   1   2  -5  173.42   11.48
   1   2  -5  177.42   11.19
   1   2  -4    0.69    1.36
   1   2  -3   68.61    5.69
   1   2  -2  128.35    6.88
   1   2  -1  226.78    7.76
  -1  -2   1  224.56    5.43
   1   2   0  399.42    8.51
  -1  -2   0  389.04    9.45
  -1  -2  -1  424.10   12.03
   1   2   1  436.57    7.89
  -1  -2  -2  116.82    5.28
  -1  -2  -2  116.75    7.25
  -1  -2  -2  112.09    6.85
   1   2   2  106.06    3.64
  -1  -2  -3  155.12    9.00
  -1  -2  -3  150.47    7.32
  -1  -2  -4   27.65    3.28
  -1  -2  -4   29.39    4.24
  -1  -2  -4   29.14    4.05
  -1  -2  -5   49.22    5.67
  -1  -2  -5   51.62    6.16
  -1  -2  -6  156.32   11.19
  -1  -2  -6  161.12   11.45
  -1  -2  -7    7.65    3.01
  -1  -2  -8    5.46    2.95
  -1  -2  -9    2.01    1.34
  -1  -2  -9    1.48    1.38
  -1  -2  -9    1.90    1.36
  -1  -2 -10    5.35    1.68
  -1  -2 -10    6.39    1.76
  -1  -2 -10    3.23    1.38
  -1  -2 -11    9.36    1.81
  -1  -2 -11   10.26    1.81
  -1  -2 -11    9.84    1.94
  -1  -2 -12    1.57    1.02
   1   2  13   14.65    1.76
   1   3 -11   20.83    1.75
  -1  -3  10   58.86    3.49
   1   3 -10   52.05    3.42
  -1  -3   9    2.88    1.18
   1   3  -9    4.88    1.39
  -1  -3   9    4.99    1.73
   1   3  -8    5.66    1.55
  -1  -3   8    9.42    2.59
  -1  -3   8    3.98    1.60
  -1  -3   7   12.92    2.25
   1   3  -7   12.20    1.96
   1   3  -6  146.60   11.53
   1   3  -6  141.38   12.10
   1   3  -5   62.59    7.08
   1   3  -4   -0.17    1.20
   1   3  -3    0.07    1.18
   1   3  -2   52.56    4.92
  -1  -3   1  456.60   11.28
   1   3  -1  451.36   12.56
  -1  -3   1  448.45   16.29
   1   3   0  140.94    5.87
  -1  -3   0  158.59    9.15
  -1  -3   0  142.23    7.27
  -1  -3   0  159.12    8.58
   1   3   1  104.51    4.36
  -1  -3  -1  113.77    7.20
   1   3   1  113.01    3.80
  -1  -3  -1  128.70    8.04
  -1  -3  -1  127.86    7.69
  -1  -3  -2   88.63    5.82
  -1  -3  -2   99.61    6.73
  -1  -3  -2   91.48    7.00
  -1  -3  -2   93.47    6.84
  -1  -3  -3  109.45    7.07
  -1  -3  -3  101.75    7.50
  -1  -3  -3  118.80    7.42
  -1  -3  -3  122.07    8.64
  -1  -3  -4   37.77    4.64
  -1  -3  -4   33.67    5.03
  -1  -3  -4   39.23    4.45
  -1  -3  -4   33.06    4.23
  -1  -3  -5    1.23    1.64
  -1  -3  -5    2.75    2.01
  -1  -3  -5    2.10    2.30
  -1  -3  -6   72.27    8.00
  -1  -3  -6   74.54    8.54
  -1  -3  -7   51.82    7.36
  -1  -3  -8   33.14    2.70
  -1  -3  -8   29.97    6.59
  -1  -3  -8   26.66    2.78
  -1  -3  -9    0.29    1.13
  -1  -3  -9    1.04    1.28
  -1  -3  -9    0.90    1.29
  -1  -3 -10   34.86    3.16
  -1  -3 -10   41.61    3.47
  -1  -3 -10   39.48    3.61
  -1  -3 -11  201.48    6.68
  -1  -3 -11  191.94    6.64
  -1  -3 -12   27.08    2.18
  -1  -3 -13   12.12    1.19
   1   4 -11    1.22    0.68
  -1  -4  10   16.48    1.88
  -1  -4  10   29.20    2.27
  -1  -4   9   20.45    2.36
  -1  -4   9   17.08    2.37
   1   4  -9   21.44    2.30
  -1  -4   8   23.75    2.77
  -1  -4   8   24.09    3.19
   1   4  -8   24.20    2.69
  -1  -4   7  159.56    7.13
  -1  -4   7  164.96    6.96
   1   4  -7  161.58    6.74
  -1  -4   6  212.20    7.95
   1   4  -5  204.58   13.57
   1   4  -4   67.70    7.35
   1   4  -3    3.66    1.83
  -1  -4   3    6.48    3.30
  -1  -4   2   43.40    6.01
   1   4  -2   39.54    5.00
   1   4  -1 1285.40   25.37
  -1  -4   1 1240.50   28.32
  -1  -4   1 1259.42   29.61
  -1  -4   0  430.47   13.72
  -1  -4   0  423.66   15.54
  -1  -4   0  439.01   16.23
   1   4   0  414.89   12.46
  -1  -4  -1  542.54   17.18
  -1  -4  -1  556.44   17.48
  -1  -4  -1  541.36   17.14
  -1  -4  -2  147.73    9.87
  -1  -4  -2  146.05    9.35
  -1  -4  -2  160.84    9.51
  -1  -4  -3    1.02    1.52
  -1  -4  -3   -0.55    1.84
  -1  -4  -3    1.22    2.03
  -1  -4  -3    0.22    2.45
  -1  -4  -4  362.77   15.10
  -1  -4  -4  339.48   15.78
  -1  -4  -4  383.49   17.89
  -1  -4  -4  380.49   14.76
  -1  -4  -5    5.76    2.55
  -1  -4  -5    4.26    2.31
  -1  -4  -6  461.89   21.21
  -1  -4  -7    2.81    2.86
  -1  -4  -8    9.27    1.79
  -1  -4  -8    6.45    1.48
  -1  -4  -8    9.90    1.89
  -1  -4  -9   32.13    2.98
  -1  -4  -9   39.79    3.54
  -1  -4  -9   32.28    3.14
  -1  -4 -10    1.08    1.18
  -1  -4 -10    2.53    1.57
  -1  -4 -11  101.15    4.66
  -1  -4 -11   92.87    4.70
  -1  -4 -12    7.47    1.37
  -1  -4 -12    8.03    1.37
  -1  -5  10   -0.20    0.51
  -1  -5  10   -1.59    1.06
  -1  -5   9   -0.06    1.16
   1   5  -9    0.05    0.54
  -1  -5   9    0.29    0.74
  -1  -5   8   55.97    3.67
   1   5  -8   52.89    3.19
  -1  -5   8   56.66    4.09
  -1  -5   7  483.51   11.79
  -1  -5   7  485.92   11.05
  -1  -5   6  189.61    7.61
  -1  -5   5  202.54    7.81
   1   5  -4    9.68    3.23
   1   5  -3  155.56   12.11
  -1  -5   2   59.70    7.27
   1   5  -2   61.35    7.37
  -1  -5   1    3.26    2.38
   1   5  -1    0.40    1.71
  -1  -5   1    2.01    2.73
  -1  -5   0    5.37    2.38
  -1  -5   0    5.13    3.22
  -1  -5  -1   -0.10    1.77
  -1  -5  -1    1.79    2.81
  -1  -5  -2  196.04   12.04
  -1  -5  -3    4.07    2.89
  -1  -5  -3    5.15    3.04
  -1  -5  -4    3.40    2.29
  -1  -5  -4    4.88    2.84
  -1  -5  -5   43.49    6.35
  -1  -5  -5   46.82    7.07
  -1  -5  -6    0.80    1.83
  -1  -5  -7   -0.18    2.33
  -1  -5  -7    0.73    1.20
  -1  -5  -8   16.70    2.26
  -1  -5  -8   16.10    2.27
  -1  -5  -8   16.95    2.17
  -1  -5  -8   18.00    2.51
  -1  -5  -9   14.80    2.22
  -1  -5  -9   11.87    2.16
  -1  -5  -9   10.34    1.94
  -1  -5 -10   41.35    3.28
  -1  -5 -10   39.33    3.36
  -1  -5 -10   41.09    3.51
  -1  -5 -11   23.28    2.23
  -1  -5 -11   24.84    2.55
  -1  -5 -11   21.66    2.37
  -1  -5 -12   13.89    1.60
  -1  -6   9    1.61    0.96
  -1  -6   9    2.99    0.82
  -1  -6   8    0.00    1.42
  -1  -6   8    3.84    1.03
  -1  -6   7    4.26    1.54
  -1  -6   7    6.53    1.54
  -1  -6   6    0.33    1.52
  -1  -6   5  101.52    5.71
  -1  -6   4    2.33    1.28
  -1  -6   4    0.69    1.41
   1   6  -3  118.76   11.87
  -1  -6   1  103.17   10.70
  -1  -6   0   28.49    5.94
  -1  -6  -1    0.83    2.53
  -1  -6  -2   -0.09    2.76
  -1  -6  -3    2.95    3.68
  -1  -6  -4    9.27    3.69
  -1  -6  -4    8.89    4.19
  -1  -6  -5   91.23   11.04
  -1  -6  -6   30.34    6.96
  -1  -6  -6   35.31    3.13
  -1  -6  -6   32.63    3.12
  -1  -6  -6   32.78    3.05
  -1  -6  -7    7.14    1.89
  -1  -6  -7    3.54    1.38
  -1  -6  -7    4.54    1.57
  -1  -6  -7    8.12    1.96
  -1  -6  -8    6.97    1.65
  -1  -6  -8    7.50    2.09
  -1  -6  -8   10.29    2.04
  -1  -6  -8   11.62    2.12
  -1  -6  -9    1.65    1.49
  -1  -6  -9    0.30    1.20
  -1  -6  -9    1.20    1.17
  -1  -6 -10   20.48    2.19
  -1  -6 -10   19.37    2.38
  -1  -6 -11   -0.07    0.84
  -1  -6 -12    2.05    0.76
  -1  -7   9   13.92    1.14
  -1  -7   8    0.04    0.57
  -1  -7   7   31.75    2.72
  -1  -7   7   34.64    2.63
  -1  -7   6   41.08    3.48
  -1  -7   6   45.99    3.42
  -1  -7   5    2.55    1.16
  -1  -7   5   -0.71    1.81
  -1  -7   4    3.97    1.45
  -1  -7   4    2.36    1.37
  -1  -7   4    1.63    1.44
  -1  -7   3    6.45    1.51
  -1  -7   3    2.02    1.47
  -1  -7   2   12.49    2.23
  -1  -7   2    5.44    1.80
  -1  -7   2   10.84    1.90
  -1  -7   1    3.86    1.35
  -1  -7   1    5.59    3.62
  -1  -7   0    2.38    2.84
  -1  -7  -1   10.55    5.62
  -1  -7  -2   44.34    7.64
  -1  -7  -3  319.49   19.97
  -1  -7  -4  167.43    7.01
  -1  -7  -4  171.09    6.57
  -1  -7  -4  167.23    6.57
  -1  -7  -4  176.73    7.09
  -1  -7  -5   30.47    3.21
  -1  -7  -5   29.74    3.01
  -1  -7  -5   29.67    2.84
  -1  -7  -5   29.41    3.03
  -1  -7  -6   35.33    3.19
  -1  -7  -6   35.69    3.50
  -1  -7  -6   32.64    3.13
  -1  -7  -6   37.14    3.42
  -1  -7  -7    3.76    1.69
  -1  -7  -7    2.50    1.42
  -1  -7  -7    3.25    1.40
  -1  -7  -7    2.36    1.47
  -1  -7  -8   52.72    4.04
  -1  -7  -8   47.56    3.79
  -1  -7  -8   49.46    3.80
  -1  -7  -8   48.25    3.58
  -1  -7  -9    9.29    1.77
  -1  -7  -9    6.90    1.60
  -1  -7 -10    6.85    1.44
  -1  -7 -10    5.92    1.31
  -1  -7 -11    4.59    1.02
  -1  -8   7    2.47    0.79
  -1  -8   6    0.56    0.75
  -1  -8   5   33.90    2.80
  -1  -8   5   33.94    2.78
  -1  -8   4   29.73    3.05
  -1  -8   4   34.55    3.06
  -1  -8   3   32.49    3.08
  -1  -8   3   31.44    3.40
  -1  -8   2    1.11    1.15
  -1  -8   2    1.36    1.27
  -1  -8   2    2.11    1.27
  -1  -8   1   62.84    4.30
  -1  -8   1   62.45    4.65
  -1  -8   1   62.57    5.06
  -1  -8   0   17.12    2.49
  -1  -8   0   17.09    2.60
  -1  -8   0   16.49    2.65
  -1  -8   0   12.44    2.11
  -1  -8  -1   37.74    3.36
  -1  -8  -1   35.87    3.62
  -1  -8  -1   37.58    3.42
  -1  -8  -1   35.88    3.68
  -1  -8  -1   37.10    3.36
  -1  -8  -2  216.94    7.71
  -1  -8  -2  216.32    7.31
  -1  -8  -2  212.70    8.59
  -1  -8  -2  217.21    8.19
  -1  -8  -2  217.15    7.94
  -1  -8  -3  295.99    8.82
  -1  -8  -3  302.34    8.73
  -1  -8  -3  303.19   10.03
  -1  -8  -3  312.98    9.37
  -1  -8  -4   46.98    3.51
  -1  -8  -4   49.99    3.83
  -1  -8  -5   17.60    2.47
  -1  -8  -6   72.37    4.58
  -1  -8  -7    3.59    1.45
  -1  -8  -8    7.55    1.78
  -1  -8  -9   21.93    2.32
  -1  -8 -10    1.64    0.79
  -1  -9   6    1.03    0.47
  -1  -9   5    2.00    0.76
  -1  -9   5    1.19    0.64
  -1  -9   4    6.59    1.29
  -1  -9   3   54.76    3.84
  -1  -9   3   65.41    3.95
  -1  -9   2    6.86    1.76
  -1  -9   2    4.73    1.49
  -1  -9   1    0.12    1.15
  -1  -9   1    1.77    1.30
  -1  -9   1    3.85    1.45
  -1  -9   0    1.86    1.30
  -1  -9   0    3.36    1.49
  -1  -9   0    2.88    1.55
  -1  -9  -1   12.17    2.20
  -1  -9  -1   12.46    2.34
  -1  -9  -1   12.11    2.27
  -1  -9  -1   12.25    2.22
  -1  -9  -2   90.27    4.97
  -1  -9  -2  107.48    6.37
  -1  -9  -2  102.75    5.82
  -1  -9  -2  102.57    5.11
  -1  -9  -2  101.05    5.41
  -1  -9  -3   11.85    2.00
  -1  -9  -3   14.21    2.37
  -1  -9  -3   12.33    2.13
  -1  -9  -4   -0.23    0.97
  -1  -9  -4    0.15    1.11
  -1  -9  -4    1.11    1.29
  -1  -9  -5    8.84    1.88
  -1  -9  -5   12.22    2.07
  -1  -9  -6   27.28    2.76
  -1  -9  -6   25.30    2.73
  -1  -9  -7    0.60    1.28
  -1  -9  -7    2.95    1.35
  -1  -9  -8   -1.77    1.26
  -1  -9  -8    0.94    0.92
  -1  -9  -9   -1.88    1.02
  -1  -9  -9   -1.13    0.80
  -1 -10   4    3.38    0.77
  -1 -10   3    0.97    0.74
  -1 -10   2    2.06    1.00
  -1 -10   2    1.89    0.91
  -1 -10   1   43.63    3.08
  -1 -10   1   44.62    3.43
  -1 -10   0   12.74    1.92
  -1 -10   0   13.80    2.08
  -1 -10  -1    0.50    0.96
  -1 -10  -1   -1.07    1.05
  -1 -10  -2    0.37    1.05
  -1 -10  -2   -1.48    1.05
  -1 -10  -3    7.09    1.47
  -1 -10  -3    6.97    1.59
  -1 -10  -4   22.57    2.27
  -1 -10  -4   25.80    2.55
  -1 -10  -4   22.42    2.51
  -1 -10  -5    0.43    0.76
  -1 -10  -5    2.50    1.14
  -1 -10  -6    1.91    1.10
  -1 -10  -6    0.50    0.89
  -1 -10  -7    3.65    1.14
  -1 -10  -7    0.75    0.81
  -1 -10  -8    3.26    0.94
  -1 -10  -8    3.24    0.85
  -1 -11   2    0.16    0.43
  -1 -11   1    0.31    0.56
  -1 -11   1    0.64    0.65
  -1 -11   1    0.60    0.60
  -1 -11   0    9.06    1.27
  -1 -11   0   10.60    1.31
  -1 -11  -1   42.82    2.47
  -1 -11  -1   46.50    2.62
  -1 -11  -2    5.21    1.09
  -1 -11  -2    5.17    0.94
  -1 -11  -3    5.61    1.05
  -1 -11  -3    4.81    1.14
  -1 -11  -4    0.34    0.60
   2  -9  -2    1.93    0.80
   2  -9  -1    3.47    0.99
   2  -9   1    5.95    0.93
   2  -9   2    0.61    0.59
   2  -8  -6    0.92    0.54
   2  -8  -6    0.98    0.60
   2  -8  -5    2.39    0.87
   2  -8  -5    3.19    0.86
   2  -8  -4    0.36    0.81
   2  -8  -4    0.02    0.80
   2  -8  -4   -0.57    0.63
   2  -8  -4    0.59    0.75
   2  -8  -3   10.11    1.57
   2  -8  -3    8.12    1.42
   2  -8  -3    9.55    1.48
   2  -8  -2    3.84    1.08
   2  -8  -2    4.40    1.30
   2  -8  -2    4.82    1.17
   2  -8   0   40.49    2.73
   2  -8   1    5.46    1.41
   2  -8   2   32.48    2.49
   2  -8   3   24.35    2.09
  -2   8  -4   42.58    2.37
   2  -8   4   43.66    2.44
   2  -8   5    1.42    0.69
   2  -7  -8   -0.28    0.52
   2  -7  -7    0.46    0.68
   2  -7  -7    0.95    0.75
   2  -7  -6    0.45    0.72
   2  -7  -6    0.34    0.78
   2  -7  -5    3.08    1.14
   2  -7  -5    2.63    1.08
   2  -7  -5    3.88    1.26
   2  -7  -4    3.72    1.27
   2  -7  -4    4.14    1.22
   2  -7  -4    4.62    1.35
   2  -7  -3   24.40    2.55
   2  -7  -3   24.58    2.59
   2  -7  -3   25.47    2.52
   2  -7  -2   25.16    2.52
   2  -7  -2   25.98    2.64
   2  -7  -2   24.37    2.60
   2  -7  -1    3.83    1.49
   2  -7  -1    2.37    0.95
   2  -7   0   12.05    2.00
   2  -7   0   11.72    1.76
   2  -7   1   47.00    3.47
   2  -7   2  140.61    5.76
   2  -7   3   93.81    4.64
   2  -7   4   18.24    2.23
   2  -7   5    0.88    0.95
  -2   7  -5   -0.23    0.67
  -2   7  -6    2.06    0.74
   2  -7   6    1.09    0.82
   2  -6  -9   40.08    2.22
   2  -6  -8    4.28    1.03
   2  -6  -8    3.80    0.91
   2  -6  -7    0.81    0.91
   2  -6  -7    0.50    0.75
   2  -6  -6    1.17    1.03
   2  -6  -6    1.16    0.91
   2  -6  -5    0.53    0.91
   2  -6  -5    0.18    1.04
   2  -6  -5    0.96    1.10
   2  -6  -4   78.23    4.35
   2  -6  -4   83.42    4.93
   2  -6  -4   83.26    4.59
   2  -6  -3    6.69    1.72
   2  -6  -3    8.81    1.80
   2  -6  -3    8.81    1.71
   2  -6  -2    0.46    1.09
   2  -6  -2    2.38    1.25
   2  -6  -2    1.87    1.02
   2  -6  -1   10.82    1.79
   2  -6  -1    9.90    1.91
   2  -6  -1   10.86    1.83
   2  -6   0   28.39    2.89
   2  -6   0   31.29    2.96
   2  -6   0   32.19    2.94
   2  -6   1    3.04    1.32
   2  -6   1    1.45    1.04
  -2   6  -1    5.10    1.79
   2  -6   2   -0.95    1.14
  -2   6  -2    2.45    1.36
  -2   6  -3   21.29    2.49
  -2   6  -4    5.63    1.38
   2  -6   4    2.79    1.64
   2  -6   5    3.03    1.42
  -2   6  -6    0.92    0.85
   2  -6   6    2.47    1.23
  -2   6  -7    1.44    0.78
   2  -6   7    1.94    0.96
  -2   6  -7    1.01    0.65
  -2   6  -8    1.04    0.57
   2  -5 -10    1.66    0.61
   2  -5  -9    9.90    1.37
   2  -5  -9    9.78    1.22
   2  -5  -8    0.73    0.82
   2  -5  -8    0.71    0.78
   2  -5  -7    9.66    1.80
   2  -5  -7    9.60    1.63
   2  -5  -6   27.61    2.59
   2  -5  -6   27.47    2.97
   2  -5  -6   27.62    2.68
   2  -5  -5   11.88    1.83
   2  -5  -5   12.72    2.06
   2  -5  -5   12.14    1.99
   2  -5  -4    0.79    1.05
   2  -5  -4    0.03    0.90
   2  -5  -4    0.45    0.83
   2  -5  -3    4.46    1.54
   2  -5  -3    4.50    1.40
   2  -5  -3    5.98    1.43
   2  -5  -2   12.07    1.97
   2  -5  -2   11.24    1.93
   2  -5  -2   12.94    1.94
   2  -5  -1    2.36    1.30
   2  -5  -1    2.29    1.19
   2  -5  -1    4.22    1.24
   2  -5   0    6.82    1.63
   2  -5   0    4.26    1.36
   2  -5   0    5.24    1.41
   2  -5   1   26.84    2.58
   2  -5   1   25.20    2.73
   2  -5   1   31.85    3.03
   2  -5   2   13.09    1.95
  -2   5  -2   14.11    2.16
   2  -5   3    2.27    1.24
  -2   5  -3   -0.72    0.97
  -2   5  -4    6.36    1.50
  -2   5  -5    2.70    1.14
   2  -5   5    1.96    1.41
  -2   5  -6    0.31    0.94
   2  -5   6    1.76    1.63
  -2   5  -7    0.18    0.79
   2  -5   7    0.67    1.30
  -2   5  -8    2.26    0.87
  -2   5  -9   14.69    1.32
  -2   5  -9   12.35    1.33
  -2   4  10    1.77    0.86
   2  -4 -10    3.48    0.85
   2  -4  -9   30.89    2.24
  -2   4   9   35.69    2.72
   2  -4  -9   34.22    2.68
  -2   4   8    2.82    1.28
   2  -4  -8    3.20    1.27
   2  -4  -8    2.60    1.02
  -2   4   7    8.15    1.93
   2  -4  -7    6.70    1.54
   2  -4  -7    5.92    1.40
   2  -4  -6  111.00    4.86
  -2   4   6  109.20    5.96
   2  -4  -6  110.10    5.67
   2  -4  -6  107.51    5.03
   2  -4  -5   60.36    3.68
  -2   4   5   60.89    4.47
   2  -4  -5   56.94    4.13
   2  -4  -4   14.85    1.95
   2  -4  -4   12.81    2.03
   2  -4  -3   23.34    2.35
   2  -4  -3   21.99    4.88
   2  -4  -3   21.56    2.44
   2  -4  -2    9.07    3.15
   2  -4  -1    0.47    1.73
   2  -4   0  262.47   15.70
   2  -4   1    8.12    3.03
   2  -4   2   13.45    4.19
  -2   4  -3    4.87    1.34
  -2   4  -4   15.42    2.08
  -2   4  -5   49.14    3.46
  -2   4  -6   49.90    3.71
   2  -4   6   51.82    3.74
  -2   4  -7   28.34    2.70
  -2   4  -8    3.00    1.15
  -2   4  -9    2.31    0.80
  -2   4 -10    0.40    0.56
  -2   4 -10    1.14    0.62
   2  -3 -11    4.30    0.72
  -2   3  10   30.20    2.67
   2  -3 -10   24.80    2.09
  -2   3   9   16.69    2.25
   2  -3  -9   11.56    1.76
  -2   3   8    7.28    1.80
   2  -3  -8    8.65    1.81
  -2   3   7   77.27    4.98
   2  -3  -7   79.85    4.79
   2  -3  -6   18.52    2.44
  -2   3   6   16.10    2.50
  -2   3   5  471.75   11.94
   2  -3  -5  470.36   11.02
   2  -3  -4   32.34    5.68
   2  -3  -3    2.83    1.94
   2  -3  -2   45.60    6.40
   2  -3  -1   34.95    5.53
   2  -3   0  266.11   14.81
   2  -3   1    5.11    2.62
   2  -3   2   25.83    4.94
  -2   3  -3    7.89    3.78
  -2   3  -4   13.03    4.19
  -2   3  -5   63.68    3.89
  -2   3  -6   45.46    3.38
  -2   3  -6   45.69    3.55
  -2   3  -7   20.51    2.42
  -2   3  -8    1.77    1.06
  -2   3  -9    1.42    0.87
  -2   3 -10    3.83    1.05
  -2   3 -10    3.96    0.91
  -2   3 -11    0.35    0.50
  -2   2  11    1.04    0.90
   2  -2 -11    0.86    0.51
  -2   2  10    0.91    1.15
   2  -2 -10    0.56    0.82
  -2   2   9    0.67    1.35
   2  -2  -9    0.19    0.91
  -2   2   8    3.52    1.47
   2  -2  -8    3.74    1.30
  -2   2   7  183.75    7.38
  -2   2   7  194.48    6.81
  -2   2   6   42.96    3.69
  -2   2   6   42.73    3.15
   2  -2  -5  190.74   13.53
   2  -2  -4   10.16    3.43
   2  -2  -3   37.71    5.72
   2  -2  -2    1.43    1.76
   2  -2  -1    0.43    1.47
   2  -2   0   70.09    7.08
   2  -2   1    6.70    2.56
   2  -2   2    1.24    1.69
  -2   2  -2    2.18    3.11
  -2   2  -3   81.95   10.10
   2  -2   3   84.37    8.72
  -2   2  -4   30.47    5.91
  -2   2  -5    3.08    2.86
  -2   2  -6   12.73    1.81
  -2   2  -6   13.18    1.81
  -2   2  -7   12.63    1.98
  -2   2  -8    7.35    1.53
  -2   2  -9   -0.52    0.92
  -2   2 -10    1.34    0.84
  -2   2 -10    0.10    0.79
  -2   2 -11    1.04    0.71
  -2   2 -11    0.34    0.67
  -2   1  11    2.23    1.02
   2  -1 -11    1.71    0.63
  -2   1  10    3.16    1.34
   2  -1 -10    2.67    0.90
   2  -1 -10    2.97    1.02
  -2   1   9    4.25    1.65
  -2   1   8  115.39    5.93
  -2   1   8  110.31    5.11
  -2   1   7   52.76    4.02
  -2   1   7   51.03    3.57
  -2   1   6   12.61    2.11
  -2   1   6   14.81    1.98
   2  -1  -5   36.50    6.01
   2  -1  -4   24.05    4.65
   2  -1  -3   -0.24    1.34
   2  -1  -2   18.74    3.70
  -2   1   2   19.65    4.39
   2  -1  -1    8.80    2.58
   2  -1   0   38.09    4.90
   2  -1   1  125.14    8.86
   2  -1   2    8.25    2.60
  -2   1  -2    8.23    4.07
   2  -1   3    7.67    2.80
  -2   1  -3    7.52    3.19
  -2   1  -4    8.32    3.30
  -2   1  -5    2.31    2.53
  -2   1  -6   12.27    4.03
  -2   1  -7   16.98    2.06
  -2   1  -8    3.96    1.39
  -2   1  -9   33.31    2.86
  -2   1  -9   34.85    3.25
  -2   1 -10   21.70    2.23
  -2   1 -10   18.74    2.26
  -2   1 -11    8.90    1.37
  -2   1 -11    8.97    1.44
  -2   1 -12    0.42    0.50
  -2   0  11   10.82    1.42
   2   0 -11    7.26    1.01
  -2   0  10    0.11    0.94
   2   0 -10    0.74    0.75
   2   0 -10   -0.27    0.81
  -2   0   9    0.49    1.05
  -2   0   9    0.19    0.83
  -2   0   8   84.39    5.02
  -2   0   8   75.05    4.31
  -2   0   7   45.10    3.71
  -2   0   7   41.30    3.26
  -2   0   6   11.61    2.00
  -2   0   6   11.53    1.79
   2   0  -5    7.31    2.91
   2   0  -4   17.84    3.96
   2   0  -3    6.65    2.35
  -2   0   2   81.22    9.39
   2   0  -2   92.87    7.60
   2   0  -1   18.46    3.35
  -2   0   1   23.45    4.52
  -2   0   0   91.03    8.12
   2   0   0   99.46    7.24
   2   0   1   13.89    2.90
  -2   0  -1   14.08    3.07
  -2   0  -1   14.88    4.51
  -2   0  -2  329.79   17.60
   2   0   2  328.41   13.57
  -2   0  -2  338.61   13.77
   2   0   3   10.30    2.83
  -2   0  -3    8.19    3.09
  -2   0  -4 1640.61   40.54
   2   0   4 1665.32   33.73
  -2   0  -5    4.78    2.99
  -2   0  -6   55.69    8.50
  -2   0  -7    1.78    1.03
  -2   0  -8   22.14    2.12
  -2   0  -8   23.34    2.49
  -2   0  -9   29.82    2.42
  -2   0  -9   33.03    3.22
  -2   0  -9   29.19    2.78
  -2   0 -10    0.22    0.96
  -2   0 -10    0.65    1.16
  -2   0 -11    4.69    1.22
  -2   0 -11    4.27    1.24
  -2   0 -12    4.59    0.90
  -2  -1  11    4.69    0.91
   2   1 -11    3.65    0.85
  -2  -1  10    4.48    1.24
  -2  -1  10    4.94    1.14
   2   1 -10    3.44    1.15
  -2  -1   9   68.67    4.28
  -2  -1   9   68.65    4.08
  -2  -1   8   50.71    3.88
  -2  -1   8   45.47    3.48
  -2  -1   7  162.11    6.70
  -2  -1   7  155.95    6.35
  -2  -1   6    1.63    1.16
  -2  -1   6    2.18    1.24
   2   1  -5    3.21    2.05
   2   1  -4   62.62    7.61
   2   1  -3  386.34   16.84
   2   1  -2  109.80    8.42
  -2  -1   2  110.31   10.92
  -2  -1   1  190.12   13.03
   2   1  -1  191.75   10.28
  -2  -1   0  108.79    9.74
  -2  -1   0  106.43    9.01
   2   1   0   97.16    7.09
  -2  -1  -1   75.94    7.25
  -2  -1  -1   75.06    7.69
   2   1   1   80.44    6.24
  -2  -1  -2  430.77   16.28
  -2  -1  -2  422.72   17.94
   2   1   2  401.32   14.11
   2   1   3    1.44    1.59
  -2  -1  -3   -0.18    1.72
  -2  -1  -4  525.46   23.19
  -2  -1  -5   10.59    3.99
  -2  -1  -6   12.94    3.73
  -2  -1  -7   30.44    2.93
  -2  -1  -8   -0.39    0.94
  -2  -1  -8    0.35    1.15
  -2  -1  -9    6.58    1.45
  -2  -1  -9    5.68    1.41
  -2  -1  -9    7.02    1.80
  -2  -1 -10    2.90    1.20
  -2  -1 -10    5.78    1.76
  -2  -1 -10    2.94    1.33
  -2  -1 -11    1.48    0.93
  -2  -1 -11    0.91    0.95
  -2  -1 -12    0.91    0.75
  -2  -1 -12   -1.09    0.78
  -2  -2  10   17.10    1.78
  -2  -2  10   19.68    1.96
  -2  -2   9   28.74    2.76
  -2  -2   9   30.80    2.94
  -2  -2   8   11.48    1.99
  -2  -2   8   10.58    1.99
  -2  -2   7    1.82    1.31
  -2  -2   7   -0.34    0.94
  -2  -2   6   90.64    4.97
  -2  -2   6   71.58    4.33
   2   2  -5   39.52    6.91
   2   2  -4    1.14    1.88
   2   2  -3  263.28   14.77
  -2  -2   2    2.80    2.59
   2   2  -2    1.97    1.60
   2   2  -1   25.74    4.06
  -2  -2   1   28.55    5.81
  -2  -2   0   19.54    3.51
  -2  -2   0   22.86    4.62
   2   2   0   26.53    3.90
  -2  -2  -1   48.63    6.16
  -2  -2  -1   41.84    5.38
   2   2   1   41.42    4.47
  -2  -2  -2   52.85    6.28
  -2  -2  -2   55.25    6.46
   2   2   2   55.61    4.84
  -2  -2  -3  146.71   11.30
  -2  -2  -4   14.66    4.11
  -2  -2  -5   24.99    5.46
  -2  -2  -6   12.29    3.84
  -2  -2  -7   12.91    4.26
  -2  -2  -7   12.84    2.05
  -2  -2  -8   30.96    2.94
  -2  -2  -8   31.64    3.33
  -2  -2  -9    1.83    1.34
  -2  -2  -9    1.14    1.27
  -2  -2  -9    1.45    1.54
  -2  -2 -10    4.62    1.48
  -2  -2 -10    2.48    1.35
  -2  -2 -10    5.03    1.86
  -2  -2 -11    0.44    0.98
  -2  -2 -11    2.47    1.20
  -2  -2 -12    2.50    0.79
  -2  -2 -12    2.99    0.82
  -2  -3  10    0.49    0.67
  -2  -3   9   39.63    3.19
  -2  -3   8  101.22    5.53
  -2  -3   7    7.15    1.85
  -2  -3   6   20.49    2.59
  -2  -3   5   34.56    2.95
  -2  -3   4  124.85   14.93
  -2  -3   3   65.50   10.03
   2   3  -2    0.11    1.45
  -2  -3   2    2.41    2.79
  -2  -3   1   -1.57    2.33
   2   3  -1    1.47    1.64
   2   3   0   11.65    2.97
  -2  -3   0   12.33    3.58
  -2  -3  -1  146.24   10.99
  -2  -3  -1  152.69    9.62
  -2  -3  -2    8.38    2.84
  -2  -3  -2    6.64    2.55
  -2  -3  -3    1.62    2.13
  -2  -3  -4   19.59    4.86
  -2  -3  -5   27.13    5.69
  -2  -3  -6    7.79    3.63
  -2  -3  -7    0.77    1.26
  -2  -3  -7    1.85    1.34
  -2  -3  -8   16.28    2.73
  -2  -3  -8   12.02    2.09
  -2  -3  -9   15.06    2.17
  -2  -3  -9   15.82    2.57
  -2  -3  -9   15.09    2.23
  -2  -3 -10   13.88    2.11
  -2  -3 -10   12.95    2.06
  -2  -3 -11    3.78    1.23
  -2  -3 -11    2.25    0.97
  -2  -3 -12   16.38    1.54
  -2  -3 -12   18.37    1.48
  -2  -4  10    4.42    0.82
  -2  -4   9   -0.04    0.66
  -2  -4   9    0.39    0.70
  -2  -4   8   58.85    3.77
  -2  -4   7   39.24    3.57
  -2  -4   6   47.95    3.72
  -2  -4   5  102.28    5.02
  -2  -4   4  190.57   18.11
  -2  -4   3  156.80   15.40
  -2  -4   2   74.95   10.12
  -2  -4   1    0.68    2.30
  -2  -4   0   38.91    6.62
  -2  -4   0   35.06    5.23
  -2  -4  -1  505.38   21.37
  -2  -4  -1  506.84   20.07
  -2  -4  -2  100.67    9.41
  -2  -4  -2  115.02   10.24
  -2  -4  -3  184.08   13.66
  -2  -4  -4   24.33    5.43
  -2  -4  -5    0.25    1.76
  -2  -4  -6  148.59   14.45
  -2  -4  -7    1.72    1.00
  -2  -4  -7    4.69    1.60
  -2  -4  -8  140.23    6.40
  -2  -4  -9   -0.80    1.29
  -2  -4  -9    0.61    1.04
  -2  -4  -9   -1.72    1.75
  -2  -4 -10    3.69    1.50
  -2  -4 -10    2.66    1.30
  -2  -4 -11   24.36    2.27
  -2  -4 -11   26.29    2.29
  -2  -4 -12   -2.03    0.89
  -2  -4 -12    3.27    0.85
  -2  -5   9    1.28    0.59
  -2  -5   9    0.59    0.53
  -2  -5   8   -0.22    0.75
  -2  -5   7    2.59    1.17
  -2  -5   6  117.17    5.49
  -2  -5   5  633.64   12.38
  -2  -5   4  243.26    7.47
  -2  -5   3  199.33   17.50
  -2  -5   2    1.46    3.16
  -2  -5   1   91.83   10.67
  -2  -5   0   51.46    7.70
  -2  -5  -1    6.35    3.29
  -2  -5  -2   -0.91    2.28
  -2  -5  -2    3.33    2.26
  -2  -5  -3    2.70    2.71
  -2  -5  -4   70.18    9.29
  -2  -5  -5    6.22    3.56
  -2  -5  -6   15.91    2.30
  -2  -5  -6   16.60    2.32
  -2  -5  -6   13.61    2.00
  -2  -5  -7   10.93    1.98
  -2  -5  -7    8.67    1.80
  -2  -5  -8    0.78    1.23
  -2  -5  -8   -0.84    1.25
  -2  -5  -9   -0.89    1.24
  -2  -5  -9    2.64    1.42
  -2  -5  -9   -1.53    1.03
  -2  -5  -9   -1.10    1.28
  -2  -5 -10    4.51    1.45
  -2  -5 -10    3.63    1.37
  -2  -5 -10    4.55    1.39
  -2  -5 -11   11.14    1.56
  -2  -5 -11   11.24    1.66
  -2  -6   9   14.02    1.08
  -2  -6   8    4.17    0.90
  -2  -6   7    2.40    0.86
  -2  -6   6   10.31    1.60
  -2  -6   5   37.01    3.06
  -2  -6   4    4.66    1.33
  -2  -6   3  124.81    5.76
  -2  -6   2    3.87    1.51
  -2  -6   2    2.60    1.13
  -2  -6   1   67.47    9.38
  -2  -6   1   70.25    4.39
  -2  -6   0   -0.27    2.45
  -2  -6  -1   66.28    8.84
  -2  -6  -3    0.90    1.84
  -2  -6  -4    2.44    1.22
  -2  -6  -4    3.01    1.30
  -2  -6  -4    1.57    1.26
  -2  -6  -4    1.10    1.39
  -2  -6  -4    2.33    1.08
  -2  -6  -4    2.96    1.35
  -2  -6  -5    5.49    1.59
  -2  -6  -5    6.14    1.76
  -2  -6  -5    4.76    1.61
  -2  -6  -5    6.83    1.61
  -2  -6  -5    6.75    1.85
  -2  -6  -5    1.07    0.93
  -2  -6  -6    6.83    1.87
  -2  -6  -6    5.83    1.69
  -2  -6  -6   11.80    2.02
  -2  -6  -6    7.54    1.79
  -2  -6  -7   57.26    4.48
  -2  -6  -7   51.37    3.58
  -2  -6  -7   51.97    3.93
  -2  -6  -8    6.24    1.65
  -2  -6  -8    8.16    1.74
  -2  -6  -8   11.56    2.18
  -2  -6  -8   10.09    2.00
  -2  -6  -9    2.00    1.24
  -2  -6  -9    2.30    1.15
  -2  -6  -9   -0.17    1.02
  -2  -6  -9    3.95    1.58
  -2  -6 -10    2.81    1.15
  -2  -6 -10    1.32    0.99
  -2  -6 -10    2.23    0.96
  -2  -6 -10    2.00    1.23
  -2  -6 -11    1.06    0.71
  -2  -6 -11    1.41    0.83
  -2  -7   8   29.56    1.63
  -2  -7   8   38.08    1.80
  -2  -7   7   34.36    2.15
  -2  -7   6    4.99    1.16
  -2  -7   5   39.17    2.87
  -2  -7   4   60.29    3.76
  -2  -7   4   63.71    3.75
  -2  -7   3   -0.20    0.83
  -2  -7   2    3.06    1.43
  -2  -7   2    3.28    1.36
  -2  -7   1    6.52    1.70
  -2  -7   1    7.81    1.78
  -2  -7   0    7.73    1.87
  -2  -7  -1    4.53    1.42
  -2  -7  -1    7.93    2.15
  -2  -7  -1    8.64    2.25
  -2  -7  -2   -0.21    0.88
  -2  -7  -2    1.62    1.49
  -2  -7  -2    0.71    1.38
  -2  -7  -2    0.74    1.02
  -2  -7  -3   12.35    2.01
  -2  -7  -3   14.30    2.17
  -2  -7  -3   13.89    2.17
  -2  -7  -3   13.54    1.98
  -2  -7  -3   16.75    2.60
  -2  -7  -3   13.51    2.11
  -2  -7  -3   12.90    2.04
  -2  -7  -3   17.06    2.33
  -2  -7  -4   12.73    1.97
  -2  -7  -4   12.81    2.01
  -2  -7  -4   14.94    2.23
  -2  -7  -4   13.67    2.40
  -2  -7  -4   11.81    2.01
  -2  -7  -4   10.91    1.87
  -2  -7  -4   13.58    2.13
  -2  -7  -4   14.44    2.30
  -2  -7  -5  112.38    5.55
  -2  -7  -5  118.01    5.81
  -2  -7  -5  114.46    6.01
  -2  -7  -5  118.65    5.54
  -2  -7  -5  114.88    5.69
  -2  -7  -5  124.32    6.00
  -2  -7  -6   66.97    4.31
  -2  -7  -6   69.55    4.56
  -2  -7  -6   68.84    4.58
  -2  -7  -6   60.30    3.98
  -2  -7  -6   70.11    4.24
  -2  -7  -6   67.22    4.43
  -2  -7  -7   10.66    2.09
  -2  -7  -7   11.51    2.16
  -2  -7  -8   18.50    2.44
  -2  -7  -8   17.60    2.45
  -2  -7  -9    2.99    1.34
  -2  -7  -9    1.97    1.13
  -2  -7 -10   27.95    2.18
  -2  -7 -10   32.87    2.47
  -2  -8   7   16.99    1.22
  -2  -8   6   43.08    2.15
  -2  -8   5    5.26    0.99
  -2  -8   4    0.74    0.68
  -2  -8   3   55.57    3.79
  -2  -8   2   35.05    3.32
  -2  -8   1   17.13    2.42
  -2  -8   1   21.74    2.52
  -2  -8   1   14.02    2.17
  -2  -8   0    0.51    1.04
  -2  -8   0   -0.92    0.96
  -2  -8  -1   48.50    3.95
  -2  -8  -2    5.06    1.54
  -2  -8  -2    8.32    2.28
  -2  -8  -2    3.91    1.44
  -2  -8  -3   37.01    3.27
  -2  -8  -3   45.84    3.84
  -2  -8  -3   41.00    3.68
  -2  -8  -3   42.55    3.42
  -2  -8  -3   39.13    3.47
  -2  -8  -3   37.20    3.24
  -2  -8  -4  139.90    6.31
  -2  -8  -4  137.30    5.92
  -2  -8  -4  134.31    6.41
  -2  -8  -4  139.97    6.26
  -2  -8  -4  137.31    6.34
  -2  -8  -4  130.94    5.70
  -2  -8  -5  226.26    7.94
  -2  -8  -5  224.47    7.88
  -2  -8  -5  228.65    7.75
  -2  -8  -5  225.53    7.66
  -2  -8  -5  229.13    7.28
  -2  -8  -5  238.14    8.12
  -2  -8  -6   28.20    2.78
  -2  -8  -6   25.95    2.90
  -2  -8  -6   20.03    2.55
  -2  -8  -6   27.23    2.71
  -2  -8  -6   25.82    2.96
  -2  -8  -7   11.68    2.12
  -2  -8  -7    7.75    1.65
  -2  -8  -7   12.90    2.20
  -2  -8  -8   35.15    2.83
  -2  -8  -8   38.57    3.23
  -2  -8  -8   41.88    3.20
  -2  -8  -9    2.10    1.04
  -2  -8  -9    7.68    1.50
  -2  -8 -10    7.20    1.09
  -2  -9   5   16.03    1.32
  -2  -9   4    0.51    0.64
  -2  -9   3   -0.17    0.74
  -2  -9   2   23.34    2.45
  -2  -9   1   74.37    4.53
  -2  -9   1   77.49    4.41
  -2  -9   0    3.80    1.34
  -2  -9   0    3.38    1.35
  -2  -9   0    3.16    1.11
  -2  -9  -1    1.28    1.13
  -2  -9  -1    0.01    1.01
  -2  -9  -2    5.26    1.49
  -2  -9  -2    5.89    1.69
  -2  -9  -2    2.69    1.02
  -2  -9  -3   15.68    2.13
  -2  -9  -3   11.24    2.02
  -2  -9  -3   13.60    1.93
  -2  -9  -4   84.41    4.88
  -2  -9  -4   90.25    4.97
  -2  -9  -4   82.34    4.55
  -2  -9  -4   81.47    4.16
  -2  -9  -5    2.95    1.29
  -2  -9  -5    3.99    1.62
  -2  -9  -5    2.26    1.17
  -2  -9  -6   -0.10    0.74
  -2  -9  -6    0.61    0.88
  -2  -9  -6    0.28    1.10
  -2  -9  -7    7.82    1.56
  -2  -9  -7    8.63    1.49
  -2  -9  -8   16.62    1.95
  -2  -9  -9    2.28    0.90
  -2 -10   3    0.20    0.46
  -2 -10   2    4.65    1.01
  -2 -10   1   -0.52    0.80
  -2 -10   1    0.09    0.64
  -2 -10   0    0.66    0.78
  -2 -10   0    2.30    0.92
  -2 -10   0    1.28    0.77
  -2 -10  -1   50.29    3.55
  -2 -10  -1   51.03    3.51
  -2 -10  -1   40.34    2.67
  -2 -10  -2    7.23    1.40
  -2 -10  -2    5.68    1.41
  -2 -10  -2    6.88    1.17
  -2 -10  -3    1.20    0.87
  -2 -10  -3    1.72    1.06
  -2 -10  -4    3.88    1.24
  -2 -10  -5    7.34    1.37
  -2 -10  -6   14.31    1.56
  -2 -10  -6   18.13    2.01
  -2 -10  -7    4.85    1.20
  -2 -11   0    2.36    0.70
  -2 -11  -1    0.29    0.51
  -2 -11  -1    0.86    0.64
  -2 -11  -2   15.53    1.44
  -2 -11  -2   15.31    1.58
  -2 -11  -3   29.73    2.21
  -2 -11  -4    3.11    0.85
   3  -7  -3    0.60    0.67
   3  -7  -2    1.82    0.86
   3  -7  -1   14.75    1.46
   3  -7   0   12.71    1.39
   3  -7   1    2.56    0.89
  -3   7  -1    1.35    0.66
   3  -7   2    5.38    0.96
  -3   7  -2    3.70    0.80
   3  -7   3   25.99    1.65
   3  -6  -6    1.13    0.56
   3  -6  -5    0.59    0.65
   3  -6  -5    0.38    0.63
   3  -6  -4    0.78    0.84
   3  -6  -4    0.41    0.70
   3  -6  -3   -0.48    0.90
   3  -6  -3    0.33    0.76
   3  -6  -2   46.95    3.06
   3  -6  -1    5.48    1.30
  -3   6   1    5.94    1.24
   3  -6   0    0.30    0.90
  -3   6   0    0.40    0.85
   3  -6   1    2.41    0.98
  -3   6  -1    3.26    1.09
  -3   6  -1    1.71    0.84
  -3   6  -2   16.05    1.78
  -3   6  -2   13.17    1.72
  -3   6  -3    1.48    0.80
   3  -6   3   -0.25    1.00
  -3   6  -3    0.07    0.77
   3  -6   4    0.69    0.89
  -3   6  -4    0.27    0.64
   3  -6   5    7.38    1.07
  -3   6  -5    6.51    1.02
   3  -5  -7    2.53    0.71
   3  -5  -6    1.44    0.83
   3  -5  -6    0.90    0.68
   3  -5  -5    6.13    1.33
   3  -5  -5    7.56    1.36
   3  -5  -4   12.07    1.87
   3  -5  -4    9.48    1.67
   3  -5  -3    2.86    1.32
   3  -5  -3    3.51    1.27
   3  -5  -2    1.06    1.25
   3  -5  -2    0.12    0.92
   3  -5  -1    1.43    1.22
   3  -5  -1   -0.13    0.89
   3  -5   0    5.03    1.48
   3  -5   1    2.88    1.29
  -3   5  -1    5.72    1.66
   3  -5   2    4.75    1.32
  -3   5  -2    7.78    1.76
  -3   5  -3    8.89    1.65
  -3   5  -4    5.78    1.34
  -3   5  -4    5.09    1.37
   3  -5   5    1.34    1.05
  -3   5  -5    0.52    0.80
   3  -5   6    1.68    0.84
  -3   5  -6    0.03    0.60
   3  -4  -8    2.33    0.61
   3  -4  -7   18.88    1.63
   3  -4  -7   18.46    1.77
   3  -4  -6    0.58    0.85
   3  -4  -6   -0.01    0.80
   3  -4  -5    6.22    1.48
   3  -4  -5    4.75    1.32
   3  -4  -4   82.30    4.43
   3  -4  -4   76.28    4.49
   3  -4  -3   18.51    2.43
   3  -4  -3   17.98    2.46
   3  -4  -2    4.59    1.64
   3  -4  -2    4.60    1.43
   3  -4  -1   13.64    2.14
   3  -4  -1   12.78    2.14
  -3   4   0    2.95    1.14
   3  -4   0    6.05    1.65
   3  -4   0    5.84    1.67
   3  -4   1    0.72    1.09
   3  -4   2   54.67    3.33
  -3   4  -3    8.04    1.96
  -3   4  -4    4.93    1.57
  -3   4  -5    3.36    1.39
  -3   4  -5    2.67    1.21
  -3   4  -6    1.81    0.97
  -3   4  -7    9.61    1.42
  -3   4  -8   14.42    1.43
   3  -3  -8   21.50    1.69
   3  -3  -7   10.98    1.54
  -3   3   7   11.34    1.81
   3  -3  -7   10.86    1.54
   3  -3  -6    4.90    1.30
  -3   3   6    6.30    1.66
   3  -3  -6    6.14    1.34
   3  -3  -5   65.92    3.91
  -3   3   5   62.85    4.50
   3  -3  -5   64.96    4.13
   3  -3  -4    0.13    1.21
   3  -3  -4    2.26    1.24
   3  -3  -3  247.98    7.85
   3  -3  -3  237.57    8.17
   3  -3  -2   12.04    2.06
   3  -3  -2   10.18    1.88
  -3   3   1    2.65    1.03
   3  -3  -1    1.31    1.30
   3  -3  -1   -0.18    1.12
   3  -3   0   25.41    2.58
   3  -3   0   29.31    3.29
  -3   3   0   20.61    2.41
   3  -3   1   13.27    1.91
  -3   3  -1   13.47    2.14
  -3   3  -2  102.81    5.37
  -3   3  -3    5.37    1.84
  -3   3  -4    5.79    1.77
  -3   3  -4    4.34    1.44
  -3   3  -5    0.42    1.26
  -3   3  -5    0.78    0.97
  -3   3  -6    9.71    1.72
  -3   3  -6    9.92    1.75
  -3   3  -7   22.56    2.35
  -3   3  -8   13.96    1.56
  -3   3  -8   13.25    1.67
  -3   3  -9    4.94    0.94
  -3   2   9    0.28    0.71
   3  -2  -8    0.58    0.80
  -3   2   8    0.66    1.03
   3  -2  -8    0.04    0.57
   3  -2  -7   -0.28    0.82
  -3   2   7    0.14    1.11
   3  -2  -7    1.09    0.92
   3  -2  -6    0.12    1.00
  -3   2   6   -0.24    1.16
   3  -2  -6    1.32    1.00
  -3   2   5  182.94    7.75
   3  -2  -5  190.48    6.94
  -3   2   4   27.81    3.25
   3  -2  -4   28.49    2.91
  -3   2   3  105.22    6.14
   3  -2  -3  106.79    5.41
  -3   2   2    5.49    1.44
   3  -2  -2    5.21    1.49
   3  -2  -2    5.72    1.62
   3  -2  -1   18.43    2.22
   3  -2  -1   18.77    2.46
  -3   2   1   17.95    2.19
  -3   2   0    2.28    1.25
   3  -2   0    0.34    0.97
   3  -2   0    1.66    0.99
  -3   2  -1    1.82    1.32
   3  -2   1    0.50    1.01
  -3   2  -1   -0.23    1.00
  -3   2  -2    5.98    1.65
  -3   2  -2    5.83    1.63
  -3   2  -3    0.51    1.11
  -3   2  -3   -1.07    1.15
  -3   2  -4    0.42    0.98
  -3   2  -4    1.19    1.31
  -3   2  -4    0.29    1.04
  -3   2  -5   18.94    2.40
  -3   2  -5   14.10    2.29
  -3   2  -6    7.83    1.61
  -3   2  -6    7.18    1.79
  -3   2  -7    2.68    1.16
  -3   2  -8    7.82    1.44
  -3   2  -8    2.20    1.17
  -3   2  -9    3.61    1.09
  -3   1   9    5.36    1.19
   3  -1  -8    7.58    1.15
  -3   1   8    5.55    1.47
  -3   1   7    1.23    1.11
  -3   1   6   48.94    4.06
  -3   1   5   20.36    2.83
  -3   1   4    4.16    1.67
  -3   1   3    7.56    1.59
  -3   1   3    6.93    1.95
  -3   1   2   13.57    1.94
  -3   1   2   12.81    2.38
  -3   1   1    1.17    1.07
  -3   1   0    1.73    1.08
  -3   1  -1    6.63    1.72
  -3   1  -1    6.25    1.63
  -3   1  -2   11.66    2.03
  -3   1  -2   10.52    2.01
  -3   1  -3   21.91    2.77
  -3   1  -3   21.92    2.63
  -3   1  -4    2.65    1.21
  -3   1  -4    4.15    1.54
  -3   1  -4    3.30    1.39
  -3   1  -5    3.73    1.24
  -3   1  -5    7.70    1.68
  -3   1  -5    4.91    1.75
  -3   1  -6    0.02    0.91
  -3   1  -6   -0.21    1.18
  -3   1  -7    0.77    1.06
  -3   1  -7    1.95    1.33
  -3   1  -8    7.39    1.54
  -3   1  -8    7.78    1.73
  -3   1  -9    5.59    1.47
  -3   1 -10    1.82    0.90
  -3   0   9    8.82    1.36
  -3   0   8   -0.35    0.92
  -3   0   7    2.41    1.30
  -3   0   7    3.29    1.07
  -3   0   6   57.64    4.36
  -3   0   6   54.09    3.74
  -3   0   5   44.05    4.05
  -3   0   5   47.41    3.67
  -3   0   4    5.74    1.52
  -3   0   4    4.46    1.62
  -3   0   4    5.07    1.49
  -3   0   3    2.88    1.23
  -3   0   3    2.93    1.80
  -3   0   3    1.79    1.10
  -3   0   2    1.44    1.02
  -3   0   2    1.92    1.51
  -3   0   2    2.38    1.17
  -3   0   1    2.32    1.16
   3   0   0   23.64    5.26
  -3   0   0   24.20    6.39
  -3   0   0   25.09    2.67
   3   0   1    7.24    3.10
  -3   0  -1    6.57    3.83
   3   0   2   20.72    4.99
  -3   0  -2   22.69    2.70
  -3   0  -2   28.26    2.87
  -3   0  -3   10.38    1.98
  -3   0  -3    7.64    1.88
  -3   0  -4   97.89    5.86
  -3   0  -4  100.92    5.22
  -3   0  -5    9.43    1.72
  -3   0  -5   10.87    2.05
  -3   0  -5   10.86    2.33
  -3   0  -6  422.78   12.04
  -3   0  -6  432.05   11.49
  -3   0  -7    1.92    1.36
  -3   0  -7    0.26    1.20
  -3   0  -8   10.63    1.92
  -3   0  -8   13.96    2.30
  -3   0  -9    1.20    1.20
  -3   0 -10   10.72    1.62
  -3  -1   9    2.70    0.85
  -3  -1   8    3.98    1.27
  -3  -1   8    3.69    1.16
  -3  -1   7   50.20    3.83
  -3  -1   7   56.85    3.66
  -3  -1   6   41.18    3.74
  -3  -1   6   44.05    3.49
  -3  -1   5   61.63    4.65
  -3  -1   5   67.28    4.32
  -3  -1   5   63.79    3.87
  -3  -1   4    0.47    0.96
  -3  -1   4    0.35    1.28
  -3  -1   4   -0.58    0.96
  -3  -1   3    1.50    1.08
  -3  -1   3    0.28    1.33
  -3  -1   3    0.25    0.92
  -3  -1   2   12.83    2.05
  -3  -1   2    8.70    2.15
  -3  -1   2    8.84    1.76
   3   1  -1  151.45   12.92
  -3  -1   1  153.29    6.20
   3   1   0   28.67    5.70
   3   1   1   37.98    6.32
  -3  -1  -1   38.04    7.36
  -3  -1  -2   18.16    5.08
  -3  -1  -3   19.43    2.63
  -3  -1  -3   19.70    2.37
  -3  -1  -4  241.35    9.10
  -3  -1  -4  235.38    7.80
  -3  -1  -5    2.57    1.20
  -3  -1  -5    1.57    1.11
  -3  -1  -5    3.13    1.76
  -3  -1  -6  180.17    8.13
  -3  -1  -6  181.08    7.65
  -3  -1  -7    2.71    1.17
  -3  -1  -7    2.68    1.64
  -3  -1  -8    4.11    1.40
  -3  -1  -8    2.73    1.49
  -3  -1  -9    8.65    1.43
  -3  -1  -9   10.42    2.11
  -3  -1 -10    1.24    1.18
  -3  -1 -11    2.15    0.67
  -3  -2   9    2.54    0.71
  -3  -2   8   18.49    1.99
  -3  -2   8   20.13    2.06
  -3  -2   7   46.11    3.48
  -3  -2   7   45.72    3.33
  -3  -2   6   15.00    2.27
  -3  -2   6   18.93    2.32
  -3  -2   6   16.94    2.07
  -3  -2   5    0.41    0.99
  -3  -2   5    0.47    1.14
  -3  -2   5   -0.08    0.85
  -3  -2   4   35.92    3.07
  -3  -2   4   33.30    3.46
  -3  -2   4   34.77    3.14
  -3  -2   3    6.53    1.65
  -3  -2   3    6.98    1.91
  -3  -2   3    7.70    1.62
  -3  -2   2    1.17    1.27
  -3  -2   2    1.84    1.27
  -3  -2   2    1.20    0.97
  -3  -2   1  122.64   13.19
   3   2  -1  129.95   11.73
  -3  -2   1  121.87    5.50
  -3  -2   0    3.83    3.16
  -3  -2  -1    5.06    3.16
  -3  -2  -2    1.73    2.22
  -3  -2  -2    6.84    3.83
  -3  -2  -3   10.32    1.84
  -3  -2  -3    7.60    3.59
  -3  -2  -3    7.30    1.65
  -3  -2  -4    3.69    1.56
  -3  -2  -4    8.53    1.84
  -3  -2  -5   57.58    4.63
  -3  -2  -5   58.98    4.32
  -3  -2  -6   -0.59    1.57
  -3  -2  -6   -0.36    1.54
  -3  -2  -7    2.65    1.46
  -3  -2  -7    4.18    1.80
  -3  -2  -8    4.60    1.42
  -3  -2  -8    4.92    1.97
  -3  -2  -9    1.82    1.08
  -3  -2  -9    4.50    1.78
  -3  -2 -10    7.79    1.27
  -3  -2 -11   -0.31    0.66
  -3  -3   8    0.19    0.68
  -3  -3   7   28.77    2.54
  -3  -3   7   26.31    2.34
  -3  -3   6   45.29    3.30
  -3  -3   6   43.58    3.20
  -3  -3   5    6.76    1.54
  -3  -3   5    7.21    1.51
  -3  -3   4   13.47    1.96
  -3  -3   4   13.04    1.94
  -3  -3   3   22.99    2.56
  -3  -3   3   20.04    2.35
  -3  -3   2   20.76    2.44
  -3  -3   2   19.60    2.38
  -3  -3   1   12.65    1.99
  -3  -3   1   16.65    2.29
  -3  -3   0    1.33    1.02
  -3  -3   0    2.45    1.27
  -3  -3  -1    4.28    1.48
  -3  -3  -1    5.58    3.00
  -3  -3  -2    3.68    1.66
  -3  -3  -2    1.42    1.18
  -3  -3  -3   28.70    3.21
  -3  -3  -3   29.82    2.78
  -3  -3  -4    0.79    1.26
  -3  -3  -4    5.93    1.82
  -3  -3  -5    3.11    1.46
  -3  -3  -5    3.05    1.36
  -3  -3  -6    7.43    2.06
  -3  -3  -6    5.61    1.85
  -3  -3  -7    6.26    1.72
  -3  -3  -7    5.84    2.08
  -3  -3  -8    2.27    1.31
  -3  -3  -9   -2.02    1.14
  -3  -3 -10    5.04    1.12
  -3  -3 -10    3.74    0.95
  -3  -3 -11    3.29    0.77
  -3  -3 -11    4.08    0.91
  -3  -4   8    5.66    0.96
  -3  -4   7   -0.30    0.68
  -3  -4   7    0.48    0.78
  -3  -4   6   40.59    3.05
  -3  -4   6   39.55    2.97
  -3  -4   5   27.01    2.65
  -3  -4   5   26.33    2.53
  -3  -4   4   33.54    2.93
  -3  -4   4   30.76    2.77
  -3  -4   3   17.08    2.28
  -3  -4   3   15.98    2.13
  -3  -4   2   62.41    4.03
  -3  -4   2   63.95    4.20
  -3  -4   1   39.65    3.23
  -3  -4   1   39.86    3.40
  -3  -4   0   22.20    2.41
  -3  -4   0   24.02    2.74
  -3  -4   0   21.95    2.51
  -3  -4  -1    0.98    0.99
  -3  -4  -1   -0.18    0.97
  -3  -4  -1    0.52    1.05
  -3  -4  -2   17.03    2.46
  -3  -4  -2   21.39    2.86
  -3  -4  -2   12.56    1.85
  -3  -4  -3  194.37    7.54
  -3  -4  -3  201.36    8.19
  -3  -4  -3  183.71    6.70
  -3  -4  -4   28.61    3.41
  -3  -4  -4   29.04    2.86
  -3  -4  -4   18.94    2.02
  -3  -4  -5   48.16    4.22
  -3  -4  -5   41.39    3.24
  -3  -4  -5   49.69    3.66
  -3  -4  -6    1.56    1.54
  -3  -4  -6    0.22    1.29
  -3  -4  -7   -0.32    1.11
  -3  -4  -7   -2.28    1.61
  -3  -4  -8   48.11    3.69
  -3  -4  -8   44.93    3.38
  -3  -4  -8   50.93    3.79
  -3  -4  -9    1.70    1.05
  -3  -4  -9    0.36    1.12
  -3  -4 -10   40.54    2.48
  -3  -4 -10   40.25    2.47
  -3  -4 -10   41.71    2.74
  -3  -4 -11   -0.73    0.58
  -3  -4 -11    1.18    0.69
  -3  -5   7   -0.06    0.58
  -3  -5   7    0.93    0.64
  -3  -5   6    0.17    0.73
  -3  -5   6    0.59    0.77
  -3  -5   5    6.47    1.44
  -3  -5   5    6.62    1.33
  -3  -5   4  111.44    5.14
  -3  -5   4   97.13    4.62
  -3  -5   3  371.90    9.48
  -3  -5   2  117.57    5.50
  -3  -5   2  118.84    5.67
  -3  -5   1   78.37    4.42
  -3  -5   1   79.93    4.74
  -3  -5   0    0.24    0.86
  -3  -5   0    2.32    1.20
  -3  -5   0    2.75    1.41
  -3  -5  -1   31.47    3.19
  -3  -5  -1   32.68    3.18
  -3  -5  -2   28.78    3.10
  -3  -5  -2   26.79    3.09
  -3  -5  -2   23.81    2.57
  -3  -5  -3   19.59    2.63
  -3  -5  -3   15.90    2.23
  -3  -5  -3   16.88    2.56
  -3  -5  -3   15.75    2.09
  -3  -5  -4   -0.91    1.32
  -3  -5  -4   -1.70    1.65
  -3  -5  -4    0.46    1.15
  -3  -5  -5    0.17    1.13
  -3  -5  -5   -0.86    1.69
  -3  -5  -5    8.38    2.22
  -3  -5  -5    2.92    1.37
  -3  -5  -5   10.90    2.01
  -3  -5  -6   10.40    1.97
  -3  -5  -6   10.16    2.03
  -3  -5  -6   10.60    1.89
  -3  -5  -7   -0.38    1.13
  -3  -5  -7    1.00    1.14
  -3  -5  -7    1.35    1.31
  -3  -5  -8   13.89    2.06
  -3  -5  -8   16.45    2.09
  -3  -5  -8   18.32    2.32
  -3  -5  -9    3.76    1.12
  -3  -5  -9    4.68    1.35
  -3  -5  -9    4.88    1.38
  -3  -5 -10    1.42    0.86
  -3  -5 -10   -0.25    0.61
  -3  -5 -10    2.15    0.99
  -3  -6   7   19.91    1.42
  -3  -6   6    2.64    0.90
  -3  -6   6    1.78    0.70
  -3  -6   5   -0.70    0.75
  -3  -6   5    0.88    0.72
  -3  -6   4   15.02    1.99
  -3  -6   3   47.42    3.37
  -3  -6   3   48.07    3.41
  -3  -6   2   10.17    1.78
  -3  -6   2    8.71    1.62
  -3  -6   1   61.22    3.84
  -3  -6   1   58.30    4.09
  -3  -6   0    1.30    1.08
  -3  -6   0    2.09    1.23
  -3  -6   0    2.35    1.28
  -3  -6   0    3.32    1.63
  -3  -6  -1   23.33    2.77
  -3  -6  -1   22.62    2.78
  -3  -6  -1   23.66    2.94
  -3  -6  -2    0.48    1.07
  -3  -6  -2    1.97    1.31
  -3  -6  -2    1.72    1.48
  -3  -6  -2   -1.36    1.38
  -3  -6  -3   19.65    2.66
  -3  -6  -3   19.37    2.79
  -3  -6  -3   24.06    2.71
  -3  -6  -3   18.91    2.77
  -3  -6  -3   21.11    2.55
  -3  -6  -4    6.72    1.80
  -3  -6  -4    6.50    1.60
  -3  -6  -4    7.09    1.98
  -3  -6  -4    8.09    1.78
  -3  -6  -5   -1.32    1.30
  -3  -6  -5    0.58    1.19
  -3  -6  -5    5.27    1.75
  -3  -6  -5    2.94    1.60
  -3  -6  -5    5.61    1.67
  -3  -6  -6    2.92    1.44
  -3  -6  -6    4.22    1.52
  -3  -6  -7   11.29    2.08
  -3  -6  -7    9.57    1.94
  -3  -6  -7   10.73    2.05
  -3  -6  -8    4.66    1.51
  -3  -6  -8    5.28    1.54
  -3  -6  -9   19.42    1.77
  -3  -6  -9   20.21    2.02
  -3  -6  -9   24.87    2.35
  -3  -6 -10    2.17    0.79
  -3  -6 -10    1.88    0.71
  -3  -6 -10    1.13    0.80
  -3  -7   6   29.01    1.75
  -3  -7   5   24.70    1.99
  -3  -7   4   11.74    1.63
  -3  -7   3   18.78    2.03
  -3  -7   3   20.18    2.11
  -3  -7   2   33.61    2.77
  -3  -7   2   30.07    2.81
  -3  -7   1    1.30    0.95
  -3  -7   1    2.29    1.25
  -3  -7   0    3.74    1.28
  -3  -7   0    4.64    1.55
  -3  -7  -1    2.45    1.15
  -3  -7  -1    2.47    1.21
  -3  -7  -1    4.27    1.67
  -3  -7  -1    1.90    1.27
  -3  -7  -2    3.32    1.38
  -3  -7  -2    2.02    1.41
  -3  -7  -2    4.00    1.93
  -3  -7  -2    0.77    1.00
  -3  -7  -3    3.91    1.50
  -3  -7  -3    2.72    1.47
  -3  -7  -3    5.79    2.05
  -3  -7  -3    2.01    1.37
  -3  -7  -4    1.06    1.00
  -3  -7  -4    3.63    1.38
  -3  -7  -4    4.25    1.91
  -3  -7  -4    1.79    1.31
  -3  -7  -5    9.41    1.90
  -3  -7  -5    9.09    2.20
  -3  -7  -5   13.09    2.26
  -3  -7  -5    7.62    1.68
  -3  -7  -6    4.75    1.54
  -3  -7  -6    4.08    1.73
  -3  -7  -7   36.23    2.97
  -3  -7  -7   34.61    2.87
  -3  -7  -7   33.82    2.81
  -3  -7  -8   22.96    1.85
  -3  -7  -8   22.77    2.23
  -3  -7  -8   24.20    2.28
  -3  -7  -9    4.69    0.87
  -3  -7  -9    4.80    1.05
  -3  -7  -9    6.03    1.23
  -3  -8   4   19.27    1.56
  -3  -8   3    6.25    1.15
  -3  -8   3    3.67    0.97
  -3  -8   2    1.07    0.80
  -3  -8   2    2.27    1.00
  -3  -8   1   29.16    2.76
  -3  -8   0   16.87    2.32
  -3  -8   0   21.14    2.45
  -3  -8  -1    5.70    1.46
  -3  -8  -1    8.39    1.81
  -3  -8  -1    4.16    1.34
  -3  -8  -2    0.91    1.06
  -3  -8  -2    1.94    1.27
  -3  -8  -2   -0.92    1.26
  -3  -8  -3   24.90    2.62
  -3  -8  -3   24.14    2.76
  -3  -8  -3   23.47    2.55
  -3  -8  -4    1.91    1.02
  -3  -8  -4    0.26    0.86
  -3  -8  -4    1.74    1.21
  -3  -8  -4    3.72    1.21
  -3  -8  -5   45.59    3.37
  -3  -8  -5   54.11    3.05
  -3  -8  -6   63.94    3.64
  -3  -8  -7  124.43    4.77
  -3  -8  -8   11.99    1.48
  -3  -9   3   11.16    1.15
  -3  -9   2    1.00    0.65
  -3  -9   2    0.92    0.66
  -3  -9   1    1.62    0.91
  -3  -9   1   -0.41    0.87
  -3  -9   0   17.73    2.02
  -3  -9   0   18.46    2.02
  -3  -9  -1   46.34    3.25
  -3  -9  -1   39.17    2.89
  -3  -9  -2    2.00    0.94
  -3  -9  -2    2.26    1.14
  -3  -9  -2    0.76    0.84
  -3  -9  -3    1.15    0.85
  -3  -9  -3    1.95    0.97
  -3  -9  -3    4.09    0.98
  -3  -9  -4    9.46    1.43
  -3  -9  -4   14.12    1.77
  -3  -9  -5   48.07    2.98
  -3 -10   0    2.56    0.70
  -3 -10   0    1.72    0.62
  -3 -10  -1    0.85    0.64
  -3 -10  -1   -0.20    0.54
  -3 -10  -2    1.68    0.75
  -3 -10  -2    2.58    0.74
  -3 -10  -3   23.64    1.78
  -3 -10  -3   30.72    1.90
   4  -4  -2   32.08    1.79
   4  -4  -1    4.10    0.93
  -4   4   1    4.88    1.05
  -4   4   0    1.08    0.68
  -4   4  -1    4.28    0.94
  -4   4  -2    1.30    0.64
  -4   4  -3    0.35    0.46
   4  -3  -4    1.38    0.65
   4  -3  -3   35.29    2.15
   4  -3  -2    1.25    0.93
   4  -3  -1   86.11    3.39
  -4   3  -1    0.16    0.78
  -4   3  -2   11.98    1.60
  -4   3  -2   10.77    1.38
  -4   3  -3    5.23    1.08
  -4   3  -3    4.56    1.00
  -4   3  -4   35.62    2.13
  -4   3  -4   36.98    2.35
  -4   3  -5    1.38    0.63
   4  -2  -5   -0.33    0.56
   4  -2  -4    0.87    0.78
   4  -2  -3  130.80    4.51
   4  -2  -2   11.69    1.63
   4  -2  -1   53.27    2.99
  -4   2   1   51.86    3.21
  -4   2   0    0.86    0.86
  -4   2  -1    7.49    1.43
  -4   2  -2    3.09    1.17
  -4   2  -2    2.15    0.96
  -4   2  -3   -0.98    0.79
  -4   2  -3   -1.56    0.91
  -4   2  -4    0.09    0.64
  -4   2  -4   -1.06    0.91
  -4   2  -5   -1.42    0.89
  -4   2  -6    0.16    0.60
   4  -1  -5    2.18    0.81
   4  -1  -4   17.05    1.71
  -4   1   3    3.62    0.97
   4  -1  -3    2.19    1.00
  -4   1   2    1.26    0.96
   4  -1  -2   -1.08    1.00
  -4   1   1    3.38    1.33
   4  -1  -1    3.72    1.12
  -4   1   0    5.15    1.51
  -4   1  -1    0.27    1.01
  -4   1  -2    0.61    0.93
  -4   1  -2   -0.03    0.89
  -4   1  -2    0.35    0.89
  -4   1  -3    1.16    0.86
  -4   1  -3    0.42    0.94
  -4   1  -4    1.89    0.88
  -4   1  -4    0.23    1.02
  -4   1  -5    2.19    0.87
  -4   1  -5    0.87    0.87
  -4   1  -6    0.58    0.73
  -4   1  -7    2.83    0.79
   4   0  -6    1.98    0.63
   4   0  -5    3.97    0.90
   4   0  -4   26.75    2.09
  -4   0   4   28.52    2.05
   4   0  -3   33.94    2.46
  -4   0   3   36.05    2.61
  -4   0   2    3.09    1.15
   4   0  -2    2.22    1.02
  -4   0   1    1.58    1.19
   4   0  -1    0.89    0.99
  -4   0   0   -0.33    0.97
  -4   0  -1    0.62    1.10
  -4   0  -2    4.72    1.49
  -4   0  -2    5.17    1.53
  -4   0  -3    4.00    1.26
  -4   0  -3    3.57    1.24
  -4   0  -4    3.70    1.11
  -4   0  -4    4.11    1.33
  -4   0  -5    3.30    1.16
  -4   0  -6   25.34    2.39
  -4   0  -7    6.71    1.25
   4   1  -6    3.76    0.76
  -4  -1   4   31.17    2.31
  -4  -1   3   24.62    2.24
  -4  -1   2    1.80    1.04
  -4  -1   1    1.06    1.06
   4   1  -1    2.54    1.05
  -4  -1   0    4.01    1.59
  -4  -1  -1   49.66    3.66
  -4  -1  -2    7.35    1.73
  -4  -1  -2    6.77    1.74
  -4  -1  -3   17.91    2.48
  -4  -1  -3   18.04    2.24
  -4  -1  -4    1.95    1.03
  -4  -1  -4    3.61    1.53
  -4  -1  -5    4.86    1.50
  -4  -1  -6  106.33    5.02
  -4  -1  -7    3.76    1.15
  -4  -1  -8   46.94    2.37
  -4  -1  -8   45.01    2.25
  -4  -2   5   37.64    2.17
  -4  -2   4   16.95    1.74
  -4  -2   3    0.44    0.83
  -4  -2   2   13.53    1.92
  -4  -2   1    1.22    1.08
  -4  -2   0    1.17    0.99
  -4  -2  -1   54.75    3.76
  -4  -2  -2    1.40    1.17
  -4  -2  -2    2.58    1.24
  -4  -2  -3    1.06    0.93
  -4  -2  -3    0.11    1.01
  -4  -2  -4    0.93    0.94
  -4  -2  -4    1.94    1.31
  -4  -2  -5    1.82    1.39
  -4  -2  -6    1.80    1.34
  -4  -2  -7   17.19    2.01
  -4  -2  -8   -1.09    0.68
  -4  -2  -8   -1.10    0.82
  -4  -3   5    7.55    1.08
  -4  -3   4   11.32    1.48
  -4  -3   3    6.56    1.24
  -4  -3   2    7.43    1.50
  -4  -3   1    8.97    1.62
  -4  -3   0    3.01    1.17
  -4  -3  -1    5.68    1.45
  -4  -3  -1    1.45    1.04
  -4  -3  -2    1.46    1.07
  -4  -3  -2    1.22    1.06
  -4  -3  -3    1.67    1.06
  -4  -3  -3    3.69    1.54
  -4  -3  -4    2.23    1.46
  -4  -3  -4   11.62    1.75
  -4  -3  -5    4.01    1.58
  -4  -3  -6    3.12    1.29
  -4  -3  -7    0.20    0.94
  -4  -3  -7    0.31    1.05
  -4  -3  -8    0.82    0.65
  -4  -3  -8    0.75    0.63
  -4  -4   5   -0.17    0.48
  -4  -4   4   17.23    1.65
  -4  -4   3    9.67    1.40
  -4  -4   2   21.96    2.13
  -4  -4   1    2.04    1.01
  -4  -4   0   24.13    2.33
  -4  -4   0    8.42    1.34
  -4  -4  -1   13.33    1.80
  -4  -4  -1   16.09    2.00
  -4  -4  -2    3.94    1.21
  -4  -4  -2    0.90    0.97
  -4  -4  -2    1.00    0.92
  -4  -4  -3    0.20    1.22
  -4  -4  -3   11.18    1.77
  -4  -4  -4    2.60    1.00
  -4  -4  -4    2.77    1.16
  -4  -4  -5   66.40    3.92
  -4  -4  -5   72.03    4.41
  -4  -4  -6    5.68    1.35
  -4  -4  -6    4.32    1.31
  -4  -4  -7    9.77    1.51
  -4  -4  -7    7.34    1.36
  -4  -4  -8    1.65    0.72
  -4  -4  -8    1.37    0.74
  -4  -5   4    2.02    0.71
  -4  -5   3    7.19    1.15
  -4  -5   2   62.67    3.25
  -4  -5   1  144.76    5.06
  -4  -5   0   57.80    3.31
  -4  -5  -1   42.85    3.00
  -4  -5  -1   39.77    2.76
  -4  -5  -2    1.46    1.06
  -4  -5  -2   -4.70    1.47
  -4  -5  -3   17.41    2.15
  -4  -5  -3   24.25    2.28
  -4  -5  -4   12.65    1.66
  -4  -5  -4   13.39    1.99
  -4  -5  -5   15.83    1.92
  -4  -5  -5   16.12    2.25
  -4  -5  -5   20.95    2.11
  -4  -5  -6   -0.52    0.73
  -4  -5  -6   -0.08    0.96
  -4  -5  -7    2.92    0.95
  -4  -5  -7    1.84    0.98
  -4  -5  -8    0.41    0.53
  -4  -5  -8    2.87    0.84
  -4  -6   3    2.08    0.70
  -4  -6   2   14.40    1.49
  -4  -6   1   36.14    2.31
  -4  -6   0    7.37    1.19
  -4  -6   0   -1.11    1.15
  -4  -6  -1   27.82    2.26
  -4  -6  -1    5.79    1.07
  -4  -6  -2    3.55    1.23
  -4  -6  -2    8.11    1.40
  -4  -6  -3    9.34    1.62
  -4  -6  -3   14.39    1.79
  -4  -6  -4    1.76    1.15
  -4  -6  -4   22.63    2.09
  -4  -6  -5    6.73    1.26
  -4  -6  -5    5.08    1.40
  -4  -6  -6    2.77    0.90
  -4  -6  -6    2.59    1.08
  -4  -6  -7   -0.19    0.61
  -4  -6  -7    1.44    0.85
  -4  -7   1   -2.40    0.77
  -4  -7   0    1.09    0.66
  -4  -7  -1    6.81    1.06
  -4  -7  -1   -4.36    1.02
  -4  -7  -2   11.86    1.37
  -4  -7  -2    2.34    0.84
  -4  -7  -3    2.80    1.08
  -4  -7  -3    9.89    1.53
  -4  -7  -4    2.14    1.02
  -4  -7  -4   20.15    1.81
  -4  -7  -5    2.40    1.10
  -4  -8   0   -0.92    0.57
  -4  -8  -1   12.56    1.18
  -4  -8  -2   26.26    1.68
  -4  -8  -2   15.21    1.37
  -4  -8  -3   19.06    1.48
  -4  -8  -4    7.24    0.99
   0   0   0    0.00    0.00


TITL MN-27e3scaled in P-1
REM P-1 (#2 in standard setting)
CELL 1.54184   3.892835   9.362845  10.700594  81.0530  83.7309  79.0262
ZERR    2.00   0.001013   0.001579   0.001374   0.0124   0.0164   0.0182
LATT  1
SFAC C H N O
UNIT 16.00 18.00 2.00 6.00
TREF
HKLF 4
END
_computing_structure_solution     'SHELXT 2014/5 (Sheldrick, 2014)'
;
_shelx_hkl_checksum              44786
_ins_header
;
TITL MN-27e3scaled in P-1 
REM P-1 (#2 in standard setting)
CELL 1.54184   3.892835   9.362845  10.700594  81.0530  83.7309  79.0262
ZERR    2.00   0.001013   0.001579   0.001374   0.0124   0.0164   0.0182
LATT  1
SFAC C H N O
UNIT 16.00 18.00 2.00 6.00
TREF
HKLF 4
END
;
_olex2_date_sample_data_collection 2019-05-16
_olex2_date_sample_submission    2019-05-13
_olex2_exptl_crystal_mounting_method
'The crystal was mounted on a MITIGEN holder with oil'
_olex2_submission_special_instructions 'No special instructions were received'
_oxdiff_exptl_absorpt_empirical_details
;
Empirical correction (ABSPACK) includes:
- Absorption correction using spherical harmonics
- Frame scaling
;
_oxdiff_exptl_absorpt_empirical_full_max 2.083
_oxdiff_exptl_absorpt_empirical_full_min 0.735
loop_
_space_group_symop_operation_xyz
'x, y, z'
'-x, -y, -z'
loop_
_atom_site_label
_atom_site_type_symbol
_atom_site_fract_x
_atom_site_fract_y
_atom_site_fract_z
_atom_site_U_iso_or_equiv
_atom_site_adp_type
_atom_site_occupancy
_atom_site_site_symmetry_order
_atom_site_calc_flag
_atom_site_refinement_flags_posn
_atom_site_refinement_flags_adp
_atom_site_refinement_flags_occupancy
_atom_site_disorder_assembly
_atom_site_disorder_group
O1 O 0.2032(5) 0.59834(19) 0.90215(16) 0.0295(4) Uani 1 1 d . . . . .
O2 O 0.8050(5) 0.63520(19) 0.56964(17) 0.0333(5) Uani 1 1 d . . . . .
O3 O 0.4419(5) 0.1856(2) 0.79288(17) 0.0353(5) Uani 1 1 d . . . . .
N1 N 0.6716(5) 0.3669(2) 0.66477(18) 0.0267(5) Uani 1 1 d . . . . .
H1 H 0.802581 0.385516 0.596301 0.032 Uiso 1 1 calc R . . . .
C1 C 0.2781(6) 0.7310(3) 0.8499(2) 0.0272(5) Uani 1 1 d . . . . .
C2 C 0.1221(7) 0.8498(3) 0.9279(2) 0.0323(6) Uani 1 1 d . . . . .
H2A H -0.128748 0.858311 0.936855 0.048 Uiso 1 1 calc GR . . . .
H2B H 0.183838 0.941204 0.886838 0.048 Uiso 1 1 calc GR . . . .
H2C H 0.210868 0.826342 1.010271 0.048 Uiso 1 1 calc GR . . . .
C3 C 0.4763(6) 0.7475(3) 0.7387(2) 0.0281(5) Uani 1 1 d . . . . .
H3 H 0.520515 0.840515 0.704980 0.034 Uiso 1 1 calc R . . . .
C4 C 0.6209(6) 0.6261(3) 0.6708(2) 0.0261(5) Uani 1 1 d . . . . .
C5 C 0.5321(6) 0.4843(3) 0.7317(2) 0.0253(5) Uani 1 1 d . . . . .
C6 C 0.6201(6) 0.2261(3) 0.6976(2) 0.0279(5) Uani 1 1 d . . . . .
C7 C 0.7943(7) 0.1218(3) 0.6058(2) 0.0315(6) Uani 1 1 d . . . . .
H7A H 0.932454 0.037616 0.650951 0.047 Uiso 1 1 calc GR . . . .
H7B H 0.943292 0.170634 0.542585 0.047 Uiso 1 1 calc GR . . . .
H7C H 0.617821 0.090926 0.565386 0.047 Uiso 1 1 calc GR . . . .
C8 C 0.3297(6) 0.4776(3) 0.8425(2) 0.0279(5) Uani 1 1 d . . . . .
H8 H 0.274070 0.387391 0.879669 0.034 Uiso 1 1 calc R . . . .
loop_
_atom_site_aniso_label
_atom_site_aniso_U_11
_atom_site_aniso_U_22
_atom_site_aniso_U_33
_atom_site_aniso_U_23
_atom_site_aniso_U_13
_atom_site_aniso_U_12
O1 0.0346(9) 0.0285(8) 0.0248(8) -0.0031(6) 0.0088(6) -0.0109(7)
O2 0.0407(10) 0.0306(8) 0.0272(9) -0.0016(7) 0.0123(7) -0.0134(7)
O3 0.0441(10) 0.0303(8) 0.0311(9) -0.0020(7) 0.0122(8) -0.0158(7)
N1 0.0303(10) 0.0260(10) 0.0232(9) -0.0010(7) 0.0062(7) -0.0102(7)
C1 0.0276(11) 0.0286(11) 0.0269(11) -0.0030(9) -0.0004(9) -0.0103(9)
C2 0.0334(13) 0.0321(12) 0.0325(12) -0.0072(10) 0.0046(10) -0.0104(10)
C3 0.0311(12) 0.0261(11) 0.0271(11) 0.0005(9) 0.0012(9) -0.0108(9)
C4 0.0269(11) 0.0276(11) 0.0241(10) 0.0002(8) 0.0009(8) -0.0101(8)
C5 0.0277(11) 0.0255(11) 0.0234(10) -0.0018(8) 0.0005(9) -0.0091(8)
C6 0.0299(12) 0.0278(11) 0.0264(11) -0.0003(9) 0.0002(9) -0.0103(9)
C7 0.0381(13) 0.0262(11) 0.0304(12) -0.0042(9) 0.0074(9) -0.0114(9)
C8 0.0308(12) 0.0268(11) 0.0265(11) -0.0019(8) 0.0031(9) -0.0104(9)
loop_
_atom_type_symbol
_atom_type_description
_atom_type_scat_dispersion_real
_atom_type_scat_dispersion_imag
_atom_type_scat_source
C C 0.0181 0.0091 'International Tables Vol C Tables 4.2.6.8 and 6.1.1.4'
H H 0.0000 0.0000 'International Tables Vol C Tables 4.2.6.8 and 6.1.1.4'
N N 0.0311 0.0180 'International Tables Vol C Tables 4.2.6.8 and 6.1.1.4'
O O 0.0492 0.0322 'International Tables Vol C Tables 4.2.6.8 and 6.1.1.4'
loop_
_exptl_crystal_face_index_h
_exptl_crystal_face_index_k
_exptl_crystal_face_index_l
_exptl_crystal_face_perp_dist
0 -2 -6 0.0643
0 2 6 0.0643
0 -6 0 0.0144
0 6 0 0.0144
2 2 4 0.0368
-2 -2 -4 0.0368
-2 -2 2 0.0751
2 2 -2 0.0751
1 5 4 0.0228
-1 -5 -4 0.0228
loop_
_geom_angle_atom_site_label_1
_geom_angle_atom_site_label_2
_geom_angle_atom_site_label_3
_geom_angle
_geom_angle_site_symmetry_1
_geom_angle_site_symmetry_3
_geom_angle_publ_flag
C1 O1 C8 120.02(18) . . ?
C5 N1 H1 116.9 . . ?
C6 N1 H1 116.9 . . ?
C6 N1 C5 126.15(19) . . ?
O1 C1 C2 112.9(2) . . ?
C3 C1 O1 121.2(2) . . ?
C3 C1 C2 125.9(2) . . ?
C1 C2 H2A 109.5 . . ?
C1 C2 H2B 109.5 . . ?
C1 C2 H2C 109.5 . . ?
H2A C2 H2B 109.5 . . ?
H2A C2 H2C 109.5 . . ?
H2B C2 H2C 109.5 . . ?
C1 C3 H3 118.9 . . ?
C1 C3 C4 122.2(2) . . ?
C4 C3 H3 118.9 . . ?
O2 C4 C3 124.7(2) . . ?
O2 C4 C5 120.8(2) . . ?
C3 C4 C5 114.5(2) . . ?
N1 C5 C4 114.22(19) . . ?
C8 C5 N1 126.2(2) . . ?
C8 C5 C4 119.6(2) . . ?
O3 C6 N1 123.2(2) . . ?
O3 C6 C7 121.7(2) . . ?
N1 C6 C7 115.1(2) . . ?
C6 C7 H7A 109.5 . . ?
C6 C7 H7B 109.5 . . ?
C6 C7 H7C 109.5 . . ?
H7A C7 H7B 109.5 . . ?
H7A C7 H7C 109.5 . . ?
H7B C7 H7C 109.5 . . ?
O1 C8 H8 118.7 . . ?
C5 C8 O1 122.5(2) . . ?
C5 C8 H8 118.7 . . ?
loop_
_geom_bond_atom_site_label_1
_geom_bond_atom_site_label_2
_geom_bond_distance
_geom_bond_site_symmetry_2
_geom_bond_publ_flag
O1 C1 1.352(3) . ?
O1 C8 1.368(3) . ?
O2 C4 1.232(3) . ?
O3 C6 1.221(3) . ?
N1 H1 0.8600 . ?
N1 C5 1.396(3) . ?
N1 C6 1.357(3) . ?
C1 C2 1.491(3) . ?
C1 C3 1.350(3) . ?
C2 H2A 0.9600 . ?
C2 H2B 0.9600 . ?
C2 H2C 0.9600 . ?
C3 H3 0.9300 . ?
C3 C4 1.435(3) . ?
C4 C5 1.470(3) . ?
C5 C8 1.349(3) . ?
C6 C7 1.510(3) . ?
C7 H7A 0.9600 . ?
C7 H7B 0.9600 . ?
C7 H7C 0.9600 . ?
C8 H8 0.9300 . ?
loop_
_exptl_oxdiff_crystal_face_indexfrac_h
_exptl_oxdiff_crystal_face_indexfrac_k
_exptl_oxdiff_crystal_face_indexfrac_l
_exptl_oxdiff_crystal_face_x
_exptl_oxdiff_crystal_face_y
_exptl_oxdiff_crystal_face_z
-0.0016 -2.0141 -5.9992 -0.5918 0.4723 0.4793
0.0016 2.0141 5.9992 0.5918 -0.4723 -0.4793
0.0004 -6.0028 0.0169 -0.3281 -0.6564 0.7029
-0.0004 6.0028 -0.0169 0.3281 0.6564 -0.7029
1.9979 2.0109 4.0031 -0.2448 -0.5050 -0.7528
-1.9979 -2.0109 -4.0031 0.2448 0.5050 0.7528
-1.9961 -1.9977 2.0018 0.7273 -0.1861 0.5079
1.9961 1.9977 -2.0018 -0.7273 0.1861 -0.5079
0.9993 5.0117 3.9919 0.2571 -0.0453 -0.9267
-0.9993 -5.0117 -3.9919 -0.2571 0.0453 0.9267
loop_
_hkl_oxdiff_h
_hkl_oxdiff_k
_hkl_oxdiff_l
_hkl_oxdiff_f2
_hkl_oxdiff_sig
_hkl_oxdiff_ba
0 0 -1 191.378 55.8046 3
0 0 -1 150.256 44.9427 5
0 0 -2 85749.9 1212.36 5
0 0 -2 85330.9 1194.12 3
0 0 -3 1995.57 234.798 3
0 0 -4 22438.7 896.086 3
0 0 -4 23075.0 1083.79 7
0 0 -5 8400.75 763.640 7
0 0 -5 7915.74 600.561 3
0 0 -6 3866.95 472.023 3
0 0 -6 3440.61 593.588 7
0 0 -7 2123.82 399.210 3
0 0 -7 1931.65 492.400 7
0 0 -8 5028.29 831.371 7
0 0 -9 562.446 145.042 29
0 0 -9 502.904 130.934 33
0 0 -9 462.764 139.795 24
0 0 -10 -26.4965 95.9006 33
0 0 -10 110.391 107.562 10
0 0 -10 97.4516 105.479 29
0 0 -11 -58.7005 119.217 10
0 0 -11 2.61549 80.5887 29
0 0 -11 -20.0740 93.3788 33
0 0 12 2929.10 266.439 12
0 0 -12 2973.14 222.441 10
0 0 13 -2.48044 59.5661 12
0 1 -12 742.126 116.243 10
0 1 -12 712.307 117.316 29
0 -1 12 623.218 131.230 12
0 1 -11 8436.95 402.296 10
0 1 -11 9105.91 459.291 29
0 1 -11 8023.08 393.439 33
0 1 -10 642.580 147.320 29
0 1 -10 771.330 156.935 33
0 1 -9 127.887 104.021 33
0 1 -8 846.326 288.091 3
0 1 -8 1265.04 452.599 7
0 1 -7 18472.5 1213.84 3
0 1 -7 19082.1 1493.21 7
0 1 -6 15325.7 1211.79 7
0 1 -6 17034.8 1090.77 3
0 1 -5 43940.9 1552.65 3
0 1 -4 15889.0 835.555 3
0 1 -3 39608.3 1145.59 3
0 1 -2 91367.9 1133.98 6
0 1 -2 90465.7 673.354 5
0 -1 2 91042.4 1396.59 9
0 -1 0 116497. 946.377 4
0 -1 0 116442. 843.977 1
0 -1 -1 86.5676 44.1222 4
0 -1 -3 28855.4 757.872 3
0 -1 -4 882.972 187.384 3
0 -1 -4 1025.88 262.247 7
0 -1 -5 1112.14 296.188 7
0 -1 -5 931.275 213.124 3
0 -1 -6 8058.12 646.921 3
0 -1 -6 8162.75 838.176 7
0 -1 -7 249.871 225.432 7
0 -1 -8 178.469 248.888 7
0 -1 -9 4244.40 337.245 33
0 -1 -9 4808.32 350.972 10
0 -1 -9 4972.83 363.617 29
0 -1 -9 4098.02 333.335 24
0 -1 -10 3784.83 320.315 29
0 -1 -10 3393.66 320.258 33
0 -1 -10 3526.86 314.152 10
0 -1 -11 3525.11 296.059 33
0 -1 -11 3634.33 302.556 10
0 -1 -11 4051.11 314.128 29
0 1 12 5332.04 383.085 12
0 -1 -12 5590.04 313.865 10
0 1 13 250.127 80.6036 12
0 -1 -13 194.934 73.6507 10
0 2 -12 38.9237 49.3537 29
0 -2 12 36.7664 68.0513 12
0 2 -11 29.7166 72.7491 29
0 2 -11 56.3823 91.6235 10
0 2 -10 2518.14 236.705 33
0 2 -10 2790.77 276.588 29
0 2 -9 1604.33 202.783 33
0 2 -8 2142.15 226.758 33
0 2 -7 2004.76 535.968 7
0 2 -7 2178.79 462.005 3
0 2 -6 -2.22822 139.731 3
0 2 -5 4915.20 583.657 3
0 2 -4 10338.7 736.583 3
0 2 -3 17966.3 611.825 6
0 -2 3 18094.4 894.555 9
0 2 -2 40874.3 912.633 6
0 -2 2 41724.1 1161.35 9
0 -2 1 36531.3 985.805 2
0 -2 0 31252.1 591.479 1
0 -2 0 31041.1 813.831 2
0 -2 -1 42626.6 717.160 4
0 -2 -2 138.143 66.1040 4
0 -2 -3 11783.8 687.044 7
0 -2 -3 9558.84 413.894 4
0 -2 -4 66622.1 1848.76 7
0 -2 -5 984.966 292.008 7
0 -2 -6 943.227 334.718 7
0 -2 -7 1015.87 365.819 7
0 -2 -8 618.334 294.266 7
0 -2 -9 5302.08 378.951 24
0 -2 -9 5092.82 381.732 33
0 -2 -9 6147.26 407.646 10
0 -2 -10 1140.96 205.782 10
0 -2 -10 1044.25 192.005 33
0 -2 -11 4922.97 353.441 10
0 2 12 1202.68 196.039 12
0 -2 -12 1152.18 165.416 10
0 2 13 -1.12593 68.1643 12
0 -2 -13 43.0864 59.2637 10
0 -3 11 277.827 97.3449 12
0 3 -11 168.619 85.5635 29
0 3 -10 229.238 123.328 29
0 3 -10 -18.3192 73.6197 33
0 -3 9 34.7537 87.9389 35
0 3 -9 98.1347 94.9172 33
0 3 -8 9934.88 474.499 33
0 3 -7 2067.21 476.389 3
0 3 -6 89.3223 131.544 3
0 3 -5 59.0095 135.699 3
0 3 -4 677.624 248.565 3
0 -3 3 31729.9 1298.45 9
0 -3 2 28183.7 1129.11 9
0 -3 1 39681.3 958.385 1
0 -3 1 40374.6 1231.46 2
0 -3 1 40683.8 1299.27 9
0 -3 0 16169.8 741.250 2
0 -3 0 15373.0 515.580 1
0 -3 0 16678.9 817.350 9
0 -3 -1 19391.9 636.908 4
0 -3 -1 19083.1 803.769 9
0 -3 -1 21014.0 928.941 2
0 -3 -2 4022.73 449.314 7
0 -3 -2 3958.46 465.301 2
0 -3 -2 3296.30 247.178 4
0 -3 -2 3244.07 326.149 9
0 -3 -3 164.214 140.875 9
0 -3 -3 -20.2093 133.353 7
0 -3 -4 43937.5 1644.22 7
0 -3 -5 12650.5 995.885 7
0 -3 -6 5592.32 729.192 7
0 -3 -7 46.8641 201.236 7
0 -3 -9 42310.4 992.910 24
0 -3 -9 42427.8 1044.73 10
0 -3 -10 4778.66 377.035 10
0 3 11 3422.76 342.027 12
0 -3 -11 3580.40 315.375 10
0 -3 -12 156.688 115.108 10
0 3 12 279.536 113.426 12
0 -3 -13 394.781 86.0151 10
0 -3 -13 285.040 74.6222 18
0 4 -11 638.834 100.487 29
0 -4 11 456.302 118.320 11
0 4 -10 789.933 138.895 29
0 -4 10 621.186 121.329 35
0 4 -9 8212.78 396.755 33
0 4 -8 10101.8 476.485 33
0 4 -7 17927.9 645.668 33
0 4 -6 2080.33 471.050 3
0 4 -5 113.344 178.530 3
0 4 -4 834.105 275.564 3
0 -4 3 44109.0 1723.79 9
0 -4 2 41702.4 1612.33 9
0 -4 1 55028.9 1792.44 9
0 -4 0 22978.1 1074.00 2
0 -4 0 23658.6 1115.91 9
0 -4 -1 73.4271 173.172 2
0 -4 -1 180.545 194.461 9
0 -4 -2 48642.9 1731.18 2
0 -4 -2 46203.7 1385.13 9
0 -4 -3 -9.36810 178.614 2
0 -4 -3 7.25221 141.503 7
0 -4 -4 90120.0 2620.51 7
0 -4 -4 90035.5 2663.20 2
0 -4 -5 85.0595 185.543 7
0 -4 -5 204.834 236.564 2
0 -4 -6 2583.67 540.151 7
0 -4 -6 2740.42 584.542 2
0 -4 -7 3364.35 685.947 2
0 -4 -7 2950.34 644.345 7
0 -4 -8 1306.53 197.781 24
0 -4 -8 1325.22 206.892 10
0 -4 -9 13478.6 606.049 10
0 -4 -9 12938.2 567.778 24
0 -4 -10 3692.45 334.128 10
0 4 10 3168.25 326.565 12
0 -4 -11 129.525 118.716 10
0 4 11 67.5844 110.278 12
0 -4 -12 397.013 110.565 10
0 -4 -12 519.537 115.153 18
0 -5 10 1270.69 141.859 35
0 5 -10 1715.60 161.611 29
0 -5 10 1741.68 193.181 11
0 5 -9 17478.3 565.510 29
0 5 -9 17843.6 527.730 33
0 -5 9 16352.0 598.500 35
0 -5 9 18055.3 684.174 11
0 5 -8 5321.41 337.248 33
0 5 -7 9549.12 479.967 33
0 -5 6 1503.64 213.640 32
0 5 -5 7205.60 908.371 3
0 5 -4 1502.11 399.694 3
0 -5 3 449.689 283.097 9
0 -5 2 501.763 297.519 9
0 -5 1 680.493 306.517 9
0 -5 0 14149.8 1007.93 2
0 -5 0 14127.2 1012.59 9
0 -5 -1 -9.59624 168.012 2
0 -5 -1 197.775 231.453 9
0 -5 -2 316.846 211.748 2
0 -5 -2 253.018 206.271 9
0 -5 -3 10137.1 937.109 2
0 -5 -4 318.157 216.996 2
0 -5 -4 222.515 217.680 7
0 -5 -5 42.5977 226.238 7
0 -5 -5 71.5090 223.474 2
0 -5 -6 2505.05 602.042 2
0 -5 -6 2241.11 554.034 7
0 -5 -7 1681.40 228.931 10
0 -5 -8 2719.98 290.628 10
0 -5 -9 2955.34 301.112 10
0 -5 -10 2571.64 273.143 10
0 -5 -10 2921.49 284.170 18
0 -5 -11 592.963 140.012 18
0 -5 -11 524.388 137.989 10
0 -5 -12 37.8776 86.9902 10
0 -5 -12 26.5749 64.2960 18
0 -5 -12 5.13001 66.7591 34
0 -6 10 -13.3586 69.8012 11
0 -6 9 48.6610 69.1833 35
0 6 -9 6.10972 46.5066 29
0 -6 9 24.5506 103.088 11
0 6 -8 56.2221 67.4475 33
0 -6 8 169.280 159.760 11
0 6 -8 47.3848 63.3425 29
0 6 -7 4433.68 315.642 33
0 -6 7 4818.20 417.991 11
0 -6 6 149.187 127.055 32
0 -6 6 335.454 198.747 11
0 -6 5 7057.93 502.395 11
0 -6 5 6675.74 418.884 32
0 -6 5 6924.32 431.672 25
0 -6 4 298.460 149.259 32
0 -6 4 131.370 126.057 25
0 -6 4 205.744 202.472 11
0 6 -3 4164.25 615.921 3
0 -6 2 1793.46 495.921 9
0 -6 1 498.405 327.106 9
0 -6 0 321.914 274.134 9
0 -6 -1 526.985 315.093 2
0 -6 -1 202.435 300.157 9
0 -6 -2 802.359 368.172 2
0 -6 -3 7257.55 907.258 2
0 -6 -4 7491.71 943.787 2
0 -6 -5 1270.90 395.399 2
0 -6 -6 1903.69 228.462 34
0 -6 -6 1961.14 237.670 18
0 -6 -6 2010.62 245.192 10
0 -6 -7 365.630 137.574 18
0 -6 -7 528.424 162.137 10
0 -6 -8 5499.24 397.283 10
0 -6 -8 5722.80 397.624 18
0 -6 -9 26.2403 101.983 18
0 -6 -9 -68.8971 124.753 10
0 -6 -10 354.147 147.719 10
0 -6 -10 358.352 119.615 34
0 -6 -10 314.057 123.793 18
0 -6 -11 -33.6333 75.5086 18
0 -6 -11 34.2493 73.4357 34
0 -7 9 1010.21 108.556 35
0 -7 9 1553.36 131.918 11
0 -7 8 1300.74 162.920 11
0 -7 8 1375.20 163.435 35
0 -7 7 186.064 112.638 11
0 7 -7 229.814 81.3258 33
0 -7 6 141.308 146.031 11
0 -7 5 216.106 141.707 25
0 -7 5 -63.9145 130.533 32
0 -7 5 -10.7119 128.954 11
0 -7 4 -165.801 142.434 11
0 -7 4 115.071 130.830 32
0 -7 4 124.025 127.511 25
0 -7 3 212.706 128.436 25
0 -7 3 226.011 159.074 32
0 -7 2 594.756 174.047 25
0 -7 2 360.632 141.190 32
0 -7 -1 32752.8 1885.29 9
0 -7 -1 35887.9 2122.74 2
0 -7 -2 22057.9 1672.55 2
0 -7 -3 6031.14 915.251 2
0 -7 -4 3749.49 313.872 15
0 -7 -4 3752.49 302.078 34
0 -7 -5 227.923 118.245 34
0 -7 -5 452.147 139.919 18
0 -7 -6 4446.45 342.009 34
0 -7 -6 4256.30 339.206 18
0 -7 -7 1854.00 231.408 34
0 -7 -7 2096.63 244.044 18
0 -7 -8 689.468 152.313 34
0 -7 -8 626.636 155.539 18
0 -7 -9 904.263 164.841 18
0 -7 -9 764.414 145.735 34
0 -7 -10 44.6958 89.8104 18
0 -7 -10 152.862 92.2896 34
0 -7 -11 339.893 90.3311 15
0 -7 -11 291.620 74.8017 34
0 -8 8 70.6039 45.9849 35
0 8 -7 1436.17 128.995 33
0 8 -6 1461.04 165.994 33
0 -8 6 1134.22 156.534 11
0 -8 6 1313.34 171.945 21
0 -8 5 2231.43 234.335 11
0 -8 4 192.667 148.973 32
0 -8 4 148.002 112.975 25
0 -8 3 4834.49 377.209 25
0 -8 3 3916.31 330.304 32
0 -8 3 3718.10 346.180 22
0 -8 2 1534.65 242.167 25
0 -8 2 1113.95 188.078 32
0 -8 2 987.483 211.402 22
0 -8 1 1513.25 227.829 25
0 -8 1 1123.32 190.410 32
0 -8 0 19716.8 699.898 34
0 -8 0 19514.9 703.433 15
0 -8 0 19640.6 748.484 25
0 -8 -1 21181.4 732.763 15
0 -8 -1 22178.8 734.708 34
0 -8 -1 22017.2 783.814 25
0 -8 -2 7137.42 449.622 25
0 -8 -2 6117.03 395.971 34
0 -8 -2 6828.00 506.053 22
0 -8 -2 6511.83 411.215 15
0 -8 -3 1641.36 229.353 15
0 -8 -3 1853.37 244.890 25
0 -8 -3 1681.88 207.300 34
0 -8 -3 1779.90 273.326 22
0 -8 -4 10885.8 547.776 15
0 -8 -4 10133.8 513.182 34
0 -8 -4 11288.5 601.780 22
0 -8 -5 346.078 125.352 34
0 -8 -5 270.101 138.041 15
0 -8 -6 384.282 132.958 34
0 -8 -6 409.506 135.889 15
0 -8 -7 2703.17 280.896 15
0 -8 -7 2631.53 254.364 34
0 -8 -8 116.924 92.5099 34
0 -8 -8 52.3119 104.836 15
0 -8 -9 35.2090 78.5787 15
0 -8 -9 51.5643 69.6360 34
0 -8 -10 -39.8438 51.5962 34
0 -8 -10 117.843 73.4923 15
0 -9 6 67.3832 48.3794 35
0 -9 5 2391.55 207.741 21
0 -9 4 277.417 104.129 25
0 -9 3 227.720 112.227 25
0 -9 3 234.817 117.337 22
0 -9 2 184.949 120.087 25
0 -9 2 70.8194 107.471 22
0 -9 1 1255.46 220.769 25
0 -9 1 907.875 196.273 22
0 -9 1 800.986 163.124 32
0 -9 0 4979.18 430.187 22
0 -9 0 5076.27 387.482 25
0 -9 -1 2258.83 237.383 34
0 -9 -1 2475.08 255.065 15
0 -9 -1 2554.19 332.188 22
0 -9 -1 2289.36 277.347 25
0 -9 -2 132.540 123.530 25
0 -9 -2 81.8280 130.848 22
0 -9 -2 191.732 119.303 15
0 -9 -2 62.5330 92.2128 34
0 -9 -3 1059.58 188.088 15
0 -9 -3 1170.63 185.343 34
0 -9 -3 1118.71 201.728 25
0 -9 -3 1201.96 236.647 22
0 -9 -4 2373.31 286.796 25
0 -9 -4 2006.63 227.983 34
0 -9 -4 1834.42 251.320 22
0 -9 -4 2273.95 261.879 15
0 -9 -5 725.411 160.067 15
0 -9 -5 839.876 159.768 34
0 -9 -5 1147.44 199.729 25
0 -9 -6 265.655 100.594 34
0 -9 -6 239.265 121.513 15
0 -9 -6 272.355 127.481 25
0 -9 -7 134.814 100.067 25
0 -9 -7 9.51081 86.9965 15
0 -9 -7 57.5461 85.8464 34
0 -9 -8 211.803 80.8479 34
0 -9 -8 232.472 98.7181 15
0 -9 -9 -32.1282 58.3821 15
0 -9 -9 30.9363 46.2090 34
0 -10 4 97.4158 61.6315 21
0 -10 3 2278.10 207.991 21
0 -10 3 2224.49 175.493 25
0 -10 2 1238.95 152.895 25
0 -10 2 1306.04 186.364 21
0 -10 2 827.324 149.123 22
0 -10 1 148.160 108.436 21
0 -10 1 124.847 107.898 22
0 -10 1 209.288 111.487 25
0 -10 0 209.347 121.586 25
0 -10 0 126.257 108.538 21
0 -10 0 263.236 140.568 22
0 -10 -1 366.992 139.606 25
0 -10 -1 426.850 136.715 21
0 -10 -1 477.862 165.358 22
0 -10 -2 2586.31 261.381 25
0 -10 -2 2333.79 273.226 22
0 -10 -2 2099.33 213.382 15
0 -10 -2 2013.83 204.904 34
0 -10 -3 182.696 99.8707 22
0 -10 -3 338.607 96.9065 34
0 -10 -3 306.971 107.407 15
0 -10 -3 281.607 125.058 25
0 -10 -4 59.2877 85.7924 15
0 -10 -4 4.24358 74.4700 34
0 -10 -4 123.411 126.972 25
0 -10 -5 43.1040 92.6461 25
0 -10 -5 40.2228 63.0846 34
0 -10 -5 79.7319 83.4834 15
0 -10 -6 344.480 101.967 15
0 -10 -6 404.695 109.247 25
0 -10 -6 288.362 80.3108 34
0 -10 -7 216.047 72.7563 25
0 -10 -7 102.252 70.7706 15
0 -10 -7 99.2306 58.0222 34
0 -11 1 3877.65 217.574 21
0 -11 1 4341.12 208.103 25
0 -11 0 373.637 86.4008 25
0 -11 0 341.397 78.2372 21
0 -11 -1 610.519 91.7676 21
0 -11 -1 616.975 107.323 25
0 -11 -2 151.656 78.5824 25
0 -11 -3 737.594 119.833 25
0 -11 -4 240.036 82.9387 25
1 -10 -5 190.275 80.7229 25
1 -10 -5 88.0419 61.1469 34
1 -10 -4 383.794 97.7893 25
1 -10 -4 366.221 86.2878 34
1 -10 -3 -17.4301 69.0694 22
1 -10 -3 16.5738 75.0573 25
1 -10 -3 79.5975 61.7988 34
1 -10 -2 5.61817 73.9285 25
1 -10 -2 -35.0935 74.7394 22
1 -10 -1 256.633 105.944 22
1 -10 -1 349.676 103.086 25
1 -10 0 1086.13 165.177 22
1 -10 0 1247.14 143.358 25
1 -10 1 38.5688 75.2303 22
1 -10 2 111.207 74.8035 22
1 -10 3 322.597 75.6774 21
1 -9 -8 -8.63295 41.1966 34
1 -9 -7 -14.1643 67.2181 25
1 -9 -7 -38.0227 58.4123 34
1 -9 -6 54.9820 71.0599 34
1 -9 -6 65.3121 87.9594 25
1 -9 -5 184.927 111.181 25
1 -9 -5 92.5476 76.1063 34
1 -9 -4 317.593 121.882 25
1 -9 -4 345.679 105.229 34
1 -9 -3 534.327 148.490 22
1 -9 -3 493.086 142.058 34
1 -9 -3 698.025 151.795 25
1 -9 -2 1116.80 175.140 34
1 -9 -2 1132.75 211.582 22
1 -9 -2 995.399 187.085 25
1 -9 -1 1312.28 193.512 25
1 -9 -1 1070.88 175.687 34
1 -9 0 313.580 122.394 25
1 -9 1 1816.40 208.066 32
1 -9 1 2030.28 210.832 25
1 -9 2 1123.67 173.810 32
1 -9 2 1216.07 209.506 22
1 -9 3 539.134 137.655 22
1 -9 3 586.110 136.848 32
1 -9 4 30.8928 86.9398 32
-1 9 -5 208.285 74.1064 33
1 -8 -9 72.4287 58.9571 34
1 -8 -9 120.278 67.5854 15
1 -8 -8 -7.73325 64.2182 15
1 -8 -8 65.6647 69.0797 34
1 -8 -7 153.576 86.3387 15
1 -8 -7 191.197 105.951 34
1 -8 -6 245.633 107.714 15
1 -8 -6 122.487 97.2275 34
1 -8 -5 1913.01 218.733 15
1 -8 -5 1985.04 240.424 34
1 -8 -4 408.377 138.434 34
1 -8 -3 21.0443 96.1538 34
1 -8 -3 249.722 142.103 23
1 -8 -2 8766.70 492.708 25
1 -8 -2 8410.10 487.875 34
1 -8 -1 1229.47 196.597 34
1 -8 -1 1309.45 212.263 25
1 -8 0 5602.87 387.967 25
1 -8 0 5554.29 372.972 32
1 -8 0 5510.00 383.847 34
1 -8 1 9255.03 478.771 25
1 -8 1 9094.05 484.009 32
1 -8 2 11202.0 530.095 32
1 -8 2 11367.8 507.088 25
1 -8 3 391.437 148.741 32
1 -8 4 302.164 135.977 32
1 -8 5 2246.39 228.614 32
-1 8 -6 141.108 80.0912 33
-1 8 -7 1855.93 145.737 33
1 -7 -10 118.498 65.9726 15
1 -7 -10 63.0227 61.1332 34
1 -7 -9 195.342 92.5980 34
1 -7 -9 204.490 78.8572 20
1 -7 -8 103.081 82.1648 20
1 -7 -8 72.3549 85.0164 34
1 -7 -7 828.190 142.660 20
1 -7 -7 661.168 162.791 34
1 -7 -6 495.716 161.283 34
1 -7 -6 688.380 141.731 20
1 -7 -5 2790.70 292.894 34
1 -7 -4 3714.80 332.847 34
1 -7 -3 513.221 145.514 34
1 -7 -3 415.452 141.191 23
1 -7 -2 2281.98 255.994 34
1 -7 -2 2402.42 259.279 23
1 -7 -1 7125.65 437.704 34
1 -7 -1 7345.21 432.300 23
1 -7 0 19621.5 692.321 23
1 -7 0 21004.4 721.570 25
1 -7 0 20879.0 722.476 34
1 -7 1 21749.2 741.564 25
1 -7 1 22720.9 749.457 32
1 -7 1 22888.1 758.020 34
1 -7 2 3977.69 330.675 32
1 -7 3 401.931 174.358 32
1 -7 4 427.742 165.479 32
1 -7 5 94.8643 133.861 32
1 -7 6 4.95050 111.622 32
-1 7 -7 66.0770 77.8977 33
-1 7 -8 92.1665 67.3417 33
1 -6 -11 2896.30 178.553 34
1 -6 -10 602.471 116.777 34
1 -6 -10 761.394 116.121 20
1 -6 -9 52.4156 86.2394 20
1 -6 -9 33.9327 87.2932 34
1 -6 -8 414.416 124.698 20
1 -6 -8 397.089 140.119 34
1 -6 -7 293.109 134.003 34
1 -6 -7 205.377 118.878 20
1 -6 -6 9410.04 511.566 34
1 -6 -6 10048.2 498.658 20
1 -6 -5 995.800 190.271 34
1 -6 -5 941.310 170.684 20
1 -6 -4 1400.32 203.041 34
1 -6 -4 1436.82 197.704 20
1 -6 -3 1489.74 521.974 2
1 -6 -2 6250.33 858.039 2
1 -6 -1 3123.18 626.268 9
1 -6 0 315.797 267.219 9
1 -6 1 1683.22 511.546 9
1 -6 2 817.576 163.662 23
1 -6 2 859.971 162.934 34
1 -6 3 665.253 174.529 32
1 -6 4 628.129 182.459 32
1 -6 5 1219.91 216.615 32
1 -6 6 193.479 142.344 32
-1 6 -7 2081.09 236.898 33
1 -6 7 1746.76 223.248 32
1 -6 7 2199.29 257.174 11
1 -6 8 226.175 129.128 11
-1 6 -8 -43.0628 78.3990 33
-1 6 -9 1791.20 156.360 33
1 -6 9 1287.95 146.996 11
1 -5 -11 1593.33 162.847 34
1 -5 -11 1637.17 154.665 20
1 -5 -10 81.2198 85.0876 34
1 -5 -10 29.3459 92.7141 10
1 -5 -10 75.0651 82.9393 20
1 -5 -9 1114.79 184.308 20
1 -5 -8 4528.94 355.641 20
1 -5 -7 3291.39 304.147 20
1 -5 -6 668.775 151.684 20
1 -5 -5 1047.89 441.802 2
1 -5 -4 1356.02 478.102 2
1 -5 -3 294.575 288.080 2
1 -5 -2 288.750 202.222 2
1 -5 -1 7127.06 699.153 4
1 -5 -1 6390.68 746.937 2
1 -5 0 2142.27 500.930 9
1 -5 1 84.4148 203.593 9
1 -5 2 4010.76 679.084 9
1 -5 3 275.510 303.530 9
1 -5 4 506.881 395.534 9
1 -5 5 234.445 151.615 32
1 -5 6 608.696 172.377 32
-1 5 -7 3604.14 325.559 33
1 -5 7 3190.14 298.903 32
-1 5 -8 1004.85 172.399 33
-1 5 -9 3774.83 262.377 33
-1 5 -10 1204.78 127.587 33
1 -5 10 1131.45 157.802 11
-1 5 -10 1124.71 121.835 29
1 -4 -12 244.867 68.9670 34
1 -4 -12 274.216 66.5549 20
-1 4 11 3156.17 247.033 12
1 -4 -11 3375.34 249.851 20
1 -4 -11 2882.66 230.718 10
-1 4 10 576.301 143.717 12
1 -4 -10 565.184 149.951 10
-1 4 9 240.656 122.233 12
1 -4 -9 632.950 167.750 10
1 -4 -8 8326.48 437.082 10
-1 4 8 7708.73 455.937 12
1 -4 -6 2698.26 605.665 7
1 -4 -5 2816.64 587.514 7
1 -4 -4 3217.25 584.629 7
1 -4 -3 -49.8739 142.696 4
1 -4 -2 75031.9 1990.17 4
1 -4 -1 726.161 224.319 4
1 -4 0 12221.2 876.595 2
1 -4 0 13507.7 891.965 4
1 -4 1 757.443 256.091 4
1 -4 2 7254.25 815.254 9
1 -4 3 18967.7 1316.62 9
1 -4 4 11759.6 1046.00 9
1 -4 5 7615.79 899.391 9
1 -4 6 546.875 160.243 32
-1 4 -7 246.572 126.080 33
-1 4 -8 231.491 114.460 33
-1 4 -9 10611.6 477.495 33
-1 4 -10 4296.58 267.680 33
-1 4 -11 4140.53 216.818 29
-1 4 -11 4338.18 212.320 33
1 -4 11 4231.07 249.989 11
-1 3 12 2512.95 203.088 12
1 -3 -12 2171.44 174.060 10
1 -3 -12 2365.02 180.447 20
-1 3 11 1159.42 178.312 12
1 -3 -11 954.265 166.741 10
-1 3 10 584.418 154.505 12
1 -3 -10 494.354 151.746 10
1 -3 -9 6067.45 394.951 10
-1 3 9 5889.80 427.570 12
-1 3 8 4127.33 358.884 12
1 -3 -8 4651.10 337.373 10
1 -3 -7 57481.8 2797.48 7
1 -3 -6 5534.85 821.645 7
1 -3 -5 277.320 213.454 7
1 -3 -4 6824.28 586.652 4
1 -3 -4 6942.29 769.043 7
1 -3 -3 12476.2 938.451 7
1 -3 -3 13331.4 776.096 4
1 -3 -2 63660.5 1627.45 4
1 -3 -1 296.259 152.171 4
1 -3 0 6376.01 559.007 4
1 -3 1 6963.27 621.059 4
1 -3 1 6394.45 515.447 2
1 -3 2 4813.67 545.561 4
-1 3 -3 14914.4 1180.07 6
1 -3 3 12978.3 995.276 9
-1 3 -4 10871.2 891.327 6
1 -3 4 10685.3 889.060 9
1 -3 5 7888.70 793.219 9
-1 3 -6 61.7378 178.744 3
-1 3 -7 167.694 108.678 33
-1 3 -8 381.533 121.078 33
-1 3 -9 179.213 102.649 33
-1 3 -10 5064.54 318.788 33
-1 3 -11 47.9972 68.9626 33
-1 3 -11 81.7433 63.2089 29
-1 2 12 28.7650 80.1197 12
1 -2 -12 -49.0194 74.5166 10
-1 2 11 25.8878 108.892 12
1 -2 -11 80.3218 97.3980 10
1 -2 -10 1274.33 206.966 10
-1 2 10 1176.22 233.218 12
1 -2 -9 11722.5 553.038 10
-1 2 9 12497.4 662.493 12
-1 2 8 3240.09 332.783 12
1 -2 -8 3458.74 294.332 10
1 -2 -7 17063.2 1460.33 7
1 -2 -6 1404.42 341.524 4
1 -2 -6 1446.00 421.057 7
1 -2 -5 5440.43 707.951 7
1 -2 -5 5898.70 604.367 4
1 -2 -4 840.035 241.974 4
1 -2 -4 1029.15 324.344 7
1 -2 -3 198.562 137.285 4
1 -2 -3 279.559 164.137 7
1 -2 -2 53904.9 1576.72 7
1 -2 -2 55556.5 1390.10 4
1 -2 -1 6936.47 498.899 4
1 -2 0 156.071 130.900 4
1 -2 1 36468.1 1223.13 4
1 -2 2 14714.9 862.280 4
-1 2 -3 942.988 290.031 6
1 -2 4 4489.66 524.188 9
-1 2 -4 4612.13 556.281 6
-1 2 -5 5565.15 649.021 6
1 -2 5 3451.51 484.338 9
-1 2 -6 2712.33 502.936 3
-1 2 -7 1015.23 374.537 3
-1 2 -8 154.265 110.256 33
-1 2 -9 2.80271 95.1701 33
-1 2 -10 1466.78 193.794 33
-1 2 -11 467.929 115.139 33
-1 2 -11 481.194 118.858 29
-1 2 -12 1055.17 131.099 29
-1 2 -12 769.017 106.796 33
-1 1 12 53.0915 80.2266 12
1 -1 -12 60.1491 78.7491 10
1 -1 -11 276.978 115.901 10
-1 1 11 409.499 155.182 12
1 -1 -10 10272.8 502.011 10
-1 1 10 10860.0 636.486 12
-1 1 9 6305.67 503.519 12
-1 1 8 2991.33 331.898 12
1 -1 -8 2940.34 284.755 29
1 -1 -7 6544.35 807.201 4
1 -1 -7 5943.20 833.333 7
1 -1 -6 981.450 333.844 7
1 -1 -5 589.186 256.524 7
1 -1 -4 8033.45 705.620 7
1 -1 -4 7964.08 671.846 4
1 -1 -3 1338.63 278.250 7
1 -1 -3 1428.32 272.029 4
1 -1 -2 4382.48 392.795 4
1 -1 -2 4094.66 397.407 7
1 -1 -1 33195.5 984.344 7
1 -1 -1 32437.8 974.959 4
-1 1 0 3121.30 278.459 1
-1 1 -1 433.198 113.983 1
1 -1 1 475.480 157.843 4
1 -1 2 19054.4 854.140 4
-1 1 -3 54.6606 181.731 6
-1 1 -4 8080.75 712.627 6
-1 1 -5 8603.46 796.439 6
-1 1 -6 2612.21 454.900 3
-1 1 -7 12465.1 1231.32 7
-1 1 -8 6294.47 390.633 33
-1 1 -9 4420.48 346.639 33
-1 1 -10 52.2931 96.6900 33
-1 1 -11 -17.6406 96.8623 33
-1 1 -11 58.3505 70.7729 29
-1 1 -12 531.661 109.996 33
-1 1 -12 445.683 93.5923 29
-1 0 12 3.26773 67.8272 12
1 0 -12 49.3963 70.3952 10
-1 0 11 -9.79524 100.584 12
1 0 -11 59.3459 106.112 10
-1 0 10 6276.86 458.694 12
-1 0 9 833.784 205.552 12
1 0 -9 855.401 174.748 29
1 0 -8 453.637 133.309 29
1 0 -7 1086.00 395.048 7
1 0 -6 4947.79 685.698 7
1 0 -5 2582.16 456.761 7
1 0 -4 14990.6 922.369 7
1 0 -3 3632.88 405.042 7
1 0 -2 31305.7 905.701 7
1 0 -1 6550.03 335.683 7
-1 0 0 68556.9 1466.11 1
-1 0 -1 677.153 156.271 1
1 0 1 897.851 182.370 4
1 0 2 999999. 5306.23 4
-1 0 -3 1074.18 281.289 6
-1 0 -4 22578.2 1177.53 6
-1 0 -5 89.5355 127.422 3
-1 0 -5 125.029 170.198 6
-1 0 -5 39.1086 141.756 5
-1 0 -6 7725.05 834.182 7
-1 0 -7 7862.23 966.205 7
-1 0 -8 236.226 262.178 7
-1 0 -9 1119.53 171.348 24
-1 0 -9 973.276 179.799 33
-1 0 -10 1699.73 199.732 24
-1 0 -10 1958.27 239.359 33
-1 0 -11 101.293 105.009 33
-1 0 -11 1.04733 73.2550 29
-1 0 -12 81.0815 87.1175 33
-1 0 -12 77.6042 59.4292 29
1 0 13 96.7859 66.2507 12
1 1 -12 200.520 78.4543 10
-1 -1 12 147.916 65.0143 12
-1 -1 11 2854.46 245.224 12
1 1 -11 3265.12 258.166 10
-1 -1 10 1847.30 241.649 12
1 1 -10 2096.11 244.354 29
1 1 -9 13936.1 624.143 29
-1 -1 9 15178.5 619.772 35
-1 -1 9 13853.9 670.550 12
-1 -1 8 795.094 154.054 35
1 1 -8 610.204 156.935 29
1 1 -7 491.580 297.693 7
1 1 -7 343.722 254.107 3
1 1 -6 6458.41 726.369 3
1 1 -6 5715.93 731.251 7
1 1 -5 43855.8 1777.36 7
1 1 -5 45242.8 1709.24 3
1 1 -4 27105.8 1220.78 7
1 1 -4 27813.3 1216.59 3
1 1 -3 88084.6 1870.33 7
1 1 -3 86272.7 1907.65 3
1 1 -2 34085.9 948.231 7
1 1 -2 33690.7 1049.59 3
1 1 -1 45766.1 761.107 7
1 1 -1 45654.6 1061.59 3
1 1 0 153386. 1784.83 4
-1 -1 0 152457. 2431.51 6
-1 -1 -1 76.2161 120.423 6
-1 -1 -1 216.668 51.4483 7
1 1 1 306.099 115.348 4
-1 -1 -2 124746. 1567.38 7
-1 -1 -2 125034. 2009.78 1
1 1 2 125861. 1598.38 4
-1 -1 -3 1611.60 241.707 7
-1 -1 -3 1615.99 315.521 6
-1 -1 -4 4150.67 454.204 7
-1 -1 -4 4386.58 550.460 6
-1 -1 -4 4217.60 324.709 3
-1 -1 -5 12295.7 901.116 5
-1 -1 -5 13456.0 931.924 7
-1 -1 -6 399.302 222.963 5
-1 -1 -6 357.593 215.753 7
-1 -1 -7 729.799 329.737 7
-1 -1 -8 2746.90 602.420 7
-1 -1 -9 239.474 136.652 33
-1 -1 -9 297.314 137.146 24
-1 -1 -10 12.0365 105.718 33
-1 -1 -10 37.7787 118.007 24
-1 -1 -11 2318.84 232.423 24
-1 -1 -11 2504.29 262.931 33
-1 -1 -12 2934.97 246.031 33
1 1 13 1161.72 145.336 12
1 2 -12 901.026 104.072 10
1 2 -11 853.163 139.589 10
-1 -2 11 693.908 119.192 12
-1 -2 10 88.8560 104.886 12
-1 -2 10 131.460 98.1714 35
1 2 -10 152.253 99.3475 29
-1 -2 9 189.199 122.318 35
-1 -2 9 101.874 113.525 12
1 2 -9 120.163 110.851 29
-1 -2 8 6633.94 475.438 12
1 2 -8 6214.95 432.503 29
-1 -2 8 7099.70 462.781 35
1 2 -7 3521.95 607.077 3
1 2 -7 3559.00 666.837 7
1 2 -6 2206.67 479.714 7
1 2 -6 2159.64 435.757 3
1 2 -5 17344.2 1147.73 7
1 2 -5 17743.5 1118.76 3
1 2 -4 69.3739 136.429 3
1 2 -3 6862.01 568.568 3
1 2 -2 12835.9 687.856 3
1 2 -1 22680.7 776.271 3
-1 -2 1 22457.9 542.975 6
1 2 0 39945.5 851.552 3
-1 -2 0 38908.1 945.503 6
-1 -2 -1 42414.4 1202.86 6
1 2 1 43661.5 789.101 4
-1 -2 -2 11682.7 527.635 7
-1 -2 -2 11676.6 724.934 6
-1 -2 -2 11210.1 685.418 1
1 2 2 10606.6 364.023 4
-1 -2 -3 15513.6 899.604 5
-1 -2 -3 15048.3 731.877 7
-1 -2 -4 2765.32 327.935 2
-1 -2 -4 2939.71 424.305 5
-1 -2 -4 2914.63 404.789 7
-1 -2 -5 4922.55 566.914 7
-1 -2 -5 5162.16 615.576 5
-1 -2 -6 15633.2 1119.59 5
-1 -2 -6 16113.3 1145.35 7
-1 -2 -7 764.584 301.509 7
-1 -2 -8 546.095 295.023 7
-1 -2 -9 200.898 133.550 33
-1 -2 -9 147.693 137.779 24
-1 -2 -9 190.182 136.078 10
-1 -2 -10 534.976 167.557 10
-1 -2 -10 639.481 175.875 33
-1 -2 -10 322.873 138.155 24
-1 -2 -11 935.948 180.918 24
-1 -2 -11 1025.65 180.741 10
-1 -2 -11 984.066 194.196 33
-1 -2 -12 157.288 101.553 10
1 2 13 1465.63 175.546 12
1 3 -11 2083.55 175.176 10
-1 -3 10 5886.35 348.702 35
1 3 -10 5205.78 342.100 29
-1 -3 9 288.241 118.189 35
1 3 -9 488.146 138.885 29
-1 -3 9 499.218 173.387 11
1 3 -8 566.529 155.042 29
-1 -3 8 941.780 258.701 11
-1 -3 8 398.462 159.548 35
-1 -3 7 1291.66 225.491 35
1 3 -7 1220.58 196.421 29
1 3 -6 14661.8 1152.85 3
1 3 -6 14139.8 1210.14 7
1 3 -5 6259.73 708.529 3
1 3 -4 -17.0533 119.619 3
1 3 -3 7.19544 118.368 3
1 3 -2 5256.35 492.128 3
-1 -3 1 45664.4 1128.61 5
1 3 -1 45140.6 1255.85 3
-1 -3 1 44849.4 1629.26 1
1 3 0 14095.0 586.746 3
-1 -3 0 15860.4 914.779 1
-1 -3 0 14224.9 727.468 5
-1 -3 0 15913.8 858.405 8
1 3 1 10452.4 435.673 4
-1 -3 -1 11378.0 719.767 5
1 3 1 11302.6 380.030 3
-1 -3 -1 12870.9 803.616 1
-1 -3 -1 12787.4 768.680 8
-1 -3 -2 8863.75 581.626 7
-1 -3 -2 9962.34 673.130 8
-1 -3 -2 9148.43 700.303 5
-1 -3 -2 9347.80 683.580 1
-1 -3 -3 10946.4 707.389 7
-1 -3 -3 10176.2 749.922 2
-1 -3 -3 11880.8 742.090 8
-1 -3 -3 12207.9 864.459 5
-1 -3 -4 3777.80 464.111 7
-1 -3 -4 3367.23 503.092 5
-1 -3 -4 3923.65 445.503 8
-1 -3 -4 3306.82 422.694 2
-1 -3 -5 123.169 164.415 2
-1 -3 -5 275.387 201.023 7
-1 -3 -5 210.266 229.764 5
-1 -3 -6 7227.65 799.653 7
-1 -3 -6 7454.73 854.577 5
-1 -3 -7 5182.59 735.834 7
-1 -3 -8 3314.51 270.485 24
-1 -3 -8 2997.51 659.292 7
-1 -3 -8 2666.47 277.639 33
-1 -3 -9 28.9174 113.204 24
-1 -3 -9 103.708 128.212 33
-1 -3 -9 89.6681 128.590 10
-1 -3 -10 3485.97 315.738 24
-1 -3 -10 4161.80 346.871 10
-1 -3 -10 3948.21 360.783 33
-1 -3 -11 20150.0 667.801 24
-1 -3 -11 19195.8 663.920 10
-1 -3 -12 2707.88 218.143 10
-1 -3 -13 1212.10 119.290 18
1 4 -11 121.707 68.1296 10
-1 -4 10 1648.03 188.384 11
-1 -4 10 2920.52 226.998 35
-1 -4 9 2044.76 236.062 35
-1 -4 9 1707.91 236.653 11
1 4 -9 2143.87 230.046 29
-1 -4 8 2374.89 277.041 35
-1 -4 8 2409.63 319.188 11
1 4 -8 2420.23 269.020 29
-1 -4 7 15957.3 713.530 11
-1 -4 7 16497.9 695.699 35
1 4 -7 16159.7 674.309 29
-1 -4 6 21221.7 795.224 11
1 4 -5 20460.3 1357.04 3
1 4 -4 6770.76 734.802 3
1 4 -3 365.665 183.486 3
-1 -4 3 648.020 329.556 1
-1 -4 2 4340.92 601.168 1
1 4 -2 3954.14 499.578 3
1 4 -1 128553. 2537.21 3
-1 -4 1 124062. 2832.72 8
-1 -4 1 125954. 2960.82 1
-1 -4 0 43050.8 1371.72 5
-1 -4 0 42369.7 1554.22 8
-1 -4 0 43905.8 1623.04 1
1 4 0 41493.3 1245.68 3
-1 -4 -1 54259.5 1718.53 1
-1 -4 -1 55649.1 1747.71 8
-1 -4 -1 54141.5 1714.24 5
-1 -4 -2 14774.5 986.794 5
-1 -4 -2 14606.3 934.653 1
-1 -4 -2 16085.9 950.988 8
-1 -4 -3 102.287 152.294 7
-1 -4 -3 -54.7827 184.503 2
-1 -4 -3 121.572 203.398 5
-1 -4 -3 21.8140 245.408 8
-1 -4 -4 36280.2 1510.11 7
-1 -4 -4 33951.3 1578.64 2
-1 -4 -4 38353.0 1788.87 5
-1 -4 -4 38052.8 1475.75 8
-1 -4 -5 575.703 255.027 7
-1 -4 -5 426.540 231.256 2
-1 -4 -6 46193.9 2121.23 7
-1 -4 -7 281.406 285.910 7
-1 -4 -8 927.438 179.010 24
-1 -4 -8 645.528 147.654 27
-1 -4 -8 990.141 189.203 33
-1 -4 -9 3213.16 298.103 27
-1 -4 -9 3979.88 353.559 10
-1 -4 -9 3228.55 314.137 24
-1 -4 -10 108.209 118.469 24
-1 -4 -10 252.613 157.363 10
-1 -4 -11 10115.9 466.416 24
-1 -4 -11 9288.11 470.157 10
-1 -4 -12 746.610 137.344 10
-1 -4 -12 803.026 137.181 18
-1 -5 10 -19.9918 51.0409 35
-1 -5 10 -158.567 106.232 11
-1 -5 9 -5.56832 115.700 11
1 5 -9 4.80769 53.8162 29
-1 -5 9 29.2873 74.0708 35
-1 -5 8 5597.99 367.504 35
1 5 -8 5290.00 318.714 29
-1 -5 8 5666.09 408.658 11
-1 -5 7 48355.9 1179.05 11
-1 -5 7 48597.3 1105.41 35
-1 -5 6 18963.2 760.833 11
-1 -5 5 20255.7 781.041 11
1 5 -4 968.515 323.522 3
1 5 -3 15557.9 1211.10 3
-1 -5 2 5971.04 727.520 1
1 5 -2 6135.39 736.586 3
-1 -5 1 326.315 237.981 1
1 5 -1 39.8793 171.071 3
-1 -5 1 200.867 272.918 8
-1 -5 0 537.349 238.233 1
-1 -5 0 512.859 321.652 8
-1 -5 -1 -9.67270 176.953 1
-1 -5 -1 179.350 281.444 8
-1 -5 -2 19606.0 1203.70 8
-1 -5 -3 406.725 289.248 8
-1 -5 -3 515.359 303.641 2
-1 -5 -4 340.035 229.072 2
-1 -5 -4 488.116 283.661 8
-1 -5 -5 4349.54 635.339 7
-1 -5 -5 4682.49 706.682 2
-1 -5 -6 79.7065 182.725 7
-1 -5 -7 -18.2597 233.410 7
-1 -5 -7 72.6094 119.801 10
-1 -5 -8 1670.05 225.698 24
-1 -5 -8 1610.47 227.138 27
-1 -5 -8 1694.75 217.428 17
-1 -5 -8 1799.75 250.996 10
-1 -5 -9 1480.53 221.704 24
-1 -5 -9 1187.51 216.228 10
-1 -5 -9 1033.87 194.132 27
-1 -5 -10 4135.17 327.782 24
-1 -5 -10 3932.99 336.060 18
-1 -5 -10 4109.00 350.634 10
-1 -5 -11 2327.86 222.594 24
-1 -5 -11 2484.13 254.586 18
-1 -5 -11 2166.32 236.753 10
-1 -5 -12 1389.44 160.220 18
-1 -6 9 160.959 96.1380 11
-1 -6 9 299.207 82.1890 35
-1 -6 8 0.11267 142.176 11
-1 -6 8 384.513 103.039 35
-1 -6 7 425.900 154.457 11
-1 -6 7 652.805 154.103 35
-1 -6 6 32.5351 151.832 11
-1 -6 5 10153.0 571.043 11
-1 -6 4 233.244 127.893 25
-1 -6 4 68.9521 141.309 11
1 6 -3 11877.1 1187.06 3
-1 -6 1 10317.8 1069.77 8
-1 -6 0 2849.36 593.804 8
-1 -6 -1 83.3894 252.968 8
-1 -6 -2 -8.89398 276.517 8
-1 -6 -3 294.589 368.070 8
-1 -6 -4 926.886 369.289 8
-1 -6 -4 888.844 419.283 2
-1 -6 -5 9124.05 1104.48 2
-1 -6 -6 3034.04 696.150 2
-1 -6 -6 3530.88 313.116 18
-1 -6 -6 3263.03 312.521 17
-1 -6 -6 3278.13 304.596 27
-1 -6 -7 713.759 189.186 10
-1 -6 -7 354.293 138.044 17
-1 -6 -7 454.084 157.097 18
-1 -6 -7 811.803 196.124 27
-1 -6 -8 697.430 165.118 17
-1 -6 -8 750.391 208.915 10
-1 -6 -8 1029.08 204.470 18
-1 -6 -8 1161.64 212.061 27
-1 -6 -9 165.134 148.964 10
-1 -6 -9 30.4401 119.709 27
-1 -6 -9 119.739 116.872 18
-1 -6 -10 2048.28 219.053 24
-1 -6 -10 1937.31 238.045 18
-1 -6 -11 -7.05060 83.9174 18
-1 -6 -12 204.890 76.4852 18
-1 -7 9 1392.36 113.557 35
-1 -7 8 3.73391 57.0919 35
-1 -7 7 3175.02 271.562 11
-1 -7 7 3464.34 263.228 35
-1 -7 6 4108.53 348.099 11
-1 -7 6 4599.39 341.581 35
-1 -7 5 254.785 115.895 21
-1 -7 5 -71.0382 180.689 11
-1 -7 4 396.649 145.253 25
-1 -7 4 236.374 137.447 21
-1 -7 4 162.573 143.907 11
-1 -7 3 644.640 151.032 25
-1 -7 3 201.644 147.165 11
-1 -7 2 1249.06 223.478 22
-1 -7 2 543.567 179.623 11
-1 -7 2 1084.01 190.150 25
-1 -7 1 385.849 135.404 25
-1 -7 1 559.295 362.284 8
-1 -7 0 238.076 283.647 8
-1 -7 -1 1055.27 562.286 8
-1 -7 -2 4434.05 764.055 8
-1 -7 -3 31951.8 1997.48 8
-1 -7 -4 16744.5 701.022 22
-1 -7 -4 17111.0 656.919 15
-1 -7 -4 16725.1 657.490 27
-1 -7 -4 17674.8 709.464 17
-1 -7 -5 3047.27 321.130 17
-1 -7 -5 2974.13 301.120 18
-1 -7 -5 2967.70 284.157 15
-1 -7 -5 2941.38 303.341 27
-1 -7 -6 3533.79 318.836 15
-1 -7 -6 3569.17 349.687 17
-1 -7 -6 3264.34 313.514 27
-1 -7 -6 3714.40 341.960 18
-1 -7 -7 375.984 168.546 17
-1 -7 -7 250.310 141.941 27
-1 -7 -7 325.410 139.727 15
-1 -7 -7 235.820 147.354 18
-1 -7 -8 5272.14 403.759 17
-1 -7 -8 4756.68 378.643 18
-1 -7 -8 4946.23 379.991 15
-1 -7 -8 4825.24 357.712 27
-1 -7 -9 929.584 177.456 15
-1 -7 -9 690.174 160.072 18
-1 -7 -10 684.605 144.098 18
-1 -7 -10 592.463 131.273 15
-1 -7 -11 459.537 102.272 18
-1 -8 7 246.901 79.1555 35
-1 -8 6 55.6278 74.7182 35
-1 -8 5 3390.15 280.043 21
-1 -8 5 3394.66 278.070 35
-1 -8 4 2973.55 305.374 21
-1 -8 4 3455.01 306.143 25
-1 -8 3 3249.79 308.318 25
-1 -8 3 3144.37 339.536 21
-1 -8 2 111.189 114.690 25
-1 -8 2 135.805 127.234 22
-1 -8 2 210.840 127.363 21
-1 -8 1 6284.40 429.731 25
-1 -8 1 6245.37 464.627 22
-1 -8 1 6257.95 505.913 21
-1 -8 0 1712.26 248.684 25
-1 -8 0 1709.40 260.135 22
-1 -8 0 1649.19 265.496 21
-1 -8 0 1244.50 211.187 15
-1 -8 -1 3774.06 336.125 25
-1 -8 -1 3586.93 362.355 22
-1 -8 -1 3758.58 342.209 30
-1 -8 -1 3588.49 367.949 21
-1 -8 -1 3710.12 336.474 15
-1 -8 -2 21696.5 771.141 25
-1 -8 -2 21634.4 731.554 30
-1 -8 -2 21272.0 859.525 22
-1 -8 -2 21723.5 819.154 21
-1 -8 -2 21717.0 794.390 15
-1 -8 -3 29602.2 882.356 25
-1 -8 -3 30236.5 872.972 30
-1 -8 -3 30322.5 1003.25 22
-1 -8 -3 31300.8 936.846 15
-1 -8 -4 4698.47 350.958 30
-1 -8 -4 4999.32 382.932 15
-1 -8 -5 1760.43 246.894 15
-1 -8 -6 7237.31 457.581 15
-1 -8 -7 359.002 144.564 15
-1 -8 -8 755.522 178.007 15
-1 -8 -9 2193.34 231.817 15
-1 -8 -10 163.925 78.9267 15
-1 -9 6 102.881 47.3168 35
-1 -9 5 200.101 75.6910 21
-1 -9 5 119.277 64.4804 35
-1 -9 4 659.428 129.201 21
-1 -9 3 5476.14 384.473 21
-1 -9 3 6542.10 395.094 25
-1 -9 2 686.124 175.849 25
-1 -9 2 473.522 149.487 21
-1 -9 1 12.2542 115.266 25
-1 -9 1 177.490 130.306 22
-1 -9 1 384.892 145.131 21
-1 -9 0 186.254 129.513 25
-1 -9 0 336.200 149.412 22
-1 -9 0 288.323 155.080 21
-1 -9 -1 1217.52 219.583 25
-1 -9 -1 1245.95 233.886 22
-1 -9 -1 1211.21 226.615 21
-1 -9 -1 1224.64 221.583 15
-1 -9 -2 9027.69 497.542 25
-1 -9 -2 10748.8 637.497 22
-1 -9 -2 10276.4 581.648 21
-1 -9 -2 10257.6 511.356 30
-1 -9 -2 10105.9 541.394 15
-1 -9 -3 1185.08 200.197 25
-1 -9 -3 1421.28 237.304 30
-1 -9 -3 1232.72 213.481 15
-1 -9 -4 -22.7972 96.8237 25
-1 -9 -4 15.0054 110.737 15
-1 -9 -4 110.768 128.856 30
-1 -9 -5 884.252 188.219 30
-1 -9 -5 1221.76 207.223 15
-1 -9 -6 2728.43 275.530 30
-1 -9 -6 2530.10 272.793 15
-1 -9 -7 59.8279 127.969 30
-1 -9 -7 294.725 134.815 15
-1 -9 -8 -176.878 126.050 30
-1 -9 -8 94.3839 92.4134 15
-1 -9 -9 -188.080 101.901 30
-1 -9 -9 -113.162 80.2871 15
-1 -10 4 338.161 77.4494 21
-1 -10 3 96.5914 74.4312 21
-1 -10 2 206.114 99.8123 25
-1 -10 2 188.559 90.5433 21
-1 -10 1 4363.85 308.275 25
-1 -10 1 4462.69 343.091 21
-1 -10 0 1274.46 192.269 25
-1 -10 0 1379.69 208.126 21
-1 -10 -1 49.9278 96.3421 25
-1 -10 -1 -106.896 105.183 21
-1 -10 -2 36.8360 105.214 25
-1 -10 -2 -147.901 105.244 21
-1 -10 -3 709.529 146.890 25
-1 -10 -3 696.601 158.562 15
-1 -10 -4 2257.52 226.765 25
-1 -10 -4 2580.27 255.151 30
-1 -10 -4 2242.60 251.275 15
-1 -10 -5 42.8667 75.7984 19
-1 -10 -5 249.698 114.042 15
-1 -10 -6 191.352 110.137 30
-1 -10 -6 50.2958 89.5014 15
-1 -10 -7 365.261 113.731 30
-1 -10 -7 75.4147 80.7731 15
-1 -10 -8 326.342 93.7746 30
-1 -10 -8 323.876 84.5903 15
-1 -11 2 16.4905 43.4076 21
-1 -11 1 30.7477 55.8823 25
-1 -11 1 63.9047 64.9936 21
-1 -11 1 59.5663 60.0301 19
-1 -11 0 905.878 126.560 21
-1 -11 0 1059.63 131.452 25
-1 -11 -1 4282.82 247.144 25
-1 -11 -1 4650.20 262.052 21
-1 -11 -2 520.767 108.788 25
-1 -11 -2 516.961 93.5661 21
-1 -11 -3 561.123 104.580 25
-1 -11 -3 481.526 113.668 19
-1 -11 -4 33.8301 60.1853 19
2 -9 -2 193.207 79.7668 22
2 -9 -1 347.262 99.0987 22
2 -9 1 594.942 93.4804 32
2 -9 2 60.6713 59.3125 22
2 -8 -6 92.2275 54.4967 20
2 -8 -6 97.6445 59.7632 34
2 -8 -5 239.365 86.8587 20
2 -8 -5 318.993 86.3787 34
2 -8 -4 36.0157 80.5679 25
2 -8 -4 1.84476 79.9976 23
2 -8 -4 -57.2133 63.1552 20
2 -8 -4 58.8271 75.3985 34
2 -8 -3 1011.35 156.856 25
2 -8 -3 812.024 141.619 23
2 -8 -3 954.845 148.027 34
2 -8 -2 383.658 107.538 25
2 -8 -2 439.687 130.430 23
2 -8 -2 481.774 116.606 34
2 -8 0 4049.84 272.901 32
2 -8 1 545.771 140.790 32
2 -8 2 3248.46 248.741 32
2 -8 3 2435.29 208.973 32
-2 8 -4 4257.98 236.913 33
2 -8 4 4366.91 244.516 32
2 -8 5 142.349 69.0063 32
2 -7 -8 -28.4199 52.3915 20
2 -7 -7 45.8435 68.2404 20
2 -7 -7 94.6003 75.1199 34
2 -7 -6 45.3776 72.3695 34
2 -7 -6 33.6225 78.1492 20
2 -7 -5 307.947 114.159 23
2 -7 -5 263.077 107.835 20
2 -7 -5 388.452 125.887 34
2 -7 -4 371.869 126.676 23
2 -7 -4 413.553 121.548 20
2 -7 -4 462.168 134.761 34
2 -7 -3 2440.27 254.734 23
2 -7 -3 2458.62 259.151 20
2 -7 -3 2547.04 252.349 34
2 -7 -2 2516.01 252.137 23
2 -7 -2 2598.62 264.002 34
2 -7 -2 2436.82 260.385 20
2 -7 -1 383.451 149.096 23
2 -7 -1 236.857 94.9388 34
2 -7 0 1205.27 200.081 23
2 -7 0 1172.34 175.744 34
2 -7 1 4700.84 347.433 23
2 -7 2 14062.2 575.685 32
2 -7 3 9382.18 464.004 32
2 -7 4 1824.07 223.491 32
2 -7 5 88.5020 94.8933 32
-2 7 -5 -22.9399 67.4593 33
-2 7 -6 206.481 74.1379 33
2 -7 6 108.586 82.3406 32
2 -6 -9 4007.94 221.728 20
2 -6 -8 427.686 102.791 20
2 -6 -8 379.626 90.8118 34
2 -6 -7 81.0915 90.7429 20
2 -6 -7 49.8190 74.9410 34
2 -6 -6 117.251 102.552 20
2 -6 -6 115.856 91.4675 34
2 -6 -5 53.3549 91.2752 20
2 -6 -5 17.7227 103.881 23
2 -6 -5 96.2901 110.338 34
2 -6 -4 7823.86 435.038 23
2 -6 -4 8342.73 492.655 20
2 -6 -4 8326.81 458.953 34
2 -6 -3 669.304 172.131 23
2 -6 -3 880.966 180.485 20
2 -6 -3 881.262 171.101 34
2 -6 -2 45.6440 109.449 23
2 -6 -2 238.427 125.492 20
2 -6 -2 186.786 101.904 34
2 -6 -1 1082.45 179.113 34
2 -6 -1 990.558 191.467 23
2 -6 -1 1086.58 182.634 20
2 -6 0 2839.30 288.637 20
2 -6 0 3128.85 295.652 23
2 -6 0 3219.09 294.028 34
2 -6 1 304.283 132.101 23
2 -6 1 144.733 104.132 34
-2 6 -1 510.031 178.877 13
2 -6 2 -95.2721 113.527 23
-2 6 -2 245.022 136.394 13
-2 6 -3 2129.34 248.818 13
-2 6 -4 562.899 137.706 13
2 -6 4 278.650 164.225 32
2 -6 5 302.993 142.479 32
-2 6 -6 92.3234 85.0224 33
2 -6 6 246.701 122.961 32
-2 6 -7 143.600 78.4043 33
2 -6 7 194.143 96.4248 32
-2 6 -7 101.209 65.1116 16
-2 6 -8 104.152 56.5248 33
2 -5 -10 166.140 60.9734 20
2 -5 -9 990.091 137.323 20
2 -5 -9 977.616 121.810 34
2 -5 -8 73.4917 82.3934 20
2 -5 -8 71.3292 78.3231 34
2 -5 -7 965.892 180.037 20
2 -5 -7 959.711 162.648 34
2 -5 -6 2761.34 258.939 23
2 -5 -6 2747.15 297.326 20
2 -5 -6 2762.58 268.093 34
2 -5 -5 1188.43 183.022 23
2 -5 -5 1272.48 205.995 20
2 -5 -5 1214.40 199.025 34
2 -5 -4 78.9508 105.481 23
2 -5 -4 3.29289 90.3361 20
2 -5 -4 44.6296 83.3343 34
2 -5 -3 445.573 153.888 23
2 -5 -3 450.021 139.714 20
2 -5 -3 597.979 143.352 34
2 -5 -2 1207.48 197.390 23
2 -5 -2 1124.53 192.712 20
2 -5 -2 1293.85 194.132 34
2 -5 -1 236.069 130.154 23
2 -5 -1 229.414 119.243 20
2 -5 -1 422.267 123.588 34
2 -5 0 682.466 163.239 23
2 -5 0 426.538 135.652 20
2 -5 0 523.791 140.840 34
2 -5 1 2684.37 257.812 23
2 -5 1 2520.24 273.175 20
2 -5 1 3185.61 302.771 34
2 -5 2 1308.69 195.122 23
-2 5 -2 1411.28 216.421 13
2 -5 3 227.440 123.764 23
-2 5 -3 -72.3864 96.8219 13
-2 5 -4 636.124 150.087 13
-2 5 -5 269.892 114.380 13
2 -5 5 195.711 141.012 32
-2 5 -6 30.7393 93.5305 33
2 -5 6 176.096 162.619 32
-2 5 -7 18.3281 78.8619 33
2 -5 7 66.5317 130.285 32
-2 5 -8 225.540 87.3026 33
-2 5 -9 1469.17 132.346 33
-2 5 -9 1235.52 133.335 31
-2 4 10 176.863 86.0441 12
2 -4 -10 347.951 84.9290 20
2 -4 -9 3089.47 223.547 34
-2 4 9 3569.78 272.011 12
2 -4 -9 3422.06 268.414 20
-2 4 8 282.241 128.006 12
2 -4 -8 319.650 127.432 20
2 -4 -8 260.464 102.226 34
-2 4 7 814.969 192.682 12
2 -4 -7 670.385 154.200 20
2 -4 -7 591.994 140.328 34
2 -4 -6 11100.7 485.817 23
-2 4 6 10920.9 596.099 12
2 -4 -6 11011.0 566.912 20
2 -4 -6 10751.9 502.776 34
2 -4 -5 6037.05 368.124 23
-2 4 5 6089.41 446.633 12
2 -4 -5 5694.81 412.867 20
2 -4 -4 1484.74 195.427 23
2 -4 -4 1281.62 203.058 20
2 -4 -3 2333.78 234.677 23
2 -4 -3 2199.60 488.535 4
2 -4 -3 2155.82 244.125 20
2 -4 -2 906.768 315.046 4
2 -4 -1 46.8184 173.170 4
2 -4 0 26250.0 1569.94 4
2 -4 1 812.142 303.428 4
2 -4 2 1344.66 419.179 4
-2 4 -3 487.200 133.855 13
-2 4 -4 1542.36 208.092 13
-2 4 -5 4914.66 345.757 13
-2 4 -6 4990.17 371.307 33
2 -4 6 5182.21 374.533 32
-2 4 -7 2833.99 269.588 33
-2 4 -8 300.394 114.887 33
-2 4 -9 230.562 80.2558 33
-2 4 -10 39.9195 56.3478 31
-2 4 -10 114.355 61.5937 33
2 -3 -11 429.837 71.9691 20
-2 3 10 3020.23 267.234 12
2 -3 -10 2480.51 209.284 20
-2 3 9 1669.27 224.922 12
2 -3 -9 1156.44 175.737 20
-2 3 8 728.560 179.999 12
2 -3 -8 865.181 180.677 20
-2 3 7 7727.96 497.611 12
2 -3 -7 7985.77 479.163 20
2 -3 -6 1851.86 244.145 20
-2 3 6 1610.20 250.292 12
-2 3 5 47179.5 1194.47 12
2 -3 -5 47041.0 1101.72 20
2 -3 -4 3234.17 567.905 4
2 -3 -3 283.376 193.952 4
2 -3 -2 4560.29 640.356 4
2 -3 -1 3494.93 552.809 4
2 -3 0 26613.9 1480.96 4
2 -3 1 510.977 261.959 4
2 -3 2 2583.11 493.624 4
-2 3 -3 789.384 378.095 6
-2 3 -4 1303.18 418.903 6
-2 3 -5 6368.98 389.181 13
-2 3 -6 4546.56 337.919 13
-2 3 -6 4569.61 355.133 33
-2 3 -7 2051.24 242.327 33
-2 3 -8 177.348 106.158 33
-2 3 -9 141.758 87.0990 33
-2 3 -10 382.595 105.325 31
-2 3 -10 396.264 90.5188 33
-2 3 -11 35.1384 49.9325 33
-2 2 11 104.446 90.0877 12
2 -2 -11 85.7722 50.6843 20
-2 2 10 90.8007 115.005 12
2 -2 -10 56.0348 82.1379 20
-2 2 9 67.2480 134.695 12
2 -2 -9 19.0627 91.2264 20
-2 2 8 351.681 146.811 12
2 -2 -8 374.218 130.260 20
-2 2 7 18376.8 738.196 12
-2 2 7 19449.9 680.737 35
-2 2 6 4296.60 369.358 12
-2 2 6 4273.19 314.785 35
2 -2 -5 19075.9 1353.52 4
2 -2 -4 1016.29 342.941 4
2 -2 -3 3771.65 572.129 4
2 -2 -2 143.278 176.342 4
2 -2 -1 43.0152 147.228 4
2 -2 0 7009.60 708.407 4
2 -2 1 670.360 256.249 4
2 -2 2 123.890 168.574 4
-2 2 -2 218.121 310.985 6
-2 2 -3 8196.18 1010.22 6
2 -2 3 8437.84 872.060 4
-2 2 -4 3047.66 591.278 6
-2 2 -5 307.944 285.635 6
-2 2 -6 1273.49 181.202 13
-2 2 -6 1317.64 181.236 33
-2 2 -7 1262.80 197.580 33
-2 2 -8 735.483 153.167 33
-2 2 -9 -52.1156 92.0845 33
-2 2 -10 133.884 83.5340 33
-2 2 -10 10.1091 79.1625 31
-2 2 -11 103.762 70.7799 31
-2 2 -11 33.7679 66.6198 33
-2 1 11 222.746 101.637 12
2 -1 -11 171.054 63.3289 20
-2 1 10 316.279 133.881 12
2 -1 -10 267.121 89.8311 20
2 -1 -10 296.816 102.115 10
-2 1 9 425.514 165.381 12
-2 1 8 11539.8 592.865 12
-2 1 8 11031.9 510.808 35
-2 1 7 5276.44 402.024 12
-2 1 7 5103.70 356.954 35
-2 1 6 1261.03 210.528 12
-2 1 6 1481.50 198.275 35
2 -1 -5 3650.39 600.580 4
2 -1 -4 2405.06 464.974 4
2 -1 -3 -23.7859 133.899 4
2 -1 -2 1874.31 369.732 4
-2 1 2 1965.23 438.729 1
2 -1 -1 880.124 258.046 4
2 -1 0 3809.36 490.278 4
2 -1 1 12515.3 886.581 4
2 -1 2 825.231 259.644 4
-2 1 -2 823.513 406.770 6
2 -1 3 766.845 279.852 4
-2 1 -3 752.555 319.020 6
-2 1 -4 832.243 330.016 6
-2 1 -5 231.011 253.303 6
-2 1 -6 1227.34 402.956 6
-2 1 -7 1698.03 206.378 33
-2 1 -8 396.021 138.524 33
-2 1 -9 3331.82 286.483 33
-2 1 -9 3485.18 325.527 31
-2 1 -10 2170.57 223.393 33
-2 1 -10 1874.22 225.674 31
-2 1 -11 890.075 137.209 33
-2 1 -11 896.893 144.291 31
-2 1 -12 41.5414 49.7542 33
-2 0 11 1082.28 142.141 12
2 0 -11 726.409 101.321 10
-2 0 10 10.9559 94.1773 12
2 0 -10 73.9422 74.8352 20
2 0 -10 -27.3578 81.3049 10
-2 0 9 48.7207 105.278 12
-2 0 9 19.1864 83.1317 35
-2 0 8 8439.65 502.505 12
-2 0 8 7505.62 430.601 35
-2 0 7 4510.66 370.621 12
-2 0 7 4129.91 326.500 35
-2 0 6 1161.27 200.024 12
-2 0 6 1152.88 178.815 35
2 0 -5 731.092 290.776 4
2 0 -4 1784.27 396.463 4
2 0 -3 665.174 234.582 4
-2 0 2 8122.75 939.244 1
2 0 -2 9287.70 760.554 4
2 0 -1 1846.57 335.062 4
-2 0 1 2345.44 451.696 1
-2 0 0 9103.43 812.555 1
2 0 0 9946.72 723.653 4
2 0 1 1388.94 289.795 4
-2 0 -1 1408.02 307.080 1
-2 0 -1 1488.57 451.442 6
-2 0 -2 32982.0 1760.16 6
2 0 2 32844.2 1357.49 4
-2 0 -2 33864.5 1377.20 1
2 0 3 1029.70 283.325 4
-2 0 -3 818.743 308.735 6
-2 0 -4 164077. 4054.84 6
2 0 4 166548. 3373.64 4
-2 0 -5 477.947 299.061 6
-2 0 -6 5569.58 850.400 6
-2 0 -7 178.412 103.415 33
-2 0 -8 2213.73 211.789 24
-2 0 -8 2333.92 249.210 33
-2 0 -9 2982.09 241.802 24
-2 0 -9 3303.52 322.298 31
-2 0 -9 2919.22 277.863 33
-2 0 -10 22.2351 95.5818 33
-2 0 -10 64.5511 116.284 31
-2 0 -11 469.417 121.629 33
-2 0 -11 427.324 124.035 31
-2 0 -12 459.330 90.4972 33
-2 -1 11 468.673 90.9200 12
2 1 -11 365.233 84.9279 10
-2 -1 10 447.744 123.958 12
-2 -1 10 493.991 113.983 35
2 1 -10 343.802 114.983 10
-2 -1 9 6867.73 427.748 12
-2 -1 9 6865.65 408.065 35
-2 -1 8 5071.12 388.367 12
-2 -1 8 4547.76 348.161 35
-2 -1 7 16212.4 670.351 12
-2 -1 7 15596.2 635.541 35
-2 -1 6 162.583 115.927 35
-2 -1 6 218.037 123.684 12
2 1 -5 320.533 204.706 4
2 1 -4 6263.03 760.665 4
2 1 -3 38637.7 1684.08 4
2 1 -2 10980.9 842.455 4
-2 -1 2 11032.2 1091.93 1
-2 -1 1 19014.0 1303.00 1
2 1 -1 19176.7 1028.29 4
-2 -1 0 10880.1 974.397 6
-2 -1 0 10643.7 901.477 1
2 1 0 9717.00 708.892 4
-2 -1 -1 7595.12 725.176 1
-2 -1 -1 7506.81 769.366 6
2 1 1 8044.96 624.510 4
-2 -1 -2 43081.5 1628.29 1
-2 -1 -2 42276.2 1794.22 6
2 1 2 40136.3 1410.99 4
2 1 3 144.378 159.495 4
-2 -1 -3 -17.6969 172.059 6
-2 -1 -4 52551.1 2318.92 6
-2 -1 -5 1059.43 399.027 6
-2 -1 -6 1293.94 372.949 5
-2 -1 -7 3044.29 293.401 31
-2 -1 -8 -38.9618 93.6999 33
-2 -1 -8 34.8616 114.653 31
-2 -1 -9 658.115 144.742 24
-2 -1 -9 567.686 141.384 33
-2 -1 -9 702.344 180.128 31
-2 -1 -10 289.761 119.517 24
-2 -1 -10 578.021 176.215 31
-2 -1 -10 293.839 132.724 33
-2 -1 -11 148.314 93.3028 24
-2 -1 -11 91.3874 94.6639 33
-2 -1 -12 90.7953 74.5165 33
-2 -1 -12 -109.223 77.9945 27
-2 -2 10 1710.18 177.889 12
-2 -2 10 1968.67 196.081 35
-2 -2 9 2873.85 276.507 12
-2 -2 9 3079.85 293.756 35
-2 -2 8 1147.70 199.489 12
-2 -2 8 1058.60 199.162 35
-2 -2 7 182.278 130.791 12
-2 -2 7 -34.1422 94.4259 35
-2 -2 6 9065.02 496.663 12
-2 -2 6 7158.51 432.695 35
2 2 -5 3952.66 691.199 4
2 2 -4 113.720 188.231 4
2 2 -3 26330.9 1477.49 4
-2 -2 2 279.792 258.741 1
2 2 -2 197.381 159.882 4
2 2 -1 2574.35 406.325 4
-2 -2 1 2855.51 580.679 1
-2 -2 0 1953.70 350.820 6
-2 -2 0 2285.81 461.557 1
2 2 0 2653.37 390.397 4
-2 -2 -1 4863.91 615.735 1
-2 -2 -1 4184.32 538.379 6
2 2 1 4142.31 447.180 4
-2 -2 -2 5285.06 627.682 1
-2 -2 -2 5525.78 645.754 6
2 2 2 5561.63 484.162 4
-2 -2 -3 14672.1 1129.69 6
-2 -2 -4 1466.17 411.452 6
-2 -2 -5 2499.53 546.547 5
-2 -2 -6 1229.02 384.526 5
-2 -2 -7 1291.31 425.716 5
-2 -2 -7 1283.82 204.940 31
-2 -2 -8 3095.82 294.237 33
-2 -2 -8 3164.50 333.156 31
-2 -2 -9 183.075 134.262 24
-2 -2 -9 113.773 127.207 33
-2 -2 -9 145.013 153.649 31
-2 -2 -10 462.475 148.333 24
-2 -2 -10 247.721 135.009 33
-2 -2 -10 503.232 186.430 31
-2 -2 -11 43.5646 97.9252 24
-2 -2 -11 246.589 119.866 33
-2 -2 -12 250.222 79.1118 24
-2 -2 -12 298.819 82.2780 27
-2 -3 10 48.5878 66.6533 35
-2 -3 9 3963.84 319.168 35
-2 -3 8 10122.6 552.870 35
-2 -3 7 715.363 185.291 35
-2 -3 6 2048.97 259.517 35
-2 -3 5 3456.68 294.854 35
-2 -3 4 12486.0 1493.15 1
-2 -3 3 6551.00 1003.36 1
2 3 -2 10.7132 145.420 4
-2 -3 2 240.677 279.086 1
-2 -3 1 -156.873 233.399 1
2 3 -1 146.835 163.870 4
2 3 0 1165.30 297.279 4
-2 -3 0 1233.61 358.287 1
-2 -3 -1 14625.9 1099.54 1
-2 -3 -1 15270.2 961.653 6
-2 -3 -2 838.294 284.457 6
-2 -3 -2 664.202 255.126 1
-2 -3 -3 162.270 213.513 1
-2 -3 -4 1959.50 486.173 5
-2 -3 -5 2713.67 568.566 5
-2 -3 -6 779.434 363.268 5
-2 -3 -7 77.1344 125.964 33
-2 -3 -7 185.107 134.072 31
-2 -3 -8 1628.24 272.595 31
-2 -3 -8 1202.18 208.927 33
-2 -3 -9 1506.58 217.359 24
-2 -3 -9 1582.53 257.306 31
-2 -3 -9 1509.62 222.882 33
-2 -3 -10 1388.30 211.395 24
-2 -3 -10 1294.86 206.399 33
-2 -3 -11 378.254 123.458 24
-2 -3 -11 224.964 96.9982 27
-2 -3 -12 1638.08 153.631 24
-2 -3 -12 1837.29 148.196 27
-2 -4 10 441.562 81.9113 35
-2 -4 9 -4.46654 66.4696 14
-2 -4 9 38.7365 70.1937 35
-2 -4 8 5885.90 377.112 35
-2 -4 7 3924.60 357.137 35
-2 -4 6 4795.05 372.085 35
-2 -4 5 10229.4 502.542 35
-2 -4 4 19059.3 1811.66 1
-2 -4 3 15681.6 1540.38 1
-2 -4 2 7496.14 1012.26 1
-2 -4 1 68.4600 230.449 1
-2 -4 0 3891.61 662.401 1
-2 -4 0 3506.70 523.144 5
-2 -4 -1 50543.2 2137.09 1
-2 -4 -1 50688.7 2006.95 5
-2 -4 -2 10067.6 940.723 1
-2 -4 -2 11503.4 1023.81 5
-2 -4 -3 18410.1 1366.60 5
-2 -4 -4 2433.47 543.539 5
-2 -4 -5 24.8696 176.001 5
-2 -4 -6 14860.1 1445.52 5
-2 -4 -7 172.139 99.7118 17
-2 -4 -7 468.729 159.918 33
-2 -4 -8 14023.9 640.155 17
-2 -4 -9 -79.9775 129.141 24
-2 -4 -9 61.3145 104.081 17
-2 -4 -9 -171.621 174.600 27
-2 -4 -10 368.915 150.093 24
-2 -4 -10 265.676 129.682 27
-2 -4 -11 2436.48 227.425 24
-2 -4 -11 2629.67 229.292 27
-2 -4 -12 -202.632 89.3946 24
-2 -4 -12 327.267 85.2442 27
-2 -5 9 128.051 58.9080 14
-2 -5 9 59.1792 52.5113 35
-2 -5 8 -21.7630 74.9351 35
-2 -5 7 259.100 117.080 35
-2 -5 6 11718.0 548.842 35
-2 -5 5 63370.4 1238.38 35
-2 -5 4 24328.1 746.632 35
-2 -5 3 19935.4 1749.81 1
-2 -5 2 145.864 316.386 1
-2 -5 1 9184.38 1067.44 1
-2 -5 0 5146.24 770.291 1
-2 -5 -1 634.944 328.958 1
-2 -5 -2 -91.3428 228.222 1
-2 -5 -2 333.467 226.497 5
-2 -5 -3 270.018 270.926 5
-2 -5 -4 7018.26 929.417 5
-2 -5 -5 622.184 356.071 5
-2 -5 -6 1590.92 229.847 17
-2 -5 -6 1659.73 231.990 16
-2 -5 -6 1361.34 200.042 27
-2 -5 -7 1093.36 198.470 17
-2 -5 -7 866.595 179.986 27
-2 -5 -8 77.8809 123.118 17
-2 -5 -8 -84.2007 124.571 27
-2 -5 -9 -89.5078 124.026 24
-2 -5 -9 263.919 142.252 17
-2 -5 -9 -153.192 103.225 18
-2 -5 -9 -110.326 128.193 27
-2 -5 -10 450.691 144.977 24
-2 -5 -10 362.703 136.785 18
-2 -5 -10 455.129 138.945 27
-2 -5 -11 1114.48 155.871 24
-2 -5 -11 1123.66 166.262 27
-2 -6 9 1401.73 108.448 35
-2 -6 8 416.744 90.3019 35
-2 -6 7 240.033 85.5559 35
-2 -6 6 1031.52 159.578 35
-2 -6 5 3700.99 305.872 35
-2 -6 4 465.714 132.515 35
-2 -6 3 12482.6 575.763 21
-2 -6 2 386.872 151.325 25
-2 -6 2 260.405 113.388 21
-2 -6 1 6747.87 938.395 1
-2 -6 1 7026.07 438.661 21
-2 -6 0 -26.7317 244.566 1
-2 -6 -1 6628.74 884.457 1
-2 -6 -3 90.2284 183.829 5
-2 -6 -4 244.492 122.328 19
-2 -6 -4 301.447 129.614 17
-2 -6 -4 156.840 125.705 16
-2 -6 -4 110.193 139.260 30
-2 -6 -4 232.779 108.231 28
-2 -6 -4 296.229 135.393 27
-2 -6 -5 549.289 159.036 19
-2 -6 -5 614.392 175.782 17
-2 -6 -5 476.247 160.594 16
-2 -6 -5 682.767 161.034 28
-2 -6 -5 675.033 185.361 27
-2 -6 -5 107.298 93.0063 26
-2 -6 -6 683.249 187.177 17
-2 -6 -6 583.286 168.912 16
-2 -6 -6 1180.48 202.108 28
-2 -6 -6 754.444 178.732 27
-2 -6 -7 5726.27 447.663 17
-2 -6 -7 5137.57 358.352 18
-2 -6 -7 5197.48 393.463 27
-2 -6 -8 623.726 164.738 24
-2 -6 -8 815.864 173.899 18
-2 -6 -8 1156.36 217.864 17
-2 -6 -8 1009.00 199.860 27
-2 -6 -9 199.929 123.576 24
-2 -6 -9 229.638 114.735 18
-2 -6 -9 -17.1803 102.001 17
-2 -6 -9 394.974 158.366 27
-2 -6 -10 280.531 115.208 24
-2 -6 -10 131.533 98.6693 18
-2 -6 -10 223.333 95.8885 17
-2 -6 -10 200.510 122.653 27
-2 -6 -11 105.675 70.5866 24
-2 -6 -11 141.486 82.9774 27
-2 -7 8 2956.09 162.838 14
-2 -7 8 3807.92 179.902 35
-2 -7 7 3436.01 215.414 35
-2 -7 6 499.129 115.930 35
-2 -7 5 3917.06 287.068 35
-2 -7 4 6030.01 376.295 21
-2 -7 4 6371.71 375.147 35
-2 -7 3 -19.5328 83.3317 21
-2 -7 2 306.319 142.774 25
-2 -7 2 327.543 136.145 21
-2 -7 1 652.488 169.744 25
-2 -7 1 780.901 177.761 21
-2 -7 0 773.062 187.201 21
-2 -7 -1 452.715 142.483 21
-2 -7 -1 793.285 214.987 16
-2 -7 -1 863.969 224.937 30
-2 -7 -2 -21.2226 88.2423 21
-2 -7 -2 162.134 148.593 16
-2 -7 -2 71.4947 137.726 30
-2 -7 -2 74.1579 102.048 15
-2 -7 -3 1235.57 201.198 21
-2 -7 -3 1430.45 217.506 19
-2 -7 -3 1389.01 216.856 30
-2 -7 -3 1354.18 198.283 17
-2 -7 -3 1675.38 259.658 16
-2 -7 -3 1351.27 210.718 15
-2 -7 -3 1290.54 203.613 28
-2 -7 -3 1706.66 233.390 27
-2 -7 -4 1272.86 197.130 21
-2 -7 -4 1280.95 200.655 19
-2 -7 -4 1494.30 223.304 17
-2 -7 -4 1366.75 239.621 16
-2 -7 -4 1180.72 200.770 30
-2 -7 -4 1090.75 187.032 28
-2 -7 -4 1358.60 213.301 15
-2 -7 -4 1443.78 229.865 27
-2 -7 -5 11239.1 554.652 30
-2 -7 -5 11802.4 581.082 19
-2 -7 -5 11446.7 600.853 16
-2 -7 -5 11865.9 554.449 28
-2 -7 -5 11489.4 569.346 27
-2 -7 -5 12432.8 600.136 17
-2 -7 -6 6697.47 430.649 19
-2 -7 -6 6955.71 456.385 16
-2 -7 -6 6884.58 458.138 17
-2 -7 -6 6030.53 397.793 30
-2 -7 -6 7011.56 423.620 28
-2 -7 -6 6722.28 443.162 27
-2 -7 -7 1066.20 209.291 17
-2 -7 -7 1151.26 216.124 27
-2 -7 -8 1850.60 243.940 17
-2 -7 -8 1759.99 245.475 27
-2 -7 -9 298.917 134.135 17
-2 -7 -9 197.182 112.942 27
-2 -7 -10 2795.62 217.755 30
-2 -7 -10 3287.36 247.480 27
-2 -8 7 1698.72 121.567 14
-2 -8 6 4308.44 215.482 35
-2 -8 5 526.056 99.0917 35
-2 -8 4 74.4173 68.1291 21
-2 -8 3 5557.97 378.694 21
-2 -8 2 3505.51 331.702 21
-2 -8 1 1713.61 242.472 21
-2 -8 1 2173.95 252.189 19
-2 -8 1 1401.67 216.618 25
-2 -8 0 51.0770 104.364 25
-2 -8 0 -91.8051 96.0677 21
-2 -8 -1 4850.51 394.961 21
-2 -8 -2 505.605 153.761 21
-2 -8 -2 831.640 227.876 30
-2 -8 -2 390.801 144.211 15
-2 -8 -3 3701.51 327.486 21
-2 -8 -3 4584.05 384.076 30
-2 -8 -3 4099.93 368.139 19
-2 -8 -3 4255.21 342.082 17
-2 -8 -3 3913.88 347.294 15
-2 -8 -3 3720.86 323.929 28
-2 -8 -4 13991.4 630.749 30
-2 -8 -4 13731.8 591.666 21
-2 -8 -4 13432.8 640.603 19
-2 -8 -4 13998.8 626.329 17
-2 -8 -4 13732.8 633.791 15
-2 -8 -4 13095.3 569.659 28
-2 -8 -5 22628.7 793.769 19
-2 -8 -5 22449.2 788.570 17
-2 -8 -5 22867.7 774.702 30
-2 -8 -5 22555.1 765.830 15
-2 -8 -5 22914.9 728.147 28
-2 -8 -5 23816.5 811.754 27
-2 -8 -6 2820.34 277.590 19
-2 -8 -6 2595.61 289.613 17
-2 -8 -6 2002.81 255.244 30
-2 -8 -6 2723.57 271.479 15
-2 -8 -6 2581.89 295.814 27
-2 -8 -7 1168.05 212.507 17
-2 -8 -7 775.234 165.194 30
-2 -8 -7 1289.92 219.553 27
-2 -8 -8 3515.14 282.974 30
-2 -8 -8 3857.12 322.772 17
-2 -8 -8 4188.00 320.396 27
-2 -8 -9 209.525 104.134 30
-2 -8 -9 768.020 149.757 27
-2 -8 -10 720.296 109.370 30
-2 -9 5 1603.65 131.782 14
-2 -9 4 51.4113 63.8798 21
-2 -9 3 -16.5808 74.2562 21
-2 -9 2 2334.24 245.455 21
-2 -9 1 7437.92 453.422 21
-2 -9 1 7750.00 441.423 19
-2 -9 0 379.874 133.970 25
-2 -9 0 337.805 134.801 21
-2 -9 0 316.112 110.995 19
-2 -9 -1 127.601 112.824 21
-2 -9 -1 1.05862 100.624 19
-2 -9 -2 525.602 148.619 21
-2 -9 -2 588.676 169.033 19
-2 -9 -2 268.977 102.480 28
-2 -9 -3 1568.17 212.717 21
-2 -9 -3 1123.75 201.580 19
-2 -9 -3 1360.60 192.598 28
-2 -9 -4 8442.14 488.175 19
-2 -9 -4 9026.00 496.754 30
-2 -9 -4 8235.10 455.258 15
-2 -9 -4 8148.13 415.836 28
-2 -9 -5 294.582 128.662 19
-2 -9 -5 398.669 162.242 30
-2 -9 -5 225.862 116.666 15
-2 -9 -6 -10.4602 74.3181 19
-2 -9 -6 61.1742 87.7701 15
-2 -9 -6 27.9327 109.875 30
-2 -9 -7 782.158 156.088 30
-2 -9 -7 862.712 148.753 15
-2 -9 -8 1662.65 194.552 30
-2 -9 -9 227.980 89.8499 30
-2 -10 3 20.0324 46.0413 21
-2 -10 2 465.403 100.714 21
-2 -10 1 -52.3233 80.4879 21
-2 -10 1 9.38805 64.1314 19
-2 -10 0 65.9951 78.0578 21
-2 -10 0 230.302 92.0712 19
-2 -10 0 127.743 76.7045 28
-2 -10 -1 5029.92 354.545 21
-2 -10 -1 5103.13 351.003 19
-2 -10 -1 4034.78 266.653 28
-2 -10 -2 722.737 139.770 21
-2 -10 -2 568.535 140.520 19
-2 -10 -2 688.076 116.655 28
-2 -10 -3 120.042 87.4949 21
-2 -10 -3 172.292 105.549 19
-2 -10 -4 387.973 124.127 19
-2 -10 -5 733.677 137.178 19
-2 -10 -6 1430.98 155.533 19
-2 -10 -6 1813.62 201.192 30
-2 -10 -7 485.190 120.332 30
-2 -11 0 236.392 69.6363 21
-2 -11 -1 29.2325 51.1081 21
-2 -11 -1 86.1244 64.3001 19
-2 -11 -2 1553.53 144.210 21
-2 -11 -2 1531.12 158.013 19
-2 -11 -3 2973.74 220.726 19
-2 -11 -4 311.376 84.5470 19
3 -7 -3 60.3182 67.3658 23
3 -7 -2 182.053 85.7159 23
3 -7 -1 1475.33 146.074 32
3 -7 0 1271.50 138.645 32
3 -7 1 256.355 88.6262 32
-3 7 -1 134.946 66.2727 16
3 -7 2 537.841 95.6369 32
-3 7 -2 369.548 80.4589 16
3 -7 3 2599.74 165.292 32
3 -6 -6 112.827 55.6785 20
3 -6 -5 58.8613 65.1847 23
3 -6 -5 38.1194 63.1278 20
3 -6 -4 78.4013 84.2119 23
3 -6 -4 41.1348 69.7244 20
3 -6 -3 -47.6010 90.3630 23
3 -6 -3 33.4389 76.1416 20
3 -6 -2 4695.48 306.318 23
3 -6 -1 548.438 129.932 23
-3 6 1 593.659 123.763 13
3 -6 0 30.2731 90.1412 23
-3 6 0 40.3853 84.8372 13
3 -6 1 241.378 97.9861 23
-3 6 -1 326.479 109.461 13
-3 6 -1 171.284 84.1600 16
-3 6 -2 1605.43 178.417 13
-3 6 -2 1317.56 171.977 16
-3 6 -3 148.433 79.8969 13
3 -6 3 -24.7186 100.218 32
-3 6 -3 7.37493 77.4696 16
3 -6 4 68.9789 89.1147 32
-3 6 -4 26.9344 63.6595 16
3 -6 5 737.848 106.525 32
-3 6 -5 651.215 101.727 16
3 -5 -7 252.978 70.7138 20
3 -5 -6 143.709 83.3926 23
3 -5 -6 90.0272 68.1612 20
3 -5 -5 613.408 133.468 23
3 -5 -5 755.771 135.884 20
3 -5 -4 1207.20 186.785 23
3 -5 -4 948.341 167.020 20
3 -5 -3 285.965 132.375 23
3 -5 -3 350.815 126.531 20
3 -5 -2 105.660 124.941 23
3 -5 -2 12.4844 91.8966 20
3 -5 -1 142.699 121.557 23
3 -5 -1 -13.2964 89.3017 20
3 -5 0 503.078 147.924 23
3 -5 1 288.400 129.035 23
-3 5 -1 572.235 166.212 13
3 -5 2 475.045 131.839 23
-3 5 -2 777.761 176.462 13
-3 5 -3 889.136 164.965 13
-3 5 -4 578.078 134.258 13
-3 5 -4 509.077 137.249 16
3 -5 5 133.621 105.435 32
-3 5 -5 51.7520 80.2547 16
3 -5 6 168.507 83.9560 32
-3 5 -6 2.68737 59.5305 16
3 -4 -8 232.537 61.2603 20
3 -4 -7 1888.20 162.733 23
3 -4 -7 1846.53 177.413 20
3 -4 -6 58.0157 84.6239 23
3 -4 -6 -1.42250 79.8228 20
3 -4 -5 621.631 147.823 23
3 -4 -5 475.089 132.208 20
3 -4 -4 8230.99 442.656 23
3 -4 -4 7629.16 448.698 20
3 -4 -3 1851.35 242.843 23
3 -4 -3 1798.57 245.701 20
3 -4 -2 458.917 164.418 23
3 -4 -2 460.428 143.032 20
3 -4 -1 1363.98 214.180 23
3 -4 -1 1277.70 214.203 20
-3 4 0 295.032 113.999 14
3 -4 0 605.402 164.593 23
3 -4 0 583.869 167.351 20
3 -4 1 71.8999 109.340 23
3 -4 2 5468.04 332.846 23
-3 4 -3 803.737 196.003 13
-3 4 -4 493.085 157.332 13
-3 4 -5 336.259 138.925 13
-3 4 -5 267.491 120.836 16
-3 4 -6 180.533 97.4983 16
-3 4 -7 961.304 141.808 16
-3 4 -8 1441.71 143.062 31
3 -3 -8 2149.76 168.919 20
3 -3 -7 1097.86 154.379 23
-3 3 7 1134.21 181.485 12
3 -3 -7 1086.08 153.933 20
3 -3 -6 489.663 130.367 23
-3 3 6 629.744 166.282 12
3 -3 -6 614.559 133.608 20
3 -3 -5 6592.66 391.168 23
-3 3 5 6285.47 450.249 12
3 -3 -5 6496.68 413.272 20
3 -3 -4 13.3884 121.158 23
3 -3 -4 225.929 123.952 20
3 -3 -3 24800.9 784.651 23
3 -3 -3 23759.8 817.112 20
3 -3 -2 1204.01 206.341 23
3 -3 -2 1018.57 187.777 20
-3 3 1 264.916 103.092 14
3 -3 -1 131.239 129.587 23
3 -3 -1 -17.5960 111.918 20
3 -3 0 2541.48 257.949 23
3 -3 0 2931.44 328.949 20
-3 3 0 2060.75 241.292 14
3 -3 1 1327.48 190.595 23
-3 3 -1 1347.30 213.719 14
-3 3 -2 10281.6 537.121 14
-3 3 -3 537.035 183.955 13
-3 3 -4 579.060 176.993 13
-3 3 -4 433.550 144.268 16
-3 3 -5 41.7373 126.147 13
-3 3 -5 77.9171 96.9000 16
-3 3 -6 971.005 172.160 13
-3 3 -6 992.255 174.743 16
-3 3 -7 2255.84 234.985 16
-3 3 -8 1396.08 156.301 16
-3 3 -8 1324.89 167.359 31
-3 3 -9 494.173 94.1298 31
-3 2 9 27.8230 71.3006 12
3 -2 -8 57.9891 80.3416 23
-3 2 8 66.4243 102.698 12
3 -2 -8 3.96692 56.7890 20
3 -2 -7 -27.9458 81.6015 23
-3 2 7 14.4452 110.720 12
3 -2 -7 108.705 92.1992 20
3 -2 -6 12.4975 100.083 23
-3 2 6 -24.3741 116.420 12
3 -2 -6 132.289 99.8548 20
-3 2 5 18296.1 774.782 12
3 -2 -5 19049.4 693.771 20
-3 2 4 2781.09 325.437 12
3 -2 -4 2849.08 290.912 20
-3 2 3 10522.9 613.697 12
3 -2 -3 10679.8 540.604 20
-3 2 2 549.387 144.299 14
3 -2 -2 521.155 149.007 23
3 -2 -2 571.862 162.136 20
3 -2 -1 1843.14 222.474 23
3 -2 -1 1876.93 246.033 20
-3 2 1 1795.36 219.203 14
-3 2 0 228.522 124.892 14
3 -2 0 34.1510 96.7239 23
3 -2 0 165.530 98.6662 20
-3 2 -1 181.840 131.880 14
3 -2 1 50.0933 101.408 20
-3 2 -1 -22.8371 99.5930 16
-3 2 -2 598.329 165.414 14
-3 2 -2 583.081 162.580 16
-3 2 -3 51.1350 110.594 14
-3 2 -3 -106.713 114.981 16
-3 2 -4 41.8877 98.0653 14
-3 2 -4 118.735 131.427 13
-3 2 -4 28.8292 103.944 16
-3 2 -5 1893.82 240.200 13
-3 2 -5 1410.35 229.152 16
-3 2 -6 782.761 160.783 13
-3 2 -6 718.140 178.782 16
-3 2 -7 268.232 115.536 16
-3 2 -8 781.917 143.664 16
-3 2 -8 219.792 117.116 31
-3 2 -9 360.545 109.230 31
-3 1 9 536.484 118.572 12
3 -1 -8 758.003 115.511 23
-3 1 8 555.404 147.377 12
-3 1 7 122.535 110.877 12
-3 1 6 4894.11 405.884 12
-3 1 5 2035.76 282.579 12
-3 1 4 416.337 167.265 12
-3 1 3 756.100 158.923 14
-3 1 3 693.485 195.212 12
-3 1 2 1357.15 194.174 14
-3 1 2 1281.17 237.701 12
-3 1 1 117.468 107.441 14
-3 1 0 173.149 108.077 14
-3 1 -1 663.468 171.974 14
-3 1 -1 624.601 162.535 16
-3 1 -2 1165.89 202.893 14
-3 1 -2 1052.53 201.482 16
-3 1 -3 2191.46 277.365 16
-3 1 -3 2192.48 263.086 14
-3 1 -4 264.845 121.036 14
-3 1 -4 415.205 153.580 13
-3 1 -4 330.201 139.333 16
-3 1 -5 373.437 124.388 14
-3 1 -5 770.441 167.988 13
-3 1 -5 491.330 175.502 16
-3 1 -6 1.93462 90.6238 13
-3 1 -6 -21.1370 118.193 16
-3 1 -7 76.5582 105.643 31
-3 1 -7 194.745 132.752 16
-3 1 -8 739.363 154.489 16
-3 1 -8 777.901 172.649 31
-3 1 -9 558.558 146.870 31
-3 1 -10 182.314 90.1263 31
-3 0 9 882.175 135.789 12
-3 0 8 -34.7864 91.9124 12
-3 0 7 240.977 130.167 12
-3 0 7 328.626 106.660 35
-3 0 6 5764.69 435.746 12
-3 0 6 5409.17 374.330 35
-3 0 5 4405.03 404.938 12
-3 0 5 4741.48 366.602 35
-3 0 4 574.028 151.598 14
-3 0 4 446.385 162.169 12
-3 0 4 506.600 149.031 35
-3 0 3 287.767 122.827 14
-3 0 3 293.189 179.834 12
-3 0 3 178.757 109.892 35
-3 0 2 143.817 102.491 14
-3 0 2 192.079 150.765 12
-3 0 2 237.906 116.872 35
-3 0 1 231.730 115.803 14
3 0 0 2364.62 526.340 4
-3 0 0 2420.00 638.884 6
-3 0 0 2509.31 266.715 14
3 0 1 724.506 310.076 4
-3 0 -1 656.820 382.978 6
3 0 2 2072.34 499.506 4
-3 0 -2 2269.00 270.280 16
-3 0 -2 2825.87 287.450 14
-3 0 -3 1037.79 197.840 14
-3 0 -3 764.237 188.153 16
-3 0 -4 9790.15 585.872 16
-3 0 -4 10093.3 521.735 14
-3 0 -5 942.867 171.666 14
-3 0 -5 1087.14 205.355 31
-3 0 -5 1085.66 233.198 16
-3 0 -6 42281.7 1204.20 16
-3 0 -6 43209.4 1149.13 31
-3 0 -7 191.970 136.189 16
-3 0 -7 26.2210 120.377 31
-3 0 -8 1063.04 192.122 16
-3 0 -8 1396.52 229.590 31
-3 0 -9 120.094 119.985 31
-3 0 -10 1072.28 161.946 31
-3 -1 9 270.298 85.3984 12
-3 -1 8 398.290 126.775 12
-3 -1 8 369.260 115.878 35
-3 -1 7 5020.08 382.873 12
-3 -1 7 5685.56 366.114 35
-3 -1 6 4118.71 374.341 12
-3 -1 6 4405.40 349.403 35
-3 -1 5 6163.59 465.289 12
-3 -1 5 6728.85 431.794 35
-3 -1 5 6379.16 387.130 14
-3 -1 4 46.8382 95.6707 14
-3 -1 4 35.0965 128.133 12
-3 -1 4 -57.6507 96.0973 35
-3 -1 3 149.545 108.229 14
-3 -1 3 27.9397 133.339 12
-3 -1 3 25.1797 91.6671 35
-3 -1 2 1282.68 204.651 14
-3 -1 2 870.564 215.318 12
-3 -1 2 884.260 176.496 35
3 1 -1 15146.5 1292.20 4
-3 -1 1 15331.0 620.497 14
3 1 0 2867.49 569.577 4
3 1 1 3798.27 632.045 4
-3 -1 -1 3803.98 736.277 6
-3 -1 -2 1815.87 508.207 6
-3 -1 -3 1943.35 262.896 16
-3 -1 -3 1969.74 237.176 14
-3 -1 -4 24136.9 910.021 16
-3 -1 -4 23540.6 779.947 14
-3 -1 -5 256.701 120.128 14
-3 -1 -5 156.803 110.966 31
-3 -1 -5 312.553 176.415 16
-3 -1 -6 18018.4 813.072 16
-3 -1 -6 18109.7 764.864 31
-3 -1 -7 270.883 117.396 16
-3 -1 -7 268.312 164.269 31
-3 -1 -8 411.253 140.101 16
-3 -1 -8 272.629 149.504 31
-3 -1 -9 864.592 142.582 24
-3 -1 -9 1041.93 211.129 31
-3 -1 -10 123.811 118.378 31
-3 -1 -11 215.324 66.7673 27
-3 -2 9 254.337 70.5139 35
-3 -2 8 1848.71 198.806 12
-3 -2 8 2013.56 206.307 35
-3 -2 7 4611.27 348.009 12
-3 -2 7 4572.26 333.246 35
-3 -2 6 1500.38 227.146 12
-3 -2 6 1893.59 232.315 35
-3 -2 6 1694.61 207.168 14
-3 -2 5 40.7123 98.6049 14
-3 -2 5 47.1074 114.259 12
-3 -2 5 -7.75671 85.3163 35
-3 -2 4 3592.51 306.918 14
-3 -2 4 3330.09 346.509 12
-3 -2 4 3477.60 314.299 35
-3 -2 3 653.267 165.271 14
-3 -2 3 697.898 191.473 12
-3 -2 3 770.299 162.159 35
-3 -2 2 117.305 127.469 14
-3 -2 2 184.468 127.460 12
-3 -2 2 120.481 97.4540 35
-3 -2 1 12265.6 1319.39 1
3 2 -1 12996.5 1173.03 4
-3 -2 1 12188.4 550.473 14
-3 -2 0 383.503 316.438 1
-3 -2 -1 505.707 315.534 1
-3 -2 -2 172.887 221.949 1
-3 -2 -2 683.841 383.022 6
-3 -2 -3 1031.85 184.465 14
-3 -2 -3 759.835 358.653 6
-3 -2 -3 730.007 164.582 16
-3 -2 -4 369.194 156.316 16
-3 -2 -4 852.777 184.425 26
-3 -2 -5 5758.28 463.475 16
-3 -2 -5 5898.97 431.927 31
-3 -2 -6 -58.8452 157.286 16
-3 -2 -6 -35.5835 153.571 31
-3 -2 -7 265.032 146.321 16
-3 -2 -7 418.423 180.066 31
-3 -2 -8 460.516 142.346 16
-3 -2 -8 492.245 196.591 31
-3 -2 -9 182.468 107.827 24
-3 -2 -9 449.908 178.415 31
-3 -2 -10 779.057 127.357 24
-3 -2 -11 -30.8502 66.3043 27
-3 -3 8 18.6960 67.8169 35
-3 -3 7 2877.45 254.443 35
-3 -3 7 2631.25 233.653 14
-3 -3 6 4529.48 330.364 14
-3 -3 6 4357.96 320.470 35
-3 -3 5 676.242 153.888 14
-3 -3 5 720.788 151.022 35
-3 -3 4 1346.86 196.413 14
-3 -3 4 1303.65 193.667 35
-3 -3 3 2299.40 256.282 14
-3 -3 3 2004.12 234.709 35
-3 -3 2 2076.25 244.066 14
-3 -3 2 1959.70 238.506 35
-3 -3 1 1264.87 199.009 14
-3 -3 1 1665.37 229.253 21
-3 -3 0 132.907 102.337 14
-3 -3 0 245.124 126.897 21
-3 -3 -1 427.911 148.121 21
-3 -3 -1 557.936 300.287 1
-3 -3 -2 368.312 166.006 21
-3 -3 -2 142.168 118.466 16
-3 -3 -3 2870.73 321.195 16
-3 -3 -3 2982.40 278.177 28
-3 -3 -4 78.6807 126.219 16
-3 -3 -4 592.919 181.664 28
-3 -3 -5 310.730 145.983 16
-3 -3 -5 304.546 135.820 31
-3 -3 -6 743.471 206.331 16
-3 -3 -6 561.347 185.479 31
-3 -3 -7 625.865 172.472 16
-3 -3 -7 583.630 208.106 31
-3 -3 -8 226.625 131.350 16
-3 -3 -9 -201.729 114.325 17
-3 -3 -10 504.255 111.713 24
-3 -3 -10 374.492 94.7066 17
-3 -3 -11 328.883 77.4272 24
-3 -3 -11 407.989 90.7924 27
-3 -4 8 566.023 96.0956 35
-3 -4 7 -30.4704 67.5164 14
-3 -4 7 47.8953 77.8333 35
-3 -4 6 4059.81 305.111 14
-3 -4 6 3954.94 296.769 35
-3 -4 5 2701.17 265.312 14
-3 -4 5 2633.49 253.098 35
-3 -4 4 3353.88 293.016 14
-3 -4 4 3076.04 277.046 35
-3 -4 3 1707.76 227.706 14
-3 -4 3 1597.66 212.661 35
-3 -4 2 6241.54 402.625 14
-3 -4 2 6395.62 419.784 21
-3 -4 1 3965.00 322.867 14
-3 -4 1 3986.11 340.437 21
-3 -4 0 2220.21 241.422 14
-3 -4 0 2401.77 274.386 21
-3 -4 0 2195.12 250.558 16
-3 -4 -1 98.3132 98.8733 14
-3 -4 -1 -17.9226 97.0579 21
-3 -4 -1 51.9940 104.511 16
-3 -4 -2 1702.86 245.635 21
-3 -4 -2 2139.31 285.997 16
-3 -4 -2 1255.70 184.692 28
-3 -4 -3 19439.3 754.090 21
-3 -4 -3 20138.2 818.722 16
-3 -4 -3 18372.5 670.458 28
-3 -4 -4 2861.03 340.558 16
-3 -4 -4 2903.92 286.073 28
-3 -4 -4 1894.39 202.364 26
-3 -4 -5 4816.82 422.177 16
-3 -4 -5 4139.15 323.595 27
-3 -4 -5 4969.63 365.982 26
-3 -4 -6 155.893 154.512 16
-3 -4 -6 22.0081 128.633 27
-3 -4 -7 -32.1037 111.410 16
-3 -4 -7 -227.643 160.616 27
-3 -4 -8 4811.86 368.822 17
-3 -4 -8 4493.36 338.154 16
-3 -4 -8 5093.82 379.452 27
-3 -4 -9 170.203 105.158 17
-3 -4 -9 35.7017 112.006 27
-3 -4 -10 4054.32 248.447 24
-3 -4 -10 4025.24 246.939 17
-3 -4 -10 4170.98 274.119 27
-3 -4 -11 -73.4082 57.9955 24
-3 -4 -11 117.978 69.1763 27
-3 -5 7 -5.73065 57.9092 14
-3 -5 7 93.4209 64.4382 35
-3 -5 6 16.8285 72.8011 14
-3 -5 6 59.3738 76.5305 35
-3 -5 5 646.650 143.749 14
-3 -5 5 661.719 133.055 35
-3 -5 4 11145.4 514.180 14
-3 -5 4 9713.59 461.548 35
-3 -5 3 37193.3 947.932 14
-3 -5 2 11758.3 550.018 14
-3 -5 2 11884.8 567.333 21
-3 -5 1 7838.07 442.431 14
-3 -5 1 7993.83 474.108 21
-3 -5 0 24.3176 85.7521 14
-3 -5 0 231.530 120.384 21
-3 -5 0 274.850 141.304 16
-3 -5 -1 3147.56 319.046 21
-3 -5 -1 3268.23 318.483 16
-3 -5 -2 2878.43 309.653 21
-3 -5 -2 2679.14 309.521 16
-3 -5 -2 2381.09 257.496 28
-3 -5 -3 1959.36 262.928 21
-3 -5 -3 1589.86 223.415 17
-3 -5 -3 1687.97 255.973 16
-3 -5 -3 1574.73 209.488 28
-3 -5 -4 -91.1879 131.540 17
-3 -5 -4 -169.689 164.681 16
-3 -5 -4 45.7958 114.962 28
-3 -5 -5 16.9897 113.363 17
-3 -5 -5 -85.8835 168.986 16
-3 -5 -5 838.024 222.449 28
-3 -5 -5 291.929 137.239 27
-3 -5 -5 1090.33 200.852 26
-3 -5 -6 1040.33 196.533 17
-3 -5 -6 1015.61 202.879 16
-3 -5 -6 1059.92 189.470 27
-3 -5 -7 -38.0082 112.640 17
-3 -5 -7 99.8917 113.815 16
-3 -5 -7 134.717 130.716 27
-3 -5 -8 1389.07 206.023 17
-3 -5 -8 1645.58 209.438 16
-3 -5 -8 1832.23 231.938 27
-3 -5 -9 376.350 112.472 24
-3 -5 -9 467.938 135.275 17
-3 -5 -9 487.912 138.085 27
-3 -5 -10 141.775 86.2320 24
-3 -5 -10 -25.4883 60.9865 17
-3 -5 -10 214.808 99.2063 27
-3 -6 7 1990.89 142.295 14
-3 -6 6 263.660 90.1604 14
-3 -6 6 177.889 69.5180 35
-3 -6 5 -70.2775 75.1094 14
-3 -6 5 88.1042 72.1102 35
-3 -6 4 1501.69 198.833 14
-3 -6 3 4742.16 337.040 14
-3 -6 3 4807.35 340.768 21
-3 -6 2 1017.48 178.180 14
-3 -6 2 870.923 162.422 21
-3 -6 1 6122.27 384.108 14
-3 -6 1 5830.94 408.931 21
-3 -6 0 130.491 107.511 14
-3 -6 0 209.355 123.430 21
-3 -6 0 234.673 127.602 19
-3 -6 0 331.656 163.229 16
-3 -6 -1 2333.44 276.855 21
-3 -6 -1 2262.38 278.218 19
-3 -6 -1 2366.30 293.578 16
-3 -6 -2 48.3588 106.591 21
-3 -6 -2 196.786 130.985 19
-3 -6 -2 172.005 148.513 16
-3 -6 -2 -136.165 137.691 28
-3 -6 -3 1964.78 266.030 21
-3 -6 -3 1937.21 279.220 19
-3 -6 -3 2405.90 271.248 17
-3 -6 -3 1891.33 277.521 16
-3 -6 -3 2110.77 255.262 28
-3 -6 -4 672.134 179.519 21
-3 -6 -4 650.205 159.950 17
-3 -6 -4 709.116 198.082 16
-3 -6 -4 809.517 178.337 28
-3 -6 -5 -131.848 130.345 17
-3 -6 -5 57.9754 118.727 16
-3 -6 -5 526.743 175.453 28
-3 -6 -5 294.298 159.617 27
-3 -6 -5 560.590 167.472 26
-3 -6 -6 292.460 144.386 16
-3 -6 -6 421.760 151.746 27
-3 -6 -7 1128.97 208.257 17
-3 -6 -7 957.487 194.165 16
-3 -6 -7 1073.12 204.914 27
-3 -6 -8 465.949 150.885 17
-3 -6 -8 528.222 153.783 27
-3 -6 -9 1941.94 176.524 24
-3 -6 -9 2021.08 201.707 17
-3 -6 -9 2486.94 235.073 27
-3 -6 -10 216.948 78.5610 24
-3 -6 -10 188.117 70.5168 17
-3 -6 -10 112.929 79.8213 27
-3 -7 6 2901.16 174.804 14
-3 -7 5 2469.89 199.397 14
-3 -7 4 1173.89 163.392 14
-3 -7 3 1878.61 202.993 14
-3 -7 3 2018.55 211.302 21
-3 -7 2 3361.08 276.801 14
-3 -7 2 3007.31 281.424 21
-3 -7 1 129.732 94.8156 14
-3 -7 1 228.566 125.030 21
-3 -7 0 373.621 127.662 21
-3 -7 0 464.013 155.114 19
-3 -7 -1 244.679 115.141 21
-3 -7 -1 247.507 121.412 19
-3 -7 -1 427.053 166.648 16
-3 -7 -1 189.977 126.722 28
-3 -7 -2 331.683 138.206 21
-3 -7 -2 202.067 140.633 19
-3 -7 -2 399.901 193.448 16
-3 -7 -2 77.2566 99.6093 28
-3 -7 -3 390.888 149.943 21
-3 -7 -3 271.982 146.964 19
-3 -7 -3 579.448 205.360 16
-3 -7 -3 200.693 136.945 28
-3 -7 -4 105.994 99.5426 21
-3 -7 -4 363.083 137.825 17
-3 -7 -4 424.882 190.854 16
-3 -7 -4 179.205 130.710 28
-3 -7 -5 940.760 190.363 17
-3 -7 -5 909.426 219.921 16
-3 -7 -5 1308.99 226.298 28
-3 -7 -5 761.859 167.922 27
-3 -7 -6 475.442 154.264 17
-3 -7 -6 407.917 172.784 16
-3 -7 -7 3623.27 297.490 17
-3 -7 -7 3461.64 286.755 16
-3 -7 -7 3382.13 280.942 27
-3 -7 -8 2296.33 185.033 24
-3 -7 -8 2276.92 222.924 17
-3 -7 -8 2420.50 227.833 27
-3 -7 -9 468.703 86.6642 24
-3 -7 -9 480.088 105.055 17
-3 -7 -9 603.040 122.808 27
-3 -8 4 1927.33 156.360 14
-3 -8 3 624.678 114.588 14
-3 -8 3 366.903 96.5809 21
-3 -8 2 106.671 80.2683 14
-3 -8 2 226.784 99.7639 21
-3 -8 1 2915.88 275.766 21
-3 -8 0 1687.13 231.628 21
-3 -8 0 2113.85 245.045 19
-3 -8 -1 569.628 146.446 21
-3 -8 -1 838.606 181.403 19
-3 -8 -1 415.836 134.339 28
-3 -8 -2 90.7666 105.908 21
-3 -8 -2 193.593 126.995 19
-3 -8 -2 -91.8645 125.870 28
-3 -8 -3 2490.39 262.412 21
-3 -8 -3 2414.71 276.241 19
-3 -8 -3 2346.89 254.917 28
-3 -8 -4 190.969 102.155 21
-3 -8 -4 25.7488 86.0879 17
-3 -8 -4 173.676 121.188 28
-3 -8 -4 371.933 121.333 26
-3 -8 -5 4559.88 336.579 28
-3 -8 -5 5411.78 305.345 26
-3 -8 -6 6394.70 364.278 17
-3 -8 -7 12443.8 476.796 17
-3 -8 -8 1199.40 147.834 17
-3 -9 3 1116.13 114.671 28
-3 -9 2 100.302 65.3256 21
-3 -9 2 92.3369 66.0242 28
-3 -9 1 162.253 91.3970 21
-3 -9 1 -41.2858 86.5633 28
-3 -9 0 1772.83 202.182 21
-3 -9 0 1846.56 201.571 28
-3 -9 -1 4634.03 324.804 21
-3 -9 -1 3917.67 289.402 28
-3 -9 -2 200.461 94.0121 21
-3 -9 -2 226.113 114.483 19
-3 -9 -2 76.2696 83.6533 28
-3 -9 -3 115.092 85.4845 21
-3 -9 -3 195.349 96.9243 28
-3 -9 -3 408.700 97.9795 26
-3 -9 -4 945.791 143.040 21
-3 -9 -4 1412.45 177.311 28
-3 -9 -5 4807.88 298.239 28
-3 -10 0 255.943 69.7144 21
-3 -10 0 171.709 61.6148 28
-3 -10 -1 85.4661 63.6890 21
-3 -10 -1 -19.6560 54.3300 28
-3 -10 -2 168.369 74.9650 21
-3 -10 -2 258.473 73.5148 28
-3 -10 -3 2364.29 177.960 21
-3 -10 -3 3072.26 190.024 28
4 -4 -2 3208.72 179.015 23
4 -4 -1 410.005 92.6768 23
-4 4 1 488.265 105.348 13
-4 4 0 108.254 68.2939 13
-4 4 -1 427.971 94.4762 13
-4 4 -2 130.325 63.5085 13
-4 4 -3 35.2354 45.5342 13
4 -3 -4 137.642 65.2418 23
4 -3 -3 3529.70 214.670 23
4 -3 -2 125.184 93.2154 23
4 -3 -1 8611.54 338.684 23
-4 3 -1 15.5034 77.7093 13
-4 3 -2 1198.31 159.656 13
-4 3 -2 1077.04 138.308 16
-4 3 -3 523.304 107.910 13
-4 3 -3 455.853 99.5714 16
-4 3 -4 3561.96 213.162 13
-4 3 -4 3698.16 235.066 16
-4 3 -5 137.514 63.3709 16
4 -2 -5 -32.5040 56.4156 23
4 -2 -4 86.5786 78.3528 23
4 -2 -3 13081.6 450.789 23
4 -2 -2 1169.50 162.755 23
4 -2 -1 5327.83 299.332 23
-4 2 1 5186.04 320.875 14
-4 2 0 86.4219 85.8938 14
-4 2 -1 749.423 142.526 14
-4 2 -2 308.837 117.325 13
-4 2 -2 215.089 95.9372 16
-4 2 -3 -98.5096 78.5192 13
-4 2 -3 -156.399 90.9291 16
-4 2 -4 9.19243 63.7878 13
-4 2 -4 -106.463 91.3418 16
-4 2 -5 -141.849 88.5957 16
-4 2 -6 16.1534 59.8866 16
4 -1 -5 217.853 80.7660 23
4 -1 -4 1704.73 170.873 23
-4 1 3 361.961 97.2756 14
4 -1 -3 219.424 100.367 23
-4 1 2 126.308 95.5393 14
4 -1 -2 -108.392 99.7260 23
-4 1 1 338.527 133.217 14
4 -1 -1 371.566 112.030 23
-4 1 0 515.512 151.486 14
-4 1 -1 27.3301 101.005 14
-4 1 -2 61.0640 93.4744 14
-4 1 -2 -2.79748 89.1149 13
-4 1 -2 35.3908 88.6219 16
-4 1 -3 115.792 85.8626 14
-4 1 -3 41.5997 93.5287 16
-4 1 -4 189.328 87.6913 13
-4 1 -4 23.0981 101.991 16
-4 1 -5 219.262 87.3295 13
-4 1 -5 87.3975 86.6399 16
-4 1 -6 57.7662 73.4171 16
-4 1 -7 283.243 79.4025 16
4 0 -6 198.465 63.4542 23
4 0 -5 396.832 90.2167 23
4 0 -4 2675.40 208.960 23
-4 0 4 2852.66 204.950 14
4 0 -3 3394.74 245.686 23
-4 0 3 3605.44 261.121 14
-4 0 2 308.643 115.273 14
4 0 -2 222.219 101.644 23
-4 0 1 158.311 119.422 14
4 0 -1 89.0325 99.1146 23
-4 0 0 -32.7466 96.8382 14
-4 0 -1 61.8194 110.101 14
-4 0 -2 471.638 149.504 14
-4 0 -2 516.813 152.903 16
-4 0 -3 400.185 126.274 14
-4 0 -3 356.748 123.862 16
-4 0 -4 370.043 111.471 14
-4 0 -4 410.731 132.635 16
-4 0 -5 329.625 115.978 16
-4 0 -6 2534.62 239.314 16
-4 0 -7 670.947 124.881 16
4 1 -6 376.496 76.4992 23
-4 -1 4 3117.22 231.310 14
-4 -1 3 2461.77 223.867 14
-4 -1 2 180.404 104.039 14
-4 -1 1 105.773 105.544 14
4 1 -1 254.178 105.064 23
-4 -1 0 400.734 159.134 14
-4 -1 -1 4966.46 366.243 14
-4 -1 -2 734.800 173.174 14
-4 -1 -2 676.658 174.225 16
-4 -1 -3 1791.21 248.136 16
-4 -1 -3 1804.57 223.984 14
-4 -1 -4 194.767 103.086 14
-4 -1 -4 360.890 153.481 16
-4 -1 -5 485.609 150.385 16
-4 -1 -6 10634.4 502.221 16
-4 -1 -7 376.428 115.177 16
-4 -1 -8 4694.26 237.382 17
-4 -1 -8 4500.97 224.552 16
-4 -2 5 3764.31 217.299 14
-4 -2 4 1694.82 174.487 14
-4 -2 3 44.4248 82.9002 14
-4 -2 2 1352.81 192.003 14
-4 -2 1 122.240 107.625 14
-4 -2 0 116.599 99.0602 14
-4 -2 -1 5475.65 376.169 14
-4 -2 -2 139.855 116.841 14
-4 -2 -2 258.436 124.411 16
-4 -2 -3 105.775 93.3199 14
-4 -2 -3 10.7491 100.838 16
-4 -2 -4 92.5725 94.4368 14
-4 -2 -4 193.627 131.213 16
-4 -2 -5 181.888 138.982 16
-4 -2 -6 179.990 134.386 16
-4 -2 -7 1719.32 200.797 16
-4 -2 -8 -108.717 68.1746 17
-4 -2 -8 -110.444 82.0976 16
-4 -3 5 755.045 107.718 14
-4 -3 4 1132.47 148.097 14
-4 -3 3 656.549 124.006 14
-4 -3 2 742.688 150.320 14
-4 -3 1 897.427 161.563 14
-4 -3 0 300.992 116.823 14
-4 -3 -1 568.235 145.494 14
-4 -3 -1 145.263 103.953 16
-4 -3 -2 146.166 106.770 14
-4 -3 -2 122.093 105.903 16
-4 -3 -3 166.972 106.058 14
-4 -3 -3 369.176 153.702 16
-4 -3 -4 222.913 146.182 16
-4 -3 -4 1161.79 174.716 26
-4 -3 -5 400.751 157.609 16
-4 -3 -6 312.460 128.733 16
-4 -3 -7 19.8469 93.7134 17
-4 -3 -7 31.0477 105.423 16
-4 -3 -8 81.7260 65.4139 17
-4 -3 -8 74.8715 62.8872 16
-4 -4 5 -17.3160 47.8851 14
-4 -4 4 1723.53 164.522 14
-4 -4 3 967.472 139.593 14
-4 -4 2 2196.08 213.145 14
-4 -4 1 204.044 101.074 14
-4 -4 0 2413.09 233.141 14
-4 -4 0 841.944 134.236 26
-4 -4 -1 1333.07 179.657 14
-4 -4 -1 1609.53 199.611 16
-4 -4 -2 393.630 121.298 14
-4 -4 -2 90.4109 97.4831 16
-4 -4 -2 100.205 92.3957 26
-4 -4 -3 20.1604 122.065 16
-4 -4 -3 1117.68 177.186 26
-4 -4 -4 259.728 100.066 17
-4 -4 -4 276.968 115.636 16
-4 -4 -5 6640.21 392.293 17
-4 -4 -5 7204.13 441.058 16
-4 -4 -6 568.546 135.033 17
-4 -4 -6 432.513 131.172 16
-4 -4 -7 977.147 150.799 17
-4 -4 -7 734.454 136.482 16
-4 -4 -8 164.904 71.6687 17
-4 -4 -8 137.006 73.5872 16
-4 -5 4 201.851 70.6981 14
-4 -5 3 719.347 114.907 14
-4 -5 2 6267.14 324.965 14
-4 -5 1 14477.2 505.969 14
-4 -5 0 5780.40 331.219 14
-4 -5 -1 4285.16 300.523 16
-4 -5 -1 3977.03 276.137 14
-4 -5 -2 145.860 106.086 16
-4 -5 -2 -469.663 147.219 26
-4 -5 -3 1741.35 214.962 16
-4 -5 -3 2424.87 228.005 26
-4 -5 -4 1265.18 166.031 17
-4 -5 -4 1339.57 198.553 16
-4 -5 -5 1582.94 192.460 17
-4 -5 -5 1612.19 224.819 16
-4 -5 -5 2094.94 210.558 26
-4 -5 -6 -51.6659 73.3753 17
-4 -5 -6 -7.54937 96.4705 16
-4 -5 -7 292.057 94.7332 17
-4 -5 -7 184.244 98.4807 16
-4 -5 -8 40.5745 53.1301 24
-4 -5 -8 286.788 83.7162 17
-4 -6 3 208.023 70.1070 14
-4 -6 2 1440.38 148.971 14
-4 -6 1 3614.40 230.732 14
-4 -6 0 736.660 119.033 14
-4 -6 0 -111.466 115.150 26
-4 -6 -1 2781.96 225.843 16
-4 -6 -1 578.959 106.884 26
-4 -6 -2 355.285 122.954 16
-4 -6 -2 810.821 139.996 28
-4 -6 -3 934.526 162.393 16
-4 -6 -3 1439.51 179.167 26
-4 -6 -4 176.359 114.763 16
-4 -6 -4 2263.10 209.301 26
-4 -6 -5 672.966 126.414 17
-4 -6 -5 507.922 139.794 16
-4 -6 -6 277.228 89.9187 17
-4 -6 -6 258.631 108.184 16
-4 -6 -7 -19.1005 61.2984 17
-4 -6 -7 143.516 85.3114 16
-4 -7 1 -239.981 76.9435 26
-4 -7 0 109.388 66.3212 26
-4 -7 -1 681.140 106.488 28
-4 -7 -1 -436.297 101.892 26
-4 -7 -2 1186.31 136.900 28
-4 -7 -2 234.230 84.1240 26
-4 -7 -3 279.688 108.391 16
-4 -7 -3 989.264 153.336 26
-4 -7 -4 213.768 101.972 16
-4 -7 -4 2015.08 181.341 26
-4 -7 -5 240.408 110.285 16
-4 -8 0 -92.4339 56.8137 26
-4 -8 -1 1255.99 118.480 26
-4 -8 -2 2626.48 167.679 28
-4 -8 -2 1521.63 136.578 26
-4 -8 -3 1906.59 147.829 26
-4 -8 -4 724.543 99.2440 26
