#------------------------------------------------------------------------------
#$Date: 2019-12-14 03:14:12 +0200 (Sat, 14 Dec 2019) $
#$Revision: 245167 $
#$URL: file:///home/coder/svn-repositories/cod/cif/4/03/76/4037657.cif $
#------------------------------------------------------------------------------
#
# This file is available in the Crystallography Open Database (COD),
# http://www.crystallography.net/
#
# All data on this site have been placed in the public domain by the
# contributors.
#
data_4037657
loop_
_publ_author_name
'Shah, Tariq A.'
'De, Pinaki Bhusan'
'Pradhan, Sourav'
'Banerjee, Sonbidya'
'Punniyamurthy, Tharmalingam'
_publ_section_title
;
 Cp*Co(III)-Catalyzed Regioselective C2 Amidation of Indoles Using Acyl
 Azides.
;
_journal_name_full               'The Journal of organic chemistry'
_journal_paper_doi               10.1021/acs.joc.9b02244
_journal_year                    2019
_chemical_formula_sum            'C19 H13 F N4 O'
_chemical_formula_weight         332.33
_space_group_crystal_system      triclinic
_space_group_IT_number           2
_space_group_name_Hall           '-P 1'
_space_group_name_H-M_alt        'P -1'
_atom_sites_solution_hydrogens   mixed
_audit_creation_method           SHELXL-2014/7
_cell_angle_alpha                103.888(2)
_cell_angle_beta                 100.511(2)
_cell_angle_gamma                92.732(2)
_cell_formula_units_Z            2
_cell_length_a                   7.2982(6)
_cell_length_b                   9.6873(8)
_cell_length_c                   11.2859(9)
_cell_measurement_reflns_used    8012
_cell_measurement_temperature    273(2)
_cell_measurement_theta_max      25.55
_cell_measurement_theta_min      2.50
_cell_volume                     758.08(11)
_computing_structure_refinement  'SHELXL-2014/7 (Sheldrick, 2014)'
_diffrn_ambient_temperature      273(2)
_diffrn_measured_fraction_theta_full 1.000
_diffrn_measured_fraction_theta_max 1.000
_diffrn_measurement_device_type  'Bruker APEX-II CCD'
_diffrn_measurement_method       '\f and \w scans'
_diffrn_radiation_type           MoK\a
_diffrn_radiation_wavelength     0.71073
_diffrn_reflns_av_R_equivalents  0.0451
_diffrn_reflns_av_unetI/netI     0.0192
_diffrn_reflns_Laue_measured_fraction_full 1.000
_diffrn_reflns_Laue_measured_fraction_max 1.000
_diffrn_reflns_limit_h_max       8
_diffrn_reflns_limit_h_min       -8
_diffrn_reflns_limit_k_max       11
_diffrn_reflns_limit_k_min       -11
_diffrn_reflns_limit_l_max       13
_diffrn_reflns_limit_l_min       -13
_diffrn_reflns_number            27266
_diffrn_reflns_point_group_measured_fraction_full 1.000
_diffrn_reflns_point_group_measured_fraction_max 1.000
_diffrn_reflns_theta_full        25.043
_diffrn_reflns_theta_max         25.043
_diffrn_reflns_theta_min         1.897
_exptl_absorpt_coefficient_mu    0.103
_exptl_crystal_colour            colourless
_exptl_crystal_density_diffrn    1.456
_exptl_crystal_description       needle
_exptl_crystal_F_000             344
_exptl_crystal_size_max          0.24
_exptl_crystal_size_mid          0.21
_exptl_crystal_size_min          0.17
_refine_diff_density_max         0.162
_refine_diff_density_min         -0.333
_refine_diff_density_rms         0.081
_refine_ls_extinction_method     none
_refine_ls_goodness_of_fit_ref   1.070
_refine_ls_hydrogen_treatment    mixed
_refine_ls_matrix_type           full
_refine_ls_number_parameters     230
_refine_ls_number_reflns         2693
_refine_ls_number_restraints     0
_refine_ls_restrained_S_all      1.070
_refine_ls_R_factor_all          0.0513
_refine_ls_R_factor_gt           0.0425
_refine_ls_shift/su_max          0.000
_refine_ls_shift/su_mean         0.000
_refine_ls_structure_factor_coef Fsqd
_refine_ls_weighting_details
'w=1/[\s^2^(Fo^2^)+(0.1000P)^2^+0.0155P] where P=(Fo^2^+2Fc^2^)/3'
_refine_ls_weighting_scheme      calc
_refine_ls_wR_factor_gt          0.1217
_refine_ls_wR_factor_ref         0.1364
_reflns_Friedel_coverage         0.000
_reflns_number_gt                2218
_reflns_number_total             2693
_reflns_threshold_expression     'I > 2\s(I)'
_cod_data_source_file            jo9b02244_si_003.cif
_cod_data_source_block           TAS-22_0m_a
_cod_database_code               4037657
_shelx_shelxl_version_number     2014/7
_shelx_space_group_comment
;
The symmetry employed for this shelxl refinement is uniquely defined
by the following loop, which should always be used as a source of
symmetry information in preference to the above space-group names.
They are only intended as comments.
;
_shelx_res_file
;

    TAS-22_0m_a.res created by SHELXL-2014/7

TITL TAS-22_0m_a.res in P-1
CELL  0.71073   7.2982   9.6873  11.2859  103.888  100.511   92.732
ZERR    2.000   0.0006   0.0008   0.0009    0.002    0.002    0.002
LATT 1
SFAC C  H  F  N  O
UNIT 38  26  2  8  2
OMIT -3 50.1
L.S. 10
ACTA
BOND $H
FMAP 2
PLAN 5
TEMP 0.000
WGHT    0.100000    0.015531
FVAR       0.78164
F1    3    0.917695    1.123478    0.842707    11.00000    0.09413    0.04587 =
         0.08042   -0.00953    0.01794   -0.01088
O002  5    0.673874    0.464356    0.691684    11.00000    0.09152    0.04875 =
         0.04903    0.01013    0.02861   -0.00205
N003  4    0.705809    0.301913    0.316359    11.00000    0.04861    0.03796 =
         0.03302    0.00718    0.00683    0.00336
N004  4    0.749206    0.484802    0.510111    11.00000    0.05643    0.03900 =
         0.03445    0.00516    0.00892   -0.00134
N005  4    0.834663    0.518957    0.298288    11.00000    0.05520    0.04299 =
         0.04570    0.01090    0.01051    0.00113
N1    4    0.686883    0.339528    0.119251    11.00000    0.07850    0.05477 =
         0.03831    0.01145    0.00996   -0.00187
C007  1    0.743298    0.391115    0.241083    11.00000    0.04524    0.04019 =
         0.03845    0.00878    0.00964    0.00691
C008  1    0.783528    0.695099    0.681152    11.00000    0.03894    0.04372 =
         0.03559    0.00712    0.00562    0.00492
C009  1    0.716602    0.341827    0.446808    11.00000    0.04437    0.03884 =
         0.03470    0.00563    0.00587    0.00181
C00A  1    0.665416    0.151765    0.277459    11.00000    0.04273    0.03848 =
         0.03888    0.00722    0.00661    0.00517
C00B  1    0.652753    0.103875    0.383440    11.00000    0.04529    0.03974 =
         0.04179    0.00798    0.00854    0.00313
C00C  1    0.685742    0.225030    0.488009    11.00000    0.05726    0.04219 =
         0.03557    0.00865    0.00930    0.00029
AFIX  43
H00C  2    0.685918    0.223646    0.570141    11.00000   -1.20000
AFIX   0
C00D  1    0.729621    0.538386    0.629862    11.00000    0.04617    0.04459 =
         0.03618    0.00883    0.00832    0.00395
C00E  1    0.643175    0.057459    0.161445    11.00000    0.06251    0.04433 =
         0.03864    0.00622    0.00918    0.00931
AFIX  43
H00E  2    0.654507    0.089456    0.091500    11.00000   -1.20000
AFIX   0
C00F  1    0.613284   -0.041607    0.371998    11.00000    0.05923    0.04304 =
         0.04831    0.01140    0.01251    0.00568
AFIX  43
H00F  2    0.605209   -0.074706    0.441882    11.00000   -1.20000
AFIX   0
C00G  1    0.838674    0.786764    0.613588    11.00000    0.06685    0.04768 =
         0.03823    0.00733    0.01276    0.00303
AFIX  43
H00G  2    0.844883    0.750403    0.530449    11.00000   -1.20000
AFIX   0
C00H  1    0.586469   -0.135462    0.256403    11.00000    0.06298    0.03665 =
         0.05717    0.00722    0.01154    0.00627
AFIX  43
H00H  2    0.556825   -0.232309    0.247595    11.00000   -1.20000
AFIX   0
C00I  1    0.777337    0.752215    0.804907    11.00000    0.06343    0.05439 =
         0.03732    0.00679    0.01296   -0.00170
AFIX  43
H00I  2    0.741413    0.692723    0.851880    11.00000   -1.20000
AFIX   0
C00J  1    0.874231    0.981452    0.789622    11.00000    0.05103    0.04281 =
         0.05548   -0.00185    0.00710   -0.00078
C00K  1    0.876907    0.599527    0.225002    11.00000    0.06456    0.04646 =
         0.05524    0.01743    0.01528    0.00151
AFIX  43
H00K  2    0.940260    0.689616    0.261623    11.00000   -1.20000
AFIX   0
C00L  1    0.603443   -0.086318    0.152753    11.00000    0.06708    0.04314 =
         0.04749   -0.00086    0.00874    0.01023
AFIX  43
H00L  2    0.587753   -0.151544    0.075489    11.00000   -1.20000
AFIX   0
C00M  1    0.830815    0.555071    0.097853    11.00000    0.08321    0.05953 =
         0.05615    0.02565    0.02485    0.00672
AFIX  43
H00M  2    0.863589    0.611265    0.047338    11.00000   -1.20000
AFIX   0
C00N  1    0.884207    0.930453    0.667823    11.00000    0.07110    0.04545 =
         0.05206    0.01170    0.01389   -0.00113
AFIX  43
H00N  2    0.920964    0.991321    0.622258    11.00000   -1.20000
AFIX   0
C00O  1    0.823552    0.895855    0.859686    11.00000    0.06727    0.05950 =
         0.04012   -0.00560    0.01393   -0.00377
AFIX  43
H00O  2    0.820082    0.933453    0.943120    11.00000   -1.20000
AFIX   0
C00P  1    0.734193    0.423803    0.049562    11.00000    0.09767    0.06597 =
         0.04107    0.01623    0.01610    0.00157
AFIX  43
H00P  2    0.699228    0.391019   -0.036592    11.00000   -1.20000
AFIX   0
H1N   2    0.792572    0.541947    0.466066    11.00000    0.06646
HKLF 4

REM  TAS-22_0m_a.res in P-1
REM R1 =  0.0425 for    2218 Fo > 4sig(Fo)  and  0.0513 for all    2693 data
REM    230 parameters refined using      0 restraints

END

WGHT      0.0650      0.1167

REM Highest difference peak  0.162,  deepest hole -0.333,  1-sigma level  0.081
Q1    1   0.4336  0.1218  0.3585  11.00000  0.05    0.16
Q2    1   0.6050 -0.0897  0.5801  11.00000  0.05    0.15
Q3    1   0.5380  0.7653  0.6461  11.00000  0.05    0.15
Q4    1   0.3237 -0.1110  0.2814  11.00000  0.05    0.15
Q5    1   0.7613  1.2275  0.7779  11.00000  0.05    0.15
;
_shelx_res_checksum              94030
_shelx_hkl_file
;
  -1   0   0   22.10    1.20
  -1   0   0   23.20    1.00
   1   0   0   23.90    1.20
   1   0   0   24.10    1.10
  -2   0   0 4465.65  179.28
  -2   0   0 4701.03  179.28
  -2   0   0 4435.76  179.18
  -2   0   0 4887.71  179.28
  -2   0   0 3931.31  179.08
  -2   0   0 4836.32  179.58
  -2   0   0 5000.40  179.48
  -2   0   0 4410.76  179.28
  -2   0   0 4975.70  179.38
  -2   0   0 4878.71  179.58
   2   0   0 5211.88  179.38
   2   0   0 4637.34  179.18
   2   0   0 4728.83  179.38
   2   0   0 4696.93  179.38
   2   0   0 5070.99  179.38
  -3   0   0  113.19    5.30
  -3   0   0  117.69    5.10
  -3   0   0  117.19    5.30
  -3   0   0  125.79    5.10
  -3   0   0  129.79    5.50
  -3   0   0  125.19    5.70
  -3   0   0  117.39    5.30
  -3   0   0  123.59    5.30
  -3   0   0  121.69    5.10
  -3   0   0  122.89    5.20
  -3   0   0  122.59    5.50
  -3   0   0  119.39    5.60
   3   0   0  122.99    5.40
   3   0   0  117.49    5.40
   3   0   0  129.99    5.20
   3   0   0  128.39    5.40
   3   0   0  122.49    5.50
   3   0   0  130.89    5.20
  -4   0   0  143.69    6.50
  -4   0   0  133.29    6.20
  -4   0   0  143.99    6.10
  -4   0   0  138.29    6.20
  -4   0   0  138.49    5.90
  -4   0   0  139.79    6.20
  -4   0   0  142.89    5.90
  -4   0   0  130.19    5.90
  -4   0   0  135.69    6.20
  -4   0   0  144.99    6.40
  -4   0   0  137.29    6.70
  -4   0   0  136.39    6.60
   4   0   0  148.29    6.40
   4   0   0  148.59    6.00
   4   0   0  136.29    6.40
   4   0   0  133.99    6.40
   4   0   0  147.89    6.00
   4   0   0  143.49    6.30
  -5   0   0   43.40    2.80
  -5   0   0   48.70    2.80
  -5   0   0   50.59    2.50
  -5   0   0   47.30    3.20
  -5   0   0   47.20    3.30
  -5   0   0   48.60    3.10
  -5   0   0   54.29    3.50
  -5   0   0   42.10    2.40
  -5   0   0   46.60    2.80
  -5   0   0   46.30    2.90
  -5   0   0   43.80    2.80
   5   0   0   48.70    3.00
   5   0   0   50.19    2.60
   5   0   0   46.70    2.90
   5   0   0   50.89    2.60
   5   0   0   47.00    3.00
   5   0   0   45.90    3.00
  -6   0   0   -0.40    0.90
  -6   0   0   -0.10    0.70
  -6   0   0    0.10    0.80
  -6   0   0    1.40    0.80
  -6   0   0    0.10    1.00
  -6   0   0   -0.20    0.70
  -6   0   0   -0.50    0.60
  -6   0   0   -0.40    0.60
  -6   0   0    0.10    0.60
  -6   0   0   -0.20    0.90
   6   0   0    0.90    0.90
   6   0   0    1.80    0.90
   6   0   0    0.70    0.80
   6   0   0    0.30    0.80
  -7   0   0    4.70    1.30
  -7   0   0    7.50    1.80
  -7   0   0    5.20    1.40
  -7   0   0    6.00    1.80
  -7   0   0    5.80    1.60
  -7   0   0    4.20    1.30
  -7   0   0    4.80    1.60
  -7   0   0    4.10    1.20
   7   0   0    4.30    1.10
   7   0   0    5.30    1.40
   7   0   0    3.80    1.20
   7   0   0    7.60    1.70
   7   0   0    6.10    1.60
  -8   0   0    2.30    1.20
  -8   0   0   -0.60    1.50
  -8   0   0   -1.10    0.80
  -8   0   0    0.30    1.30
  -8   0   0    2.40    1.60
  -8   0   0    2.90    1.40
  -8   0   0    0.10    1.00
   8   0   0    0.60    1.30
   8   0   0    1.60    1.30
   8   0   0    2.00    1.00
   8   0   0    0.00    0.90
   8   0   0    0.80    1.00
  -9   0   0   -1.80    1.70
  -9   0   0   -2.60    1.30
  -9   0   0    1.10    1.30
  -9   0   0   -2.10    1.60
   9   0   0   -0.60    1.40
   9   0   0   -0.40    1.40
   9   0   0   -0.70    1.00
   9  -1   0    4.90    1.50
   9  -1   0    4.50    1.80
  -9   1   0    4.90    1.80
  -9   1   0    2.90    1.80
  -9   1   0    2.40    2.00
  -9   1   0    2.80    1.60
   8  -1   0    0.20    0.80
   8  -1   0    0.20    1.30
   8  -1   0   -0.50    1.20
   8  -1   0    0.00    1.00
   8  -1   0   -0.40    1.30
  -8   1   0    1.50    1.20
  -8   1   0   -0.50    1.00
  -8   1   0    0.50    1.50
  -8   1   0    0.80    1.40
  -8   1   0    1.50    1.30
  -8   1   0   -0.50    1.00
  -8   1   0   -2.10    1.20
   7  -1   0   50.29    3.60
   7  -1   0   49.50    3.30
   7  -1   0   51.69    3.20
   7  -1   0   52.39    3.60
   7  -1   0   53.99    3.60
  -7   1   0   53.79    4.00
  -7   1   0   54.39    4.20
  -7   1   0   45.70    4.00
  -7   1   0   51.79    3.60
  -7   1   0   53.89    3.60
  -7   1   0   49.70    3.50
  -7   1   0   44.20    3.40
  -7   1   0   50.19    3.40
   6  -1   0   55.19    3.50
   6  -1   0   53.99    3.20
   6  -1   0   60.19    3.20
   6  -1   0   51.49    3.30
   6  -1   0   54.99    3.60
   6  -1   0   58.79    3.50
  -6   1   0   52.79    3.50
  -6   1   0   49.20    3.80
  -6   1   0   59.79    3.40
  -6   1   0   53.69    3.70
  -6   1   0   56.99    3.50
  -6   1   0   60.09    4.10
  -6   1   0   50.79    3.40
  -6   1   0   50.79    3.50
  -6   1   0   58.39    3.50
   5  -1   0   38.30    2.50
   5  -1   0   39.20    2.60
   5  -1   0   34.90    2.00
   5  -1   0   34.30    2.20
   5  -1   0   34.90    2.40
   5  -1   0   33.10    1.90
   5  -1   0   33.70    2.20
  -5   1   0   34.40    2.20
  -5   1   0   31.60    2.30
  -5   1   0   37.70    2.50
  -5   1   0   28.50    2.30
  -5   1   0   33.10    1.90
  -5   1   0   30.90    2.10
  -5   1   0   35.60    2.30
  -5   1   0   32.00    2.40
  -5   1   0   40.10    2.90
  -5   1   0   32.10    2.60
  -5   1   0   33.60    2.60
   4  -1   0 3238.78  120.99
   4  -1   0 3254.27  120.69
   4  -1   0 3440.96  120.99
   4  -1   0 3171.38  120.59
   4  -1   0 3260.77  121.19
   4  -1   0 3220.08  121.09
  -4   1   0 3063.39  121.09
  -4   1   0 3085.59  121.09
  -4   1   0 3151.78  120.59
  -4   1   0 3089.29  120.99
  -4   1   0 3127.09  121.49
  -4   1   0 3105.59  121.49
  -4   1   0 3079.39  120.99
  -4   1   0 3000.80  120.89
  -4   1   0 3182.78  121.19
  -4   1   0 3174.18  120.59
  -4   1   0 3362.16  121.09
  -4   1   0 3075.39  120.99
   3  -1   0  250.57    9.50
   3  -1   0  238.38    9.80
   3  -1   0  245.18    9.70
   3  -1   0  252.27    9.50
   3  -1   0  228.28    9.80
   3  -1   0  252.87    9.70
  -3   1   0  243.88    9.70
  -3   1   0  227.78    9.70
  -3   1   0  241.78    9.40
  -3   1   0  239.28    9.90
  -3   1   0  233.28    9.80
  -3   1   0  221.38   10.00
  -3   1   0  219.28    9.80
  -3   1   0  237.58   10.00
  -3   1   0  238.38    9.40
  -3   1   0  247.18    9.70
  -3   1   0  242.48    9.90
   2  -1   0 5556.64  208.98
   2  -1   0 5727.13  208.98
   2  -1   0 5810.22  208.88
  -2   1   0 5151.48  208.88
  -2   1   0 5599.44  209.18
  -2   1   0 5844.72  208.98
  -2   1   0 5437.56  209.08
  -2   1   0 4972.90  208.98
  -2   1   0 5754.42  209.08
  -2   1   0 5413.96  208.98
  -2   1   0 5283.17  208.98
  -2   1   0 5535.15  209.18
   1  -1   0  385.46   14.50
   1  -1   0  383.56   14.60
   1  -1   0  383.36   14.70
  -1   1   0  359.86   14.50
  -1   1   0  392.76   14.70
   0  -1   0   45.70    1.80
   0  -1   0   47.50    1.90
   0   1   0   43.80    1.90
  -1  -1   0    3.40    0.50
  -1  -1   0    4.30    0.40
  -1  -1   0    3.50    0.50
  -1  -1   0    4.00    0.60
  -1  -1   0    3.90    0.30
   1   1   0    4.80    0.50
  -2  -1   0   72.89    3.50
  -2  -1   0   71.89    3.40
  -2  -1   0   73.49    3.10
  -2  -1   0   69.29    3.10
  -2  -1   0   67.89    3.40
  -2  -1   0   71.19    3.10
  -2  -1   0   71.89    3.10
  -2  -1   0   69.19    3.30
  -2  -1   0   69.19    3.10
   2   1   0   73.89    3.20
   2   1   0   76.49    3.20
   2   1   0   74.49    3.40
   2   1   0   74.79    3.40
  -3  -1   0   57.19    2.80
  -3  -1   0   61.39    3.20
  -3  -1   0   62.49    2.90
  -3  -1   0   58.39    2.80
  -3  -1   0   63.69    3.20
  -3  -1   0   58.69    3.30
  -3  -1   0   59.59    2.80
  -3  -1   0   58.79    2.90
  -3  -1   0   59.99    2.70
  -3  -1   0   62.29    3.30
  -3  -1   0   60.29    2.90
  -3  -1   0   61.99    2.90
   3   1   0   60.09    3.20
   3   1   0   64.39    2.90
   3   1   0   60.59    2.70
   3   1   0   63.49    2.90
   3   1   0   60.79    3.10
   3   1   0   65.19    3.20
  -4  -1   0   22.80    1.50
  -4  -1   0   25.50    2.00
  -4  -1   0   25.10    1.70
  -4  -1   0   26.50    1.40
  -4  -1   0   24.00    1.50
  -4  -1   0   23.10    1.70
  -4  -1   0   21.20    1.50
  -4  -1   0   23.20    1.90
  -4  -1   0   23.60    2.00
  -4  -1   0   24.90    2.00
  -4  -1   0   26.50    1.70
  -4  -1   0   29.00    1.70
   4   1   0   24.10    1.90
   4   1   0   24.10    1.80
   4   1   0   26.00    1.60
   4   1   0   22.00    1.80
   4   1   0   25.60    1.50
   4   1   0   23.00    1.60
   4   1   0   22.10    1.80
  -5  -1   0   29.90    2.10
  -5  -1   0   28.00    1.90
  -5  -1   0   26.70    1.80
  -5  -1   0   22.90    1.70
  -5  -1   0   26.80    1.80
  -5  -1   0   25.10    2.20
  -5  -1   0   30.10    2.50
  -5  -1   0   28.30    2.00
  -5  -1   0   29.40    2.00
  -5  -1   0   25.10    1.60
  -5  -1   0   26.60    2.50
  -5  -1   0   35.10    2.60
   5   1   0   30.10    1.90
   5   1   0   25.00    2.10
   5   1   0   27.40    2.10
   5   1   0   27.00    2.20
   5   1   0   22.40    2.10
   5   1   0   26.80    1.90
   5   1   0   24.50    2.40
  -6  -1   0   21.40    2.20
  -6  -1   0   20.80    2.60
  -6  -1   0   20.60    2.60
  -6  -1   0   21.00    2.20
  -6  -1   0   17.70    2.50
  -6  -1   0   17.00    2.00
  -6  -1   0   20.90    1.70
  -6  -1   0   22.40    2.50
  -6  -1   0   23.20    2.20
   6   1   0   21.00    2.30
   6   1   0   23.00    1.80
   6   1   0   18.70    1.80
   6   1   0   20.60    2.40
   6   1   0   21.10    2.30
   6   1   0   23.90    2.50
  -7  -1   0    2.00    1.30
  -7  -1   0    3.00    1.50
  -7  -1   0    1.20    1.20
  -7  -1   0    0.90    0.90
  -7  -1   0    0.60    1.00
  -7  -1   0    1.50    1.30
  -7  -1   0    1.10    0.90
   7   1   0    0.00    1.00
   7   1   0    1.70    1.10
   7   1   0    1.50    1.10
   7   1   0    3.90    1.40
  -8  -1   0   -1.20    1.00
  -8  -1   0   -0.30    1.00
  -8  -1   0   -1.00    1.10
  -8  -1   0   -0.50    1.30
  -8  -1   0   -0.50    1.50
  -8  -1   0   -0.90    0.90
  -8  -1   0   -0.50    1.40
   8   1   0   -1.30    1.10
   8   1   0   -0.70    0.80
   8   1   0    0.60    1.20
   8   1   0    0.40    1.10
   8   1   0    0.50    1.30
  -9  -1   0    4.60    2.20
  -9  -1   0   -0.30    1.60
  -9  -1   0   -0.30    1.90
  -9  -1   0    0.80    1.30
   9   1   0    2.00    1.60
   9   1   0    0.30    1.60
   9   1   0    1.10    1.40
   9  -2   0    6.80    1.80
   9  -2   0    3.50    1.50
   9  -2   0    5.80    1.80
  -9   2   0    1.50    1.60
  -9   2   0    8.50    2.20
  -9   2   0    4.20    1.90
  -9   2   0    4.90    2.30
   8  -2   0   81.19    4.60
   8  -2   0   77.39    4.90
   8  -2   0   75.99    4.90
   8  -2   0   77.39    4.50
  -8   2   0   82.69    5.30
  -8   2   0   69.89    5.50
  -8   2   0   66.99    5.30
  -8   2   0   80.79    5.00
  -8   2   0   86.59    5.00
   7  -2   0    3.20    1.20
   7  -2   0    1.60    0.70
   7  -2   0    3.50    1.10
   7  -2   0    3.70    1.30
   7  -2   0    3.10    1.00
  -7   2   0    1.90    1.40
  -7   2   0    4.40    1.30
  -7   2   0    3.50    1.20
  -7   2   0    2.60    1.20
  -7   2   0    4.00    1.30
  -7   2   0    1.40    1.00
  -7   2   0    2.60    1.30
  -7   2   0    5.10    1.30
   6  -2   0   28.00    2.30
   6  -2   0   27.40    2.10
   6  -2   0   27.00    2.50
   6  -2   0   27.10    2.10
   6  -2   0   25.60    2.20
  -6   2   0   18.80    2.40
  -6   2   0   24.80    2.50
  -6   2   0   22.00    2.20
  -6   2   0   25.00    2.60
  -6   2   0   27.00    2.70
  -6   2   0   30.80    3.10
  -6   2   0   36.40    3.00
  -6   2   0   25.30    2.40
  -6   2   0   27.80    2.60
   5  -2   0   48.70    2.70
   5  -2   0   47.00    2.90
   5  -2   0   49.70    2.80
   5  -2   0   54.29    2.90
   5  -2   0   51.89    2.90
   5  -2   0   51.49    3.00
  -5   2   0   50.29    3.00
  -5   2   0   45.10    3.10
  -5   2   0   49.30    3.30
  -5   2   0   49.10    2.80
  -5   2   0   48.60    2.90
  -5   2   0   45.80    2.90
  -5   2   0   51.49    3.20
  -5   2   0   52.09    3.20
  -5   2   0   45.80    2.80
  -5   2   0   48.80    3.30
   4  -2   0  251.57   10.50
   4  -2   0  270.57   10.10
   4  -2   0  263.97   10.40
   4  -2   0  256.17   10.60
   4  -2   0  267.37   10.30
   4  -2   0  258.47   10.40
   4  -2   0  264.87   10.00
   4  -2   0  258.67   10.40
  -4   2   0  245.88   10.60
  -4   2   0  243.78   10.70
  -4   2   0  252.87   10.60
  -4   2   0  246.18   10.90
  -4   2   0  254.47   10.00
  -4   2   0  261.17   10.40
  -4   2   0  229.58   10.70
  -4   2   0  238.28   10.50
  -4   2   0  253.27   10.60
  -4   2   0  249.48   10.50
  -4   2   0  252.47   10.00
  -4   2   0  231.88   10.90
   3  -2   0  194.38    7.90
   3  -2   0  198.98    7.90
   3  -2   0  197.68    8.00
   3  -2   0  205.68    8.10
   3  -2   0  202.38    8.00
  -3   2   0  190.28    7.60
  -3   2   0  182.88    8.20
  -3   2   0  192.58    8.10
  -3   2   0  182.78    8.10
  -3   2   0  190.68    8.20
  -3   2   0  188.88    8.10
  -3   2   0  201.48    8.10
  -3   2   0  184.18    8.20
   2  -2   0  403.36   15.40
   2  -2   0  395.06   15.30
   2  -2   0  385.76   15.30
   2  -2   0  390.16   15.40
  -2   2   0  387.56   15.60
  -2   2   0  395.26   15.50
  -2   2   0  378.26   15.60
  -2   2   0  374.86   15.10
  -2   2   0  407.26   15.40
  -2   2   0  408.46   15.60
  -2   2   0  407.16   15.50
   1  -2   0  471.95   18.80
   1  -2   0  468.65   18.80
   1  -2   0  521.75   18.90
   1  -2   0  523.55   18.80
   1  -2   0  466.75   18.80
  -1   2   0  487.95   19.10
  -1   2   0  465.75   18.80
  -1   2   0  499.25   19.00
  -1   2   0  487.85   18.90
  -1   2   0  496.25   18.90
  -1   2   0  494.05   19.00
  -1   2   0  488.55   18.90
   0  -2   0 1114.59   39.60
   0  -2   0 1016.10   39.40
   0  -2   0 1098.19   39.60
   0  -2   0 1021.50   39.50
   0   2   0  997.10   39.60
   0   2   0  970.50   39.60
  -1  -2   0  157.18    6.30
  -1  -2   0  165.58    6.70
  -1  -2   0  162.18    6.60
  -1  -2   0  163.68    6.50
  -1  -2   0  155.88    6.70
  -1  -2   0  163.38    6.70
  -1  -2   0  155.08    6.40
   1   2   0  152.48    6.60
   1   2   0  162.98    6.60
   1   2   0  162.28    6.40
   1   2   0  169.68    6.60
  -2  -2   0  262.47   10.70
  -2  -2   0  265.77   11.10
  -2  -2   0  256.47   10.80
  -2  -2   0  271.07   10.60
  -2  -2   0  268.77   11.00
  -2  -2   0  265.27   11.00
  -2  -2   0  263.27   11.10
  -2  -2   0  270.67   10.60
   2   2   0  272.87   11.10
   2   2   0  278.17   10.60
   2   2   0  285.57   10.90
   2   2   0  279.27   10.90
  -3  -2   0   32.40    1.90
  -3  -2   0   31.30    1.70
  -3  -2   0   30.30    1.80
  -3  -2   0   31.10    1.70
  -3  -2   0   33.80    1.70
  -3  -2   0   30.70    2.20
  -3  -2   0   32.60    2.10
  -3  -2   0   34.00    2.20
  -3  -2   0   30.50    2.20
  -3  -2   0   30.00    1.60
   3   2   0   33.90    2.10
   3   2   0   34.70    2.10
   3   2   0   33.10    1.60
   3   2   0   34.80    1.60
   3   2   0   34.50    1.90
   3   2   0   31.80    1.90
  -4  -2   0   31.20    2.00
  -4  -2   0   34.80    2.00
  -4  -2   0   37.00    2.00
  -4  -2   0   33.00    2.00
  -4  -2   0   35.80    2.40
  -4  -2   0   35.20    2.60
  -4  -2   0   29.20    2.40
  -4  -2   0   33.40    2.00
  -4  -2   0   31.30    2.40
  -4  -2   0   29.20    1.70
  -4  -2   0   33.50    1.70
   4   2   0   35.50    2.40
   4   2   0   34.20    1.80
   4   2   0   35.50    1.80
   4   2   0   32.70    2.10
   4   2   0   31.50    2.30
   4   2   0   33.80    2.10
  -5  -2   0   19.20    2.20
  -5  -2   0   20.30    1.60
  -5  -2   0   16.60    1.80
  -5  -2   0   16.60    1.70
  -5  -2   0   16.60    2.10
  -5  -2   0   16.20    1.60
  -5  -2   0   19.50    1.60
  -5  -2   0   17.70    2.30
  -5  -2   0   16.00    2.20
   5   2   0   18.50    2.10
   5   2   0   20.40    1.70
   5   2   0   17.40    2.10
   5   2   0   18.20    2.10
   5   2   0   22.10    2.00
  -6  -2   0    7.50    1.70
  -6  -2   0    5.60    1.10
  -6  -2   0    5.50    1.10
  -6  -2   0    3.60    1.50
  -6  -2   0    8.50    1.30
  -6  -2   0    5.00    1.20
  -6  -2   0    4.10    1.50
  -6  -2   0    8.40    1.60
   6   2   0    6.50    1.20
   6   2   0    5.50    1.40
   6   2   0    2.80    1.30
   6   2   0    7.70    1.60
   6   2   0    4.20    1.30
   6   2   0    5.20    1.10
  -7  -2   0    8.70    1.80
  -7  -2   0   13.30    2.30
  -7  -2   0   12.40    2.30
  -7  -2   0   11.60    1.80
  -7  -2   0   11.70    1.80
  -7  -2   0   10.80    1.80
  -7  -2   0    8.70    2.10
  -7  -2   0   10.00    1.60
   7   2   0   11.30    2.10
   7   2   0   15.20    2.30
   7   2   0    9.20    1.90
   7   2   0   11.60    2.20
   7   2   0    8.80    1.90
  -8  -2   0    1.90    1.80
  -8  -2   0   -1.10    1.10
  -8  -2   0    0.70    1.20
  -8  -2   0   -0.40    0.90
  -8  -2   0    3.00    1.80
  -8  -2   0    0.20    1.20
  -8  -2   0    1.10    1.20
   8   2   0    2.50    1.50
   8   2   0   -0.50    0.80
   8   2   0    0.20    1.00
   8   2   0    0.20    1.30
  -9  -2   0    0.80    1.60
  -9  -2   0    0.60    2.20
  -9  -2   0    2.00    2.60
  -9  -2   0   -1.80    1.70
   9   2   0   -0.40    1.50
   9   2   0   -0.30    1.50
   9  -3   0    1.40    1.30
   9  -3   0    2.20    1.30
   9  -3   0    1.50    1.40
  -9   3   0    3.00    1.70
  -9   3   0    2.40    1.60
  -9   3   0    0.50    1.60
   8  -3   0   23.50    2.50
   8  -3   0   24.50    2.70
   8  -3   0   24.50    2.80
   8  -3   0   25.10    2.70
   8  -3   0   24.00    2.80
  -8   3   0   24.40    3.10
  -8   3   0   29.20    3.50
  -8   3   0   22.40    2.90
  -8   3   0   28.20    3.20
  -8   3   0   20.10    2.60
   7  -3   0    0.50    0.70
   7  -3   0   -0.50    0.90
   7  -3   0    0.90    1.00
   7  -3   0    0.30    0.80
   7  -3   0   -0.80    0.70
  -7   3   0   -2.10    1.00
  -7   3   0   -0.70    0.90
  -7   3   0   -0.20    1.00
  -7   3   0   -0.30    1.00
  -7   3   0   -0.90    0.60
  -7   3   0   -0.10    0.90
   6  -3   0   47.40    3.10
   6  -3   0   45.40    3.00
   6  -3   0   46.60    2.90
   6  -3   0   47.50    3.00
  -6   3   0   47.90    3.40
  -6   3   0   38.10    2.90
  -6   3   0   48.70    3.60
  -6   3   0   43.70    3.20
  -6   3   0   44.50    3.10
  -6   3   0   48.60    3.50
  -6   3   0   49.99    3.20
   5  -3   0   60.39    3.10
   5  -3   0   58.39    3.10
   5  -3   0   57.49    3.10
   5  -3   0   59.79    3.30
   5  -3   0   56.89    3.20
  -5   3   0   53.99    3.30
  -5   3   0   53.99    3.40
  -5   3   0   55.69    3.30
  -5   3   0   53.09    3.30
  -5   3   0   61.99    3.40
  -5   3   0   59.19    3.70
   4  -3   0   17.40    1.30
   4  -3   0   15.00    1.30
   4  -3   0   19.60    1.40
   4  -3   0   19.10    1.40
   4  -3   0   16.90    1.40
  -4   3   0   15.10    1.70
  -4   3   0   15.80    1.80
  -4   3   0   17.00    1.70
  -4   3   0   16.40    1.70
  -4   3   0   16.90    1.70
  -4   3   0   17.50    1.00
  -4   3   0   16.80    1.70
   3  -3   0  302.77   11.80
   3  -3   0  281.37   11.50
   3  -3   0  285.67   11.70
   3  -3   0  290.77   11.70
   3  -3   0  293.67   11.80
   3  -3   0  285.37   11.80
  -3   3   0  294.27   12.10
  -3   3   0  309.07   12.00
  -3   3   0  303.17   11.90
  -3   3   0  275.27   12.10
  -3   3   0  313.27   12.00
  -3   3   0  282.17   11.40
   2  -3   0   66.79    2.90
   2  -3   0   59.49    2.80
   2  -3   0   62.49    2.60
   2  -3   0   60.19    2.80
   2  -3   0   59.39    2.80
   2  -3   0   62.69    2.80
  -2   3   0   62.49    3.00
  -2   3   0   64.89    3.00
  -2   3   0   61.29    2.90
  -2   3   0   61.69    2.90
  -2   3   0   59.09    3.10
  -2   3   0   59.99    2.70
  -2   3   0   60.99    3.10
   1  -3   0   25.10    1.30
   1  -3   0   21.50    1.20
   1  -3   0   22.60    1.20
   1  -3   0   19.90    1.20
   1  -3   0   22.50    1.20
  -1   3   0   20.40    1.40
  -1   3   0   22.10    1.30
  -1   3   0   21.90    1.30
  -1   3   0   20.40    1.20
  -1   3   0   22.30    1.20
  -1   3   0   22.10    1.20
  -1   3   0   21.50    1.30
   0  -3   0  196.68    7.80
   0  -3   0  183.38    7.50
   0  -3   0  191.58    7.40
   0  -3   0  185.88    7.50
   0  -3   0  191.78    7.70
   0  -3   0  194.58    7.70
   0  -3   0  196.58    7.60
   0   3   0  184.88    7.70
   0   3   0  189.28    7.60
   0   3   0  184.78    7.80
   0   3   0  192.88    7.80
   0   3   0  187.88    7.70
  -1  -3   0    6.30    0.80
  -1  -3   0    7.00    0.40
  -1  -3   0    5.60    0.80
  -1  -3   0    6.70    0.50
  -1  -3   0    5.50    0.70
  -1  -3   0    6.00    0.80
  -1  -3   0    6.80    0.70
  -1  -3   0    6.20    0.80
   1   3   0    6.70    0.80
   1   3   0    6.70    0.90
   1   3   0    7.10    0.70
   1   3   0    6.10    0.70
  -2  -3   0   48.60    2.10
  -2  -3   0   48.20    2.70
  -2  -3   0   48.80    2.70
  -2  -3   0   48.70    2.30
  -2  -3   0   47.10    2.70
  -2  -3   0   46.00    2.40
  -2  -3   0   46.70    2.10
  -2  -3   0   45.90    2.60
   2   3   0   47.30    2.20
   2   3   0   45.90    2.50
   2   3   0   41.30    2.60
   2   3   0   47.90    2.50
  -3  -3   0   60.79    3.10
  -3  -3   0   67.79    3.60
  -3  -3   0   60.69    3.60
  -3  -3   0   64.79    3.50
  -3  -3   0   59.59    3.20
  -3  -3   0   68.69    2.90
  -3  -3   0   60.89    3.60
  -3  -3   0   62.19    2.90
   3   3   0   65.09    2.90
   3   3   0   63.49    3.50
   3   3   0   61.69    3.30
   3   3   0   59.49    3.20
  -4  -3   0  109.69    4.80
  -4  -3   0  101.09    4.90
  -4  -3   0  112.69    4.80
  -4  -3   0  105.79    5.50
  -4  -3   0  107.09    5.70
  -4  -3   0  101.59    5.00
  -4  -3   0  101.09    5.60
  -4  -3   0  102.99    5.50
   4   3   0  105.69    5.40
   4   3   0  110.79    4.60
   4   3   0  106.39    5.10
   4   3   0  110.79    5.10
   4   3   0  105.29    5.40
  -5  -3   0    3.70    0.80
  -5  -3   0    2.50    0.70
  -5  -3   0    1.00    0.70
  -5  -3   0    2.70    1.30
  -5  -3   0    2.00    1.00
  -5  -3   0    3.90    1.20
  -5  -3   0    3.50    1.20
  -5  -3   0    3.30    0.70
   5   3   0    1.60    0.80
   5   3   0    3.10    0.90
   5   3   0    2.50    1.00
   5   3   0    1.60    1.00
  -6  -3   0    3.20    1.10
  -6  -3   0    1.60    0.80
  -6  -3   0    1.40    1.00
  -6  -3   0    4.80    1.20
  -6  -3   0    2.10    1.00
  -6  -3   0    3.90    1.60
  -6  -3   0    4.30    1.30
  -6  -3   0    3.60    0.90
   6   3   0    3.40    1.20
   6   3   0    2.40    1.00
   6   3   0    2.80    1.30
   6   3   0    5.40    1.30
   6   3   0    2.80    1.00
   6   3   0    3.00    1.30
  -7  -3   0    0.60    1.50
  -7  -3   0    0.90    1.20
  -7  -3   0    1.40    1.10
  -7  -3   0    3.20    1.60
  -7  -3   0    1.90    1.20
  -7  -3   0    0.60    1.50
  -7  -3   0    1.40    1.10
   7   3   0    1.60    1.20
   7   3   0    0.80    1.10
   7   3   0   -0.50    1.00
   7   3   0    1.10    1.00
   7   3   0    1.00    1.20
  -8  -3   0    4.80    2.10
  -8  -3   0    3.30    1.90
  -8  -3   0    4.20    2.30
  -8  -3   0    3.70    1.70
  -8  -3   0    1.80    1.60
   8   3   0    2.50    1.60
   8   3   0    2.90    1.70
   8   3   0    2.30    1.40
   8   3   0    1.10    1.90
  -9  -3   0    0.20    2.30
  -9  -3   0    1.20    1.90
  -9  -3   0    3.60    2.20
  -9  -3   0    6.10    2.00
   9   3   0    0.70    1.70
   9   3   0    3.10    1.50
   9   3   0    4.30    1.90
   9  -4   0    1.60    1.30
   9  -4   0   -0.70    1.20
  -9   4   0    0.00    1.60
  -9   4   0   -0.10    1.60
  -9   4   0   -0.60    1.50
  -9   4   0   -1.60    1.40
   8  -4   0    4.30    1.40
   8  -4   0    4.20    1.50
   8  -4   0    5.00    1.40
   8  -4   0    5.30    1.40
   8  -4   0    2.80    1.20
  -8   4   0    5.20    2.00
  -8   4   0    3.00    1.20
  -8   4   0    3.20    1.70
  -8   4   0    4.20    1.60
  -8   4   0    3.40    1.30
   7  -4   0    5.10    1.30
   7  -4   0    3.70    1.10
   7  -4   0    2.80    1.10
   7  -4   0    2.60    1.10
   7  -4   0    2.90    1.10
  -7   4   0    3.60    1.30
  -7   4   0    2.30    1.40
  -7   4   0    5.00    1.50
  -7   4   0    3.10    1.30
  -7   4   0    4.50    1.30
   6  -4   0   34.40    2.40
   6  -4   0   33.80    2.50
   6  -4   0   34.00    2.50
   6  -4   0   33.10    2.30
   6  -4   0   28.70    2.20
  -6   4   0   31.40    2.40
  -6   4   0   27.60    2.40
  -6   4   0   24.50    2.80
  -6   4   0   31.90    2.60
  -6   4   0   33.20    2.60
  -6   4   0   28.50    3.00
   5  -4   0   18.10    1.60
   5  -4   0   20.20    1.90
   5  -4   0   19.10    1.70
   5  -4   0   19.60    1.60
   5  -4   0   21.00    2.00
  -5   4   0   15.90    2.00
  -5   4   0   19.40    2.10
  -5   4   0   18.00    1.90
  -5   4   0   16.10    2.10
  -5   4   0   22.00    2.20
  -5   4   0   17.90    1.90
   4  -4   0    6.90    1.00
   4  -4   0    8.60    1.10
   4  -4   0    9.30    1.20
   4  -4   0   10.20    1.10
   4  -4   0    7.50    1.00
   4  -4   0    9.60    0.90
  -4   4   0    9.80    1.30
  -4   4   0    9.20    1.20
  -4   4   0    8.10    0.70
  -4   4   0    8.50    1.30
  -4   4   0    8.40    1.30
  -4   4   0   11.10    1.50
  -4   4   0    6.50    1.10
   3  -4   0   25.70    1.70
   3  -4   0   28.20    1.30
   3  -4   0   27.90    1.70
   3  -4   0   27.90    1.70
   3  -4   0   27.00    1.60
   3  -4   0   26.50    1.70
  -3   4   0   22.90    1.90
  -3   4   0   26.30    1.80
  -3   4   0   25.70    2.00
  -3   4   0   25.80    1.90
  -3   4   0   29.10    1.80
  -3   4   0   26.10    1.30
  -3   4   0   26.10    1.70
  -3   4   0   27.30    1.40
   2  -4   0  167.98    7.20
   2  -4   0  173.88    7.30
   2  -4   0  164.18    7.30
   2  -4   0  194.08    7.30
   2  -4   0  184.28    7.00
   2  -4   0  187.88    7.40
  -2   4   0  181.08    7.70
  -2   4   0  177.88    7.40
  -2   4   0  174.38    7.40
  -2   4   0  171.68    7.10
  -2   4   0  174.58    7.30
  -2   4   0  174.78    7.60
  -2   4   0  176.68    7.80
   1  -4   0   13.40    0.90
   1  -4   0   13.50    0.90
   1  -4   0   13.90    1.00
   1  -4   0   13.60    0.90
   1  -4   0   11.60    0.80
   1  -4   0   14.10    0.90
  -1   4   0   13.20    0.90
  -1   4   0   13.00    1.10
  -1   4   0   15.30    1.20
  -1   4   0   12.80    1.00
  -1   4   0   13.80    1.10
  -1   4   0   15.50    1.00
  -1   4   0   12.20    1.00
   0  -4   0   17.30    1.20
   0  -4   0   16.90    1.00
   0  -4   0   17.90    1.00
   0  -4   0   16.20    1.10
   0  -4   0   18.00    1.20
   0  -4   0   16.50    1.10
   0  -4   0   17.80    1.30
   0   4   0   18.30    1.20
   0   4   0   17.60    1.20
   0   4   0   16.60    1.10
   0   4   0   16.30    1.30
   0   4   0   19.00    1.40
   0   4   0   16.10    1.00
  -1  -4   0    4.80    0.80
  -1  -4   0    5.40    0.40
  -1  -4   0    6.30    0.70
  -1  -4   0    6.00    0.80
  -1  -4   0    6.40    0.60
  -1  -4   0    4.40    0.80
  -1  -4   0    4.60    0.80
   1   4   0    4.10    0.80
   1   4   0    4.80    0.80
   1   4   0    6.10    0.60
   1   4   0    4.90    0.70
   1   4   0    3.30    0.70
  -2  -4   0   77.99    4.00
  -2  -4   0   79.09    3.60
  -2  -4   0   76.29    4.00
  -2  -4   0   75.79    4.10
  -2  -4   0   73.69    4.10
  -2  -4   0   79.39    3.40
  -2  -4   0   80.89    3.90
  -2  -4   0   79.79    3.40
   2   4   0   77.29    3.80
   2   4   0   81.89    3.70
   2   4   0   75.69    4.00
   2   4   0   83.69    4.00
  -3  -4   0   98.99    4.10
  -3  -4   0   86.29    4.50
  -3  -4   0   91.59    4.30
  -3  -4   0   89.19    4.90
  -3  -4   0   96.49    4.10
  -3  -4   0   82.39    4.90
  -3  -4   0   89.99    4.80
  -3  -4   0   93.79    4.80
   3   4   0   98.89    4.70
   3   4   0   92.69    4.50
   3   4   0   96.99    4.20
   3   4   0   86.89    4.70
  -4  -4   0   41.70    2.40
  -4  -4   0   39.40    2.60
  -4  -4   0   39.60    2.90
  -4  -4   0   43.70    3.10
  -4  -4   0   43.20    3.20
  -4  -4   0   45.60    2.60
  -4  -4   0   39.80    3.10
  -4  -4   0   45.60    2.40
   4   4   0   44.70    2.30
   4   4   0   44.20    3.00
   4   4   0   41.30    2.70
   4   4   0   43.30    3.00
   4   4   0   44.80    2.80
  -5  -4   0    0.00    0.60
  -5  -4   0   -1.10    0.90
  -5  -4   0    1.30    0.70
  -5  -4   0   -0.80    0.90
  -5  -4   0    0.90    0.60
  -5  -4   0    0.40    0.70
  -5  -4   0    0.90    1.00
  -5  -4   0    0.30    0.50
   5   4   0    0.30    0.70
   5   4   0   -0.90    0.80
   5   4   0   -0.20    0.60
   5   4   0    0.90    0.80
  -6  -4   0    1.00    1.00
  -6  -4   0    2.80    1.20
  -6  -4   0    3.70    1.20
  -6  -4   0    2.00    1.00
  -6  -4   0    4.40    1.70
  -6  -4   0    3.20    1.60
   6   4   0    4.30    1.50
   6   4   0    1.20    1.20
   6   4   0    0.40    0.90
   6   4   0   -0.20    0.90
   6   4   0    1.80    1.00
  -7  -4   0    9.00    2.10
  -7  -4   0   11.00    1.90
  -7  -4   0    4.80    2.00
  -7  -4   0    8.60    2.30
  -7  -4   0    7.30    2.10
   7   4   0   11.50    2.20
   7   4   0    8.80    1.70
   7   4   0   11.90    1.90
   7   4   0    7.60    2.00
   7   4   0    5.60    1.80
   7   4   0    5.20    1.60
  -8  -4   0    6.00    2.20
  -8  -4   0   11.70    2.80
  -8  -4   0    8.50    2.00
  -8  -4   0    8.10    2.30
   8   4   0    3.80    1.60
   8   4   0    9.60    2.20
   8   4   0    6.10    1.90
   9  -5   0   -0.10    1.20
   9  -5   0    1.70    1.30
  -9   5   0    0.60    1.80
  -9   5   0    2.70    1.80
  -9   5   0    0.30    1.60
  -9   5   0    0.80    1.80
   8  -5   0    6.60    1.70
   8  -5   0    4.40    1.50
   8  -5   0    5.40    1.60
  -8   5   0    4.50    1.80
  -8   5   0    5.20    2.00
  -8   5   0    4.40    1.70
  -8   5   0    9.00    1.90
   7  -5   0    1.40    0.90
   7  -5   0    0.50    0.90
   7  -5   0    2.00    1.00
   7  -5   0    0.60    0.90
   7  -5   0    1.60    1.00
  -7   5   0    0.50    1.30
  -7   5   0    1.30    1.30
  -7   5   0   -0.90    0.90
  -7   5   0    1.20    1.00
  -7   5   0    0.80    1.10
  -7   5   0    1.40    1.10
   6  -5   0    3.60    1.10
   6  -5   0    4.70    1.20
   6  -5   0    2.80    0.90
   6  -5   0    2.90    0.90
   6  -5   0    5.00    1.10
  -6   5   0    2.60    1.20
  -6   5   0    2.20    1.00
  -6   5   0    3.00    1.00
  -6   5   0    3.60    1.40
  -6   5   0    2.00    1.10
  -6   5   0    2.30    0.90
   5  -5   0   14.50    1.60
   5  -5   0   15.00    1.70
   5  -5   0   14.40    1.50
   5  -5   0   14.20    1.70
   5  -5   0   11.90    1.50
  -5   5   0   11.10    1.70
  -5   5   0   14.00    1.90
  -5   5   0   16.80    1.90
  -5   5   0   14.20    1.80
  -5   5   0   13.00    1.70
  -5   5   0   12.50    2.00
   4  -5   0   -0.10    0.50
   4  -5   0   -0.30    0.40
   4  -5   0   -0.10    0.40
   4  -5   0   -0.20    0.40
  -4   5   0   -0.10    0.40
  -4   5   0   -0.20    0.70
  -4   5   0   -0.50    0.40
  -4   5   0    0.70    0.60
  -4   5   0    0.30    0.50
   3  -5   0   20.90    1.50
   3  -5   0   23.00    1.50
   3  -5   0   20.80    1.20
   3  -5   0   19.90    1.50
   3  -5   0   21.40    1.50
   3  -5   0   22.00    1.40
  -3   5   0   32.90    1.90
  -3   5   0   28.30    1.70
  -3   5   0   19.30    2.00
  -3   5   0   19.40    1.30
  -3   5   0   25.50    1.70
  -3   5   0   20.00    1.40
  -3   5   0   23.60    2.00
  -3   5   0   24.00    1.80
   2  -5   0  353.26   13.40
   2  -5   0  375.36   13.60
   2  -5   0  336.57   13.60
   2  -5   0  314.17   13.50
   2  -5   0  324.37   13.60
   2  -5   0  364.26   13.70
  -2   5   0  341.37   13.70
  -2   5   0  331.47   13.80
  -2   5   0  334.67   14.30
  -2   5   0  341.47   13.90
  -2   5   0  341.87   13.70
  -2   5   0  327.97   13.60
  -2   5   0  355.16   14.20
   1  -5   0  499.95   18.60
   1  -5   0  454.15   18.30
   1  -5   0  459.55   18.30
   1  -5   0  473.05   18.30
   1  -5   0  490.75   18.70
   1  -5   0  454.65   18.40
   1  -5   0  457.55   18.30
  -1   5   0  474.25   18.80
  -1   5   0  452.85   18.50
  -1   5   0  448.16   18.30
  -1   5   0  470.25   18.80
  -1   5   0  480.65   18.60
  -1   5   0  479.65   19.00
  -1   5   0  486.65   18.40
   0  -5   0  474.65   19.70
   0  -5   0  501.85   19.40
   0  -5   0  503.45   19.40
   0  -5   0  503.95   19.70
   0  -5   0  515.65   20.00
   0  -5   0  508.95   19.90
   0  -5   0  494.25   19.60
   0   5   0  492.55   19.80
   0   5   0  483.95   19.70
   0   5   0  516.95   20.10
   0   5   0  513.55   20.00
   0   5   0  513.85   19.70
   0   5   0  492.05   19.40
  -1  -5   0  164.88    7.00
  -1  -5   0  169.78    6.70
  -1  -5   0  173.38    7.40
  -1  -5   0  165.78    7.30
  -1  -5   0  173.58    7.60
  -1  -5   0  167.68    6.80
  -1  -5   0  175.88    7.60
   1   5   0  161.88    7.40
   1   5   0  168.48    7.50
   1   5   0  171.38    7.40
   1   5   0  161.08    7.30
   1   5   0  167.58    6.90
  -2  -5   0   31.00    2.30
  -2  -5   0   27.10    2.10
  -2  -5   0   27.70    2.20
  -2  -5   0   28.90    2.10
  -2  -5   0   28.50    1.80
  -2  -5   0   29.00    1.50
  -2  -5   0   28.80    1.50
   2   5   0   29.00    2.20
   2   5   0   28.50    1.90
   2   5   0   31.30    2.10
   2   5   0   29.20    2.10
   2   5   0   29.00    1.90
  -3  -5   0   36.40    2.70
  -3  -5   0   34.60    2.70
  -3  -5   0   34.30    2.40
  -3  -5   0   34.60    2.20
  -3  -5   0   37.40    1.90
  -3  -5   0   36.40    2.60
  -3  -5   0   37.90    2.60
   3   5   0   32.90    2.30
   3   5   0   34.60    2.10
   3   5   0   38.20    2.60
   3   5   0   37.60    2.50
  -4  -5   0   -0.40    0.70
  -4  -5   0    0.40    0.70
  -4  -5   0    1.20    0.60
  -4  -5   0   -0.80    0.70
  -4  -5   0   -1.00    0.70
  -4  -5   0    1.00    0.50
  -4  -5   0    0.60    0.70
   4   5   0   -0.80    0.80
   4   5   0    0.70    0.60
   4   5   0    1.20    1.00
   4   5   0   -0.60    0.60
  -5  -5   0    2.30    1.30
  -5  -5   0   -0.60    0.90
  -5  -5   0    0.30    0.70
  -5  -5   0   -0.30    0.60
  -5  -5   0   -1.00    1.00
  -5  -5   0   -1.00    0.60
   5   5   0    0.60    0.70
   5   5   0    0.50    1.00
   5   5   0    0.50    0.80
   5   5   0   -0.30    0.70
  -6  -5   0    3.10    1.20
  -6  -5   0    6.30    1.40
  -6  -5   0    5.00    1.80
  -6  -5   0    5.80    1.70
  -6  -5   0    2.90    1.60
   6   5   0    3.00    1.20
   6   5   0    1.10    1.00
   6   5   0    4.40    1.40
   6   5   0    4.30    1.40
  -7  -5   0    1.60    1.90
  -7  -5   0    6.10    2.00
  -7  -5   0    4.20    2.00
  -7  -5   0    4.80    1.80
  -7  -5   0    3.20    1.50
   7   5   0    5.30    1.90
   7   5   0    5.60    1.80
   7   5   0    3.70    1.40
   7   5   0    2.70    1.30
   7   5   0    6.80    1.70
  -8  -5   0    0.30    1.80
  -8  -5   0   -0.20    1.90
  -8  -5   0    0.20    1.40
  -8  -5   0    1.70    1.80
   8   5   0    0.00    1.30
   8   5   0   -0.60    1.30
   8   5   0    0.40    1.50
   8   5   0    0.10    1.60
   8  -6   0    3.60    1.40
   8  -6   0    2.40    1.40
   8  -6   0    2.80    1.10
  -8   6   0    5.70    1.90
  -8   6   0    4.20    1.50
  -8   6   0    1.10    1.50
  -8   6   0    3.40    2.00
   7  -6   0    1.10    1.00
   7  -6   0    3.60    1.30
   7  -6   0    1.80    1.10
   7  -6   0    1.30    1.10
  -7   6   0    1.20    1.20
  -7   6   0    3.10    1.70
  -7   6   0    0.70    1.40
  -7   6   0    1.40    1.30
  -7   6   0    2.80    1.20
  -7   6   0    2.60    1.40
   6  -6   0    1.70    0.80
   6  -6   0    2.10    0.90
   6  -6   0    1.90    0.90
   6  -6   0    0.80    0.80
   6  -6   0    0.60    0.70
  -6   6   0    0.80    0.70
  -6   6   0    0.50    0.90
  -6   6   0    2.50    1.30
  -6   6   0    0.30    1.00
  -6   6   0    0.60    0.70
  -6   6   0   -0.80    1.00
   5  -6   0   37.90    2.70
   5  -6   0   40.90    2.60
   5  -6   0   40.30    2.70
   5  -6   0   43.40    2.70
   5  -6   0   43.70    2.50
  -5   6   0   43.10    3.20
  -5   6   0   43.50    3.00
  -5   6   0   39.30    2.90
  -5   6   0   36.00    3.10
  -5   6   0   42.90    2.90
  -5   6   0   35.50    3.00
   4  -6   0  113.59    5.50
   4  -6   0  111.79    5.60
   4  -6   0  126.49    5.50
   4  -6   0  130.09    5.70
   4  -6   0  118.19    5.60
  -4   6   0  124.39    5.90
  -4   6   0  116.39    6.30
  -4   6   0  112.79    6.30
  -4   6   0  131.09    5.90
  -4   6   0  130.89    5.90
  -4   6   0  112.69    6.00
   3  -6   0  126.39    5.50
   3  -6   0  127.49    5.30
   3  -6   0  115.59    5.30
   3  -6   0  115.59    5.30
   3  -6   0  109.69    5.30
  -3   6   0  110.69    5.70
  -3   6   0  123.69    5.60
  -3   6   0  119.59    5.50
  -3   6   0  119.09    6.10
  -3   6   0  123.69    6.10
  -3   6   0  115.09    5.30
   2  -6   0    1.30    0.50
   2  -6   0    1.60    0.50
   2  -6   0    1.30    0.50
   2  -6   0    1.70    0.50
   2  -6   0    1.30    0.50
  -2   6   0    0.40    0.60
  -2   6   0    1.90    0.70
  -2   6   0    0.70    0.50
  -2   6   0    1.40    0.60
  -2   6   0    1.60    0.60
  -2   6   0    1.20    0.60
   1  -6   0    0.40    0.40
   1  -6   0   -0.20    0.30
   1  -6   0    0.40    0.30
   1  -6   0    0.70    0.30
   1  -6   0   -0.10    0.40
   1  -6   0    0.10    0.30
   1  -6   0    0.40    0.40
  -1   6   0    0.90    0.50
  -1   6   0    0.90    0.70
  -1   6   0    0.90    0.70
  -1   6   0    0.20    0.40
  -1   6   0    0.50    0.40
  -1   6   0    1.10    0.60
   0  -6   0    5.80    0.70
   0  -6   0    5.20    0.90
   0  -6   0    5.70    0.90
   0  -6   0    7.30    0.70
   0  -6   0    5.40    0.80
   0  -6   0    5.40    1.00
   0  -6   0    5.20    0.90
   0   6   0    6.10    1.00
   0   6   0    7.40    0.90
   0   6   0    5.00    0.70
   0   6   0    5.00    1.10
   0   6   0    5.70    0.90
   0   6   0    5.00    1.00
  -1  -6   0   12.70    0.90
  -1  -6   0   14.90    1.50
  -1  -6   0   15.00    1.60
  -1  -6   0   12.30    1.50
  -1  -6   0   13.40    0.90
  -1  -6   0   15.00    1.20
  -1  -6   0    9.60    1.40
   1   6   0   14.50    1.60
   1   6   0   14.50    1.60
   1   6   0   12.90    1.10
   1   6   0   14.60    1.60
   1   6   0   14.10    1.60
  -2  -6   0   24.80    2.10
  -2  -6   0   28.80    2.30
  -2  -6   0   27.20    1.80
  -2  -6   0   28.10    1.50
  -2  -6   0   24.70    2.10
  -2  -6   0   26.80    1.50
  -2  -6   0   26.00    2.30
   2   6   0   28.00    2.20
   2   6   0   28.50    2.00
   2   6   0   27.60    2.10
   2   6   0   27.20    2.00
  -3  -6   0   23.50    2.50
  -3  -6   0   17.80    2.30
  -3  -6   0   22.00    2.40
  -3  -6   0   22.30    2.50
  -3  -6   0   19.30    1.60
   3   6   0   18.60    2.20
   3   6   0   22.50    1.70
   3   6   0   19.60    2.10
   3   6   0   17.50    2.00
  -4  -6   0    4.90    1.30
  -4  -6   0    6.50    1.70
  -4  -6   0    7.80    1.60
  -4  -6   0   11.80    1.50
  -4  -6   0    5.70    1.40
   4   6   0    9.80    1.70
   4   6   0    9.00    1.50
   4   6   0    5.30    1.30
   4   6   0    9.50    1.70
  -5  -6   0   -0.90    0.90
  -5  -6   0    0.60    1.20
  -5  -6   0    0.60    0.80
  -5  -6   0    0.10    1.00
  -5  -6   0   -0.50    0.70
   5   6   0   -0.80    0.80
   5   6   0    0.10    1.10
   5   6   0   -0.90    0.80
   5   6   0   -0.90    1.00
  -6  -6   0    4.90    1.40
  -6  -6   0    0.90    1.40
  -6  -6   0    2.20    1.30
  -6  -6   0    3.00    1.60
  -6  -6   0    0.80    1.60
   6   6   0    1.00    1.10
   6   6   0    3.10    1.40
   6   6   0    0.10    0.80
   6   6   0    4.70    1.70
  -7  -6   0    4.40    2.30
  -7  -6   0    6.20    1.80
  -7  -6   0    4.00    1.90
  -7  -6   0    2.30    1.40
   7   6   0    4.20    1.70
   7   6   0    2.40    1.30
   7   6   0    5.60    1.90
   7   6   0    2.40    1.30
  -8  -6   0   -0.90    1.10
  -8  -6   0    0.60    2.10
   8   6   0   -0.70    0.90
   8  -7   0    2.20    1.50
   8  -7   0    2.10    1.20
  -8   7   0    0.20    1.80
  -8   7   0    4.50    1.80
  -8   7   0    0.50    1.60
  -8   7   0    0.20    1.10
   7  -7   0    4.40    1.40
   7  -7   0    0.90    1.00
   7  -7   0    3.10    1.30
   7  -7   0    1.70    1.10
  -7   7   0    0.80    1.20
  -7   7   0    1.10    1.30
  -7   7   0    3.90    1.40
  -7   7   0    2.20    1.40
  -7   7   0    1.40    1.50
  -7   7   0    1.90    1.20
   6  -7   0    0.50    0.80
   6  -7   0   -0.50    0.80
   6  -7   0    1.50    1.00
   6  -7   0    0.60    0.90
   6  -7   0   -0.30    0.80
  -6   7   0    0.70    0.90
  -6   7   0   -0.90    0.70
  -6   7   0    0.10    1.10
  -6   7   0   -0.40    0.80
  -6   7   0    0.20    1.00
  -6   7   0    0.00    1.10
   5  -7   0    0.90    0.80
   5  -7   0    0.10    0.60
   5  -7   0    0.00    0.60
   5  -7   0   -1.50    0.60
   5  -7   0    0.50    0.60
  -5   7   0   -0.20    0.70
  -5   7   0   -0.30    0.60
  -5   7   0   -0.10    0.70
  -5   7   0   -0.10    0.70
  -5   7   0   -0.30    0.80
   4  -7   0    0.00    0.60
   4  -7   0    0.20    0.50
   4  -7   0   -0.50    0.50
   4  -7   0   -0.20    0.50
   4  -7   0    0.20    0.60
  -4   7   0   -0.40    0.60
  -4   7   0   -0.30    0.70
  -4   7   0   -0.30    0.50
  -4   7   0    0.60    0.70
  -4   7   0   -0.70    0.70
   3  -7   0   -0.10    0.50
   3  -7   0   -0.30    0.30
   3  -7   0    0.10    0.40
   3  -7   0    0.10    0.50
   3  -7   0   -0.60    0.40
  -3   7   0   -0.30    0.80
  -3   7   0    0.20    0.50
  -3   7   0    0.90    0.70
  -3   7   0    0.40    0.50
  -3   7   0   -0.40    0.50
   2  -7   0   78.89    3.90
   2  -7   0   77.09    4.00
   2  -7   0   71.89    3.60
   2  -7   0   73.09    3.70
   2  -7   0   74.09    3.60
  -2   7   0   82.79    4.60
  -2   7   0   84.89    4.30
  -2   7   0   74.69    4.00
  -2   7   0   76.49    4.30
  -2   7   0   72.29    3.90
  -2   7   0   77.59    3.80
   1  -7   0    3.90    0.70
   1  -7   0    3.70    0.60
   1  -7   0    4.10    0.60
   1  -7   0    3.60    0.80
   1  -7   0    2.10    0.70
   1  -7   0    4.20    0.70
  -1   7   0    5.00    1.10
  -1   7   0    2.60    0.70
  -1   7   0    2.90    1.10
  -1   7   0    3.30    0.90
  -1   7   0    2.70    0.80
   0  -7   0    5.90    1.20
   0  -7   0    7.20    1.00
   0  -7   0    6.40    0.80
   0  -7   0    6.80    1.10
   0  -7   0    8.00    0.80
   0  -7   0    8.30    1.20
   0  -7   0    7.60    1.20
   0   7   0    4.90    1.10
   0   7   0    7.60    1.40
   0   7   0    7.70    1.20
   0   7   0    7.40    1.10
   0   7   0    7.10    1.30
  -1  -7   0    9.10    1.40
  -1  -7   0    8.50    1.10
  -1  -7   0    7.30    1.30
  -1  -7   0    9.00    1.50
  -1  -7   0    8.30    0.80
  -1  -7   0    7.00    1.20
   1   7   0   10.60    1.50
   1   7   0    8.20    1.50
   1   7   0    8.50    1.40
   1   7   0    6.40    1.30
  -2  -7   0    1.80    0.90
  -2  -7   0    3.40    1.10
  -2  -7   0    4.20    1.10
  -2  -7   0    4.70    1.20
  -2  -7   0    3.30    0.80
   2   7   0    3.20    1.10
   2   7   0    2.50    0.80
   2   7   0    2.10    1.00
   2   7   0    4.30    1.20
  -3  -7   0   11.30    1.50
  -3  -7   0   13.40    2.00
  -3  -7   0    8.00    1.70
  -3  -7   0    6.40    1.60
  -3  -7   0    9.10    1.60
   3   7   0   10.40    1.50
   3   7   0   10.40    1.80
   3   7   0   11.30    1.70
   3   7   0   10.10    1.70
  -4  -7   0    1.30    1.10
  -4  -7   0    0.30    1.00
  -4  -7   0    0.70    1.10
  -4  -7   0    1.00    1.20
  -4  -7   0    0.50    0.70
   4   7   0    2.50    1.20
   4   7   0   -1.20    0.90
   4   7   0    2.00    1.10
   4   7   0   -0.20    1.00
  -5  -7   0   -0.70    1.10
  -5  -7   0    1.40    0.90
  -5  -7   0    0.10    1.20
  -5  -7   0    0.80    1.30
  -5  -7   0    1.90    0.90
   5   7   0    1.20    1.20
   5   7   0   -0.40    1.00
   5   7   0    1.60    1.30
   5   7   0    0.10    1.00
  -6  -7   0    2.70    1.70
  -6  -7   0    0.60    1.50
  -6  -7   0    3.00    1.40
  -6  -7   0    6.10    2.00
  -6  -7   0    4.50    2.20
   6   7   0    4.20    1.80
   6   7   0    4.00    1.40
   6   7   0    5.40    1.70
   6   7   0    6.90    2.00
  -7  -7   0   -1.20    1.20
  -7  -7   0   -1.40    1.30
  -7  -7   0   -0.80    1.70
  -7  -7   0    1.80    2.00
   7   7   0    0.50    1.10
   7   7   0    1.10    1.60
   7   7   0   -2.10    1.20
   7  -8   0   -0.90    1.00
   7  -8   0    1.10    1.10
   7  -8   0    0.90    1.20
  -7   8   0    0.60    1.30
  -7   8   0    1.00    1.50
  -7   8   0   -0.80    1.30
  -7   8   0   -1.30    1.00
   6  -8   0    5.00    1.30
   6  -8   0    4.90    1.30
   6  -8   0    3.10    1.10
   6  -8   0    1.90    1.00
  -6   8   0    3.20    1.40
  -6   8   0    6.70    1.80
  -6   8   0    2.80    1.50
  -6   8   0    2.90    1.10
  -6   8   0    2.50    1.40
   5  -8   0    0.00    0.70
   5  -8   0   -0.10    0.60
   5  -8   0    0.70    0.90
   5  -8   0    0.30    0.80
   5  -8   0   -0.70    0.70
  -5   8   0   -0.50    0.80
  -5   8   0    0.10    1.10
  -5   8   0    0.40    0.80
  -5   8   0    0.40    1.20
  -5   8   0   -0.10    1.00
   4  -8   0   19.20    1.70
   4  -8   0   18.70    1.90
   4  -8   0   17.80    1.80
   4  -8   0   18.90    2.00
   4  -8   0   17.20    1.90
  -4   8   0   22.70    2.20
  -4   8   0   15.80    2.50
  -4   8   0   17.60    2.20
  -4   8   0   14.80    2.40
  -4   8   0   14.50    1.90
   3  -8   0    0.10    0.50
   3  -8   0    0.10    0.50
   3  -8   0    0.40    0.60
   3  -8   0    0.40    0.50
   3  -8   0   -0.40    0.50
  -3   8   0    0.40    0.60
  -3   8   0   -0.50    0.80
  -3   8   0    0.40    0.70
  -3   8   0   -1.40    0.70
   2  -8   0    7.40    1.00
   2  -8   0    5.80    1.00
   2  -8   0    6.20    0.90
   2  -8   0    7.00    1.20
   2  -8   0    4.40    0.90
  -2   8   0    5.00    1.30
  -2   8   0    6.40    1.30
  -2   8   0    3.90    1.10
  -2   8   0    6.50    1.10
   1  -8   0   16.30    1.30
   1  -8   0   17.20    1.30
   1  -8   0   19.60    2.00
   1  -8   0   18.40    1.90
   1  -8   0   19.10    1.50
  -1   8   0   18.50    2.00
  -1   8   0   17.40    2.20
  -1   8   0   15.70    1.90
  -1   8   0   15.00    2.10
   0  -8   0    3.80    1.00
   0  -8   0    2.60    0.90
   0  -8   0    3.00    1.00
   0  -8   0    3.60    0.80
   0   8   0    2.60    0.90
   0   8   0    1.70    1.10
   0   8   0    1.60    0.80
   0   8   0    5.00    1.30
   0   8   0    3.70    1.40
  -1  -8   0    1.10    0.80
  -1  -8   0    0.80    0.60
  -1  -8   0    1.70    0.80
  -1  -8   0    1.00    0.80
  -1  -8   0    1.20    0.80
   1   8   0    1.00    0.90
   1   8   0    0.50    1.10
   1   8   0    0.50    0.80
   1   8   0    0.30    0.90
  -2  -8   0   31.30    3.00
  -2  -8   0   33.40    3.00
  -2  -8   0   38.60    2.40
  -2  -8   0   33.90    2.70
  -2  -8   0   32.70    2.90
   2   8   0   33.70    2.80
   2   8   0   33.30    2.70
   2   8   0   35.20    2.80
   2   8   0   32.30    3.10
  -3  -8   0    8.50    1.90
  -3  -8   0   14.20    2.20
  -3  -8   0   14.90    1.80
  -3  -8   0   13.10    2.10
  -3  -8   0    9.70    1.90
   3   8   0   10.70    1.90
   3   8   0    9.50    1.90
   3   8   0    9.90    1.90
   3   8   0   12.00    1.80
  -4  -8   0   17.00    2.50
  -4  -8   0   11.90    2.10
  -4  -8   0   18.10    2.10
  -4  -8   0   13.20    2.50
  -4  -8   0    9.10    2.10
   4   8   0   17.90    2.50
   4   8   0   12.70    2.10
   4   8   0   13.40    2.20
   4   8   0   17.70    2.50
  -5  -8   0    0.10    1.30
  -5  -8   0    2.40    1.60
  -5  -8   0   -0.30    0.80
  -5  -8   0    0.30    1.30
  -5  -8   0   -0.30    1.20
   5   8   0   -0.10    1.30
   5   8   0    0.40    1.10
   5   8   0    0.60    1.30
   5   8   0   -1.10    0.90
  -6  -8   0   -2.40    1.10
  -6  -8   0   -1.30    1.30
  -6  -8   0    0.10    1.80
  -6  -8   0   -0.30    1.10
   6   8   0   -0.20    1.10
   6   8   0   -0.20    1.50
   6   8   0    2.10    1.50
   7  -9   0    0.10    1.20
   7  -9   0    0.30    1.20
  -7   9   0    0.80    1.50
  -7   9   0   -0.40    1.30
  -7   9   0    1.30    1.80
  -7   9   0    0.40    1.60
   6  -9   0   -0.20    0.80
   6  -9   0   -0.60    1.10
   6  -9   0   -0.10    1.10
   6  -9   0    1.50    1.10
  -6   9   0    2.10    1.40
  -6   9   0    1.60    1.30
  -6   9   0   -0.70    1.00
  -6   9   0    0.60    1.50
  -6   9   0    1.50    1.40
   5  -9   0    0.70    0.80
   5  -9   0    0.10    0.80
   5  -9   0   -0.50    0.80
   5  -9   0    0.40    0.80
  -5   9   0    1.10    1.00
  -5   9   0   -0.70    0.90
  -5   9   0    0.40    1.10
  -5   9   0    0.80    1.40
  -5   9   0    0.40    0.90
   4  -9   0    1.80    0.80
   4  -9   0    3.20    1.00
   4  -9   0    1.10    0.90
   4  -9   0    1.30    0.90
   4  -9   0    0.60    0.70
  -4   9   0    3.80    1.60
  -4   9   0    0.80    0.80
  -4   9   0    1.50    1.40
  -4   9   0    0.70    1.00
   3  -9   0   -0.90    0.40
   3  -9   0   -0.10    0.40
   3  -9   0    0.00    0.60
   3  -9   0   -0.30    0.60
   3  -9   0    0.20    0.60
  -3   9   0   -0.50    0.70
  -3   9   0   -0.30    0.70
  -3   9   0   -1.70    0.80
  -3   9   0   -0.50    0.80
   2  -9   0    7.90    1.40
   2  -9   0    5.70    1.20
   2  -9   0    7.10    1.00
   2  -9   0    5.40    1.00
   2  -9   0    6.40    1.00
  -2   9   0    4.70    1.40
  -2   9   0    7.00    1.70
  -2   9   0    6.30    1.50
   1  -9   0    0.30    0.70
   1  -9   0    0.20    0.70
   1  -9   0   -0.40    0.50
  -1   9   0   -0.70    1.00
  -1   9   0   -1.30    0.70
  -1   9   0    0.80    1.10
  -1   9   0    0.70    0.90
   0  -9   0   16.40    1.80
   0  -9   0   11.90    1.90
   0  -9   0   16.10    2.10
   0   9   0   16.00    2.30
   0   9   0   13.50    2.10
   0   9   0   14.30    2.00
  -1  -9   0    2.20    1.10
  -1  -9   0    3.30    0.90
  -1  -9   0    3.30    1.10
  -1  -9   0    1.10    1.00
  -1  -9   0    1.60    1.00
   1   9   0    0.00    0.90
   1   9   0    1.90    1.10
   1   9   0    2.90    1.20
   1   9   0    1.00    1.20
  -2  -9   0   -0.80    0.80
  -2  -9   0   -0.50    0.70
  -2  -9   0    0.80    1.00
  -2  -9   0    0.10    0.90
  -2  -9   0    0.40    0.80
   2   9   0    2.00    1.40
   2   9   0   -0.90    0.80
   2   9   0    1.80    1.10
   2   9   0   -0.10    0.90
  -3  -9   0    2.50    1.20
  -3  -9   0    3.80    1.20
  -3  -9   0    5.70    1.70
  -3  -9   0    4.40    1.40
  -3  -9   0    4.40    1.60
   3   9   0    2.70    1.30
   3   9   0   -0.10    1.20
   3   9   0    0.50    1.20
  -4  -9   0    2.70    1.50
  -4  -9   0    1.00    1.10
  -4  -9   0   -0.40    0.70
  -4  -9   0    1.50    1.10
  -4  -9   0    1.40    1.10
   4   9   0    4.00    1.60
   4   9   0    1.00    1.30
   4   9   0    1.70    1.30
   4   9   0    1.60    1.40
  -5  -9   0    0.30    1.40
  -5  -9   0   -1.10    1.40
  -5  -9   0    4.60    1.90
  -5  -9   0    4.60    1.50
   5   9   0    3.40    1.80
   5   9   0    1.50    1.40
   5   9   0    5.20    1.90
  -6  -9   0    3.60    2.10
  -6  -9   0    4.80    2.30
  -6  -9   0    7.90    2.50
   6   9   0    7.30    2.20
   6   9   0    3.50    1.90
   6   9   0    4.40    1.70
   6 -10   0    1.30    1.20
   6 -10   0   -1.40    1.00
  -6  10   0    1.00    1.20
  -6  10   0    1.10    1.80
  -6  10   0    2.30    1.50
  -6  10   0    0.60    1.80
   5 -10   0    0.10    0.80
   5 -10   0    0.70    1.20
   5 -10   0   -0.30    0.80
   5 -10   0   -1.50    0.80
  -5  10   0    1.60    1.50
  -5  10   0   -0.30    1.40
  -5  10   0    0.70    1.10
  -5  10   0   -0.10    0.90
   4 -10   0    3.10    1.10
   4 -10   0    3.00    1.10
   4 -10   0    0.00    0.80
   4 -10   0    3.30    1.10
  -4  10   0    1.40    1.10
  -4  10   0    3.10    1.50
  -4  10   0    1.10    1.40
   3 -10   0   13.50    1.90
   3 -10   0   11.20    1.60
   3 -10   0   11.00    1.80
  -3  10   0   11.30    2.20
  -3  10   0    8.70    2.00
   2 -10   0    3.80    1.00
   2 -10   0    1.60    0.90
   2 -10   0    3.20    1.10
  -2  10   0    2.70    1.40
  -2  10   0    3.10    1.20
   1 -10   0    5.60    1.30
   1 -10   0    6.10    1.20
   1 -10   0    3.10    1.20
  -1  10   0    5.70    1.80
  -1  10   0    4.30    1.60
   0 -10   0    0.00    0.80
   0 -10   0   -0.10    0.70
   0 -10   0    0.00    0.80
   0  10   0    0.10    1.10
   0  10   0   -1.10    1.10
   0  10   0    0.10    1.20
  -1 -10   0   16.80    2.50
  -1 -10   0   16.50    2.40
  -1 -10   0   19.40    2.10
   1  10   0   15.00    2.30
   1  10   0   20.20    2.60
   1  10   0   14.80    2.60
  -2 -10   0    0.10    1.00
  -2 -10   0   -1.10    0.80
  -2 -10   0    0.50    1.10
  -2 -10   0   -0.20    1.00
  -2 -10   0   -0.10    1.00
   2  10   0    0.40    1.10
   2  10   0   -0.50    1.10
   2  10   0   -0.40    1.00
   2  10   0   -1.50    1.20
  -3 -10   0   12.30    2.30
  -3 -10   0    8.60    1.60
  -3 -10   0   10.70    2.30
  -3 -10   0    6.70    1.70
   3  10   0    6.30    1.90
   3  10   0    7.90    1.80
   3  10   0    9.80    1.90
  -4 -10   0   11.00    2.60
  -4 -10   0   11.90    2.20
  -4 -10   0   11.10    2.50
  -4 -10   0    5.80    2.00
   4  10   0   13.90    2.50
   4  10   0    9.40    2.20
   4  10   0    6.10    2.00
  -5 -10   0   -0.50    1.20
  -5 -10   0    0.40    1.50
  -5 -10   0    1.20    1.80
   5  10   0    1.10    1.50
   5  10   0    1.60    1.70
   5  10   0    0.40    1.20
   5 -11   0    5.90    1.70
   5 -11   0    4.20    1.40
  -5  11   0    4.70    2.30
  -5  11   0    4.90    2.20
   4 -11   0    1.70    1.10
  -4  11   0    1.40    1.90
  -4  11   0    0.10    1.00
   3 -11   0   -0.50    0.90
   3 -11   0   -0.10    0.80
  -3  11   0    0.30    1.20
  -3  11   0   -0.70    1.20
   2 -11   0    1.30    1.00
   2 -11   0    1.20    1.00
   2 -11   0    3.00    1.30
  -2  11   0    3.70    1.70
   1 -11   0    0.80    1.00
   1 -11   0    1.00    1.20
   1 -11   0    2.10    1.00
  -1  11   0   -0.40    2.40
  -1  11   0    1.60    1.50
   0 -11   0   16.70    2.00
   0 -11   0   13.60    2.20
   0 -11   0   11.60    2.20
   0  11   0   15.00    2.30
   0  11   0   12.20    2.50
   0  11   0   17.00    2.80
  -1 -11   0    0.30    0.90
  -1 -11   0    0.50    1.20
   1  11   0    0.70    1.50
   1  11   0    0.30    1.50
   1  11   0   -0.50    1.50
  -2 -11   0   -0.80    1.10
  -2 -11   0    0.90    1.10
   2  11   0   -1.40    1.30
   2  11   0    1.50    1.60
  -3 -11   0   -0.90    1.20
  -3 -11   0    0.70    1.20
   3  11   0    3.60    1.70
   3  11   0   -0.50    1.30
   3  11   0   -0.20    1.30
   3 -12   0    4.60    1.30
  -3  12   0    4.10    2.30
  -3  12   0    2.90    2.00
   2 -12   0    3.10    1.20
  -2  12   0    2.20    1.60
   1 -12   0    1.10    1.10
   1 -12   0    2.50    1.60
  -1  12   0   -0.30    1.50
   0 -12   0    2.90    1.40
   0 -12   0    3.80    1.30
   0  12   0    1.20    1.70
  -1 -12   0    0.30    1.20
  -1 -12   0   -0.70    1.20
   1  12   0   -0.20    1.50
   1  12   0   -0.30    1.60
  -2 -12   0    1.50    1.50
   2  12   0    4.10    1.90
   2  12  -1    2.20    1.70
   2  12  -1    1.20    1.60
  -2 -12   1    1.30    1.40
   1  12  -1    2.10    1.60
   1  12  -1    3.60    1.90
  -1 -12   1    4.10    1.70
   0  12  -1    2.70    1.80
   0  12  -1   -1.20    1.80
   0 -12   1    1.00    1.10
   0 -12   1    4.20    1.60
  -1  12  -1   -1.00    1.10
   1 -12   1   -0.10    1.10
   1 -12   1    0.20    0.90
  -2  12  -1    4.30    2.10
   2 -12   1    4.30    1.30
   2 -12   1    3.60    1.40
  -3  12  -1    1.20    1.50
  -3  12  -1   -0.30    1.70
   3 -12   1   -0.20    0.90
  -4  12  -1    4.10    1.80
  -4  12  -1    0.90    1.80
   4 -12   1    6.50    1.60
   4  11  -1    2.20    1.60
   4  11  -1    0.20    1.40
   4  11  -1    0.10    1.40
  -4 -11   1    0.40    1.50
  -4 -11   1   -0.50    1.40
  -4 -11   1   -0.70    1.50
   3  11  -1   -0.10    1.40
   3  11  -1    0.20    1.30
  -3 -11   1    0.00    1.10
  -3 -11   1    0.50    1.50
  -3 -11   1    2.80    1.70
   2  11  -1    6.00    1.90
   2  11  -1    7.10    1.90
  -2 -11   1    1.00    1.40
   1  11  -1    1.50    1.30
   1  11  -1    1.30    1.60
   1  11  -1    0.60    1.20
  -1 -11   1    1.60    1.20
  -1 -11   1    1.90    1.20
  -1 -11   1    1.70    1.00
   0  11  -1    2.70    1.40
   0  11  -1   -2.10    1.60
   0  11  -1   -2.10    1.10
   0 -11   1   -0.20    0.70
   0 -11   1   -1.60    0.70
   0 -11   1   -0.80    0.90
  -1  11  -1    4.40    2.00
   1 -11   1    6.90    1.30
   1 -11   1    8.80    1.80
   1 -11   1    2.40    1.20
  -2  11  -1    3.40    1.90
  -2  11  -1    1.00    1.20
   2 -11   1   -0.40    0.70
   2 -11   1    0.10    0.90
   2 -11   1    1.30    0.90
  -3  11  -1    2.80    1.50
  -3  11  -1    4.20    1.50
   3 -11   1    2.90    1.30
   3 -11   1    2.00    1.10
   3 -11   1    3.30    1.20
  -4  11  -1    2.30    1.60
  -4  11  -1    5.00    1.80
   4 -11   1    3.00    1.10
  -5  11  -1   -1.20    1.40
  -5  11  -1    1.60    1.60
   5 -11   1    0.90    1.00
   5  10  -1    3.70    1.60
   5  10  -1    0.70    1.50
   5  10  -1    0.90    1.40
  -5 -10   1   -1.90    1.50
  -5 -10   1   -1.70    1.30
  -5 -10   1    0.10    1.30
   4  10  -1    6.00    1.80
   4  10  -1    5.50    1.80
  -4 -10   1    4.70    1.90
  -4 -10   1   10.50    2.30
  -4 -10   1    5.50    1.80
   3  10  -1    0.50    1.30
   3  10  -1    0.50    1.30
   3  10  -1    1.80    1.20
   3  10  -1    1.20    1.20
  -3 -10   1    1.60    1.20
  -3 -10   1    0.40    1.20
  -3 -10   1    1.50    1.30
  -3 -10   1    1.00    1.40
   2  10  -1    1.30    1.30
   2  10  -1    0.70    1.10
   2  10  -1    2.10    1.30
   2  10  -1   -0.10    1.00
  -2 -10   1    1.40    1.10
  -2 -10   1    0.50    1.20
  -2 -10   1    1.30    1.10
  -2 -10   1    1.60    0.90
  -2 -10   1    1.10    1.20
   1  10  -1    1.10    1.10
   1  10  -1    0.50    1.20
   1  10  -1   -0.30    1.10
  -1 -10   1    0.50    0.70
  -1 -10   1    2.10    1.10
  -1 -10   1    0.10    0.80
   0  10  -1   -0.70    1.10
   0  10  -1    2.20    1.30
   0  10  -1    1.30    1.20
   0 -10   1   -0.30    0.60
   0 -10   1    0.50    1.00
   0 -10   1   -0.70    0.80
  -1  10  -1    0.40    0.90
  -1  10  -1   -0.70    1.10
  -1  10  -1   -2.50    0.90
   1 -10   1   -0.30    0.50
   1 -10   1    0.30    0.80
   1 -10   1   -1.10    0.60
  -2  10  -1    1.60    1.50
  -2  10  -1   -0.70    0.90
   2 -10   1    0.30    0.70
   2 -10   1    0.40    0.90
   2 -10   1   -1.20    0.60
  -3  10  -1    7.30    2.00
  -3  10  -1    4.10    1.60
   3 -10   1    3.60    1.00
   3 -10   1    6.50    1.20
   3 -10   1    7.00    1.40
  -4  10  -1    3.30    1.50
  -4  10  -1    3.70    1.40
  -4  10  -1    3.20    1.50
   4 -10   1    5.40    1.20
   4 -10   1    3.80    1.20
   4 -10   1    2.50    1.10
   4 -10   1    3.50    1.10
  -5  10  -1   -0.50    1.20
  -5  10  -1    2.00    1.60
  -5  10  -1    1.30    1.10
  -5  10  -1   -0.40    1.50
  -5  10  -1    1.50    1.10
   5 -10   1    0.00    0.80
   5 -10   1    0.30    1.10
   5 -10   1   -0.50    1.00
   5 -10   1   -0.80    0.80
  -6  10  -1    4.00    1.90
  -6  10  -1    5.30    2.30
  -6  10  -1    4.00    1.50
  -6  10  -1    3.30    2.00
   6 -10   1    3.30    1.40
   6 -10   1    0.60    1.10
   6   9  -1    0.30    1.50
   6   9  -1    0.90    1.50
   6   9  -1    4.50    1.80
  -6  -9   1    1.00    1.70
  -6  -9   1    0.70    1.40
  -6  -9   1    2.50    1.70
   5   9  -1    1.20    1.60
   5   9  -1    3.10    1.50
   5   9  -1    0.90    1.30
  -5  -9   1    1.00    1.20
  -5  -9   1    0.30    1.40
  -5  -9   1    0.80    1.00
   4   9  -1    1.60    1.20
   4   9  -1   -0.60    0.80
   4   9  -1    0.40    1.20
  -4  -9   1   -0.40    0.60
  -4  -9   1   -0.10    1.20
  -4  -9   1    0.10    1.00
  -4  -9   1    1.40    1.50
   3   9  -1    0.30    1.00
   3   9  -1    0.80    0.90
   3   9  -1    0.00    0.70
   3   9  -1    0.10    0.90
  -3  -9   1    0.80    0.80
  -3  -9   1    0.30    1.00
  -3  -9   1    2.50    1.30
  -3  -9   1   -0.50    0.90
  -3  -9   1   -0.90    0.60
   2   9  -1    6.40    1.50
   2   9  -1   10.90    1.80
   2   9  -1    5.20    1.50
   2   9  -1   11.70    1.90
  -2  -9   1    5.30    1.40
  -2  -9   1    5.10    1.40
  -2  -9   1    9.40    1.80
  -2  -9   1   10.50    1.50
  -2  -9   1    7.10    1.70
   1   9  -1   34.20    2.70
   1   9  -1   30.70    2.50
   1   9  -1   24.40    2.80
   1   9  -1   35.60    2.90
  -1  -9   1   32.40    2.60
  -1  -9   1   32.10    2.60
  -1  -9   1   31.10    2.20
  -1  -9   1   31.20    2.70
  -1  -9   1   32.00    2.80
   0   9  -1   18.10    2.10
   0   9  -1   16.80    2.40
   0   9  -1   18.10    2.00
   0   9  -1   21.50    2.50
   0  -9   1   19.10    2.30
   0  -9   1   19.70    1.80
   0  -9   1   17.70    2.20
  -1   9  -1    1.70    1.30
  -1   9  -1    0.80    0.80
  -1   9  -1    2.30    1.10
  -1   9  -1   -0.10    0.90
   1  -9   1    3.20    1.00
   1  -9   1    0.20    0.70
   1  -9   1    2.10    0.70
  -2   9  -1    2.50    1.20
  -2   9  -1    4.60    1.40
   2  -9   1    6.30    1.10
   2  -9   1    3.60    0.90
   2  -9   1    4.10    1.10
  -3   9  -1   27.60    2.20
  -3   9  -1   32.30    3.30
  -3   9  -1   26.50    3.20
  -3   9  -1   28.10    2.40
   3  -9   1   28.70    2.10
   3  -9   1   24.80    1.90
   3  -9   1   29.40    2.30
   3  -9   1   29.80    2.20
   3  -9   1   25.60    2.00
  -4   9  -1    0.10    0.70
  -4   9  -1   -0.90    0.80
  -4   9  -1    0.30    1.10
  -4   9  -1    0.50    1.20
  -4   9  -1    0.50    0.70
   4  -9   1   -0.30    0.50
   4  -9   1   -0.20    0.70
   4  -9   1   -0.40    0.70
   4  -9   1   -0.40    0.70
   4  -9   1   -0.70    0.70
  -5   9  -1    2.50    1.30
  -5   9  -1    3.20    1.40
  -5   9  -1    3.10    1.70
  -5   9  -1    3.50    1.20
  -5   9  -1    4.00    1.30
   5  -9   1    4.70    1.20
   5  -9   1    2.80    1.00
   5  -9   1    1.60    1.00
   5  -9   1    3.50    1.10
   5  -9   1    1.80    1.00
  -6   9  -1    0.40    1.00
  -6   9  -1    2.20    1.20
  -6   9  -1    2.00    1.60
  -6   9  -1    0.40    1.00
  -6   9  -1    0.70    1.20
   6  -9   1    1.50    1.00
   6  -9   1    0.20    1.10
   6  -9   1    1.30    1.20
   6  -9   1    3.60    1.30
  -7   9  -1   -1.20    1.40
  -7   9  -1   -1.70    1.50
  -7   9  -1   -0.80    1.30
  -7   9  -1   -0.30    1.30
   7  -9   1    0.60    1.20
   7  -9   1    2.10    1.30
   7   8  -1    0.70    1.10
   7   8  -1    0.60    1.50
   7   8  -1    0.60    1.80
  -7  -8   1    1.50    1.40
  -7  -8   1   -0.90    1.80
  -7  -8   1    0.90    1.90
   6   8  -1    0.00    1.10
   6   8  -1    0.00    1.40
   6   8  -1   -0.40    1.30
  -6  -8   1    1.70    1.70
  -6  -8   1    2.70    1.60
  -6  -8   1   -0.10    1.50
   5   8  -1   -0.90    0.90
   5   8  -1    1.20    1.30
   5   8  -1    0.60    1.00
   5   8  -1   -0.50    1.00
  -5  -8   1   -1.00    1.20
  -5  -8   1   -0.20    1.20
  -5  -8   1   -0.60    1.10
  -5  -8   1   -0.30    1.20
   4   8  -1   11.70    2.00
   4   8  -1    6.00    1.50
   4   8  -1    7.30    1.50
  -4  -8   1   10.80    2.10
  -4  -8   1   10.40    1.60
  -4  -8   1   11.40    2.20
  -4  -8   1    8.10    2.00
  -4  -8   1    9.90    2.00
   3   8  -1   -0.30    0.90
   3   8  -1   -0.70    0.70
   3   8  -1    1.00    1.00
   3   8  -1    0.60    0.90
  -3  -8   1    0.10    0.70
  -3  -8   1    0.00    0.70
  -3  -8   1   -0.80    0.60
  -3  -8   1   -0.70    0.80
  -3  -8   1    0.10    0.90
   2   8  -1   10.00    1.70
   2   8  -1   16.70    2.10
   2   8  -1   10.90    1.70
   2   8  -1   12.80    1.80
  -2  -8   1   16.20    2.30
  -2  -8   1   12.00    1.80
  -2  -8   1   13.00    1.80
  -2  -8   1   14.30    1.50
  -2  -8   1   14.00    2.10
   1   8  -1   44.60    3.00
   1   8  -1   41.40    2.90
   1   8  -1   46.60    3.20
   1   8  -1   40.60    3.10
  -1  -8   1   42.60    2.90
  -1  -8   1   47.00    3.20
  -1  -8   1   41.20    2.90
  -1  -8   1   47.40    3.30
  -1  -8   1   47.60    2.70
   0   8  -1    3.40    1.20
   0   8  -1    4.80    1.10
   0   8  -1    2.90    0.90
   0   8  -1    2.60    1.20
   0   8  -1    3.30    1.00
   0  -8   1    3.90    0.80
   0  -8   1    3.80    1.00
   0  -8   1    3.80    1.60
   0  -8   1    3.20    1.00
   0  -8   1    3.20    0.90
  -1   8  -1   15.40    2.00
  -1   8  -1    9.80    1.60
  -1   8  -1   12.80    1.80
  -1   8  -1   11.00    1.50
   1  -8   1   10.30    1.20
   1  -8   1    9.70    1.40
   1  -8   1   10.50    1.00
   1  -8   1   11.50    1.30
   1  -8   1   12.90    1.60
  -2   8  -1   20.50    1.60
  -2   8  -1   25.00    2.50
  -2   8  -1   21.00    2.10
  -2   8  -1   20.00    2.50
  -2   8  -1   20.00    2.20
   2  -8   1   21.20    1.80
   2  -8   1   20.70    1.50
   2  -8   1   25.20    2.00
   2  -8   1   21.90    1.60
   2  -8   1   22.70    1.70
  -3   8  -1    0.20    0.70
  -3   8  -1    0.20    0.50
  -3   8  -1   -0.40    0.70
  -3   8  -1   -0.40    0.80
  -3   8  -1    1.10    0.60
   3  -8   1    1.00    0.60
   3  -8   1   -0.20    0.40
   3  -8   1   -0.40    0.50
   3  -8   1    0.70    0.50
   3  -8   1    0.00    0.50
  -4   8  -1    9.80    1.80
  -4   8  -1    7.60    1.70
  -4   8  -1    8.70    1.40
  -4   8  -1    6.60    1.30
  -4   8  -1    8.00    1.60
   4  -8   1   10.10    1.40
   4  -8   1   10.30    1.40
   4  -8   1    8.40    1.40
   4  -8   1    8.20    1.20
   4  -8   1   10.10    1.40
  -5   8  -1   -0.60    0.70
  -5   8  -1   -0.20    0.90
  -5   8  -1    1.00    1.10
  -5   8  -1   -0.50    0.70
  -5   8  -1   -0.10    0.80
   5  -8   1   -0.10    0.70
   5  -8   1   -0.70    0.80
   5  -8   1   -0.90    0.60
   5  -8   1    1.10    0.70
   5  -8   1   -0.30    0.70
  -6   8  -1    2.50    1.30
  -6   8  -1    1.30    1.50
  -6   8  -1    0.70    1.30
  -6   8  -1   -0.20    0.90
  -6   8  -1    2.40    1.20
   6  -8   1    0.60    1.10
   6  -8   1    0.80    0.90
   6  -8   1    1.30    0.80
   6  -8   1    0.40    0.90
   6  -8   1    1.20    1.00
  -7   8  -1    1.50    1.20
  -7   8  -1   -0.30    1.70
  -7   8  -1   -0.10    1.50
  -7   8  -1   -1.30    1.40
  -7   8  -1    0.30    1.30
   7  -8   1   -1.20    0.90
   7  -8   1   -0.30    1.00
   7   7  -1    0.50    1.40
   7   7  -1    2.30    1.50
   7   7  -1    1.80    1.70
  -7  -7   1    5.00    2.20
  -7  -7   1    3.00    2.00
  -7  -7   1    6.60    2.00
   6   7  -1    3.30    1.60
   6   7  -1   -0.80    1.00
   6   7  -1    0.70    1.20
   6   7  -1    0.10    1.20
  -6  -7   1   -1.30    1.30
  -6  -7   1    1.60    1.50
  -6  -7   1    1.10    1.50
  -6  -7   1    1.10    1.50
  -6  -7   1    0.90    1.40
   5   7  -1   52.09    3.90
   5   7  -1   54.69    3.80
   5   7  -1   49.90    4.00
   5   7  -1   58.59    4.10
  -5  -7   1   58.59    4.30
  -5  -7   1   63.39    3.60
  -5  -7   1   56.59    4.60
  -5  -7   1   60.29    4.50
  -5  -7   1   49.80    4.10
   4   7  -1    1.50    1.00
   4   7  -1    5.40    1.60
   4   7  -1    3.60    1.10
   4   7  -1    3.40    1.40
  -4  -7   1    5.40    1.50
  -4  -7   1    2.70    1.40
  -4  -7   1    3.60    1.20
  -4  -7   1    4.30    1.10
  -4  -7   1    4.30    1.30
  -4  -7   1    3.10    1.20
   3   7  -1   -0.20    0.90
   3   7  -1   -0.50    0.80
   3   7  -1   -0.60    0.80
   3   7  -1   -0.10    0.60
  -3  -7   1    0.50    0.60
  -3  -7   1   -0.40    0.70
  -3  -7   1   -0.90    0.50
  -3  -7   1   -0.20    0.90
  -3  -7   1    0.80    0.90
  -3  -7   1   -1.70    0.50
   2   7  -1    8.80    1.60
   2   7  -1    7.30    1.30
   2   7  -1    7.80    1.30
   2   7  -1    7.60    1.50
  -2  -7   1    9.10    1.20
  -2  -7   1    7.60    1.40
  -2  -7   1    5.30    1.20
  -2  -7   1    5.50    1.20
  -2  -7   1    8.00    1.50
   1   7  -1   55.09    3.00
   1   7  -1   56.99    3.50
   1   7  -1   59.89    3.40
   1   7  -1   62.29    3.50
   1   7  -1   54.19    3.30
  -1  -7   1   55.39    3.50
  -1  -7   1   58.49    3.40
  -1  -7   1   61.39    3.70
  -1  -7   1   56.59    3.30
  -1  -7   1   55.49    3.00
   0   7  -1  112.49    5.20
   0   7  -1  109.19    5.60
   0   7  -1  107.79    5.20
   0   7  -1  117.39    5.50
   0   7  -1  110.49    5.20
   0  -7   1  104.59    4.60
   0  -7   1  109.09    4.60
   0  -7   1  111.39    5.50
   0  -7   1  108.69    5.20
   0  -7   1  115.59    5.20
   0  -7   1  108.89    4.90
   0  -7   1  107.69    5.40
  -1   7  -1    9.80    1.50
  -1   7  -1   11.50    1.20
  -1   7  -1   13.00    1.60
  -1   7  -1   13.50    1.40
  -1   7  -1   14.10    1.40
  -1   7  -1   12.50    1.50
   1  -7   1   11.90    1.40
   1  -7   1   10.30    1.20
   1  -7   1   11.50    0.90
   1  -7   1   12.20    1.10
   1  -7   1   14.50    1.50
   1  -7   1   12.60    1.20
  -2   7  -1    3.50    0.80
  -2   7  -1    3.40    1.00
  -2   7  -1    2.90    0.70
  -2   7  -1    4.80    1.00
  -2   7  -1    1.70    1.00
  -2   7  -1    4.30    0.80
   2  -7   1    2.20    0.70
   2  -7   1    2.60    0.60
   2  -7   1    3.40    0.70
   2  -7   1    2.70    0.70
   2  -7   1    3.20    0.60
  -3   7  -1    9.20    1.60
  -3   7  -1   10.20    1.70
  -3   7  -1    5.30    1.10
  -3   7  -1    8.40    1.20
  -3   7  -1    7.30    1.10
   3  -7   1    7.00    1.00
   3  -7   1    7.80    1.10
   3  -7   1    8.10    1.10
   3  -7   1    9.40    1.30
   3  -7   1    8.10    1.10
  -4   7  -1    1.20    0.80
  -4   7  -1    1.10    0.70
  -4   7  -1    0.80    0.80
  -4   7  -1    0.00    0.60
  -4   7  -1    1.70    1.00
   4  -7   1    1.00    0.70
   4  -7   1    1.00    0.70
   4  -7   1    0.40    0.50
   4  -7   1   -0.20    0.60
   4  -7   1    1.20    0.70
  -5   7  -1    8.40    1.80
  -5   7  -1    6.10    1.30
  -5   7  -1    9.10    1.50
  -5   7  -1    8.90    1.70
  -5   7  -1   10.90    2.00
  -5   7  -1    7.60    1.50
   5  -7   1    8.70    1.40
   5  -7   1   10.00    1.50
   5  -7   1   12.30    1.60
   5  -7   1    9.00    1.40
  -6   7  -1   23.00    2.90
  -6   7  -1   25.80    2.80
  -6   7  -1   24.10    2.70
  -6   7  -1   25.10    3.10
  -6   7  -1   27.10    3.10
  -6   7  -1   29.80    3.10
   6  -7   1   25.30    2.50
   6  -7   1   31.10    2.40
   6  -7   1   24.60    2.10
   6  -7   1   30.00    2.50
   6  -7   1   29.30    2.80
  -7   7  -1    8.30    2.10
  -7   7  -1    7.80    2.30
  -7   7  -1   12.30    2.30
  -7   7  -1    6.90    2.00
  -7   7  -1    7.20    1.90
  -7   7  -1    7.80    1.80
   7  -7   1    7.50    1.60
   7  -7   1    7.30    1.50
   7  -7   1    4.30    1.30
   7  -7   1   14.00    2.10
   7  -7   1    9.00    1.70
  -8   7  -1    0.10    1.60
  -8   7  -1   -0.10    1.00
  -8   7  -1    1.50    1.90
  -8   7  -1    0.30    1.30
   8  -7   1    0.80    1.10
   8  -7   1    0.50    1.30
   8   6  -1   -0.50    1.20
   8   6  -1    0.40    1.50
   8   6  -1    1.90    1.60
   8   6  -1    1.30    1.30
  -8  -6   1   -0.30    1.50
  -8  -6   1    0.90    1.80
  -8  -6   1   -1.10    1.90
   7   6  -1    1.10    1.20
   7   6  -1    2.70    1.40
   7   6  -1    2.70    1.70
   7   6  -1    2.90    1.40
  -7  -6   1    4.60    2.00
  -7  -6   1    4.90    2.00
  -7  -6   1    3.90    1.50
   6   6  -1   13.00    2.10
   6   6  -1   13.10    2.30
   6   6  -1    9.60    1.70
   6   6  -1   13.70    2.30
  -6  -6   1    8.80    2.20
  -6  -6   1   11.30    1.70
  -6  -6   1   12.90    2.40
  -6  -6   1   11.60    2.40
  -6  -6   1   10.00    1.90
  -6  -6   1    9.00    2.10
   5   6  -1   30.40    2.80
   5   6  -1   24.10    2.90
   5   6  -1   31.40    3.20
   5   6  -1   25.50    2.70
  -5  -6   1   28.30    3.30
  -5  -6   1   24.80    3.00
  -5  -6   1   28.60    2.20
  -5  -6   1   32.20    3.30
  -5  -6   1   27.10    2.70
  -5  -6   1   24.10    3.10
   4   6  -1  110.19    5.70
   4   6  -1  115.09    5.40
   4   6  -1  114.09    6.10
   4   6  -1  111.49    5.80
  -4  -6   1  112.99    6.40
  -4  -6   1  107.79    5.70
  -4  -6   1  114.99    5.40
  -4  -6   1  111.79    6.10
  -4  -6   1  109.59    6.30
  -4  -6   1  110.89    6.10
   3   6  -1    4.70    1.20
   3   6  -1    6.80    1.20
   3   6  -1    5.50    1.00
   3   6  -1    4.90    1.10
  -3  -6   1    5.10    1.10
  -3  -6   1    5.20    0.90
  -3  -6   1    5.30    1.10
  -3  -6   1    4.00    1.20
  -3  -6   1    6.30    1.30
  -3  -6   1    3.20    1.10
   2   6  -1   20.10    1.60
   2   6  -1   21.60    2.10
   2   6  -1   17.90    1.40
   2   6  -1   20.30    1.70
   2   6  -1   19.90    1.60
  -2  -6   1   18.90    1.50
  -2  -6   1   20.00    2.00
  -2  -6   1   20.10    1.90
  -2  -6   1   21.50    2.10
  -2  -6   1   18.00    2.00
  -2  -6   1   20.90    2.10
   1   6  -1   38.70    2.60
   1   6  -1   41.90    2.50
   1   6  -1   42.50    2.70
   1   6  -1   44.10    2.30
   1   6  -1   43.00    2.60
  -1  -6   1   43.70    1.90
  -1  -6   1   41.70    2.80
  -1  -6   1   38.70    2.60
  -1  -6   1   40.40    2.50
  -1  -6   1   42.40    2.50
  -1  -6   1   42.00    2.60
  -1  -6   1   42.80    2.30
  -1  -6   1   43.80    1.90
   0   6  -1    0.90    0.50
   0   6  -1    0.30    0.60
   0   6  -1   -0.20    0.40
   0   6  -1    0.30    0.30
   0   6  -1    0.70    0.50
   0   6  -1   -0.10    0.30
   0  -6   1    0.00    0.30
   0  -6   1    0.20    0.40
   0  -6   1    0.20    0.40
   0  -6   1   -0.10    0.30
   0  -6   1   -0.20    0.20
   0  -6   1   -0.10    0.30
   0  -6   1    0.00    0.30
  -1   6  -1    5.60    1.00
  -1   6  -1    3.90    0.70
  -1   6  -1    5.50    1.00
  -1   6  -1    4.80    0.80
  -1   6  -1    4.60    0.80
  -1   6  -1    4.70    0.70
  -1   6  -1    3.90    0.90
   1  -6   1    4.10    0.60
   1  -6   1    4.50    0.70
   1  -6   1    4.80    0.80
   1  -6   1    4.20    0.60
   1  -6   1    3.70    0.60
   1  -6   1    4.90    0.80
   1  -6   1    4.10    0.70
  -2   6  -1  229.38    9.70
  -2   6  -1  227.98    9.50
  -2   6  -1  230.08    9.60
  -2   6  -1  233.38    9.50
  -2   6  -1  196.78   10.00
  -2   6  -1  222.18    9.40
  -2   6  -1  224.88   10.00
   2  -6   1  225.28    9.40
   2  -6   1  221.48    9.40
   2  -6   1  249.28    9.70
   2  -6   1  239.18    9.30
   2  -6   1  223.08    9.40
   2  -6   1  250.97    9.60
  -3   6  -1   35.60    2.40
  -3   6  -1   34.20    2.20
  -3   6  -1   32.90    2.60
  -3   6  -1   39.40    2.30
  -3   6  -1   29.10    2.40
   3  -6   1   35.90    2.10
   3  -6   1   31.80    2.00
   3  -6   1   31.60    2.10
   3  -6   1   33.10    2.00
   3  -6   1   36.20    2.20
  -4   6  -1   34.00    2.80
  -4   6  -1   32.40    2.30
  -4   6  -1   24.90    2.70
  -4   6  -1   33.90    2.60
  -4   6  -1   32.80    2.30
  -4   6  -1   34.90    2.40
   4  -6   1   36.50    2.30
   4  -6   1   33.80    2.10
   4  -6   1   30.70    2.20
   4  -6   1   32.50    2.10
   4  -6   1   35.00    2.20
  -5   6  -1    2.80    1.00
  -5   6  -1    1.80    1.20
  -5   6  -1    1.90    0.90
  -5   6  -1    2.80    1.10
  -5   6  -1    3.10    1.10
  -5   6  -1    2.90    1.00
   5  -6   1    1.80    0.80
   5  -6   1    2.40    0.90
   5  -6   1    2.60    0.80
   5  -6   1    4.50    1.10
   5  -6   1    3.10    0.90
  -6   6  -1    0.00    0.90
  -6   6  -1    0.20    0.80
  -6   6  -1   -0.20    0.60
  -6   6  -1    0.30    0.90
  -6   6  -1    1.00    1.20
  -6   6  -1   -0.30    0.70
   6  -6   1    0.50    0.60
   6  -6   1   -0.10    0.80
   6  -6   1    0.10    0.60
   6  -6   1   -1.10    0.60
   6  -6   1   -0.30    0.60
  -7   6  -1    7.50    1.80
  -7   6  -1    4.90    1.40
  -7   6  -1    7.50    1.90
  -7   6  -1    6.60    1.70
  -7   6  -1    4.00    1.80
   7  -6   1    2.90    1.30
   7  -6   1    4.00    1.20
   7  -6   1    6.20    1.40
   7  -6   1    9.80    1.80
   7  -6   1    3.80    1.30
  -8   6  -1    0.90    1.40
  -8   6  -1    0.50    1.40
  -8   6  -1   -0.80    1.60
  -8   6  -1    2.10    1.40
   8  -6   1   -1.10    0.90
   8  -6   1    0.50    1.10
   8  -6   1   -0.90    1.00
   8   5  -1   23.60    3.20
   8   5  -1   24.80    3.40
   8   5  -1   29.50    3.20
   8   5  -1   25.80    3.50
  -8  -5   1   33.10    4.20
  -8  -5   1   25.20    3.70
  -8  -5   1   28.90    4.20
   7   5  -1    0.40    1.00
   7   5  -1   -1.10    0.70
   7   5  -1    0.50    1.00
   7   5  -1    1.40    1.30
   7   5  -1    0.50    1.10
  -7  -5   1    1.20    1.20
  -7  -5   1    0.20    1.50
  -7  -5   1    0.30    1.00
  -7  -5   1    1.10    1.60
  -7  -5   1   -0.40    0.80
  -7  -5   1    1.10    1.10
   6   5  -1   56.39    3.80
   6   5  -1   56.69    4.10
   6   5  -1   55.09    3.70
   6   5  -1   59.29    4.20
  -6  -5   1   58.59    3.60
  -6  -5   1   54.79    4.30
  -6  -5   1   55.29    3.70
  -6  -5   1   59.99    4.40
  -6  -5   1   60.49    4.60
  -6  -5   1   58.19    4.60
   5   5  -1   27.60    2.30
   5   5  -1   26.90    2.80
   5   5  -1   27.10    2.60
   5   5  -1   29.50    2.90
  -5  -5   1   24.90    3.00
  -5  -5   1   25.70    2.20
  -5  -5   1   24.50    3.00
  -5  -5   1   25.10    2.90
  -5  -5   1   35.60    2.90
  -5  -5   1   24.80    2.40
   4   5  -1   10.70    1.70
   4   5  -1    8.90    1.40
   4   5  -1   12.30    1.30
   4   5  -1   10.30    1.40
  -4  -5   1   10.20    1.80
  -4  -5   1    6.60    1.50
  -4  -5   1    7.60    1.20
  -4  -5   1    9.60    1.60
  -4  -5   1   11.00    1.70
  -4  -5   1   12.30    1.40
   3   5  -1    9.10    1.30
   3   5  -1    6.50    1.10
   3   5  -1    6.50    1.20
   3   5  -1    7.00    1.00
  -3  -5   1    7.00    1.10
  -3  -5   1    7.80    1.40
  -3  -5   1    8.10    0.80
  -3  -5   1    8.70    1.40
  -3  -5   1    6.80    1.20
  -3  -5   1    7.90    1.00
  -3  -5   1    7.50    1.30
   2   5  -1  180.48    7.50
   2   5  -1  167.18    7.60
   2   5  -1  173.48    7.90
   2   5  -1  173.48    7.70
   2   5  -1  174.48    7.10
  -2  -5   1  180.18    7.00
  -2  -5   1  177.18    7.00
  -2  -5   1  174.98    7.60
  -2  -5   1  174.78    7.30
  -2  -5   1  165.98    8.00
  -2  -5   1  173.68    7.80
  -2  -5   1  171.48    7.90
  -2  -5   1  183.28    7.90
   1   5  -1   32.80    2.20
   1   5  -1   36.00    2.20
   1   5  -1   40.50    2.00
   1   5  -1   33.50    2.10
   1   5  -1   36.30    2.20
  -1  -5   1   39.10    2.20
  -1  -5   1   35.90    2.30
  -1  -5   1   36.20    1.90
  -1  -5   1   35.80    1.60
  -1  -5   1   36.50    2.20
  -1  -5   1   37.70    2.30
  -1  -5   1   36.10    2.20
   0   5  -1   15.90    1.20
   0   5  -1   15.90    1.30
   0   5  -1   15.30    1.20
   0   5  -1   17.60    1.40
   0   5  -1   15.10    1.00
   0   5  -1   18.00    1.20
   0  -5   1   16.10    0.90
   0  -5   1   16.80    1.30
   0  -5   1   16.30    1.20
   0  -5   1   17.20    0.90
   0  -5   1   14.40    1.20
   0  -5   1   15.20    1.20
   0  -5   1   17.40    1.10
  -1   5  -1   65.89    3.30
  -1   5  -1   63.19    3.20
  -1   5  -1   69.39    3.50
  -1   5  -1   63.99    2.90
  -1   5  -1   66.39    3.00
  -1   5  -1   62.59    3.10
  -1   5  -1   64.29    3.00
   1  -5   1   66.79    3.10
   1  -5   1   68.19    3.20
   1  -5   1   61.59    2.90
   1  -5   1   61.89    2.90
   1  -5   1   61.19    2.90
   1  -5   1   66.69    3.00
   1  -5   1   60.69    2.90
  -2   5  -1   81.99    3.70
  -2   5  -1   85.19    3.90
  -2   5  -1   90.89    4.40
  -2   5  -1   78.19    4.10
  -2   5  -1   90.99    4.00
  -2   5  -1   83.19    3.90
  -2   5  -1   83.09    4.40
   2  -5   1   86.59    3.70
   2  -5   1   88.89    4.00
   2  -5   1   96.29    4.00
   2  -5   1   83.69    3.90
   2  -5   1   84.99    3.90
   2  -5   1   85.69    3.90
  -3   5  -1   83.69    4.40
  -3   5  -1   82.59    4.10
  -3   5  -1   78.29    4.20
  -3   5  -1   83.19    4.00
  -3   5  -1   90.29    4.20
  -3   5  -1   75.19    3.50
  -3   5  -1   84.19    4.40
   3  -5   1   80.39    3.90
   3  -5   1   82.39    3.90
   3  -5   1   78.79    3.90
   3  -5   1   91.09    3.90
   3  -5   1   84.89    4.00
   3  -5   1   83.29    3.60
  -4   5  -1   35.90    2.40
  -4   5  -1   34.50    2.30
  -4   5  -1   28.30    2.50
  -4   5  -1   30.10    2.20
  -4   5  -1   32.20    2.50
  -4   5  -1   32.00    2.40
   4  -5   1   32.20    2.10
   4  -5   1   34.60    1.80
   4  -5   1   33.60    2.20
   4  -5   1   30.30    2.10
   4  -5   1   34.20    2.10
   4  -5   1   33.90    2.10
  -5   5  -1    8.80    1.40
  -5   5  -1    6.90    1.30
  -5   5  -1   10.90    1.60
  -5   5  -1    8.60    1.60
  -5   5  -1   10.10    1.70
  -5   5  -1    7.10    1.30
   5  -5   1    7.00    1.20
   5  -5   1    9.10    1.30
   5  -5   1   10.40    1.40
   5  -5   1    7.50    1.20
   5  -5   1    6.20    1.20
  -6   5  -1   17.50    2.10
  -6   5  -1   15.50    2.10
  -6   5  -1   21.70    2.50
  -6   5  -1   14.20    2.00
  -6   5  -1   15.20    2.30
  -6   5  -1   14.10    2.00
   6  -5   1   17.10    1.90
   6  -5   1   15.80    1.90
   6  -5   1   16.20    2.00
   6  -5   1   14.60    1.80
   6  -5   1   20.60    2.20
  -7   5  -1   -0.20    1.20
  -7   5  -1    0.70    1.00
  -7   5  -1   -0.30    0.90
  -7   5  -1   -0.30    1.10
  -7   5  -1   -2.10    0.80
   7  -5   1    0.40    0.70
   7  -5   1    0.80    1.10
   7  -5   1    0.00    0.70
   7  -5   1   -0.60    0.90
   7  -5   1   -0.20    0.80
  -8   5  -1    2.80    1.60
  -8   5  -1   -0.10    1.40
  -8   5  -1    0.10    1.10
  -8   5  -1    0.30    1.50
   8  -5   1   -0.30    1.10
   8  -5   1   -1.20    0.70
   8  -5   1    1.90    1.20
   8  -5   1    1.10    1.10
  -9   5  -1   -1.20    1.70
  -9   5  -1   -0.20    1.70
  -9   5  -1   -0.20    1.60
  -9   5  -1   -0.90    1.70
   9  -5   1    0.80    1.30
   9  -5   1    2.20    2.10
   9  -5   1   -0.50    1.20
   8   4  -1    8.40    1.80
   8   4  -1    6.40    1.90
   8   4  -1    5.70    1.80
   8   4  -1   10.60    2.30
  -8  -4   1   12.40    2.90
  -8  -4   1    6.40    2.10
  -8  -4   1    9.80    2.00
  -8  -4   1   10.80    2.60
  -8  -4   1   10.00    1.90
   7   4  -1    5.70    1.60
   7   4  -1    7.40    1.90
   7   4  -1    5.00    1.40
   7   4  -1    5.90    1.80
   7   4  -1    3.90    1.30
  -7  -4   1    2.60    1.60
  -7  -4   1    7.90    1.70
  -7  -4   1    5.90    2.00
  -7  -4   1    6.40    1.80
  -7  -4   1    6.00    2.00
  -7  -4   1    7.40    1.50
   6   4  -1   18.60    2.10
   6   4  -1   19.80    2.50
   6   4  -1   17.90    2.10
   6   4  -1   16.50    2.30
  -6  -4   1   14.40    2.30
  -6  -4   1   17.40    2.60
  -6  -4   1   15.70    1.90
  -6  -4   1   14.40    2.40
  -6  -4   1   20.10    2.20
  -6  -4   1   13.60    2.30
   5   4  -1   18.90    2.30
   5   4  -1   27.30    2.10
   5   4  -1   23.30    2.30
   5   4  -1   21.30    2.40
  -5  -4   1   26.90    1.90
  -5  -4   1   26.00    1.70
  -5  -4   1   18.90    2.30
  -5  -4   1   20.70    2.50
  -5  -4   1   21.90    2.50
  -5  -4   1   24.10    2.00
  -5  -4   1   20.70    2.60
   4   4  -1    1.70    0.60
   4   4  -1    2.20    0.50
   4   4  -1    1.10    0.60
   4   4  -1   -0.20    0.60
  -4  -4   1    1.90    0.80
  -4  -4   1    2.60    0.80
  -4  -4   1    1.40    0.50
  -4  -4   1    1.90    0.80
  -4  -4   1    1.50    0.90
  -4  -4   1    1.40    0.50
  -4  -4   1    0.90    0.40
  -4  -4   1    1.80    0.80
   3   4  -1    3.90    0.50
   3   4  -1    2.80    0.70
   3   4  -1    3.10    0.60
   3   4  -1    3.10    0.90
   3   4  -1    4.70    0.80
  -3  -4   1    4.70    0.70
  -3  -4   1    2.70    0.80
  -3  -4   1    4.30    1.00
  -3  -4   1    3.80    0.90
  -3  -4   1    3.10    0.80
  -3  -4   1    3.40    0.70
  -3  -4   1    4.30    0.60
  -3  -4   1    4.60    0.60
   2   4  -1  341.17   14.50
   2   4  -1  381.36   14.40
   2   4  -1  372.26   14.70
   2   4  -1  371.06   14.00
   2   4  -1  344.87   14.80
  -2  -4   1  365.86   14.80
  -2  -4   1  354.06   14.80
  -2  -4   1  355.06   14.70
  -2  -4   1  366.36   14.50
  -2  -4   1  370.06   13.90
  -2  -4   1  335.37   14.80
  -2  -4   1  356.76   14.00
  -2  -4   1  369.96   14.20
   1   4  -1  493.15   19.90
   1   4  -1  518.15   19.80
   1   4  -1  489.25   19.90
   1   4  -1  489.65   19.80
   1   4  -1  517.75   19.50
  -1  -4   1  497.45   19.50
  -1  -4   1  501.15   19.30
  -1  -4   1  505.65   20.00
  -1  -4   1  511.65   19.90
  -1  -4   1  502.75   19.80
  -1  -4   1  501.35   19.80
  -1  -4   1  514.75   20.00
   0   4  -1    1.50    0.40
   0   4  -1    1.00    0.30
   0   4  -1    0.50    0.30
   0   4  -1    0.40    0.30
   0   4  -1    1.00    0.40
   0   4  -1    0.50    0.20
   0  -4   1    0.70    0.20
   0  -4   1    1.10    0.30
   0  -4   1    0.90    0.30
   0  -4   1    0.70    0.30
   0  -4   1    1.20    0.20
   0  -4   1    1.40    0.40
   0  -4   1    1.10    0.40
   0  -4   1    0.80    0.30
  -1   4  -1  360.56   15.10
  -1   4  -1  375.36   14.60
  -1   4  -1  355.66   14.70
  -1   4  -1  374.46   14.60
  -1   4  -1  380.16   14.80
  -1   4  -1  363.86   14.60
   1  -4   1  395.96   14.60
   1  -4   1  359.06   14.60
   1  -4   1  415.66   14.80
   1  -4   1  398.56   14.70
   1  -4   1  364.06   14.60
   1  -4   1  356.96   14.50
   1  -4   1  361.56   14.70
  -2   4  -1  220.18    9.10
  -2   4  -1  219.18    9.40
  -2   4  -1  212.78    9.20
  -2   4  -1  213.18    8.80
  -2   4  -1  229.08    9.10
  -2   4  -1  227.68    9.10
  -2   4  -1  220.88    9.40
   2  -4   1  223.38    8.80
   2  -4   1  215.48    8.90
   2  -4   1  215.28    9.00
   2  -4   1  236.88    9.10
   2  -4   1  208.18    8.90
   2  -4   1  238.28    9.00
  -3   4  -1    7.60    1.10
  -3   4  -1    6.00    1.10
  -3   4  -1    6.30    0.90
  -3   4  -1    8.10    1.10
  -3   4  -1    6.80    0.50
  -3   4  -1    6.00    1.10
  -3   4  -1    5.50    0.90
   3  -4   1    5.30    0.90
   3  -4   1    6.30    0.80
   3  -4   1    6.70    0.80
   3  -4   1    7.10    0.90
   3  -4   1    6.70    0.70
   3  -4   1    7.30    0.90
  -4   4  -1   48.00    2.80
  -4   4  -1   46.50    3.10
  -4   4  -1   53.79    3.00
  -4   4  -1   54.49    3.20
  -4   4  -1   51.39    2.90
  -4   4  -1   45.90    3.00
   4  -4   1   52.09    2.60
   4  -4   1   52.39    2.80
   4  -4   1   50.99    2.80
   4  -4   1   49.80    2.90
   4  -4   1   48.70    2.70
  -5   4  -1    0.10    0.60
  -5   4  -1   -0.10    0.40
  -5   4  -1    0.70    0.80
  -5   4  -1   -0.40    0.30
  -5   4  -1    0.30    0.80
  -5   4  -1   -0.40    0.60
   5  -4   1    0.40    0.70
   5  -4   1    0.00    0.60
   5  -4   1   -0.30    0.40
   5  -4   1   -0.80    0.50
   5  -4   1   -0.70    0.50
  -6   4  -1    6.40    1.40
  -6   4  -1    9.70    1.60
  -6   4  -1    8.60    1.50
  -6   4  -1    9.30    1.60
  -6   4  -1    7.90    1.60
  -6   4  -1    8.20    1.60
   6  -4   1   10.40    1.60
   6  -4   1   11.80    1.60
   6  -4   1    8.10    1.40
   6  -4   1   11.10    1.60
  -7   4  -1    1.60    1.20
  -7   4  -1    1.60    0.90
  -7   4  -1    0.50    0.80
  -7   4  -1    2.20    1.50
  -7   4  -1    2.20    1.30
   7  -4   1    0.00    0.80
   7  -4   1    0.10    0.60
   7  -4   1    1.50    0.70
   7  -4   1    0.90    1.00
   7  -4   1    2.70    1.20
  -8   4  -1    3.40    1.80
  -8   4  -1    6.90    2.00
  -8   4  -1    5.40    1.60
  -8   4  -1    2.10    1.70
  -8   4  -1    4.50    1.80
   8  -4   1    1.40    1.20
   8  -4   1    3.40    1.40
   8  -4   1    1.60    1.30
   8  -4   1    5.70    1.70
   8  -4   1    3.50    1.30
  -9   4  -1    0.90    1.20
  -9   4  -1   -0.10    1.40
  -9   4  -1   -0.90    1.50
   9  -4   1    1.20    1.00
   9  -4   1    0.50    1.00
   9  -4   1   -0.80    1.40
   9   3  -1    1.50    1.70
   9   3  -1    0.50    1.50
   9   3  -1   -1.40    1.20
  -9  -3   1   -1.70    1.80
  -9  -3   1    1.40    2.10
  -9  -3   1    2.30    1.90
  -9  -3   1    1.10    1.60
   8   3  -1    0.90    1.40
   8   3  -1   -0.80    1.00
   8   3  -1   -0.90    1.20
   8   3  -1    0.10    1.30
  -8  -3   1    0.70    1.20
  -8  -3   1    0.50    1.20
  -8  -3   1    0.20    1.30
  -8  -3   1   -0.60    1.60
  -8  -3   1   -0.70    1.50
   7   3  -1    2.30    1.00
   7   3  -1   -0.30    0.80
   7   3  -1    2.60    1.30
   7   3  -1    0.00    0.80
   7   3  -1   -1.20    1.00
   7   3  -1    0.70    1.10
  -7  -3   1    0.70    0.90
  -7  -3   1    0.70    1.30
  -7  -3   1   -0.20    1.10
  -7  -3   1   -0.60    1.10
  -7  -3   1   -0.10    0.60
  -7  -3   1    0.40    0.80
   6   3  -1   14.90    2.20
   6   3  -1   14.60    1.80
   6   3  -1   15.50    1.80
   6   3  -1   12.00    1.90
   6   3  -1   14.20    2.10
  -6  -3   1   13.30    2.00
  -6  -3   1   10.30    2.00
  -6  -3   1   13.40    1.60
  -6  -3   1   16.20    1.80
  -6  -3   1   15.90    2.00
  -6  -3   1   10.80    2.00
  -6  -3   1   12.20    1.60
  -6  -3   1   14.60    2.20
   5   3  -1   18.90    2.20
   5   3  -1   20.50    2.20
   5   3  -1   22.10    2.10
   5   3  -1   16.20    1.80
   5   3  -1   22.50    1.50
  -5  -3   1   18.70    2.20
  -5  -3   1   19.20    2.30
  -5  -3   1   18.80    1.40
  -5  -3   1   19.40    1.60
  -5  -3   1   19.90    1.90
  -5  -3   1   19.60    1.80
  -5  -3   1   19.70    2.30
  -5  -3   1   21.30    1.60
  -5  -3   1   18.50    2.40
  -5  -3   1   20.00    1.50
   4   3  -1    0.20    0.40
   4   3  -1    0.30    0.30
   4   3  -1    0.30    0.30
   4   3  -1    0.80    0.50
   4   3  -1    1.00    0.70
   4   3  -1    0.30    0.50
  -4  -3   1    0.30    0.50
  -4  -3   1    0.00    0.50
  -4  -3   1    0.40    0.40
  -4  -3   1    0.00    0.30
  -4  -3   1    1.00    0.60
  -4  -3   1    0.00    0.60
  -4  -3   1   -0.10    0.40
  -4  -3   1    0.20    0.70
  -4  -3   1    0.10    0.30
  -4  -3   1   -0.10    0.60
  -4  -3   1    0.20    0.30
  -4  -3   1    0.50    0.30
   3   3  -1  161.08    6.90
   3   3  -1  160.58    7.20
   3   3  -1  161.68    6.60
   3   3  -1  161.08    6.40
   3   3  -1  166.88    7.00
  -3  -3   1  163.38    6.50
  -3  -3   1  149.69    6.80
  -3  -3   1  156.48    7.30
  -3  -3   1  165.38    6.50
  -3  -3   1  158.28    6.90
  -3  -3   1  149.19    6.60
  -3  -3   1  148.19    7.10
  -3  -3   1  161.78    7.20
  -3  -3   1  156.28    7.30
   2   3  -1  110.39    4.90
   2   3  -1  112.09    4.50
   2   3  -1  103.39    5.10
   2   3  -1  114.59    5.00
   2   3  -1  112.89    4.70
  -2  -3   1  103.39    5.10
  -2  -3   1  113.99    5.10
  -2  -3   1  108.79    4.60
  -2  -3   1  115.49    4.50
  -2  -3   1  108.29    4.90
  -2  -3   1  114.19    5.10
  -2  -3   1  119.19    4.70
  -2  -3   1  114.69    4.90
  -2  -3   1  101.09    5.10
   1   3  -1  129.49    5.50
   1   3  -1  135.29    5.40
   1   3  -1  127.89    5.20
   1   3  -1  124.09    5.40
  -1  -3   1  133.19    5.40
  -1  -3   1  133.09    5.60
  -1  -3   1  123.49    5.20
  -1  -3   1  127.39    5.00
  -1  -3   1  130.09    5.40
  -1  -3   1  132.99    5.50
  -1  -3   1  124.19    5.60
  -1  -3   1  130.09    5.50
   0   3  -1   40.30    2.00
   0   3  -1   43.60    2.00
   0   3  -1   43.70    2.20
   0   3  -1   40.80    2.10
   0  -3   1   41.90    2.00
   0  -3   1   45.60    2.10
   0  -3   1   40.70    1.90
   0  -3   1   43.60    2.00
   0  -3   1   47.40    2.10
   0  -3   1   44.30    2.00
   0  -3   1   42.20    1.80
  -1   3  -1   13.50    0.90
  -1   3  -1    8.50    1.00
  -1   3  -1   13.20    0.80
  -1   3  -1   13.10    1.00
  -1   3  -1   14.10    0.90
  -1   3  -1   14.60    0.90
  -1   3  -1   13.90    0.90
   1  -3   1   13.10    0.80
   1  -3   1   15.20    0.90
   1  -3   1   13.60    0.80
   1  -3   1   15.00    0.90
   1  -3   1   13.40    0.80
   1  -3   1   13.70    0.80
  -2   3  -1  202.98    8.30
  -2   3  -1  206.88    8.10
  -2   3  -1  203.58    8.20
  -2   3  -1  186.58    8.30
  -2   3  -1  209.48    8.20
  -2   3  -1  191.08    8.30
  -2   3  -1  187.58    7.70
   2  -3   1  191.18    8.00
   2  -3   1  204.88    8.10
   2  -3   1  208.08    8.10
   2  -3   1  199.78    7.90
   2  -3   1  197.98    8.00
  -3   3  -1   22.90    1.60
  -3   3  -1   21.60    1.70
  -3   3  -1   21.60    1.50
  -3   3  -1   22.60    1.60
  -3   3  -1   22.70    1.60
  -3   3  -1   22.80    1.00
  -3   3  -1   23.00    1.70
   3  -3   1   22.70    1.50
   3  -3   1   22.60    1.40
   3  -3   1   23.70    1.40
   3  -3   1   23.70    1.60
   3  -3   1   23.80    1.50
  -4   3  -1   57.69    3.20
  -4   3  -1   58.29    3.30
  -4   3  -1   59.59    3.10
  -4   3  -1   58.29    3.20
  -4   3  -1   40.80    3.00
  -4   3  -1   55.89    3.10
   4  -3   1   55.19    2.80
   4  -3   1   51.59    2.90
   4  -3   1   56.59    3.00
   4  -3   1   55.99    2.90
   4  -3   1   61.19    3.20
   4  -3   1   56.99    2.70
  -5   3  -1   27.00    2.10
  -5   3  -1   28.10    2.20
  -5   3  -1   23.80    2.40
  -5   3  -1   26.50    2.60
  -5   3  -1   24.40    2.00
  -5   3  -1   24.90    2.30
   5  -3   1   28.00    1.90
   5  -3   1   25.30    2.10
   5  -3   1   26.90    2.10
   5  -3   1   26.90    2.00
   5  -3   1   27.10    1.90
  -6   3  -1    6.40    1.30
  -6   3  -1    4.00    1.30
  -6   3  -1    4.90    1.40
  -6   3  -1    5.70    1.40
  -6   3  -1    5.10    1.30
  -6   3  -1    5.30    1.60
   6  -3   1    6.50    1.40
   6  -3   1    5.70    1.20
   6  -3   1    2.80    1.00
   6  -3   1    5.90    1.40
   6  -3   1    6.60    1.10
  -7   3  -1    0.40    0.80
  -7   3  -1    0.60    0.90
  -7   3  -1   -0.80    1.00
  -7   3  -1    0.70    1.20
  -7   3  -1    1.00    1.00
  -7   3  -1    1.00    1.00
   7  -3   1    0.70    0.70
   7  -3   1    0.30    0.80
   7  -3   1    0.20    0.60
   7  -3   1    0.10    1.00
  -8   3  -1   11.50    2.30
  -8   3  -1   12.30    2.30
  -8   3  -1   11.70    2.10
  -8   3  -1    8.70    2.00
  -8   3  -1    6.30    1.90
   8  -3   1    9.30    1.70
   8  -3   1    7.80    1.70
   8  -3   1    7.80    1.70
   8  -3   1    9.10    1.90
  -9   3  -1    2.10    1.50
  -9   3  -1    3.10    2.00
  -9   3  -1    3.20    2.00
   9  -3   1    1.50    1.30
   9  -3   1   -0.50    1.20
   9  -3   1    1.30    1.50
   9   2  -1    0.40    1.60
   9   2  -1    0.20    1.20
   9   2  -1    2.20    1.60
  -9  -2   1    2.50    1.90
  -9  -2   1    2.40    1.60
  -9  -2   1   -1.30    1.70
   8   2  -1   -1.40    1.10
   8   2  -1    1.10    1.40
   8   2  -1    0.40    1.00
   8   2  -1   -1.20    1.20
  -8  -2   1    0.30    1.00
  -8  -2   1   -0.70    1.30
  -8  -2   1   -0.70    1.40
  -8  -2   1    1.00    1.40
  -8  -2   1   -0.50    1.40
  -8  -2   1    0.90    1.10
   7   2  -1    1.80    0.90
   7   2  -1    3.10    1.20
   7   2  -1    3.10    1.30
   7   2  -1    1.10    1.20
   7   2  -1    2.90    1.30
   7   2  -1    2.00    1.10
  -7  -2   1    2.20    0.90
  -7  -2   1    2.20    1.10
  -7  -2   1    3.40    1.10
  -7  -2   1    3.20    1.40
  -7  -2   1    2.40    1.00
  -7  -2   1    0.70    1.30
  -7  -2   1    3.50    1.20
  -7  -2   1    3.80    1.40
   6   2  -1   21.40    2.50
   6   2  -1   19.90    2.00
   6   2  -1   22.80    2.50
   6   2  -1   19.30    2.40
   6   2  -1   19.70    2.00
   6   2  -1   21.40    2.30
  -6  -2   1   18.40    2.50
  -6  -2   1   20.00    2.00
  -6  -2   1   17.90    2.30
  -6  -2   1   16.40    2.30
  -6  -2   1   22.50    2.20
  -6  -2   1   20.30    1.70
  -6  -2   1   16.00    1.80
  -6  -2   1   21.30    2.10
  -6  -2   1   16.00    2.20
   5   2  -1    0.20    0.40
   5   2  -1   -0.20    0.70
   5   2  -1    0.50    0.40
   5   2  -1    0.70    0.70
   5   2  -1    0.80    0.60
   5   2  -1    0.00    0.40
   5   2  -1   -0.40    0.40
  -5  -2   1   -0.20    0.70
  -5  -2   1   -0.10    0.60
  -5  -2   1   -0.30    0.50
  -5  -2   1   -0.10    0.50
  -5  -2   1   -0.30    0.50
  -5  -2   1    0.10    0.60
  -5  -2   1    0.10    0.30
  -5  -2   1   -0.50    0.50
  -5  -2   1   -1.00    0.60
  -5  -2   1   -0.10    0.40
  -5  -2   1    0.00    0.40
  -5  -2   1   -0.30    0.40
   4   2  -1    1.50    0.40
   4   2  -1    0.20    0.40
   4   2  -1    1.50    0.50
   4   2  -1    0.90    0.70
   4   2  -1    1.30    0.50
   4   2  -1    1.10    0.40
  -4  -2   1    0.90    0.50
  -4  -2   1    1.20    0.50
  -4  -2   1   -0.20    0.60
  -4  -2   1    0.10    0.30
  -4  -2   1    0.30    0.40
  -4  -2   1    0.40    0.60
  -4  -2   1    1.10    0.50
  -4  -2   1    1.40    0.50
  -4  -2   1    0.40    0.40
  -4  -2   1    1.60    0.70
  -4  -2   1    1.10    0.40
  -4  -2   1    0.30    0.40
   3   2  -1    3.30    0.60
   3   2  -1    3.10    0.60
   3   2  -1    4.40    0.60
   3   2  -1    4.80    0.90
   3   2  -1    4.30    0.60
  -3  -2   1    4.10    0.60
  -3  -2   1    3.50    0.80
  -3  -2   1    3.80    0.80
  -3  -2   1    4.50    0.60
  -3  -2   1    3.40    0.80
  -3  -2   1    4.60    0.60
  -3  -2   1    3.00    0.60
  -3  -2   1    3.90    0.60
  -3  -2   1    4.80    0.60
  -3  -2   1    4.00    0.60
  -3  -2   1    4.20    0.60
  -3  -2   1    3.50    0.80
   2   2  -1    3.90    0.40
   2   2  -1    4.80    0.50
   2   2  -1    3.30    0.50
   2   2  -1    3.50    0.60
  -2  -2   1    3.60    0.40
  -2  -2   1    2.30    0.50
  -2  -2   1    3.30    0.60
  -2  -2   1    3.70    0.50
  -2  -2   1    3.30    0.40
  -2  -2   1    3.80    0.50
  -2  -2   1    3.70    0.40
  -2  -2   1    3.40    0.40
  -2  -2   1    2.40    0.50
  -2  -2   1    3.40    0.60
   1   2  -1   67.89    3.00
   1   2  -1   68.69    2.60
   1   2  -1   67.19    2.90
   1   2  -1   66.89    3.00
  -1  -2   1   64.89    3.10
  -1  -2   1   71.49    3.00
  -1  -2   1   68.59    3.00
  -1  -2   1   66.99    2.70
  -1  -2   1   67.59    3.10
  -1  -2   1   67.79    3.00
  -1  -2   1   69.89    3.00
   0   2  -1    3.70    0.40
   0   2  -1    2.50    0.20
   0   2  -1    3.70    0.50
   0   2  -1    2.30    0.30
   0  -2   1    3.40    0.40
   0  -2   1    3.50    0.40
   0  -2   1    3.70    0.40
   0  -2   1    3.00    0.30
   0  -2   1    2.60    0.20
  -1   2  -1  593.84   22.80
  -1   2  -1  579.24   22.50
  -1   2  -1  572.24   22.60
  -1   2  -1  590.54   22.60
  -1   2  -1  579.84   22.60
  -1   2  -1  570.54   22.80
   1  -2   1  620.34   22.50
   1  -2   1  597.44   22.70
   1  -2   1  598.94   22.60
   1  -2   1  550.34   22.60
   1  -2   1  621.54   22.60
  -2   2  -1   14.40    1.00
  -2   2  -1   12.60    1.00
  -2   2  -1   13.90    1.00
  -2   2  -1   14.50    1.00
  -2   2  -1   11.80    1.00
  -2   2  -1   16.10    0.60
  -2   2  -1   12.50    1.00
   2  -2   1   14.30    1.00
   2  -2   1   15.20    0.90
   2  -2   1   13.60    1.00
   2  -2   1   14.30    0.60
   2  -2   1   13.50    1.00
  -3   2  -1  222.18   10.00
  -3   2  -1  234.18    9.20
  -3   2  -1  222.28    9.80
  -3   2  -1  248.88    9.80
  -3   2  -1  229.58   10.10
  -3   2  -1  235.88    9.70
  -3   2  -1  249.48    9.80
  -3   2  -1  234.08    9.90
  -3   2  -1  227.88    9.70
   3  -2   1  248.78    9.90
   3  -2   1  247.48    9.20
   3  -2   1  243.78    9.80
   3  -2   1  238.88    9.50
   3  -2   1  240.38    9.60
   3  -2   1  231.48    9.60
  -4   2  -1  951.90   36.80
  -4   2  -1  870.81   36.80
  -4   2  -1  891.21   37.30
  -4   2  -1  883.41   36.80
  -4   2  -1  887.71   36.60
  -4   2  -1  943.71   36.70
  -4   2  -1  923.71   37.20
  -4   2  -1  938.21   36.10
  -4   2  -1  909.41   36.00
  -4   2  -1  934.51   36.80
   4  -2   1 1003.20   36.70
   4  -2   1  972.10   36.90
   4  -2   1 1037.00   36.20
   4  -2   1  952.70   36.90
   4  -2   1  976.30   36.50
   4  -2   1  979.20   36.70
   4  -2   1  979.00   36.10
  -5   2  -1   25.40    2.00
  -5   2  -1   20.90    2.40
  -5   2  -1   21.20    2.20
  -5   2  -1   25.60    2.00
  -5   2  -1   21.40    2.20
  -5   2  -1   21.10    2.20
  -5   2  -1   20.80    2.40
  -5   2  -1   22.40    1.80
   5  -2   1   25.70    1.90
   5  -2   1   26.10    1.90
   5  -2   1   25.70    2.00
   5  -2   1   23.90    1.90
   5  -2   1   23.60    2.00
  -6   2  -1  449.86   19.20
  -6   2  -1  457.55   19.30
  -6   2  -1  435.46   19.30
  -6   2  -1  467.85   20.10
  -6   2  -1  453.85   19.30
  -6   2  -1  468.95   20.20
  -6   2  -1  451.95   19.50
   6  -2   1  487.95   19.50
   6  -2   1  482.75   19.00
   6  -2   1  473.65   19.10
   6  -2   1  494.95   19.20
   6  -2   1  481.05   19.40
  -7   2  -1   -0.20    0.90
  -7   2  -1    1.20    1.10
  -7   2  -1   -1.40    1.10
  -7   2  -1    0.60    1.20
  -7   2  -1   -0.10    0.90
  -7   2  -1    0.10    1.20
  -7   2  -1    0.30    1.00
   7  -2   1   -0.80    1.00
   7  -2   1   -0.90    0.70
   7  -2   1   -1.30    0.90
   7  -2   1    0.60    0.80
   7  -2   1   -0.70    0.90
  -8   2  -1   14.90    2.80
  -8   2  -1   12.70    2.30
  -8   2  -1   12.00    2.30
  -8   2  -1   11.20    2.30
  -8   2  -1    8.80    2.20
  -8   2  -1   14.20    2.20
   8  -2   1   11.00    1.80
   8  -2   1   10.90    2.20
   8  -2   1    8.10    1.80
   8  -2   1   10.20    1.90
  -9   2  -1    7.60    2.70
  -9   2  -1    7.20    2.10
  -9   2  -1    6.10    2.10
  -9   2  -1    6.80    1.90
   9  -2   1    4.30    1.80
   9  -2   1    6.90    1.80
   9   1  -1    0.90    1.30
   9   1  -1   -0.60    1.40
   9   1  -1    0.10    1.40
  -9  -1   1   -0.10    1.70
  -9  -1   1    1.60    2.00
  -9  -1   1    0.50    1.50
  -9  -1   1    0.90    1.10
   8   1  -1    1.00    1.20
   8   1  -1    2.00    1.30
   8   1  -1    1.20    0.90
   8   1  -1    1.90    1.10
   8   1  -1    1.40    1.30
  -8  -1   1    1.30    1.10
  -8  -1   1   -0.10    1.30
  -8  -1   1    2.10    1.20
  -8  -1   1    0.70    1.30
  -8  -1   1   -2.30    1.00
  -8  -1   1    0.00    1.10
  -8  -1   1    1.40    1.40
   7   1  -1    3.40    1.20
   7   1  -1    0.70    1.10
   7   1  -1    4.00    1.40
   7   1  -1    5.20    1.10
   7   1  -1    1.90    1.20
  -7  -1   1    3.70    1.20
  -7  -1   1    4.50    1.20
  -7  -1   1    3.00    1.10
  -7  -1   1    2.40    1.30
  -7  -1   1    2.30    1.10
  -7  -1   1    0.80    1.30
  -7  -1   1    1.80    1.30
  -7  -1   1    3.30    1.10
   6   1  -1   26.40    1.80
   6   1  -1   22.90    2.40
   6   1  -1   20.70    2.30
   6   1  -1   24.20    2.50
   6   1  -1   22.60    1.80
   6   1  -1   21.50    2.40
   6   1  -1   20.90    2.90
   6   1  -1   21.20    1.80
  -6  -1   1   24.70    2.00
  -6  -1   1   24.90    2.10
  -6  -1   1   25.50    2.70
  -6  -1   1   24.50    2.10
  -6  -1   1   23.50    1.80
  -6  -1   1   24.50    2.80
  -6  -1   1   21.90    2.10
  -6  -1   1   24.90    2.00
  -6  -1   1   21.70    2.50
  -6  -1   1   18.60    2.50
  -6  -1   1   22.20    1.80
   5   1  -1    3.40    1.00
   5   1  -1    3.30    1.00
   5   1  -1    4.80    0.90
   5   1  -1    3.90    0.80
   5   1  -1    2.60    0.90
   5   1  -1    2.40    0.70
   5   1  -1    5.10    1.10
  -5  -1   1    4.50    1.00
  -5  -1   1    2.90    1.10
  -5  -1   1    3.60    0.70
  -5  -1   1    3.00    0.90
  -5  -1   1    4.80    0.90
  -5  -1   1    3.60    0.70
  -5  -1   1    4.30    0.90
  -5  -1   1    4.60    0.90
  -5  -1   1    3.10    1.00
  -5  -1   1    5.00    0.90
  -5  -1   1    4.20    1.10
  -5  -1   1    5.80    0.90
   4   1  -1   67.49    3.40
   4   1  -1   74.49    3.80
   4   1  -1   76.09    3.50
   4   1  -1   66.99    3.70
   4   1  -1   72.89    3.80
   4   1  -1   73.09    3.60
  -4  -1   1   72.39    3.60
  -4  -1   1   74.59    3.50
  -4  -1   1   70.89    3.40
  -4  -1   1   70.79    4.00
  -4  -1   1   72.19    3.90
  -4  -1   1   71.19    3.40
  -4  -1   1   75.29    3.50
  -4  -1   1   67.79    3.90
  -4  -1   1   71.49    3.50
  -4  -1   1   74.79    3.80
  -4  -1   1   67.79    3.50
  -4  -1   1   74.09    3.50
   3   1  -1  124.79    5.20
   3   1  -1  112.89    5.00
   3   1  -1  122.69    5.10
   3   1  -1  122.59    5.30
   3   1  -1  118.99    5.10
  -3  -1   1  120.39    5.10
  -3  -1   1  120.19    5.40
  -3  -1   1  120.19    5.10
  -3  -1   1  119.49    5.00
  -3  -1   1  121.19    5.30
  -3  -1   1  113.99    5.00
  -3  -1   1  113.39    5.00
  -3  -1   1  113.89    5.40
  -3  -1   1  119.49    5.00
  -3  -1   1  112.39    5.00
  -3  -1   1  115.69    5.00
  -3  -1   1  112.09    5.40
   2   1  -1  646.34   24.90
   2   1  -1  677.83   25.00
   2   1  -1  678.73   25.10
   2   1  -1  679.73   25.10
  -2  -1   1  662.43   24.90
  -2  -1   1  650.43   24.90
  -2  -1   1  640.94   25.20
  -2  -1   1  662.53   25.00
  -2  -1   1  639.84   24.90
  -2  -1   1  622.14   25.20
  -2  -1   1  646.34   25.00
  -2  -1   1  655.93   25.10
  -2  -1   1  635.84   25.10
  -2  -1   1  613.74   24.90
  -2  -1   1  644.04   24.90
  -2  -1   1  613.54   24.90
   1   1  -1    6.30    0.30
   1   1  -1    5.90    0.30
  -1  -1   1    5.60    0.40
  -1  -1   1    5.30    0.30
  -1  -1   1    5.30    0.50
   0   1  -1 1588.64   59.19
   0   1  -1 1399.86   59.29
   0  -1   1 1668.43   59.39
   0  -1   1 1578.84   59.19
  -1   1  -1    5.30    0.60
  -1   1  -1    5.80    0.50
  -1   1  -1    5.50    0.40
   1  -1   1    4.90    0.40
   1  -1   1    5.60    0.50
  -2   1  -1 9009.90  333.77
  -2   1  -1 9279.37  333.67
  -2   1  -1 9999.00  333.97
  -2   1  -1 7445.66  334.17
  -2   1  -1 8384.56  334.27
  -2   1  -1 8424.26  333.57
   2  -1   1 9064.29  333.57
   2  -1   1 9225.78  333.67
   2  -1   1 8890.31  333.67
   2  -1   1 8171.48  333.67
   2  -1   1 8868.61  333.67
  -3   1  -1    2.00    0.50
  -3   1  -1    1.10    0.50
  -3   1  -1    1.60    0.50
  -3   1  -1    2.20    0.50
  -3   1  -1    0.90    0.30
  -3   1  -1    1.50    0.60
  -3   1  -1    1.60    0.30
  -3   1  -1    1.70    0.50
  -3   1  -1    1.40    0.60
  -3   1  -1    1.60    0.50
  -3   1  -1    2.60    0.60
  -3   1  -1    1.40    0.60
   3  -1   1    1.20    0.40
   3  -1   1    0.50    0.40
   3  -1   1    2.40    0.40
   3  -1   1    2.30    0.40
   3  -1   1    1.40    0.60
   3  -1   1    1.00    0.50
  -4   1  -1  458.85   18.60
  -4   1  -1  448.46   18.50
  -4   1  -1  460.05   19.10
  -4   1  -1  450.85   18.50
  -4   1  -1  464.25   18.00
  -4   1  -1  454.15   18.80
  -4   1  -1  457.95   19.00
  -4   1  -1  472.55   18.70
  -4   1  -1  461.75   18.50
  -4   1  -1  423.96   18.10
  -4   1  -1  456.55   18.40
   4  -1   1  474.35   18.50
   4  -1   1  488.35   18.10
   4  -1   1  489.35   18.00
   4  -1   1  476.75   18.50
   4  -1   1  461.85   18.70
   4  -1   1  454.75   18.70
  -5   1  -1   11.40    1.50
  -5   1  -1   17.90    1.70
  -5   1  -1   13.10    1.90
  -5   1  -1   13.10    1.60
  -5   1  -1   11.80    1.50
  -5   1  -1    9.90    1.10
  -5   1  -1    9.50    1.70
  -5   1  -1   12.20    1.80
  -5   1  -1   13.40    1.60
  -5   1  -1   12.60    1.60
  -5   1  -1   12.40    1.60
   5  -1   1   10.50    1.40
   5  -1   1   11.80    1.60
   5  -1   1   12.10    1.60
   5  -1   1   11.90    1.50
  -6   1  -1   22.50    2.60
  -6   1  -1   23.70    2.40
  -6   1  -1   22.60    2.90
  -6   1  -1   21.80    2.20
  -6   1  -1   24.40    2.90
  -6   1  -1   22.30    2.30
  -6   1  -1   24.30    2.50
  -6   1  -1   21.40    2.30
   6  -1   1   24.20    2.60
   6  -1   1   29.10    2.60
   6  -1   1   23.70    2.70
   6  -1   1   21.80    2.30
  -7   1  -1    1.60    1.10
  -7   1  -1    1.60    1.10
  -7   1  -1    2.00    1.00
  -7   1  -1    1.60    1.40
  -7   1  -1    0.70    1.10
  -7   1  -1    2.10    1.00
  -7   1  -1   -0.10    1.10
   7  -1   1    0.80    0.80
   7  -1   1    1.00    1.10
   7  -1   1    0.90    1.10
   7  -1   1    1.90    1.00
  -8   1  -1   -0.50    0.90
  -8   1  -1    0.00    1.50
  -8   1  -1   -0.10    1.20
  -8   1  -1   -0.30    1.10
  -8   1  -1   -0.40    1.10
  -8   1  -1    0.40    1.50
  -8   1  -1    0.30    1.50
   8  -1   1   -0.40    0.90
   8  -1   1    2.10    1.40
   8  -1   1    1.30    1.40
   8  -1   1   -1.60    1.10
   8  -1   1   -1.60    1.00
  -9   1  -1    0.20    1.60
  -9   1  -1    0.50    1.80
  -9   1  -1    1.50    1.60
   9  -1   1   -0.20    1.20
   9  -1   1   -2.40    1.40
   9   0  -1    0.00    1.10
   9   0  -1   -1.00    1.30
   9   0  -1    0.10    1.00
   9   0  -1   -1.30    0.90
  -9   0   1   -0.50    1.30
  -9   0   1   -0.20    1.60
  -9   0   1   -0.60    1.30
  -9   0   1    0.30    1.40
   8   0  -1    9.10    2.00
   8   0  -1   10.50    1.70
   8   0  -1    8.10    1.90
   8   0  -1    6.70    1.40
   8   0  -1   10.60    2.00
  -8   0   1    7.10    1.80
  -8   0   1    8.10    1.80
  -8   0   1    9.40    2.30
  -8   0   1    7.20    1.50
  -8   0   1   13.20    2.60
  -8   0   1   10.70    1.90
  -8   0   1    8.10    2.20
   7   0  -1    5.40    1.10
   7   0  -1    4.50    1.30
   7   0  -1    7.30    1.60
   7   0  -1    6.40    1.50
   7   0  -1    6.90    1.40
   7   0  -1    6.20    1.30
  -7   0   1    2.80    1.30
  -7   0   1    4.40    1.40
  -7   0   1    6.00    1.70
  -7   0   1    7.20    1.40
  -7   0   1    6.30    1.80
  -7   0   1    5.70    1.40
  -7   0   1    4.10    1.30
  -7   0   1    5.00    1.20
  -7   0   1    5.20    1.20
   6   0  -1    0.20    0.80
   6   0  -1    0.50    0.60
   6   0  -1    1.20    0.60
   6   0  -1   -1.30    0.60
   6   0  -1   -0.50    0.50
   6   0  -1    2.10    0.90
   6   0  -1    0.60    0.60
   6   0  -1    0.50    0.80
   6   0  -1   -0.30    0.60
  -6   0   1    1.10    0.90
  -6   0   1    0.80    0.60
  -6   0   1    0.50    0.60
  -6   0   1   -0.20    0.60
  -6   0   1   -0.40    0.80
  -6   0   1    0.20    0.80
  -6   0   1    0.30    0.80
  -6   0   1    1.10    0.70
  -6   0   1    0.10    0.70
  -6   0   1    0.00    0.80
  -6   0   1    0.30    0.50
  -6   0   1    0.30    0.90
   5   0  -1   74.69    4.10
   5   0  -1   77.99    4.20
   5   0  -1   85.49    3.90
   5   0  -1   87.69    4.00
   5   0  -1   77.99    4.20
   5   0  -1   81.29    4.20
   5   0  -1   80.79    3.90
  -5   0   1   81.09    4.10
  -5   0   1   78.19    4.50
  -5   0   1   83.49    4.40
  -5   0   1   83.69    3.80
  -5   0   1   79.49    3.80
  -5   0   1   84.59    4.30
  -5   0   1   74.79    3.90
  -5   0   1   82.29    4.10
  -5   0   1   73.69    4.20
  -5   0   1   80.49    4.60
  -5   0   1   76.09    4.10
  -5   0   1   81.39    4.00
   4   0  -1   57.49    3.20
   4   0  -1   58.79    3.10
   4   0  -1   60.49    3.00
   4   0  -1   61.49    2.90
   4   0  -1   62.69    3.20
   4   0  -1   57.09    3.10
   4   0  -1   60.59    2.90
  -4   0   1   53.09    3.10
  -4   0   1   59.19    2.80
  -4   0   1   59.99    3.40
  -4   0   1   59.29    3.20
  -4   0   1   61.09    3.20
  -4   0   1   60.49    2.80
  -4   0   1   59.79    3.30
  -4   0   1   59.89    3.00
  -4   0   1   60.29    3.00
  -4   0   1   55.69    3.40
  -4   0   1   54.59    2.90
  -4   0   1   57.69    3.00
   3   0  -1  269.47   10.30
   3   0  -1  266.87   10.10
   3   0  -1  239.58   10.20
   3   0  -1  249.28   10.00
   3   0  -1  254.77   10.20
   3   0  -1  251.67   10.30
  -3   0   1  262.37   10.20
  -3   0   1  250.77   10.10
  -3   0   1  253.27   10.00
  -3   0   1  248.88   10.40
  -3   0   1  249.97   10.10
  -3   0   1  249.58    9.90
  -3   0   1  246.48   10.20
  -3   0   1  250.87   10.10
  -3   0   1  237.08   10.10
  -3   0   1  230.88   10.20
  -3   0   1  247.08   10.40
  -3   0   1  251.47   10.30
   2   0  -1 3605.74  138.59
   2   0  -1 3664.83  138.49
  -2   0   1 3606.34  138.59
  -2   0   1 3681.13  138.69
  -2   0   1 3577.74  138.49
  -2   0   1 3568.84  138.69
  -2   0   1 3578.04  138.59
  -2   0   1 3814.12  138.59
  -2   0   1 3587.24  138.49
  -2   0   1 3533.05  138.49
  -2   0   1 3631.74  138.59
  -2   0   1 3698.63  138.79
  -2   0   1 3717.83  138.79
  -2   0   1 3829.02  138.69
   1   0  -1   42.30    1.70
   1   0  -1   39.20    1.70
  -1   0   1   39.00    1.70
  -1   0   1   37.20    1.70
  -1   0   1   41.10    1.70
   0   0  -1  370.46   14.40
   0   0  -1  398.46   14.40
   0   0  -1  392.16   14.40
   0   0  -1  379.36   14.70
   0   0   1  365.26   14.40
   0   0   1  391.86   14.50
   0   0   1  351.36   14.40
  -1   0  -1  806.82   30.00
  -1   0  -1  743.43   29.70
   1   0   1  821.62   29.70
   1   0   1  741.23   29.80
  -2   0  -1  656.43   26.20
  -2   0  -1  675.93   26.10
  -2   0  -1  662.03   26.40
  -2   0  -1  665.03   26.40
  -2   0  -1  635.14   26.20
  -2   0  -1  676.73   26.20
  -2   0  -1  710.93   26.60
  -2   0  -1  656.63   26.50
  -2   0  -1  669.93   26.10
   2   0   1  655.13   26.40
   2   0   1  714.93   26.10
   2   0   1  729.13   26.10
   2   0   1  689.53   26.30
   2   0   1  683.63   26.40
   2   0   1  703.63   26.40
  -3   0  -1   22.30    1.40
  -3   0  -1   21.20    1.70
  -3   0  -1   20.60    1.60
  -3   0  -1   20.90    1.40
  -3   0  -1   21.10    1.40
  -3   0  -1   20.90    1.60
  -3   0  -1   22.00    1.30
  -3   0  -1   21.90    1.70
  -3   0  -1   21.40    1.30
  -3   0  -1   20.50    1.20
  -3   0  -1   20.80    1.30
   3   0   1   22.90    1.30
   3   0   1   21.80    1.50
   3   0   1   22.50    1.30
   3   0   1   21.60    1.60
   3   0   1   20.40    1.50
   3   0   1   20.90    1.50
  -4   0  -1    4.60    1.00
  -4   0  -1    4.60    0.80
  -4   0  -1    3.30    0.50
  -4   0  -1    3.10    0.80
  -4   0  -1    5.40    1.10
  -4   0  -1    4.60    1.00
  -4   0  -1    3.60    0.60
  -4   0  -1    3.90    0.80
  -4   0  -1    4.20    0.70
  -4   0  -1    4.10    0.70
  -4   0  -1    2.80    0.90
   4   0   1    3.80    0.90
   4   0   1    4.10    0.90
   4   0   1    6.10    1.00
   4   0   1    4.50    0.90
   4   0   1    2.80    0.60
   4   0   1    3.50    0.70
  -5   0  -1    1.70    0.80
  -5   0  -1    2.80    0.80
  -5   0  -1    3.20    0.70
  -5   0  -1    1.20    0.60
  -5   0  -1    2.50    0.90
  -5   0  -1    3.10    0.80
  -5   0  -1   -0.10    0.70
  -5   0  -1    1.70    1.00
  -5   0  -1    1.90    0.60
  -5   0  -1    2.60    1.00
   5   0   1    3.00    1.00
   5   0   1    1.80    0.60
   5   0   1    1.30    0.80
   5   0   1    2.10    0.80
   5   0   1    2.90    0.70
   5   0   1    2.60    1.00
  -6   0  -1    0.70    0.70
  -6   0  -1    1.10    1.10
  -6   0  -1    0.30    1.00
  -6   0  -1    0.00    0.80
  -6   0  -1   -0.10    0.60
  -6   0  -1    0.70    1.10
  -6   0  -1    0.80    0.80
  -6   0  -1    0.60    0.60
   6   0   1    1.10    1.00
   6   0   1    1.40    0.90
   6   0   1    0.30    0.90
   6   0   1    1.20    1.00
  -7   0  -1    0.70    0.90
  -7   0  -1    1.40    0.90
  -7   0  -1   -1.40    1.00
  -7   0  -1   -0.60    0.70
  -7   0  -1    0.80    1.10
  -7   0  -1   -0.80    0.80
  -7   0  -1   -0.10    1.30
  -7   0  -1   -0.80    0.70
   7   0   1    0.00    0.80
   7   0   1    0.00    1.00
   7   0   1   -0.90    1.00
   7   0   1    0.20    0.90
  -8   0  -1    2.20    1.30
  -8   0  -1    3.40    1.50
  -8   0  -1    3.80    1.40
  -8   0  -1    4.30    2.00
  -8   0  -1    3.30    1.60
  -8   0  -1    3.60    2.00
   8   0   1    3.10    1.60
   8   0   1    4.30    1.30
   8   0   1    2.60    1.50
   8   0   1    2.90    1.20
  -9   0  -1   -0.10    1.90
  -9   0  -1    0.90    2.00
  -9   0  -1   -0.40    1.40
  -9   0  -1   -1.60    1.50
   9   0   1    1.50    1.70
   9   0   1   -1.70    1.00
   9   0   1    1.20    1.60
   9  -1  -1    2.50    1.90
   9  -1  -1    4.50    1.40
   9  -1  -1    4.30    1.50
   9  -1  -1    0.80    1.40
  -9   1   1    5.00    1.70
  -9   1   1    1.40    1.90
  -9   1   1    2.50    2.30
  -9   1   1    5.10    1.80
  -9   1   1    2.10    1.60
   8  -1  -1    9.30    1.60
   8  -1  -1    7.20    1.50
   8  -1  -1    6.30    1.70
   8  -1  -1    9.20    1.90
   8  -1  -1    8.50    1.60
  -8   1   1    7.20    1.70
  -8   1   1    6.40    1.90
  -8   1   1    9.20    1.80
  -8   1   1   11.30    2.00
  -8   1   1    8.70    2.30
  -8   1   1    9.00    1.80
   7  -1  -1    7.20    1.50
   7  -1  -1    9.80    1.50
   7  -1  -1    5.80    1.30
   7  -1  -1    9.00    1.50
   7  -1  -1    7.30    1.50
  -7   1   1    8.10    1.50
  -7   1   1    8.20    1.50
  -7   1   1    5.10    1.60
  -7   1   1    7.60    1.80
  -7   1   1    6.00    1.40
  -7   1   1    5.80    1.70
  -7   1   1    7.30    1.60
  -7   1   1    7.90    1.50
   6  -1  -1  204.08    9.60
   6  -1  -1  224.18    9.90
   6  -1  -1  224.88    9.40
   6  -1  -1  215.58    9.50
   6  -1  -1  218.58    9.70
   6  -1  -1  222.08    9.40
  -6   1   1  225.68   10.30
  -6   1   1  204.98   10.10
  -6   1   1  204.78    9.60
  -6   1   1  231.88    9.60
  -6   1   1  224.98    9.70
  -6   1   1  196.28    9.30
  -6   1   1  222.68    9.70
  -6   1   1  210.18    9.80
  -6   1   1  231.38   10.00
  -6   1   1  207.88    9.80
   5  -1  -1   -0.10    0.60
   5  -1  -1    0.70    0.50
   5  -1  -1    0.30    0.60
   5  -1  -1   -0.20    0.60
   5  -1  -1    0.50    0.50
   5  -1  -1    0.40    0.50
   5  -1  -1    0.60    0.60
   5  -1  -1    1.20    0.60
  -5   1   1    0.80    0.60
  -5   1   1    0.70    0.40
  -5   1   1    0.00    0.60
  -5   1   1    0.60    0.60
  -5   1   1    0.70    0.70
  -5   1   1    0.50    0.60
  -5   1   1    0.80    0.70
  -5   1   1   -0.50    0.60
  -5   1   1   -0.40    0.60
  -5   1   1    0.60    0.60
  -5   1   1    1.50    0.60
  -5   1   1    0.90    0.40
   4  -1  -1   20.50    1.50
   4  -1  -1   19.20    1.30
   4  -1  -1   16.90    1.40
   4  -1  -1   15.70    1.30
   4  -1  -1   18.40    1.30
   4  -1  -1   16.30    1.30
   4  -1  -1   16.80    1.30
  -4   1   1   14.50    1.50
  -4   1   1   16.90    1.60
  -4   1   1   15.70    1.70
  -4   1   1   16.80    1.20
  -4   1   1   19.50    1.40
  -4   1   1   18.60    1.10
  -4   1   1   16.90    1.40
  -4   1   1   17.20    1.70
  -4   1   1   14.90    1.50
  -4   1   1   15.10    1.60
  -4   1   1   13.10    1.50
  -4   1   1   14.80    1.50
   3  -1  -1  127.09    5.40
   3  -1  -1  131.69    5.40
   3  -1  -1  125.89    5.50
   3  -1  -1  143.29    5.50
   3  -1  -1  133.69    5.40
   3  -1  -1  126.39    5.50
  -3   1   1  118.89    5.70
  -3   1   1  128.59    5.50
  -3   1   1  125.89    5.50
  -3   1   1  124.59    5.50
  -3   1   1  137.19    5.40
  -3   1   1  124.79    5.70
  -3   1   1  124.69    5.70
  -3   1   1  131.09    5.30
  -3   1   1  130.89    5.50
  -3   1   1  123.49    5.60
  -3   1   1  123.39    5.70
  -3   1   1  135.09    5.30
   2  -1  -1 5213.78  177.18
   2  -1  -1 4600.64  177.08
   2  -1  -1 4013.80  177.08
   2  -1  -1 4439.56  177.18
   2  -1  -1 4466.85  177.08
  -2   1   1 4167.38  177.18
  -2   1   1 4229.58  177.38
  -2   1   1 4460.95  177.18
  -2   1   1 5243.58  177.28
  -2   1   1 4512.45  177.18
  -2   1   1 4150.08  177.48
  -2   1   1 5137.79  177.38
  -2   1   1 5270.37  177.48
  -2   1   1 5148.29  177.38
  -2   1   1 4981.50  177.38
   1  -1  -1  466.15   17.60
   1  -1  -1  460.55   17.50
   1  -1  -1  463.45   17.60
  -1   1   1  448.36   17.60
  -1   1   1  464.25   17.60
  -1   1   1  443.16   17.90
  -1   1   1  461.15   17.80
  -1   1   1  468.95   17.90
  -1   1   1  438.36   17.60
   0  -1  -1  458.35   17.40
   0  -1  -1  441.16   17.30
   0   1   1  460.85   17.50
  -1  -1  -1  128.09    5.30
  -1  -1  -1  122.39    5.00
  -1  -1  -1  127.49    5.30
  -1  -1  -1  122.19    5.10
  -1  -1  -1  130.89    5.40
  -1  -1  -1  125.29    5.30
   1   1   1  117.69    5.20
   1   1   1  132.39    5.30
   1   1   1  132.19    5.20
   1   1   1  129.49    5.20
  -2  -1  -1  231.28    9.50
  -2  -1  -1  235.48    9.80
  -2  -1  -1  237.58    9.40
  -2  -1  -1  242.28    9.90
  -2  -1  -1  220.78    9.50
  -2  -1  -1  233.28    9.40
  -2  -1  -1  241.58    9.90
  -2  -1  -1  238.88    9.80
   2   1   1  237.18    9.70
   2   1   1  238.98    9.50
   2   1   1  250.27    9.80
   2   1   1  249.08    9.60
  -3  -1  -1    0.30    0.30
  -3  -1  -1    0.10    0.30
  -3  -1  -1    0.20    0.30
  -3  -1  -1   -0.20    0.20
  -3  -1  -1    0.20    0.30
  -3  -1  -1   -0.10    0.30
  -3  -1  -1    0.30    0.40
  -3  -1  -1    0.10    0.30
  -3  -1  -1    0.00    0.30
  -3  -1  -1   -0.30    0.30
   3   1   1    0.10    0.30
   3   1   1    0.30    0.40
   3   1   1    1.40    0.50
   3   1   1    0.50    0.40
   3   1   1    0.20    0.30
  -4  -1  -1    5.80    0.90
  -4  -1  -1    5.50    1.20
  -4  -1  -1    5.20    1.20
  -4  -1  -1    5.30    0.90
  -4  -1  -1    5.40    0.80
  -4  -1  -1    4.80    0.80
  -4  -1  -1    3.50    1.00
  -4  -1  -1    5.60    0.60
  -4  -1  -1    5.40    0.80
  -4  -1  -1    5.10    0.90
  -4  -1  -1    4.90    1.10
   4   1   1    4.80    1.00
   4   1   1    4.70    0.80
   4   1   1    6.10    1.10
   4   1   1    5.40    0.60
   4   1   1    6.00    0.80
   4   1   1    4.20    1.10
   4   1   1    4.20    1.00
  -5  -1  -1    4.40    1.20
  -5  -1  -1    7.40    1.50
  -5  -1  -1    6.20    1.10
  -5  -1  -1    6.10    1.40
  -5  -1  -1    7.90    1.10
  -5  -1  -1    6.80    1.20
  -5  -1  -1    5.00    1.30
  -5  -1  -1    5.10    1.00
  -5  -1  -1    5.80    1.10
   5   1   1    5.30    1.20
   5   1   1    6.20    1.00
   5   1   1    7.10    1.30
   5   1   1    4.60    0.90
   5   1   1    6.20    1.30
   5   1   1    5.00    1.20
  -6  -1  -1    6.40    1.60
  -6  -1  -1    4.00    1.00
  -6  -1  -1    2.40    0.90
  -6  -1  -1    4.50    1.30
  -6  -1  -1    2.20    1.10
  -6  -1  -1    3.80    1.40
  -6  -1  -1    3.40    1.00
  -6  -1  -1    2.30    0.80
   6   1   1    1.00    1.00
   6   1   1    2.40    1.20
   6   1   1    4.20    1.30
   6   1   1    4.00    0.90
   6   1   1    4.30    1.20
  -7  -1  -1    0.50    1.10
  -7  -1  -1   -0.40    0.80
  -7  -1  -1    1.30    0.90
  -7  -1  -1    0.40    1.20
  -7  -1  -1   -0.30    1.00
  -7  -1  -1   -1.70    0.80
  -7  -1  -1    0.70    1.30
   7   1   1    0.20    1.10
   7   1   1   -0.50    0.80
   7   1   1    0.70    1.00
   7   1   1    1.10    1.20
  -8  -1  -1    0.40    1.10
  -8  -1  -1   -1.40    1.50
  -8  -1  -1   -0.20    1.50
  -8  -1  -1    0.90    1.00
  -8  -1  -1    3.30    1.50
  -8  -1  -1    1.70    1.70
   8   1   1    2.50    1.40
   8   1   1    0.30    1.10
   8   1   1    0.60    1.30
   8   1   1    1.40    1.20
  -9  -1  -1    0.80    2.20
  -9  -1  -1    0.10    1.50
  -9  -1  -1    4.10    2.50
  -9  -1  -1    3.90    1.80
   9   1   1    0.20    1.60
   9   1   1    0.00    1.60
   9  -2  -1    3.80    1.70
   9  -2  -1    2.90    1.30
   9  -2  -1    7.60    1.70
  -9   2   1    1.40    2.00
  -9   2   1    3.20    1.70
  -9   2   1    6.90    1.90
  -9   2   1    3.30    1.70
   8  -2  -1    3.30    1.20
   8  -2  -1    5.40    1.30
   8  -2  -1    4.40    1.10
   8  -2  -1    5.60    1.50
   8  -2  -1    3.20    1.30
  -8   2   1    5.40    1.80
  -8   2   1    1.80    1.30
  -8   2   1    3.50    1.60
  -8   2   1    3.80    1.40
  -8   2   1    3.50    1.50
  -8   2   1    2.80    1.30
   7  -2  -1   17.90    2.10
   7  -2  -1   16.40    2.10
   7  -2  -1   21.40    2.40
   7  -2  -1   19.20    2.10
   7  -2  -1   18.50    2.00
  -7   2   1   21.70    2.40
  -7   2   1   21.00    2.40
  -7   2   1   22.70    2.60
  -7   2   1   18.90    2.60
  -7   2   1   19.30    2.50
  -7   2   1   22.10    2.80
  -7   2   1   20.00    2.60
   6  -2  -1  154.18    7.10
   6  -2  -1  158.18    6.80
   6  -2  -1  148.19    6.80
   6  -2  -1  151.68    7.00
   6  -2  -1  150.38    6.80
   6  -2  -1  146.99    6.70
  -6   2   1  146.29    7.10
  -6   2   1  152.08    7.40
  -6   2   1  155.78    7.10
  -6   2   1  140.39    7.50
  -6   2   1  137.99    6.90
  -6   2   1  143.29    7.40
  -6   2   1  148.09    7.40
  -6   2   1  146.39    7.10
  -6   2   1  144.39    7.10
   5  -2  -1    0.60    0.40
   5  -2  -1    0.20    0.60
   5  -2  -1    0.30    0.50
   5  -2  -1    1.40    0.50
   5  -2  -1   -0.30    0.40
   5  -2  -1    0.30    0.50
   5  -2  -1    1.40    0.70
  -5   2   1    0.20    0.40
  -5   2   1    0.00    0.50
  -5   2   1    0.00    0.60
  -5   2   1   -0.10    0.60
  -5   2   1    0.10    0.70
  -5   2   1   -0.40    0.70
  -5   2   1    0.80    0.40
  -5   2   1    0.50    0.60
  -5   2   1   -0.30    0.40
  -5   2   1    0.30    0.60
  -5   2   1   -0.30    0.60
  -5   2   1   -0.50    0.50
   4  -2  -1  560.84   20.80
   4  -2  -1  550.14   21.00
   4  -2  -1  532.75   21.00
   4  -2  -1  524.95   21.00
   4  -2  -1  535.15   21.00
   4  -2  -1  552.04   21.10
   4  -2  -1  541.65   20.90
  -4   2   1  548.55   20.90
  -4   2   1  511.15   21.40
  -4   2   1  544.75   21.20
  -4   2   1  501.15   21.30
  -4   2   1  534.85   20.80
  -4   2   1  543.45   21.20
  -4   2   1  540.35   20.70
  -4   2   1  534.05   21.10
  -4   2   1  525.65   21.20
  -4   2   1  499.45   21.40
  -4   2   1  515.45   21.40
   3  -2  -1    2.20    0.50
   3  -2  -1    2.20    0.50
   3  -2  -1    2.80    0.50
   3  -2  -1    2.30    0.50
   3  -2  -1    3.90    0.50
   3  -2  -1    2.20    0.50
  -3   2   1    2.60    0.40
  -3   2   1    2.50    0.60
  -3   2   1    1.70    0.60
  -3   2   1    3.60    0.60
  -3   2   1    2.90    0.60
  -3   2   1    2.70    0.50
  -3   2   1    1.80    0.60
  -3   2   1    2.70    0.40
  -3   2   1    1.80    0.60
  -3   2   1    2.60    0.60
   2  -2  -1  510.05   19.20
   2  -2  -1  511.65   19.20
   2  -2  -1  490.95   19.10
   2  -2  -1  489.65   19.20
   2  -2  -1  494.05   19.30
  -2   2   1  501.35   19.50
  -2   2   1  478.95   19.30
  -2   2   1  512.95   19.30
  -2   2   1  480.95   19.10
  -2   2   1  491.25   19.50
  -2   2   1  517.25   19.40
  -2   2   1  485.55   19.50
  -2   2   1  481.05   19.10
   1  -2  -1   87.79    3.80
   1  -2  -1   95.79    3.80
   1  -2  -1  101.29    3.80
   1  -2  -1   89.49    3.80
  -1   2   1   93.99    4.10
  -1   2   1   89.09    3.80
  -1   2   1   92.29    3.90
  -1   2   1   87.99    4.00
  -1   2   1   88.49    3.80
  -1   2   1   89.29    3.90
   0  -2  -1  126.79    5.20
   0  -2  -1  123.09    5.00
   0  -2  -1  127.89    5.20
   0  -2  -1  130.79    5.30
   0  -2  -1  122.09    5.00
   0  -2  -1  123.39    5.10
   0   2   1  123.99    5.30
   0   2   1  122.69    5.20
   0   2   1  132.49    5.20
   0   2   1  122.29    5.20
  -1  -2  -1   58.09    2.50
  -1  -2  -1   60.19    2.90
  -1  -2  -1   59.59    2.50
  -1  -2  -1   58.19    2.80
  -1  -2  -1   58.49    2.80
  -1  -2  -1   54.09    2.60
  -1  -2  -1   55.19    2.80
   1   2   1   59.29    2.70
   1   2   1   61.89    2.80
   1   2   1   58.19    2.80
   1   2   1   53.99    2.70
  -2  -2  -1  303.17   12.10
  -2  -2  -1  279.67   11.40
  -2  -2  -1  296.97   12.00
  -2  -2  -1  282.17   11.50
  -2  -2  -1  280.07   11.40
  -2  -2  -1  291.17   11.90
  -2  -2  -1  296.57   11.90
   2   2   1  274.27   11.80
   2   2   1  294.37   11.90
   2   2   1  289.57   11.70
   2   2   1  304.87   11.70
  -3  -2  -1  111.69    4.90
  -3  -2  -1  100.99    5.00
  -3  -2  -1  114.69    4.80
  -3  -2  -1  115.79    5.60
  -3  -2  -1  118.99    5.50
  -3  -2  -1  106.79    4.90
  -3  -2  -1  105.29    5.30
  -3  -2  -1  107.09    5.50
  -3  -2  -1  112.39    4.70
   3   2   1  112.89    5.30
   3   2   1  113.29    5.00
   3   2   1  111.79    5.00
   3   2   1  115.89    5.40
   3   2   1  112.69    4.50
  -4  -2  -1   20.10    2.20
  -4  -2  -1   18.40    2.00
  -4  -2  -1   18.60    1.60
  -4  -2  -1   19.30    1.50
  -4  -2  -1   21.90    1.60
  -4  -2  -1   22.50    2.40
  -4  -2  -1   21.50    2.30
  -4  -2  -1   19.80    1.40
  -4  -2  -1   22.20    1.50
   4   2   1   21.60    1.60
   4   2   1   21.70    1.60
   4   2   1   21.80    2.10
   4   2   1   21.80    2.10
  -5  -2  -1   -0.40    0.40
  -5  -2  -1   -0.10    0.80
  -5  -2  -1    0.20    0.50
  -5  -2  -1    0.20    0.50
  -5  -2  -1   -0.60    0.60
  -5  -2  -1   -0.60    0.80
  -5  -2  -1   -0.20    0.50
  -5  -2  -1   -0.60    0.40
  -5  -2  -1    0.20    0.80
   5   2   1    1.10    0.90
   5   2   1   -0.20    0.60
   5   2   1   -1.20    0.60
   5   2   1    0.20    0.60
   5   2   1    0.00    0.60
   5   2   1   -0.60    0.50
  -6  -2  -1   -0.30    0.60
  -6  -2  -1   -0.30    1.00
  -6  -2  -1   -0.10    1.00
  -6  -2  -1   -0.20    1.10
  -6  -2  -1   -0.10    0.70
  -6  -2  -1    0.40    0.70
  -6  -2  -1    0.70    1.00
   6   2   1    0.10    1.00
   6   2   1    0.60    0.90
   6   2   1    0.60    0.80
   6   2   1    0.10    1.00
   6   2   1   -0.20    0.60
   6   2   1   -0.20    0.80
  -7  -2  -1    0.80    1.30
  -7  -2  -1    1.10    0.90
  -7  -2  -1    1.20    1.10
  -7  -2  -1   -0.20    1.40
  -7  -2  -1    0.40    1.40
  -7  -2  -1    1.60    1.00
  -7  -2  -1    0.40    1.40
   7   2   1    0.90    1.10
   7   2   1    0.90    1.20
   7   2   1    0.60    1.20
   7   2   1    0.50    1.20
  -8  -2  -1    0.80    1.60
  -8  -2  -1    0.50    1.40
  -8  -2  -1    1.90    2.10
  -8  -2  -1    1.00    1.10
  -8  -2  -1    3.50    1.80
  -8  -2  -1   -1.30    1.60
  -8  -2  -1    0.80    1.10
   8   2   1   -0.80    0.70
   8   2   1    2.20    2.00
   8   2   1    3.30    1.60
   8   2   1    0.00    1.50
  -9  -2  -1   -0.50    2.30
  -9  -2  -1    1.70    1.80
  -9  -2  -1    0.10    1.80
   9   2   1    1.70    1.70
   9   2   1   -1.00    1.40
   9  -3  -1   -0.50    1.00
   9  -3  -1    1.90    1.30
  -9   3   1    0.30    1.20
  -9   3   1    1.40    1.60
  -9   3   1    1.40    1.70
  -9   3   1    2.50    1.50
   8  -3  -1    3.90    1.30
   8  -3  -1    1.50    1.10
   8  -3  -1    3.60    1.40
   8  -3  -1    4.20    1.10
   8  -3  -1    4.40    1.30
  -8   3   1    6.50    1.90
  -8   3   1    1.80    1.40
  -8   3   1    4.30    1.50
  -8   3   1    5.40    1.80
  -8   3   1    3.90    1.60
   7  -3  -1    9.10    1.40
   7  -3  -1    5.90    1.40
   7  -3  -1    4.60    1.20
   7  -3  -1    5.40    1.30
   7  -3  -1    5.20    1.20
  -7   3   1    4.90    1.40
  -7   3   1    7.90    1.50
  -7   3   1    6.00    1.40
  -7   3   1    3.20    1.10
  -7   3   1    6.10    1.40
  -7   3   1    5.30    1.40
   6  -3  -1   25.10    2.10
   6  -3  -1   30.20    2.20
   6  -3  -1   25.20    2.00
   6  -3  -1   22.90    2.20
   6  -3  -1   25.70    2.00
  -6   3   1   24.00    2.40
  -6   3   1   23.00    2.40
  -6   3   1   24.50    2.70
  -6   3   1   26.50    2.20
  -6   3   1   19.80    2.30
  -6   3   1   23.20    2.60
   5  -3  -1   24.40    1.80
   5  -3  -1   24.60    1.80
   5  -3  -1   23.80    1.80
   5  -3  -1   25.20    1.80
   5  -3  -1   27.90    1.80
  -5   3   1   25.20    2.00
  -5   3   1   25.30    1.90
  -5   3   1   25.10    2.10
  -5   3   1   22.30    2.30
  -5   3   1   21.80    1.90
  -5   3   1   21.80    2.30
   4  -3  -1  573.54   21.80
   4  -3  -1  548.05   21.90
   4  -3  -1  583.64   21.90
   4  -3  -1  550.74   21.50
   4  -3  -1  557.04   21.90
   4  -3  -1  555.14   21.90
  -4   3   1  520.65   22.40
  -4   3   1  548.85   21.60
  -4   3   1  565.04   22.10
  -4   3   1  536.45   22.30
  -4   3   1  554.74   22.10
  -4   3   1  552.04   22.40
  -4   3   1  565.94   22.10
   3  -3  -1   44.80    2.30
   3  -3  -1   41.60    2.30
   3  -3  -1   44.40    2.30
   3  -3  -1   45.00    2.00
   3  -3  -1   45.10    2.30
   3  -3  -1   44.20    2.10
  -3   3   1   42.80    2.50
  -3   3   1   41.80    2.10
  -3   3   1   45.10    2.40
  -3   3   1   41.40    2.60
  -3   3   1   45.50    2.40
  -3   3   1   41.00    2.40
  -3   3   1   42.10    2.60
  -3   3   1   44.20    2.00
   2  -3  -1   79.09    3.60
   2  -3  -1   78.99    3.60
   2  -3  -1   85.49    3.50
   2  -3  -1   83.39    3.40
   2  -3  -1   81.69    3.50
  -2   3   1   78.89    3.80
  -2   3   1   78.39    3.70
  -2   3   1   75.09    3.50
  -2   3   1   84.69    3.70
  -2   3   1   74.59    3.90
  -2   3   1   81.99    3.90
  -2   3   1   80.59    3.40
   1  -3  -1  190.78    8.10
   1  -3  -1  192.58    8.10
   1  -3  -1  203.58    8.10
   1  -3  -1  214.38    8.20
   1  -3  -1  216.18    8.10
  -1   3   1  191.98    8.20
  -1   3   1  204.88    8.50
  -1   3   1  207.28    8.20
  -1   3   1  201.48    8.20
  -1   3   1  201.48    8.40
  -1   3   1  201.28    8.30
   0  -3  -1  618.94   23.50
   0  -3  -1  622.44   23.80
   0  -3  -1  626.54   23.70
   0  -3  -1  611.74   23.60
   0  -3  -1  617.24   23.70
   0  -3  -1  615.94   23.80
   0  -3  -1  614.64   23.50
   0   3   1  577.24   23.90
   0   3   1  628.64   23.90
   0   3   1  597.64   23.60
   0   3   1  600.84   23.70
   0   3   1  603.54   23.80
  -1  -3  -1  100.29    4.60
  -1  -3  -1   95.99    4.50
  -1  -3  -1   96.79    4.10
  -1  -3  -1   96.59    4.20
  -1  -3  -1  103.79    4.60
  -1  -3  -1  101.19    4.10
  -1  -3  -1   94.09    4.50
   1   3   1   94.59    4.40
   1   3   1   97.59    4.50
   1   3   1  105.99    4.60
   1   3   1  102.79    4.30
  -2  -3  -1  497.25   19.90
  -2  -3  -1  502.45   19.20
  -2  -3  -1  496.75   19.90
  -2  -3  -1  498.35   20.00
  -2  -3  -1  491.45   19.40
  -2  -3  -1  496.65   19.20
  -2  -3  -1  493.25   19.80
   2   3   1  497.45   19.70
   2   3   1  494.15   19.80
   2   3   1  510.05   19.60
   2   3   1  495.25   19.30
   2   3   1  466.65   19.70
  -3  -3  -1   51.49    3.30
  -3  -3  -1   57.39    2.50
  -3  -3  -1   54.39    2.70
  -3  -3  -1   51.29    3.20
  -3  -3  -1   51.09    3.30
  -3  -3  -1   50.49    2.80
  -3  -3  -1   52.29    3.20
  -3  -3  -1   57.89    2.70
   3   3   1   54.69    3.20
   3   3   1   56.99    2.60
   3   3   1   55.29    3.00
   3   3   1   51.09    3.20
   3   3   1   59.69    3.10
  -4  -3  -1  224.68   10.50
  -4  -3  -1  238.18    9.70
  -4  -3  -1  234.78    9.70
  -4  -3  -1  230.58    9.80
  -4  -3  -1  228.08   10.50
  -4  -3  -1  238.68   10.70
  -4  -3  -1  238.28   10.70
   4   3   1  226.88   10.30
   4   3   1  229.08    9.90
   4   3   1  234.08   10.00
   4   3   1  227.48   10.30
  -5  -3  -1   69.99    3.90
  -5  -3  -1   77.19    3.80
  -5  -3  -1   67.99    4.40
  -5  -3  -1   77.29    3.90
  -5  -3  -1   70.49    4.50
  -5  -3  -1   73.69    4.80
  -5  -3  -1   68.69    4.60
   5   3   1   74.59    4.00
   5   3   1   68.69    4.40
   5   3   1   71.19    4.30
   5   3   1   64.79    4.20
   5   3   1   70.99    4.00
  -6  -3  -1   10.80    2.20
  -6  -3  -1   10.20    1.60
  -6  -3  -1   10.20    1.40
  -6  -3  -1   12.30    2.30
  -6  -3  -1   12.20    1.70
  -6  -3  -1    7.00    1.90
  -6  -3  -1   11.40    2.00
   6   3   1   10.00    2.00
   6   3   1    9.00    1.80
   6   3   1    8.20    1.70
   6   3   1    8.30    1.40
   6   3   1    8.30    1.80
   6   3   1    8.40    1.50
  -7  -3  -1    4.30    1.70
  -7  -3  -1    2.50    1.50
  -7  -3  -1    3.50    1.30
  -7  -3  -1    0.90    1.10
  -7  -3  -1    0.70    1.50
  -7  -3  -1    0.30    1.00
  -7  -3  -1    2.10    1.10
   7   3   1    2.30    1.20
   7   3   1    1.90    1.50
   7   3   1    2.00    1.20
   7   3   1    1.50    1.20
   7   3   1    2.40    1.20
  -8  -3  -1    0.80    1.80
  -8  -3  -1   -1.10    1.10
  -8  -3  -1    1.20    1.50
  -8  -3  -1   -1.80    1.80
   8   3   1   -0.30    1.40
   8   3   1    1.10    1.40
   8   3   1    1.40    1.50
   9  -4  -1    0.80    1.20
   9  -4  -1    0.40    1.10
  -9   4   1    0.40    1.50
  -9   4   1   -0.10    1.40
  -9   4   1    0.00    1.60
  -9   4   1   -3.60    1.40
   8  -4  -1    5.90    1.50
   8  -4  -1    3.30    1.20
   8  -4  -1    6.00    1.50
   8  -4  -1    4.60    1.40
  -8   4   1    6.00    1.70
  -8   4   1    4.80    1.80
  -8   4   1    3.90    1.70
  -8   4   1    6.70    2.00
  -8   4   1    5.40    1.60
   7  -4  -1   10.90    1.80
   7  -4  -1   13.40    1.80
   7  -4  -1   12.20    1.80
   7  -4  -1   13.00    1.80
   7  -4  -1   11.20    1.60
  -7   4   1   12.10    1.90
  -7   4   1   10.90    1.90
  -7   4   1    9.70    1.90
  -7   4   1    9.90    2.00
  -7   4   1   10.10    1.80
  -7   4   1   13.50    2.30
   6  -4  -1   35.70    2.40
   6  -4  -1   32.30    2.40
   6  -4  -1   31.50    2.30
   6  -4  -1   32.20    2.40
   6  -4  -1   33.70    2.40
  -6   4   1   27.40    3.00
  -6   4   1   34.50    2.70
  -6   4   1   32.40    2.70
  -6   4   1   31.60    3.20
  -6   4   1   34.40    2.70
  -6   4   1   34.10    2.80
   5  -4  -1   47.70    2.70
   5  -4  -1   53.39    2.90
   5  -4  -1   50.59    3.00
   5  -4  -1   54.79    3.00
   5  -4  -1   54.09    3.00
  -5   4   1   48.60    3.30
  -5   4   1   49.30    3.10
  -5   4   1   46.70    3.40
  -5   4   1   48.00    3.10
  -5   4   1   48.70    3.10
  -5   4   1   52.29    3.40
   4  -4  -1   26.60    1.60
   4  -4  -1   27.00    1.80
   4  -4  -1   27.70    1.80
   4  -4  -1   27.80    1.80
   4  -4  -1   28.80    1.80
  -4   4   1   24.50    1.90
  -4   4   1   22.40    2.30
  -4   4   1   22.70    1.90
  -4   4   1   29.80    2.00
  -4   4   1   25.20    1.90
  -4   4   1   24.90    1.50
  -4   4   1   24.70    2.10
   3  -4  -1   58.29    3.00
   3  -4  -1   65.29    2.90
   3  -4  -1   66.79    3.00
   3  -4  -1   64.19    3.00
   3  -4  -1   63.99    3.10
  -3   4   1   59.79    3.40
  -3   4   1   61.89    3.60
  -3   4   1   62.49    3.20
  -3   4   1   58.99    2.80
  -3   4   1   60.29    3.50
  -3   4   1   64.39    3.20
  -3   4   1   58.59    2.90
  -3   4   1   62.79    3.20
   2  -4  -1   44.10    2.40
   2  -4  -1   43.70    2.40
   2  -4  -1   52.99    2.40
   2  -4  -1   48.80    2.40
   2  -4  -1   50.59    2.30
  -2   4   1   48.60    2.50
  -2   4   1   50.39    2.80
  -2   4   1   51.69    2.90
  -2   4   1   51.79    2.50
  -2   4   1   50.29    2.60
  -2   4   1   46.90    2.40
  -2   4   1   45.90    2.60
   1  -4  -1  100.79    4.40
   1  -4  -1  109.49    4.60
   1  -4  -1  100.89    4.50
   1  -4  -1  100.59    4.30
   1  -4  -1  112.09    4.60
   1  -4  -1  100.39    4.50
  -1   4   1   98.39    4.60
  -1   4   1  104.39    4.80
  -1   4   1  104.49    4.40
  -1   4   1  104.49    4.70
  -1   4   1  107.99    4.60
  -1   4   1  113.39    5.00
  -1   4   1  107.79    4.80
   0  -4  -1 2133.69   78.29
   0  -4  -1 2055.39   77.79
   0  -4  -1 2067.59   77.79
   0  -4  -1 2045.10   77.89
   0  -4  -1 2035.60   77.99
   0  -4  -1 2082.69   78.09
   0  -4  -1 2088.09   78.19
   0  -4  -1 1874.81   77.69
   0   4   1 2048.30   77.99
   0   4   1 1951.60   77.69
   0   4   1 2166.08   78.29
   0   4   1 2021.80   78.29
   0   4   1 2019.80   78.19
   0   4   1 2012.80   78.09
  -1  -4  -1  551.84   21.90
  -1  -4  -1  568.84   22.30
  -1  -4  -1  570.54   21.70
  -1  -4  -1  570.84   21.70
  -1  -4  -1  568.24   22.40
  -1  -4  -1  562.54   22.30
  -1  -4  -1  555.04   22.20
   1   4   1  565.24   22.30
   1   4   1  523.35   22.10
   1   4   1  596.04   22.10
   1   4   1  555.64   21.70
   1   4   1  550.34   22.20
  -2  -4  -1  666.93   26.40
  -2  -4  -1  669.63   26.90
  -2  -4  -1  696.33   26.80
  -2  -4  -1  658.23   26.10
  -2  -4  -1  690.83   26.10
  -2  -4  -1  675.23   27.00
  -2  -4  -1  662.73   26.90
   2   4   1  691.53   26.70
   2   4   1  695.13   26.30
   2   4   1  645.84   26.80
   2   4   1  678.53   26.70
  -3  -4  -1  106.19    5.70
  -3  -4  -1  113.69    4.80
  -3  -4  -1  107.09    5.50
  -3  -4  -1  111.59    4.80
  -3  -4  -1  105.69    5.00
  -3  -4  -1  116.89    5.60
  -3  -4  -1  106.79    5.60
   3   4   1  102.79    5.40
   3   4   1  112.39    4.80
   3   4   1  105.59    5.20
   3   4   1   98.59    5.40
   3   4   1  109.99    5.30
  -4  -4  -1    1.70    1.00
  -4  -4  -1    1.60    0.60
  -4  -4  -1    0.70    0.80
  -4  -4  -1    2.90    1.00
  -4  -4  -1    1.80    0.80
  -4  -4  -1    2.60    0.80
  -4  -4  -1    2.60    0.60
   4   4   1    2.20    0.90
   4   4   1    1.60    0.80
   4   4   1    0.20    0.90
   4   4   1    2.00    1.00
  -5  -4  -1    2.40    1.20
  -5  -4  -1   -0.10    0.90
  -5  -4  -1    1.90    0.90
  -5  -4  -1    4.40    0.90
  -5  -4  -1    0.70    0.90
  -5  -4  -1    2.90    0.90
  -5  -4  -1    1.30    1.10
   5   4   1    1.50    1.10
   5   4   1    0.70    0.90
   5   4   1    6.30    1.40
   5   4   1    4.20    1.20
  -6  -4  -1    0.60    1.20
  -6  -4  -1    3.10    0.90
  -6  -4  -1    1.40    1.10
  -6  -4  -1    3.40    1.60
  -6  -4  -1    2.50    1.10
  -6  -4  -1    2.80    1.40
  -6  -4  -1    2.90    1.10
   6   4   1    2.50    1.40
   6   4   1    2.00    1.10
   6   4   1    1.30    0.80
   6   4   1    3.10    1.20
   6   4   1    2.40    1.20
  -7  -4  -1   -0.40    1.10
  -7  -4  -1    0.60    1.30
  -7  -4  -1    0.20    1.60
  -7  -4  -1    1.70    1.50
  -7  -4  -1    0.90    1.80
   7   4   1   -0.80    1.10
   7   4   1   -0.10    1.30
   7   4   1    1.20    1.30
   7   4   1    1.50    1.30
   7   4   1    3.30    1.60
  -8  -4  -1   -0.40    1.40
  -8  -4  -1   -0.60    1.70
  -8  -4  -1    0.00    1.50
  -8  -4  -1   -0.80    2.00
   8   4   1    2.60    1.70
   8   4   1   -2.50    1.30
   8   4   1    1.80    1.40
   9  -5  -1    0.50    1.10
   9  -5  -1    0.30    1.20
  -9   5   1    1.60    1.70
  -9   5   1    1.10    1.50
  -9   5   1   -0.80    1.50
  -9   5   1    1.00    1.70
   8  -5  -1    2.10    1.20
   8  -5  -1   -0.30    0.90
   8  -5  -1    1.30    1.10
  -8   5   1   -1.10    1.50
  -8   5   1    0.80    1.10
  -8   5   1    0.50    1.20
  -8   5   1    0.10    1.30
   7  -5  -1    7.60    1.40
   7  -5  -1    5.70    1.30
   7  -5  -1    6.70    1.40
   7  -5  -1    6.40    1.30
  -7   5   1    7.80    1.80
  -7   5   1    5.60    1.60
  -7   5   1    9.30    1.80
  -7   5   1    6.20    1.50
  -7   5   1    5.80    1.50
  -7   5   1    4.50    1.70
   6  -5  -1    4.50    1.10
   6  -5  -1    4.30    1.10
   6  -5  -1    3.80    1.00
   6  -5  -1    2.80    1.00
   6  -5  -1    4.60    1.00
  -6   5   1    5.60    1.30
  -6   5   1    3.60    1.00
  -6   5   1    6.20    1.40
  -6   5   1    3.30    1.40
  -6   5   1    6.00    1.60
  -6   5   1    4.40    1.10
   5  -5  -1   39.00    2.50
   5  -5  -1   40.70    2.70
   5  -5  -1   39.10    2.60
   5  -5  -1   43.50    2.40
   5  -5  -1   45.70    2.70
  -5   5   1   37.00    2.90
  -5   5   1   43.80    2.90
  -5   5   1   42.20    3.10
  -5   5   1   45.20    2.90
  -5   5   1   40.10    3.20
  -5   5   1   44.80    2.90
   4  -5  -1   17.50    1.60
   4  -5  -1   19.20    1.60
   4  -5  -1   18.80    1.30
   4  -5  -1   19.30    1.50
   4  -5  -1   18.70    1.50
  -4   5   1   20.40    1.90
  -4   5   1   14.10    1.80
  -4   5   1   21.00    1.70
  -4   5   1   16.60    1.30
  -4   5   1   14.80    1.90
  -4   5   1   20.60    1.70
  -4   5   1   18.30    2.10
   3  -5  -1  122.49    5.20
   3  -5  -1  116.49    5.20
   3  -5  -1  112.99    5.20
   3  -5  -1  108.49    5.30
   3  -5  -1  128.79    5.10
  -3   5   1  117.39    5.60
  -3   5   1  112.29    5.20
  -3   5   1  123.49    5.50
  -3   5   1  116.39    5.80
  -3   5   1  114.59    5.00
  -3   5   1  112.29    5.90
  -3   5   1  122.09    5.40
   2  -5  -1  427.16   15.90
   2  -5  -1  380.76   15.80
   2  -5  -1  405.26   15.50
   2  -5  -1  378.26   15.70
   2  -5  -1  411.66   15.70
   2  -5  -1  376.56   15.70
  -2   5   1  386.66   15.80
  -2   5   1  411.46   16.10
  -2   5   1  390.36   16.30
  -2   5   1  402.46   15.90
  -2   5   1  419.66   16.60
  -2   5   1  390.56   16.10
   1  -5  -1  130.99    5.30
   1  -5  -1  128.29    5.60
   1  -5  -1  125.39    5.40
   1  -5  -1  123.79    5.30
   1  -5  -1  122.49    5.50
   1  -5  -1  122.69    5.30
  -1   5   1  124.09    5.80
  -1   5   1  135.29    6.00
  -1   5   1  121.49    5.50
  -1   5   1  125.49    5.40
  -1   5   1  119.59    5.70
  -1   5   1  130.99    5.70
   0  -5  -1   31.90    1.70
   0  -5  -1   37.60    2.00
   0  -5  -1   32.30    2.00
   0  -5  -1   32.60    1.90
   0  -5  -1   33.80    1.70
   0  -5  -1   34.30    1.70
   0  -5  -1   33.30    2.20
   0  -5  -1   32.70    2.10
   0   5   1   32.80    1.90
   0   5   1   34.90    2.30
   0   5   1   31.30    2.10
   0   5   1   31.70    2.00
   0   5   1   31.00    1.70
   0   5   1   34.60    2.20
  -1  -5  -1   60.89    3.40
  -1  -5  -1   59.09    2.70
  -1  -5  -1   54.09    3.20
  -1  -5  -1   52.19    2.90
  -1  -5  -1   56.39    3.20
  -1  -5  -1   63.59    3.20
  -1  -5  -1   56.99    2.60
   1   5   1   59.19    3.20
   1   5   1   60.89    3.30
   1   5   1   56.59    2.70
   1   5   1   58.99    3.30
   1   5   1   58.99    3.10
  -2  -5  -1   45.60    3.00
  -2  -5  -1   51.49    3.00
  -2  -5  -1   48.70    3.00
  -2  -5  -1   47.90    2.30
  -2  -5  -1   51.19    2.70
  -2  -5  -1   47.50    2.30
  -2  -5  -1   48.70    3.20
   2   5   1   41.20    2.90
   2   5   1   47.60    2.90
   2   5   1   54.29    2.80
   2   5   1   44.90    2.90
  -3  -5  -1   18.00    1.30
  -3  -5  -1   15.00    2.00
  -3  -5  -1   21.00    2.20
  -3  -5  -1   18.20    1.70
  -3  -5  -1   18.30    2.10
  -3  -5  -1   18.90    1.30
  -3  -5  -1   15.60    2.00
   3   5   1   16.80    2.00
   3   5   1   20.50    2.20
   3   5   1   17.20    1.90
   3   5   1   16.20    1.80
   3   5   1   17.50    1.40
  -4  -5  -1   15.90    1.70
  -4  -5  -1    8.50    1.70
  -4  -5  -1   14.40    1.40
  -4  -5  -1   13.00    2.00
  -4  -5  -1   14.50    1.40
  -4  -5  -1   13.40    2.10
  -4  -5  -1   11.50    1.90
   4   5   1   14.80    1.90
   4   5   1   14.60    1.80
   4   5   1   13.50    1.90
   4   5   1   10.00    1.80
  -5  -5  -1    6.50    1.60
  -5  -5  -1    6.00    1.60
  -5  -5  -1    2.80    1.40
  -5  -5  -1    7.20    1.40
  -5  -5  -1    6.50    1.70
   5   5   1    7.20    1.60
   5   5   1    4.70    1.20
   5   5   1    7.10    1.50
   5   5   1    6.50    1.60
  -6  -5  -1    8.50    2.20
  -6  -5  -1    5.10    1.90
  -6  -5  -1    6.30    1.80
  -6  -5  -1    7.60    1.60
  -6  -5  -1    7.80    2.20
   6   5   1    4.90    1.70
   6   5   1    6.80    1.80
   6   5   1    5.10    1.50
   6   5   1    7.40    1.60
  -7  -5  -1    6.90    1.90
  -7  -5  -1    7.60    1.90
  -7  -5  -1    3.40    2.10
  -7  -5  -1   10.60    2.50
   7   5   1    3.00    1.70
   7   5   1    3.80    1.50
   7   5   1    3.60    1.60
   7   5   1    7.70    1.80
   7   5   1    4.30    1.50
  -8  -5  -1    2.80    2.30
  -8  -5  -1    0.20    1.60
  -8  -5  -1   -0.80    1.60
  -8  -5  -1    1.20    1.90
   8   5   1   -1.50    1.40
   8   5   1    0.50    1.50
   8   5   1   -1.30    1.50
   8   5   1    0.20    1.00
   8  -6  -1    1.10    1.30
   8  -6  -1    0.80    0.90
   8  -6  -1    2.20    1.20
  -8   6   1    2.00    1.30
  -8   6   1    2.40    1.40
  -8   6   1    0.50    1.70
  -8   6   1    1.30    1.50
  -8   6   1    2.60    1.40
   7  -6  -1   16.40    2.00
   7  -6  -1   15.70    2.00
   7  -6  -1   18.70    2.20
   7  -6  -1   18.70    2.40
  -7   6   1   19.40    2.40
  -7   6   1   19.40    2.70
  -7   6   1   19.10    2.80
  -7   6   1   20.40    2.60
  -7   6   1   15.90    2.50
  -7   6   1   20.20    3.10
   6  -6  -1    2.40    0.90
   6  -6  -1    1.00    0.70
   6  -6  -1    2.10    0.90
   6  -6  -1    1.80    0.80
  -6   6   1    3.10    1.50
  -6   6   1    3.30    1.00
  -6   6   1    4.30    1.50
  -6   6   1    3.50    1.20
  -6   6   1    2.60    1.20
  -6   6   1    4.40    1.20
   5  -6  -1    5.00    1.00
   5  -6  -1    4.90    1.10
   5  -6  -1    6.90    1.00
   5  -6  -1    6.50    1.10
   5  -6  -1    6.00    1.10
  -5   6   1    4.60    1.30
  -5   6   1    4.30    1.10
  -5   6   1    6.50    1.20
  -5   6   1    5.10    1.20
  -5   6   1    6.00    1.40
  -5   6   1    5.80    1.60
   4  -6  -1    6.20    1.00
   4  -6  -1    5.20    1.00
   4  -6  -1    5.00    1.00
   4  -6  -1    6.50    0.90
   4  -6  -1    6.40    1.00
  -4   6   1    5.20    1.20
  -4   6   1    4.90    1.40
  -4   6   1    5.30    1.10
  -4   6   1    6.90    1.50
  -4   6   1    6.50    1.20
   3  -6  -1   35.00    2.10
   3  -6  -1   30.50    2.00
   3  -6  -1   31.70    2.00
   3  -6  -1   36.10    2.00
   3  -6  -1   29.20    1.90
  -3   6   1   33.20    2.40
  -3   6   1   29.60    2.40
  -3   6   1   33.70    2.60
  -3   6   1   31.60    2.10
  -3   6   1   31.60    2.10
  -3   6   1   30.30    2.10
  -3   6   1   35.00    2.20
   2  -6  -1   23.50    1.60
   2  -6  -1   24.90    1.60
   2  -6  -1   28.90    1.70
   2  -6  -1   23.80    1.60
   2  -6  -1   24.30    1.70
  -2   6   1   27.50    2.10
  -2   6   1   23.90    1.70
  -2   6   1   25.70    2.00
  -2   6   1   27.60    2.30
  -2   6   1   22.30    1.80
  -2   6   1   28.60    1.90
   1  -6  -1  105.39    4.90
   1  -6  -1  108.69    5.10
   1  -6  -1  110.69    4.80
   1  -6  -1  102.89    4.70
   1  -6  -1  108.19    4.80
   1  -6  -1  117.19    5.30
  -1   6   1  110.39    5.50
  -1   6   1  109.99    5.20
  -1   6   1  105.09    5.20
  -1   6   1  112.99    5.60
  -1   6   1  110.19    5.00
  -1   6   1  112.49    4.90
   0  -6  -1  281.97   11.50
   0  -6  -1  263.57   10.70
   0  -6  -1  238.28   10.60
   0  -6  -1  269.47   10.80
   0  -6  -1  269.47   11.00
   0  -6  -1  266.47   11.30
   0  -6  -1  265.57   11.30
   0  -6  -1  265.87   11.10
   0   6   1  275.87   11.10
   0   6   1  271.57   11.20
   0   6   1  276.17   11.40
   0   6   1  283.77   11.60
   0   6   1  272.27   11.60
  -1  -6  -1   -0.30    0.30
  -1  -6  -1    0.50    0.50
  -1  -6  -1   -0.20    0.50
  -1  -6  -1    0.00    0.50
  -1  -6  -1   -0.10    0.30
  -1  -6  -1   -0.10    0.40
  -1  -6  -1   -0.20    0.40
   1   6   1    0.10    0.60
   1   6   1    0.80    0.80
   1   6   1   -0.10    0.50
   1   6   1   -0.10    0.60
  -2  -6  -1    0.70    0.30
  -2  -6  -1    0.30    0.60
  -2  -6  -1    2.00    0.50
  -2  -6  -1    0.20    0.60
  -2  -6  -1    0.80    0.60
  -2  -6  -1    0.60    0.60
  -2  -6  -1    0.20    0.50
   2   6   1    0.30    0.70
   2   6   1    0.30    0.80
   2   6   1    1.50    0.70
   2   6   1   -0.50    0.70
  -3  -6  -1    4.90    1.00
  -3  -6  -1    3.00    1.10
  -3  -6  -1    2.90    1.00
  -3  -6  -1    5.20    1.30
  -3  -6  -1    3.10    0.60
  -3  -6  -1    4.50    1.20
   3   6   1    4.10    1.20
   3   6   1    4.10    1.10
   3   6   1    2.10    0.90
   3   6   1    2.10    1.10
  -4  -6  -1    1.50    0.90
  -4  -6  -1    0.80    1.00
  -4  -6  -1    4.00    1.00
  -4  -6  -1    3.30    1.10
  -4  -6  -1    2.90    1.20
   4   6   1    1.80    1.00
   4   6   1    3.20    1.10
   4   6   1    2.70    1.00
   4   6   1    1.80    1.20
  -5  -6  -1   13.10    2.20
  -5  -6  -1   10.40    2.30
  -5  -6  -1   13.00    2.50
  -5  -6  -1   15.00    1.90
  -5  -6  -1   12.10    2.20
   5   6   1   16.00    2.30
   5   6   1   12.10    2.00
   5   6   1   14.40    2.10
   5   6   1   15.40    2.30
  -6  -6  -1   12.50    2.00
  -6  -6  -1   14.00    2.70
  -6  -6  -1   13.90    2.70
  -6  -6  -1    7.00    1.90
  -6  -6  -1    9.40    2.30
   6   6   1   12.20    2.30
   6   6   1    8.00    1.90
   6   6   1    9.70    2.00
   6   6   1    7.20    1.80
  -7  -6  -1    2.80    2.00
  -7  -6  -1    0.70    1.70
  -7  -6  -1    1.10    1.40
  -7  -6  -1   -0.60    1.60
   7   6   1    0.20    1.30
   7   6   1    0.80    1.70
   7   6   1    0.70    1.40
   8  -7  -1   -0.80    1.20
   8  -7  -1   -0.70    1.10
  -8   7   1    0.90    1.50
  -8   7   1    0.10    1.50
  -8   7   1    2.00    1.80
  -8   7   1   -1.20    1.60
  -8   7   1    1.10    2.00
   7  -7  -1    0.60    0.90
   7  -7  -1   -0.50    0.60
   7  -7  -1    0.80    0.90
   7  -7  -1    0.10    0.90
  -7   7   1    0.60    1.20
  -7   7   1    2.10    1.20
  -7   7   1   -0.60    1.10
  -7   7   1    2.20    1.60
  -7   7   1   -0.30    1.10
  -7   7   1    0.30    1.60
   6  -7  -1    0.90    1.00
   6  -7  -1    0.20    0.80
   6  -7  -1    0.50    0.70
   6  -7  -1    2.00    0.90
  -6   7   1    1.00    1.00
  -6   7   1    0.20    1.10
  -6   7   1    1.30    1.20
  -6   7   1    0.40    1.00
  -6   7   1    1.30    1.00
   5  -7  -1   16.60    1.70
   5  -7  -1   12.10    1.70
   5  -7  -1   13.80    1.70
   5  -7  -1   13.40    1.70
  -5   7   1   10.00    2.00
  -5   7   1   14.20    2.10
  -5   7   1   15.00    2.00
  -5   7   1   15.20    1.90
  -5   7   1   10.70    2.00
   4  -7  -1   15.30    1.50
   4  -7  -1   12.60    1.50
   4  -7  -1   12.10    1.40
   4  -7  -1   10.70    1.50
   4  -7  -1   11.70    1.40
  -4   7   1   10.10    1.90
  -4   7   1   13.80    2.10
  -4   7   1    7.80    1.50
  -4   7   1   11.60    1.60
  -4   7   1    9.80    1.50
   3  -7  -1   15.90    1.60
   3  -7  -1   14.00    1.50
   3  -7  -1   15.10    1.30
   3  -7  -1   16.00    1.50
   3  -7  -1   13.30    1.50
  -3   7   1   16.20    1.70
  -3   7   1   11.60    1.60
  -3   7   1   10.40    1.70
  -3   7   1   12.30    1.80
  -3   7   1   14.10    1.60
   2  -7  -1    5.80    0.90
   2  -7  -1    5.90    1.00
   2  -7  -1    6.20    0.90
   2  -7  -1    6.00    1.00
   2  -7  -1    6.40    0.90
  -2   7   1    9.40    1.60
  -2   7   1    8.30    1.30
  -2   7   1    6.10    1.30
  -2   7   1    6.30    1.30
  -2   7   1    5.90    1.10
   1  -7  -1    0.00    0.50
   1  -7  -1    0.00    0.40
   1  -7  -1   -0.20    0.50
   1  -7  -1    0.00    0.40
   1  -7  -1    0.30    0.40
   1  -7  -1    0.20    0.40
  -1   7   1   -0.70    0.80
  -1   7   1    0.10    0.70
  -1   7   1   -0.30    0.50
  -1   7   1    1.90    0.90
   0  -7  -1   26.80    1.60
   0  -7  -1   31.90    2.20
   0  -7  -1   28.60    2.30
   0  -7  -1   27.10    1.90
   0  -7  -1   28.10    2.20
   0  -7  -1   27.60    2.00
   0  -7  -1   28.70    1.70
   0   7   1   27.50    2.00
   0   7   1   30.60    2.20
   0   7   1   28.60    2.40
   0   7   1   25.80    2.60
   0   7   1   27.60    2.50
  -1  -7  -1    6.90    0.80
  -1  -7  -1    8.30    1.20
  -1  -7  -1    5.00    1.20
  -1  -7  -1    8.70    1.50
  -1  -7  -1    6.50    1.20
  -1  -7  -1    7.10    1.40
  -1  -7  -1    7.20    0.80
   1   7   1    6.20    1.40
   1   7   1    4.40    1.20
   1   7   1    5.90    1.50
   1   7   1    6.40    1.20
  -2  -7  -1  102.29    4.90
  -2  -7  -1  100.49    5.50
  -2  -7  -1  101.19    5.70
  -2  -7  -1  101.29    5.50
  -2  -7  -1   94.69    5.20
   2   7   1   93.39    5.40
   2   7   1   95.69    5.40
   2   7   1  105.59    5.20
   2   7   1   93.79    5.20
  -3  -7  -1    5.80    1.10
  -3  -7  -1    3.50    1.20
  -3  -7  -1    3.60    1.30
  -3  -7  -1    2.90    1.20
  -3  -7  -1    2.10    1.20
   3   7   1    4.70    1.40
   3   7   1    5.20    1.40
   3   7   1    7.70    1.70
   3   7   1    4.00    1.20
  -4  -7  -1    0.00    1.00
  -4  -7  -1   -0.70    0.90
  -4  -7  -1    0.10    1.10
  -4  -7  -1   -0.10    0.80
  -4  -7  -1   -1.30    0.80
   4   7   1   -0.10    1.00
   4   7   1    0.20    1.10
   4   7   1   -1.40    1.00
   4   7   1   -1.40    1.00
  -5  -7  -1   -0.30    0.80
  -5  -7  -1    0.50    1.40
  -5  -7  -1    1.50    1.40
  -5  -7  -1    0.70    1.10
  -5  -7  -1   -0.50    1.20
   5   7   1   -1.40    1.10
   5   7   1    1.30    1.20
   5   7   1    0.90    1.30
   5   7   1    0.40    1.00
  -6  -7  -1    0.50    1.50
  -6  -7  -1    1.80    1.70
  -6  -7  -1    0.00    1.20
  -6  -7  -1    0.70    1.40
   6   7   1   -0.10    1.30
   6   7   1    2.40    1.60
   6   7   1    0.00    1.40
   6   7   1    0.40    1.40
  -7  -7  -1   -0.10    2.00
  -7  -7  -1   -0.60    1.20
  -7  -7  -1   -1.70    1.70
  -7  -7  -1    2.20    1.50
   7   7   1   -0.90    1.70
   7   7   1    0.40    1.30
   7   7   1    2.90    1.70
   7  -8  -1    2.20    1.20
   7  -8  -1    4.50    1.40
  -7   8   1    1.60    1.80
  -7   8   1    3.70    1.70
  -7   8   1    2.20    1.40
  -7   8   1   -0.40    1.60
   6  -8  -1    7.10    1.40
   6  -8  -1    7.60    1.50
   6  -8  -1    6.20    1.50
   6  -8  -1    4.30    1.20
  -6   8   1    6.60    1.50
  -6   8   1    9.80    2.30
  -6   8   1    5.50    1.50
  -6   8   1    6.50    1.90
  -6   8   1    5.20    1.70
   5  -8  -1    0.50    0.90
   5  -8  -1    1.00    0.80
   5  -8  -1    1.00    0.90
   5  -8  -1    1.90    0.90
  -5   8   1    2.40    1.20
  -5   8   1    1.50    1.30
  -5   8   1    2.40    1.00
  -5   8   1    1.50    1.00
  -5   8   1    0.00    1.20
   4  -8  -1    0.60    0.60
   4  -8  -1   -0.20    0.60
   4  -8  -1    0.40    0.60
   4  -8  -1   -0.30    0.40
  -4   8   1    0.20    0.80
  -4   8   1    0.10    0.80
  -4   8   1   -0.90    0.90
  -4   8   1    0.00    0.80
   3  -8  -1    0.80    0.60
   3  -8  -1   -0.30    0.60
   3  -8  -1    0.50    0.60
   3  -8  -1    0.00    0.60
   3  -8  -1   -0.10    0.60
  -3   8   1   -0.40    0.60
  -3   8   1    0.80    0.80
  -3   8   1   -0.60    0.60
  -3   8   1    0.10    0.90
   2  -8  -1   66.49    3.60
   2  -8  -1   69.29    3.90
   2  -8  -1   71.39    3.60
   2  -8  -1   70.69    3.80
   2  -8  -1   69.69    3.50
  -2   8   1   71.09    4.20
  -2   8   1   68.79    4.20
  -2   8   1   68.79    3.90
  -2   8   1   68.29    4.50
   1  -8  -1   -0.70    0.50
   1  -8  -1    0.10    0.60
   1  -8  -1    1.00    0.50
   1  -8  -1    0.20    0.50
   1  -8  -1    0.50    0.40
  -1   8   1   -0.30    0.60
  -1   8   1    0.00    0.90
  -1   8   1   -1.00    0.70
  -1   8   1    0.10    0.90
   0  -8  -1    2.00    0.80
   0  -8  -1    3.30    1.10
   0  -8  -1    3.60    0.70
   0  -8  -1    3.10    0.70
   0  -8  -1    3.00    0.80
   0   8   1    3.60    1.40
   0   8   1    2.60    1.50
   0   8   1    1.80    1.10
   0   8   1    4.20    1.30
  -1  -8  -1   31.70    2.40
  -1  -8  -1   29.00    2.50
  -1  -8  -1   30.50    2.60
  -1  -8  -1   34.70    2.30
  -1  -8  -1   29.50    2.60
   1   8   1   31.50    2.60
   1   8   1   29.90    2.60
   1   8   1   25.70    2.90
   1   8   1   29.90    2.80
  -2  -8  -1    2.40    1.10
  -2  -8  -1    2.20    1.10
  -2  -8  -1    2.20    0.90
  -2  -8  -1    0.60    0.90
  -2  -8  -1    1.60    1.10
   2   8   1    1.30    1.10
   2   8   1    0.20    1.20
   2   8   1    2.00    1.00
   2   8   1    2.10    1.10
  -3  -8  -1   21.40    2.60
  -3  -8  -1   21.50    2.80
  -3  -8  -1   22.90    2.90
  -3  -8  -1   19.30    2.70
  -3  -8  -1   19.40    2.10
   3   8   1   17.00    2.50
   3   8   1   19.90    2.60
   3   8   1   20.50    2.60
   3   8   1   17.40    2.20
  -4  -8  -1    0.40    1.30
  -4  -8  -1    3.70    1.20
  -4  -8  -1    2.00    1.10
  -4  -8  -1    4.90    1.60
  -4  -8  -1    3.90    1.60
   4   8   1    2.80    1.40
   4   8   1    4.20    1.60
   4   8   1    3.20    1.60
   4   8   1    2.30    1.50
  -5  -8  -1    0.20    1.40
  -5  -8  -1   -1.20    1.10
  -5  -8  -1   -0.50    1.10
  -5  -8  -1    1.70    1.10
   5   8   1    0.70    1.30
   5   8   1    1.70    1.50
   5   8   1   -2.90    1.20
   5   8   1    2.00    1.50
  -6  -8  -1    2.90    1.90
  -6  -8  -1    0.70    1.30
  -6  -8  -1   -1.80    1.50
  -6  -8  -1    0.50    1.60
   6   8   1   -0.80    1.30
   6   8   1    2.10    1.70
   6   8   1    0.80    1.50
   7  -9  -1    0.60    1.10
   7  -9  -1    0.90    1.30
  -7   9   1    0.30    1.60
  -7   9   1   -0.40    1.80
  -7   9   1    0.10    1.90
  -7   9   1    0.10    1.30
   6  -9  -1    2.00    1.00
   6  -9  -1    1.10    1.20
   6  -9  -1    1.10    1.20
  -6   9   1    3.10    1.90
  -6   9   1    3.70    1.40
  -6   9   1    1.70    1.60
  -6   9   1    1.60    1.60
   5  -9  -1    6.00    1.40
   5  -9  -1    5.00    1.20
   5  -9  -1    6.70    1.40
   5  -9  -1    5.10    1.20
  -5   9   1    6.20    1.80
  -5   9   1    6.50    1.60
  -5   9   1    4.30    1.80
  -5   9   1    4.40    1.70
   4  -9  -1   -0.40    0.70
   4  -9  -1    0.60    0.70
   4  -9  -1   -0.50    0.60
   4  -9  -1   -0.50    0.60
  -4   9   1   -1.00    0.70
  -4   9   1   -0.50    0.90
  -4   9   1   -0.20    1.00
  -4   9   1    0.70    1.00
   3  -9  -1   23.80    2.20
   3  -9  -1   23.70    2.40
   3  -9  -1   19.40    1.90
   3  -9  -1   23.30    1.90
  -3   9   1   23.00    2.90
  -3   9   1   25.20    2.90
   2  -9  -1    7.80    1.40
   2  -9  -1    7.50    1.10
   2  -9  -1    6.40    1.20
   2  -9  -1    7.40    1.40
   2  -9  -1    6.50    1.00
  -2   9   1    4.60    1.50
  -2   9   1    8.40    1.70
  -2   9   1    6.10    1.50
   1  -9  -1   47.40    3.30
   1  -9  -1   45.00    3.30
   1  -9  -1   50.59    3.00
  -1   9   1   53.09    3.80
  -1   9   1   55.29    3.70
  -1   9   1   49.70    3.80
   0  -9  -1   22.20    2.40
   0  -9  -1   19.80    2.00
   0  -9  -1   19.50    2.50
   0   9   1   16.10    2.30
   0   9   1   19.40    2.60
   0   9   1   21.80    2.70
  -1  -9  -1   11.10    1.50
  -1  -9  -1   13.30    2.10
  -1  -9  -1    9.50    1.80
   1   9   1   12.70    2.10
   1   9   1   11.70    2.20
   1   9   1    7.50    1.60
   1   9   1    8.90    1.80
  -2  -9  -1    3.20    1.40
  -2  -9  -1    3.50    1.20
  -2  -9  -1    3.40    1.20
  -2  -9  -1    6.10    1.30
  -2  -9  -1    2.30    1.20
   2   9   1    5.40    1.50
   2   9   1    3.90    1.30
   2   9   1    2.50    1.50
   2   9   1    7.50    1.50
   2   9   1    5.20    1.70
  -3  -9  -1    0.00    1.00
  -3  -9  -1    1.60    1.30
  -3  -9  -1    0.80    1.00
  -3  -9  -1    0.40    0.90
  -3  -9  -1    1.10    1.10
   3   9   1    1.10    1.10
   3   9   1   -0.90    1.00
   3   9   1    0.10    1.40
   3   9   1    1.00    1.40
  -4  -9  -1    1.40    1.10
  -4  -9  -1   -0.60    1.30
  -4  -9  -1    0.90    1.30
  -4  -9  -1   -0.30    1.20
   4   9   1    0.20    1.20
   4   9   1   -1.70    1.10
   4   9   1    0.50    1.30
  -5  -9  -1    2.70    1.70
  -5  -9  -1    2.30    1.40
  -5  -9  -1    1.20    1.70
  -5  -9  -1    0.20    1.60
   5   9   1    4.00    1.80
   5   9   1    2.00    1.70
   5   9   1    0.40    1.40
   6 -10  -1    3.20    1.40
   6 -10  -1    2.30    1.40
  -6  10   1    2.80    1.60
  -6  10   1    2.40    1.60
  -6  10   1    1.60    1.40
  -6  10   1    3.20    1.50
   5 -10  -1    8.20    1.70
   5 -10  -1    8.80    1.60
   5 -10  -1    8.00    1.60
   5 -10  -1    8.80    1.60
  -5  10   1    7.00    2.10
  -5  10   1    8.30    1.90
  -5  10   1    6.80    1.70
  -5  10   1    5.40    2.10
   4 -10  -1   -0.40    0.80
   4 -10  -1    0.10    0.70
   4 -10  -1    1.00    0.90
   4 -10  -1   -1.20    0.70
  -4  10   1   -1.60    0.60
  -4  10   1   -0.40    1.40
   3 -10  -1    7.40    1.40
   3 -10  -1    5.00    1.30
   3 -10  -1    4.60    1.10
  -3  10   1    5.60    1.70
  -3  10   1    6.20    1.80
   2 -10  -1    5.90    1.20
   2 -10  -1    3.30    1.20
  -2  10   1    3.80    1.30
  -2  10   1    4.50    1.80
   1 -10  -1   -0.40    0.80
   1 -10  -1   -0.10    0.80
   1 -10  -1    1.10    0.80
  -1  10   1    0.10    1.20
  -1  10   1    0.10    1.10
  -1  10   1    0.50    1.40
   0 -10  -1    0.80    0.90
   0 -10  -1    2.10    1.10
   0 -10  -1    0.60    0.90
   0  10   1    1.80    1.50
   0  10   1    0.20    1.30
   0  10   1   -0.80    1.00
  -1 -10  -1   -0.40    0.80
  -1 -10  -1    0.00    0.90
  -1 -10  -1   -0.80    0.90
   1  10   1   -0.40    1.00
   1  10   1   -1.40    1.00
   1  10   1    1.70    1.50
  -2 -10  -1   12.00    2.30
  -2 -10  -1   12.40    2.30
  -2 -10  -1   19.90    2.30
  -2 -10  -1   15.20    2.70
   2  10   1   11.00    2.30
   2  10   1   12.70    2.20
   2  10   1    9.60    2.10
  -3 -10  -1   -0.60    1.20
  -3 -10  -1    0.70    1.20
  -3 -10  -1    0.70    1.10
  -3 -10  -1   -0.10    1.10
   3  10   1   -0.30    1.30
   3  10   1    0.50    1.20
   3  10   1   -0.80    1.20
  -4 -10  -1    1.90    1.40
  -4 -10  -1   -0.20    1.40
  -4 -10  -1    0.30    1.40
  -4 -10  -1   -1.90    1.40
   4  10   1    1.70    1.70
   4  10   1    4.30    1.80
   4  10   1   -0.40    1.60
   5 -11  -1   -0.80    1.00
   5 -11  -1    2.90    1.30
  -5  11   1   -2.80    1.40
  -5  11   1   -2.00    1.80
   4 -11  -1   -1.00    0.90
  -4  11   1   -0.80    1.70
  -4  11   1   -0.80    1.30
   3 -11  -1    0.00    1.00
   3 -11  -1    0.50    0.90
  -3  11   1   -0.20    1.20
  -3  11   1    2.80    1.90
   2 -11  -1   12.80    1.90
   2 -11  -1   10.70    1.90
  -2  11   1   12.60    2.50
   1 -11  -1    6.20    1.50
   1 -11  -1    6.10    1.60
  -1  11   1    7.50    2.00
  -1  11   1    4.70    1.90
   0 -11  -1    9.90    1.70
   0 -11  -1    4.50    1.60
   0 -11  -1    6.00    1.70
   0  11   1    9.00    2.00
   0  11   1    7.20    2.20
   0  11   1    7.20    2.00
  -1 -11  -1    6.00    1.70
  -1 -11  -1    9.90    1.80
   1  11   1    2.40    1.70
   1  11   1   10.70    2.40
  -2 -11  -1    8.40    1.90
  -2 -11  -1    5.40    1.80
   2  11   1   10.80    2.40
  -3 -11  -1    0.40    1.20
  -3 -11  -1    0.40    1.40
   3  11   1   -0.30    1.60
   3  11   1    0.20    1.60
   3 -12  -1    7.40    1.70
  -3  12   1   13.50    2.80
   2 -12  -1    2.70    1.30
  -2  12   1    2.70    1.90
   1 -12  -1    3.20    1.30
  -1  12   1    1.70    1.80
   0 -12  -1    4.40    1.40
   0  12   1    3.10    1.90
  -1 -12  -1    2.00    1.50
  -1 -12  -1    1.70    1.40
   1  12   1    4.80    2.40
   1  12   1    2.20    1.80
   2  12  -2    5.70    1.80
   2  12  -2    4.90    1.90
  -2 -12   2    1.80    1.70
   1  12  -2   -0.10    1.20
   1  12  -2   -0.40    1.60
  -1 -12   2    2.30    1.40
   0  12  -2    5.50    2.00
   0 -12   2    3.60    1.50
  -1  12  -2   -0.50    1.60
   1 -12   2    0.10    1.00
   1 -12   2   -0.40    0.90
  -2  12  -2   -1.10    1.30
  -2  12  -2    0.20    1.80
   2 -12   2    1.50    1.20
   2 -12   2    2.60    1.10
  -3  12  -2    8.00    2.50
  -3  12  -2    7.20    2.20
   3 -12   2    5.60    1.60
   3 -12   2    5.80    1.40
  -4  12  -2    0.00    1.70
  -4  12  -2    3.20    1.50
   4 -12   2    0.90    1.10
   4  11  -2   15.10    2.70
   4  11  -2   15.00    2.60
  -4 -11   2   19.30    3.10
  -4 -11   2   15.70    2.90
  -4 -11   2   10.90    2.60
   3  11  -2    5.00    1.60
   3  11  -2    3.40    1.80
   3  11  -2    2.70    1.50
  -3 -11   2    5.50    1.90
  -3 -11   2    4.90    1.80
  -3 -11   2    3.50    1.70
   2  11  -2   19.20    2.60
   2  11  -2   23.60    3.10
   2  11  -2   21.80    3.00
  -2 -11   2   21.70    2.90
  -2 -11   2   24.40    3.20
   1  11  -2    0.30    1.20
   1  11  -2   -0.10    1.20
   1  11  -2   -0.50    1.20
  -1 -11   2   -0.30    0.60
  -1 -11   2    0.40    1.10
   0  11  -2    1.20    1.20
   0  11  -2   -0.50    1.20
   0 -11   2   -0.40    1.00
   0 -11   2    0.50    0.70
   0 -11   2    0.60    0.70
  -1  11  -2    4.50    1.60
  -1  11  -2    3.30    1.40
   1 -11   2    2.90    1.30
   1 -11   2    4.30    1.40
   1 -11   2    2.30    0.90
  -2  11  -2    2.20    1.40
  -2  11  -2    2.00    1.60
   2 -11   2   -0.20    0.90
   2 -11   2    1.00    0.90
   2 -11   2    0.60    1.00
  -3  11  -2    9.10    2.20
  -3  11  -2    9.80    2.30
   3 -11   2    8.60    2.00
   3 -11   2    7.30    1.60
   3 -11   2    9.70    1.60
  -4  11  -2    0.40    1.60
  -4  11  -2   -0.90    1.40
   4 -11   2   -0.10    0.90
   4 -11   2   -0.70    0.80
  -5  11  -2   12.30    2.70
  -5  11  -2    8.80    2.20
  -5  11  -2   14.70    3.00
   5 -11   2   12.10    2.00
   5 -11   2   10.00    2.30
   5  10  -2    1.90    1.70
   5  10  -2   -0.50    1.40
  -5 -10   2    1.30    1.60
  -5 -10   2    2.20    1.60
  -5 -10   2   -0.80    1.30
   4  10  -2    8.50    2.00
   4  10  -2    9.70    2.10
  -4 -10   2   11.90    2.40
  -4 -10   2   12.30    2.60
  -4 -10   2   13.60    2.60
   3  10  -2    2.20    1.30
   3  10  -2    0.50    0.80
   3  10  -2    1.90    1.20
   3  10  -2    2.60    1.30
  -3 -10   2    0.30    0.80
  -3 -10   2    0.70    0.90
  -3 -10   2    0.90    1.20
  -3 -10   2    2.70    1.40
   2  10  -2    8.20    1.80
   2  10  -2    6.20    1.50
   2  10  -2    5.60    1.70
   2  10  -2    7.60    1.70
  -2 -10   2    7.30    1.50
  -2 -10   2    5.20    1.50
  -2 -10   2    7.30    1.60
  -2 -10   2    5.30    1.50
   1  10  -2    1.00    1.10
   1  10  -2   -0.70    1.00
   1  10  -2   -0.60    1.00
  -1 -10   2    1.20    0.90
  -1 -10   2   -0.40    0.60
  -1 -10   2    0.90    1.00
  -1 -10   2    0.20    0.70
   0  10  -2    3.30    1.20
   0  10  -2    4.50    1.20
   0  10  -2    5.50    1.50
   0 -10   2    3.10    1.20
   0 -10   2    3.70    0.90
   0 -10   2    5.00    1.40
  -1  10  -2   56.69    4.20
  -1  10  -2   54.09    3.60
   1 -10   2   49.60    3.00
   1 -10   2   50.19    3.50
   1 -10   2   49.70    3.50
  -2  10  -2   31.00    3.50
  -2  10  -2   31.80    3.30
   2 -10   2   30.20    2.50
   2 -10   2   26.40    2.50
   2 -10   2   28.70    2.20
  -3  10  -2    9.70    1.90
  -3  10  -2   11.70    2.40
   3 -10   2   14.70    1.90
   3 -10   2   10.30    1.50
   3 -10   2    9.60    1.70
  -4  10  -2   25.90    3.50
  -4  10  -2   26.70    2.90
  -4  10  -2   18.10    3.00
   4 -10   2   20.70    2.20
   4 -10   2   23.90    2.40
   4 -10   2   23.10    2.10
  -5  10  -2    7.70    2.20
  -5  10  -2    4.70    1.70
  -5  10  -2    6.60    2.10
  -5  10  -2    5.40    1.50
   5 -10   2    5.50    1.50
   5 -10   2    6.80    1.40
   5 -10   2    7.10    1.40
   5 -10   2    6.00    1.40
  -6  10  -2    0.40    1.70
  -6  10  -2    1.10    1.60
  -6  10  -2    0.30    1.60
  -6  10  -2    1.00    1.30
   6 -10   2    1.60    1.30
   6 -10   2    1.80    1.20
   6   9  -2    5.50    2.00
   6   9  -2    2.20    1.40
   6   9  -2    0.20    1.40
  -6  -9   2    2.70    2.10
  -6  -9   2    1.40    1.90
  -6  -9   2    2.50    1.70
   5   9  -2    1.70    1.30
   5   9  -2    0.60    1.10
  -5  -9   2    0.50    1.10
  -5  -9   2   -0.10    0.90
  -5  -9   2    0.60    1.30
   4   9  -2   11.90    2.80
   4   9  -2    5.70    1.80
   4   9  -2    8.40    1.80
   4   9  -2    5.90    1.60
  -4  -9   2    8.40    2.00
  -4  -9   2    8.80    2.00
  -4  -9   2    8.60    1.90
  -4  -9   2    9.60    2.00
   3   9  -2    3.50    1.30
   3   9  -2    1.20    1.00
   3   9  -2    1.40    1.10
   3   9  -2    1.40    1.00
  -3  -9   2   -0.10    0.80
  -3  -9   2    1.70    1.30
  -3  -9   2    4.40    1.40
  -3  -9   2   -0.20    0.80
   2   9  -2    8.50    1.50
   2   9  -2   10.90    1.90
   2   9  -2   11.90    1.90
   2   9  -2   10.20    1.70
  -2  -9   2    9.00    1.90
  -2  -9   2   13.60    2.00
  -2  -9   2   12.10    2.10
  -2  -9   2    6.60    1.50
  -2  -9   2   12.80    1.50
   1   9  -2    0.50    1.00
   1   9  -2    0.30    0.80
   1   9  -2   -0.30    0.90
   1   9  -2    0.70    0.80
  -1  -9   2   -0.40    0.60
  -1  -9   2   -0.10    0.90
  -1  -9   2   -0.20    0.80
  -1  -9   2    0.10    0.90
  -1  -9   2   -0.80    0.50
   0   9  -2  102.49    5.70
   0   9  -2  109.29    5.40
   0   9  -2  104.59    5.30
   0   9  -2   96.19    5.40
   0  -9   2   99.89    5.60
   0  -9   2  101.79    5.50
   0  -9   2  100.99    4.90
   0  -9   2  100.29    5.20
  -1   9  -2    7.90    1.70
  -1   9  -2    9.40    1.60
  -1   9  -2    8.80    1.70
   1  -9   2   11.20    1.60
   1  -9   2    9.80    1.60
   1  -9   2    8.00    1.20
  -2   9  -2   41.80    3.40
  -2   9  -2   42.10    3.10
   2  -9   2   34.90    2.30
   2  -9   2   37.60    2.70
   2  -9   2   36.80    2.70
  -3   9  -2   -0.20    0.70
  -3   9  -2    1.00    1.10
  -3   9  -2    1.00    1.30
   3  -9   2    0.80    0.80
   3  -9   2    0.30    0.70
   3  -9   2   -0.40    0.50
   3  -9   2    0.10    0.60
   3  -9   2    1.30    0.70
  -4   9  -2   12.40    1.70
  -4   9  -2    9.10    2.00
  -4   9  -2    8.80    1.90
  -4   9  -2    7.60    1.50
  -4   9  -2    7.80    1.80
   4  -9   2    8.30    1.40
   4  -9   2    8.70    1.50
   4  -9   2   10.70    1.60
   4  -9   2   12.20    1.60
   4  -9   2   12.00    1.60
  -5   9  -2    1.60    1.10
  -5   9  -2    2.10    1.20
  -5   9  -2    3.00    1.30
  -5   9  -2    1.00    1.00
  -5   9  -2    0.60    1.30
   5  -9   2    0.80    0.90
   5  -9   2    1.30    0.80
   5  -9   2    0.90    0.90
   5  -9   2    1.40    1.00
   5  -9   2    1.20    1.00
  -6   9  -2    1.80    1.60
  -6   9  -2    3.00    1.30
  -6   9  -2    3.50    1.30
  -6   9  -2    5.20    2.10
  -6   9  -2    5.90    2.00
   6  -9   2    3.50    1.50
   6  -9   2    6.60    1.50
   6  -9   2    6.10    1.50
   6  -9   2    4.40    1.40
  -7   9  -2   -0.20    1.30
  -7   9  -2    1.60    1.30
  -7   9  -2    1.00    1.70
  -7   9  -2    1.40    1.60
   7  -9   2    3.30    1.50
   7  -9   2    1.00    1.40
   7   8  -2    0.10    1.20
   7   8  -2   -1.30    1.30
   7   8  -2   -0.10    1.40
  -7  -8   2   -0.40    1.80
  -7  -8   2    0.80    1.70
  -7  -8   2    0.10    2.00
   6   8  -2    0.80    1.00
   6   8  -2   -0.10    1.20
   6   8  -2    0.40    0.80
  -6  -8   2   -1.40    1.30
  -6  -8   2    0.50    1.50
  -6  -8   2   -0.90    1.30
  -6  -8   2    0.60    1.10
   5   8  -2    4.60    1.50
   5   8  -2    5.80    1.70
   5   8  -2    4.90    1.40
  -5  -8   2    5.70    1.80
  -5  -8   2    4.70    1.60
  -5  -8   2    4.70    1.40
  -5  -8   2    6.80    1.90
  -5  -8   2    4.00    1.50
   4   8  -2    4.60    1.50
   4   8  -2    6.00    1.50
   4   8  -2    5.40    1.20
   4   8  -2    7.70    1.50
  -4  -8   2    6.00    1.60
  -4  -8   2    4.10    1.10
  -4  -8   2    2.80    1.20
  -4  -8   2    6.10    1.70
  -4  -8   2    4.90    1.60
   3   8  -2   77.89    4.80
   3   8  -2   79.19    4.70
   3   8  -2   85.29    4.70
   3   8  -2   84.19    4.60
  -3  -8   2   76.49    5.10
  -3  -8   2   84.19    4.90
  -3  -8   2   86.99    4.70
  -3  -8   2   84.19    4.90
  -3  -8   2   75.49    5.00
  -3  -8   2   83.19    4.20
   2   8  -2   53.39    3.50
   2   8  -2   56.39    3.60
   2   8  -2   51.99    3.40
   2   8  -2   51.09    3.30
  -2  -8   2   51.69    3.60
  -2  -8   2   45.30    3.60
  -2  -8   2   44.70    3.30
  -2  -8   2   54.39    3.40
  -2  -8   2   54.39    3.50
  -2  -8   2   53.79    2.90
   1   8  -2    0.40    0.80
   1   8  -2   -0.10    0.60
   1   8  -2    0.30    0.90
   1   8  -2    1.10    0.80
   1   8  -2   -0.50    0.90
  -1  -8   2   -0.10    0.80
  -1  -8   2    0.20    0.60
  -1  -8   2    0.60    0.70
  -1  -8   2    0.10    0.50
  -1  -8   2    0.50    0.70
   0   8  -2    0.10    0.70
   0   8  -2   -1.40    0.70
   0   8  -2   -0.60    0.80
   0   8  -2   -0.40    0.80
   0   8  -2   -0.80    0.80
   0  -8   2   -0.10    0.60
   0  -8   2    0.20    0.60
   0  -8   2   -0.10    0.50
   0  -8   2    0.60    0.70
   0  -8   2   -1.00    0.50
  -1   8  -2   30.50    2.20
  -1   8  -2   28.90    2.40
  -1   8  -2   30.30    3.00
  -1   8  -2   32.90    2.40
   1  -8   2   33.50    2.00
   1  -8   2   29.10    2.10
   1  -8   2   29.30    2.30
   1  -8   2   32.00    2.20
  -2   8  -2   64.59    3.30
  -2   8  -2   62.99    4.20
  -2   8  -2   65.69    3.40
  -2   8  -2   70.49    4.10
  -2   8  -2   64.19    3.70
   2  -8   2   65.09    3.60
   2  -8   2   65.99    3.30
   2  -8   2   63.79    3.20
   2  -8   2   66.09    3.60
   2  -8   2   60.29    3.20
  -3   8  -2    6.10    1.50
  -3   8  -2    3.70    1.30
  -3   8  -2    5.40    1.20
  -3   8  -2    5.90    1.10
  -3   8  -2    9.70    1.30
   3  -8   2    7.60    1.20
   3  -8   2    6.80    1.00
   3  -8   2    5.30    1.00
   3  -8   2    5.90    1.10
   3  -8   2    7.90    1.30
  -4   8  -2    9.60    1.90
  -4   8  -2    8.00    1.40
  -4   8  -2    7.90    1.40
  -4   8  -2    8.70    1.80
  -4   8  -2    7.90    1.50
   4  -8   2   10.20    1.40
   4  -8   2   10.40    1.50
   4  -8   2   11.60    1.50
   4  -8   2    8.10    1.30
   4  -8   2    9.30    1.30
  -5   8  -2    6.80    1.60
  -5   8  -2    4.10    1.50
  -5   8  -2    3.40    1.20
  -5   8  -2    3.40    1.50
  -5   8  -2    5.00    1.30
  -5   8  -2    3.50    1.10
   5  -8   2    5.20    1.30
   5  -8   2    4.20    1.20
   5  -8   2    5.30    1.20
   5  -8   2    5.80    1.20
   5  -8   2    6.10    1.20
  -6   8  -2    5.70    1.60
  -6   8  -2    6.20    1.90
  -6   8  -2    6.10    1.50
  -6   8  -2    6.40    1.60
  -6   8  -2    5.30    2.00
  -6   8  -2    7.00    1.80
   6  -8   2    6.00    1.40
   6  -8   2    5.90    1.40
   6  -8   2    6.60    1.50
   6  -8   2    8.30    1.60
  -7   8  -2   -0.80    1.40
  -7   8  -2    0.70    1.70
  -7   8  -2    0.90    1.10
  -7   8  -2   -1.30    1.20
   7  -8   2   -0.10    1.00
   7  -8   2    2.00    1.20
   7  -8   2   -0.40    1.10
   7   7  -2   13.10    2.60
   7   7  -2   12.90    2.40
   7   7  -2   16.90    2.60
  -7  -7   2   15.00    2.50
  -7  -7   2   15.50    3.20
  -7  -7   2   15.40    3.00
  -7  -7   2   12.20    2.40
   6   7  -2    0.00    0.90
   6   7  -2   -0.10    1.00
   6   7  -2    0.20    1.20
   6   7  -2    2.30    1.40
  -6  -7   2    0.00    1.10
  -6  -7   2    0.60    1.10
  -6  -7   2   -2.10    1.20
  -6  -7   2    1.20    1.00
  -6  -7   2   -0.70    1.30
   5   7  -2    6.90    1.40
   5   7  -2    8.50    1.80
   5   7  -2    7.90    1.60
  -5  -7   2    8.70    2.00
  -5  -7   2    6.90    1.40
  -5  -7   2    8.10    1.60
  -5  -7   2    8.60    1.90
  -5  -7   2    6.00    1.60
   4   7  -2   33.50    2.70
   4   7  -2   36.20    2.90
   4   7  -2   36.10    3.10
   4   7  -2   38.60    2.60
  -4  -7   2   40.40    2.50
  -4  -7   2   38.20    2.80
  -4  -7   2   36.80    3.50
  -4  -7   2   39.30    3.40
  -4  -7   2   41.30    3.40
  -4  -7   2   35.80    3.10
   3   7  -2   12.90    1.60
   3   7  -2   14.50    1.80
   3   7  -2    9.90    1.70
   3   7  -2   17.40    2.20
  -3  -7   2   16.40    2.10
  -3  -7   2   16.80    2.10
  -3  -7   2   15.20    1.80
  -3  -7   2   11.90    2.00
  -3  -7   2   13.60    2.10
  -3  -7   2   17.10    1.60
   2   7  -2  201.48    8.40
   2   7  -2  195.78    8.90
   2   7  -2  188.18    8.70
   2   7  -2  178.18    8.40
   2   7  -2  173.78    8.30
  -2  -7   2  176.68    8.40
  -2  -7   2  191.28    8.60
  -2  -7   2  187.08    8.70
  -2  -7   2  188.18    8.30
  -2  -7   2  182.08    7.80
  -2  -7   2  174.98    8.70
   1   7  -2    6.20    1.10
   1   7  -2    5.90    1.20
   1   7  -2    8.50    1.20
   1   7  -2    8.40    1.30
   1   7  -2    7.60    1.10
  -1  -7   2    4.70    1.00
  -1  -7   2    7.00    1.10
  -1  -7   2    7.70    1.20
  -1  -7   2    5.90    1.10
  -1  -7   2    6.30    1.10
  -1  -7   2    7.20    0.90
   0   7  -2   16.80    1.80
   0   7  -2   19.30    1.80
   0   7  -2   15.10    1.60
   0   7  -2   15.00    1.80
   0   7  -2   17.20    1.60
   0  -7   2   20.70    1.70
   0  -7   2   17.00    1.40
   0  -7   2   15.90    1.10
   0  -7   2   17.30    1.80
   0  -7   2   15.10    1.60
   0  -7   2   17.20    1.30
  -1   7  -2   13.70    1.80
  -1   7  -2   10.60    1.50
  -1   7  -2   13.60    1.40
  -1   7  -2   15.20    1.60
  -1   7  -2   14.00    1.10
  -1   7  -2   13.50    1.40
  -1   7  -2   14.50    1.70
   1  -7   2   12.60    1.00
   1  -7   2   13.30    1.50
   1  -7   2   12.10    1.20
   1  -7   2   11.40    1.00
   1  -7   2   14.00    1.30
   1  -7   2   14.70    1.50
  -2   7  -2   20.40    2.20
  -2   7  -2   23.90    1.70
  -2   7  -2   21.70    2.40
  -2   7  -2   25.60    1.90
  -2   7  -2   19.70    1.50
  -2   7  -2   21.20    1.80
   2  -7   2   23.00    1.60
   2  -7   2   23.50    1.70
   2  -7   2   22.50    1.60
   2  -7   2   21.80    1.50
   2  -7   2   23.10    1.80
   2  -7   2   21.10    1.50
  -3   7  -2    0.80    0.70
  -3   7  -2   -0.20    0.50
  -3   7  -2    0.80    0.60
  -3   7  -2   -0.90    0.50
  -3   7  -2   -0.10    0.90
   3  -7   2   -0.20    0.40
   3  -7   2    0.60    0.50
   3  -7   2    0.40    0.40
   3  -7   2    0.40    0.50
   3  -7   2    0.20    0.40
  -4   7  -2  100.49    5.10
  -4   7  -2   93.89    5.30
  -4   7  -2   98.39    5.60
  -4   7  -2   99.89    5.00
  -4   7  -2   99.19    5.10
  -4   7  -2   90.49    5.50
   4  -7   2   96.69    4.80
   4  -7   2   94.59    4.90
   4  -7   2   94.49    4.80
   4  -7   2  102.49    4.90
   4  -7   2  105.79    4.90
  -5   7  -2    2.50    1.20
  -5   7  -2    2.50    1.00
  -5   7  -2    1.50    0.90
  -5   7  -2    1.00    1.20
  -5   7  -2    2.60    0.90
  -5   7  -2    2.20    1.20
   5  -7   2    1.40    0.80
   5  -7   2    1.80    0.90
   5  -7   2    2.60    0.90
   5  -7   2    3.00    0.90
   5  -7   2    2.70    1.00
  -6   7  -2    9.90    1.80
  -6   7  -2    3.90    1.50
  -6   7  -2    8.90    1.90
  -6   7  -2    4.20    1.50
  -6   7  -2    4.90    1.40
  -6   7  -2   12.50    2.40
   6  -7   2    6.00    1.30
   6  -7   2    8.20    1.50
   6  -7   2    7.60    1.40
   6  -7   2    5.00    1.20
   6  -7   2   10.10    1.80
  -7   7  -2    2.20    1.30
  -7   7  -2    0.40    1.20
  -7   7  -2    0.30    1.20
  -7   7  -2   -0.90    1.40
  -7   7  -2    1.00    1.40
   7  -7   2   -0.80    1.00
   7  -7   2    0.10    1.10
   7  -7   2    0.20    1.00
   7  -7   2   -0.10    1.00
  -8   7  -2    0.80    1.60
  -8   7  -2    1.20    1.60
  -8   7  -2   -1.30    1.70
  -8   7  -2    2.70    1.40
   8  -7   2    1.30    1.30
   8  -7   2    1.10    1.20
   8  -7   2    1.30    1.40
   8   6  -2    8.50    2.00
   8   6  -2    6.60    2.10
   8   6  -2   13.10    2.60
  -8  -6   2    6.80    2.20
  -8  -6   2   14.80    3.00
  -8  -6   2    9.60    2.80
  -8  -6   2   11.10    2.30
   7   6  -2    0.30    1.10
   7   6  -2    0.30    1.30
   7   6  -2    2.60    1.50
   7   6  -2    1.10    1.10
  -7  -6   2    3.50    1.90
  -7  -6   2    1.10    1.50
  -7  -6   2    0.70    1.30
  -7  -6   2    1.90    1.30
  -7  -6   2    1.60    1.30
   6   6  -2  127.29    7.10
   6   6  -2  133.19    6.80
   6   6  -2  130.89    6.80
   6   6  -2  115.39    6.90
  -6  -6   2  136.69    7.50
  -6  -6   2  122.29    7.50
  -6  -6   2  135.79    7.70
  -6  -6   2  128.29    6.70
  -6  -6   2  125.09    7.30
   5   6  -2   28.40    2.70
   5   6  -2   28.10    3.00
   5   6  -2   31.20    2.50
  -5  -6   2   25.90    3.20
  -5  -6   2   27.10    3.00
  -5  -6   2   23.60    3.00
  -5  -6   2   27.00    2.60
  -5  -6   2   26.00    2.90
  -5  -6   2   27.50    2.30
   4   6  -2  117.39    5.70
   4   6  -2   97.79    5.70
   4   6  -2  114.49    5.20
   4   6  -2  106.99    5.50
  -4  -6   2  106.99    5.80
  -4  -6   2  103.59    6.00
  -4  -6   2   94.09    5.60
  -4  -6   2  110.09    5.00
  -4  -6   2  100.59    5.90
  -4  -6   2   97.29    5.30
   3   6  -2  109.09    5.50
   3   6  -2  104.49    5.60
   3   6  -2  109.09    5.40
   3   6  -2  114.39    5.20
  -3  -6   2  105.49    5.80
  -3  -6   2  110.99    5.00
  -3  -6   2  111.29    5.30
  -3  -6   2  109.29    5.60
  -3  -6   2  102.59    5.80
  -3  -6   2  106.79    5.60
   2   6  -2   -0.50    0.60
   2   6  -2   -0.20    0.40
   2   6  -2    0.10    0.40
   2   6  -2    0.30    0.40
   2   6  -2   -1.00    0.40
  -2  -6   2   -0.30    0.40
  -2  -6   2    0.10    0.40
  -2  -6   2   -0.50    0.50
  -2  -6   2   -0.20    0.40
  -2  -6   2    0.40    0.50
  -2  -6   2    0.20    0.40
   1   6  -2   19.10    1.50
   1   6  -2   14.80    1.60
   1   6  -2   12.60    1.40
   1   6  -2   15.20    1.20
  -1  -6   2   16.80    1.40
  -1  -6   2   15.90    1.10
  -1  -6   2   13.60    0.80
  -1  -6   2   13.20    1.60
  -1  -6   2   16.80    1.30
  -1  -6   2   15.20    1.50
  -1  -6   2   16.80    1.50
   0   6  -2  113.49    5.10
   0   6  -2  109.39    4.80
   0   6  -2  115.79    5.40
   0   6  -2  112.39    5.20
   0   6  -2  108.49    5.00
   0  -6   2  105.09    4.50
   0  -6   2  118.69    5.10
   0  -6   2  110.49    5.00
   0  -6   2  108.49    4.60
   0  -6   2  119.39    5.10
   0  -6   2  107.99    5.20
   0  -6   2  110.29    4.80
   0  -6   2  111.29    5.20
  -1   6  -2   45.40    2.40
  -1   6  -2   45.70    2.70
  -1   6  -2   49.50    2.40
  -1   6  -2   45.40    2.90
  -1   6  -2   47.80    2.60
  -1   6  -2   43.60    2.50
  -1   6  -2   45.40    2.30
   1  -6   2   45.70    2.40
   1  -6   2   44.30    2.30
   1  -6   2   44.20    2.30
   1  -6   2   50.79    2.50
   1  -6   2   46.40    2.20
   1  -6   2   47.20    2.60
   1  -6   2   49.80    2.60
  -2   6  -2   15.80    1.40
  -2   6  -2   17.50    1.40
  -2   6  -2   17.20    1.80
  -2   6  -2   18.70    1.40
  -2   6  -2   13.80    1.70
  -2   6  -2   20.10    1.50
   2  -6   2   18.80    1.30
   2  -6   2   19.60    1.30
   2  -6   2   20.60    1.40
   2  -6   2   19.60    1.50
   2  -6   2   18.00    1.30
   2  -6   2   18.00    1.30
  -3   6  -2    0.90    0.50
  -3   6  -2    1.20    0.70
  -3   6  -2    1.20    0.50
  -3   6  -2    0.60    0.50
  -3   6  -2    1.60    0.70
  -3   6  -2    0.70    0.90
   3  -6   2    3.20    0.60
   3  -6   2    0.90    0.50
   3  -6   2    1.20    0.60
   3  -6   2    1.00    0.50
   3  -6   2    1.40    0.60
   3  -6   2    0.80    0.50
  -4   6  -2   11.40    1.50
  -4   6  -2    7.60    1.60
  -4   6  -2   10.90    1.80
  -4   6  -2   12.00    1.60
  -4   6  -2   13.20    1.60
  -4   6  -2   11.90    1.70
   4  -6   2   12.10    1.40
   4  -6   2   12.10    1.40
   4  -6   2   12.60    1.40
   4  -6   2   12.50    1.50
   4  -6   2   15.50    1.60
  -5   6  -2   17.50    2.30
  -5   6  -2   18.00    2.10
  -5   6  -2   19.50    2.50
  -5   6  -2   20.60    2.20
  -5   6  -2   19.60    2.20
  -5   6  -2   17.60    2.30
   5  -6   2   16.90    1.90
   5  -6   2   17.60    1.90
   5  -6   2   20.70    1.80
   5  -6   2   20.40    2.10
   5  -6   2   21.90    2.20
  -6   6  -2    0.20    0.90
  -6   6  -2    0.30    0.80
  -6   6  -2    0.40    1.10
  -6   6  -2   -0.10    0.90
  -6   6  -2    1.50    1.20
  -6   6  -2    0.20    0.90
   6  -6   2    0.40    0.90
   6  -6   2    0.60    0.70
   6  -6   2   -0.30    0.80
   6  -6   2   -0.10    0.60
   6  -6   2    0.00    0.80
  -7   6  -2    4.00    1.70
  -7   6  -2    3.30    1.40
  -7   6  -2    3.50    1.30
  -7   6  -2    6.20    1.60
  -7   6  -2    6.40    2.00
   7  -6   2    6.20    1.50
   7  -6   2    2.80    1.30
   7  -6   2    2.40    1.20
   7  -6   2    3.50    1.10
   7  -6   2    2.40    1.20
  -8   6  -2    2.80    1.90
  -8   6  -2    2.20    1.30
  -8   6  -2    2.90    1.60
  -8   6  -2    0.20    1.70
   8  -6   2    1.30    1.30
   8  -6   2    3.20    1.50
   8  -6   2   -0.40    1.10
   8   5  -2   17.80    2.50
   8   5  -2   23.90    2.80
   8   5  -2   21.60    3.20
   8   5  -2   17.20    2.80
   8   5  -2   20.50    2.90
  -8  -5   2   18.10    3.00
  -8  -5   2   22.80    2.90
  -8  -5   2   21.40    3.60
  -8  -5   2   24.90    3.70
   7   5  -2   25.70    3.20
   7   5  -2   31.20    3.00
   7   5  -2   27.50    3.00
   7   5  -2   26.30    3.20
   7   5  -2   24.90    3.10
  -7  -5   2   27.50    3.50
  -7  -5   2   34.50    4.00
  -7  -5   2   28.60    3.60
  -7  -5   2   25.70    2.80
  -7  -5   2   22.00    3.10
   6   5  -2    1.60    1.20
   6   5  -2    7.40    1.60
   6   5  -2    9.10    1.90
   6   5  -2   10.70    1.80
  -6  -5   2    6.40    1.80
  -6  -5   2    7.60    1.50
  -6  -5   2    9.20    2.00
  -6  -5   2    7.30    2.00
  -6  -5   2    8.70    1.80
  -6  -5   2    8.00    1.50
   5   5  -2   17.00    1.50
   5   5  -2   17.40    2.10
   5   5  -2   15.00    2.20
   5   5  -2   18.10    2.10
  -5  -5   2   17.50    2.30
  -5  -5   2   17.30    2.40
  -5  -5   2   18.60    2.00
  -5  -5   2   15.30    2.30
  -5  -5   2   14.90    2.10
  -5  -5   2   18.10    1.80
   4   5  -2   13.90    1.70
   4   5  -2   13.60    1.70
   4   5  -2   12.80    1.90
   4   5  -2   14.20    1.40
  -4  -5   2   13.20    1.90
  -4  -5   2    9.80    1.60
  -4  -5   2   11.20    1.70
  -4  -5   2   13.50    1.60
  -4  -5   2   13.50    2.00
  -4  -5   2   14.60    1.50
  -4  -5   2   14.10    1.60
   3   5  -2   33.40    2.50
   3   5  -2   36.20    1.80
   3   5  -2   38.10    2.40
   3   5  -2   36.50    2.10
   3   5  -2   37.20    2.40
  -3  -5   2   34.20    2.50
  -3  -5   2   35.90    2.20
  -3  -5   2   33.90    2.30
  -3  -5   2   35.60    2.50
  -3  -5   2   33.60    2.00
  -3  -5   2   32.10    2.50
  -3  -5   2   28.40    2.50
   2   5  -2    8.40    1.00
   2   5  -2    8.40    0.80
   2   5  -2    7.50    1.10
   2   5  -2    7.80    1.10
  -2  -5   2    8.00    0.50
  -2  -5   2    7.50    1.00
  -2  -5   2    8.20    1.20
  -2  -5   2    8.60    0.90
  -2  -5   2    7.50    1.00
  -2  -5   2    7.20    1.10
  -2  -5   2    8.50    1.20
  -2  -5   2    9.80    1.20
   1   5  -2   50.59    2.70
   1   5  -2   48.90    2.60
   1   5  -2   50.09    2.20
   1   5  -2   50.69    2.70
   1   5  -2   51.19    2.50
  -1  -5   2   48.50    2.00
  -1  -5   2   48.70    2.80
  -1  -5   2   47.90    2.70
  -1  -5   2   45.50    2.70
  -1  -5   2   51.09    2.60
  -1  -5   2   48.40    2.30
  -1  -5   2   47.90    2.60
   0   5  -2  274.97   11.00
   0   5  -2  274.37   11.20
   0   5  -2  271.27   10.60
   0   5  -2  264.77   10.70
   0   5  -2  277.87   10.90
   0   5  -2  267.87   11.00
   0  -5   2  259.47   10.70
   0  -5   2  274.67   11.10
   0  -5   2  257.47   10.50
   0  -5   2  272.57   10.90
   0  -5   2  281.57   10.90
   0  -5   2  275.27   11.10
   0  -5   2  256.47   10.50
   0  -5   2  274.97   10.90
  -1   5  -2   44.30    2.30
  -1   5  -2   42.00    2.10
  -1   5  -2   44.20    2.10
  -1   5  -2   39.70    2.60
  -1   5  -2   43.10    2.50
  -1   5  -2   39.90    2.10
  -1   5  -2   44.30    2.30
   1  -5   2   40.20    2.10
   1  -5   2   43.90    2.10
   1  -5   2   43.80    2.30
   1  -5   2   40.80    2.00
   1  -5   2   47.30    2.40
   1  -5   2   43.90    2.10
   1  -5   2   43.20    2.10
   1  -5   2   45.60    2.20
  -2   5  -2    0.40    0.40
  -2   5  -2    0.90    0.50
  -2   5  -2    0.70    0.40
  -2   5  -2    2.00    0.50
  -2   5  -2    1.40    0.40
  -2   5  -2    1.10    0.40
  -2   5  -2    1.40    0.50
  -2   5  -2    1.10    0.40
   2  -5   2    1.20    0.40
   2  -5   2    1.70    0.40
   2  -5   2    1.70    0.50
   2  -5   2    1.30    0.30
   2  -5   2    1.60    0.50
   2  -5   2    1.50    0.40
   2  -5   2    0.80    0.40
  -3   5  -2  106.59    5.30
  -3   5  -2  105.99    4.90
  -3   5  -2  107.19    5.00
  -3   5  -2   97.89    5.10
  -3   5  -2  101.99    5.30
  -3   5  -2  107.69    5.00
   3  -5   2  110.59    5.00
   3  -5   2  105.79    4.80
   3  -5   2  110.99    4.60
   3  -5   2   98.59    4.80
   3  -5   2  113.59    4.90
  -4   5  -2   20.20    1.60
  -4   5  -2   18.30    1.90
  -4   5  -2   16.00    1.70
  -4   5  -2   17.20    2.00
  -4   5  -2   16.10    1.90
  -4   5  -2   15.40    1.90
   4  -5   2   17.20    1.60
   4  -5   2   19.70    1.40
   4  -5   2   18.30    1.50
   4  -5   2   22.30    1.70
   4  -5   2   19.40    1.70
  -5   5  -2   -0.20    0.50
  -5   5  -2    0.30    1.00
  -5   5  -2    0.00    0.80
  -5   5  -2    0.10    0.60
  -5   5  -2   -0.20    0.60
  -5   5  -2   -0.20    0.60
   5  -5   2    0.10    0.60
   5  -5   2   -1.40    0.60
   5  -5   2   -0.50    0.50
   5  -5   2   -1.00    0.60
   5  -5   2   -0.60    0.60
  -6   5  -2    2.60    1.30
  -6   5  -2    1.30    1.00
  -6   5  -2    1.30    0.90
  -6   5  -2    2.00    1.10
  -6   5  -2    2.10    0.90
  -6   5  -2    3.00    1.30
   6  -5   2    7.10    1.40
   6  -5   2    3.70    1.10
   6  -5   2    4.00    1.20
   6  -5   2    3.80    1.20
  -7   5  -2    0.20    1.00
  -7   5  -2   -0.90    1.20
  -7   5  -2    0.00    0.70
  -7   5  -2   -0.80    0.80
  -7   5  -2   -1.10    0.90
   7  -5   2    0.30    1.00
   7  -5   2   -0.20    0.70
   7  -5   2    0.40    1.00
   7  -5   2   -0.60    0.80
  -8   5  -2   -0.60    0.90
  -8   5  -2    2.20    1.70
  -8   5  -2    0.40    1.20
  -8   5  -2    1.90    1.50
   8  -5   2    1.60    1.30
   8  -5   2    0.20    1.20
   8  -5   2    0.40    1.20
   9   4  -2    1.80    1.60
   9   4  -2    2.20    1.50
   9   4  -2    0.30    1.60
  -9  -4   2   -0.50    1.40
  -9  -4   2   -0.80    2.00
  -9  -4   2    1.60    2.00
   8   4  -2   -0.50    1.00
   8   4  -2   -0.20    1.40
   8   4  -2   -0.20    1.30
   8   4  -2    0.50    1.40
   8   4  -2    0.70    1.40
  -8  -4   2   -0.60    1.10
  -8  -4   2    0.50    1.70
  -8  -4   2   -1.30    1.10
  -8  -4   2   -2.40    1.40
  -8  -4   2   -0.20    1.60
   7   4  -2    0.30    0.90
   7   4  -2    1.20    1.20
   7   4  -2   -0.40    1.00
   7   4  -2    1.80    1.30
   7   4  -2   -0.60    0.80
  -7  -4   2    0.80    1.50
  -7  -4   2    2.60    1.60
  -7  -4   2   -1.70    1.00
  -7  -4   2    1.90    1.10
  -7  -4   2    1.60    1.10
  -7  -4   2    1.50    0.90
   6   4  -2    1.00    1.00
   6   4  -2    0.00    0.80
   6   4  -2   -0.10    0.80
   6   4  -2   -0.60    0.50
  -6  -4   2   -0.40    0.80
  -6  -4   2   -0.60    0.90
  -6  -4   2    0.20    0.80
  -6  -4   2   -0.90    0.90
  -6  -4   2   -0.60    0.50
  -6  -4   2   -1.10    0.50
  -6  -4   2    0.30    0.70
   5   4  -2    0.70    0.60
   5   4  -2    0.00    0.50
   5   4  -2    0.30    0.50
   5   4  -2    0.00    0.90
  -5  -4   2    0.70    0.60
  -5  -4   2   -0.10    0.70
  -5  -4   2   -1.20    0.70
  -5  -4   2    0.20    0.80
  -5  -4   2    0.20    0.60
  -5  -4   2   -0.50    0.80
  -5  -4   2   -0.50    0.50
   4   4  -2   78.89    4.40
   4   4  -2   71.79    4.00
   4   4  -2   78.79    3.70
   4   4  -2   79.19    4.10
   4   4  -2   78.69    3.40
  -4  -4   2   78.69    4.40
  -4  -4   2   70.39    4.40
  -4  -4   2   75.89    3.70
  -4  -4   2   78.29    4.00
  -4  -4   2   80.19    3.50
  -4  -4   2   73.49    3.90
  -4  -4   2   72.99    4.20
  -4  -4   2   78.19    4.50
   3   4  -2    0.30    0.40
   3   4  -2    1.50    0.50
   3   4  -2    1.00    0.80
   3   4  -2    1.90    0.40
   3   4  -2    0.60    0.50
  -3  -4   2    0.60    0.40
  -3  -4   2    1.30    0.40
  -3  -4   2    1.00    0.50
  -3  -4   2    0.40    0.40
  -3  -4   2    0.10    0.50
  -3  -4   2    0.80    0.50
  -3  -4   2    1.70    0.60
  -3  -4   2    1.30    0.30
  -3  -4   2    1.20    0.30
   2   4  -2   -0.20    0.30
   2   4  -2   -0.20    0.20
   2   4  -2   -0.10    0.20
   2   4  -2    0.00    0.30
  -2  -4   2    0.00    0.30
  -2  -4   2   -0.20    0.30
  -2  -4   2   -0.70    0.30
  -2  -4   2   -0.10    0.30
  -2  -4   2    0.00    0.10
  -2  -4   2    0.00    0.40
  -2  -4   2    0.00    0.30
  -2  -4   2   -0.10    0.30
   1   4  -2   52.59    2.60
   1   4  -2   55.09    2.50
   1   4  -2   49.30    2.60
   1   4  -2   49.40    2.60
   1   4  -2   57.09    2.10
  -1  -4   2   50.09    2.10
  -1  -4   2   47.10    2.70
  -1  -4   2   52.99    2.70
  -1  -4   2   49.40    2.70
  -1  -4   2   50.49    2.00
  -1  -4   2   54.29    2.60
  -1  -4   2   57.99    2.60
  -1  -4   2   48.70    2.30
  -1  -4   2   51.39    2.70
   0   4  -2  126.89    5.40
   0   4  -2  127.29    5.50
   0   4  -2  128.09    5.50
   0   4  -2  132.19    5.70
   0   4  -2  127.29    5.20
   0   4  -2  127.19    5.30
   0  -4   2  128.19    5.40
   0  -4   2  133.79    5.50
   0  -4   2  136.19    5.60
   0  -4   2  125.69    5.10
   0  -4   2  131.89    5.50
   0  -4   2  128.89    5.60
   0  -4   2  131.29    5.20
  -1   4  -2    1.20    0.40
  -1   4  -2    1.90    0.40
  -1   4  -2    1.90    0.40
  -1   4  -2    1.80    0.40
  -1   4  -2    1.30    0.50
  -1   4  -2    0.80    0.30
  -1   4  -2    1.20    0.40
  -1   4  -2    1.50    0.40
   1  -4   2    1.50    0.30
   1  -4   2    2.40    0.40
   1  -4   2    2.00    0.40
   1  -4   2    2.50    0.50
   1  -4   2    2.50    0.40
   1  -4   2    2.60    0.40
   1  -4   2    2.20    0.40
   1  -4   2    1.90    0.40
  -2   4  -2    4.30    0.70
  -2   4  -2    3.10    0.70
  -2   4  -2    4.70    0.70
  -2   4  -2    3.70    0.80
  -2   4  -2    3.50    0.50
  -2   4  -2    3.00    0.60
  -2   4  -2    2.80    0.60
   2  -4   2    4.00    0.60
   2  -4   2    4.30    0.60
   2  -4   2    2.80    0.50
   2  -4   2    4.00    0.40
   2  -4   2    3.80    0.60
   2  -4   2    3.20    0.60
  -3   4  -2    0.80    0.50
  -3   4  -2    1.00    0.40
  -3   4  -2    1.20    0.50
  -3   4  -2    1.10    0.60
  -3   4  -2    0.80    0.50
  -3   4  -2    1.70    0.70
   3  -4   2    1.00    0.50
   3  -4   2    2.30    0.40
   3  -4   2    1.70    0.50
   3  -4   2    1.50    0.50
   3  -4   2    0.40    0.40
   3  -4   2    1.30    0.50
  -4   4  -2    1.10    0.60
  -4   4  -2    0.00    0.60
  -4   4  -2    0.70    0.60
  -4   4  -2    1.40    0.70
  -4   4  -2    0.60    0.60
  -4   4  -2    0.70    0.70
   4  -4   2    0.50    0.50
   4  -4   2    1.10    0.60
   4  -4   2    1.10    0.50
   4  -4   2    1.60    0.60
   4  -4   2    0.90    0.60
  -5   4  -2    2.20    0.80
  -5   4  -2    2.00    1.10
  -5   4  -2    3.60    0.90
  -5   4  -2    2.40    0.90
  -5   4  -2    3.40    1.00
  -5   4  -2    1.30    0.80
   5  -4   2    2.90    0.80
   5  -4   2    2.90    0.90
   5  -4   2    0.60    0.80
   5  -4   2    2.60    1.00
   5  -4   2    2.40    0.80
  -6   4  -2    1.30    1.00
  -6   4  -2    2.50    1.10
  -6   4  -2    2.60    1.00
  -6   4  -2    1.80    1.00
  -6   4  -2    1.10    1.00
   6  -4   2    1.30    1.00
   6  -4   2    2.90    1.20
   6  -4   2    2.10    1.00
   6  -4   2    1.50    0.80
   6  -4   2    1.50    0.80
  -7   4  -2   -0.50    1.10
  -7   4  -2    2.30    1.10
  -7   4  -2    3.60    1.60
  -7   4  -2    4.00    1.50
  -7   4  -2    2.50    1.20
   7  -4   2    2.10    1.10
   7  -4   2    2.90    1.20
   7  -4   2    0.20    1.00
   7  -4   2    2.60    1.00
  -8   4  -2    3.00    1.60
  -8   4  -2    1.70    1.60
  -8   4  -2    0.80    1.50
  -8   4  -2    3.80    1.50
   8  -4   2    2.00    1.30
   8  -4   2    2.00    1.40
   8  -4   2   -0.20    1.40
  -9   4  -2    0.70    1.70
  -9   4  -2   -0.30    1.50
  -9   4  -2    0.40    1.80
   9  -4   2   -1.20    1.40
   9  -4   2    0.00    1.20
   9  -4   2    1.40    1.50
   9   3  -2   -0.80    1.50
   9   3  -2    0.10    1.20
   9   3  -2    0.70    1.50
  -9  -3   2    1.00    1.80
  -9  -3   2    2.70    2.20
  -9  -3   2    0.80    1.50
   8   3  -2    3.40    1.30
   8   3  -2    2.50    1.50
   8   3  -2    1.30    1.60
   8   3  -2    6.50    1.70
   8   3  -2    2.80    1.50
  -8  -3   2    3.70    1.20
  -8  -3   2    3.20    1.60
  -8  -3   2    2.50    1.60
  -8  -3   2    2.50    1.50
  -8  -3   2    2.30    1.70
  -8  -3   2    4.20    2.00
   7   3  -2    6.40    1.60
   7   3  -2    6.10    1.40
   7   3  -2    4.70    1.60
   7   3  -2    8.80    1.80
   7   3  -2    8.30    1.70
   7   3  -2    7.00    1.40
  -7  -3   2    4.80    1.30
  -7  -3   2    7.30    1.90
  -7  -3   2    8.80    1.90
  -7  -3   2    6.70    1.40
  -7  -3   2    6.00    1.80
  -7  -3   2    6.90    1.40
  -7  -3   2    5.60    1.80
   6   3  -2   -0.40    0.60
   6   3  -2   -1.60    0.70
   6   3  -2    0.20    0.80
   6   3  -2    0.60    0.60
   6   3  -2    1.50    1.00
  -6  -3   2   -0.70    0.90
  -6  -3   2   -0.30    0.50
  -6  -3   2   -0.10    0.60
  -6  -3   2    0.50    0.70
  -6  -3   2    0.40    0.70
  -6  -3   2   -0.60    0.50
  -6  -3   2    0.00    0.60
  -6  -3   2    0.70    0.90
  -6  -3   2    0.10    0.50
   5   3  -2   21.10    1.50
   5   3  -2   18.00    1.90
   5   3  -2   19.40    2.20
   5   3  -2   23.20    2.10
  -5  -3   2   15.90    2.10
  -5  -3   2   15.20    1.30
  -5  -3   2   18.40    2.20
  -5  -3   2   16.30    1.70
  -5  -3   2   17.00    1.40
  -5  -3   2   19.20    1.60
  -5  -3   2   16.30    2.00
  -5  -3   2   17.60    1.40
  -5  -3   2   15.70    1.70
  -5  -3   2   18.40    2.10
  -5  -3   2   18.60    1.40
   4   3  -2   63.19    2.90
   4   3  -2   60.69    3.40
   4   3  -2   66.69    3.10
   4   3  -2   61.59    3.30
   4   3  -2   64.79    3.00
  -4  -3   2   57.59    3.00
  -4  -3   2   66.09    3.00
  -4  -3   2   59.19    3.60
  -4  -3   2   59.79    3.50
  -4  -3   2   57.39    3.20
  -4  -3   2   61.29    3.00
  -4  -3   2   64.49    2.90
  -4  -3   2   61.19    3.00
  -4  -3   2   60.19    3.00
  -4  -3   2   53.39    3.50
  -4  -3   2   57.79    3.50
  -4  -3   2   62.19    3.30
   3   3  -2   42.10    2.40
   3   3  -2   42.90    2.10
   3   3  -2   39.40    2.00
   3   3  -2   42.10    2.30
   3   3  -2   38.70    1.90
  -3  -3   2   39.90    1.90
  -3  -3   2   39.10    2.00
  -3  -3   2   38.90    2.40
  -3  -3   2   35.40    2.40
  -3  -3   2   34.80    2.40
  -3  -3   2   39.70    2.20
  -3  -3   2   38.60    2.20
  -3  -3   2   43.30    2.00
  -3  -3   2   36.50    2.40
  -3  -3   2   38.60    1.90
  -3  -3   2   41.20    1.90
  -3  -3   2   37.00    2.00
   2   3  -2    1.10    0.30
   2   3  -2    1.20    0.40
   2   3  -2    0.80    0.30
   2   3  -2    1.10    0.40
  -2  -3   2    0.20    0.30
  -2  -3   2    0.90    0.40
  -2  -3   2    0.60    0.30
  -2  -3   2    0.50    0.30
  -2  -3   2    0.10    0.30
  -2  -3   2    0.30    0.20
  -2  -3   2    0.20    0.10
  -2  -3   2    0.20    0.30
  -2  -3   2    0.30    0.20
   1   3  -2  286.77   11.90
   1   3  -2  309.37   11.90
   1   3  -2  284.47   11.90
   1   3  -2  318.57   11.70
  -1  -3   2  305.67   11.90
  -1  -3   2  289.87   12.00
  -1  -3   2  299.67   11.90
  -1  -3   2  298.67   11.80
  -1  -3   2  302.97   11.90
  -1  -3   2  288.77   12.00
   0   3  -2    8.20    0.70
   0   3  -2    9.30    0.80
   0   3  -2    9.00    0.60
   0   3  -2    9.40    0.70
   0   3  -2    8.70    0.50
   0   3  -2   10.00    0.70
   0  -3   2   10.90    0.80
   0  -3   2    9.40    0.70
   0  -3   2   10.60    0.70
   0  -3   2    9.40    0.60
   0  -3   2   10.90    0.70
   0  -3   2    9.50    0.70
   0  -3   2    9.20    0.60
   0  -3   2    8.90    0.50
  -1   3  -2  200.68    8.40
  -1   3  -2  209.88    8.50
  -1   3  -2  213.48    8.30
  -1   3  -2  207.98    8.20
  -1   3  -2  198.18    8.50
  -1   3  -2  202.68    8.30
  -1   3  -2  212.78    8.30
   1  -3   2  199.78    8.40
   1  -3   2  196.08    8.20
   1  -3   2  215.28    8.30
   1  -3   2  223.58    8.40
   1  -3   2  220.68    8.20
  -2   3  -2    1.80    0.40
  -2   3  -2    1.20    0.40
  -2   3  -2    1.30    0.40
  -2   3  -2    2.10    0.50
  -2   3  -2    0.80    0.40
  -2   3  -2    1.10    0.40
   2  -3   2    1.30    0.40
   2  -3   2    1.00    0.30
   2  -3   2    1.90    0.50
   2  -3   2    1.40    0.40
  -3   3  -2   12.70    1.30
  -3   3  -2   12.00    1.20
  -3   3  -2   11.90    1.30
  -3   3  -2   14.40    1.40
  -3   3  -2   10.40    1.20
  -3   3  -2   13.20    1.30
   3  -3   2   11.60    1.20
   3  -3   2   10.50    0.90
   3  -3   2   10.60    1.10
   3  -3   2   12.60    1.10
   3  -3   2   13.30    1.10
  -4   3  -2    0.50    0.50
  -4   3  -2    1.10    0.60
  -4   3  -2    1.60    0.80
  -4   3  -2    0.60    0.60
  -4   3  -2    0.90    0.60
  -4   3  -2   -0.30    0.40
   4  -3   2    2.20    0.60
   4  -3   2    1.00    0.70
   4  -3   2    1.30    0.70
   4  -3   2    2.00    0.80
   4  -3   2    0.80    0.50
  -5   3  -2    5.90    1.30
  -5   3  -2    7.60    1.30
  -5   3  -2    4.30    1.00
  -5   3  -2    7.20    1.20
  -5   3  -2    7.40    1.30
  -5   3  -2    7.90    1.50
  -5   3  -2    6.60    1.40
   5  -3   2    4.50    1.00
   5  -3   2    6.20    1.10
   5  -3   2    8.10    1.40
   5  -3   2    5.80    1.10
  -6   3  -2  133.29    6.40
  -6   3  -2  129.09    7.10
  -6   3  -2  119.39    6.40
  -6   3  -2  110.99    6.30
  -6   3  -2  126.59    6.40
  -6   3  -2  126.09    6.30
   6  -3   2  113.49    5.90
   6  -3   2  122.09    6.00
   6  -3   2  124.59    6.40
   6  -3   2  129.69    6.40
   6  -3   2  135.49    6.20
  -7   3  -2    7.80    1.70
  -7   3  -2   12.80    2.10
  -7   3  -2   10.90    2.40
  -7   3  -2   10.80    2.00
  -7   3  -2   14.40    2.20
  -7   3  -2   11.10    1.90
   7  -3   2   12.70    1.80
   7  -3   2   13.00    1.80
   7  -3   2   11.90    2.00
   7  -3   2   10.90    1.90
   7  -3   2   11.20    1.80
  -8   3  -2   56.19    4.20
  -8   3  -2   39.00    4.00
  -8   3  -2   51.49    4.10
  -8   3  -2   51.29    4.20
   8  -3   2   61.19    4.20
   8  -3   2   46.10    3.60
   8  -3   2   51.09    4.00
   8  -3   2   58.09    3.80
  -9   3  -2    0.80    1.50
  -9   3  -2    4.10    1.90
  -9   3  -2   -1.10    1.50
   9  -3   2    1.80    1.10
   9  -3   2    1.50    1.60
   9   2  -2    0.80    1.20
   9   2  -2    1.50    1.50
   9   2  -2    1.70    1.60
  -9  -2   2    0.20    1.70
  -9  -2   2    1.00    1.80
  -9  -2   2    3.30    2.00
   8   2  -2    1.60    1.40
   8   2  -2    4.20    1.30
   8   2  -2    0.70    1.30
   8   2  -2    2.90    1.40
   8   2  -2    2.30    1.30
  -8  -2   2    3.60    1.40
  -8  -2   2    0.90    1.20
  -8  -2   2    1.30    1.40
  -8  -2   2    1.30    1.50
  -8  -2   2    0.60    1.50
   7   2  -2    0.40    1.00
   7   2  -2   -1.00    0.90
   7   2  -2   -0.20    0.80
   7   2  -2   -0.20    0.70
   7   2  -2   -0.70    0.90
   7   2  -2   -0.20    0.90
   7   2  -2   -0.10    0.70
  -7  -2   2   -1.90    0.90
  -7  -2   2    2.10    1.00
  -7  -2   2    1.70    1.10
  -7  -2   2    1.20    1.10
  -7  -2   2    0.60    0.60
  -7  -2   2    0.00    0.60
  -7  -2   2   -0.30    0.70
  -7  -2   2    0.40    1.10
  -7  -2   2   -0.50    0.60
   6   2  -2    4.80    0.90
   6   2  -2    3.10    0.90
   6   2  -2    2.40    1.00
   6   2  -2    2.40    1.20
   6   2  -2    5.20    1.30
   6   2  -2    5.90    1.20
   6   2  -2    2.70    1.10
   6   2  -2    4.00    0.90
  -6  -2   2    3.80    0.90
  -6  -2   2    2.20    1.00
  -6  -2   2    4.70    1.00
  -6  -2   2    3.30    0.90
  -6  -2   2    1.70    1.10
  -6  -2   2    3.60    0.90
  -6  -2   2    4.40    1.00
  -6  -2   2    3.50    1.10
  -6  -2   2    3.10    1.10
  -6  -2   2    3.50    0.90
  -6  -2   2    3.90    1.30
  -6  -2   2    1.80    1.10
   5   2  -2   50.59    2.70
   5   2  -2   51.39    2.50
   5   2  -2   48.50    2.70
   5   2  -2   46.40    2.70
   5   2  -2   53.89    2.90
   5   2  -2   49.80    3.10
   5   2  -2   46.10    3.00
   5   2  -2   50.49    2.90
   5   2  -2   44.90    3.00
  -5  -2   2   43.90    3.00
  -5  -2   2   49.30    2.60
  -5  -2   2   49.20    2.80
  -5  -2   2   49.00    3.30
  -5  -2   2   45.90    3.20
  -5  -2   2   47.40    2.80
  -5  -2   2   46.70    2.60
  -5  -2   2   49.99    2.80
  -5  -2   2   45.90    2.70
  -5  -2   2   48.30    2.80
  -5  -2   2   44.80    2.60
  -5  -2   2   43.00    3.20
   4   2  -2   40.90    2.10
   4   2  -2   42.70    2.50
   4   2  -2   42.50    2.30
   4   2  -2   43.10    2.30
   4   2  -2   39.10    2.50
   4   2  -2   42.80    2.30
   4   2  -2   40.50    2.60
  -4  -2   2   42.00    2.30
  -4  -2   2   40.90    2.60
  -4  -2   2   38.00    2.70
  -4  -2   2   39.60    2.20
  -4  -2   2   40.70    2.20
  -4  -2   2   40.90    2.30
  -4  -2   2   37.40    2.70
  -4  -2   2   40.70    2.40
  -4  -2   2   42.20    2.30
  -4  -2   2   41.60    2.20
  -4  -2   2   40.80    2.60
  -4  -2   2   43.90    2.30
   3   2  -2    2.60    0.60
   3   2  -2    1.60    0.50
   3   2  -2    2.20    0.40
   3   2  -2    2.50    0.50
   3   2  -2    1.30    0.50
   3   2  -2    1.50    0.40
  -3  -2   2    1.90    0.50
  -3  -2   2    2.10    0.50
  -3  -2   2    1.30    0.50
  -3  -2   2    2.10    0.70
  -3  -2   2    1.50    0.40
  -3  -2   2    1.90    0.50
  -3  -2   2    1.80    0.50
  -3  -2   2    2.70    0.40
  -3  -2   2    2.00    0.50
  -3  -2   2    0.70    0.50
  -3  -2   2    1.60    0.50
  -3  -2   2    1.20    0.30
   2   2  -2  143.09    5.40
   2   2  -2  143.79    5.80
   2   2  -2  145.49    5.70
   2   2  -2  137.19    5.60
   2   2  -2  144.29    6.00
  -2  -2   2  137.89    5.90
  -2  -2   2  139.69    5.50
  -2  -2   2  136.99    5.70
  -2  -2   2  135.59    5.80
  -2  -2   2  134.29    5.90
  -2  -2   2  142.89    5.70
  -2  -2   2  133.09    5.80
  -2  -2   2  132.49    5.90
  -2  -2   2  135.09    5.50
  -2  -2   2  136.69    6.00
  -2  -2   2  135.99    5.60
   1   2  -2  448.06   18.00
   1   2  -2  482.15   17.50
   1   2  -2  475.35   17.90
   1   2  -2  467.85   17.50
   1   2  -2  483.45   17.80
  -1  -2   2  448.16   17.90
  -1  -2   2  465.55   18.00
  -1  -2   2  450.75   18.00
  -1  -2   2  464.15   17.90
  -1  -2   2  455.55   17.90
  -1  -2   2  437.06   18.00
  -1  -2   2  465.35   17.90
   0   2  -2  329.47   13.30
   0   2  -2  340.07   13.30
   0   2  -2  348.77   13.30
   0   2  -2  332.57   13.10
   0   2  -2  322.57   13.30
   0  -2   2  354.76   13.30
   0  -2   2  352.36   13.30
   0  -2   2  347.17   13.30
   0  -2   2  352.96   13.30
   0  -2   2  350.06   13.30
  -1   2  -2  146.69    6.20
  -1   2  -2  149.88    6.00
  -1   2  -2  152.58    6.10
  -1   2  -2  150.58    6.10
  -1   2  -2  146.09    5.90
  -1   2  -2  154.78    6.20
  -1   2  -2  153.28    6.10
   1  -2   2  157.98    5.80
   1  -2   2  149.99    6.00
   1  -2   2  149.29    6.00
   1  -2   2  151.38    6.00
   1  -2   2  144.09    6.10
   1  -2   2  143.89    6.10
  -2   2  -2  277.27   10.70
  -2   2  -2  258.57   10.70
  -2   2  -2  259.97   10.80
  -2   2  -2  267.47   10.90
  -2   2  -2  273.07   10.80
  -2   2  -2  280.97   10.80
   2  -2   2  268.37   10.80
   2  -2   2  269.27   10.60
   2  -2   2  262.37   10.70
   2  -2   2  270.47   10.80
  -3   2  -2  312.87   12.10
  -3   2  -2  285.87   11.90
  -3   2  -2  313.97   12.20
  -3   2  -2  310.87   12.10
  -3   2  -2  296.47   12.20
  -3   2  -2  269.27   12.40
  -3   2  -2  291.67   12.20
  -3   2  -2  294.77   12.60
   3  -2   2  295.07   11.30
   3  -2   2  303.17   11.90
   3  -2   2  294.67   12.00
   3  -2   2  297.17   11.40
   3  -2   2  302.87   12.20
   3  -2   2  293.47   12.20
  -4   2  -2  749.03   33.00
  -4   2  -2  897.31   33.50
  -4   2  -2  855.01   33.50
  -4   2  -2  863.11   33.50
  -4   2  -2  856.41   33.50
  -4   2  -2  815.72   34.00
  -4   2  -2  855.91   33.30
  -4   2  -2  809.12   33.90
   4  -2   2  903.41   33.30
   4  -2   2  860.41   33.50
   4  -2   2  907.51   33.40
   4  -2   2  871.01   33.60
  -5   2  -2   90.29    4.80
  -5   2  -2   90.59    5.30
  -5   2  -2   83.19    4.60
  -5   2  -2   77.49    5.00
  -5   2  -2   87.09    4.60
  -5   2  -2   87.69    4.60
   5  -2   2   98.19    4.90
   5  -2   2   80.29    4.60
   5  -2   2   93.99    4.60
   5  -2   2   94.09    4.50
  -6   2  -2   40.30    3.10
  -6   2  -2   42.90    3.10
  -6   2  -2   39.70    3.50
  -6   2  -2   45.30    3.10
  -6   2  -2   37.30    3.00
  -6   2  -2   44.30    3.60
  -6   2  -2   46.80    3.30
   6  -2   2   43.30    2.90
   6  -2   2   44.10    3.20
   6  -2   2   45.30    3.20
   6  -2   2   47.80    3.30
  -7   2  -2    1.50    1.40
  -7   2  -2    2.80    1.30
  -7   2  -2   -0.70    0.90
  -7   2  -2   -0.80    0.70
  -7   2  -2    0.20    0.70
  -7   2  -2    0.60    1.30
   7  -2   2    1.60    1.20
   7  -2   2    0.20    0.90
   7  -2   2   -0.50    1.00
   7  -2   2    0.60    1.10
  -8   2  -2   -0.60    1.20
  -8   2  -2    1.90    1.80
  -8   2  -2    2.20    1.30
  -8   2  -2    0.40    1.30
  -8   2  -2    1.10    1.10
  -8   2  -2    1.30    1.40
   8  -2   2    0.60    0.90
   8  -2   2    1.40    1.30
   8  -2   2   -0.20    0.90
   8  -2   2    0.00    0.90
   8  -2   2   -0.10    1.40
  -9   2  -2    0.30    1.50
  -9   2  -2   -0.40    1.80
  -9   2  -2    1.80    1.30
  -9   2  -2    0.40    1.60
   9  -2   2    1.00    1.60
   9  -2   2    0.10    1.30
   9   1  -2   -1.20    1.50
   9   1  -2    1.00    1.50
   9   1  -2    0.40    1.10
  -9  -1   2    1.10    1.50
  -9  -1   2    0.10    1.80
  -9  -1   2   -0.50    1.70
  -9  -1   2    0.70    1.80
   8   1  -2   -0.30    1.10
   8   1  -2    2.90    1.10
   8   1  -2    1.00    1.40
   8   1  -2    2.20    1.20
   8   1  -2    2.40    1.00
   8   1  -2    2.40    1.10
  -8  -1   2    3.00    1.20
  -8  -1   2   -0.20    1.00
  -8  -1   2    1.10    1.50
  -8  -1   2    3.40    1.60
  -8  -1   2    2.30    1.50
  -8  -1   2    1.30    1.10
  -8  -1   2    1.40    1.40
   7   1  -2    3.30    1.00
   7   1  -2    2.00    1.10
   7   1  -2    4.10    1.30
   7   1  -2    3.10    1.20
   7   1  -2    2.20    1.20
   7   1  -2    2.10    0.80
   7   1  -2    3.10    1.20
   7   1  -2    1.90    0.90
  -7  -1   2    3.10    1.00
  -7  -1   2    1.00    1.10
  -7  -1   2    2.40    0.80
  -7  -1   2    4.40    1.40
  -7  -1   2    3.80    1.10
  -7  -1   2    3.90    1.30
  -7  -1   2    3.00    1.00
  -7  -1   2    1.90    1.10
  -7  -1   2    3.70    1.30
  -7  -1   2    4.20    1.20
   6   1  -2   21.80    2.30
   6   1  -2   21.60    1.80
   6   1  -2   23.90    2.30
   6   1  -2   22.30    1.70
   6   1  -2   23.00    2.30
   6   1  -2   23.10    2.10
   6   1  -2   19.40    1.90
   6   1  -2   20.90    1.80
   6   1  -2   19.80    2.20
  -6  -1   2   22.10    1.70
  -6  -1   2   18.10    2.30
  -6  -1   2   20.30    1.90
  -6  -1   2   20.40    2.10
  -6  -1   2   16.40    2.20
  -6  -1   2   20.90    1.70
  -6  -1   2   12.90    2.00
  -6  -1   2   21.20    2.30
  -6  -1   2   20.70    1.70
  -6  -1   2   21.90    1.80
  -6  -1   2   24.60    2.20
  -6  -1   2   23.70    2.20
   5   1  -2   35.90    2.20
   5   1  -2   31.20    2.20
   5   1  -2   30.60    1.90
   5   1  -2   30.80    2.00
   5   1  -2   32.50    2.30
   5   1  -2   29.80    2.20
   5   1  -2   30.00    2.10
   5   1  -2   30.40    2.30
   5   1  -2   33.70    2.20
  -5  -1   2   34.40    2.10
  -5  -1   2   29.90    2.00
  -5  -1   2   27.20    2.30
  -5  -1   2   29.70    2.20
  -5  -1   2   29.00    2.20
  -5  -1   2   27.40    2.40
  -5  -1   2   33.20    2.30
  -5  -1   2   29.00    2.00
  -5  -1   2   33.30    2.00
  -5  -1   2   32.30    2.00
  -5  -1   2   28.70    2.40
  -5  -1   2   30.50    2.00
   4   1  -2   12.80    1.40
   4   1  -2   15.10    1.40
   4   1  -2   15.00    1.50
   4   1  -2   11.60    1.00
   4   1  -2   14.70    1.40
   4   1  -2   12.90    1.30
   4   1  -2   11.70    1.20
  -4  -1   2   12.70    1.00
  -4  -1   2   13.00    1.30
  -4  -1   2   11.70    1.20
  -4  -1   2   13.70    1.50
  -4  -1   2   15.50    1.50
  -4  -1   2   14.10    1.10
  -4  -1   2    9.30    1.20
  -4  -1   2   13.60    1.60
  -4  -1   2   15.60    1.60
  -4  -1   2   13.20    1.10
  -4  -1   2   11.00    1.10
  -4  -1   2   14.90    1.30
   3   1  -2   18.30    1.30
   3   1  -2   17.60    1.20
   3   1  -2   17.00    1.20
   3   1  -2   16.30    1.00
   3   1  -2   18.20    1.30
  -3  -1   2   16.80    1.30
  -3  -1   2   17.30    1.30
  -3  -1   2   15.90    1.10
  -3  -1   2   17.10    1.10
  -3  -1   2   15.70    1.20
  -3  -1   2   16.10    1.30
  -3  -1   2   18.40    1.20
  -3  -1   2   15.30    1.10
  -3  -1   2   16.80    1.30
  -3  -1   2   18.00    1.10
  -3  -1   2   17.40    1.20
  -3  -1   2   19.00    1.30
   2   1  -2    0.20    0.10
   2   1  -2    0.20    0.20
   2   1  -2    0.30    0.30
   2   1  -2    0.20    0.20
   2   1  -2    0.20    0.20
   2   1  -2    0.10    0.20
  -2  -1   2   -0.10    0.10
  -2  -1   2   -0.10    0.20
  -2  -1   2   -0.10    0.20
  -2  -1   2    0.30    0.20
  -2  -1   2    0.10    0.20
  -2  -1   2   -0.30    0.20
  -2  -1   2    0.10    0.20
  -2  -1   2    0.70    0.20
  -2  -1   2    0.40    0.20
  -2  -1   2    0.20    0.20
  -2  -1   2    0.20    0.20
  -2  -1   2   -0.30    0.30
   1   1  -2 1205.38   48.10
   1   1  -2 1371.06   47.90
   1   1  -2 1302.27   48.10
  -1  -1   2 1269.07   48.10
  -1  -1   2 1256.87   48.10
  -1  -1   2 1245.28   48.10
  -1  -1   2 1220.58   48.10
  -1  -1   2 1302.97   48.00
  -1  -1   2 1259.57   48.00
  -1  -1   2 1168.58   48.00
   0   1  -2 1283.17   49.10
   0  -1   2 1103.79   49.50
   0  -1   2 1325.17   49.10
   0  -1   2 1358.86   49.20
   0  -1   2 1387.96   49.20
  -1   1  -2 2047.30   82.09
  -1   1  -2 2129.19   82.09
  -1   1  -2 2213.48   82.39
  -1   1  -2 2088.59   82.19
  -1   1  -2 2166.68   82.09
  -1   1  -2 2191.08   82.39
  -1   1  -2 2149.39   82.09
   1  -1   2 2093.69   82.19
   1  -1   2 2233.38   81.99
   1  -1   2 2221.38   82.19
   1  -1   2 2135.69   82.19
   1  -1   2 2255.77   82.19
  -2   1  -2    0.40    0.30
  -2   1  -2   -0.10    0.20
  -2   1  -2    0.00    0.20
  -2   1  -2    0.10    0.30
  -2   1  -2    0.00    0.30
  -2   1  -2    0.40    0.30
  -2   1  -2    0.00    0.40
   2  -1   2    0.40    0.40
   2  -1   2    0.10    0.40
   2  -1   2   -0.20    0.20
   2  -1   2    0.60    0.40
  -3   1  -2   24.00    2.00
  -3   1  -2   28.00    2.10
  -3   1  -2   27.50    1.90
  -3   1  -2   24.90    1.40
  -3   1  -2   28.80    1.70
  -3   1  -2   26.10    1.60
  -3   1  -2   26.30    1.70
  -3   1  -2   25.70    1.70
  -3   1  -2   26.50    1.70
   3  -1   2   27.70    1.90
   3  -1   2   28.10    1.50
   3  -1   2   30.00    1.90
   3  -1   2   30.30    1.80
   3  -1   2   26.20    1.40
   3  -1   2   27.90    1.80
  -4   1  -2   15.00    1.50
  -4   1  -2   14.60    1.40
  -4   1  -2   13.00    1.40
  -4   1  -2   16.00    1.50
  -4   1  -2   12.60    1.60
  -4   1  -2   10.10    1.60
  -4   1  -2   10.60    1.30
  -4   1  -2   10.80    1.00
  -4   1  -2   12.50    1.80
   4  -1   2   13.90    1.50
   4  -1   2   14.70    1.70
   4  -1   2   12.50    1.10
   4  -1   2   11.10    1.40
   4  -1   2   13.10    1.40
   4  -1   2   12.90    1.00
  -5   1  -2    1.00    0.70
  -5   1  -2   -0.10    0.60
  -5   1  -2    0.30    0.80
  -5   1  -2    1.10    0.60
  -5   1  -2    0.00    0.80
  -5   1  -2    1.10    0.70
  -5   1  -2    1.40    0.70
  -5   1  -2    1.50    0.70
   5  -1   2    1.90    0.90
   5  -1   2    0.70    0.70
   5  -1   2    1.80    0.90
   5  -1   2    1.70    0.90
  -6   1  -2    9.00    1.80
  -6   1  -2    7.90    1.40
  -6   1  -2    5.50    1.60
  -6   1  -2    5.00    1.30
  -6   1  -2    9.60    1.50
  -6   1  -2    8.10    1.90
  -6   1  -2   10.40    1.60
   6  -1   2    5.90    1.40
   6  -1   2    6.40    1.40
   6  -1   2    8.50    1.60
   6  -1   2    7.20    1.50
  -7   1  -2   -0.80    0.90
  -7   1  -2   -0.40    1.20
  -7   1  -2   -0.30    0.90
  -7   1  -2   -1.70    0.70
  -7   1  -2    0.20    0.90
  -7   1  -2    1.40    0.90
  -7   1  -2    0.80    1.30
   7  -1   2   -0.60    1.00
   7  -1   2    0.20    0.80
   7  -1   2    0.40    1.10
  -8   1  -2   -2.50    1.00
  -8   1  -2   -0.30    1.60
  -8   1  -2   -2.00    1.20
  -8   1  -2    0.20    1.20
  -8   1  -2   -0.30    1.70
  -8   1  -2   -0.90    1.00
   8  -1   2   -0.50    1.30
   8  -1   2   -2.40    1.10
   8  -1   2    0.10    1.20
   8  -1   2   -1.20    1.20
  -9   1  -2   -2.10    1.20
  -9   1  -2    0.50    2.00
  -9   1  -2   -0.10    1.80
   9  -1   2    0.60    1.60
   9  -1   2    0.10    1.60
   9  -1   2    0.30    1.30
   9   0  -2    3.00    1.70
   9   0  -2    2.50    1.10
   9   0  -2    3.20    1.60
   9   0  -2    3.20    1.30
   9   0  -2    3.80    1.20
  -9   0   2    5.60    2.20
  -9   0   2    3.20    1.40
  -9   0   2    5.00    1.80
  -9   0   2    6.30    1.80
  -9   0   2    4.60    2.20
   8   0  -2    0.00    0.90
   8   0  -2    0.00    1.10
   8   0  -2    0.40    0.80
   8   0  -2    0.70    1.00
   8   0  -2   -0.10    1.10
   8   0  -2   -0.70    0.90
  -8   0   2   -0.70    0.70
  -8   0   2    2.10    1.10
  -8   0   2    2.00    1.40
  -8   0   2    0.90    1.10
  -8   0   2    0.40    1.30
  -8   0   2    2.00    1.30
  -8   0   2   -0.40    1.20
   7   0  -2    3.00    1.30
   7   0  -2    4.30    1.00
   7   0  -2    3.40    1.30
   7   0  -2    4.50    1.10
   7   0  -2    3.00    1.10
   7   0  -2    3.30    1.00
  -7   0   2    2.90    1.30
  -7   0   2    4.20    1.30
  -7   0   2    3.20    1.40
  -7   0   2    4.80    1.20
  -7   0   2    2.90    1.10
  -7   0   2    3.70    1.00
  -7   0   2    3.20    1.40
  -7   0   2    2.50    1.10
  -7   0   2    3.60    1.40
   6   0  -2    1.30    0.60
   6   0  -2    0.30    0.70
   6   0  -2    1.60    0.70
   6   0  -2    0.50    0.90
   6   0  -2    2.10    0.90
   6   0  -2    0.90    0.60
   6   0  -2    0.90    0.60
   6   0  -2    2.30    0.80
   6   0  -2    1.00    0.60
  -6   0   2    0.50    0.80
  -6   0   2    0.60    0.80
  -6   0   2    4.30    1.20
  -6   0   2    1.60    0.70
  -6   0   2    1.40    0.60
  -6   0   2    0.60    0.90
  -6   0   2    1.90    0.60
  -6   0   2    1.70    0.80
  -6   0   2    0.30    0.80
  -6   0   2    0.90    0.80
  -6   0   2   -0.10    0.80
  -6   0   2    0.50    0.60
   5   0  -2    0.50    0.60
   5   0  -2   -0.70    0.50
   5   0  -2   -0.40    0.50
   5   0  -2   -0.10    0.40
   5   0  -2    0.30    0.40
   5   0  -2   -0.30    0.30
   5   0  -2    0.80    0.60
   5   0  -2   -0.20    0.50
   5   0  -2   -0.60    0.30
  -5   0   2    0.60    0.50
  -5   0   2   -0.40    0.60
  -5   0   2    0.30    0.50
  -5   0   2    1.10    0.60
  -5   0   2   -0.50    0.50
  -5   0   2    0.00    0.50
  -5   0   2   -0.10    0.40
  -5   0   2   -0.10    0.30
  -5   0   2    0.10    0.70
  -5   0   2   -0.10    0.30
  -5   0   2   -0.20    0.50
  -5   0   2    0.30    0.60
   4   0  -2  242.08    9.50
   4   0  -2  240.98    9.50
   4   0  -2  227.88    9.70
   4   0  -2  248.18    9.60
   4   0  -2  222.98    9.70
   4   0  -2  218.48    9.70
   4   0  -2  249.08    9.80
  -4   0   2  234.48    9.60
  -4   0   2  238.28    9.50
  -4   0   2  223.78    9.60
  -4   0   2  245.28    9.80
  -4   0   2  224.08    9.90
  -4   0   2  232.88   10.00
  -4   0   2  237.38    9.70
  -4   0   2  231.48    9.90
  -4   0   2  230.98    9.70
  -4   0   2  217.98    9.90
  -4   0   2  239.28    9.90
  -4   0   2  228.08    9.70
   3   0  -2  140.59    6.30
   3   0  -2  163.78    6.20
   3   0  -2  149.59    6.30
   3   0  -2  152.98    6.20
   3   0  -2  154.48    6.20
  -3   0   2  155.28    6.40
  -3   0   2  156.78    6.40
  -3   0   2  153.08    6.30
  -3   0   2  148.29    6.40
  -3   0   2  145.39    6.50
  -3   0   2  146.09    6.30
  -3   0   2  154.18    6.50
  -3   0   2  141.89    6.50
  -3   0   2  152.08    6.20
  -3   0   2  144.29    6.50
  -3   0   2  152.08    6.30
   2   0  -2   16.20    0.90
   2   0  -2   15.00    0.90
   2   0  -2   14.30    0.90
   2   0  -2   15.70    0.90
   2   0  -2   15.60    1.00
  -2   0   2   14.90    0.90
  -2   0   2   11.50    1.00
  -2   0   2   14.20    0.90
  -2   0   2   16.80    1.00
  -2   0   2   16.50    0.90
  -2   0   2   14.10    0.90
  -2   0   2   15.10    0.90
  -2   0   2   15.80    1.10
  -2   0   2   15.50    1.00
  -2   0   2   12.80    1.00
  -2   0   2   16.00    0.90
   1   0  -2  382.46   13.80
   1   0  -2  392.26   13.90
   1   0  -2  378.96   14.10
   1   0  -2  351.46   13.80
   1   0  -2  349.67   14.10
  -1   0   2  378.66   14.10
  -1   0   2  353.76   14.10
  -1   0   2  348.67   14.00
  -1   0   2  347.17   14.10
  -1   0   2  352.56   14.00
  -1   0   2  343.27   13.80
   0   0  -2 1872.51   70.29
   0   0  -2 1852.21   70.29
   0   0   2 1928.31   70.39
   0   0   2 1930.61   70.59
   0   0   2 1674.93   70.29
  -1   0  -2   24.90    1.20
  -1   0  -2   24.70    1.40
  -1   0  -2   22.50    1.20
  -1   0  -2   24.90    1.20
  -1   0  -2   24.40    1.20
  -1   0  -2   20.80    1.40
  -1   0  -2   24.50    1.40
   1   0   2   26.40    1.30
   1   0   2   21.80    1.30
   1   0   2   25.30    1.40
   1   0   2   20.90    1.30
   1   0   2   22.80    1.30
   1   0   2   23.60    1.30
  -2   0  -2   48.00    2.20
  -2   0  -2   42.20    2.00
  -2   0  -2   39.90    2.40
  -2   0  -2   46.60    2.50
  -2   0  -2   47.60    2.60
  -2   0  -2   42.20    2.10
  -2   0  -2   44.40    2.10
  -2   0  -2   41.80    2.10
   2   0   2   42.70    2.30
   2   0   2   43.50    2.40
   2   0   2   47.50    2.40
   2   0   2   46.00    2.20
   2   0   2   41.50    2.30
  -3   0  -2   -0.10    0.40
  -3   0  -2    0.30    0.30
  -3   0  -2   -0.10    0.20
  -3   0  -2    0.40    0.40
  -3   0  -2    0.00    0.30
  -3   0  -2    0.30    0.50
  -3   0  -2   -0.20    0.40
  -3   0  -2    0.40    0.30
   3   0   2   -0.40    0.40
   3   0   2   -0.10    0.30
   3   0   2   -0.10    0.30
   3   0   2    0.60    0.30
   3   0   2   -0.60    0.40
   3   0   2    0.50    0.50
  -4   0  -2   82.09    4.10
  -4   0  -2   76.89    4.60
  -4   0  -2   76.99    4.00
  -4   0  -2   82.59    4.00
  -4   0  -2   82.19    4.10
  -4   0  -2   81.09    4.50
  -4   0  -2   81.39    3.90
  -4   0  -2   84.59    4.70
   4   0   2   87.49    4.30
   4   0   2   83.49    3.90
   4   0   2   83.89    4.40
   4   0   2   78.39    4.30
   4   0   2   86.09    3.90
   4   0   2   88.89    4.40
  -5   0  -2    0.60    0.70
  -5   0  -2   -0.50    0.50
  -5   0  -2    0.40    0.50
  -5   0  -2    0.40    0.70
  -5   0  -2    1.00    0.90
  -5   0  -2    1.20    0.90
  -5   0  -2   -0.20    0.60
  -5   0  -2    0.10    0.50
   5   0   2    0.90    0.80
   5   0   2    0.40    0.80
   5   0   2    1.20    0.90
   5   0   2    0.70    0.80
   5   0   2    1.60    0.70
   5   0   2    1.00    0.60
  -6   0  -2    0.10    0.70
  -6   0  -2    0.10    0.70
  -6   0  -2   -0.10    0.90
  -6   0  -2   -0.20    0.70
  -6   0  -2    0.50    0.80
  -6   0  -2   -0.10    1.00
  -6   0  -2    0.50    1.00
   6   0   2    0.80    0.90
   6   0   2    0.90    0.90
   6   0   2    1.80    1.00
   6   0   2   -0.40    0.90
  -7   0  -2   -0.40    0.90
  -7   0  -2    0.90    0.90
  -7   0  -2   -0.70    1.10
  -7   0  -2    0.00    1.00
  -7   0  -2    1.50    1.40
  -7   0  -2   -1.10    0.50
  -7   0  -2   -0.30    0.90
   7   0   2    0.80    1.10
   7   0   2    1.30    1.10
   7   0   2   -0.60    1.00
   7   0   2   -0.20    1.10
  -8   0  -2   -0.40    1.10
  -8   0  -2    0.70    1.30
  -8   0  -2    0.20    1.10
  -8   0  -2   -0.10    1.70
  -8   0  -2    0.60    1.60
  -8   0  -2   -0.70    1.60
   8   0   2   -1.50    1.20
   8   0   2    0.60    1.30
   8   0   2   -1.20    1.30
  -9   0  -2   -1.30    1.30
  -9   0  -2   -1.50    1.50
  -9   0  -2   -1.30    2.00
   9   0   2   -2.10    1.50
   9   0   2   -0.10    1.40
   9   0   2    1.30    1.70
   9  -1  -2   -0.30    1.40
   9  -1  -2   -0.30    0.90
   9  -1  -2    1.00    1.20
   9  -1  -2   -0.20    1.30
   9  -1  -2   -0.90    1.00
  -9   1   2   -1.80    1.30
  -9   1   2    1.30    1.70
  -9   1   2    1.40    1.20
  -9   1   2    1.50    1.40
   8  -1  -2    2.80    1.30
   8  -1  -2    2.80    1.10
   8  -1  -2    3.70    1.30
   8  -1  -2    4.30    1.30
   8  -1  -2    3.20    1.10
  -8   1   2    6.00    1.80
  -8   1   2    0.90    1.30
  -8   1   2    1.50    1.20
  -8   1   2    3.20    1.40
  -8   1   2    0.50    1.20
  -8   1   2    3.30    1.50
  -8   1   2    5.20    1.50
   7  -1  -2    5.60    1.10
   7  -1  -2    5.60    1.10
   7  -1  -2    3.10    0.90
   7  -1  -2    1.10    1.00
   7  -1  -2    2.30    1.00
  -7   1   2    4.90    1.20
  -7   1   2    5.90    1.70
  -7   1   2    3.00    1.00
  -7   1   2    1.40    1.20
  -7   1   2    3.40    1.10
  -7   1   2    3.50    1.30
  -7   1   2    6.80    1.60
  -7   1   2    3.20    1.10
   6  -1  -2    7.80    1.20
   6  -1  -2    6.30    1.10
   6  -1  -2    6.80    1.30
   6  -1  -2    7.30    1.30
   6  -1  -2    8.40    1.20
   6  -1  -2    5.40    1.00
   6  -1  -2    6.10    1.20
  -6   1   2    6.10    1.20
  -6   1   2    6.50    1.40
  -6   1   2    7.60    1.30
  -6   1   2    7.60    1.00
  -6   1   2    7.20    1.30
  -6   1   2    4.40    1.20
  -6   1   2    6.40    1.50
  -6   1   2    7.10    1.50
  -6   1   2    7.70    1.30
  -6   1   2    6.30    1.30
  -6   1   2    7.20    1.00
  -6   1   2    7.10    1.30
   5  -1  -2   32.30    2.10
   5  -1  -2   30.70    2.00
   5  -1  -2   31.40    2.00
   5  -1  -2   29.90    2.00
   5  -1  -2   29.60    2.00
   5  -1  -2   31.80    1.90
   5  -1  -2   30.80    1.90
   5  -1  -2   31.30    2.10
  -5   1   2   24.00    2.10
  -5   1   2   29.60    2.20
  -5   1   2   29.70    2.30
  -5   1   2   27.60    2.00
  -5   1   2   24.80    2.10
  -5   1   2   25.50    2.00
  -5   1   2   28.70    1.80
  -5   1   2   29.70    2.30
  -5   1   2   30.90    1.80
  -5   1   2   30.70    2.00
  -5   1   2   28.90    2.10
  -5   1   2   28.40    2.30
   4  -1  -2   55.19    2.80
   4  -1  -2   55.89    2.80
   4  -1  -2   50.79    2.80
   4  -1  -2   56.79    2.90
   4  -1  -2   59.49    2.80
   4  -1  -2   59.79    2.90
  -4   1   2   53.89    2.90
  -4   1   2   53.39    3.00
  -4   1   2   54.39    3.10
  -4   1   2   54.09    3.10
  -4   1   2   55.79    2.70
  -4   1   2   58.29    2.80
  -4   1   2   51.29    2.90
  -4   1   2   54.19    2.90
  -4   1   2   54.39    3.00
  -4   1   2   59.19    2.80
  -4   1   2   54.69    2.90
  -4   1   2   49.50    3.10
   3  -1  -2   38.40    1.90
   3  -1  -2   43.80    2.00
   3  -1  -2   42.40    2.00
   3  -1  -2   39.10    1.90
   3  -1  -2   35.50    1.90
   3  -1  -2   39.60    2.00
  -3   1   2   35.50    2.20
  -3   1   2   38.00    1.90
  -3   1   2   37.30    2.00
  -3   1   2   33.90    2.00
  -3   1   2   34.60    2.20
  -3   1   2   36.00    2.00
  -3   1   2   37.00    2.30
  -3   1   2   37.80    2.10
  -3   1   2   42.80    2.00
  -3   1   2   37.80    2.00
  -3   1   2   34.50    2.00
  -3   1   2   37.60    1.90
   2  -1  -2    3.30    0.40
   2  -1  -2    2.70    0.40
   2  -1  -2    4.30    0.60
   2  -1  -2    3.00    0.50
   2  -1  -2    4.20    0.50
  -2   1   2    3.20    0.50
  -2   1   2    3.20    0.50
  -2   1   2    3.90    0.50
  -2   1   2    2.50    0.50
  -2   1   2    4.30    0.50
  -2   1   2    3.50    0.60
  -2   1   2    2.40    0.60
  -2   1   2    3.80    0.50
  -2   1   2    3.50    0.60
   1  -1  -2  660.93   24.10
   1  -1  -2  636.94   24.10
   1  -1  -2  586.34   24.20
   1  -1  -2  692.63   23.90
   1  -1  -2  658.33   24.00
  -1   1   2  597.04   24.20
  -1   1   2  628.64   24.30
  -1   1   2  596.54   24.20
  -1   1   2  619.74   24.20
  -1   1   2  593.64   24.10
   0  -1  -2   30.10    1.40
   0  -1  -2   32.10    1.40
   0  -1  -2   30.10    1.50
   0  -1  -2   31.30    1.40
   0  -1  -2   30.90    1.50
   0   1   2   28.80    1.60
   0   1   2   29.30    1.60
   0   1   2   32.10    1.60
  -1  -1  -2    7.00    0.60
  -1  -1  -2    9.40    0.80
  -1  -1  -2    8.00    0.60
  -1  -1  -2    8.10    0.90
  -1  -1  -2    9.00    0.60
  -1  -1  -2    7.10    0.60
  -1  -1  -2    7.00    0.80
   1   1   2    8.20    0.90
   1   1   2    8.00    0.80
   1   1   2    8.10    0.80
   1   1   2    8.30    0.90
  -2  -1  -2   -0.10    0.40
  -2  -1  -2    0.50    0.40
  -2  -1  -2   -0.10    0.30
  -2  -1  -2    0.50    0.30
  -2  -1  -2    0.10    0.20
  -2  -1  -2   -0.10    0.20
  -2  -1  -2    0.20    0.20
   2   1   2   -0.20    0.40
   2   1   2    0.40    0.40
   2   1   2    0.50    0.40
   2   1   2    0.20    0.40
   2   1   2    0.40    0.30
  -3  -1  -2    0.70    0.40
  -3  -1  -2    0.90    0.40
  -3  -1  -2    1.20    0.50
  -3  -1  -2    1.00    0.40
  -3  -1  -2    1.50    0.40
  -3  -1  -2    0.90    0.60
  -3  -1  -2    1.70    0.70
  -3  -1  -2    0.20    0.50
  -3  -1  -2    0.40    0.50
   3   1   2    2.10    0.70
   3   1   2    1.20    0.50
   3   1   2    1.00    0.60
   3   1   2    0.20    0.60
   3   1   2    0.90    0.50
   3   1   2    1.00    0.50
  -4  -1  -2   94.69    5.20
  -4  -1  -2   99.49    4.70
  -4  -1  -2   89.19    4.40
  -4  -1  -2   94.39    5.30
  -4  -1  -2  104.19    5.50
  -4  -1  -2  105.49    4.70
  -4  -1  -2  104.29    4.80
  -4  -1  -2  103.89    5.30
  -4  -1  -2  104.39    4.80
   4   1   2  104.89    4.70
   4   1   2  102.19    4.70
   4   1   2  111.49    5.30
   4   1   2  100.29    5.20
   4   1   2   89.79    5.00
   4   1   2  102.19    5.10
  -5  -1  -2    1.40    1.00
  -5  -1  -2    0.20    0.50
  -5  -1  -2   -0.30    0.40
  -5  -1  -2    0.60    0.90
  -5  -1  -2    1.00    0.80
  -5  -1  -2   -0.20    0.70
  -5  -1  -2    0.90    0.90
  -5  -1  -2    0.20    0.50
   5   1   2    0.20    0.70
   5   1   2    0.90    0.60
   5   1   2   -0.10    0.80
   5   1   2    0.70    0.70
   5   1   2   -0.10    0.60
   5   1   2    0.40    0.80
  -6  -1  -2    6.00    1.80
  -6  -1  -2    5.20    1.20
  -6  -1  -2    4.40    1.10
  -6  -1  -2    4.60    1.20
  -6  -1  -2    9.00    1.60
  -6  -1  -2    3.40    1.50
  -6  -1  -2    2.70    1.40
   6   1   2    3.50    1.30
   6   1   2    3.90    1.30
   6   1   2    3.00    1.20
   6   1   2    4.00    1.30
  -7  -1  -2   -1.30    1.10
  -7  -1  -2    0.60    1.00
  -7  -1  -2   -1.10    1.20
  -7  -1  -2   -1.00    0.90
  -7  -1  -2   -0.80    0.80
  -7  -1  -2    1.00    1.20
   7   1   2    0.60    1.10
   7   1   2    0.40    1.20
   7   1   2   -0.30    0.90
   7   1   2    0.40    0.80
  -8  -1  -2    0.50    1.20
  -8  -1  -2   -1.10    1.10
  -8  -1  -2   -1.30    1.40
  -8  -1  -2   -1.30    1.00
  -8  -1  -2    0.30    1.80
   8   1   2    0.30    1.30
   8   1   2   -0.70    1.30
   8   1   2    0.10    1.40
  -9  -1  -2   -2.90    1.70
  -9  -1  -2    4.10    2.00
  -9  -1  -2    0.40    2.30
  -9  -1  -2    1.00    1.60
   9   1   2    0.50    1.60
   9   1   2   -0.20    1.70
   9  -2  -2    3.60    1.40
   9  -2  -2    5.00    1.80
   9  -2  -2    4.90    1.50
  -9   2   2    4.60    2.30
  -9   2   2    6.70    2.00
  -9   2   2    3.90    1.60
  -9   2   2    6.60    1.80
   8  -2  -2    3.70    1.20
   8  -2  -2    2.00    1.00
   8  -2  -2    2.10    1.10
   8  -2  -2    5.90    1.40
  -8   2   2    3.60    1.30
  -8   2   2    2.70    1.20
  -8   2   2    3.30    1.50
  -8   2   2    3.90    1.60
  -8   2   2    3.20    1.30
   7  -2  -2    3.60    1.00
   7  -2  -2    2.10    1.00
   7  -2  -2    2.60    0.90
   7  -2  -2    5.00    1.10
   7  -2  -2    2.70    1.00
  -7   2   2    1.30    1.00
  -7   2   2    3.70    1.50
  -7   2   2    3.40    1.10
  -7   2   2    2.40    1.10
  -7   2   2    3.50    1.40
  -7   2   2    4.30    1.20
  -7   2   2    2.40    1.20
   6  -2  -2    4.30    1.00
   6  -2  -2    5.20    1.10
   6  -2  -2    6.60    1.20
   6  -2  -2    1.20    0.80
   6  -2  -2    5.90    1.10
  -6   2   2    3.60    1.10
  -6   2   2    3.80    1.00
  -6   2   2    5.40    1.40
  -6   2   2    3.30    1.10
  -6   2   2    2.30    1.20
  -6   2   2    4.50    1.10
  -6   2   2    3.80    1.20
   5  -2  -2   28.80    2.00
   5  -2  -2   26.80    1.90
   5  -2  -2   29.30    1.90
   5  -2  -2   29.70    1.90
   5  -2  -2   32.70    2.00
   5  -2  -2   28.00    1.90
  -5   2   2   29.90    1.80
  -5   2   2   28.40    2.00
  -5   2   2   27.50    2.10
  -5   2   2   29.50    2.30
  -5   2   2   34.00    2.20
  -5   2   2   24.10    2.10
  -5   2   2   31.50    2.10
  -5   2   2   32.80    1.80
  -5   2   2   28.70    2.20
  -5   2   2   28.10    2.60
   4  -2  -2    3.30    0.60
   4  -2  -2    2.90    0.60
   4  -2  -2    3.40    0.70
   4  -2  -2    2.70    0.70
   4  -2  -2    3.10    0.60
   4  -2  -2    3.60    0.60
  -4   2   2    3.40    0.60
  -4   2   2    2.60    0.80
  -4   2   2    3.10    0.70
  -4   2   2    3.20    0.60
  -4   2   2    1.30    0.70
  -4   2   2    3.00    0.70
  -4   2   2    3.70    0.80
  -4   2   2    0.80    0.70
  -4   2   2    3.70    0.60
  -4   2   2    2.20    0.80
  -4   2   2    2.10    0.80
   3  -2  -2  210.68    8.30
   3  -2  -2  205.18    8.30
   3  -2  -2  214.28    8.20
   3  -2  -2  195.68    8.10
   3  -2  -2  205.98    8.20
  -3   2   2  196.68    8.20
  -3   2   2  193.48    8.70
  -3   2   2  199.38    8.40
  -3   2   2  192.48    8.30
  -3   2   2  206.18    8.10
  -3   2   2  212.68    8.00
  -3   2   2  193.68    8.40
  -3   2   2  193.68    8.70
  -3   2   2  201.68    8.60
   2  -2  -2  421.66   16.00
   2  -2  -2  412.76   16.00
   2  -2  -2  381.06   16.20
   2  -2  -2  426.76   16.10
   2  -2  -2  422.06   15.90
  -2   2   2  403.96   16.30
  -2   2   2  401.56   16.10
  -2   2   2  417.26   16.10
  -2   2   2  405.26   16.40
  -2   2   2  393.46   15.90
  -2   2   2  409.16   16.40
  -2   2   2  423.56   16.20
   1  -2  -2   88.29    3.90
   1  -2  -2   84.79    4.00
   1  -2  -2  100.69    3.90
   1  -2  -2   92.49    3.90
   1  -2  -2  101.59    3.90
  -1   2   2   92.89    3.90
  -1   2   2   96.49    4.20
  -1   2   2   94.79    4.10
  -1   2   2   90.09    4.00
  -1   2   2   89.59    4.10
  -1   2   2   89.29    4.10
   0  -2  -2   20.90    1.10
   0  -2  -2   22.80    1.20
   0  -2  -2   23.40    1.30
   0  -2  -2   24.10    1.30
   0  -2  -2   22.00    1.20
   0  -2  -2   22.50    1.30
   0  -2  -2   22.60    1.30
   0   2   2   23.10    1.20
   0   2   2   23.40    1.30
   0   2   2   23.90    1.60
   0   2   2   22.90    1.40
   0   2   2   22.80    1.40
   0   2   2   21.20    1.20
  -1  -2  -2   18.20    1.30
  -1  -2  -2   16.90    1.10
  -1  -2  -2   17.10    1.30
  -1  -2  -2   18.40    1.00
  -1  -2  -2   17.30    1.00
  -1  -2  -2   18.90    1.30
  -1  -2  -2   19.20    1.00
   1   2   2   17.60    1.20
   1   2   2   17.60    1.30
   1   2   2   15.70    1.30
   1   2   2   15.30    1.30
  -2  -2  -2  174.78    7.90
  -2  -2  -2  176.48    7.30
  -2  -2  -2  175.28    7.80
  -2  -2  -2  183.78    7.10
  -2  -2  -2  180.98    7.80
  -2  -2  -2  177.28    7.20
  -2  -2  -2  179.78    7.40
  -2  -2  -2  179.88    7.90
   2   2   2  186.48    7.60
   2   2   2  180.48    7.60
   2   2   2  181.88    7.80
   2   2   2  160.28    7.60
  -3  -2  -2    2.70    0.70
  -3  -2  -2    3.20    0.90
  -3  -2  -2    1.90    0.40
  -3  -2  -2    2.00    0.80
  -3  -2  -2    2.90    0.90
  -3  -2  -2    2.30    0.60
  -3  -2  -2    3.40    0.60
  -3  -2  -2    1.30    0.70
   3   2   2    1.40    0.70
   3   2   2    3.60    0.70
   3   2   2    1.50    0.60
   3   2   2    1.90    0.80
  -4  -2  -2   83.89    4.90
  -4  -2  -2   81.69    4.90
  -4  -2  -2   83.69    4.80
  -4  -2  -2   90.99    4.20
  -4  -2  -2   85.79    4.00
  -4  -2  -2   79.29    4.70
  -4  -2  -2   87.79    4.30
  -4  -2  -2   85.69    4.10
   4   2   2   86.59    4.30
   4   2   2   90.59    4.30
   4   2   2   78.59    4.50
   4   2   2   81.99    4.60
   4   2   2   83.99    4.60
   4   2   2   86.19    4.70
  -5  -2  -2   21.70    2.60
  -5  -2  -2   26.50    2.10
  -5  -2  -2   24.70    1.90
  -5  -2  -2   21.90    2.70
  -5  -2  -2   25.60    2.90
  -5  -2  -2   22.00    2.70
   5   2   2   24.00    2.70
   5   2   2   23.60    2.60
   5   2   2   19.40    2.30
   5   2   2   20.50    2.10
   5   2   2   26.70    2.60
   5   2   2   24.20    2.20
  -6  -2  -2   30.00    3.50
  -6  -2  -2   29.90    3.40
  -6  -2  -2   34.90    3.70
  -6  -2  -2   30.10    3.40
  -6  -2  -2   38.00    2.60
  -6  -2  -2   34.30    2.80
   6   2   2   29.20    2.80
   6   2   2   35.40    3.00
   6   2   2   34.20    2.60
   6   2   2   34.10    3.30
   6   2   2   33.00    3.30
  -7  -2  -2   23.40    2.50
  -7  -2  -2   24.80    3.50
  -7  -2  -2   25.90    3.50
  -7  -2  -2   30.20    3.90
  -7  -2  -2   23.50    2.80
   7   2   2   33.80    3.60
   7   2   2   27.70    3.10
   7   2   2   24.00    3.00
   7   2   2   18.00    2.60
  -8  -2  -2   -0.60    1.30
  -8  -2  -2   -0.20    1.20
  -8  -2  -2    2.30    2.10
  -8  -2  -2    2.80    1.30
  -8  -2  -2   -0.20    1.50
   8   2   2    0.00    1.40
   8   2   2    0.50    1.30
   8   2   2    1.80    1.50
   9  -3  -2    0.00    1.00
   9  -3  -2    0.80    1.10
  -9   3   2    0.90    1.50
  -9   3   2    1.80    1.60
  -9   3   2   -0.40    1.30
  -9   3   2   -0.50    1.30
   8  -3  -2    0.40    1.00
   8  -3  -2   -0.20    0.80
   8  -3  -2   -0.70    0.80
   8  -3  -2    1.20    1.00
  -8   3   2   -0.70    1.00
  -8   3   2   -0.50    1.10
  -8   3   2   -0.50    1.20
  -8   3   2   -1.10    0.80
  -8   3   2   -0.40    1.10
   7  -3  -2    0.10    0.80
   7  -3  -2    0.80    0.90
   7  -3  -2   -1.00    0.60
   7  -3  -2    0.20    0.70
  -7   3   2   -0.70    0.90
  -7   3   2    0.60    1.00
  -7   3   2    0.40    0.90
  -7   3   2    0.80    1.00
  -7   3   2   -0.60    0.80
  -7   3   2    0.60    1.10
   6  -3  -2    2.00    0.80
   6  -3  -2    0.30    0.70
   6  -3  -2    0.70    0.70
   6  -3  -2    0.40    0.70
   6  -3  -2    1.00    0.70
  -6   3   2    0.60    0.80
  -6   3   2    0.90    1.00
  -6   3   2   -0.70    0.70
  -6   3   2    0.50    0.90
  -6   3   2    1.80    1.00
  -6   3   2    0.50    0.80
   5  -3  -2    3.10    0.70
   5  -3  -2    2.90    0.70
   5  -3  -2    2.40    0.70
   5  -3  -2    2.20    0.70
   5  -3  -2    3.00    0.70
  -5   3   2    2.70    0.70
  -5   3   2    1.90    0.80
  -5   3   2    1.70    1.00
  -5   3   2    2.30    1.00
  -5   3   2    2.90    0.80
  -5   3   2    2.90    0.90
  -5   3   2    1.20    0.70
   4  -3  -2   16.70    1.20
   4  -3  -2   15.10    1.20
   4  -3  -2   17.80    1.30
   4  -3  -2   17.90    1.40
   4  -3  -2   16.80    1.60
  -4   3   2   18.80    1.50
  -4   3   2   15.10    1.70
  -4   3   2   14.70    1.60
  -4   3   2   17.50    1.10
  -4   3   2   13.90    1.50
  -4   3   2   17.20    1.20
  -4   3   2   15.80    1.90
  -4   3   2   19.30    2.00
   3  -3  -2   66.49    2.90
   3  -3  -2   70.29    3.10
   3  -3  -2   68.19    3.20
   3  -3  -2   65.39    3.00
   3  -3  -2   67.19    3.20
  -3   3   2   63.39    3.60
  -3   3   2   68.19    3.30
  -3   3   2   67.69    3.20
  -3   3   2   68.19    3.30
  -3   3   2   65.89    3.30
  -3   3   2   60.29    3.60
  -3   3   2   62.59    3.00
  -3   3   2   66.79    3.50
   2  -3  -2    2.10    0.40
   2  -3  -2    2.20    0.60
   2  -3  -2    2.40    0.50
   2  -3  -2    2.60    0.40
   2  -3  -2    1.20    0.40
   2  -3  -2    0.70    0.30
  -2   3   2    1.30    0.60
  -2   3   2    1.40    0.40
  -2   3   2    2.50    0.50
  -2   3   2    2.10    0.50
  -2   3   2    1.60    0.60
  -2   3   2    2.20    0.50
   1  -3  -2   29.00    1.50
   1  -3  -2   27.40    1.40
   1  -3  -2   27.50    1.50
   1  -3  -2   26.50    1.50
   1  -3  -2   25.30    1.50
   1  -3  -2   24.60    1.40
  -1   3   2   25.50    1.60
  -1   3   2   28.10    1.70
  -1   3   2   26.60    1.50
  -1   3   2   25.40    1.70
  -1   3   2   27.20    1.60
  -1   3   2   25.60    1.70
   0  -3  -2    0.70    0.30
   0  -3  -2    0.70    0.30
   0  -3  -2    0.90    0.30
   0  -3  -2    0.50    0.20
   0  -3  -2    0.70    0.30
   0  -3  -2   -0.10    0.20
   0  -3  -2    0.20    0.20
   0   3   2    0.00    0.50
   0   3   2    0.10    0.30
   0   3   2    2.30    0.60
   0   3   2    0.00    0.30
   0   3   2    0.50    0.40
   0   3   2    0.30    0.20
   0   3   2    0.40    0.30
  -1  -3  -2   14.40    1.10
  -1  -3  -2   13.70    1.20
  -1  -3  -2   14.50    0.90
  -1  -3  -2   14.50    1.30
  -1  -3  -2   13.10    1.20
  -1  -3  -2   13.50    0.90
  -1  -3  -2   15.20    0.80
  -1  -3  -2   14.50    1.50
   1   3   2   12.40    1.30
   1   3   2   17.60    1.50
   1   3   2   13.30    1.40
   1   3   2   12.70    1.30
   1   3   2   14.90    1.10
  -2  -3  -2  605.74   23.80
  -2  -3  -2  603.04   22.80
  -2  -3  -2  599.74   23.00
  -2  -3  -2  587.84   23.60
  -2  -3  -2  569.34   23.20
  -2  -3  -2  599.64   23.80
  -2  -3  -2  589.84   23.00
  -2  -3  -2  597.94   23.80
   2   3   2  607.74   23.60
   2   3   2  566.94   23.50
   2   3   2  591.54   23.00
   2   3   2  583.74   23.70
   2   3   2  602.34   23.50
  -3  -3  -2  189.28    7.70
  -3  -3  -2  185.78    7.50
  -3  -3  -2  186.68    7.90
  -3  -3  -2  187.58    7.80
  -3  -3  -2  188.28    8.50
  -3  -3  -2  179.98    8.60
  -3  -3  -2  183.88    8.60
  -3  -3  -2  187.58    8.60
   3   3   2  181.08    8.10
   3   3   2  176.58    8.30
   3   3   2  189.08    8.10
   3   3   2  178.68    8.40
  -4  -3  -2   74.99    3.50
  -4  -3  -2   64.99    3.60
  -4  -3  -2   61.99    4.20
  -4  -3  -2   68.19    3.50
  -4  -3  -2   63.79    4.20
  -4  -3  -2   71.49    4.30
  -4  -3  -2   68.29    4.30
   4   3   2   66.69    3.80
   4   3   2   62.89    4.00
   4   3   2   70.79    3.80
   4   3   2   66.89    4.10
  -5  -3  -2   16.90    2.40
  -5  -3  -2   18.40    2.00
  -5  -3  -2   21.30    2.00
  -5  -3  -2   14.90    2.40
  -5  -3  -2   19.90    2.60
  -5  -3  -2   21.40    2.00
  -5  -3  -2   16.70    2.40
   5   3   2   17.90    2.00
   5   3   2   17.80    2.30
   5   3   2   23.10    2.30
   5   3   2   16.50    2.30
   5   3   2   13.40    2.10
   5   3   2   18.40    2.20
  -6  -3  -2   -0.90    0.60
  -6  -3  -2    0.30    0.70
  -6  -3  -2    0.00    0.60
  -6  -3  -2   -0.30    1.10
  -6  -3  -2   -0.20    1.10
  -6  -3  -2   -0.50    1.10
  -6  -3  -2   -0.60    1.10
   6   3   2    1.10    1.00
   6   3   2   -0.40    1.10
   6   3   2   -0.70    0.90
   6   3   2   -0.60    0.90
   6   3   2    0.70    1.10
   6   3   2    1.10    1.10
  -7  -3  -2    0.40    0.90
  -7  -3  -2   -0.80    1.50
  -7  -3  -2   -0.30    0.80
  -7  -3  -2    0.90    1.10
  -7  -3  -2    0.70    1.10
  -7  -3  -2    0.50    0.90
  -7  -3  -2   -2.20    1.30
   7   3   2    0.00    1.20
   7   3   2    1.30    1.00
   7   3   2   -0.90    1.00
   7   3   2   -2.40    1.20
  -8  -3  -2    5.70    1.90
  -8  -3  -2    1.10    2.10
  -8  -3  -2    4.40    2.20
   8   3   2    3.00    1.70
   8   3   2    3.90    1.80
   8   3   2    3.30    1.80
   9  -4  -2    2.60    1.40
   9  -4  -2    1.20    1.10
  -9   4   2    1.70    1.60
  -9   4   2   -0.60    1.60
  -9   4   2    1.00    1.30
  -9   4   2    1.80    1.50
   8  -4  -2    3.90    1.30
   8  -4  -2    2.00    0.90
   8  -4  -2    2.10    1.10
  -8   4   2    3.10    1.30
  -8   4   2    2.90    1.50
  -8   4   2    3.40    1.50
  -8   4   2    3.00    1.50
  -8   4   2    4.00    1.40
  -8   4   2    3.60    1.40
   7  -4  -2    2.60    1.10
   7  -4  -2    2.80    1.00
   7  -4  -2    2.10    1.00
   7  -4  -2    4.10    1.10
  -7   4   2    4.00    1.30
  -7   4   2    4.40    1.40
  -7   4   2    1.80    1.40
  -7   4   2    4.30    1.50
  -7   4   2    3.50    1.40
  -7   4   2    3.60    1.40
   6  -4  -2   50.39    3.00
   6  -4  -2   50.49    3.10
   6  -4  -2   51.39    3.10
   6  -4  -2   45.40    2.90
  -6   4   2   53.59    3.40
  -6   4   2   52.69    3.30
  -6   4   2   47.70    3.40
  -6   4   2   37.20    3.30
  -6   4   2   49.60    3.30
  -6   4   2   48.80    3.50
   5  -4  -2    1.30    0.50
   5  -4  -2    1.40    0.70
   5  -4  -2    2.20    0.60
   5  -4  -2    0.70    0.60
   5  -4  -2    0.70    0.50
  -5   4   2    1.00    0.70
  -5   4   2    0.80    1.00
  -5   4   2    2.10    0.80
  -5   4   2    0.30    0.90
  -5   4   2    2.30    0.90
  -5   4   2    0.70    0.60
   4  -4  -2    0.00    0.30
   4  -4  -2   -0.20    0.40
   4  -4  -2    0.30    0.40
   4  -4  -2    0.40    0.40
   4  -4  -2    0.00    0.30
  -4   4   2    0.10    0.40
  -4   4   2    0.00    0.40
  -4   4   2   -0.20    0.40
  -4   4   2    0.20    0.70
  -4   4   2    0.10    0.30
  -4   4   2   -0.10    0.30
  -4   4   2   -0.30    0.40
  -4   4   2    0.30    0.60
   3  -4  -2   20.70    1.40
   3  -4  -2   20.70    1.40
   3  -4  -2   22.90    1.20
   3  -4  -2   19.30    1.40
   3  -4  -2   23.20    1.40
  -3   4   2   21.70    1.30
  -3   4   2   16.30    1.90
  -3   4   2   20.70    1.70
  -3   4   2   20.80    1.80
  -3   4   2   17.20    1.40
  -3   4   2   21.50    1.50
  -3   4   2   20.50    1.50
   2  -4  -2   31.80    1.70
   2  -4  -2   26.30    1.60
   2  -4  -2   31.00    1.50
   2  -4  -2   25.20    1.80
   2  -4  -2   30.50    1.70
   2  -4  -2   30.60    1.70
  -2   4   2   26.00    1.70
  -2   4   2   31.40    2.10
  -2   4   2   28.00    1.70
  -2   4   2   25.20    1.80
  -2   4   2   29.90    2.10
  -2   4   2   27.10    1.80
  -2   4   2   27.00    1.70
   1  -4  -2  114.79    4.60
   1  -4  -2  101.89    4.60
   1  -4  -2  103.79    4.50
   1  -4  -2  112.59    4.70
   1  -4  -2  105.29    4.40
   1  -4  -2   96.99    4.60
   1  -4  -2  104.19    4.60
  -1   4   2  108.49    4.90
  -1   4   2   99.49    4.60
  -1   4   2  105.99    5.00
  -1   4   2  106.69    4.60
  -1   4   2  105.29    4.80
  -1   4   2  104.79    5.00
   0  -4  -2   32.60    1.80
   0  -4  -2   29.60    1.60
   0  -4  -2   28.90    1.60
   0  -4  -2   32.80    2.00
   0  -4  -2   33.20    1.70
   0  -4  -2   30.80    1.80
   0  -4  -2   31.10    1.90
   0   4   2   31.80    2.10
   0   4   2   30.30    2.00
   0   4   2   35.10    1.80
   0   4   2   31.10    1.70
   0   4   2   28.90    2.20
   0   4   2   31.60    2.00
   0   4   2   31.80    1.80
  -1  -4  -2   21.70    1.30
  -1  -4  -2   23.70    1.30
  -1  -4  -2   21.60    1.70
  -1  -4  -2   21.80    1.70
  -1  -4  -2   21.40    1.50
  -1  -4  -2   20.60    1.60
  -1  -4  -2   22.50    1.10
  -1  -4  -2   20.70    1.60
   1   4   2   21.40    1.50
   1   4   2   20.00    1.60
   1   4   2   21.00    1.70
   1   4   2   21.10    1.70
   1   4   2   22.50    1.90
  -2  -4  -2   20.20    1.50
  -2  -4  -2   22.30    2.20
  -2  -4  -2   22.50    1.40
  -2  -4  -2   20.10    1.80
  -2  -4  -2   22.80    1.30
  -2  -4  -2   20.90    1.90
  -2  -4  -2   19.90    2.00
   2   4   2   22.60    1.90
   2   4   2   23.60    1.80
   2   4   2   20.20    1.40
   2   4   2   20.30    2.00
   2   4   2   20.80    2.00
  -3  -4  -2   58.39    3.70
  -3  -4  -2   52.69    2.70
  -3  -4  -2   53.59    3.60
  -3  -4  -2   55.59    2.80
  -3  -4  -2   53.89    3.00
  -3  -4  -2   48.80    3.50
  -3  -4  -2   57.19    3.50
   3   4   2   54.69    3.50
   3   4   2   55.29    3.40
   3   4   2   56.59    3.40
   3   4   2   56.69    3.30
  -4  -4  -2   43.10    2.50
  -4  -4  -2   45.00    2.50
  -4  -4  -2   38.30    3.20
  -4  -4  -2   42.50    3.30
  -4  -4  -2   41.20    3.20
  -4  -4  -2   35.60    2.90
  -4  -4  -2   36.20    2.50
   4   4   2   39.30    2.80
   4   4   2   36.60    2.90
   4   4   2   37.80    2.90
   4   4   2   39.50    2.80
  -5  -4  -2   10.00    1.40
  -5  -4  -2   12.50    1.80
  -5  -4  -2    8.90    1.90
  -5  -4  -2   10.90    2.10
  -5  -4  -2   10.90    1.50
  -5  -4  -2    8.20    1.80
  -5  -4  -2    9.50    2.00
   5   4   2   10.20    1.90
   5   4   2    9.30    1.60
   5   4   2    9.10    1.80
   5   4   2    8.60    1.60
  -6  -4  -2    9.60    1.60
  -6  -4  -2    7.60    2.10
  -6  -4  -2    7.80    1.40
  -6  -4  -2    6.20    1.80
  -6  -4  -2    9.10    1.60
  -6  -4  -2    5.10    1.90
  -6  -4  -2    7.20    1.90
   6   4   2    5.80    1.70
   6   4   2   10.40    2.00
   6   4   2    5.00    1.50
   6   4   2    6.50    1.60
   6   4   2    6.90    1.90
   6   4   2    4.30    1.60
  -7  -4  -2   -1.20    1.20
  -7  -4  -2    0.70    1.40
  -7  -4  -2   -1.00    1.30
  -7  -4  -2    1.40    1.50
  -7  -4  -2   -1.90    1.40
   7   4   2   -0.60    1.20
   7   4   2   -0.50    1.50
   7   4   2    1.10    1.20
   7   4   2    1.20    1.20
   7   4   2    1.50    1.40
  -8  -4  -2    0.50    2.10
  -8  -4  -2    2.30    1.80
  -8  -4  -2    0.30    1.60
   8   4   2    1.80    1.80
   8   4   2    3.20    1.90
   8   4   2    1.30    1.60
   9  -5  -2    0.90    1.30
   9  -5  -2    1.40    1.30
  -9   5   2    0.00    1.80
  -9   5   2    4.40    1.80
  -9   5   2    2.10    1.60
  -9   5   2    1.20    1.50
   8  -5  -2    5.80    1.40
   8  -5  -2    5.60    1.40
  -8   5   2   10.20    2.20
  -8   5   2    5.10    1.80
  -8   5   2    8.40    2.20
  -8   5   2    4.80    1.70
  -8   5   2   10.00    2.10
   7  -5  -2    0.80    0.80
   7  -5  -2   -0.50    0.80
   7  -5  -2    0.70    0.80
   7  -5  -2   -0.20    0.70
  -7   5   2    0.10    1.00
  -7   5   2    1.40    1.10
  -7   5   2    1.10    1.10
  -7   5   2    1.10    1.40
  -7   5   2   -1.40    0.90
  -7   5   2    1.20    1.00
   6  -5  -2   22.60    2.30
   6  -5  -2   26.50    2.10
   6  -5  -2   26.30    2.10
   6  -5  -2   21.80    1.90
  -6   5   2   24.20    2.90
  -6   5   2   22.90    2.60
  -6   5   2   23.20    2.50
  -6   5   2   19.00    2.20
  -6   5   2   22.40    2.60
  -6   5   2   24.10    2.60
   5  -5  -2    9.80    1.20
   5  -5  -2    7.70    1.10
   5  -5  -2    8.00    1.20
   5  -5  -2    8.20    1.30
  -5   5   2    5.90    1.40
  -5   5   2    7.40    1.20
  -5   5   2    7.40    1.60
  -5   5   2    5.40    1.20
  -5   5   2    7.60    1.50
  -5   5   2    7.10    1.30
   4  -5  -2    7.50    0.80
   4  -5  -2    4.30    0.80
   4  -5  -2    6.10    1.00
   4  -5  -2    6.40    1.00
   4  -5  -2    6.10    0.90
  -4   5   2    4.40    1.20
  -4   5   2    6.70    1.10
  -4   5   2    6.60    0.90
  -4   5   2    4.70    1.10
  -4   5   2    3.60    0.90
  -4   5   2    6.00    1.10
   3  -5  -2    0.10    0.40
   3  -5  -2    0.10    0.30
   3  -5  -2    0.30    0.30
   3  -5  -2    0.60    0.40
   3  -5  -2    0.50    0.40
  -3   5   2   -0.20    0.40
  -3   5   2    0.60    0.70
  -3   5   2    0.80    0.50
  -3   5   2    0.50    0.50
  -3   5   2    0.70    0.60
  -3   5   2    0.50    0.50
   2  -5  -2  189.98    8.00
   2  -5  -2  172.18    8.10
   2  -5  -2  185.68    8.00
   2  -5  -2  191.78    8.00
   2  -5  -2  190.98    7.90
   2  -5  -2  202.68    8.10
  -2   5   2  194.68    8.50
  -2   5   2  200.58    8.20
  -2   5   2  185.48    8.20
  -2   5   2  189.28    8.40
  -2   5   2  203.18    8.80
  -2   5   2  192.18    8.20
   1  -5  -2  137.89    6.00
   1  -5  -2  135.59    5.80
   1  -5  -2  139.39    5.70
   1  -5  -2  135.19    5.80
   1  -5  -2  134.79    5.90
   1  -5  -2  129.89    5.90
   1  -5  -2  137.49    6.10
  -1   5   2  137.49    6.30
  -1   5   2  150.08    6.60
  -1   5   2  140.49    6.00
  -1   5   2  136.09    6.40
  -1   5   2  134.79    6.20
  -1   5   2  132.09    5.90
   0  -5  -2    1.30    0.40
   0  -5  -2    1.40    0.40
   0  -5  -2    0.90    0.50
   0  -5  -2    1.00    0.40
   0  -5  -2    1.70    0.60
   0  -5  -2    2.00    0.60
   0  -5  -2    1.10    0.40
   0   5   2    1.90    0.70
   0   5   2    3.00    0.90
   0   5   2    1.50    0.60
   0   5   2    1.10    0.40
   0   5   2    1.00    0.60
   0   5   2    1.80    0.80
   0   5   2    2.00    0.50
  -1  -5  -2  134.89    6.20
  -1  -5  -2  135.19    6.40
  -1  -5  -2  140.49    5.70
  -1  -5  -2  134.39    6.40
  -1  -5  -2  131.59    6.30
  -1  -5  -2  134.09    5.90
  -1  -5  -2  133.29    5.70
   1   5   2  136.89    6.50
   1   5   2  129.29    6.10
   1   5   2  133.99    6.40
   1   5   2  132.69    6.30
   1   5   2  131.29    6.10
  -2  -5  -2  118.89    6.00
  -2  -5  -2  124.49    5.10
  -2  -5  -2  114.49    5.40
  -2  -5  -2  121.49    6.10
  -2  -5  -2  118.09    5.80
  -2  -5  -2  114.59    6.00
  -2  -5  -2  119.89    5.20
   2   5   2  119.19    5.90
   2   5   2  114.89    5.40
   2   5   2  112.69    5.90
   2   5   2  114.79    5.70
   2   5   2  121.49    5.80
  -3  -5  -2    9.90    1.30
  -3  -5  -2    7.80    1.50
  -3  -5  -2    6.90    1.40
  -3  -5  -2    7.70    1.00
  -3  -5  -2    5.70    1.30
  -3  -5  -2    6.90    1.40
  -3  -5  -2    7.50    1.00
   3   5   2    7.80    1.50
   3   5   2    7.60    1.50
   3   5   2    7.40    1.40
   3   5   2    7.10    1.30
  -4  -5  -2    6.70    1.00
  -4  -5  -2    5.70    1.50
  -4  -5  -2    1.80    1.20
  -4  -5  -2    5.90    1.00
  -4  -5  -2    4.70    1.50
  -4  -5  -2    7.30    1.70
  -4  -5  -2    4.60    1.10
   4   5   2    4.40    1.20
   4   5   2    5.20    1.50
   4   5   2    3.30    1.10
   4   5   2    5.00    1.40
  -5  -5  -2    1.80    1.30
  -5  -5  -2    1.90    1.30
  -5  -5  -2    2.70    1.40
  -5  -5  -2    3.20    0.90
  -5  -5  -2    2.10    1.00
  -5  -5  -2    1.40    0.90
  -5  -5  -2    3.20    1.40
   5   5   2    1.80    1.10
   5   5   2    1.60    1.30
   5   5   2    1.40    1.10
   5   5   2    4.00    1.50
  -6  -5  -2    0.40    1.40
  -6  -5  -2    2.10    1.40
  -6  -5  -2    0.30    1.50
  -6  -5  -2    1.80    1.70
  -6  -5  -2    2.20    1.30
   6   5   2    2.60    1.60
   6   5   2   -0.40    1.10
   6   5   2    1.30    1.30
   6   5   2    1.80    1.60
   6   5   2    0.70    1.30
  -7  -5  -2   10.30    2.60
  -7  -5  -2   12.90    2.40
  -7  -5  -2   12.60    2.90
  -7  -5  -2    8.70    2.50
   7   5   2    8.30    2.10
   7   5   2   10.00    2.30
   7   5   2    7.90    2.20
   7   5   2    9.70    2.40
   8  -6  -2    8.80    1.80
   8  -6  -2    7.30    1.80
  -8   6   2    6.30    2.00
  -8   6   2    8.10    2.40
  -8   6   2    6.60    1.90
  -8   6   2    8.00    2.20
  -8   6   2   11.00    2.40
   7  -6  -2    0.50    1.00
   7  -6  -2    3.70    1.30
   7  -6  -2    1.80    1.10
  -7   6   2    2.50    1.60
  -7   6   2    1.40    1.10
  -7   6   2    1.60    1.00
  -7   6   2    3.10    1.50
  -7   6   2    4.10    1.50
  -7   6   2    0.10    1.00
   6  -6  -2    1.40    0.80
   6  -6  -2    0.90    0.90
   6  -6  -2   -0.20    0.70
   6  -6  -2   -0.10    0.50
  -6   6   2    1.40    1.00
  -6   6   2    1.20    1.00
  -6   6   2   -0.30    0.80
  -6   6   2    0.10    1.20
  -6   6   2   -0.50    0.80
   5  -6  -2   11.50    1.40
   5  -6  -2   12.60    1.60
   5  -6  -2    9.70    1.40
   5  -6  -2   11.10    1.50
  -5   6   2    8.70    1.70
  -5   6   2    9.50    1.70
  -5   6   2    8.70    1.80
  -5   6   2   12.30    1.70
  -5   6   2   10.70    1.60
   4  -6  -2   11.50    1.30
   4  -6  -2   12.80    1.40
   4  -6  -2   12.70    1.50
   4  -6  -2   11.60    1.30
  -4   6   2   12.80    1.40
  -4   6   2    9.80    1.70
  -4   6   2   10.10    1.60
  -4   6   2   10.60    1.50
  -4   6   2   11.40    1.50
  -4   6   2    8.80    1.70
   3  -6  -2   42.80    2.30
   3  -6  -2   47.60    2.50
   3  -6  -2   40.20    2.50
   3  -6  -2   40.60    2.40
   3  -6  -2   41.60    2.40
  -3   6   2   37.00    2.90
  -3   6   2   39.60    2.40
  -3   6   2   40.80    2.50
  -3   6   2   40.70    2.60
  -3   6   2   41.00    3.10
  -3   6   2   40.90    2.70
   2  -6  -2    2.80    0.70
   2  -6  -2    5.10    0.90
   2  -6  -2    3.20    0.70
   2  -6  -2    3.70    0.70
   2  -6  -2    3.10    0.70
   2  -6  -2    3.30    0.70
  -2   6   2    4.90    1.00
  -2   6   2    2.30    0.90
  -2   6   2    4.80    1.10
  -2   6   2    4.00    0.90
  -2   6   2    2.10    0.80
   1  -6  -2   13.90    1.10
   1  -6  -2   14.10    1.30
   1  -6  -2   13.60    1.40
   1  -6  -2   12.70    1.20
   1  -6  -2   15.10    1.50
   1  -6  -2   11.40    1.40
  -1   6   2   11.80    1.60
  -1   6   2   13.60    1.90
  -1   6   2   14.80    1.60
  -1   6   2   13.40    1.40
  -1   6   2   14.00    1.40
  -1   6   2   12.90    1.60
   0  -6  -2   90.99    4.80
   0  -6  -2  101.69    5.10
   0  -6  -2  102.49    4.70
   0  -6  -2  102.59    4.70
   0  -6  -2   98.49    4.40
   0  -6  -2  101.79    4.40
   0   6   2  103.09    5.10
   0   6   2  101.39    5.10
   0   6   2   97.49    4.90
   0   6   2   96.69    5.30
   0   6   2   95.19    4.60
  -1  -6  -2    7.10    1.30
  -1  -6  -2    8.60    1.20
  -1  -6  -2    9.30    1.30
  -1  -6  -2    9.50    1.00
  -1  -6  -2    9.50    1.40
  -1  -6  -2    7.70    1.30
  -1  -6  -2   10.20    1.00
   1   6   2   10.00    1.40
   1   6   2    6.60    1.30
   1   6   2    6.10    1.10
   1   6   2    6.70    1.30
   1   6   2   11.60    1.80
  -2  -6  -2    2.90    0.90
  -2  -6  -2    1.40    0.80
  -2  -6  -2    1.70    1.00
  -2  -6  -2    2.90    1.00
  -2  -6  -2    2.40    0.90
  -2  -6  -2    2.70    0.60
  -2  -6  -2    4.70    0.80
   2   6   2    1.80    0.70
   2   6   2    2.80    1.10
   2   6   2    1.40    1.10
   2   6   2    2.80    1.20
   2   6   2    3.20    1.00
  -3  -6  -2   53.69    3.60
  -3  -6  -2   48.50    3.70
  -3  -6  -2   53.99    3.90
  -3  -6  -2   51.99    2.70
  -3  -6  -2   52.39    3.70
  -3  -6  -2   54.99    3.20
  -3  -6  -2   49.90    2.80
   3   6   2   50.59    3.60
   3   6   2   45.30    3.40
   3   6   2   51.79    3.70
   3   6   2   53.89    3.50
  -4  -6  -2   80.99    5.30
  -4  -6  -2   82.99    5.50
  -4  -6  -2   87.99    4.70
  -4  -6  -2   88.49    5.40
  -4  -6  -2   87.39    5.50
   4   6   2   83.79    5.20
   4   6   2   82.39    4.90
   4   6   2   82.39    5.10
   4   6   2   83.59    5.00
  -5  -6  -2   -0.20    1.30
  -5  -6  -2    0.90    1.00
  -5  -6  -2    2.60    1.00
  -5  -6  -2    1.70    1.10
  -5  -6  -2    1.00    1.20
   5   6   2    0.80    1.30
   5   6   2    0.30    1.20
   5   6   2    0.50    0.90
   5   6   2    1.40    1.20
  -6  -6  -2    1.20    1.30
  -6  -6  -2    3.10    1.70
  -6  -6  -2    3.10    1.90
  -6  -6  -2    3.80    2.00
  -6  -6  -2    1.90    1.50
   6   6   2    2.90    1.60
   6   6   2    3.10    1.70
   6   6   2    2.50    1.60
   6   6   2    1.30    1.10
  -7  -6  -2   15.30    2.50
  -7  -6  -2   11.10    2.80
  -7  -6  -2    6.80    2.50
   7   6   2    8.50    2.40
   7   6   2    7.30    2.10
   7   6   2   13.20    2.70
   7   6   2    8.40    2.40
   8  -7  -2    0.90    1.30
   8  -7  -2    0.10    0.80
  -8   7   2    1.80    1.90
  -8   7   2   -0.50    1.20
  -8   7   2    1.00    1.70
  -8   7   2    1.30    1.40
   7  -7  -2    5.00    1.50
   7  -7  -2    3.50    1.30
  -7   7   2    2.20    1.70
  -7   7   2    5.20    1.70
  -7   7   2    3.30    1.50
  -7   7   2    3.10    1.70
   6  -7  -2    1.20    0.80
   6  -7  -2    1.50    0.90
   6  -7  -2    2.60    0.80
   6  -7  -2    1.40    1.10
  -6   7   2   -0.50    1.30
  -6   7   2    0.80    1.00
  -6   7   2    1.50    1.20
  -6   7   2    2.40    1.10
  -6   7   2    1.40    1.10
   5  -7  -2    9.00    1.40
   5  -7  -2    8.20    1.40
   5  -7  -2    8.70    1.40
   5  -7  -2    9.80    1.40
  -5   7   2    7.30    1.30
  -5   7   2    8.60    1.90
  -5   7   2    9.90    1.60
  -5   7   2   10.60    1.80
  -5   7   2    7.70    1.80
   4  -7  -2  114.99    5.90
   4  -7  -2  126.69    6.10
   4  -7  -2  141.59    6.10
   4  -7  -2  123.49    6.00
  -4   7   2  130.39    6.60
  -4   7   2  127.29    7.10
  -4   7   2  140.29    6.40
  -4   7   2  129.49    6.90
   3  -7  -2    1.50    0.60
   3  -7  -2    2.20    0.70
   3  -7  -2    1.50    0.70
   3  -7  -2    1.00    0.90
   3  -7  -2    0.90    0.60
  -3   7   2    1.50    0.80
  -3   7   2    1.90    1.00
  -3   7   2    0.50    1.00
  -3   7   2    1.90    0.80
  -3   7   2    2.40    0.90
   2  -7  -2   57.89    3.30
   2  -7  -2   53.49    3.00
   2  -7  -2   61.59    3.20
   2  -7  -2   55.29    3.00
   2  -7  -2   57.49    3.10
   2  -7  -2   53.69    3.20
  -2   7   2   60.09    3.30
  -2   7   2   55.69    3.60
  -2   7   2   60.69    3.50
  -2   7   2   61.19    3.90
  -2   7   2   62.29    3.70
   1  -7  -2   62.39    3.10
   1  -7  -2   59.89    3.30
   1  -7  -2   64.19    3.70
   1  -7  -2   65.69    3.60
   1  -7  -2   66.69    3.20
  -1   7   2   68.59    4.10
  -1   7   2   62.59    3.80
  -1   7   2   63.29    4.00
  -1   7   2   62.39    3.60
   0  -7  -2  157.08    6.50
   0  -7  -2  150.58    7.40
   0  -7  -2  152.08    6.60
   0  -7  -2  154.58    6.90
   0  -7  -2  148.39    7.20
   0   7   2  160.08    7.50
   0   7   2  156.98    7.40
   0   7   2  159.28    7.60
   0   7   2  144.49    7.00
  -1  -7  -2    0.00    0.50
  -1  -7  -2    0.60    0.50
  -1  -7  -2    0.10    0.60
  -1  -7  -2   -0.10    0.40
  -1  -7  -2    0.30    0.70
  -1  -7  -2    0.40    0.40
  -1  -7  -2    0.10    0.70
   1   7   2   -0.50    0.70
   1   7   2    0.10    1.00
   1   7   2    0.20    0.80
   1   7   2    1.60    1.00
   1   7   2   -0.80    0.60
  -2  -7  -2   14.50    1.20
  -2  -7  -2   14.60    2.10
  -2  -7  -2   11.30    1.90
  -2  -7  -2   12.10    1.80
  -2  -7  -2   14.00    2.00
  -2  -7  -2   14.60    1.20
  -2  -7  -2   16.70    1.80
   2   7   2   13.50    1.90
   2   7   2   10.50    1.80
   2   7   2   13.00    2.20
   2   7   2   14.80    1.80
   2   7   2   11.60    1.80
  -3  -7  -2  144.69    7.30
  -3  -7  -2  152.38    6.80
  -3  -7  -2  139.39    7.50
  -3  -7  -2  139.29    7.70
  -3  -7  -2  130.79    7.30
   3   7   2  132.59    7.10
   3   7   2  146.09    7.50
   3   7   2  137.69    7.10
   3   7   2  129.19    7.20
  -4  -7  -2    5.20    1.70
  -4  -7  -2    2.30    1.30
  -4  -7  -2    2.50    1.50
  -4  -7  -2    2.50    1.40
  -4  -7  -2    4.90    1.40
   4   7   2    2.70    1.50
   4   7   2    4.00    1.50
   4   7   2    5.00    1.70
   4   7   2    2.80    1.10
  -5  -7  -2   25.10    3.60
  -5  -7  -2   33.10    4.00
  -5  -7  -2   38.80    3.00
  -5  -7  -2   30.40    3.70
  -5  -7  -2   36.10    4.20
   5   7   2   32.20    3.60
   5   7   2   34.70    3.80
   5   7   2   38.30    3.70
   5   7   2   25.20    3.20
  -6  -7  -2    0.80    1.70
  -6  -7  -2   -0.20    1.50
  -6  -7  -2   -2.30    1.00
  -6  -7  -2   -1.30    1.00
   6   7   2    0.80    1.50
   6   7   2    0.50    1.20
   6   7   2    0.80    1.50
   7  -8  -2    1.70    1.30
   7  -8  -2    0.40    0.90
  -7   8   2   -0.10    1.80
  -7   8   2   -1.60    1.00
  -7   8   2    1.70    1.50
  -7   8   2    1.20    1.40
   6  -8  -2    9.70    1.60
   6  -8  -2    9.00    1.70
   6  -8  -2   11.80    1.90
  -6   8   2    7.00    1.70
  -6   8   2    6.20    1.90
  -6   8   2    8.60    2.10
  -6   8   2    6.80    1.90
   5  -8  -2    7.90    1.50
   5  -8  -2    7.60    1.40
   5  -8  -2    6.00    1.20
   5  -8  -2    6.50    1.20
  -5   8   2    5.60    1.90
  -5   8   2    6.20    2.10
  -5   8   2    4.90    1.50
  -5   8   2    8.50    1.70
   4  -8  -2   20.50    2.30
   4  -8  -2   18.80    1.90
   4  -8  -2   20.80    2.00
   4  -8  -2   22.50    2.20
   4  -8  -2   23.40    1.90
  -4   8   2   22.00    2.50
  -4   8   2   20.70    2.30
  -4   8   2   20.40    2.70
  -4   8   2   24.40    3.00
   3  -8  -2   -0.30    0.60
   3  -8  -2    1.10    0.60
   3  -8  -2   -0.30    0.70
   3  -8  -2    0.20    0.50
   3  -8  -2   -0.60    0.60
  -3   8   2   -0.10    0.70
  -3   8   2   -0.40    0.80
  -3   8   2    0.60    1.00
  -3   8   2    1.10    0.90
   2  -8  -2    2.70    0.80
   2  -8  -2    2.40    0.90
   2  -8  -2    2.50    0.80
   2  -8  -2    2.60    0.70
  -2   8   2    2.20    1.10
  -2   8   2   -0.10    0.80
  -2   8   2    0.30    0.80
  -2   8   2    2.40    1.10
   1  -8  -2  112.79    5.20
   1  -8  -2  115.29    5.70
   1  -8  -2  111.69    5.90
   1  -8  -2  107.79    5.40
   1  -8  -2  115.99    5.20
  -1   8   2  127.19    6.30
  -1   8   2  117.99    6.00
  -1   8   2   99.99    5.70
  -1   8   2  117.59    6.30
   0  -8  -2   24.50    2.60
   0  -8  -2   24.80    2.20
   0  -8  -2   23.60    1.60
   0  -8  -2   22.80    2.20
   0  -8  -2   24.40    1.60
   0   8   2   23.80    2.60
   0   8   2   18.50    2.60
   0   8   2   22.60    2.60
  -1  -8  -2   92.79    5.40
  -1  -8  -2   91.89    5.50
  -1  -8  -2   96.69    4.90
   1   8   2  104.29    5.50
   1   8   2   97.19    5.30
   1   8   2   95.69    5.60
   1   8   2   95.79    5.50
   1   8   2   96.19    5.20
  -2  -8  -2    3.90    1.20
  -2  -8  -2    5.00    1.50
  -2  -8  -2    7.50    1.40
  -2  -8  -2    4.30    1.30
  -2  -8  -2    4.80    1.40
   2   8   2    5.70    1.40
   2   8   2    3.30    1.60
   2   8   2    7.80    1.60
   2   8   2    7.80    1.70
  -3  -8  -2    5.00    1.60
  -3  -8  -2    7.10    1.90
  -3  -8  -2    6.60    1.70
  -3  -8  -2    8.40    1.50
  -3  -8  -2   12.50    2.20
   3   8   2    6.50    1.60
   3   8   2   12.60    2.10
   3   8   2    9.50    1.90
   3   8   2   11.20    2.20
  -4  -8  -2    1.00    1.30
  -4  -8  -2   -1.10    0.90
  -4  -8  -2    2.00    1.40
  -4  -8  -2    0.70    1.30
  -4  -8  -2    1.10    1.20
   4   8   2    0.90    1.30
   4   8   2    2.30    1.40
   4   8   2    0.00    1.20
   4   8   2   -1.80    1.20
  -5  -8  -2   -0.90    1.40
  -5  -8  -2    1.30    1.50
  -5  -8  -2   -0.10    1.00
  -5  -8  -2    0.30    1.40
   5   8   2   -2.00    1.10
   5   8   2   -0.50    1.00
   5   8   2    2.20    1.50
  -6  -8  -2    2.30    2.10
  -6  -8  -2    1.70    1.50
  -6  -8  -2    2.20    1.70
   6   8   2    2.90    1.90
   6   8   2    2.30    1.80
   6   8   2    2.90    1.90
   7  -9  -2    2.80    1.60
   7  -9  -2    1.10    1.30
   7  -9  -2    1.50    1.00
  -7   9   2    2.10    1.50
  -7   9   2    1.00    1.60
  -7   9   2    0.70    1.70
  -7   9   2   -1.70    1.20
   6  -9  -2    5.80    1.70
   6  -9  -2    4.00    1.40
   6  -9  -2    6.10    1.50
  -6   9   2    3.10    1.80
  -6   9   2    1.80    1.90
  -6   9   2    5.10    1.60
  -6   9   2    4.90    1.90
   5  -9  -2   26.50    2.70
   5  -9  -2   19.50    2.50
   5  -9  -2   21.90    2.30
   5  -9  -2   23.80    2.50
  -5   9   2   20.10    2.80
  -5   9   2   18.40    3.00
  -5   9   2   20.00    3.00
  -5   9   2   23.10    2.70
   4  -9  -2   24.50    2.60
   4  -9  -2   27.10    2.10
   4  -9  -2   25.50    2.40
   4  -9  -2   24.60    2.40
   4  -9  -2   26.90    2.30
  -4   9   2   24.00    2.70
  -4   9   2   30.30    3.60
  -4   9   2   24.60    3.20
   3  -9  -2   22.90    2.20
   3  -9  -2   19.30    1.90
   3  -9  -2   23.40    1.80
   3  -9  -2   18.40    2.20
  -3   9   2   15.90    2.40
  -3   9   2   19.20    2.80
   2  -9  -2    0.40    0.70
   2  -9  -2    0.50    0.80
   2  -9  -2    1.10    0.70
   2  -9  -2    0.60    0.60
  -2   9   2   -0.80    0.90
  -2   9   2   -0.10    0.80
  -2   9   2    2.10    1.30
   1  -9  -2    0.20    0.70
   1  -9  -2    0.90    0.90
   1  -9  -2   -0.60    0.40
   1  -9  -2   -0.40    0.50
   1  -9  -2   -0.10    0.80
  -1   9   2   -0.10    0.70
  -1   9   2   -0.30    1.20
  -1   9   2   -1.40    0.90
   0  -9  -2    2.00    1.10
   0  -9  -2    0.30    0.90
   0  -9  -2    0.20    0.70
   0   9   2    1.10    1.10
   0   9   2    1.10    1.20
   0   9   2    1.60    1.20
  -1  -9  -2    2.40    1.10
  -1  -9  -2    3.70    1.20
  -1  -9  -2    4.40    1.10
   1   9   2    0.40    1.00
   1   9   2    3.50    1.50
   1   9   2    1.60    1.10
   1   9   2   -0.80    0.80
  -2  -9  -2    5.00    1.50
  -2  -9  -2    5.60    1.70
  -2  -9  -2    5.50    1.40
   2   9   2    2.70    1.40
   2   9   2    5.70    1.60
   2   9   2    7.80    1.90
  -3  -9  -2   -0.30    1.10
  -3  -9  -2   -0.30    1.00
  -3  -9  -2    1.80    1.20
  -3  -9  -2    0.60    0.80
  -3  -9  -2    0.10    1.30
   3   9   2   -1.60    1.00
   3   9   2    0.50    1.40
   3   9   2    1.80    1.30
   3   9   2    0.60    1.30
  -4  -9  -2    0.40    1.40
  -4  -9  -2    1.60    1.50
  -4  -9  -2    3.40    1.70
  -4  -9  -2    1.20    1.20
   4   9   2   -2.60    1.30
   4   9   2   -0.10    1.30
   4   9   2    2.00    1.60
  -5  -9  -2    2.10    1.80
  -5  -9  -2   -0.40    1.30
  -5  -9  -2    0.40    1.40
   5   9   2    0.90    1.80
   5   9   2    4.20    2.00
   5   9   2    3.90    2.00
   6 -10  -2    3.40    1.50
   6 -10  -2    0.90    1.30
   6 -10  -2    0.10    1.20
  -6  10   2    0.60    1.30
  -6  10   2   -0.70    1.40
  -6  10   2    2.10    1.90
  -6  10   2   -0.10    2.00
   5 -10  -2   -1.10    0.90
   5 -10  -2    0.60    0.80
   5 -10  -2    1.20    1.30
  -5  10   2    1.40    1.30
  -5  10   2   -0.30    1.80
  -5  10   2    0.00    1.50
   4 -10  -2   -1.10    0.90
   4 -10  -2    0.30    0.80
   4 -10  -2   -0.50    0.90
  -4  10   2    0.00    1.30
  -4  10   2    0.90    1.60
   3 -10  -2    0.20    0.80
   3 -10  -2    0.70    0.90
   3 -10  -2    1.20    0.90
   3 -10  -2    0.20    0.70
  -3  10   2    0.00    1.10
  -3  10   2    0.00    1.40
   2 -10  -2    8.90    1.70
   2 -10  -2    7.20    1.30
  -2  10   2    9.00    1.90
  -2  10   2    6.50    1.80
   1 -10  -2    0.50    1.00
   1 -10  -2    1.50    0.80
  -1  10   2   -1.60    1.00
  -1  10   2   -1.20    1.20
  -1  10   2    0.30    1.10
   0 -10  -2    0.90    0.90
   0 -10  -2    0.50    1.00
   0 -10  -2   -1.40    1.20
   0  10   2    1.90    1.60
   0  10   2    0.50    1.20
   0  10   2    0.70    1.20
  -1 -10  -2    0.10    0.90
  -1 -10  -2    0.80    1.00
  -1 -10  -2    1.40    1.00
   1  10   2   -0.90    0.90
   1  10   2    0.00    1.10
   1  10   2   -0.20    1.20
  -2 -10  -2    3.20    1.60
  -2 -10  -2    1.80    1.30
  -2 -10  -2    5.60    1.70
   2  10   2    2.50    1.60
   2  10   2    0.90    1.40
  -3 -10  -2    0.10    1.20
  -3 -10  -2    2.00    1.20
   3  10   2   -0.40    1.50
   3  10   2   -2.10    1.30
  -4 -10  -2    2.10    1.80
  -4 -10  -2    0.60    1.60
  -4 -10  -2    2.20    1.40
   4  10   2    2.60    1.80
   4  10   2    2.20    1.90
   4  10   2    3.10    1.90
   4 -11  -2    1.20    1.10
   4 -11  -2    0.60    1.00
  -4  11   2   -2.10    1.30
  -4  11   2   -0.50    1.10
   3 -11  -2    2.80    1.60
   3 -11  -2    2.50    1.20
  -3  11   2    1.40    1.80
   2 -11  -2    1.10    1.10
   2 -11  -2   -0.10    0.90
  -2  11   2    1.60    1.40
   1 -11  -2    2.90    1.20
   1 -11  -2    2.00    1.30
  -1  11   2    1.40    1.80
  -1  11   2    2.40    1.60
   0 -11  -2    8.10    1.70
   0  11   2    6.50    2.00
   0  11   2    4.10    1.70
  -1 -11  -2   -0.40    1.10
   1  11   2   -1.00    1.50
  -2 -11  -2    2.30    1.50
  -2 -11  -2   -0.50    1.20
   2  11   2   -0.40    1.20
   2 -12  -2    2.60    1.30
  -2  12   2    0.60    1.80
   1 -12  -2   -0.20    1.20
  -1  12   2    1.00    1.70
   0 -12  -2    4.00    1.50
   3  12  -3    2.50    1.80
   3  12  -3   11.30    2.40
  -3 -12   3    6.70    2.10
  -3 -12   3    6.40    2.20
   2  12  -3    5.20    2.10
   2  12  -3    5.30    1.70
  -2 -12   3    4.10    1.60
   1  12  -3    1.30    1.60
   1  12  -3    3.80    1.90
  -1 -12   3    3.30    1.40
   0  12  -3    8.60    2.40
   0 -12   3   10.00    2.10
  -1  12  -3   -0.10    1.70
   1 -12   3    1.50    1.20
  -2  12  -3   -1.50    1.70
  -2  12  -3    1.30    1.40
   2 -12   3   -0.30    1.00
  -3  12  -3    1.30    1.50
  -3  12  -3   -0.20    1.40
   3 -12   3   -0.60    0.90
   3 -12   3   -0.60    0.90
  -4  12  -3    3.70    1.80
  -4  12  -3    2.50    2.00
   4 -12   3    1.80    1.10
   4 -12   3    5.40    1.50
   4  11  -3    0.90    1.30
   4  11  -3    1.20    1.20
  -4 -11   3   -0.20    1.30
  -4 -11   3   -1.00    1.30
  -4 -11   3   -1.10    1.40
   3  11  -3    0.70    1.30
   3  11  -3   -0.30    1.00
   3  11  -3    1.30    1.20
  -3 -11   3   -0.70    1.20
  -3 -11   3    0.60    1.40
  -3 -11   3    1.20    1.20
   2  11  -3    3.10    1.60
   2  11  -3    2.00    1.50
   2  11  -3    4.00    1.40
  -2 -11   3    3.70    1.50
  -2 -11   3    4.80    1.60
   1  11  -3   -0.30    1.00
   1  11  -3    2.50    1.40
   1  11  -3    1.70    1.10
  -1 -11   3    2.20    1.20
  -1 -11   3    3.10    1.40
  -1 -11   3    0.90    0.90
   0  11  -3    1.50    1.50
   0 -11   3    1.00    1.10
   0 -11   3    1.50    1.10
  -1  11  -3    8.30    2.20
  -1  11  -3   12.20    2.10
   1 -11   3    7.70    1.60
   1 -11   3   11.70    2.00
  -2  11  -3    0.60    1.60
  -2  11  -3    2.10    1.40
   2 -11   3    2.80    1.20
   2 -11   3    2.10    1.10
   2 -11   3    2.20    0.90
  -3  11  -3   -0.80    1.30
  -3  11  -3    0.10    1.50
   3 -11   3    0.50    0.90
   3 -11   3    0.10    0.80
  -4  11  -3   16.50    2.80
  -4  11  -3   17.60    3.00
   4 -11   3   17.00    2.30
   4 -11   3   15.80    2.00
  -5  11  -3    0.20    1.60
  -5  11  -3   -0.10    1.30
  -5  11  -3    0.60    1.70
   5 -11   3    0.90    1.10
   5 -11   3   -0.90    1.00
   5  10  -3    0.20    1.00
   5  10  -3   -0.10    1.20
  -5 -10   3    0.60    1.50
  -5 -10   3   -0.20    1.50
  -5 -10   3    0.00    1.40
   4  10  -3    0.50    1.20
   4  10  -3    0.80    1.20
   4  10  -3    0.90    1.10
  -4 -10   3    0.50    1.20
  -4 -10   3   -1.00    1.00
  -4 -10   3    1.00    1.40
   3  10  -3    2.80    1.40
   3  10  -3    1.50    1.10
   3  10  -3    2.20    1.20
   3  10  -3    1.70    1.30
  -3 -10   3    3.10    1.50
  -3 -10   3    3.50    1.60
  -3 -10   3    2.00    1.20
  -3 -10   3    3.30    1.40
   2  10  -3    7.20    1.60
   2  10  -3    5.90    1.50
   2  10  -3    7.50    1.70
   2  10  -3    6.10    1.40
  -2 -10   3    4.00    1.30
  -2 -10   3    5.40    1.50
  -2 -10   3    6.70    1.70
  -2 -10   3    5.60    1.60
   1  10  -3    4.70    1.40
   1  10  -3    6.10    1.40
   1  10  -3    3.30    1.40
  -1 -10   3    7.50    1.60
  -1 -10   3    3.40    1.40
  -1 -10   3    1.70    1.20
   0  10  -3    2.30    1.40
   0  10  -3    4.70    1.30
   0  10  -3    2.80    1.10
   0 -10   3    2.40    1.00
   0 -10   3    2.80    1.00
   0 -10   3    2.80    1.10
  -1  10  -3   30.00    3.00
  -1  10  -3   23.70    2.90
   1 -10   3   21.20    2.50
   1 -10   3   23.20    2.60
   1 -10   3   26.10    1.90
  -2  10  -3   70.19    4.40
  -2  10  -3   59.29    4.50
   2 -10   3   65.89    4.00
   2 -10   3   67.19    3.60
   2 -10   3   69.59    4.20
  -3  10  -3   18.60    2.90
  -3  10  -3   19.80    2.70
   3 -10   3   22.40    2.40
   3 -10   3   22.40    2.40
   3 -10   3   17.80    1.90
  -4  10  -3   10.40    2.10
  -4  10  -3   14.60    2.70
  -4  10  -3    7.10    1.90
   4 -10   3   12.70    1.90
   4 -10   3   11.60    1.70
   4 -10   3   15.40    2.10
  -5  10  -3   -0.40    1.10
  -5  10  -3    1.10    1.40
  -5  10  -3    0.90    1.40
   5 -10   3    0.50    0.90
   5 -10   3   -0.10    1.00
   5 -10   3    0.30    1.00
  -6  10  -3    4.10    1.50
  -6  10  -3    4.70    2.30
  -6  10  -3    2.10    1.70
  -6  10  -3    3.30    1.90
   6 -10   3    4.00    1.50
   6 -10   3    3.80    1.60
   6 -10   3    3.70    1.40
   6   9  -3    3.50    1.80
   6   9  -3    1.90    1.40
  -6  -9   3    2.70    1.30
  -6  -9   3    2.60    1.90
  -6  -9   3    2.20    1.80
  -6  -9   3    2.70    1.80
   5   9  -3    0.60    1.00
   5   9  -3   -0.90    1.10
  -5  -9   3    0.60    1.10
  -5  -9   3   -0.10    1.30
  -5  -9   3   -1.10    1.50
  -5  -9   3    1.40    1.40
  -5  -9   3    1.70    1.60
   4   9  -3   -0.40    0.80
   4   9  -3   -0.70    0.80
   4   9  -3    0.70    1.00
   4   9  -3    0.70    1.10
  -4  -9   3    1.80    1.30
  -4  -9   3    0.40    1.10
  -4  -9   3   -0.70    0.50
  -4  -9   3    2.20    1.30
  -4  -9   3    1.40    1.10
   3   9  -3   14.20    2.10
   3   9  -3   12.80    2.20
   3   9  -3    8.50    1.70
   3   9  -3   11.40    1.90
  -3  -9   3   13.90    2.00
  -3  -9   3   11.00    2.20
  -3  -9   3   12.80    2.20
  -3  -9   3   13.20    2.20
  -3  -9   3   15.40    2.20
   2   9  -3    6.40    1.30
   2   9  -3    5.60    1.40
   2   9  -3    4.60    1.20
   2   9  -3    4.90    1.40
  -2  -9   3    7.00    1.50
  -2  -9   3    2.50    1.20
  -2  -9   3    2.60    1.00
  -2  -9   3    2.80    1.00
  -2  -9   3    3.30    1.20
   1   9  -3  145.39    6.80
   1   9  -3  150.68    7.30
   1   9  -3  132.19    6.90
   1   9  -3  140.69    6.60
   1   9  -3  135.99    6.90
  -1  -9   3  134.89    7.10
  -1  -9   3  138.59    6.80
  -1  -9   3  145.09    6.90
  -1  -9   3  127.69    7.00
   0   9  -3    8.80    1.40
   0   9  -3    7.70    1.50
   0   9  -3    7.70    1.50
   0   9  -3   11.20    1.70
   0  -9   3    5.60    1.40
   0  -9   3   10.60    1.80
   0  -9   3    9.30    1.40
   0  -9   3    7.70    1.20
  -1   9  -3   26.40    2.70
  -1   9  -3   21.00    2.60
   1  -9   3   25.10    2.50
   1  -9   3   20.90    2.10
   1  -9   3   22.80    2.40
   1  -9   3   23.30    1.70
  -2   9  -3   13.10    2.00
  -2   9  -3   14.10    2.20
  -2   9  -3   12.20    1.70
   2  -9   3   16.70    1.60
   2  -9   3   16.20    1.90
   2  -9   3   15.70    1.90
  -3   9  -3    0.60    1.30
  -3   9  -3   -0.20    0.80
  -3   9  -3    2.20    1.30
   3  -9   3    1.80    0.80
   3  -9   3    1.70    0.80
   3  -9   3    0.60    0.80
  -4   9  -3   38.90    2.90
  -4   9  -3   40.40    2.90
  -4   9  -3   37.40    3.80
  -4   9  -3   36.50    3.80
  -4   9  -3   36.60    3.20
   4  -9   3   39.90    2.80
   4  -9   3   43.90    2.80
   4  -9   3   43.10    2.90
   4  -9   3   44.50    2.80
   4  -9   3   43.00    3.00
  -5   9  -3    3.00    1.70
  -5   9  -3    3.70    1.20
  -5   9  -3    2.40    1.40
  -5   9  -3    0.50    0.90
  -5   9  -3    1.50    1.40
   5  -9   3    4.00    1.20
   5  -9   3    3.40    1.20
   5  -9   3    1.80    1.00
   5  -9   3    2.90    1.10
   5  -9   3    2.40    1.20
  -6   9  -3   14.40    2.30
  -6   9  -3   12.90    2.10
  -6   9  -3   18.50    2.90
  -6   9  -3   16.20    2.50
  -6   9  -3    9.70    2.20
  -6   9  -3   14.60    2.90
   6  -9   3   13.20    2.10
   6  -9   3   14.10    2.00
   6  -9   3   15.20    2.10
   6  -9   3   10.50    1.90
  -7   9  -3    2.80    1.50
  -7   9  -3    0.70    1.40
  -7   9  -3    1.10    1.70
  -7   9  -3   -2.00    1.60
   7  -9   3    2.40    1.40
   7  -9   3    0.70    1.30
   7  -9   3    1.20    1.10
   7   8  -3    0.60    1.40
   7   8  -3    0.50    1.30
   7   8  -3    2.90    1.60
  -7  -8   3    1.00    2.00
  -7  -8   3   -0.10    1.20
  -7  -8   3    2.30    1.90
  -7  -8   3    3.00    2.10
   6   8  -3   13.30    2.20
   6   8  -3    8.00    2.00
  -6  -8   3   15.10    2.90
  -6  -8   3    9.30    1.90
  -6  -8   3    6.80    2.10
  -6  -8   3   10.60    2.30
  -6  -8   3    6.20    2.60
   5   8  -3   28.80    2.90
   5   8  -3   22.60    2.80
   5   8  -3   28.50    3.20
  -5  -8   3   20.60    3.00
  -5  -8   3   19.10    3.00
  -5  -8   3   27.50    2.90
  -5  -8   3   26.60    3.50
  -5  -8   3   22.90    3.10
   4   8  -3    0.00    0.90
   4   8  -3    0.50    0.80
   4   8  -3   -0.30    0.70
   4   8  -3    0.60    0.70
  -4  -8   3    0.10    1.10
  -4  -8   3    0.40    0.80
  -4  -8   3    0.50    0.70
  -4  -8   3    0.70    1.10
  -4  -8   3    0.50    0.70
   3   8  -3   25.80    2.60
   3   8  -3   29.30    3.00
   3   8  -3   23.00    2.50
   3   8  -3   27.90    2.30
  -3  -8   3   23.40    2.70
  -3  -8   3   27.50    2.60
  -3  -8   3   23.80    2.70
  -3  -8   3   20.10    2.60
  -3  -8   3   26.00    2.90
   2   8  -3  181.38    8.50
   2   8  -3  164.58    8.20
   2   8  -3  174.28    8.10
   2   8  -3  178.78    8.30
  -2  -8   3  179.88    8.10
  -2  -8   3  184.18    8.40
  -2  -8   3  175.18    8.60
  -2  -8   3  169.98    8.60
  -2  -8   3  178.28    8.30
   1   8  -3   56.79    3.40
   1   8  -3   45.70    3.00
   1   8  -3   50.09    3.00
   1   8  -3   50.39    3.10
   1   8  -3   49.80    3.30
  -1  -8   3   50.39    2.70
  -1  -8   3   44.80    3.00
  -1  -8   3   53.29    3.10
  -1  -8   3   44.40    3.20
  -1  -8   3   48.80    3.10
  -1  -8   3   48.30    3.30
   0   8  -3  345.67   14.60
   0   8  -3  356.16   14.80
   0   8  -3  363.56   15.30
   0   8  -3  352.76   14.80
   0  -8   3  360.66   14.30
   0  -8   3  368.26   14.70
   0  -8   3  358.96   15.00
   0  -8   3  350.96   14.60
   0  -8   3  340.17   15.00
   0  -8   3  361.76   14.70
  -1   8  -3  133.59    6.20
  -1   8  -3  127.29    6.00
  -1   8  -3  130.29    6.70
  -1   8  -3  135.39    6.50
   1  -8   3  125.79    6.20
   1  -8   3  134.69    6.00
   1  -8   3  128.99    5.70
   1  -8   3  131.19    6.20
  -2   8  -3   62.89    3.50
  -2   8  -3   58.59    3.70
  -2   8  -3   56.09    3.80
   2  -8   3   54.39    3.00
   2  -8   3   63.49    3.40
   2  -8   3   53.09    3.00
   2  -8   3   61.89    3.40
   2  -8   3   61.29    3.10
   2  -8   3   54.19    2.90
  -3   8  -3    1.20    0.90
  -3   8  -3    1.80    0.80
  -3   8  -3    0.70    0.70
  -3   8  -3    1.70    1.00
  -3   8  -3    2.50    0.80
   3  -8   3    2.50    0.90
   3  -8   3    1.90    0.70
   3  -8   3    1.30    0.70
   3  -8   3    2.50    0.80
   3  -8   3    2.20    0.80
  -4   8  -3   15.00    1.80
  -4   8  -3   16.50    2.40
  -4   8  -3   16.70    2.40
  -4   8  -3   16.20    2.00
  -4   8  -3   13.30    2.10
   4  -8   3   20.60    1.80
   4  -8   3   17.80    1.90
   4  -8   3   14.60    1.70
   4  -8   3   15.40    1.70
   4  -8   3   18.20    1.90
  -5   8  -3    4.80    1.40
  -5   8  -3    5.00    1.40
  -5   8  -3    9.80    1.60
  -5   8  -3    4.30    1.70
  -5   8  -3    6.20    1.40
  -5   8  -3    6.00    1.40
   5  -8   3    5.70    1.20
   5  -8   3    7.90    1.50
   5  -8   3    6.90    1.30
   5  -8   3    5.80    1.40
   5  -8   3    8.90    1.50
  -6   8  -3   14.10    2.60
  -6   8  -3   14.10    2.50
  -6   8  -3   13.60    2.20
  -6   8  -3   14.40    2.20
  -6   8  -3   11.30    1.90
  -6   8  -3   10.20    2.20
   6  -8   3   14.40    2.10
   6  -8   3   10.50    1.80
   6  -8   3   13.00    2.00
   6  -8   3   17.30    2.20
   6  -8   3   16.00    2.10
  -7   8  -3    0.40    1.70
  -7   8  -3    0.70    1.00
  -7   8  -3    1.70    1.20
  -7   8  -3    1.60    1.60
   7  -8   3    0.80    1.20
   7  -8   3    0.50    0.90
   7  -8   3    0.70    1.00
   7   7  -3    6.80    1.90
   7   7  -3    2.20    1.30
   7   7  -3    3.70    1.80
  -7  -7   3    1.70    1.20
  -7  -7   3    6.50    2.10
  -7  -7   3    3.80    2.10
  -7  -7   3    2.70    1.70
   6   7  -3   22.80    2.70
   6   7  -3   20.00    2.80
   6   7  -3   19.70    2.60
  -6  -7   3   18.60    2.40
  -6  -7   3   19.40    3.00
  -6  -7   3   18.30    2.90
  -6  -7   3   19.90    2.90
  -6  -7   3   18.10    3.00
   5   7  -3    0.20    1.10
   5   7  -3    1.90    1.00
   5   7  -3    0.90    0.80
   5   7  -3    1.20    1.00
  -5  -7   3    1.10    1.20
  -5  -7   3    3.10    1.50
  -5  -7   3    1.20    1.20
  -5  -7   3   -0.10    1.10
  -5  -7   3    1.20    0.90
   4   7  -3  386.96   17.30
   4   7  -3  411.76   16.50
   4   7  -3  404.56   17.00
   4   7  -3  392.86   16.90
  -4  -7   3  400.76   17.30
  -4  -7   3  393.46   17.20
  -4  -7   3  399.36   17.50
  -4  -7   3  395.46   16.80
  -4  -7   3  401.56   17.60
   3   7  -3  220.88   10.70
   3   7  -3  246.08   10.30
   3   7  -3  231.88   10.50
   3   7  -3  238.08   10.60
  -3  -7   3  236.38   10.70
  -3  -7   3  239.58   10.70
  -3  -7   3  235.08   11.00
  -3  -7   3  230.08   10.90
  -3  -7   3  245.98   10.40
   2   7  -3  389.26   15.70
   2   7  -3  376.86   16.00
   2   7  -3  378.26   15.70
   2   7  -3  386.16   15.30
   2   7  -3  359.06   15.70
  -2  -7   3  367.26   16.00
  -2  -7   3  386.26   15.60
  -2  -7   3  390.36   15.90
  -2  -7   3  380.96   15.90
  -2  -7   3  374.16   15.10
  -2  -7   3  375.06   16.10
   1   7  -3  226.98    9.70
   1   7  -3  214.98    9.50
   1   7  -3  216.58    9.60
   1   7  -3  212.58    9.30
  -1  -7   3  217.48    9.80
  -1  -7   3  223.68    9.90
  -1  -7   3  227.18    9.60
  -1  -7   3  222.58    9.40
  -1  -7   3  211.48    9.00
  -1  -7   3  229.48    9.60
   0   7  -3   29.40    1.90
   0   7  -3   29.20    1.80
   0   7  -3   30.20    2.10
   0   7  -3   29.90    2.30
   0   7  -3   31.90    2.10
   0  -7   3   30.20    1.90
   0  -7   3   27.00    2.10
   0  -7   3   28.70    1.70
   0  -7   3   29.30    2.10
   0  -7   3   33.50    2.10
   0  -7   3   34.00    2.10
  -1   7  -3   13.10    1.20
  -1   7  -3   11.30    1.30
  -1   7  -3   13.90    1.60
  -1   7  -3   12.10    1.70
  -1   7  -3   12.50    1.00
  -1   7  -3    9.00    1.20
   1  -7   3   12.30    1.40
   1  -7   3   14.50    1.40
   1  -7   3   10.20    1.00
   1  -7   3   11.00    1.10
   1  -7   3   10.80    1.00
   1  -7   3   12.20    1.40
  -2   7  -3   14.70    1.90
  -2   7  -3   12.90    1.50
  -2   7  -3   11.10    1.70
  -2   7  -3   11.90    1.30
  -2   7  -3   11.00    1.20
   2  -7   3   12.20    1.30
   2  -7   3   12.00    1.40
   2  -7   3   14.50    1.50
   2  -7   3   14.60    1.30
   2  -7   3   13.10    1.30
   2  -7   3   14.10    1.30
  -3   7  -3   36.20    2.70
  -3   7  -3   35.10    2.70
  -3   7  -3   33.40    2.20
  -3   7  -3   31.50    2.30
  -3   7  -3   35.10    2.40
  -3   7  -3   32.00    2.40
   3  -7   3   34.00    2.00
   3  -7   3   33.80    2.30
   3  -7   3   32.90    2.10
   3  -7   3   33.90    2.20
   3  -7   3   35.10    2.20
   3  -7   3   31.80    2.10
  -4   7  -3    0.80    1.00
  -4   7  -3    1.30    0.80
  -4   7  -3    3.10    1.10
  -4   7  -3    2.00    0.80
  -4   7  -3    1.20    0.70
  -4   7  -3    1.00    0.70
   4  -7   3    1.90    0.80
   4  -7   3    2.80    0.80
   4  -7   3    0.60    0.60
   4  -7   3    3.30    0.80
   4  -7   3    3.00    0.90
  -5   7  -3    3.10    1.30
  -5   7  -3    3.70    1.10
  -5   7  -3    3.80    1.10
  -5   7  -3    3.70    1.20
  -5   7  -3    5.00    1.30
  -5   7  -3    3.10    1.10
   5  -7   3    2.30    0.90
   5  -7   3    3.50    1.00
   5  -7   3    3.80    1.10
   5  -7   3    4.90    1.10
   5  -7   3    2.90    1.10
  -6   7  -3    0.10    1.20
  -6   7  -3    0.60    1.30
  -6   7  -3    0.10    1.00
  -6   7  -3    1.50    1.20
  -6   7  -3    0.00    0.70
  -6   7  -3    1.90    1.00
   6  -7   3    0.20    0.80
   6  -7   3    1.40    1.00
   6  -7   3    0.40    1.00
   6  -7   3   -0.40    0.90
   6  -7   3    0.40    0.70
  -7   7  -3   -0.70    1.00
  -7   7  -3    1.10    1.30
  -7   7  -3    1.40    1.20
  -7   7  -3   -0.90    1.40
   7  -7   3    0.50    1.10
   7  -7   3    0.30    1.10
   7  -7   3    0.30    1.10
  -8   7  -3   -0.10    1.50
  -8   7  -3    1.90    1.40
  -8   7  -3    0.70    1.90
  -8   7  -3    1.10    1.70
   8  -7   3    0.40    0.90
   8  -7   3    1.60    1.50
   8  -7   3   -0.60    1.10
   8   6  -3    8.70    2.10
   8   6  -3   17.40    2.90
   8   6  -3    6.30    1.60
  -8  -6   3   12.00    2.20
  -8  -6   3   10.10    2.70
  -8  -6   3   12.30    2.90
  -8  -6   3    8.80    2.40
   7   6  -3    6.90    1.80
   7   6  -3    9.00    1.70
   7   6  -3    5.60    1.80
   7   6  -3    7.50    1.80
  -7  -6   3    7.90    2.10
  -7  -6   3    8.40    2.40
  -7  -6   3    7.60    2.30
  -7  -6   3    5.60    2.00
  -7  -6   3   10.70    1.90
   6   6  -3   53.69    3.70
   6   6  -3   56.39    4.10
   6   6  -3   53.19    3.80
  -6  -6   3   53.49    4.20
  -6  -6   3   55.89    4.30
  -6  -6   3   44.70    3.90
  -6  -6   3   57.99    4.50
  -6  -6   3   55.59    3.60
   5   6  -3   56.09    3.80
   5   6  -3   55.29    3.30
   5   6  -3   51.59    3.80
   5   6  -3   56.69    3.70
  -5  -6   3   54.19    4.20
  -5  -6   3   59.39    3.60
  -5  -6   3   49.70    3.90
  -5  -6   3   57.49    4.00
  -5  -6   3   60.09    4.30
   4   6  -3   46.40    3.20
   4   6  -3   47.70    3.20
   4   6  -3   52.09    3.60
   4   6  -3   54.79    3.00
  -4  -6   3   42.70    3.40
  -4  -6   3   53.29    3.20
  -4  -6   3   49.40    3.40
  -4  -6   3   51.89    3.40
  -4  -6   3   47.90    3.10
  -4  -6   3   46.90    3.50
   3   6  -3    7.40    1.40
   3   6  -3    8.40    1.00
   3   6  -3    9.50    1.40
   3   6  -3    9.10    1.40
   3   6  -3   11.80    1.40
  -3  -6   3    7.70    1.30
  -3  -6   3   10.70    1.70
  -3  -6   3    7.30    1.30
  -3  -6   3    8.10    1.20
  -3  -6   3   10.20    1.10
  -3  -6   3    9.20    1.30
  -3  -6   3    5.70    1.30
   2   6  -3   85.69    4.50
   2   6  -3   97.99    4.50
   2   6  -3   91.09    4.10
   2   6  -3   88.09    4.50
  -2  -6   3   86.99    4.60
  -2  -6   3   90.09    4.60
  -2  -6   3   88.49    3.90
  -2  -6   3   85.19    4.60
  -2  -6   3   83.59    4.70
  -2  -6   3   82.59    4.30
  -2  -6   3   86.59    4.30
   1   6  -3    8.00    0.70
   1   6  -3    6.90    1.10
   1   6  -3    8.10    1.10
   1   6  -3    8.90    1.00
   1   6  -3    8.90    1.20
  -1  -6   3    7.60    1.10
  -1  -6   3    7.90    0.80
  -1  -6   3    5.30    1.00
  -1  -6   3    8.20    1.10
  -1  -6   3    6.20    1.00
  -1  -6   3    6.20    0.90
   0   6  -3    1.90    0.60
   0   6  -3    1.60    0.50
   0   6  -3    0.70    0.50
   0   6  -3    1.50    0.60
   0   6  -3    3.20    0.70
   0   6  -3    2.50    0.50
   0  -6   3    2.10    0.50
   0  -6   3    2.00    0.60
   0  -6   3    1.70    0.50
   0  -6   3    2.20    0.60
   0  -6   3    1.70    0.30
   0  -6   3    1.50    0.40
   0  -6   3    1.10    0.50
   0  -6   3    1.70    0.30
  -1   6  -3   82.09    3.60
  -1   6  -3   79.19    4.00
  -1   6  -3   79.19    3.80
  -1   6  -3   77.59    3.60
  -1   6  -3   75.59    3.70
  -1   6  -3   75.89    4.20
  -1   6  -3   75.09    3.60
   1  -6   3   80.99    3.70
   1  -6   3   81.19    3.60
   1  -6   3   76.29    3.50
   1  -6   3   86.19    3.90
   1  -6   3   81.09    3.90
   1  -6   3   81.79    3.70
   1  -6   3   76.69    3.50
   1  -6   3   78.29    3.50
  -2   6  -3   81.69    4.00
  -2   6  -3   81.49    4.50
  -2   6  -3   81.99    3.90
  -2   6  -3   80.39    3.80
  -2   6  -3   83.29    4.00
  -2   6  -3   77.69    4.30
  -2   6  -3   84.99    4.20
   2  -6   3   83.99    3.90
   2  -6   3   80.69    3.80
   2  -6   3   89.39    4.00
   2  -6   3   78.39    3.80
   2  -6   3   88.89    3.80
   2  -6   3   85.39    4.10
  -3   6  -3   19.50    1.70
  -3   6  -3   15.80    1.80
  -3   6  -3   11.90    1.70
  -3   6  -3   18.60    1.80
  -3   6  -3   16.80    1.70
  -3   6  -3   14.50    1.80
   3  -6   3   13.70    1.40
   3  -6   3   13.80    1.50
   3  -6   3   13.70    1.40
   3  -6   3   18.60    1.40
   3  -6   3   15.60    1.20
  -4   6  -3    7.40    1.40
  -4   6  -3    8.50    1.30
  -4   6  -3   11.00    1.50
  -4   6  -3    9.30    1.40
  -4   6  -3    8.20    1.50
  -4   6  -3    8.00    1.50
   4  -6   3   10.90    1.40
   4  -6   3   10.20    1.10
   4  -6   3    9.80    1.30
   4  -6   3    9.80    1.30
   4  -6   3    8.20    1.30
  -5   6  -3    2.40    1.00
  -5   6  -3    2.70    1.20
  -5   6  -3    2.50    1.10
  -5   6  -3    1.20    1.00
  -5   6  -3    2.00    0.90
  -5   6  -3    2.80    1.00
   5  -6   3    3.10    1.00
   5  -6   3    2.30    0.80
   5  -6   3    2.00    0.80
   5  -6   3    1.40    0.90
  -6   6  -3    0.70    1.10
  -6   6  -3    0.60    0.70
  -6   6  -3   -0.50    1.10
  -6   6  -3    0.80    0.70
  -6   6  -3    1.20    0.90
   6  -6   3    0.30    0.90
   6  -6   3    0.00    0.80
   6  -6   3    0.80    1.00
   6  -6   3    1.30    1.00
  -7   6  -3    1.00    1.30
  -7   6  -3    0.70    1.30
  -7   6  -3    0.30    1.00
  -7   6  -3    1.00    1.00
  -7   6  -3    3.20    1.70
   7  -6   3    0.60    1.10
   7  -6   3   -1.00    1.00
   7  -6   3    0.30    1.10
   7  -6   3    1.20    0.90
   7  -6   3   -0.20    1.00
  -8   6  -3   -1.00    1.10
  -8   6  -3    0.60    1.20
  -8   6  -3    0.40    1.60
  -8   6  -3    0.50    1.60
   8  -6   3    0.20    1.30
   8  -6   3    1.00    1.40
   8  -6   3   -0.20    0.90
   8   5  -3    2.70    1.60
   8   5  -3    2.70    1.30
   8   5  -3    0.70    1.00
   8   5  -3   -0.30    1.10
  -8  -5   3    1.60    1.20
  -8  -5   3   -0.80    1.60
  -8  -5   3    2.50    2.00
  -8  -5   3    2.40    1.70
   7   5  -3    3.80    1.50
   7   5  -3    1.50    1.30
   7   5  -3    2.10    1.00
   7   5  -3    3.60    1.30
  -7  -5   3    3.90    1.80
  -7  -5   3    3.70    1.30
  -7  -5   3    2.20    1.60
  -7  -5   3    4.70    1.40
  -7  -5   3    2.70    1.30
   6   5  -3    0.90    0.60
   6   5  -3    0.40    0.90
   6   5  -3    0.00    1.00
  -6  -5   3   -1.00    1.00
  -6  -5   3    1.00    1.00
  -6  -5   3    0.20    1.00
  -6  -5   3    0.60    1.20
  -6  -5   3    1.20    0.70
  -6  -5   3    1.20    0.70
   5   5  -3    7.10    1.10
   5   5  -3    6.20    1.40
   5   5  -3    5.90    1.30
   5   5  -3    6.70    1.60
  -5  -5   3    6.30    1.50
  -5  -5   3    6.10    1.10
  -5  -5   3    4.20    1.10
  -5  -5   3    3.00    1.30
  -5  -5   3    4.80    1.30
  -5  -5   3    6.20    1.40
   4   5  -3   32.10    2.60
   4   5  -3   37.20    2.60
   4   5  -3   34.90    2.50
   4   5  -3   37.20    2.10
   4   5  -3   34.90    2.20
  -4  -5   3   36.80    2.40
  -4  -5   3   32.70    2.70
  -4  -5   3   31.40    2.50
  -4  -5   3   33.10    2.00
  -4  -5   3   34.10    2.70
  -4  -5   3   29.80    2.60
  -4  -5   3   31.70    2.30
   3   5  -3    0.50    0.40
   3   5  -3    0.80    0.60
   3   5  -3    0.00    0.50
   3   5  -3   -0.30    0.30
  -3  -5   3    0.30    0.40
  -3  -5   3    0.50    0.50
  -3  -5   3   -0.20    0.50
  -3  -5   3    0.30    0.40
  -3  -5   3   -0.30    0.40
  -3  -5   3    0.10    0.40
  -3  -5   3   -0.40    0.50
   2   5  -3   16.10    1.60
   2   5  -3   15.10    1.60
   2   5  -3   16.00    1.30
   2   5  -3   15.80    0.90
   2   5  -3   16.90    1.10
  -2  -5   3   15.80    1.50
  -2  -5   3   13.80    1.60
  -2  -5   3   16.30    1.60
  -2  -5   3   14.60    1.00
  -2  -5   3   14.00    1.50
  -2  -5   3   16.20    1.70
  -2  -5   3   14.50    1.40
   1   5  -3   22.80    1.70
   1   5  -3   24.70    1.70
   1   5  -3   24.30    1.30
   1   5  -3   25.40    1.50
   1   5  -3   26.90    1.70
  -1  -5   3   23.10    1.70
  -1  -5   3   23.00    1.30
  -1  -5   3   26.10    1.80
  -1  -5   3   25.30    1.60
  -1  -5   3   28.00    1.70
  -1  -5   3   26.50    1.60
  -1  -5   3   24.00    1.00
  -1  -5   3   24.20    1.70
  -1  -5   3   24.80    1.00
   0   5  -3   53.19    2.30
   0   5  -3   53.09    2.80
   0   5  -3   54.99    2.60
   0   5  -3   54.89    2.70
   0   5  -3   48.80    2.80
   0   5  -3   55.09    2.30
   0   5  -3   49.40    2.60
   0  -5   3   58.29    2.70
   0  -5   3   49.00    2.30
   0  -5   3   53.49    2.80
   0  -5   3   51.49    2.30
   0  -5   3   52.89    2.70
   0  -5   3   53.69    2.60
   0  -5   3   57.19    2.70
   0  -5   3   52.19    2.40
   0  -5   3   53.49    2.80
  -1   5  -3    0.30    0.30
  -1   5  -3    0.00    0.50
  -1   5  -3    0.50    0.30
  -1   5  -3    0.50    0.40
  -1   5  -3    0.30    0.30
  -1   5  -3    1.10    0.40
  -1   5  -3    1.20    0.40
   1  -5   3    1.40    0.40
   1  -5   3    0.40    0.30
   1  -5   3    1.30    0.40
   1  -5   3    0.40    0.30
   1  -5   3    0.80    0.30
   1  -5   3    0.80    0.30
   1  -5   3    1.10    0.40
  -2   5  -3   17.20    1.10
  -2   5  -3   18.50    1.30
  -2   5  -3   18.90    1.60
  -2   5  -3   17.70    1.80
  -2   5  -3   19.10    1.30
  -2   5  -3   16.90    1.30
  -2   5  -3   19.40    1.50
   2  -5   3   17.60    1.20
   2  -5   3   19.20    1.10
   2  -5   3   13.00    1.20
   2  -5   3   17.90    1.30
   2  -5   3   16.10    1.20
   2  -5   3   20.40    1.20
  -3   5  -3    7.00    1.20
  -3   5  -3    5.60    1.00
  -3   5  -3    6.30    1.10
  -3   5  -3    7.10    1.10
  -3   5  -3    6.20    1.00
  -3   5  -3    7.00    1.00
   3  -5   3    6.50    0.90
   3  -5   3    7.80    1.00
   3  -5   3    6.80    1.00
   3  -5   3    5.50    0.80
   3  -5   3    6.10    0.90
  -4   5  -3    0.20    0.60
  -4   5  -3    0.20    0.60
  -4   5  -3    0.60    0.60
  -4   5  -3    0.40    0.60
  -4   5  -3    0.60    0.70
  -4   5  -3    0.20    0.70
   4  -5   3   -0.40    0.50
   4  -5   3   -0.50    0.50
   4  -5   3   -0.20    0.50
   4  -5   3    0.00    0.60
   4  -5   3   -1.00    0.40
  -5   5  -3    0.10    0.80
  -5   5  -3    0.70    0.90
  -5   5  -3    0.70    0.80
  -5   5  -3    0.80    0.80
  -5   5  -3   -0.20    0.70
  -5   5  -3    0.20    0.70
   5  -5   3    0.30    0.70
   5  -5   3   -0.50    0.70
   5  -5   3    0.60    0.70
   5  -5   3    0.80    0.70
   5  -5   3    1.90    0.80
  -6   5  -3    0.00    0.70
  -6   5  -3    1.30    0.70
  -6   5  -3   -0.30    0.80
  -6   5  -3   -0.50    0.90
  -6   5  -3    1.50    1.00
   6  -5   3    0.90    0.90
   6  -5   3    0.80    0.80
   6  -5   3    1.20    1.00
   6  -5   3    0.20    0.60
  -7   5  -3    2.00    1.00
  -7   5  -3    2.10    1.50
  -7   5  -3    0.60    0.70
  -7   5  -3    0.70    1.40
  -7   5  -3    0.80    1.20
   7  -5   3    2.10    1.20
   7  -5   3    0.40    1.10
   7  -5   3   -0.90    1.00
   7  -5   3    1.40    1.10
  -8   5  -3    5.00    1.70
  -8   5  -3    3.20    1.90
  -8   5  -3    0.50    1.50
  -8   5  -3    0.30    1.50
   8  -5   3    3.60    1.50
   8  -5   3    2.20    1.50
   9   4  -3    2.40    1.70
   9   4  -3    5.60    1.80
   9   4  -3    3.80    1.80
  -9  -4   3    4.40    2.30
  -9  -4   3    1.80    1.70
  -9  -4   3    3.40    2.20
   8   4  -3    2.10    1.20
   8   4  -3    4.30    1.60
   8   4  -3    1.10    1.30
   8   4  -3    1.50    1.30
   8   4  -3    3.10    1.50
   8   4  -3    0.60    1.00
  -8  -4   3    0.30    1.70
  -8  -4   3    1.20    1.10
  -8  -4   3    2.40    1.80
  -8  -4   3    3.00    1.80
  -8  -4   3    2.60    1.40
   7   4  -3    6.60    1.60
   7   4  -3    8.90    1.80
   7   4  -3    8.80    1.80
   7   4  -3    8.00    1.50
   7   4  -3    8.00    1.90
  -7  -4   3    7.80    1.90
  -7  -4   3    5.70    1.80
  -7  -4   3    6.90    1.40
  -7  -4   3    5.70    1.90
  -7  -4   3    5.90    1.60
  -7  -4   3    7.90    1.50
   6   4  -3    0.00    0.50
   6   4  -3   -0.80    0.80
   6   4  -3    0.00    0.70
   6   4  -3    0.50    0.60
  -6  -4   3   -0.50    0.90
  -6  -4   3    0.40    0.70
  -6  -4   3    0.60    0.90
  -6  -4   3   -1.50    0.70
  -6  -4   3    0.50    1.10
  -6  -4   3    0.30    0.70
  -6  -4   3   -0.50    0.70
  -6  -4   3   -0.10    0.70
   5   4  -3    0.50    0.50
   5   4  -3    0.50    0.60
   5   4  -3    0.30    0.70
   5   4  -3   -0.30    0.60
  -5  -4   3    0.20    0.80
  -5  -4   3   -0.80    0.40
  -5  -4   3    0.10    0.80
  -5  -4   3   -0.30    0.30
  -5  -4   3   -0.20    0.80
  -5  -4   3   -0.10    0.50
  -5  -4   3    0.00    0.50
  -5  -4   3    0.30    0.50
  -5  -4   3   -0.30    0.50
   4   4  -3    8.80    1.30
   4   4  -3   11.80    1.30
   4   4  -3   11.90    1.10
   4   4  -3   13.30    1.50
  -4  -4   3   10.60    1.10
  -4  -4   3    9.40    1.10
  -4  -4   3    8.30    1.40
  -4  -4   3    9.80    1.30
  -4  -4   3   11.50    1.60
  -4  -4   3    8.50    1.20
  -4  -4   3    7.40    1.40
  -4  -4   3    8.20    1.40
   3   4  -3   49.60    2.20
   3   4  -3   49.99    2.60
   3   4  -3   51.09    2.10
   3   4  -3   44.40    2.80
   3   4  -3   43.50    2.70
   3   4  -3   53.19    2.40
  -3  -4   3   49.80    2.70
  -3  -4   3   48.60    2.50
  -3  -4   3   44.00    2.30
  -3  -4   3   44.90    2.10
  -3  -4   3   49.20    2.90
  -3  -4   3   49.70    2.80
  -3  -4   3   48.40    3.00
  -3  -4   3   55.39    3.00
  -3  -4   3   44.50    2.90
   2   4  -3    3.80    0.70
   2   4  -3    5.10    0.90
   2   4  -3    5.80    0.50
   2   4  -3    5.30    0.90
   2   4  -3    5.70    0.70
  -2  -4   3    6.30    0.90
  -2  -4   3    3.90    0.80
  -2  -4   3    5.20    0.80
  -2  -4   3    4.40    0.70
  -2  -4   3    5.40    0.60
  -2  -4   3    4.70    0.70
  -2  -4   3    4.00    0.80
   1   4  -3    6.60    0.60
   1   4  -3    5.00    0.70
   1   4  -3    4.00    0.70
   1   4  -3    4.50    0.60
   1   4  -3    3.50    0.70
  -1  -4   3    3.80    0.60
  -1  -4   3    4.20    0.60
  -1  -4   3    4.50    0.70
  -1  -4   3    4.00    0.70
  -1  -4   3    4.00    0.70
  -1  -4   3    4.20    0.40
  -1  -4   3    4.50    0.70
   0   4  -3   37.90    2.10
   0   4  -3   41.20    2.30
   0   4  -3   41.80    2.10
   0   4  -3   41.80    1.90
   0   4  -3   43.40    2.10
   0   4  -3   43.90    2.20
   0  -4   3   43.80    2.10
   0  -4   3   41.60    2.10
   0  -4   3   40.90    2.20
   0  -4   3   45.40    2.20
   0  -4   3   43.40    2.10
   0  -4   3   44.20    2.20
   0  -4   3   42.30    1.90
   0  -4   3   39.60    1.80
  -1   4  -3  137.09    5.60
  -1   4  -3  140.09    5.70
  -1   4  -3  134.29    5.60
  -1   4  -3  137.59    5.70
  -1   4  -3  137.29    6.00
  -1   4  -3  131.59    5.60
  -1   4  -3  125.89    5.90
  -1   4  -3  137.19    5.80
   1  -4   3  140.89    5.80
   1  -4   3  136.89    5.50
   1  -4   3  138.79    5.70
   1  -4   3  126.79    5.60
   1  -4   3  140.99    5.70
   1  -4   3  142.19    5.80
   1  -4   3  137.99    5.60
  -2   4  -3    4.30    0.70
  -2   4  -3    4.10    0.70
  -2   4  -3    4.50    0.40
  -2   4  -3    3.70    0.80
  -2   4  -3    4.20    0.70
  -2   4  -3    4.40    0.70
  -2   4  -3    4.40    0.90
   2  -4   3    4.60    0.60
   2  -4   3    5.50    0.80
   2  -4   3    4.90    0.60
   2  -4   3    4.40    0.70
   2  -4   3    5.10    0.70
  -3   4  -3   64.39    3.60
  -3   4  -3   67.79    3.50
  -3   4  -3   71.99    3.60
  -3   4  -3   66.09    3.70
  -3   4  -3   66.29    3.40
  -3   4  -3   66.49    3.60
   3  -4   3   71.79    3.60
   3  -4   3   69.09    3.30
   3  -4   3   67.99    3.40
   3  -4   3   67.59    3.10
   3  -4   3   71.49    3.50
  -4   4  -3    4.10    0.90
  -4   4  -3    5.30    1.00
  -4   4  -3    4.30    1.00
  -4   4  -3    5.50    1.10
  -4   4  -3    6.50    1.00
  -4   4  -3    4.10    1.10
   4  -4   3    5.30    0.90
   4  -4   3    5.10    1.00
   4  -4   3    6.70    1.00
   4  -4   3    3.10    0.80
  -5   4  -3    2.50    1.00
  -5   4  -3    4.60    1.00
  -5   4  -3    3.80    1.10
  -5   4  -3    4.80    1.10
  -5   4  -3    1.70    1.50
  -5   4  -3    2.90    0.90
   5  -4   3    3.00    1.00
   5  -4   3    4.00    1.10
   5  -4   3    2.60    0.80
   5  -4   3    2.90    0.90
  -6   4  -3   17.20    2.20
  -6   4  -3   24.20    2.60
  -6   4  -3   20.40    2.50
  -6   4  -3   18.10    2.40
  -6   4  -3   27.20    2.70
   6  -4   3   21.50    2.20
   6  -4   3   23.50    2.60
   6  -4   3   20.40    2.10
   6  -4   3   25.20    2.50
   6  -4   3   21.70    2.20
  -7   4  -3    5.20    1.80
  -7   4  -3    2.00    1.10
  -7   4  -3    1.00    1.00
  -7   4  -3    2.90    1.50
  -7   4  -3    2.80    1.20
   7  -4   3    2.70    1.30
   7  -4   3    2.00    1.30
   7  -4   3    2.80    1.20
   7  -4   3    4.40    1.50
   7  -4   3    5.00    1.30
  -8   4  -3   23.90    3.20
  -8   4  -3   19.00    3.00
  -8   4  -3   16.60    2.70
   8  -4   3   13.60    2.30
   8  -4   3   15.70    2.50
   9   3  -3    1.80    1.50
   9   3  -3    2.20    1.70
   9   3  -3    1.60    1.40
  -9  -3   3   -0.50    1.40
  -9  -3   3    0.90    2.10
  -9  -3   3   -0.80    1.70
   8   3  -3    3.20    1.50
   8   3  -3    1.40    1.40
   8   3  -3    4.50    1.60
   8   3  -3    4.10    1.30
   8   3  -3    4.00    1.60
  -8  -3   3    4.00    1.20
  -8  -3   3    3.60    1.70
  -8  -3   3    0.60    1.60
  -8  -3   3    6.90    1.90
  -8  -3   3    4.70    1.50
  -8  -3   3    3.60    1.20
   7   3  -3    2.80    1.30
   7   3  -3    0.60    0.80
   7   3  -3   -0.60    0.80
   7   3  -3    0.30    1.00
   7   3  -3    1.00    1.00
  -7  -3   3    0.40    0.90
  -7  -3   3    0.60    1.20
  -7  -3   3    0.10    0.90
  -7  -3   3   -0.20    0.70
  -7  -3   3    0.40    1.10
  -7  -3   3   -1.00    1.00
  -7  -3   3    1.20    0.80
   6   3  -3   13.60    1.80
   6   3  -3   11.60    1.90
   6   3  -3   10.90    1.60
   6   3  -3    8.00    1.60
   6   3  -3   10.70    1.50
  -6  -3   3    8.40    1.70
  -6  -3   3    8.40    1.70
  -6  -3   3    9.50    1.70
  -6  -3   3   11.20    1.50
  -6  -3   3    9.70    1.40
  -6  -3   3   10.60    1.30
  -6  -3   3    9.10    1.60
  -6  -3   3    9.30    1.40
   5   3  -3    8.20    1.10
   5   3  -3    7.60    1.30
   5   3  -3   10.60    1.60
   5   3  -3    9.00    1.20
   5   3  -3   10.10    1.00
   5   3  -3    9.80    1.40
  -5  -3   3    8.70    1.60
  -5  -3   3    7.70    1.50
  -5  -3   3    7.10    1.10
  -5  -3   3   10.20    1.40
  -5  -3   3    8.30    1.20
  -5  -3   3    8.30    1.30
  -5  -3   3    7.40    1.00
  -5  -3   3    6.90    1.00
  -5  -3   3   10.50    1.30
  -5  -3   3    6.30    1.30
  -5  -3   3    8.10    1.40
  -5  -3   3   10.20    1.20
   4   3  -3   22.00    1.60
   4   3  -3   24.40    1.60
   4   3  -3   23.60    1.30
   4   3  -3   21.80    2.00
   4   3  -3   23.80    1.40
   4   3  -3   23.60    1.90
   4   3  -3   23.40    1.50
  -4  -3   3   22.50    1.70
  -4  -3   3   22.60    2.00
  -4  -3   3   25.50    1.60
  -4  -3   3   23.00    1.40
  -4  -3   3   22.70    1.90
  -4  -3   3   21.20    1.50
  -4  -3   3   22.30    1.90
  -4  -3   3   23.70    1.60
  -4  -3   3   20.60    2.10
  -4  -3   3   23.20    1.40
  -4  -3   3   23.30    1.70
  -4  -3   3   21.10    1.60
   3   3  -3    9.60    1.20
   3   3  -3   10.90    0.90
   3   3  -3   10.60    0.70
   3   3  -3   10.60    1.10
   3   3  -3   10.60    1.30
   3   3  -3   10.50    0.70
   3   3  -3   11.00    0.80
  -3  -3   3   10.50    1.00
  -3  -3   3    9.20    1.20
  -3  -3   3    9.70    1.10
  -3  -3   3    6.60    1.10
  -3  -3   3    9.90    1.00
  -3  -3   3    9.50    1.10
  -3  -3   3    8.40    1.20
  -3  -3   3   10.70    0.90
  -3  -3   3   11.80    0.80
  -3  -3   3    8.50    1.20
  -3  -3   3   10.20    0.70
  -3  -3   3    9.80    0.70
   2   3  -3   84.99    3.70
   2   3  -3   79.39    3.80
   2   3  -3   79.39    3.10
   2   3  -3   83.99    3.50
   2   3  -3   82.59    3.30
  -2  -3   3   74.59    3.70
  -2  -3   3   78.49    3.60
  -2  -3   3   79.19    3.70
  -2  -3   3   72.49    3.70
  -2  -3   3   79.09    3.60
  -2  -3   3   75.49    3.70
  -2  -3   3   73.99    3.80
   1   3  -3  161.38    6.30
   1   3  -3  166.58    6.40
   1   3  -3  154.78    6.00
   1   3  -3  155.98    6.50
   1   3  -3  154.98    6.60
  -1  -3   3  156.18    6.50
  -1  -3   3  153.38    6.50
  -1  -3   3  157.18    6.50
  -1  -3   3  151.18    6.00
  -1  -3   3  150.18    6.50
  -1  -3   3  161.18    6.50
  -1  -3   3  160.38    6.60
   0   3  -3   29.30    1.50
   0   3  -3   30.20    1.50
   0   3  -3   26.60    1.30
   0   3  -3   27.60    1.50
   0   3  -3   26.90    1.50
   0  -3   3   27.60    1.50
   0  -3   3   27.40    1.50
   0  -3   3   28.90    1.50
   0  -3   3   29.40    1.40
   0  -3   3   28.90    1.50
   0  -3   3   28.00    1.50
  -1   3  -3  351.96   13.90
  -1   3  -3  341.47   13.80
  -1   3  -3  352.46   13.70
  -1   3  -3  350.06   13.90
  -1   3  -3  359.06   13.80
  -1   3  -3  342.37   14.00
  -1   3  -3  346.97   13.70
   1  -3   3  359.16   13.80
   1  -3   3  356.56   13.60
   1  -3   3  339.77   13.70
   1  -3   3  360.76   13.80
   1  -3   3  355.36   13.90
   1  -3   3  351.46   13.90
  -2   3  -3    0.20    0.10
  -2   3  -3   -0.10    0.20
  -2   3  -3   -0.10    0.30
  -2   3  -3    0.00    0.30
  -2   3  -3    0.20    0.10
  -2   3  -3    0.60    0.40
  -2   3  -3    0.10    0.30
  -2   3  -3    0.50    0.30
   2  -3   3    0.50    0.40
   2  -3   3   -0.80    0.20
   2  -3   3    0.10    0.30
   2  -3   3    0.20    0.30
   2  -3   3    0.20    0.30
  -3   3  -3    5.20    1.00
  -3   3  -3    9.10    1.10
  -3   3  -3   10.50    1.20
  -3   3  -3    7.20    1.10
  -3   3  -3    7.70    1.00
  -3   3  -3    8.90    1.10
   3  -3   3    6.90    1.00
   3  -3   3    6.90    1.00
   3  -3   3    7.70    1.00
   3  -3   3    7.70    1.00
   3  -3   3    6.80    0.90
  -4   3  -3   65.49    3.50
  -4   3  -3   53.59    3.10
  -4   3  -3   57.09    3.20
  -4   3  -3   63.39    3.40
  -4   3  -3   57.19    3.40
  -4   3  -3   64.09    3.50
   4  -3   3   62.49    3.50
   4  -3   3   61.29    3.30
   4  -3   3   56.69    3.10
   4  -3   3   64.39    3.50
   4  -3   3   64.79    3.30
  -5   3  -3    4.30    1.20
  -5   3  -3   12.90    1.70
  -5   3  -3    5.50    1.20
  -5   3  -3    4.00    1.20
  -5   3  -3    8.30    1.30
   5  -3   3    6.00    1.20
   5  -3   3    7.50    1.30
   5  -3   3    7.30    1.20
   5  -3   3    6.90    1.30
  -6   3  -3   26.10    2.80
  -6   3  -3   25.60    2.60
  -6   3  -3   24.70    3.20
  -6   3  -3   23.90    2.70
  -6   3  -3   28.20    2.70
  -6   3  -3   30.50    2.90
   6  -3   3   31.60    2.60
   6  -3   3   26.00    2.50
   6  -3   3   26.90    2.60
   6  -3   3   31.50    2.70
  -7   3  -3   11.30    2.40
  -7   3  -3   11.20    1.80
  -7   3  -3    8.50    2.00
  -7   3  -3    9.40    2.00
  -7   3  -3   13.20    2.50
  -7   3  -3   13.00    2.10
   7  -3   3   11.80    1.90
   7  -3   3   10.70    1.90
   7  -3   3   10.00    1.90
   7  -3   3    7.00    1.60
  -8   3  -3    1.20    1.40
  -8   3  -3   -0.80    1.40
  -8   3  -3    0.40    1.40
   8  -3   3   -0.30    1.10
   8  -3   3   -1.40    1.10
   8  -3   3    1.90    1.50
  -9   3  -3    1.80    1.50
  -9   3  -3   -1.00    1.60
  -9   3  -3    2.00    1.80
   9  -3   3    0.80    1.10
   9  -3   3    2.20    1.90
   9   2  -3    0.60    1.40
   9   2  -3    0.70    1.40
  -9  -2   3    0.00    2.00
  -9  -2   3   -0.10    1.80
  -9  -2   3    0.90    1.70
   8   2  -3    1.30    1.20
   8   2  -3    1.80    1.30
   8   2  -3    0.90    1.20
   8   2  -3    2.50    1.30
  -8  -2   3    1.10    0.90
  -8  -2   3    0.30    1.20
  -8  -2   3    0.80    1.20
  -8  -2   3    0.10    1.30
  -8  -2   3   -0.70    1.20
  -8  -2   3    2.00    1.20
   7   2  -3    1.00    1.00
   7   2  -3    0.10    0.70
   7   2  -3   -1.10    0.60
   7   2  -3   -0.30    0.80
   7   2  -3    0.10    0.90
   7   2  -3    0.90    0.90
   7   2  -3    0.10    1.10
  -7  -2   3   -0.80    1.00
  -7  -2   3   -0.20    0.80
  -7  -2   3   -0.10    0.60
  -7  -2   3    0.00    0.90
  -7  -2   3   -0.60    1.00
  -7  -2   3    0.90    1.00
  -7  -2   3   -0.70    0.60
  -7  -2   3   -0.10    0.60
  -7  -2   3   -0.60    1.10
   6   2  -3   18.90    1.90
   6   2  -3   15.00    1.70
   6   2  -3   21.70    2.20
   6   2  -3   18.10    1.50
   6   2  -3   17.20    1.60
   6   2  -3   23.40    2.40
   6   2  -3   18.60    2.00
   6   2  -3   11.60    1.80
   6   2  -3   21.30    2.00
   6   2  -3   15.60    2.00
  -6  -2   3   17.50    2.30
  -6  -2   3   15.50    1.70
  -6  -2   3   18.00    1.70
  -6  -2   3   13.80    2.10
  -6  -2   3   15.10    1.60
  -6  -2   3   12.90    2.00
  -6  -2   3   18.80    1.90
  -6  -2   3   19.00    2.00
  -6  -2   3   13.60    1.70
  -6  -2   3   19.90    2.00
  -6  -2   3   16.90    2.10
  -6  -2   3   12.50    1.60
   5   2  -3  108.49    5.20
   5   2  -3  110.99    4.60
   5   2  -3  103.39    5.00
   5   2  -3  101.29    5.30
   5   2  -3   87.19    4.90
   5   2  -3   99.49    5.00
   5   2  -3   93.59    4.70
   5   2  -3  108.19    4.60
   5   2  -3  108.49    4.90
  -5  -2   3  104.19    4.80
  -5  -2   3  101.19    4.90
  -5  -2   3  103.99    4.80
  -5  -2   3  104.59    4.90
  -5  -2   3   99.49    5.30
  -5  -2   3   99.19    4.90
  -5  -2   3   96.69    5.30
  -5  -2   3   95.19    5.30
  -5  -2   3  106.99    4.70
  -5  -2   3   95.19    4.90
  -5  -2   3   96.29    4.70
  -5  -2   3  100.39    5.20
   4   2  -3   72.19    3.40
   4   2  -3   68.69    3.20
   4   2  -3   67.29    3.50
   4   2  -3   72.19    3.70
   4   2  -3   72.89    3.70
   4   2  -3   71.99    3.20
   4   2  -3   71.39    3.60
  -4  -2   3   68.59    3.50
  -4  -2   3   70.79    3.80
  -4  -2   3   72.99    3.80
  -4  -2   3   71.09    3.90
  -4  -2   3   73.79    3.50
  -4  -2   3   72.59    3.60
  -4  -2   3   67.79    3.50
  -4  -2   3   72.39    3.40
  -4  -2   3   72.79    3.30
  -4  -2   3   70.39    3.50
  -4  -2   3   67.59    3.30
  -4  -2   3   64.59    3.70
   3   2  -3  583.34   22.10
   3   2  -3  576.54   22.20
   3   2  -3  570.94   21.90
   3   2  -3  570.04   21.60
   3   2  -3  591.74   21.60
   3   2  -3  570.64   21.80
  -3  -2   3  549.54   21.90
  -3  -2   3  537.65   22.10
  -3  -2   3  554.04   22.10
  -3  -2   3  521.75   22.10
  -3  -2   3  558.24   21.60
  -3  -2   3  562.14   21.60
  -3  -2   3  560.14   21.90
  -3  -2   3  554.04   21.60
  -3  -2   3  554.74   21.80
  -3  -2   3  551.24   22.00
  -3  -2   3  552.94   22.10
  -3  -2   3  543.05   21.90
   2   2  -3   44.70    2.00
   2   2  -3   43.40    1.80
   2   2  -3   42.20    2.10
   2   2  -3   41.30    2.20
   2   2  -3   42.10    2.30
  -2  -2   3   40.40    2.10
  -2  -2   3   39.70    2.10
  -2  -2   3   40.70    2.00
  -2  -2   3   37.10    2.10
  -2  -2   3   42.20    2.10
  -2  -2   3   45.10    2.20
  -2  -2   3   38.60    2.20
  -2  -2   3   40.20    2.20
  -2  -2   3   38.70    2.20
   1   2  -3   83.59    3.20
   1   2  -3   85.09    3.50
   1   2  -3   78.79    3.60
   1   2  -3   84.99    3.40
  -1  -2   3   82.09    3.60
  -1  -2   3   79.59    3.50
  -1  -2   3   80.89    3.60
  -1  -2   3   80.69    3.50
  -1  -2   3   82.59    3.50
  -1  -2   3   79.19    3.50
  -1  -2   3   80.89    3.60
   0   2  -3    4.30    0.50
   0   2  -3    4.10    0.50
   0   2  -3    3.30    0.30
   0   2  -3    3.10    0.40
   0  -2   3    3.50    0.40
   0  -2   3    3.20    0.40
   0  -2   3    4.70    0.50
   0  -2   3    4.00    0.40
   0  -2   3    3.60    0.40
   0  -2   3    3.90    0.40
  -1   2  -3    2.00    0.40
  -1   2  -3    1.60    0.30
  -1   2  -3    1.20    0.30
  -1   2  -3    1.90    0.40
  -1   2  -3    1.20    0.30
  -1   2  -3    1.90    0.30
   1  -2   3    1.60    0.30
   1  -2   3    1.30    0.30
   1  -2   3    1.60    0.40
   1  -2   3    1.80    0.30
   1  -2   3    1.30    0.40
  -2   2  -3    6.10    0.70
  -2   2  -3    7.80    0.90
  -2   2  -3    6.00    0.80
  -2   2  -3    6.10    0.70
  -2   2  -3    6.20    0.80
  -2   2  -3    6.30    0.80
   2  -2   3    7.50    0.80
   2  -2   3    7.00    0.90
   2  -2   3    6.10    0.40
   2  -2   3    5.80    0.80
   2  -2   3    6.80    0.80
  -3   2  -3  204.78    8.70
  -3   2  -3  205.48    9.20
  -3   2  -3  206.88    8.70
  -3   2  -3  190.58    8.30
  -3   2  -3  209.48    8.60
  -3   2  -3  204.88    8.60
  -3   2  -3  199.68    9.20
  -3   2  -3  211.68    8.70
   3  -2   3  200.18    8.60
   3  -2   3  216.78    8.70
   3  -2   3  215.78    8.80
   3  -2   3  205.58    8.80
   3  -2   3  202.88    8.00
  -4   2  -3   28.40    2.40
  -4   2  -3   25.10    1.70
  -4   2  -3   29.50    2.10
  -4   2  -3   28.40    1.90
  -4   2  -3   25.60    2.00
  -4   2  -3   30.20    2.50
  -4   2  -3   30.50    2.10
  -4   2  -3   28.70    2.00
   4  -2   3   30.00    2.20
   4  -2   3   30.40    2.10
   4  -2   3   25.60    2.00
   4  -2   3   27.10    2.00
  -5   2  -3    0.50    0.60
  -5   2  -3    1.10    0.80
  -5   2  -3    0.80    0.80
  -5   2  -3    1.60    0.80
  -5   2  -3    0.90    0.70
  -5   2  -3    0.50    0.70
  -5   2  -3    2.30    1.20
   5  -2   3    0.80    0.70
   5  -2   3    1.90    0.90
   5  -2   3    1.70    0.90
   5  -2   3    0.40    0.90
  -6   2  -3    0.80    0.80
  -6   2  -3    0.20    0.80
  -6   2  -3    0.60    1.00
  -6   2  -3    0.60    1.10
  -6   2  -3    0.20    0.90
  -6   2  -3   -1.20    0.70
  -6   2  -3    1.00    0.90
   6  -2   3    2.10    1.10
   6  -2   3    4.00    1.20
   6  -2   3    1.00    1.00
  -7   2  -3    0.10    1.10
  -7   2  -3    0.00    1.20
  -7   2  -3   -1.10    0.70
  -7   2  -3   -1.10    0.80
  -7   2  -3   -0.10    1.20
  -7   2  -3   -0.60    0.90
   7  -2   3    0.90    1.20
   7  -2   3   -0.20    1.10
   7  -2   3   -0.10    1.20
   7  -2   3    0.50    1.00
  -8   2  -3   -1.40    1.30
  -8   2  -3   -1.30    1.40
  -8   2  -3    0.40    1.30
  -8   2  -3   -0.60    1.20
   8  -2   3    0.30    1.50
   8  -2   3   -1.20    1.30
   8  -2   3   -1.10    1.20
  -9   2  -3    2.00    1.70
  -9   2  -3    2.60    1.80
  -9   2  -3    2.90    2.30
  -9   2  -3   -0.90    1.60
   9  -2   3   -0.50    2.20
   9  -2   3   -1.00    1.40
   9  -2   3   -0.20    1.50
  -9  -1   3    1.60    1.70
  -9  -1   3    3.70    1.50
   8   1  -3    0.30    1.00
   8   1  -3    0.90    1.10
   8   1  -3    0.60    1.30
   8   1  -3    0.40    0.80
   8   1  -3    3.60    1.20
  -8  -1   3    0.60    1.20
  -8  -1   3    0.50    1.30
  -8  -1   3    0.60    1.60
  -8  -1   3    1.70    1.00
  -8  -1   3    1.90    1.10
  -8  -1   3   -0.10    0.90
   7   1  -3   43.10    2.90
   7   1  -3   40.70    3.00
   7   1  -3   38.20    3.00
   7   1  -3   40.20    3.10
   7   1  -3   42.30    2.90
   7   1  -3   38.80    3.00
   7   1  -3   41.20    2.80
   7   1  -3   46.30    2.80
   7   1  -3   44.20    2.70
   7   1  -3   44.50    3.10
   7   1  -3   42.60    3.10
   7   1  -3   43.90    2.80
  -7  -1   3   42.90    2.80
  -7  -1   3   46.90    3.50
  -7  -1   3   50.09    3.00
  -7  -1   3   40.30    3.00
  -7  -1   3   45.60    3.30
  -7  -1   3   40.30    2.80
  -7  -1   3   48.40    3.40
  -7  -1   3   38.00    3.40
  -7  -1   3   41.90    2.80
  -7  -1   3   43.80    3.00
  -7  -1   3   42.00    3.00
  -7  -1   3   41.80    3.50
   6   1  -3    0.30    0.70
   6   1  -3   -0.40    0.50
   6   1  -3    0.30    0.70
   6   1  -3    0.30    0.50
   6   1  -3    0.10    0.70
   6   1  -3    0.10    0.70
   6   1  -3   -0.50    0.40
   6   1  -3    0.20    0.80
   6   1  -3    0.30    0.60
   6   1  -3   -0.10    0.60
   6   1  -3   -1.00    0.60
   6   1  -3    0.30    0.60
  -6  -1   3    1.10    0.70
  -6  -1   3   -1.20    0.60
  -6  -1   3   -0.70    0.70
  -6  -1   3    0.40    0.50
  -6  -1   3    0.10    0.50
  -6  -1   3   -0.20    0.70
  -6  -1   3    0.20    0.70
  -6  -1   3   -0.50    0.70
  -6  -1   3   -0.30    0.60
  -6  -1   3   -0.30    0.40
  -6  -1   3   -0.20    0.70
  -6  -1   3    0.10    0.50
   5   1  -3    7.80    1.20
   5   1  -3    8.30    1.00
   5   1  -3    6.20    1.10
   5   1  -3    6.40    1.10
   5   1  -3    6.90    1.00
   5   1  -3    8.50    1.00
   5   1  -3   10.00    1.30
   5   1  -3    6.60    1.10
   5   1  -3    4.30    1.00
  -5  -1   3    5.00    1.00
  -5  -1   3    8.10    1.00
  -5  -1   3    6.00    1.20
  -5  -1   3    7.30    1.10
  -5  -1   3    5.30    1.00
  -5  -1   3    6.30    1.00
  -5  -1   3    6.00    1.20
  -5  -1   3    5.70    1.10
  -5  -1   3    7.00    1.00
  -5  -1   3    6.20    1.20
  -5  -1   3    4.80    0.90
  -5  -1   3    5.40    1.10
   4   1  -3    8.50    1.10
   4   1  -3    8.90    1.10
   4   1  -3   10.10    1.00
   4   1  -3   10.80    1.30
   4   1  -3    9.20    0.90
   4   1  -3    9.20    1.10
   4   1  -3   10.50    1.20
   4   1  -3    8.20    0.90
  -4  -1   3    8.30    1.00
  -4  -1   3    6.40    1.00
  -4  -1   3    7.20    1.10
  -4  -1   3    7.20    1.00
  -4  -1   3    6.10    1.00
  -4  -1   3    7.80    1.10
  -4  -1   3    6.90    0.90
  -4  -1   3    7.90    0.90
  -4  -1   3    8.50    1.20
  -4  -1   3   10.10    1.00
  -4  -1   3    7.40    1.10
  -4  -1   3    8.70    1.00
   3   1  -3   97.99    4.10
   3   1  -3   98.29    4.00
   3   1  -3   95.19    4.00
   3   1  -3   91.99    4.40
   3   1  -3   96.49    4.30
   3   1  -3  100.29    4.30
  -3  -1   3   95.89    4.10
  -3  -1   3   91.79    4.30
  -3  -1   3   95.19    4.30
  -3  -1   3   85.09    4.30
  -3  -1   3   90.49    4.30
  -3  -1   3   92.19    4.30
  -3  -1   3   92.79    4.20
  -3  -1   3   90.39    4.30
  -3  -1   3   92.89    4.30
  -3  -1   3   94.09    4.30
  -3  -1   3   99.19    4.10
  -3  -1   3   95.39    4.10
   2   1  -3   37.60    1.80
   2   1  -3   35.30    1.60
   2   1  -3   35.80    2.00
   2   1  -3   35.50    1.60
   2   1  -3   34.30    1.80
  -2  -1   3   33.60    1.80
  -2  -1   3   33.90    1.80
  -2  -1   3   33.10    1.80
  -2  -1   3   31.50    1.80
  -2  -1   3   35.20    1.90
  -2  -1   3   38.10    1.90
  -2  -1   3   33.00    1.80
  -2  -1   3   34.50    1.60
  -2  -1   3   30.60    1.80
  -2  -1   3   30.40    1.70
   1   1  -3   53.39    2.50
   1   1  -3   52.29    2.60
   1   1  -3   56.79    2.30
   1   1  -3   57.99    2.40
  -1  -1   3   56.99    2.50
  -1  -1   3   53.79    2.50
  -1  -1   3   52.59    2.50
  -1  -1   3   53.99    2.30
  -1  -1   3   52.99    2.50
  -1  -1   3   52.59    2.40
  -1  -1   3   55.39    2.50
   0   1  -3   64.39    2.70
   0   1  -3   63.69    2.60
   0   1  -3   60.99    2.70
   0   1  -3   61.59    2.60
   0   1  -3   60.69    2.60
   0  -1   3   58.99    2.60
   0  -1   3   63.29    2.60
   0  -1   3   60.79    2.70
   0  -1   3   58.59    2.60
   0  -1   3   60.69    2.70
   0  -1   3   63.69    2.70
   0  -1   3   60.09    2.60
  -1   1  -3    6.60    0.80
  -1   1  -3    6.50    0.60
  -1   1  -3    4.90    0.70
  -1   1  -3    6.80    0.70
  -1   1  -3    6.80    0.60
  -1   1  -3    6.80    0.60
  -1   1  -3    5.90    0.60
   1  -1   3    5.70    0.70
   1  -1   3    6.10    0.70
   1  -1   3    5.70    0.50
   1  -1   3    5.60    0.70
   1  -1   3    6.90    0.50
   1  -1   3    5.90    0.70
  -2   1  -3  120.39    5.00
  -2   1  -3  124.09    5.10
  -2   1  -3  120.29    5.00
  -2   1  -3  113.49    5.10
  -2   1  -3  114.39    5.00
  -2   1  -3  119.39    5.50
  -2   1  -3  112.69    5.40
   2  -1   3  116.29    5.20
   2  -1   3  109.39    5.20
   2  -1   3  122.89    5.20
   2  -1   3  118.39    4.90
   2  -1   3  116.69    5.10
  -3   1  -3   27.80    1.70
  -3   1  -3   25.30    1.70
  -3   1  -3   28.20    2.20
  -3   1  -3   25.40    1.80
  -3   1  -3   28.50    1.80
  -3   1  -3   27.40    1.80
  -3   1  -3   30.60    2.20
   3  -1   3   29.00    2.00
   3  -1   3   29.70    1.60
   3  -1   3   28.50    1.90
   3  -1   3   24.00    1.90
   3  -1   3   28.90    1.90
  -4   1  -3    3.10    1.00
  -4   1  -3    3.00    0.70
  -4   1  -3    2.10    0.70
  -4   1  -3    2.40    0.90
  -4   1  -3    2.20    0.60
  -4   1  -3    2.40    0.70
  -4   1  -3    1.90    0.60
   4  -1   3    1.40    0.60
   4  -1   3    1.40    0.60
   4  -1   3    1.80    0.80
   4  -1   3    2.30    0.90
   4  -1   3    1.50    0.80
   4  -1   3    7.60    1.20
  -5   1  -3    1.80    0.90
  -5   1  -3    0.30    0.60
  -5   1  -3    0.40    0.70
  -5   1  -3    0.10    0.60
  -5   1  -3    1.80    0.90
  -5   1  -3    0.70    0.70
  -5   1  -3   -0.50    0.80
   5  -1   3    3.40    1.00
   5  -1   3    1.80    1.00
   5  -1   3    0.80    0.90
   5  -1   3    0.60    0.90
  -6   1  -3    0.20    0.80
  -6   1  -3   -0.50    0.70
  -6   1  -3    0.50    1.10
  -6   1  -3   -0.10    0.80
  -6   1  -3    1.20    1.00
  -6   1  -3    0.70    0.80
   6  -1   3    0.00    1.00
   6  -1   3    0.10    0.70
   6  -1   3   -0.80    1.00
   6  -1   3   -0.10    1.00
  -7   1  -3    2.70    1.40
  -7   1  -3    0.20    1.30
  -7   1  -3    0.10    1.00
  -7   1  -3    2.00    1.60
  -7   1  -3    1.20    1.10
  -7   1  -3    1.40    1.10
   7  -1   3   -0.50    1.10
   7  -1   3   -0.10    1.10
   7  -1   3    1.70    1.40
  -8   1  -3   -2.00    1.30
  -8   1  -3   -0.40    1.50
  -8   1  -3   -0.70    1.00
  -8   1  -3   -0.70    1.20
   8  -1   3   -0.80    1.40
   8  -1   3   -0.30    1.40
  -9   1  -3    1.70    1.90
  -9   1  -3    1.80    2.30
  -9   1  -3    1.40    1.70
   9  -1   3    0.00    1.50
   9  -1   3    1.70    1.80
   9  -1   3    3.10    1.90
   9   0  -3    0.20    1.00
   9   0  -3    1.00    1.00
  -9   0   3   -0.90    1.10
  -9   0   3   -1.30    1.00
  -9   0   3   -0.40    1.50
   8   0  -3    0.00    1.10
   8   0  -3    0.20    0.80
   8   0  -3   -0.20    0.80
   8   0  -3    1.20    0.80
   8   0  -3    1.00    1.00
   8   0  -3   -0.40    1.30
   8   0  -3    0.10    1.00
  -8   0   3    1.10    1.10
  -8   0   3   -0.60    1.00
  -8   0   3    0.00    1.30
  -8   0   3    2.00    1.00
  -8   0   3   -0.10    0.90
  -8   0   3   -0.70    1.10
  -8   0   3    0.20    1.00
   7   0  -3    0.30    1.00
   7   0  -3   -0.20    0.90
   7   0  -3   -1.20    0.80
   7   0  -3   -1.10    0.60
   7   0  -3    0.60    0.80
   7   0  -3    0.30    0.80
   7   0  -3    0.60    0.60
   7   0  -3    0.90    0.90
   7   0  -3   -0.50    0.60
  -7   0   3    0.00    0.70
  -7   0   3    0.50    0.90
  -7   0   3    0.70    0.90
  -7   0   3   -0.30    0.70
  -7   0   3   -1.10    1.00
  -7   0   3   -0.10    0.60
  -7   0   3    0.30    0.70
  -7   0   3    0.30    0.90
  -7   0   3   -0.50    0.70
  -7   0   3   -0.30    0.80
  -7   0   3   -0.20    0.70
   6   0  -3    3.80    0.80
   6   0  -3    4.50    1.10
   6   0  -3    3.20    1.00
   6   0  -3    4.90    1.10
   6   0  -3    3.90    0.80
   6   0  -3    3.40    1.00
   6   0  -3    5.50    0.90
   6   0  -3    2.90    1.00
   6   0  -3    2.10    0.90
   6   0  -3    3.30    1.00
   6   0  -3    3.50    0.90
  -6   0   3    2.10    0.90
  -6   0   3    1.60    1.00
  -6   0   3    1.80    1.00
  -6   0   3    1.30    1.00
  -6   0   3    4.30    1.00
  -6   0   3    3.90    0.90
  -6   0   3    2.20    0.90
  -6   0   3    2.70    0.90
  -6   0   3    3.70    0.80
  -6   0   3    4.40    0.90
  -6   0   3    4.40    1.10
  -6   0   3    3.50    1.10
   5   0  -3    8.20    1.20
   5   0  -3   10.70    1.40
   5   0  -3    7.50    1.10
   5   0  -3    8.60    1.20
   5   0  -3    7.90    1.10
   5   0  -3    7.40    1.00
   5   0  -3    8.30    1.20
   5   0  -3    8.30    1.00
  -5   0   3    9.00    1.10
  -5   0   3    8.70    1.20
  -5   0   3    7.80    1.30
  -5   0   3    8.00    1.20
  -5   0   3    8.50    1.30
  -5   0   3    7.90    1.20
  -5   0   3   10.80    1.40
  -5   0   3    8.70    1.00
  -5   0   3    7.70    1.10
  -5   0   3    8.40    1.20
  -5   0   3    9.20    1.40
  -5   0   3    7.60    1.20
   4   0  -3   29.90    1.80
   4   0  -3   30.80    2.00
   4   0  -3   30.70    1.80
   4   0  -3   31.50    1.80
   4   0  -3   29.30    1.70
   4   0  -3   29.40    1.80
  -4   0   3   25.70    2.00
  -4   0   3   27.60    1.90
  -4   0   3   32.30    1.90
  -4   0   3   28.40    2.00
  -4   0   3   29.90    2.10
  -4   0   3   27.50    1.90
  -4   0   3   29.80    1.80
  -4   0   3   31.00    1.90
  -4   0   3   31.70    1.80
  -4   0   3   28.60    1.90
  -4   0   3   28.40    1.80
  -4   0   3   30.20    2.00
   3   0  -3   30.70    1.90
   3   0  -3   29.70    1.70
   3   0  -3   33.90    1.70
   3   0  -3   33.40    1.90
   3   0  -3   34.00    1.70
   3   0  -3   35.00    1.60
  -3   0   3   32.60    1.80
  -3   0   3   34.10    1.80
  -3   0   3   32.90    1.80
  -3   0   3   30.50    1.90
  -3   0   3   32.60    2.00
  -3   0   3   30.30    1.80
  -3   0   3   31.90    1.80
  -3   0   3   28.60    1.80
  -3   0   3   28.70    1.80
  -3   0   3   33.50    1.70
  -3   0   3   30.90    1.70
  -3   0   3   30.80    1.90
   2   0  -3  131.89    5.50
   2   0  -3  136.79    5.30
   2   0  -3  138.89    5.30
   2   0  -3  128.69    5.60
   2   0  -3  136.89    5.20
   2   0  -3  123.09    5.20
  -2   0   3  124.29    5.60
  -2   0   3  122.99    5.20
  -2   0   3  127.59    5.40
  -2   0   3  124.09    5.20
  -2   0   3  132.19    5.60
  -2   0   3  125.59    5.50
  -2   0   3  132.29    5.40
  -2   0   3  132.69    5.40
  -2   0   3  127.99    5.60
  -2   0   3  134.09    5.30
   1   0  -3  123.29    4.90
   1   0  -3  110.49    4.90
   1   0  -3  118.49    4.80
   1   0  -3  121.99    4.80
  -1   0   3  123.29    5.00
  -1   0   3  118.99    4.70
  -1   0   3  120.19    5.00
  -1   0   3  125.29    5.00
  -1   0   3  119.99    5.00
  -1   0   3  112.39    4.90
  -1   0   3  106.69    4.90
   0   0  -3   55.79    2.30
   0   0  -3   49.50    2.30
   0   0  -3   54.19    2.30
   0   0  -3   52.09    2.30
   0   0  -3   51.69    2.30
   0   0  -3   53.49    2.30
   0   0   3   51.19    2.40
   0   0   3   50.19    2.40
   0   0   3   46.80    2.20
   0   0   3   50.09    2.40
   0   0   3   55.99    2.30
   0   0   3   51.09    2.30
   0   0   3   55.69    2.50
  -1   0  -3    7.90    0.90
  -1   0  -3    9.00    0.60
  -1   0  -3    8.40    0.70
  -1   0  -3    8.10    0.60
  -1   0  -3    8.60    0.90
  -1   0  -3    7.70    0.60
  -1   0  -3    8.00    0.60
   1   0   3    8.20    0.80
   1   0   3    7.30    0.80
   1   0   3    8.70    0.90
   1   0   3    7.20    0.80
   1   0   3    7.90    0.80
   1   0   3    7.30    0.80
  -2   0  -3  294.27   11.40
  -2   0  -3  295.07   12.00
  -2   0  -3  283.27   11.90
  -2   0  -3  289.97   11.20
  -2   0  -3  284.67   11.50
  -2   0  -3  278.47   11.40
  -2   0  -3  281.17   11.40
  -2   0  -3  290.87   11.90
   2   0   3  281.07   11.60
   2   0   3  273.57   11.70
   2   0   3  297.97   11.50
   2   0   3  268.47   11.60
   2   0   3  290.67   11.70
   2   0   3  290.37   11.50
  -3   0  -3    0.00    0.30
  -3   0  -3    0.60    0.40
  -3   0  -3    0.40    0.50
  -3   0  -3    1.20    0.60
  -3   0  -3    0.00    0.30
  -3   0  -3    0.10    0.30
  -3   0  -3    0.00    0.30
  -3   0  -3    0.10    0.60
   3   0   3    0.10    0.40
   3   0   3   -0.40    0.40
   3   0   3    0.40    0.40
   3   0   3   -0.40    0.30
   3   0   3    1.00    0.60
   3   0   3   -0.10    0.40
  -4   0  -3   20.70    1.60
  -4   0  -3   21.90    2.40
  -4   0  -3   20.10    1.60
  -4   0  -3   19.00    1.60
  -4   0  -3   17.80    1.40
  -4   0  -3   20.60    1.60
  -4   0  -3   18.50    2.20
  -4   0  -3   16.30    2.10
   4   0   3   19.10    2.00
   4   0   3   21.70    1.60
   4   0   3   18.20    2.00
   4   0   3   19.10    1.50
   4   0   3   17.70    1.90
   4   0   3   24.10    2.00
  -5   0  -3    3.10    1.20
  -5   0  -3    0.60    1.00
  -5   0  -3    0.70    0.70
  -5   0  -3    2.50    0.80
  -5   0  -3    2.60    0.90
  -5   0  -3    1.20    1.00
  -5   0  -3    2.70    0.90
   5   0   3    2.30    1.00
   5   0   3    3.10    1.10
   5   0   3    1.50    0.90
   5   0   3    0.90    0.90
  -6   0  -3   13.70    1.80
  -6   0  -3   18.70    2.70
  -6   0  -3   18.50    2.20
  -6   0  -3   15.40    2.60
  -6   0  -3   14.80    2.50
  -6   0  -3   16.00    1.90
  -6   0  -3   16.40    2.10
   6   0   3   16.40    2.20
   6   0   3   14.40    2.20
   6   0   3   16.10    2.30
   6   0   3   12.70    1.90
  -7   0  -3   -0.70    1.00
  -7   0  -3   -0.40    1.40
  -7   0  -3    0.10    1.10
  -7   0  -3   -0.70    1.30
  -7   0  -3    0.90    1.60
  -7   0  -3   -0.10    1.10
  -7   0  -3   -0.20    0.90
   7   0   3    0.90    1.10
   7   0   3    0.20    1.20
   7   0   3    1.10    1.30
   7   0   3   -0.30    1.20
  -8   0  -3    3.00    1.70
  -8   0  -3    2.40    2.00
  -8   0  -3    5.00    1.80
  -8   0  -3    3.30    1.40
   8   0   3    2.50    1.70
   8   0   3    4.40    1.90
   9  -1  -3    1.10    1.00
   9  -1  -3   -0.40    1.00
   9  -1  -3    0.60    1.10
   9  -1  -3    0.30    1.40
  -9   1   3    1.80    1.30
  -9   1   3   -1.90    1.00
  -9   1   3    0.50    1.30
  -9   1   3   -0.20    1.30
   8  -1  -3    2.30    1.40
   8  -1  -3    2.10    0.90
   8  -1  -3   -0.20    0.80
   8  -1  -3    1.50    0.90
  -8   1   3    2.50    1.20
  -8   1   3    2.60    1.20
  -8   1   3    0.20    1.30
  -8   1   3    3.10    1.50
  -8   1   3    0.30    0.90
  -8   1   3    0.20    1.40
   7  -1  -3   -0.30    0.60
   7  -1  -3   -1.00    0.90
   7  -1  -3    1.40    0.80
   7  -1  -3    0.20    0.70
   7  -1  -3    0.40    0.70
   7  -1  -3   -0.60    0.90
  -7   1   3    0.60    1.00
  -7   1   3    1.30    0.90
  -7   1   3    0.70    1.10
  -7   1   3   -0.80    0.90
  -7   1   3   -0.50    0.70
  -7   1   3   -1.10    0.90
  -7   1   3    1.10    0.90
  -7   1   3    1.30    1.00
   6  -1  -3   14.10    1.60
   6  -1  -3   13.90    1.60
   6  -1  -3    9.40    1.60
   6  -1  -3   13.80    1.50
   6  -1  -3   13.10    1.60
   6  -1  -3   13.80    1.50
   6  -1  -3   16.00    1.60
  -6   1   3   10.30    1.50
  -6   1   3   11.80    1.60
  -6   1   3   14.10    1.70
  -6   1   3   14.80    1.50
  -6   1   3   11.60    1.80
  -6   1   3   13.90    1.90
  -6   1   3   11.00    1.90
  -6   1   3   13.90    2.00
  -6   1   3   12.10    1.30
  -6   1   3   12.10    1.60
  -6   1   3   12.80    1.80
   5  -1  -3   15.40    1.20
   5  -1  -3   12.00    1.30
   5  -1  -3   13.20    1.40
   5  -1  -3   10.30    1.40
   5  -1  -3   12.80    1.30
   5  -1  -3   11.40    1.30
   5  -1  -3   14.50    1.40
  -5   1   3   11.60    1.50
  -5   1   3    9.80    1.50
  -5   1   3   13.30    1.30
  -5   1   3   12.00    1.40
  -5   1   3   13.50    1.60
  -5   1   3   11.00    1.60
  -5   1   3   11.40    1.30
  -5   1   3   14.00    1.40
  -5   1   3   12.10    1.50
  -5   1   3   13.10    1.50
  -5   1   3   13.80    1.50
  -5   1   3   11.50    1.40
   4  -1  -3  141.69    5.90
   4  -1  -3  137.09    5.80
   4  -1  -3  133.29    5.70
   4  -1  -3  141.69    5.80
   4  -1  -3  128.49    5.80
   4  -1  -3  138.09    6.10
   4  -1  -3  133.39    5.80
  -4   1   3  139.49    5.90
  -4   1   3  132.19    6.00
  -4   1   3  140.69    5.80
  -4   1   3  132.59    5.80
  -4   1   3  129.29    6.30
  -4   1   3  136.19    6.00
  -4   1   3  140.59    5.90
  -4   1   3  131.99    5.90
  -4   1   3  127.39    6.20
  -4   1   3  128.39    6.00
  -4   1   3  136.39    6.00
  -4   1   3  125.19    6.20
   3  -1  -3    3.00    0.40
   3  -1  -3    2.20    0.40
   3  -1  -3    2.90    0.50
   3  -1  -3    2.60    0.50
   3  -1  -3    2.30    0.50
   3  -1  -3    2.00    0.60
  -3   1   3    3.30    0.80
  -3   1   3    2.40    0.70
  -3   1   3    2.90    0.70
  -3   1   3    2.40    0.50
  -3   1   3    2.10    0.50
  -3   1   3    3.10    0.50
  -3   1   3    3.80    0.60
  -3   1   3    2.30    0.50
  -3   1   3    2.50    0.50
  -3   1   3    3.90    0.60
  -3   1   3    3.00    0.50
   2  -1  -3   83.89    3.80
   2  -1  -3   83.89    3.60
   2  -1  -3   86.79    3.60
   2  -1  -3   83.29    3.30
   2  -1  -3   87.29    3.50
  -2   1   3   80.69    3.90
  -2   1   3   78.09    3.70
  -2   1   3   80.89    3.90
  -2   1   3   82.99    3.70
  -2   1   3   77.69    3.60
  -2   1   3   87.29    3.60
  -2   1   3   78.79    3.80
   1  -1  -3   12.90    0.80
   1  -1  -3   12.60    0.80
   1  -1  -3   12.80    0.70
   1  -1  -3   11.30    0.90
   1  -1  -3   10.70    0.80
   1  -1  -3   13.50    0.80
  -1   1   3   11.90    0.90
  -1   1   3   13.00    0.90
  -1   1   3   12.00    0.90
  -1   1   3   14.40    1.00
  -1   1   3   11.40    0.80
  -1   1   3   13.00    0.80
   0  -1  -3  938.01   38.10
   0  -1  -3  991.70   38.20
   0  -1  -3 1015.00   38.20
   0  -1  -3 1002.70   38.10
   0  -1  -3 1033.50   38.30
   0  -1  -3  998.80   38.20
   0   1   3  989.60   38.20
   0   1   3  959.90   38.20
   0   1   3 1038.60   38.50
   0   1   3 1030.80   38.40
   0   1   3  957.30   38.40
   0   1   3 1021.90   38.30
  -1  -1  -3    7.20    0.70
  -1  -1  -3    6.90    0.50
  -1  -1  -3    5.00    0.80
  -1  -1  -3    4.80    0.80
  -1  -1  -3    6.60    0.70
  -1  -1  -3    5.60    0.80
  -1  -1  -3    7.10    0.70
   1   1   3    6.70    0.80
   1   1   3    6.10    0.80
   1   1   3    5.90    0.80
   1   1   3    6.30    0.80
   1   1   3    6.40    0.90
  -2  -1  -3    0.30    0.40
  -2  -1  -3   -0.30    0.20
  -2  -1  -3   -0.10    0.40
  -2  -1  -3   -0.20    0.30
  -2  -1  -3   -0.20    0.20
  -2  -1  -3   -0.30    0.30
  -2  -1  -3    0.10    0.30
   2   1   3   -0.10    0.30
   2   1   3    0.10    0.40
   2   1   3   -0.60    0.40
   2   1   3   -0.20    0.40
   2   1   3   -0.60    0.40
   2   1   3    0.00    0.40
  -3  -1  -3    0.50    0.60
  -3  -1  -3    1.90    0.80
  -3  -1  -3    0.70    0.40
  -3  -1  -3    1.30    0.70
  -3  -1  -3    1.10    0.40
  -3  -1  -3    0.90    0.40
  -3  -1  -3    1.20    0.40
  -3  -1  -3    1.10    0.40
   3   1   3    1.60    0.70
   3   1   3    0.60    0.60
   3   1   3    0.80    0.70
   3   1   3    2.30    0.80
   3   1   3    0.80    0.50
   3   1   3    1.00    0.70
  -4  -1  -3   12.20    1.30
  -4  -1  -3    9.10    1.20
  -4  -1  -3    8.10    1.50
  -4  -1  -3    9.60    1.60
  -4  -1  -3   11.80    1.80
  -4  -1  -3    9.40    1.30
  -4  -1  -3   11.00    1.20
   4   1   3   11.10    1.50
   4   1   3    8.90    1.50
   4   1   3    6.10    1.30
   4   1   3   10.10    1.60
   4   1   3    9.80    1.30
   4   1   3   10.10    1.30
  -5  -1  -3    0.00    0.90
  -5  -1  -3   -0.30    0.60
  -5  -1  -3   -0.30    0.80
  -5  -1  -3   -0.70    0.60
  -5  -1  -3   -0.70    0.60
  -5  -1  -3   -0.10    0.60
  -5  -1  -3    0.40    0.60
   5   1   3    0.00    0.60
   5   1   3    0.60    0.90
   5   1   3    0.00    0.70
   5   1   3   -1.10    0.80
   5   1   3    0.70    0.80
   5   1   3    0.70    0.80
  -6  -1  -3    7.80    1.60
  -6  -1  -3    8.40    1.90
  -6  -1  -3    5.70    1.70
  -6  -1  -3    9.70    1.50
  -6  -1  -3    9.50    1.60
  -6  -1  -3    6.20    1.80
   6   1   3   10.60    1.90
   6   1   3    9.70    1.80
   6   1   3    9.40    1.70
   6   1   3    8.60    1.80
  -7  -1  -3   21.60    3.20
  -7  -1  -3   17.70    3.00
  -7  -1  -3   22.20    2.60
  -7  -1  -3   18.60    3.10
  -7  -1  -3   22.20    2.70
   7   1   3   19.80    2.80
   7   1   3   14.90    2.40
   7   1   3   25.80    3.20
   7   1   3   25.00    3.10
  -8  -1  -3    1.80    2.10
  -8  -1  -3    3.50    1.50
  -8  -1  -3    2.40    1.50
  -8  -1  -3    5.30    2.40
   8   1   3    3.50    1.80
   8   1   3    0.50    1.50
   8   1   3    1.60    1.60
   9  -2  -3    1.20    1.50
   9  -2  -3   -0.20    1.00
   9  -2  -3    0.90    1.10
  -9   2   3    0.70    1.60
  -9   2   3    0.90    1.30
  -9   2   3   -1.30    1.40
  -9   2   3    2.70    1.50
   8  -2  -3    1.30    0.90
   8  -2  -3    0.10    1.10
   8  -2  -3    0.30    0.90
   8  -2  -3    1.80    0.90
  -8   2   3    1.10    1.10
  -8   2   3    0.90    1.00
  -8   2   3    0.70    1.20
  -8   2   3    0.00    1.00
  -8   2   3    5.00    1.70
  -8   2   3    1.00    1.50
   7  -2  -3    0.20    0.60
   7  -2  -3   -0.30    0.60
   7  -2  -3    0.30    0.50
   7  -2  -3   -0.40    1.00
   7  -2  -3   -0.20    0.60
  -7   2   3    0.40    0.70
  -7   2   3   -0.20    0.90
  -7   2   3   -0.20    0.70
  -7   2   3   -0.20    0.50
  -7   2   3   -1.20    0.70
  -7   2   3    1.40    0.90
   6  -2  -3    0.10    0.50
   6  -2  -3    1.10    0.70
   6  -2  -3    0.30    0.60
   6  -2  -3   -0.80    0.50
   6  -2  -3   -1.70    0.80
  -6   2   3   -0.20    0.70
  -6   2   3    0.70    1.00
  -6   2   3    0.00    0.70
  -6   2   3    0.60    0.60
  -6   2   3    0.30    0.80
  -6   2   3    0.50    0.70
  -6   2   3    0.80    0.70
  -6   2   3    0.10    0.90
   5  -2  -3   19.00    1.40
   5  -2  -3   20.60    1.50
   5  -2  -3   19.20    1.60
   5  -2  -3   17.00    1.60
   5  -2  -3   18.10    1.50
   5  -2  -3   17.40    1.90
  -5   2   3   16.50    2.10
  -5   2   3   21.00    1.70
  -5   2   3   16.80    2.00
  -5   2   3   17.80    1.80
  -5   2   3   19.40    1.80
  -5   2   3   17.70    1.60
  -5   2   3   18.00    1.40
  -5   2   3   16.90    2.00
  -5   2   3   18.00    1.50
   4  -2  -3   24.40    1.40
   4  -2  -3   23.60    1.40
   4  -2  -3   24.70    1.50
   4  -2  -3   21.00    1.70
   4  -2  -3   26.00    1.70
   4  -2  -3   23.90    1.70
   4  -2  -3   24.10    1.50
  -4   2   3   25.10    1.60
  -4   2   3   27.40    1.80
  -4   2   3   22.70    1.90
  -4   2   3   23.50    1.60
  -4   2   3   21.80    1.70
  -4   2   3   25.50    1.80
  -4   2   3   26.10    1.50
  -4   2   3   22.60    1.50
  -4   2   3   23.90    2.00
  -4   2   3   21.50    1.90
  -4   2   3   21.10    1.60
   3  -2  -3  223.18    8.90
   3  -2  -3  209.78    8.50
   3  -2  -3  204.18    9.10
   3  -2  -3  222.28    9.00
   3  -2  -3  221.38    8.70
   3  -2  -3  228.98    8.80
  -3   2   3  224.18    9.40
  -3   2   3  219.88    9.00
  -3   2   3  220.08    9.00
  -3   2   3  234.48    8.70
  -3   2   3  200.78    9.00
  -3   2   3  212.38    8.80
  -3   2   3  203.78    9.00
  -3   2   3  212.58    9.40
  -3   2   3  220.68    9.30
   2  -2  -3   63.49    3.30
   2  -2  -3   70.29    3.10
   2  -2  -3   73.09    2.90
   2  -2  -3   67.39    3.20
   2  -2  -3   71.59    3.10
  -2   2   3   64.69    3.40
  -2   2   3   68.89    3.50
  -2   2   3   66.99    3.10
  -2   2   3   67.89    3.50
  -2   2   3   70.69    3.00
  -2   2   3   67.09    3.30
   1  -2  -3   40.20    2.00
   1  -2  -3   43.50    2.00
   1  -2  -3   37.20    2.00
   1  -2  -3   39.60    2.00
   1  -2  -3   43.50    1.90
  -1   2   3   39.00    2.10
  -1   2   3   42.30    2.30
  -1   2   3   37.40    2.20
  -1   2   3   38.10    2.10
  -1   2   3   40.50    2.10
  -1   2   3   38.30    2.00
   0  -2  -3   89.99    4.20
   0  -2  -3  101.89    4.20
   0  -2  -3   99.79    4.40
   0  -2  -3  100.39    4.20
   0  -2  -3  102.49    4.40
   0  -2  -3  103.09    4.20
   0  -2  -3   99.29    4.30
   0  -2  -3  105.29    4.30
   0   2   3  101.39    4.40
   0   2   3   97.19    4.30
   0   2   3   96.89    4.20
   0   2   3  100.59    4.50
   0   2   3  103.49    4.70
   0   2   3  100.69    4.60
  -1  -2  -3    3.10    0.50
  -1  -2  -3    1.80    0.50
  -1  -2  -3    1.40    0.40
  -1  -2  -3    2.90    0.50
  -1  -2  -3    1.70    0.50
  -1  -2  -3    1.50    0.50
  -1  -2  -3    2.20    0.40
   1   2   3    1.10    0.50
   1   2   3    1.70    0.60
   1   2   3    2.20    0.70
   1   2   3    2.50    0.40
   1   2   3    1.90    0.60
  -2  -2  -3  162.88    6.90
  -2  -2  -3  163.18    7.00
  -2  -2  -3  166.98    7.50
  -2  -2  -3  165.98    6.70
  -2  -2  -3  165.18    7.50
  -2  -2  -3  163.68    6.90
  -2  -2  -3  169.78    7.50
   2   2   3  161.78    7.40
   2   2   3  160.88    7.30
   2   2   3  170.48    7.40
   2   2   3  170.78    7.30
  -3  -2  -3   84.39    4.70
  -3  -2  -3   88.09    3.90
  -3  -2  -3   87.49    4.00
  -3  -2  -3   81.49    4.60
  -3  -2  -3   83.99    4.70
  -3  -2  -3   81.79    4.10
  -3  -2  -3   87.09    4.00
   3   2   3   76.39    4.30
   3   2   3   80.99    4.40
   3   2   3   89.19    4.60
   3   2   3   84.89    4.30
   3   2   3   83.29    4.30
  -4  -2  -3   47.80    3.40
  -4  -2  -3   47.60    2.60
  -4  -2  -3   48.70    3.50
  -4  -2  -3   44.70    2.60
  -4  -2  -3   50.79    2.80
  -4  -2  -3   48.60    2.90
  -4  -2  -3   45.90    3.40
   4   2   3   39.70    3.00
   4   2   3   46.20    3.20
   4   2   3   47.60    3.30
   4   2   3   37.70    3.00
   4   2   3   49.40    3.00
   4   2   3   49.60    3.00
  -5  -2  -3  120.39    5.90
  -5  -2  -3  120.19    5.70
  -5  -2  -3  121.39    5.80
  -5  -2  -3  124.49    6.90
  -5  -2  -3  127.49    6.80
  -5  -2  -3  113.69    6.60
   5   2   3  116.39    5.90
   5   2   3  124.59    5.90
   5   2   3   98.79    6.00
   5   2   3  113.59    6.30
   5   2   3  117.39    6.20
   5   2   3  115.19    6.30
  -6  -2  -3    9.00    1.70
  -6  -2  -3   11.20    2.20
  -6  -2  -3   11.40    2.30
  -6  -2  -3    9.80    1.60
  -6  -2  -3   10.10    2.10
  -6  -2  -3   14.00    1.90
   6   2   3   11.70    1.90
   6   2   3    9.60    2.00
   6   2   3   10.50    2.10
   6   2   3    8.70    1.90
   6   2   3    9.70    2.00
  -7  -2  -3    5.50    1.60
  -7  -2  -3    5.60    1.40
  -7  -2  -3    6.10    1.70
  -7  -2  -3    5.80    1.90
  -7  -2  -3    4.70    1.80
  -7  -2  -3    4.60    1.90
   7   2   3    4.00    1.60
   7   2   3    4.70    1.70
   7   2   3    3.40    1.30
   7   2   3    4.50    1.50
  -8  -2  -3    0.60    1.60
  -8  -2  -3    0.60    2.10
  -8  -2  -3    1.90    1.90
  -8  -2  -3   -1.10    1.10
   8   2   3    0.70    1.60
   8   2   3    1.00    1.50
   8   2   3    0.70    1.60
   9  -3  -3    0.90    1.00
   9  -3  -3   -0.20    1.10
   9  -3  -3   -1.10    1.30
  -9   3   3    1.60    1.50
  -9   3   3   -0.20    1.50
  -9   3   3   -2.30    1.60
  -9   3   3    3.00    1.60
   8  -3  -3    0.00    0.90
   8  -3  -3   -0.10    1.20
   8  -3  -3    0.50    0.90
   8  -3  -3    1.20    0.90
  -8   3   3    0.20    1.00
  -8   3   3    1.50    1.10
  -8   3   3    0.60    1.10
  -8   3   3    1.80    1.20
  -8   3   3   -0.60    1.00
  -8   3   3    0.30    1.30
   7  -3  -3   19.50    2.10
   7  -3  -3   18.00    2.00
   7  -3  -3   19.10    2.10
   7  -3  -3   14.10    2.20
  -7   3   3   19.10    2.30
  -7   3   3   19.30    2.70
  -7   3   3   15.80    2.20
  -7   3   3   16.20    2.40
  -7   3   3   18.60    2.20
  -7   3   3   16.60    2.20
   6  -3  -3   23.00    1.80
   6  -3  -3   22.50    2.10
   6  -3  -3   22.00    2.00
   6  -3  -3   24.00    1.90
  -6   3   3   18.90    2.30
  -6   3   3   19.90    2.20
  -6   3   3   20.50    2.50
  -6   3   3   22.40    2.30
  -6   3   3   26.20    2.10
  -6   3   3   20.50    2.50
   5  -3  -3  113.29    5.10
   5  -3  -3  110.29    5.00
   5  -3  -3   94.09    5.20
   5  -3  -3  110.89    5.20
   5  -3  -3  107.79    4.90
  -5   3   3  108.49    5.30
  -5   3   3  100.09    5.50
  -5   3   3  109.19    5.70
  -5   3   3  102.79    5.70
  -5   3   3  103.89    5.20
  -5   3   3  109.89    5.00
  -5   3   3  107.09    4.80
  -5   3   3  105.39    5.20
   4  -3  -3   84.39    3.80
   4  -3  -3   85.39    4.00
   4  -3  -3   83.49    4.00
   4  -3  -3   79.59    4.20
   4  -3  -3   78.49    3.60
   4  -3  -3   85.09    3.90
  -4   3   3   79.19    4.10
  -4   3   3   82.69    3.80
  -4   3   3   81.89    4.50
  -4   3   3   87.49    4.50
  -4   3   3   78.39    4.10
  -4   3   3   81.19    4.10
  -4   3   3   79.79    4.50
  -4   3   3   79.89    3.90
   3  -3  -3   66.89    3.30
   3  -3  -3   69.69    3.10
   3  -3  -3   71.19    3.20
   3  -3  -3   67.99    3.30
   3  -3  -3   64.19    3.50
  -3   3   3   67.19    3.40
  -3   3   3   66.69    3.60
  -3   3   3   62.79    3.20
  -3   3   3   73.99    3.00
  -3   3   3   64.49    3.70
  -3   3   3   73.19    3.50
  -3   3   3   68.59    3.80
   2  -3  -3  221.78    9.90
   2  -3  -3  255.27    9.60
   2  -3  -3  233.08    9.70
   2  -3  -3  246.18    9.60
   2  -3  -3  241.08    9.40
   2  -3  -3  237.08    9.70
  -2   3   3  236.98    9.90
  -2   3   3  245.58   10.00
  -2   3   3  237.88    9.80
  -2   3   3  239.48   10.20
  -2   3   3  232.88    9.50
  -2   3   3  243.88   10.10
   1  -3  -3   32.50    1.80
   1  -3  -3   35.50    1.80
   1  -3  -3   32.20    1.80
   1  -3  -3   34.70    1.70
   1  -3  -3   33.60    1.80
   1  -3  -3   35.30    1.90
  -1   3   3   30.80    2.00
  -1   3   3   35.50    1.90
  -1   3   3   32.70    2.10
  -1   3   3   32.90    1.90
  -1   3   3   34.80    2.10
  -1   3   3   34.80    2.00
   0  -3  -3   31.70    1.80
   0  -3  -3   28.40    1.50
   0  -3  -3   29.90    1.70
   0  -3  -3   25.70    1.70
   0  -3  -3   29.70    1.60
   0  -3  -3   28.40    1.50
   0  -3  -3   32.80    1.80
   0   3   3   28.70    1.90
   0   3   3   28.90    1.60
   0   3   3   27.80    2.10
   0   3   3   28.40    1.90
   0   3   3   29.80    1.80
   0   3   3   26.80    1.60
  -1  -3  -3  454.85   18.30
  -1  -3  -3  472.15   17.50
  -1  -3  -3  449.66   18.20
  -1  -3  -3  453.95   17.90
  -1  -3  -3  445.26   17.70
  -1  -3  -3  442.96   18.10
  -1  -3  -3  453.75   17.60
   1   3   3  446.56   18.20
   1   3   3  434.96   18.00
   1   3   3  444.36   17.80
   1   3   3  459.45   18.20
   1   3   3  460.95   18.30
  -2  -3  -3    2.20    0.80
  -2  -3  -3    1.40    0.40
  -2  -3  -3    1.80    0.50
  -2  -3  -3    0.40    0.40
  -2  -3  -3    1.30    0.40
  -2  -3  -3    0.30    0.50
  -2  -3  -3    1.50    0.50
   2   3   3    2.80    0.80
   2   3   3    0.60    0.70
   2   3   3    1.20    0.70
   2   3   3    1.80    0.40
   2   3   3    0.80    0.70
  -3  -3  -3   24.90    2.30
  -3  -3  -3   25.40    1.50
  -3  -3  -3   24.20    2.50
  -3  -3  -3   27.40    1.80
  -3  -3  -3   26.70    1.70
  -3  -3  -3   25.00    2.50
  -3  -3  -3   25.60    1.90
   3   3   3   27.30    2.20
   3   3   3   26.70    2.10
   3   3   3   24.00    2.30
   3   3   3   25.50    2.50
  -4  -3  -3    0.50    0.90
  -4  -3  -3    0.40    0.60
  -4  -3  -3    0.20    0.80
  -4  -3  -3    1.30    0.60
  -4  -3  -3    0.50    0.50
  -4  -3  -3   -0.20    0.60
   4   3   3    1.10    0.90
   4   3   3   -0.30    0.80
   4   3   3    1.70    1.10
   4   3   3    0.20    1.00
   4   3   3    0.70    0.70
  -5  -3  -3    5.10    1.60
  -5  -3  -3    5.60    1.10
  -5  -3  -3    2.70    1.40
  -5  -3  -3    6.60    1.20
  -5  -3  -3    3.80    1.50
  -5  -3  -3    5.30    1.10
   5   3   3    3.00    1.20
   5   3   3    6.70    1.70
   5   3   3    5.40    1.50
   5   3   3    5.40    1.40
   5   3   3    7.00    1.60
   5   3   3    6.30    1.50
  -6  -3  -3   20.30    2.50
  -6  -3  -3   14.10    2.60
  -6  -3  -3   22.90    3.20
  -6  -3  -3   19.30    2.30
  -6  -3  -3   16.40    2.80
   6   3   3   23.60    3.00
   6   3   3   18.50    2.60
   6   3   3   23.70    2.70
   6   3   3   17.80    2.50
   6   3   3   19.20    2.70
  -7  -3  -3   -0.10    1.40
  -7  -3  -3    0.60    1.40
  -7  -3  -3    0.60    1.00
  -7  -3  -3    0.20    0.90
  -7  -3  -3    0.90    1.00
  -7  -3  -3   -1.80    1.70
   7   3   3    1.70    1.50
   7   3   3    0.00    1.40
   7   3   3    0.80    1.30
   7   3   3   -0.40    1.40
  -8  -3  -3   -0.70    1.80
  -8  -3  -3   -1.00    1.20
  -8  -3  -3    2.00    2.20
  -8  -3  -3    0.00    1.60
   8   3   3    0.70    1.70
   8   3   3   -0.70    1.60
   8   3   3    2.30    1.60
   9  -4  -3    4.60    1.50
   9  -4  -3    5.10    1.90
   9  -4  -3    2.90    1.30
  -9   4   3    4.50    2.00
  -9   4   3    5.50    2.00
  -9   4   3    5.50    2.20
  -9   4   3    7.20    2.00
   8  -4  -3    4.50    1.70
   8  -4  -3    6.30    1.60
   8  -4  -3    4.30    1.30
   8  -4  -3    2.90    1.20
  -8   4   3    2.70    1.60
  -8   4   3    3.80    1.50
  -8   4   3    5.50    1.90
  -8   4   3    6.90    1.80
  -8   4   3    5.10    1.80
  -8   4   3    7.00    1.80
   7  -4  -3   22.90    2.20
   7  -4  -3   16.00    2.40
   7  -4  -3   15.00    1.90
   7  -4  -3   16.90    2.00
  -7   4   3   18.90    2.50
  -7   4   3   20.40    2.40
  -7   4   3   18.90    2.60
  -7   4   3   17.30    2.40
  -7   4   3   20.10    2.40
  -7   4   3   18.40    2.70
   6  -4  -3   -0.30    0.60
   6  -4  -3   -0.40    0.60
   6  -4  -3   -0.50    0.60
   6  -4  -3    0.20    0.60
  -6   4   3    0.10    0.80
  -6   4   3    0.00    1.00
  -6   4   3   -0.60    0.90
  -6   4   3    0.20    0.80
  -6   4   3   -0.90    0.70
  -6   4   3   -1.50    0.70
   5  -4  -3    3.30    0.80
   5  -4  -3    4.20    0.80
   5  -4  -3    3.60    0.80
   5  -4  -3    5.20    0.90
   5  -4  -3    4.60    1.10
  -5   4   3    1.80    1.10
  -5   4   3    4.20    1.00
  -5   4   3    4.30    1.10
  -5   4   3    2.80    0.80
  -5   4   3    2.40    0.80
  -5   4   3    3.30    0.90
  -5   4   3    3.40    1.10
   4  -4  -3    5.10    0.80
   4  -4  -3    6.80    1.10
   4  -4  -3    4.70    0.90
   4  -4  -3    7.20    1.20
   4  -4  -3    7.80    0.90
  -4   4   3    5.80    1.20
  -4   4   3    5.40    1.00
  -4   4   3    3.70    0.90
  -4   4   3    4.00    1.20
  -4   4   3    5.20    1.20
  -4   4   3    6.40    1.00
  -4   4   3    5.20    0.80
   3  -4  -3   37.60    2.50
   3  -4  -3   37.20    2.30
   3  -4  -3   42.60    2.00
   3  -4  -3   44.30    2.20
   3  -4  -3   44.40    2.20
   3  -4  -3   36.70    2.20
  -3   4   3   39.40    2.20
  -3   4   3   39.80    2.40
  -3   4   3   43.40    2.40
  -3   4   3   39.10    2.70
  -3   4   3   40.00    2.60
  -3   4   3   43.60    2.90
   2  -4  -3    3.80    0.60
   2  -4  -3    4.40    0.70
   2  -4  -3    3.00    0.60
   2  -4  -3    4.70    0.70
   2  -4  -3    3.50    0.50
   2  -4  -3    3.80    0.80
  -2   4   3    4.30    0.90
  -2   4   3    4.20    0.70
  -2   4   3    4.70    0.60
  -2   4   3    3.90    0.80
  -2   4   3    4.30    0.90
  -2   4   3    3.30    0.70
   1  -4  -3   36.30    2.00
   1  -4  -3   38.10    2.00
   1  -4  -3   38.00    2.00
   1  -4  -3   32.00    2.00
   1  -4  -3   39.20    2.20
   1  -4  -3   36.70    2.00
   1  -4  -3   37.20    1.90
  -1   4   3   40.20    2.20
  -1   4   3   37.20    1.90
  -1   4   3   35.50    2.10
  -1   4   3   38.90    2.50
  -1   4   3   36.90    2.30
  -1   4   3   40.70    2.30
  -1   4   3   37.20    2.50
   0  -4  -3  127.09    5.50
   0  -4  -3  130.19    5.90
   0  -4  -3  132.79    5.60
   0  -4  -3  141.49    6.10
   0  -4  -3  138.99    5.80
   0  -4  -3  130.79    5.80
   0  -4  -3  132.59    5.60
   0   4   3  130.19    6.10
   0   4   3  137.09    6.00
   0   4   3  136.29    5.60
   0   4   3  129.99    6.00
   0   4   3  123.79    5.60
   0   4   3  127.29    6.20
   0   4   3  128.79    5.70
  -1  -4  -3   36.10    2.50
  -1  -4  -3   34.90    2.30
  -1  -4  -3   38.20    1.80
  -1  -4  -3   36.90    2.20
  -1  -4  -3   35.70    2.40
  -1  -4  -3   37.60    2.00
  -1  -4  -3   38.60    2.00
   1   4   3   42.30    2.30
   1   4   3   32.00    2.40
   1   4   3   37.30    2.30
   1   4   3   35.60    2.50
   1   4   3   41.20    2.70
  -2  -4  -3   48.80    3.20
  -2  -4  -3   53.19    3.20
  -2  -4  -3   43.90    2.40
  -2  -4  -3   46.50    2.60
  -2  -4  -3   44.00    2.90
  -2  -4  -3   46.30    2.40
   2   4   3   41.30    2.90
   2   4   3   46.60    3.10
   2   4   3   44.30    2.90
   2   4   3   49.00    2.50
   2   4   3   47.50    3.10
  -3  -4  -3    8.00    1.50
  -3  -4  -3    9.20    1.30
  -3  -4  -3   11.00    1.30
  -3  -4  -3    8.40    1.60
  -3  -4  -3   11.90    1.20
  -3  -4  -3   11.80    1.90
   3   4   3   11.20    1.70
   3   4   3   10.60    1.60
   3   4   3   13.00    1.90
   3   4   3    8.20    1.60
  -4  -4  -3   50.89    3.80
  -4  -4  -3   45.70    2.80
  -4  -4  -3   50.99    2.80
  -4  -4  -3   51.29    3.10
  -4  -4  -3   42.80    3.40
  -4  -4  -3   48.40    3.60
   4   4   3   44.30    3.40
   4   4   3   45.40    3.20
   4   4   3   46.30    3.50
   4   4   3   46.70    3.30
  -5  -4  -3    4.20    1.00
  -5  -4  -3    4.60    1.10
  -5  -4  -3    4.70    1.60
  -5  -4  -3    4.10    1.50
  -5  -4  -3    3.70    1.50
  -5  -4  -3    3.90    1.20
   5   4   3    3.00    1.50
   5   4   3    4.70    1.40
   5   4   3    7.10    1.70
   5   4   3    5.70    1.70
   5   4   3    3.70    1.50
   5   4   3    4.00    1.40
  -6  -4  -3    8.80    2.30
  -6  -4  -3    6.90    1.40
  -6  -4  -3    5.70    1.50
  -6  -4  -3   10.60    1.90
  -6  -4  -3    4.60    1.80
  -6  -4  -3    7.80    2.10
   6   4   3    5.80    1.80
   6   4   3    7.60    1.80
   6   4   3    6.30    1.60
   6   4   3    6.90    1.80
   6   4   3    4.90    1.90
   6   4   3    6.00    1.80
  -7  -4  -3    2.10    1.70
  -7  -4  -3    0.80    1.30
  -7  -4  -3    2.30    1.70
   7   4   3   -0.30    1.00
   7   4   3    0.80    1.60
   7   4   3    0.50    1.60
   7   4   3    1.10    1.40
  -8  -4  -3    0.10    1.80
  -8  -4  -3    0.00    1.70
  -8  -4  -3   -1.40    2.10
   8   4   3    1.30    1.80
   8   4   3   -0.30    1.80
   8   4   3    2.20    1.90
   9  -5  -3    1.00    1.30
   9  -5  -3    1.50    1.70
   9  -5  -3    1.60    1.20
  -9   5   3   -3.60    1.50
  -9   5   3   -0.40    2.30
  -9   5   3   -1.70    1.30
  -9   5   3   -0.20    1.50
  -9   5   3    1.40    1.90
   8  -5  -3    1.30    1.10
   8  -5  -3    0.50    0.90
   8  -5  -3   -1.00    1.20
  -8   5   3   -0.90    0.90
  -8   5   3   -0.40    1.60
  -8   5   3   -0.80    1.20
  -8   5   3    1.90    1.50
  -8   5   3   -1.20    1.20
   7  -5  -3    0.40    0.60
   7  -5  -3    0.40    0.70
   7  -5  -3   -0.50    0.70
   7  -5  -3   -1.00    1.00
  -7   5   3    0.70    1.00
  -7   5   3    0.80    1.10
  -7   5   3    1.70    1.50
  -7   5   3   -1.00    0.90
  -7   5   3    0.70    1.00
  -7   5   3   -0.20    0.90
   6  -5  -3   13.00    2.00
   6  -5  -3   12.70    1.70
   6  -5  -3   13.10    1.60
   6  -5  -3   16.00    1.90
  -6   5   3   12.80    1.90
  -6   5   3   16.80    2.50
  -6   5   3   11.50    1.90
  -6   5   3   12.40    1.80
  -6   5   3   12.00    2.20
   5  -5  -3    4.60    1.00
   5  -5  -3    6.00    1.00
   5  -5  -3    5.70    1.10
   5  -5  -3    4.60    1.00
   5  -5  -3    4.60    1.20
  -5   5   3    7.00    1.30
  -5   5   3    3.60    1.10
  -5   5   3    4.60    1.40
  -5   5   3    5.80    1.40
  -5   5   3    6.70    1.30
   4  -5  -3   -0.40    0.30
   4  -5  -3    0.40    0.40
   4  -5  -3   -0.60    0.30
   4  -5  -3   -0.20    0.60
   4  -5  -3   -0.70    0.30
  -4   5   3   -0.20    0.60
  -4   5   3    0.20    0.50
  -4   5   3    0.30    0.40
  -4   5   3   -0.20    0.70
  -4   5   3   -0.50    0.40
  -4   5   3   -0.10    0.60
   3  -5  -3    8.90    1.30
   3  -5  -3    9.10    1.10
   3  -5  -3    9.80    1.00
   3  -5  -3    8.20    1.10
   3  -5  -3   10.40    1.10
  -3   5   3   10.40    1.30
  -3   5   3    9.00    1.50
  -3   5   3   10.30    1.40
  -3   5   3    8.30    1.20
  -3   5   3    9.80    1.60
  -3   5   3    8.70    1.10
   2  -5  -3    2.20    0.60
   2  -5  -3   -0.30    0.30
   2  -5  -3    0.10    0.50
   2  -5  -3    0.00    0.40
   2  -5  -3    0.30    0.40
   2  -5  -3    0.30    0.30
  -2   5   3   -0.60    0.40
  -2   5   3   -0.50    0.50
  -2   5   3    0.00    0.40
  -2   5   3    0.00    0.60
  -2   5   3    0.10    0.60
  -2   5   3   -0.50    0.40
   1  -5  -3    1.90    0.60
   1  -5  -3    1.20    0.50
   1  -5  -3    0.40    0.40
   1  -5  -3    0.60    0.30
   1  -5  -3    1.60    0.50
   1  -5  -3    1.70    0.50
  -1   5   3    1.30    0.60
  -1   5   3    0.00    0.70
  -1   5   3    0.50    0.60
  -1   5   3    1.80    0.90
  -1   5   3    1.10    0.70
  -1   5   3    1.60    0.50
  -1   5   3    1.80    0.80
   0  -5  -3    0.50    0.50
   0  -5  -3    0.40    0.40
   0  -5  -3    0.10    0.40
   0  -5  -3    0.20    0.40
   0  -5  -3    1.30    0.40
   0  -5  -3    1.10    0.40
   0  -5  -3   -0.10    0.40
   0   5   3    0.80    0.50
   0   5   3   -0.30    0.80
   0   5   3    0.70    0.70
   0   5   3    1.50    0.80
   0   5   3    1.50    0.60
   0   5   3    0.70    0.40
   0   5   3    0.60    0.60
  -1  -5  -3    4.60    0.70
  -1  -5  -3    4.40    0.90
  -1  -5  -3    4.50    0.70
  -1  -5  -3    4.80    1.00
  -1  -5  -3    4.80    1.00
  -1  -5  -3    4.10    1.00
   1   5   3    4.40    0.90
   1   5   3    4.00    1.00
   1   5   3    2.00    1.00
   1   5   3    4.30    1.10
   1   5   3    6.60    1.30
  -2  -5  -3  106.79    5.00
  -2  -5  -3  100.69    4.70
  -2  -5  -3  101.89    5.30
  -2  -5  -3  100.09    5.50
  -2  -5  -3  100.49    5.60
  -2  -5  -3  106.99    4.70
   2   5   3  101.59    5.40
   2   5   3   92.39    5.20
   2   5   3  110.79    5.50
   2   5   3  105.49    5.60
  -3  -5  -3    0.40    0.70
  -3  -5  -3    1.40    0.90
  -3  -5  -3    1.90    0.70
  -3  -5  -3    2.30    0.90
  -3  -5  -3    2.60    0.70
  -3  -5  -3    2.30    1.00
   3   5   3    2.30    1.20
   3   5   3    1.40    1.10
   3   5   3    1.10    1.00
   3   5   3    1.90    1.20
  -4  -5  -3    1.10    1.00
  -4  -5  -3    1.30    1.20
  -4  -5  -3    0.50    0.60
  -4  -5  -3    0.50    1.00
  -4  -5  -3    2.30    1.00
  -4  -5  -3    3.10    0.90
   4   5   3    1.20    1.10
   4   5   3    1.40    1.20
   4   5   3    3.50    1.40
   4   5   3    2.00    1.20
  -5  -5  -3   50.39    3.40
  -5  -5  -3   39.40    4.20
  -5  -5  -3   47.40    3.00
  -5  -5  -3   47.30    4.40
  -5  -5  -3   36.30    4.00
  -5  -5  -3   43.20    2.80
   5   5   3   42.50    3.70
   5   5   3   47.50    3.80
   5   5   3   40.50    3.40
   5   5   3   37.00    3.20
  -6  -5  -3   12.80    2.10
  -6  -5  -3   14.70    2.80
  -6  -5  -3   10.90    2.40
  -6  -5  -3    9.40    2.30
   6   5   3    8.60    2.00
   6   5   3   12.00    2.60
   6   5   3   10.90    2.30
   6   5   3    8.50    2.00
   6   5   3   12.90    2.50
   6   5   3   13.80    2.50
  -7  -5  -3    1.70    2.10
  -7  -5  -3    0.10    1.20
  -7  -5  -3   -0.40    1.50
   7   5   3   -0.80    1.70
   7   5   3    1.50    1.60
   7   5   3   -2.20    1.30
   7   5   3   -0.80    1.60
   8  -6  -3    2.40    1.50
   8  -6  -3   -0.10    1.10
   8  -6  -3   -0.40    1.00
  -8   6   3   -0.10    1.30
  -8   6   3    0.90    1.60
  -8   6   3    0.90    1.40
  -8   6   3   -0.80    1.50
   7  -6  -3    5.40    1.50
   7  -6  -3    4.90    1.70
   7  -6  -3    5.90    1.40
   7  -6  -3    5.60    1.40
  -7   6   3    6.40    1.70
  -7   6   3    5.60    1.90
  -7   6   3    1.30    1.00
  -7   6   3    4.50    1.60
  -7   6   3    4.90    1.70
   6  -6  -3    3.80    1.20
   6  -6  -3    2.90    1.30
   6  -6  -3    1.70    0.90
   6  -6  -3    2.00    0.90
  -6   6   3    1.20    1.00
  -6   6   3    0.70    1.00
  -6   6   3    1.60    1.20
  -6   6   3    3.50    1.20
  -6   6   3   -0.20    1.30
   5  -6  -3    2.80    0.80
   5  -6  -3    1.50    0.80
   5  -6  -3    1.20    1.00
   5  -6  -3    1.90    0.80
   5  -6  -3    3.50    1.00
  -5   6   3    1.80    0.90
  -5   6   3    3.60    1.40
  -5   6   3    1.00    1.10
  -5   6   3    2.10    1.00
   4  -6  -3   -0.20    0.70
   4  -6  -3    2.10    0.70
   4  -6  -3   -0.20    0.50
   4  -6  -3    0.70    0.50
   4  -6  -3    0.50    0.60
  -4   6   3   -0.30    0.70
  -4   6   3   -0.20    0.90
  -4   6   3    0.10    0.90
  -4   6   3    0.00    0.50
  -4   6   3    1.10    0.60
   3  -6  -3    7.10    1.10
   3  -6  -3    6.50    1.00
   3  -6  -3    8.70    1.10
   3  -6  -3    6.90    1.00
   3  -6  -3    8.70    1.40
  -3   6   3    7.90    1.30
  -3   6   3    7.70    1.20
  -3   6   3    7.30    1.30
  -3   6   3    6.20    1.40
  -3   6   3    7.30    1.50
   2  -6  -3  248.28   10.50
   2  -6  -3  238.48   10.30
   2  -6  -3  240.88   10.30
   2  -6  -3  228.88   10.40
   2  -6  -3  255.27   10.40
  -2   6   3  257.47   11.00
  -2   6   3  244.18   10.60
  -2   6   3  271.87   11.40
  -2   6   3  263.97   10.70
  -2   6   3  245.98   10.90
   1  -6  -3   -0.50    0.40
   1  -6  -3    0.40    0.40
   1  -6  -3   -0.10    0.50
   1  -6  -3    0.60    0.60
   1  -6  -3   -0.20    0.40
   1  -6  -3    1.00    0.50
  -1   6   3    0.80    0.70
  -1   6   3    1.10    1.10
  -1   6   3   -0.20    0.70
  -1   6   3    1.30    0.90
  -1   6   3    0.50    0.50
  -1   6   3    0.30    0.50
   0  -6  -3   60.19    3.40
   0  -6  -3   59.49    3.00
   0  -6  -3   59.29    3.60
   0  -6  -3   59.19    3.20
   0  -6  -3   61.09    3.60
   0  -6  -3   58.69    2.90
   0   6   3   56.39    3.20
   0   6   3   60.19    3.90
   0   6   3   60.39    3.50
   0   6   3   60.29    3.60
   0   6   3   58.09    3.70
  -1  -6  -3  107.09    4.50
  -1  -6  -3   97.39    5.20
  -1  -6  -3  105.59    4.60
  -1  -6  -3   93.99    4.80
  -1  -6  -3   97.69    5.40
  -1  -6  -3  100.89    5.10
   1   6   3  101.59    5.10
   1   6   3   95.49    5.00
   1   6   3   97.59    5.60
   1   6   3   91.59    5.20
   1   6   3  100.09    5.20
  -2  -6  -3  136.19    6.00
  -2  -6  -3  137.29    7.00
  -2  -6  -3  142.69    7.20
  -2  -6  -3  130.89    6.70
  -2  -6  -3  141.19    6.10
  -2  -6  -3  138.49    6.40
   2   6   3  133.09    6.90
   2   6   3  133.29    6.90
   2   6   3  129.29    6.60
   2   6   3  133.09    7.10
  -3  -6  -3    0.70    1.00
  -3  -6  -3    0.50    1.00
  -3  -6  -3    0.90    0.80
  -3  -6  -3    2.80    0.80
  -3  -6  -3    1.20    1.00
  -3  -6  -3    2.70    0.70
   3   6   3    1.70    1.10
   3   6   3    2.50    1.20
   3   6   3    0.60    1.10
   3   6   3    2.10    1.10
  -4  -6  -3    9.80    1.50
  -4  -6  -3    7.20    1.90
  -4  -6  -3    6.40    1.80
  -4  -6  -3   10.00    1.40
  -4  -6  -3   10.30    1.60
  -4  -6  -3    6.30    1.90
   4   6   3    6.50    1.80
   4   6   3    6.30    1.70
   4   6   3    6.00    1.80
   4   6   3   10.10    2.10
  -5  -6  -3   63.99    5.10
  -5  -6  -3   71.49    5.20
  -5  -6  -3   85.29    4.70
  -5  -6  -3   70.19    5.40
   5   6   3   69.19    4.80
   5   6   3   72.29    5.00
   5   6   3   66.99    4.70
   5   6   3   68.39    5.00
  -6  -6  -3    2.20    1.60
  -6  -6  -3    3.00    1.90
  -6  -6  -3    0.40    1.50
   6   6   3    0.40    1.50
   6   6   3   -0.60    1.30
   6   6   3    1.70    1.30
   6   6   3    0.70    1.60
   6   6   3    5.10    1.80
  -7  -6  -3    4.10    2.20
  -7  -6  -3    4.50    2.10
  -7  -6  -3   13.80    2.50
   7   6   3    7.50    2.30
   7   6   3    3.80    2.00
   7   6   3    9.80    2.30
   7   6   3    8.90    2.40
   8  -7  -3   -0.50    1.10
   8  -7  -3    0.40    1.10
   8  -7  -3   -1.20    1.20
  -8   7   3    1.10    1.60
  -8   7   3   -0.20    1.70
  -8   7   3   -0.20    1.00
  -8   7   3   -0.40    1.50
   7  -7  -3   10.70    2.10
   7  -7  -3    5.70    1.40
   7  -7  -3    9.80    1.80
  -7   7   3    7.90    1.70
  -7   7   3    9.00    2.00
  -7   7   3    7.10    2.10
  -7   7   3    3.70    2.00
   6  -7  -3   20.10    2.50
   6  -7  -3   17.60    2.10
   6  -7  -3   19.70    2.10
   6  -7  -3   16.40    2.10
  -6   7   3   15.00    2.20
  -6   7   3   14.50    2.70
  -6   7   3   13.50    2.40
  -6   7   3   17.40    2.80
   5  -7  -3    2.80    1.00
   5  -7  -3    1.80    1.00
   5  -7  -3    2.40    0.90
   5  -7  -3    2.50    1.20
  -5   7   3    3.00    1.30
  -5   7   3    2.00    1.40
  -5   7   3    3.00    1.20
  -5   7   3    5.50    1.40
   4  -7  -3    7.10    1.20
   4  -7  -3    5.30    1.30
   4  -7  -3    6.60    1.30
   4  -7  -3    6.60    1.10
   4  -7  -3    6.40    1.10
  -4   7   3    7.60    1.40
  -4   7   3    5.40    1.30
  -4   7   3    3.00    1.40
  -4   7   3    6.30    1.70
  -4   7   3    3.60    1.20
   3  -7  -3   24.70    2.10
   3  -7  -3   28.40    2.00
   3  -7  -3   24.60    1.90
   3  -7  -3   26.70    2.00
   3  -7  -3   24.50    2.00
  -3   7   3   18.80    2.40
  -3   7   3   32.10    2.40
  -3   7   3   25.90    2.50
  -3   7   3   24.90    2.00
  -3   7   3   29.60    3.00
   2  -7  -3  149.19    6.80
   2  -7  -3  140.49    6.40
   2  -7  -3  135.19    6.60
   2  -7  -3  141.99    6.50
   2  -7  -3  143.59    6.60
  -2   7   3  147.69    7.10
  -2   7   3  151.68    7.50
  -2   7   3  153.78    7.00
  -2   7   3  146.49    7.20
  -2   7   3  148.39    6.80
   1  -7  -3    1.30    0.60
   1  -7  -3    2.60    0.90
   1  -7  -3    2.30    0.70
   1  -7  -3    2.00    0.70
   1  -7  -3    1.10    0.70
  -1   7   3    2.40    1.30
  -1   7   3    1.60    0.80
  -1   7   3    3.20    1.20
  -1   7   3    1.50    0.90
   0  -7  -3   28.50    2.10
   0  -7  -3   30.20    1.80
   0  -7  -3   29.30    2.30
   0  -7  -3   28.40    2.40
   0  -7  -3   26.50    1.80
   0   7   3   28.80    2.40
   0   7   3   23.60    2.60
   0   7   3   28.70    2.30
   0   7   3   23.30    2.70
  -1  -7  -3  168.08    7.60
  -1  -7  -3  166.88    7.10
  -1  -7  -3  169.28    7.80
  -1  -7  -3  163.78    7.20
  -1  -7  -3  169.88    8.10
  -1  -7  -3  172.38    8.30
   1   7   3  168.68    8.20
   1   7   3  161.48    7.80
   1   7   3  167.38    8.00
   1   7   3  166.28    8.40
   1   7   3  165.08    7.70
  -2  -7  -3   15.70    1.60
  -2  -7  -3   16.70    1.50
  -2  -7  -3   15.50    2.00
  -2  -7  -3   12.60    1.70
  -2  -7  -3   11.80    2.00
  -2  -7  -3   12.60    2.10
   2   7   3   13.90    2.20
   2   7   3   12.60    2.00
   2   7   3   15.50    2.10
   2   7   3   12.10    2.10
  -3  -7  -3   38.10    3.30
  -3  -7  -3   30.00    3.30
  -3  -7  -3   31.40    3.50
  -3  -7  -3   33.90    2.70
   3   7   3   34.40    3.60
   3   7   3   34.20    3.40
   3   7   3   34.60    3.30
   3   7   3   30.40    3.30
  -4  -7  -3   -0.50    1.10
  -4  -7  -3   -0.40    1.10
  -4  -7  -3   -1.30    0.80
  -4  -7  -3   -0.30    1.00
   4   7   3    0.30    1.30
   4   7   3   -0.10    1.00
   4   7   3    0.30    1.40
   4   7   3   -1.60    1.00
  -5  -7  -3    1.90    1.20
  -5  -7  -3   -0.10    1.50
  -5  -7  -3    0.40    1.40
   5   7   3    2.50    1.70
   5   7   3   -0.50    1.40
   5   7   3   -0.70    1.00
   5   7   3   -0.60    1.30
  -6  -7  -3    0.00    1.60
  -6  -7  -3    1.50    1.50
  -6  -7  -3   -1.20    1.70
   6   7   3    1.90    1.90
   6   7   3   -0.70    1.60
   6   7   3   -0.20    1.60
   7  -8  -3    2.50    1.30
   7  -8  -3    0.80    1.40
   7  -8  -3    3.30    1.40
  -7   8   3    1.00    1.40
  -7   8   3    2.50    1.70
  -7   8   3    0.20    1.60
  -7   8   3    2.70    2.00
   6  -8  -3   77.39    5.20
   6  -8  -3   85.29    4.90
   6  -8  -3   74.59    5.00
   6  -8  -3   90.09    4.70
  -6   8   3   77.69    5.40
  -6   8   3   82.09    6.00
  -6   8   3   78.69    5.70
   5  -8  -3    0.80    0.80
   5  -8  -3    1.00    1.00
   5  -8  -3    0.70    0.80
   5  -8  -3   -0.20    1.00
  -5   8   3   -0.20    1.00
  -5   8   3    0.80    1.10
  -5   8   3    0.10    1.00
  -5   8   3    0.30    0.80
   4  -8  -3   48.70    3.10
   4  -8  -3   47.40    3.30
   4  -8  -3   53.99    3.10
   4  -8  -3   44.80    2.90
  -4   8   3   49.10    3.90
  -4   8   3   51.69    3.60
  -4   8   3   52.49    4.20
   3  -8  -3   77.69    4.30
   3  -8  -3   79.29    4.10
   3  -8  -3   75.89    4.30
   3  -8  -3   73.09    4.00
   3  -8  -3   73.99    4.10
  -3   8   3   74.59    4.80
  -3   8   3   93.09    5.40
  -3   8   3   82.19    4.70
  -3   8   3   80.79    4.50
   2  -8  -3   31.80    2.20
   2  -8  -3   30.10    2.20
   2  -8  -3   32.70    2.10
   2  -8  -3   32.90    2.60
  -2   8   3   32.60    3.30
  -2   8   3   35.00    3.30
  -2   8   3   31.90    2.70
  -2   8   3   33.50    2.60
   1  -8  -3   31.50    2.10
   1  -8  -3   28.50    2.50
   1  -8  -3   32.70    2.10
   1  -8  -3   28.60    2.30
  -1   8   3   36.50    3.00
  -1   8   3   30.20    2.90
  -1   8   3   27.00    3.10
   0  -8  -3   -0.70    0.70
   0  -8  -3    0.30    0.50
   0  -8  -3   -0.70    0.60
   0  -8  -3   -0.10    0.40
   0  -8  -3    0.40    0.80
   0   8   3    0.90    1.00
   0   8   3   -1.60    0.90
   0   8   3    1.30    1.00
  -1  -8  -3   18.80    2.10
  -1  -8  -3   18.60    1.70
  -1  -8  -3   20.30    2.40
  -1  -8  -3   18.90    2.50
  -1  -8  -3   20.80    1.60
   1   8   3   19.00    2.50
   1   8   3   22.00    2.40
   1   8   3   16.10    2.60
   1   8   3   16.00    2.20
  -2  -8  -3    1.50    0.90
  -2  -8  -3    2.70    1.20
  -2  -8  -3    1.70    1.00
  -2  -8  -3    0.40    1.20
   2   8   3    1.60    1.50
   2   8   3    1.00    1.10
   2   8   3    2.50    1.20
   2   8   3    3.60    1.30
  -3  -8  -3    0.30    1.00
  -3  -8  -3    0.10    1.00
  -3  -8  -3    0.50    0.70
  -3  -8  -3   -0.70    1.00
   3   8   3   -2.20    0.80
   3   8   3   -0.20    1.10
   3   8   3    2.90    1.40
   3   8   3    0.60    1.40
  -4  -8  -3    3.00    1.60
  -4  -8  -3    1.90    1.50
  -4  -8  -3    1.40    1.40
  -4  -8  -3    1.00    1.40
   4   8   3   -0.10    1.50
   4   8   3    0.50    1.40
   4   8   3    1.60    1.20
   4   8   3    0.70    1.10
  -5  -8  -3   -0.50    1.40
  -5  -8  -3    1.80    1.40
  -5  -8  -3    1.00    1.70
   5   8   3   -1.00    1.40
   5   8   3    0.30    1.70
   5   8   3    1.60    1.80
   6  -9  -3    1.70    1.10
   6  -9  -3   -0.30    1.20
   6  -9  -3    0.00    1.10
  -6   9   3    1.90    2.00
  -6   9   3    1.00    1.70
  -6   9   3   -0.50    1.30
  -6   9   3    1.20    1.60
   5  -9  -3    4.90    1.60
   5  -9  -3    4.50    1.20
   5  -9  -3    4.70    1.40
   5  -9  -3    3.70    1.20
  -5   9   3    0.90    1.60
  -5   9   3    1.50    1.40
  -5   9   3    3.40    2.00
   4  -9  -3    2.20    1.00
   4  -9  -3    2.40    0.90
   4  -9  -3    2.90    1.00
   4  -9  -3    2.10    1.20
  -4   9   3    1.30    1.40
  -4   9   3    2.60    1.30
  -4   9   3    2.60    1.50
   3  -9  -3    5.10    1.10
   3  -9  -3    5.20    1.20
   3  -9  -3    3.60    1.80
   3  -9  -3    4.20    1.00
  -3   9   3    6.80    1.60
  -3   9   3    4.30    1.50
  -3   9   3    5.20    1.50
   2  -9  -3    3.20    0.90
   2  -9  -3    2.60    0.90
   2  -9  -3    2.40    0.90
   2  -9  -3    1.70    0.70
  -2   9   3    1.50    1.30
  -2   9   3    3.10    1.50
  -2   9   3    1.00    1.00
   1  -9  -3    1.10    0.70
   1  -9  -3    2.50    1.00
   1  -9  -3    3.60    1.20
   1  -9  -3    2.60    0.80
  -1   9   3    3.50    1.20
  -1   9   3    2.50    1.20
  -1   9   3    4.00    1.50
   0  -9  -3    8.90    1.40
   0  -9  -3    7.40    1.60
   0   9   3    9.70    2.10
   0   9   3    7.30    1.70
   0   9   3    3.60    1.60
  -1  -9  -3    2.30    0.90
  -1  -9  -3    2.50    1.30
  -1  -9  -3    2.30    1.10
   1   9   3    3.60    1.50
   1   9   3    2.60    1.60
  -2  -9  -3    0.60    1.00
  -2  -9  -3    0.80    0.90
  -2  -9  -3   -1.00    0.60
   2   9   3   -0.10    1.60
   2   9   3    0.00    1.30
   2   9   3   -1.40    1.00
  -3  -9  -3    2.00    1.30
  -3  -9  -3    3.70    1.80
  -3  -9  -3    2.10    1.40
   3   9   3    2.00    1.40
   3   9   3    3.30    1.50
   3   9   3    3.90    1.70
  -4  -9  -3    0.20    1.40
  -4  -9  -3   -0.60    1.30
  -4  -9  -3    3.00    1.80
   4   9   3    3.80    2.00
   4   9   3    0.50    1.60
   4   9   3    3.60    1.90
   5 -10  -3   -1.60    1.10
   5 -10  -3   -0.10    1.10
   5 -10  -3   -0.60    1.00
  -5  10   3   -1.10    1.60
  -5  10   3    1.10    1.60
   4 -10  -3   -0.60    1.00
   4 -10  -3    1.60    0.90
   4 -10  -3    0.60    0.90
  -4  10   3    0.90    1.50
  -4  10   3    1.80    1.50
   3 -10  -3    0.20    0.70
   3 -10  -3    0.80    0.80
   3 -10  -3    0.80    0.70
  -3  10   3    2.30    1.70
   2 -10  -3    0.80    0.90
   2 -10  -3    2.40    1.00
   2 -10  -3    1.20    0.80
  -2  10   3    0.50    1.00
  -2  10   3    2.20    1.30
   1 -10  -3   11.50    1.80
   1 -10  -3    9.10    1.90
  -1  10   3   10.90    2.20
  -1  10   3   10.50    2.30
  -1  10   3    9.80    2.10
   0 -10  -3    1.40    1.00
   0 -10  -3    1.60    1.20
   0  10   3   -0.70    1.60
   0  10   3    0.90    1.40
   0  10   3    1.10    1.30
  -1 -10  -3   -1.00    0.70
  -1 -10  -3    0.20    1.00
   1  10   3    2.60    1.60
  -2 -10  -3    1.30    1.20
  -2 -10  -3    2.20    1.30
   2  10   3   -2.60    1.30
  -3 -10  -3    1.20    1.40
  -3 -10  -3   -0.10    1.40
   3  10   3   -1.70    1.40
   3  10   3    2.10    1.50
   4 -11  -3    1.40    1.20
   4 -11  -3   -0.30    0.90
  -4  11   3    1.10    2.00
  -4  11   3    0.20    1.70
   3 -11  -3    1.20    1.10
  -3  11   3   -0.40    1.10
   2 -11  -3    0.80    0.80
  -2  11   3    0.70    1.50
   1 -11  -3    0.00    1.10
  -1  11   3    2.10    1.70
  -1  11   3    1.10    1.60
   0 -11  -3    0.00    1.00
   0  11   3    0.60    1.30
   0  11   3   -0.20    1.50
  -1 -11  -3    2.90    1.40
   1  11   3    1.20    1.60
  -2 -11  -3    2.70    1.50
   0  13  -4    0.70    1.60
   3  12  -4    7.40    2.00
   3  12  -4    8.70    2.20
  -3 -12   4    5.70    2.20
  -3 -12   4    5.60    2.20
   2  12  -4    2.10    1.40
   2  12  -4    2.80    1.80
  -2 -12   4    2.00    1.20
  -2 -12   4    2.10    1.50
   1  12  -4    3.40    1.90
  -1 -12   4    6.30    1.90
   0  12  -4   -0.10    1.50
   0 -12   4    0.30    1.10
  -1  12  -4    1.30    1.90
  -1  12  -4    8.50    1.90
   1 -12   4    4.10    1.50
  -2  12  -4    2.90    1.70
  -2  12  -4    1.00    1.40
   2 -12   4    1.00    1.20
  -3  12  -4   12.50    2.90
  -3  12  -4    5.50    2.00
   3 -12   4    6.40    1.70
  -4  12  -4    2.30    1.70
   4  11  -4    7.80    2.10
   4  11  -4    6.40    2.00
   4  11  -4    6.30    1.80
  -4 -11   4    8.80    2.20
  -4 -11   4    2.20    1.80
  -4 -11   4    7.40    2.20
   3  11  -4    7.80    2.00
   3  11  -4   10.70    2.10
   3  11  -4    7.30    1.70
  -3 -11   4    7.30    2.20
  -3 -11   4    5.60    1.80
  -3 -11   4    9.10    2.10
   2  11  -4    1.70    1.10
   2  11  -4    2.90    1.50
   2  11  -4    0.10    1.20
  -2 -11   4    4.40    1.60
  -2 -11   4    0.40    1.00
   1  11  -4    7.30    1.70
   1  11  -4   12.80    2.40
   1  11  -4    8.30    1.60
  -1 -11   4   10.40    2.00
  -1 -11   4    9.40    1.90
  -1 -11   4    9.60    2.00
   0  11  -4   12.70    2.10
   0  11  -4   11.50    2.50
   0 -11   4   10.60    2.10
   0 -11   4   10.10    1.90
  -1  11  -4    5.20    1.50
  -1  11  -4    3.60    1.70
   1 -11   4    1.00    1.00
   1 -11   4    2.70    1.20
  -2  11  -4    8.20    1.80
  -2  11  -4    7.70    2.10
   2 -11   4    5.40    1.50
   2 -11   4   10.20    1.80
  -3  11  -4    8.40    2.20
  -3  11  -4   10.60    2.50
   3 -11   4    6.70    1.40
   3 -11   4    5.40    1.50
  -4  11  -4   -0.10    1.50
  -4  11  -4    2.40    1.90
   4 -11   4    0.80    1.00
   4 -11   4    1.50    1.00
  -5  11  -4    1.30    1.70
  -5  11  -4    3.20    1.70
  -5  11  -4    1.90    2.00
   5 -11   4    1.50    1.10
   5 -11   4    2.10    1.30
   5  10  -4    8.90    2.10
   5  10  -4    4.80    1.70
  -5 -10   4    6.30    2.20
  -5 -10   4    5.40    2.10
  -5 -10   4    7.80    1.90
  -5 -10   4    7.00    2.00
   4  10  -4    3.90    1.20
   4  10  -4    3.40    1.40
   4  10  -4    4.00    1.70
  -4 -10   4    2.60    1.50
  -4 -10   4    2.30    1.10
  -4 -10   4    1.80    1.40
  -4 -10   4    2.90    1.50
   3  10  -4   -0.20    0.60
   3  10  -4   -0.40    0.70
   3  10  -4    0.00    1.00
   3  10  -4   -0.20    1.10
  -3 -10   4    0.90    0.80
  -3 -10   4    0.50    1.00
  -3 -10   4    0.70    1.20
  -3 -10   4    1.10    1.00
  -3 -10   4    0.00    1.10
   2  10  -4   -1.10    0.80
   2  10  -4    0.00    1.00
   2  10  -4    0.50    0.90
   2  10  -4    0.40    1.00
  -2 -10   4    0.50    0.80
  -2 -10   4   -0.60    0.90
  -2 -10   4    0.20    0.80
  -2 -10   4    0.70    1.00
  -2 -10   4    1.00    1.00
   1  10  -4    2.50    1.10
   1  10  -4    2.40    0.90
   1  10  -4    2.60    1.20
   1  10  -4    1.50    1.30
  -1 -10   4    1.60    1.00
  -1 -10   4    3.10    1.20
  -1 -10   4    1.40    0.90
   0  10  -4    4.80    1.40
   0  10  -4    2.00    1.30
   0  10  -4    5.50    1.40
   0 -10   4    6.50    1.40
   0 -10   4    3.80    1.30
   0 -10   4    4.60    1.30
  -1  10  -4   13.70    2.10
  -1  10  -4   14.90    2.50
   1 -10   4   16.90    2.00
   1 -10   4   18.60    2.20
   1 -10   4   11.10    1.80
  -2  10  -4   15.50    2.50
  -2  10  -4   15.90    2.40
   2 -10   4   17.30    2.20
   2 -10   4   14.40    1.60
   2 -10   4   16.20    2.10
  -3  10  -4    0.50    1.00
  -3  10  -4   -0.10    1.00
  -3  10  -4    1.40    1.00
   3 -10   4   -0.20    0.80
   3 -10   4    1.20    1.00
   3 -10   4    1.80    0.90
  -4  10  -4   19.50    3.00
  -4  10  -4   17.50    2.60
  -4  10  -4   21.70    3.10
   4 -10   4   24.00    2.50
   4 -10   4   21.60    2.20
   4 -10   4   24.80    2.60
  -5  10  -4    2.10    1.50
  -5  10  -4    1.40    1.30
  -5  10  -4    1.60    1.30
   5 -10   4    1.30    1.00
   5 -10   4    2.50    1.20
  -6  10  -4    9.00    2.40
  -6  10  -4    6.80    2.20
  -6  10  -4   11.20    2.80
  -6  10  -4    8.60    2.10
   6 -10   4    7.70    1.70
   6 -10   4    7.40    1.70
   6 -10   4    8.30    1.90
   6   9  -4    0.90    1.00
   6   9  -4    0.90    1.10
  -6  -9   4   -0.80    0.90
  -6  -9   4    1.40    1.30
  -6  -9   4    0.50    1.10
  -6  -9   4    1.80    1.70
   5   9  -4    1.80    1.20
   5   9  -4    0.90    1.30
   5   9  -4    2.90    1.30
  -5  -9   4    6.20    2.00
  -5  -9   4    4.20    1.70
  -5  -9   4    0.50    1.50
  -5  -9   4    2.00    1.20
  -5  -9   4    3.70    1.70
   4   9  -4    9.20    1.80
   4   9  -4    7.90    1.70
   4   9  -4    6.60    1.50
   4   9  -4    9.30    1.90
  -4  -9   4    6.70    1.80
  -4  -9   4    4.50    1.50
  -4  -9   4    7.90    2.00
  -4  -9   4    7.70    1.60
  -4  -9   4    6.20    1.70
   3   9  -4   10.00    2.00
   3   9  -4    9.10    1.60
   3   9  -4    9.80    1.80
   3   9  -4    7.10    1.50
  -3  -9   4   10.10    1.90
  -3  -9   4    7.30    1.70
  -3  -9   4    9.30    1.70
  -3  -9   4    6.70    1.60
  -3  -9   4    8.70    1.60
   2   9  -4    4.10    1.40
   2   9  -4    4.40    1.30
   2   9  -4    5.10    1.30
   2   9  -4    3.00    1.00
  -2  -9   4    3.60    1.30
  -2  -9   4    3.10    1.20
  -2  -9   4    2.80    1.20
  -2  -9   4    4.80    1.20
  -2  -9   4    5.20    1.10
   1   9  -4    6.00    1.40
   1   9  -4    5.30    1.30
   1   9  -4    6.90    1.30
   1   9  -4    5.80    1.50
  -1  -9   4    4.50    1.40
  -1  -9   4    5.10    1.30
  -1  -9   4    7.20    1.40
  -1  -9   4    7.00    1.30
  -1  -9   4    6.80    1.40
   0   9  -4  222.68   10.20
   0   9  -4  217.28    9.50
   0   9  -4  218.18    9.80
   0   9  -4  211.68    9.70
   0  -9   4  227.38    9.80
   0  -9   4  202.78    9.90
   0  -9   4  220.08   10.20
   0  -9   4  223.38   10.00
  -1   9  -4    6.50    1.40
  -1   9  -4    8.60    1.80
   1  -9   4    5.80    1.00
   1  -9   4    8.30    1.40
   1  -9   4    6.60    1.30
   1  -9   4    6.40    1.30
  -2   9  -4  191.38    9.00
  -2   9  -4  214.08    9.60
  -2   9  -4  192.98    9.70
   2  -9   4  199.78    8.70
   2  -9   4  208.98    9.10
   2  -9   4  200.28    9.10
   2  -9   4  187.68    8.40
  -3   9  -4   47.50    3.90
  -3   9  -4   48.80    3.50
  -3   9  -4   55.99    4.00
   3  -9   4   53.69    3.50
   3  -9   4   56.09    3.10
   3  -9   4   60.19    3.50
  -4   9  -4   23.20    3.00
  -4   9  -4   23.40    2.80
  -4   9  -4   27.20    3.30
   4  -9   4   22.60    2.30
   4  -9   4   26.50    2.40
   4  -9   4   21.40    3.00
   4  -9   4   27.00    2.20
   4  -9   4   31.20    2.40
  -5   9  -4    0.60    1.40
  -5   9  -4   -0.30    1.50
  -5   9  -4   -0.40    0.90
  -5   9  -4   -0.60    0.80
  -5   9  -4    0.20    1.30
   5  -9   4    0.50    0.90
   5  -9   4    0.60    0.80
   5  -9   4   -0.40    0.90
   5  -9   4    1.00    1.00
   5  -9   4   -0.50    0.80
  -6   9  -4    0.80    1.50
  -6   9  -4    1.60    1.30
  -6   9  -4    1.20    1.20
  -6   9  -4    2.00    1.90
   6  -9   4    0.80    1.10
   6  -9   4    2.10    1.10
   6  -9   4    2.20    1.30
   7   8  -4   11.70    2.40
   7   8  -4   14.80    2.40
  -7  -8   4    7.60    1.90
  -7  -8   4   13.30    2.90
  -7  -8   4    9.10    2.60
  -7  -8   4   11.80    2.60
   6   8  -4    1.10    1.20
   6   8  -4    1.20    1.20
  -6  -8   4    5.20    1.80
  -6  -8   4    1.70    1.00
  -6  -8   4    5.50    1.90
  -6  -8   4    1.80    1.70
  -6  -8   4    1.50    1.40
   5   8  -4    1.10    0.90
   5   8  -4   -0.30    1.10
   5   8  -4    0.40    1.00
   5   8  -4   -0.50    0.90
  -5  -8   4    2.10    1.30
  -5  -8   4    0.90    1.30
  -5  -8   4    1.60    1.40
  -5  -8   4    1.60    1.20
  -5  -8   4    0.80    0.90
   4   8  -4   14.00    2.00
   4   8  -4   13.90    2.30
   4   8  -4   10.50    1.80
   4   8  -4   12.20    1.80
  -4  -8   4   13.00    2.30
  -4  -8   4   19.10    2.50
  -4  -8   4   17.20    2.10
  -4  -8   4   11.00    2.00
  -4  -8   4   12.30    2.10
   3   8  -4    1.80    0.80
   3   8  -4    2.30    1.30
   3   8  -4    1.40    0.90
   3   8  -4    0.50    0.80
  -3  -8   4    1.90    0.90
  -3  -8   4    1.40    1.00
  -3  -8   4    0.50    0.90
  -3  -8   4    0.80    1.00
  -3  -8   4    0.50    1.00
   2   8  -4  311.17   13.60
   2   8  -4  317.27   13.50
   2   8  -4  338.97   13.70
   2   8  -4  325.07   13.20
  -2  -8   4  312.87   13.60
  -2  -8   4  338.67   13.50
  -2  -8   4  292.87   13.80
  -2  -8   4  316.17   13.70
  -2  -8   4  296.97   13.80
   1   8  -4   91.99    4.80
   1   8  -4   83.79    4.50
   1   8  -4   94.49    4.70
   1   8  -4   86.29    4.50
  -1  -8   4   82.19    4.60
  -1  -8   4   86.99    4.40
  -1  -8   4   81.19    4.80
  -1  -8   4   90.09    4.70
  -1  -8   4   84.49    4.80
   0   8  -4  228.98    9.90
   0   8  -4  232.08   10.10
   0   8  -4  243.48   10.70
   0   8  -4  238.78   10.30
   0  -8   4  237.28   10.00
   0  -8   4  226.38    9.60
   0  -8   4  234.08   10.40
   0  -8   4  231.38   10.10
   0  -8   4  236.48   10.30
   0  -8   4  236.28   10.10
  -1   8  -4   16.10    2.00
  -1   8  -4   18.30    1.80
  -1   8  -4   17.90    1.70
  -1   8  -4   17.00    2.20
   1  -8   4   17.90    1.80
   1  -8   4   17.20    1.30
   1  -8   4   18.60    2.00
   1  -8   4   19.20    2.00
  -2   8  -4    5.80    1.40
  -2   8  -4    2.60    1.20
  -2   8  -4    2.90    0.90
   2  -8   4    4.60    0.90
   2  -8   4    4.40    0.90
   2  -8   4    3.50    0.90
   2  -8   4    3.90    1.00
  -3   8  -4   10.20    1.40
  -3   8  -4    9.30    1.70
  -3   8  -4   10.00    1.40
  -3   8  -4   10.30    1.60
  -3   8  -4   10.60    1.90
   3  -8   4    9.70    1.30
   3  -8   4    9.90    1.30
   3  -8   4   10.40    1.30
   3  -8   4   10.30    1.40
   3  -8   4   12.90    1.50
   3  -8   4    8.30    1.40
  -4   8  -4   14.50    2.00
  -4   8  -4   13.90    1.80
  -4   8  -4   12.90    2.20
  -4   8  -4   11.20    1.60
  -4   8  -4   11.80    1.70
  -4   8  -4   13.30    2.20
   4  -8   4   13.10    1.70
   4  -8   4   14.00    1.70
   4  -8   4   10.90    1.50
   4  -8   4   12.20    1.50
   4  -8   4   13.60    1.70
  -5   8  -4    0.70    0.90
  -5   8  -4   -0.30    0.90
  -5   8  -4   -1.00    1.10
  -5   8  -4    0.40    0.90
  -5   8  -4    1.40    1.30
  -5   8  -4    0.90    1.10
   5  -8   4   -0.40    0.70
   5  -8   4    0.40    0.70
   5  -8   4   -0.90    0.60
   5  -8   4    0.20    0.80
   5  -8   4    0.30    0.80
  -6   8  -4    1.50    1.20
  -6   8  -4    0.20    1.00
  -6   8  -4   -0.30    1.50
  -6   8  -4    2.20    1.10
  -6   8  -4   -1.00    1.10
   6  -8   4    1.20    1.10
   6  -8   4    1.50    1.10
   6  -8   4    1.10    1.10
   6  -8   4   -1.00    0.80
  -7   8  -4    2.80    1.30
  -7   8  -4    0.50    1.50
  -7   8  -4    2.00    1.50
  -7   8  -4   -1.10    1.50
   7  -8   4   -1.40    1.00
   7  -8   4    0.90    1.30
   7  -8   4   -0.90    1.10
   8   7  -4   -0.10    1.40
  -8  -7   4    2.40    2.10
  -8  -7   4    1.80    1.30
  -8  -7   4    0.20    1.50
   7   7  -4    1.90    1.40
   7   7  -4    1.80    1.20
  -7  -7   4    4.90    2.80
  -7  -7   4    3.20    1.50
  -7  -7   4    1.60    1.70
  -7  -7   4    2.90    1.30
  -7  -7   4    2.70    1.70
   6   7  -4    9.00    1.70
   6   7  -4    6.80    1.70
   6   7  -4    7.50    2.00
  -6  -7   4    8.60    2.10
  -6  -7   4    6.90    1.90
  -6  -7   4   10.10    2.30
  -6  -7   4   10.90    1.80
  -6  -7   4    7.80    2.00
   5   7  -4   14.70    2.00
   5   7  -4   14.80    2.10
   5   7  -4   15.50    2.50
   5   7  -4   15.70    1.90
  -5  -7   4   13.30    2.30
  -5  -7   4   16.50    2.60
  -5  -7   4   15.50    2.50
  -5  -7   4   12.80    2.20
  -5  -7   4   14.40    2.00
  -5  -7   4   11.10    1.80
   4   7  -4   18.00    2.50
   4   7  -4   15.90    2.10
   4   7  -4   18.70    2.20
   4   7  -4   18.60    2.00
  -4  -7   4   17.30    2.40
  -4  -7   4   17.60    2.50
  -4  -7   4   16.80    2.00
  -4  -7   4   15.40    1.90
  -4  -7   4   15.20    2.20
  -4  -7   4   14.40    2.10
   3   7  -4    0.30    0.70
   3   7  -4    0.40    0.80
   3   7  -4    0.30    0.70
   3   7  -4    1.90    0.60
  -3  -7   4    1.60    0.90
  -3  -7   4    1.70    1.00
  -3  -7   4    0.10    0.60
  -3  -7   4    0.00    0.80
  -3  -7   4   -0.10    0.50
  -3  -7   4    0.50    0.70
   2   7  -4    4.20    1.00
   2   7  -4    3.10    0.90
   2   7  -4    1.40    0.90
   2   7  -4    3.10    0.80
  -2  -7   4    3.80    0.90
  -2  -7   4    2.00    0.90
  -2  -7   4    2.70    0.90
  -2  -7   4    1.30    0.70
  -2  -7   4    1.50    0.90
  -2  -7   4    3.40    1.00
   1   7  -4   70.09    3.60
   1   7  -4   72.09    3.90
   1   7  -4   71.89    3.70
   1   7  -4   64.89    3.70
  -1  -7   4   71.59    3.80
  -1  -7   4   60.49    3.30
  -1  -7   4   70.29    3.70
  -1  -7   4   67.29    3.50
  -1  -7   4   68.69    3.90
  -1  -7   4   65.19    3.80
   0   7  -4    0.10    0.50
   0   7  -4    0.10    0.40
   0   7  -4    0.00    0.50
   0   7  -4    0.20    0.40
   0   7  -4    0.10    0.40
   0  -7   4    0.00    0.30
   0  -7   4   -0.50    0.40
   0  -7   4   -0.30    0.30
   0  -7   4    0.80    0.50
   0  -7   4    0.40    0.40
   0  -7   4    0.10    0.30
  -1   7  -4    2.20    0.80
  -1   7  -4    0.70    0.50
  -1   7  -4    0.70    0.50
  -1   7  -4    1.40    0.90
  -1   7  -4    1.20    0.60
   1  -7   4    1.30    0.60
   1  -7   4    0.20    0.40
   1  -7   4    1.10    0.50
   1  -7   4    1.20    0.40
   1  -7   4    2.10    0.60
   1  -7   4    0.50    0.40
  -2   7  -4   13.40    2.00
  -2   7  -4   13.40    1.60
  -2   7  -4   10.40    1.60
  -2   7  -4   14.70    1.40
  -2   7  -4   12.40    1.30
   2  -7   4   16.30    1.50
   2  -7   4   12.90    1.30
   2  -7   4   13.00    1.30
   2  -7   4   14.90    1.60
   2  -7   4   17.80    1.50
   2  -7   4   15.80    1.30
  -3   7  -4   -0.50    0.80
  -3   7  -4   -0.30    0.50
  -3   7  -4   -0.10    0.50
  -3   7  -4    0.40    0.60
  -3   7  -4    0.20    0.60
  -3   7  -4    0.50    0.60
   3  -7   4    0.40    0.70
   3  -7   4    0.50    0.50
   3  -7   4   -0.30    0.50
   3  -7   4    0.50    0.50
   3  -7   4    0.50    0.60
   3  -7   4    0.10    0.50
  -4   7  -4    9.60    1.50
  -4   7  -4    7.70    1.70
  -4   7  -4    9.70    1.70
  -4   7  -4   10.50    1.80
  -4   7  -4   10.80    1.60
  -4   7  -4   11.80    1.70
   4  -7   4   11.70    1.40
   4  -7   4   12.00    1.60
   4  -7   4   12.10    1.50
   4  -7   4    8.80    1.30
   4  -7   4   10.70    1.50
  -5   7  -4    4.30    1.50
  -5   7  -4    1.30    1.10
  -5   7  -4    2.00    1.00
  -5   7  -4    2.90    1.20
  -5   7  -4    4.20    1.30
  -5   7  -4    2.70    1.00
   5  -7   4    3.30    1.00
   5  -7   4    2.40    1.00
   5  -7   4    4.30    1.20
   5  -7   4    3.20    1.00
  -6   7  -4    4.30    1.40
  -6   7  -4    5.30    1.80
  -6   7  -4    5.60    1.50
  -6   7  -4    5.00    1.30
  -6   7  -4    8.10    2.10
   6  -7   4    4.80    1.50
   6  -7   4    6.90    1.60
   6  -7   4    7.20    1.40
   6  -7   4    5.70    1.30
   6  -7   4    6.50    1.40
  -7   7  -4    0.00    1.20
  -7   7  -4    1.40    1.30
  -7   7  -4   -0.70    1.50
  -7   7  -4   -0.50    1.40
   7  -7   4    1.90    1.30
   7  -7   4   -0.60    1.10
   7  -7   4    3.40    1.40
   8   6  -4   -0.20    1.30
   8   6  -4    0.40    1.10
   8   6  -4    1.50    1.40
  -8  -6   4   -0.70    1.70
  -8  -6   4   -1.70    1.10
  -8  -6   4    0.90    1.40
  -8  -6   4    1.50    1.70
   7   6  -4   -0.50    0.80
   7   6  -4   -0.80    1.00
   7   6  -4   -1.20    0.70
  -7  -6   4    0.20    1.30
  -7  -6   4   -0.80    0.90
  -7  -6   4   -0.50    0.80
  -7  -6   4   -0.70    1.30
  -7  -6   4   -0.50    0.70
  -7  -6   4   -0.10    0.80
   6   6  -4   27.00    2.90
   6   6  -4   42.50    2.70
   6   6  -4   31.70    3.50
   6   6  -4   35.90    2.90
  -6  -6   4   36.30    3.90
  -6  -6   4   35.30    2.90
  -6  -6   4   31.60    3.50
  -6  -6   4   30.90    3.50
  -6  -6   4   34.10    3.70
  -6  -6   4   29.80    2.90
   5   6  -4   65.29    4.60
   5   6  -4   78.19    4.10
   5   6  -4   78.89    4.60
   5   6  -4   71.19    4.40
  -5  -6   4   69.19    4.60
  -5  -6   4   70.99    4.80
  -5  -6   4   70.49    4.70
  -5  -6   4   82.29    5.10
  -5  -6   4   76.79    4.30
  -5  -6   4   69.99    4.20
   4   6  -4   47.80    3.30
   4   6  -4   56.39    3.10
   4   6  -4   47.00    3.20
  -4  -6   4   47.70    3.40
  -4  -6   4   57.29    3.40
  -4  -6   4   45.30    3.40
  -4  -6   4   49.80    3.10
  -4  -6   4   47.30    3.50
  -4  -6   4   55.19    3.70
   3   6  -4   36.80    2.30
   3   6  -4   30.20    2.40
   3   6  -4   34.50    2.50
   3   6  -4   37.30    2.10
  -3  -6   4   35.40    2.40
  -3  -6   4   34.40    2.60
  -3  -6   4   32.00    2.50
  -3  -6   4   35.40    2.70
  -3  -6   4   33.80    2.60
  -3  -6   4   35.80    2.40
   2   6  -4    0.40    0.50
   2   6  -4    0.10    0.50
   2   6  -4   -0.30    0.40
   2   6  -4    0.10    0.40
  -2  -6   4   -0.10    0.50
  -2  -6   4    0.30    0.50
  -2  -6   4   -0.40    0.50
  -2  -6   4   -0.30    0.40
  -2  -6   4    0.10    0.40
  -2  -6   4   -0.10    0.40
   1   6  -4    3.80    0.80
   1   6  -4    4.20    0.80
   1   6  -4    2.30    0.70
   1   6  -4    1.80    0.50
   1   6  -4    2.70    0.50
  -1  -6   4    0.90    0.60
  -1  -6   4    2.60    0.50
  -1  -6   4    2.70    0.60
  -1  -6   4    1.70    0.60
  -1  -6   4    3.00    0.70
  -1  -6   4    2.10    0.70
  -1  -6   4    2.70    0.70
   0   6  -4    0.70    0.40
   0   6  -4   -0.10    0.40
   0   6  -4    0.40    0.30
   0   6  -4    0.00    0.30
   0   6  -4    0.00    0.20
   0   6  -4    0.20    0.40
   0  -6   4   -0.20    0.20
   0  -6   4    0.40    0.50
   0  -6   4   -0.20    0.40
   0  -6   4    0.10    0.40
   0  -6   4    0.00    0.20
   0  -6   4    0.30    0.30
   0  -6   4    0.50    0.30
   0  -6   4   -0.10    0.30
  -1   6  -4   -0.10    0.30
  -1   6  -4    0.50    0.30
  -1   6  -4    0.00    0.30
  -1   6  -4   -0.30    0.50
  -1   6  -4    0.40    0.30
  -1   6  -4    0.50    0.40
  -1   6  -4   -0.20    0.30
   1  -6   4    0.10    0.30
   1  -6   4    0.30    0.40
   1  -6   4   -0.40    0.30
   1  -6   4    0.00    0.30
   1  -6   4    0.30    0.30
   1  -6   4   -0.70    0.30
   1  -6   4    0.10    0.40
   1  -6   4    0.10    0.30
  -2   6  -4   48.60    2.50
  -2   6  -4   46.30    2.50
  -2   6  -4   42.10    2.60
  -2   6  -4   46.00    2.90
  -2   6  -4   39.00    2.70
  -2   6  -4   43.40    2.40
   2  -6   4   39.60    2.30
   2  -6   4   42.30    2.50
   2  -6   4   45.90    2.50
   2  -6   4   42.70    2.30
   2  -6   4   41.40    2.30
  -3   6  -4    2.20    0.70
  -3   6  -4    2.90    0.80
  -3   6  -4    2.00    0.80
  -3   6  -4    1.40    0.60
  -3   6  -4    1.00    0.70
  -3   6  -4    3.20    1.00
   3  -6   4    3.80    0.70
   3  -6   4    4.00    0.80
   3  -6   4    3.70    0.80
   3  -6   4    3.30    0.80
   3  -6   4    4.70    1.00
  -4   6  -4   26.00    2.60
  -4   6  -4   26.90    2.20
  -4   6  -4   27.40    2.20
  -4   6  -4   29.90    2.30
  -4   6  -4   24.20    2.50
  -4   6  -4   29.30    2.90
   4  -6   4   32.60    2.30
   4  -6   4   31.60    2.30
   4  -6   4   26.90    1.90
   4  -6   4   29.60    2.10
   4  -6   4   29.90    2.10
  -5   6  -4    0.60    0.80
  -5   6  -4    0.50    0.80
  -5   6  -4   -1.30    0.80
  -5   6  -4   -0.60    0.70
  -5   6  -4    0.70    0.90
  -5   6  -4    0.10    0.70
   5  -6   4    0.10    0.60
   5  -6   4    0.60    0.80
   5  -6   4    0.10    0.70
   5  -6   4   -0.80    0.50
   5  -6   4    0.10    0.60
  -6   6  -4   -1.40    1.10
  -6   6  -4   -0.20    0.50
  -6   6  -4    0.00    0.70
  -6   6  -4    1.80    1.00
  -6   6  -4   -0.20    0.70
   6  -6   4    1.10    1.00
   6  -6   4   -0.70    0.80
   6  -6   4    0.60    1.00
   6  -6   4    0.20    1.00
  -7   6  -4    0.70    1.30
  -7   6  -4   -0.20    1.30
  -7   6  -4    1.60    1.30
  -7   6  -4   -2.00    1.20
   7  -6   4    0.90    1.20
   7  -6   4   -0.60    1.00
  -8   6  -4    0.20    1.00
  -8   6  -4    1.70    1.80
  -8   6  -4    1.10    1.60
  -8   6  -4    1.40    1.70
   8  -6   4   -0.70    1.40
   8  -6   4   -0.20    1.30
   8   5  -4   14.00    2.30
   8   5  -4   17.80    2.70
   8   5  -4   16.30    2.70
   8   5  -4   14.30    2.40
   8   5  -4   15.20    2.50
  -8  -5   4   13.20    2.90
  -8  -5   4   16.20    2.90
  -8  -5   4   16.80    3.10
  -8  -5   4   14.00    2.60
  -8  -5   4   14.50    2.20
  -8  -5   4   15.50    2.90
   7   5  -4    2.70    1.40
   7   5  -4    3.80    1.40
   7   5  -4    4.80    1.20
  -7  -5   4    2.50    1.70
  -7  -5   4    5.10    1.70
  -7  -5   4    6.40    1.50
  -7  -5   4    3.10    1.40
  -7  -5   4    3.70    1.20
  -7  -5   4    3.90    1.80
   6   5  -4   45.60    2.90
   6   5  -4   36.00    2.90
   6   5  -4   38.20    3.20
   6   5  -4   39.90    3.10
  -6  -5   4   41.30    3.00
  -6  -5   4   33.40    3.60
  -6  -5   4   32.40    3.40
  -6  -5   4   43.40    2.70
  -6  -5   4   43.90    3.60
  -6  -5   4   41.30    3.50
  -6  -5   4   45.90    3.20
   5   5  -4    8.10    1.50
   5   5  -4    8.70    1.50
   5   5  -4    8.30    1.70
   5   5  -4   11.60    1.50
  -5  -5   4   11.20    1.90
  -5  -5   4   11.00    1.70
  -5  -5   4    9.90    1.90
  -5  -5   4    9.80    1.50
  -5  -5   4   11.50    1.60
  -5  -5   4   10.40    1.90
   4   5  -4   21.60    1.40
   4   5  -4   20.20    2.10
   4   5  -4   20.10    2.10
   4   5  -4   20.10    1.60
  -4  -5   4   18.30    2.10
  -4  -5   4   15.40    2.00
  -4  -5   4   15.60    2.10
  -4  -5   4   17.80    1.80
  -4  -5   4   19.40    2.00
  -4  -5   4   20.70    2.30
   3   5  -4   28.80    1.90
   3   5  -4   32.40    1.80
   3   5  -4   25.20    2.10
   3   5  -4   23.90    2.00
  -3  -5   4   33.60    2.30
  -3  -5   4   27.20    2.00
  -3  -5   4   27.10    1.90
  -3  -5   4   27.90    2.20
  -3  -5   4   24.70    2.10
  -3  -5   4   28.50    2.30
   2   5  -4    0.30    0.40
   2   5  -4   -0.10    0.50
   2   5  -4    0.20    0.20
   2   5  -4    0.10    0.30
  -2  -5   4    0.70    0.40
  -2  -5   4    0.00    0.40
  -2  -5   4   -0.10    0.40
  -2  -5   4   -0.30    0.30
  -2  -5   4   -0.30    0.30
  -2  -5   4    0.00    0.30
  -2  -5   4   -0.20    0.30
   1   5  -4  102.99    4.50
   1   5  -4   97.09    4.60
   1   5  -4   97.59    4.60
   1   5  -4  100.09    4.20
   1   5  -4   99.39    4.60
  -1  -5   4  101.89    4.60
  -1  -5   4   95.59    4.50
  -1  -5   4   89.79    4.00
  -1  -5   4   91.99    4.60
  -1  -5   4  102.19    4.50
  -1  -5   4   92.49    4.60
  -1  -5   4   96.89    4.50
   0   5  -4   12.00    0.80
   0   5  -4   12.30    0.80
   0   5  -4   13.20    1.10
   0   5  -4   11.80    1.20
   0   5  -4   13.60    1.20
   0   5  -4   10.50    1.20
   0   5  -4   12.00    1.00
   0  -5   4   11.50    1.20
   0  -5   4   10.70    1.00
   0  -5   4   12.50    1.10
   0  -5   4   10.80    0.70
   0  -5   4   12.00    1.00
   0  -5   4   10.90    0.90
   0  -5   4   10.80    0.80
   0  -5   4   14.00    1.10
  -1   5  -4  129.59    5.80
  -1   5  -4  123.99    5.50
  -1   5  -4  128.59    5.60
  -1   5  -4  137.79    5.70
  -1   5  -4  128.29    6.00
  -1   5  -4  135.99    5.60
  -1   5  -4  129.59    6.00
  -1   5  -4  129.79    5.60
   1  -5   4  134.39    5.50
   1  -5   4  130.89    5.50
   1  -5   4  133.99    5.80
   1  -5   4  131.89    5.50
   1  -5   4  141.09    5.70
   1  -5   4  133.19    5.70
   1  -5   4  141.59    5.90
  -2   5  -4    0.40    0.40
  -2   5  -4    0.20    0.40
  -2   5  -4    0.10    0.50
  -2   5  -4   -0.10    0.30
  -2   5  -4   -0.10    0.30
  -2   5  -4    0.10    0.20
  -2   5  -4    0.60    0.50
   2  -5   4    0.20    0.50
   2  -5   4    0.30    0.30
   2  -5   4    0.70    0.40
   2  -5   4    0.50    0.40
   2  -5   4    1.10    0.50
  -3   5  -4    7.30    1.30
  -3   5  -4   10.60    1.30
  -3   5  -4    8.10    1.30
  -3   5  -4    8.40    1.40
  -3   5  -4   12.70    1.40
  -3   5  -4    8.50    1.20
   3  -5   4    9.80    1.20
   3  -5   4   10.70    1.30
   3  -5   4    9.90    1.20
   3  -5   4   11.80    1.20
  -4   5  -4   -0.40    0.50
  -4   5  -4    0.70    0.60
  -4   5  -4    0.20    0.60
  -4   5  -4   -0.50    0.40
  -4   5  -4    0.30    0.60
  -4   5  -4    0.40    0.80
   4  -5   4    0.70    0.70
   4  -5   4    0.60    0.60
   4  -5   4   -0.10    0.50
   4  -5   4    1.40    0.80
  -5   5  -4   37.50    2.80
  -5   5  -4   32.40    2.50
  -5   5  -4   32.60    2.80
  -5   5  -4   32.50    2.50
  -5   5  -4   31.30    3.20
   5  -5   4   37.30    2.60
   5  -5   4   35.00    2.50
   5  -5   4   36.20    2.80
   5  -5   4   38.80    2.60
  -6   5  -4   -0.90    1.00
  -6   5  -4   -0.50    0.60
  -6   5  -4   -1.40    0.90
  -6   5  -4   -0.40    0.80
  -6   5  -4    0.60    0.80
   6  -5   4   -0.30    0.90
   6  -5   4    0.90    0.80
   6  -5   4    0.00    0.80
   6  -5   4   -0.20    1.10
   6  -5   4   -0.90    0.50
  -7   5  -4    2.80    1.60
  -7   5  -4    0.60    1.10
  -7   5  -4    1.90    1.30
  -7   5  -4    1.90    1.40
  -7   5  -4    3.50    1.70
   7  -5   4    1.10    1.10
   7  -5   4    0.80    1.20
   7  -5   4    1.80    1.30
   7  -5   4    2.40    1.10
  -8   5  -4    3.50    1.60
  -8   5  -4    3.50    1.80
  -8   5  -4    5.00    2.10
   8  -5   4    1.70    1.50
   8  -5   4    4.10    1.70
   9   4  -4    1.40    1.50
   9   4  -4    0.70    1.50
   9   4  -4   -1.40    1.30
   9   4  -4    1.70    1.60
  -9  -4   4    1.70    1.90
  -9  -4   4    1.10    2.00
  -9  -4   4    1.20    1.50
  -9  -4   4   -0.40    1.10
   8   4  -4   12.70    2.30
   8   4  -4   14.30    2.20
   8   4  -4   14.50    2.40
   8   4  -4   13.50    2.30
   8   4  -4   13.80    2.40
   8   4  -4   12.80    2.10
  -8  -4   4   14.50    2.10
  -8  -4   4   15.00    2.70
  -8  -4   4   12.20    2.40
  -8  -4   4    7.10    2.00
  -8  -4   4   11.10    2.50
  -8  -4   4   14.40    2.10
   7   4  -4    6.40    1.50
   7   4  -4    6.10    1.60
   7   4  -4    3.90    1.30
   7   4  -4    6.00    1.60
   7   4  -4    8.10    1.80
  -7  -4   4    9.10    1.90
  -7  -4   4    4.10    1.70
  -7  -4   4    3.90    1.30
  -7  -4   4    5.30    1.30
  -7  -4   4    8.20    1.40
  -7  -4   4    4.10    1.60
  -7  -4   4    2.70    1.50
   6   4  -4   55.39    3.80
   6   4  -4   53.89    3.50
   6   4  -4   53.09    3.20
   6   4  -4   57.49    3.70
  -6  -4   4   57.79    3.20
  -6  -4   4   53.69    3.90
  -6  -4   4   57.99    3.50
  -6  -4   4   52.49    3.40
  -6  -4   4   51.09    3.90
  -6  -4   4   46.30    3.60
  -6  -4   4   53.69    4.00
   5   4  -4    0.50    0.70
   5   4  -4    0.00    0.50
   5   4  -4   -0.20    0.50
   5   4  -4   -0.50    0.60
  -5  -4   4    0.40    0.60
  -5  -4   4    0.20    0.60
  -5  -4   4   -0.10    0.70
  -5  -4   4    0.20    0.70
  -5  -4   4   -0.40    0.40
  -5  -4   4   -0.10    0.40
  -5  -4   4   -0.20    0.60
  -5  -4   4    0.00    0.70
   4   4  -4   12.90    1.20
   4   4  -4   13.30    1.70
   4   4  -4   14.40    1.70
   4   4  -4   12.80    1.40
  -4  -4   4    9.40    1.50
  -4  -4   4    8.10    1.30
  -4  -4   4   11.00    1.30
  -4  -4   4   10.30    1.50
  -4  -4   4   12.20    1.20
  -4  -4   4   10.90    1.40
  -4  -4   4   10.30    1.50
  -4  -4   4   10.20    1.20
   3   4  -4  142.49    5.50
   3   4  -4  139.89    6.30
   3   4  -4  124.99    6.10
   3   4  -4  139.29    5.70
   3   4  -4  140.49    6.00
  -3  -4   4  125.39    6.10
  -3  -4   4  123.79    6.20
  -3  -4   4  127.99    5.40
  -3  -4   4  129.19    6.20
  -3  -4   4  132.39    5.80
  -3  -4   4  126.19    6.10
  -3  -4   4  130.09    6.00
  -3  -4   4  138.09    6.10
   2   4  -4  108.79    5.10
   2   4  -4  109.59    5.20
   2   4  -4  115.59    4.90
   2   4  -4  111.59    5.00
   2   4  -4  117.29    4.60
  -2  -4   4  109.59    5.20
  -2  -4   4  107.29    5.20
  -2  -4   4  108.19    5.20
  -2  -4   4  111.59    5.10
  -2  -4   4  115.79    5.00
  -2  -4   4  105.59    5.10
   1   4  -4  269.57   10.40
   1   4  -4  257.17   10.10
   1   4  -4  273.47   10.60
   1   4  -4  262.97   10.70
   1   4  -4  247.48   10.80
  -1  -4   4  266.07   10.70
  -1  -4   4  257.37   10.80
  -1  -4   4  266.57   10.80
  -1  -4   4  273.07   10.70
  -1  -4   4  263.57   10.70
  -1  -4   4  254.77   10.70
   0   4  -4  339.67   13.20
   0   4  -4  331.57   13.60
   0   4  -4  331.97   13.60
   0   4  -4  332.97   13.60
   0   4  -4  348.07   13.50
   0   4  -4  344.87   13.20
   0  -4   4  333.67   13.50
   0  -4   4  342.77   13.40
   0  -4   4  346.77   13.60
   0  -4   4  352.06   13.40
   0  -4   4  345.07   13.50
   0  -4   4  345.27   13.50
   0  -4   4  321.07   13.10
  -1   4  -4  615.94   24.70
  -1   4  -4  616.54   24.50
  -1   4  -4  622.24   24.50
  -1   4  -4  664.83   24.50
  -1   4  -4  643.04   24.60
  -1   4  -4  616.04   24.80
  -1   4  -4  607.04   24.80
   1  -4   4  660.03   24.60
   1  -4   4  603.44   24.40
   1  -4   4  642.04   24.40
   1  -4   4  637.54   24.70
   1  -4   4  659.63   24.60
   1  -4   4  643.74   24.40
  -2   4  -4    7.10    1.10
  -2   4  -4    5.70    1.00
  -2   4  -4    7.20    0.50
  -2   4  -4    7.40    1.00
  -2   4  -4   13.60    1.00
  -2   4  -4    7.90    1.00
   2  -4   4    7.80    1.00
   2  -4   4    7.50    0.90
   2  -4   4    7.60    0.50
   2  -4   4    5.90    0.80
   2  -4   4    7.50    0.90
   2  -4   4    8.50    0.90
  -3   4  -4  168.48    7.50
  -3   4  -4  157.88    7.50
  -3   4  -4  184.68    7.80
  -3   4  -4  165.28    7.80
  -3   4  -4  179.18    7.60
  -3   4  -4  173.28    7.60
   3  -4   4  168.68    7.60
   3  -4   4  176.58    7.20
   3  -4   4  177.58    7.50
   3  -4   4  174.48    7.40
   3  -4   4  182.28    7.70
  -4   4  -4   -0.20    0.60
  -4   4  -4    0.90    0.70
  -4   4  -4    0.10    0.60
  -4   4  -4    0.40    0.60
  -4   4  -4   -0.10    0.50
  -4   4  -4   -0.40    0.50
   4  -4   4    0.40    0.50
   4  -4   4   -0.10    0.70
   4  -4   4    0.00    0.50
   4  -4   4    0.40    0.70
  -5   4  -4    0.10    0.80
  -5   4  -4    0.90    0.90
  -5   4  -4    0.50    0.60
  -5   4  -4   -0.50    0.70
  -5   4  -4    1.30    0.80
   5  -4   4    0.20    0.70
   5  -4   4    0.70    0.90
   5  -4   4    0.40    0.80
   5  -4   4    0.20    0.80
  -6   4  -4    0.50    1.00
  -6   4  -4    0.90    1.00
  -6   4  -4   -0.60    0.80
  -6   4  -4    1.40    1.10
  -6   4  -4   -0.70    0.80
   6  -4   4   -0.20    0.90
   6  -4   4    0.30    0.70
   6  -4   4    0.00    1.10
   6  -4   4    1.10    0.90
  -7   4  -4   -0.40    0.90
  -7   4  -4   -1.80    0.90
  -7   4  -4    1.30    1.30
  -7   4  -4    2.70    1.40
  -7   4  -4    0.00    1.10
   7  -4   4    1.00    1.30
   7  -4   4    0.50    1.10
   7  -4   4   -0.10    1.20
   7  -4   4   -0.70    0.70
  -8   4  -4    4.30    1.80
  -8   4  -4    1.80    1.80
  -8   4  -4    0.20    1.40
   8  -4   4    1.20    1.40
   8  -4   4    1.40    1.50
   9   3  -4    0.50    1.30
   9   3  -4    0.20    1.40
   9   3  -4    0.30    2.00
  -9  -3   4    2.00    1.90
  -9  -3   4   -0.50    1.10
  -9  -3   4   -1.90    1.50
   8   3  -4   13.30    2.00
   8   3  -4   13.60    2.20
   8   3  -4   13.00    2.20
   8   3  -4    9.40    1.80
   8   3  -4   11.50    2.20
  -8  -3   4   15.20    2.50
  -8  -3   4   12.40    2.30
  -8  -3   4   11.40    1.80
  -8  -3   4   14.80    2.60
  -8  -3   4   11.90    1.90
  -8  -3   4    9.50    2.30
   7   3  -4    3.00    1.10
   7   3  -4    2.50    1.30
   7   3  -4    4.50    1.30
   7   3  -4    3.40    1.10
   7   3  -4    4.20    1.40
   7   3  -4    2.10    0.90
  -7  -3   4    4.90    1.20
  -7  -3   4    4.90    1.50
  -7  -3   4    4.90    1.60
  -7  -3   4    2.90    1.00
  -7  -3   4    1.10    0.80
  -7  -3   4    2.80    1.20
  -7  -3   4    2.00    1.30
   6   3  -4    2.40    1.00
   6   3  -4    3.20    1.10
   6   3  -4    3.50    1.10
   6   3  -4    3.80    0.90
   6   3  -4    4.00    1.10
   6   3  -4    2.80    1.00
  -6  -3   4    3.20    1.00
  -6  -3   4    1.80    0.90
  -6  -3   4    2.30    1.00
  -6  -3   4    2.90    1.00
  -6  -3   4    4.00    1.30
  -6  -3   4    4.20    1.00
  -6  -3   4    1.40    1.10
  -6  -3   4    4.20    1.00
   5   3  -4   14.80    1.80
   5   3  -4   15.30    1.80
   5   3  -4   18.40    1.60
   5   3  -4   18.00    1.80
   5   3  -4   16.80    1.60
  -5  -3   4   12.40    1.50
  -5  -3   4   14.20    1.90
  -5  -3   4   12.50    1.30
  -5  -3   4   15.10    1.40
  -5  -3   4   12.50    1.80
  -5  -3   4   15.40    1.60
  -5  -3   4   10.60    1.70
  -5  -3   4   14.90    1.90
  -5  -3   4   15.20    1.60
  -5  -3   4   17.30    1.70
  -5  -3   4   14.80    1.70
   4   3  -4  131.89    5.30
   4   3  -4  126.49    5.50
   4   3  -4  134.29    5.90
   4   3  -4  126.39    6.00
   4   3  -4  134.39    6.20
   4   3  -4  135.09    5.30
   4   3  -4  130.79    5.70
  -4  -3   4  128.69    5.90
  -4  -3   4  116.19    5.70
  -4  -3   4  135.49    5.70
  -4  -3   4  118.39    6.00
  -4  -3   4  117.59    6.00
  -4  -3   4  125.79    5.40
  -4  -3   4  118.59    6.00
  -4  -3   4  124.19    5.30
  -4  -3   4  120.29    5.40
  -4  -3   4  109.99    5.90
  -4  -3   4  132.89    5.80
  -4  -3   4  126.59    5.70
   3   3  -4  659.23   24.40
   3   3  -4  674.03   24.10
   3   3  -4  638.04   25.00
   3   3  -4  645.14   24.80
   3   3  -4  666.83   24.10
   3   3  -4  674.43   24.60
  -3  -3   4  603.64   24.80
  -3  -3   4  663.83   24.60
  -3  -3   4  580.94   24.80
  -3  -3   4  595.54   24.70
  -3  -3   4  611.24   24.10
  -3  -3   4  590.64   24.60
  -3  -3   4  619.94   24.10
  -3  -3   4  591.34   24.80
  -3  -3   4  605.44   24.90
  -3  -3   4  615.34   24.60
   2   3  -4  353.56   14.70
   2   3  -4  383.56   14.40
   2   3  -4  381.56   14.20
   2   3  -4  375.96   13.90
   2   3  -4  379.26   14.50
  -2  -3   4  374.36   14.50
  -2  -3   4  358.36   14.60
  -2  -3   4  348.27   14.50
  -2  -3   4  346.67   14.50
  -2  -3   4  335.17   14.40
  -2  -3   4  361.96   14.50
  -2  -3   4  342.77   14.50
   1   3  -4 1631.54   57.29
   1   3  -4 1406.86   57.39
   1   3  -4 1442.66   56.89
   1   3  -4 1418.66   57.59
   1   3  -4 1615.54   57.39
  -1  -3   4 1495.95   57.39
  -1  -3   4 1474.05   57.39
  -1  -3   4 1543.85   57.39
  -1  -3   4 1468.15   57.39
  -1  -3   4 1477.35   57.39
  -1  -3   4 1524.25   57.49
  -1  -3   4 1496.05   57.49
   0   3  -4   38.00    1.80
   0   3  -4   37.10    1.80
   0   3  -4   39.90    2.00
   0   3  -4   39.00    2.00
   0   3  -4   38.50    2.00
   0  -3   4   39.80    2.00
   0  -3   4   39.70    2.00
   0  -3   4   38.30    1.90
   0  -3   4   39.50    1.90
   0  -3   4   39.30    2.00
   0  -3   4   37.80    1.90
  -1   3  -4   52.19    2.60
  -1   3  -4   51.39    2.40
  -1   3  -4   51.79    2.60
  -1   3  -4   52.19    2.50
  -1   3  -4   48.40    2.50
  -1   3  -4   49.99    2.40
   1  -3   4   53.19    2.30
   1  -3   4   55.49    2.50
   1  -3   4   52.69    2.60
   1  -3   4   50.89    2.40
   1  -3   4   52.89    2.30
   1  -3   4   51.39    2.50
   1  -3   4   49.30    2.50
  -2   3  -4    0.40    0.30
  -2   3  -4    0.50    0.40
  -2   3  -4    0.80    0.40
  -2   3  -4    0.70    0.40
  -2   3  -4    0.70    0.40
  -2   3  -4    0.30    0.40
   2  -3   4    0.80    0.50
   2  -3   4    0.00    0.30
   2  -3   4    0.60    0.20
   2  -3   4    0.20    0.20
   2  -3   4    0.00    0.30
   2  -3   4    1.10    0.40
  -3   3  -4    9.70    1.30
  -3   3  -4   12.20    1.20
  -3   3  -4   12.80    1.40
  -3   3  -4   14.10    1.40
  -3   3  -4   13.70    1.40
  -3   3  -4   13.30    1.40
   3  -3   4   12.00    1.30
   3  -3   4    9.90    1.30
   3  -3   4   12.50    1.40
   3  -3   4   11.10    1.20
  -4   3  -4   68.39    3.80
  -4   3  -4   68.39    3.80
  -4   3  -4   70.49    3.80
  -4   3  -4   66.19    3.90
  -4   3  -4   64.59    3.60
   4  -3   4   74.79    3.80
   4  -3   4   67.29    3.60
   4  -3   4   75.39    4.00
   4  -3   4   70.69    4.00
  -5   3  -4   44.00    3.10
  -5   3  -4   51.29    3.20
  -5   3  -4   45.30    2.90
  -5   3  -4   45.90    3.00
  -5   3  -4   46.90    3.20
   5  -3   4   47.00    3.20
   5  -3   4   50.79    3.30
   5  -3   4   52.79    3.20
   5  -3   4   47.90    3.00
  -6   3  -4   32.50    3.00
  -6   3  -4   37.10    2.80
  -6   3  -4   32.20    2.80
  -6   3  -4   31.50    2.80
  -6   3  -4   30.50    3.10
   6  -3   4   36.40    3.00
   6  -3   4   37.00    2.90
   6  -3   4   38.30    2.80
   6  -3   4   40.70    3.20
  -7   3  -4    6.10    1.80
  -7   3  -4    8.20    1.80
  -7   3  -4    8.60    1.80
  -7   3  -4    9.10    1.90
   7  -3   4   11.00    2.00
   7  -3   4   11.70    2.10
   7  -3   4    7.90    1.60
   7  -3   4    7.20    1.80
  -8   3  -4    0.50    1.60
  -8   3  -4    1.10    1.40
  -8   3  -4    0.00    1.30
   8  -3   4    0.60    1.50
   8  -3   4   -0.10    1.30
   8  -3   4   -0.70    1.20
   8   2  -4    0.80    1.10
   8   2  -4    0.10    1.00
   8   2  -4    0.10    1.20
   8   2  -4    0.50    1.10
  -8  -2   4   -0.70    1.30
  -8  -2   4    1.10    1.40
  -8  -2   4    1.10    1.10
  -8  -2   4    0.90    0.90
  -8  -2   4    1.40    1.00
   7   2  -4   17.10    2.10
   7   2  -4   14.60    2.10
   7   2  -4   16.60    2.20
   7   2  -4   18.20    2.20
   7   2  -4   12.40    2.00
   7   2  -4   13.80    1.90
   7   2  -4   16.80    2.10
   7   2  -4   17.50    2.20
  -7  -2   4   16.30    1.90
  -7  -2   4   18.70    2.10
  -7  -2   4   13.70    1.80
  -7  -2   4   16.60    2.20
  -7  -2   4   13.10    2.10
  -7  -2   4   16.40    2.30
  -7  -2   4   15.80    1.90
  -7  -2   4   15.10    2.30
   6   2  -4    3.60    1.00
   6   2  -4    2.10    0.90
   6   2  -4    4.10    1.10
   6   2  -4    4.00    0.80
   6   2  -4    4.20    0.90
   6   2  -4    3.60    1.10
   6   2  -4    3.60    1.30
   6   2  -4    3.50    1.00
   6   2  -4    2.50    1.00
   6   2  -4    3.20    0.80
  -6  -2   4    3.30    0.90
  -6  -2   4    3.00    0.90
  -6  -2   4    4.60    1.00
  -6  -2   4    3.50    1.00
  -6  -2   4    3.50    1.00
  -6  -2   4    2.10    1.00
  -6  -2   4    3.40    1.10
  -6  -2   4    2.50    1.10
  -6  -2   4    1.40    0.90
  -6  -2   4    1.90    0.90
  -6  -2   4    4.80    1.00
  -6  -2   4    3.50    1.00
   5   2  -4  161.38    7.00
   5   2  -4  131.69    6.90
   5   2  -4  165.38    7.20
   5   2  -4  158.08    6.60
   5   2  -4  156.88    7.30
   5   2  -4  161.98    6.90
   5   2  -4  165.38    6.60
   5   2  -4  160.88    6.60
  -5  -2   4  150.28    7.20
  -5  -2   4  150.68    6.70
  -5  -2   4  152.28    6.90
  -5  -2   4  151.88    7.00
  -5  -2   4  139.99    7.20
  -5  -2   4  155.08    7.00
  -5  -2   4  157.48    7.10
  -5  -2   4  153.08    6.70
  -5  -2   4  140.79    7.20
  -5  -2   4  159.18    6.70
  -5  -2   4  154.78    7.30
  -5  -2   4  145.09    6.90
   4   2  -4   43.20    2.70
   4   2  -4   46.00    2.60
   4   2  -4   49.70    2.30
   4   2  -4   45.80    2.30
   4   2  -4   47.80    2.90
   4   2  -4   47.30    2.60
   4   2  -4   48.60    2.30
  -4  -2   4   45.90    2.40
  -4  -2   4   45.60    2.60
  -4  -2   4   44.60    2.30
  -4  -2   4   47.40    2.70
  -4  -2   4   43.00    2.80
  -4  -2   4   44.40    2.80
  -4  -2   4   44.00    2.70
  -4  -2   4   44.80    2.30
  -4  -2   4   49.50    2.70
  -4  -2   4   43.40    2.70
  -4  -2   4   43.90    2.60
  -4  -2   4   46.50    2.70
   3   2  -4    3.20    0.80
   3   2  -4    2.90    0.40
   3   2  -4    2.00    0.40
   3   2  -4    1.50    0.50
   3   2  -4    2.20    0.40
   3   2  -4    2.80    0.70
   3   2  -4    2.00    0.50
  -3  -2   4    3.20    0.70
  -3  -2   4    3.20    0.70
  -3  -2   4    2.90    0.60
  -3  -2   4    2.60    0.70
  -3  -2   4    2.20    0.60
  -3  -2   4    2.80    0.60
  -3  -2   4    2.80    0.60
  -3  -2   4    1.70    0.40
  -3  -2   4    3.50    0.70
  -3  -2   4    2.40    0.50
  -3  -2   4    2.20    0.60
   2   2  -4  179.88    6.70
   2   2  -4  173.58    6.70
   2   2  -4  161.98    7.10
   2   2  -4  166.68    7.20
   2   2  -4  179.68    7.00
  -2  -2   4  158.68    7.00
  -2  -2   4  171.48    7.20
  -2  -2   4  175.88    7.20
  -2  -2   4  165.98    7.20
  -2  -2   4  167.68    7.10
  -2  -2   4  174.78    7.10
  -2  -2   4  172.98    7.10
  -2  -2   4  160.98    7.10
   1   2  -4  356.86   14.20
   1   2  -4  363.66   13.90
   1   2  -4  354.46   13.90
   1   2  -4  346.07   14.30
   1   2  -4  377.66   14.10
  -1  -2   4  365.76   14.10
  -1  -2   4  358.16   14.20
  -1  -2   4  352.66   14.20
  -1  -2   4  370.26   14.30
  -1  -2   4  353.46   14.30
  -1  -2   4  352.26   14.10
  -1  -2   4  369.56   14.00
   0   2  -4    0.00    0.10
   0   2  -4    0.00    0.20
   0   2  -4    0.10    0.10
   0   2  -4    0.00    0.10
   0   2  -4    0.40    0.20
   0  -2   4    0.20    0.20
   0  -2   4    0.10    0.20
   0  -2   4    0.00    0.20
   0  -2   4    0.10    0.20
   0  -2   4    0.00    0.10
   0  -2   4    0.30    0.20
   0  -2   4    0.10    0.20
  -1   2  -4  101.49    4.40
  -1   2  -4  109.09    4.50
  -1   2  -4  100.59    4.40
  -1   2  -4  104.49    4.30
  -1   2  -4   99.49    4.40
  -1   2  -4  103.39    4.30
   1  -2   4  109.09    4.30
   1  -2   4   97.09    4.40
   1  -2   4  106.49    4.30
   1  -2   4  102.49    4.40
   1  -2   4   99.89    4.50
   1  -2   4   94.09    4.40
  -2   2  -4  123.09    5.30
  -2   2  -4  117.89    5.10
  -2   2  -4  120.89    5.30
  -2   2  -4  129.09    5.40
  -2   2  -4  115.89    5.40
  -2   2  -4  118.09    5.30
   2  -2   4  123.29    5.40
   2  -2   4  118.09    5.50
   2  -2   4  126.89    5.40
   2  -2   4  130.39    5.00
   2  -2   4  127.49    5.10
   2  -2   4  120.69    5.50
  -3   2  -4   97.79    4.60
  -3   2  -4  112.39    5.60
  -3   2  -4  108.89    5.10
  -3   2  -4  108.69    5.60
  -3   2  -4  107.79    5.00
  -3   2  -4  107.59    5.00
  -3   2  -4  110.89    5.00
  -3   2  -4  108.39    5.10
   3  -2   4  104.89    5.10
   3  -2   4  106.39    5.20
   3  -2   4  115.69    4.60
   3  -2   4  111.19    5.10
   3  -2   4  116.19    5.20
   3  -2   4  108.69    4.40
  -4   2  -4   13.50    2.00
  -4   2  -4   13.40    1.60
  -4   2  -4   12.30    1.50
  -4   2  -4   12.40    1.60
  -4   2  -4   14.80    1.60
  -4   2  -4   16.00    1.70
  -4   2  -4   14.00    2.00
   4  -2   4   12.80    1.70
   4  -2   4   16.50    1.70
   4  -2   4   16.10    1.70
   4  -2   4   14.20    1.70
  -5   2  -4   16.30    2.30
  -5   2  -4   10.60    1.60
  -5   2  -4   12.40    2.00
  -5   2  -4   11.40    1.50
  -5   2  -4   12.20    1.70
  -5   2  -4   13.20    1.70
  -5   2  -4   12.70    1.70
   5  -2   4   14.00    1.90
   5  -2   4   15.20    1.90
   5  -2   4   11.50    1.70
   5  -2   4   13.10    1.70
  -6   2  -4    0.10    1.10
  -6   2  -4   -0.20    0.80
  -6   2  -4    0.00    1.30
  -6   2  -4   -0.10    0.80
  -6   2  -4   -0.50    0.80
  -6   2  -4   -0.10    0.80
   6  -2   4    0.70    1.20
   6  -2   4    0.00    1.00
   6  -2   4   -0.90    1.00
  -7   2  -4   -0.20    1.40
  -7   2  -4    0.50    0.80
  -7   2  -4   -0.40    0.90
  -7   2  -4    0.90    1.30
  -7   2  -4    0.80    1.00
  -7   2  -4    0.80    1.40
   7  -2   4    0.10    1.30
   7  -2   4   -0.70    1.10
   7  -2   4    0.10    1.30
  -8   2  -4    1.60    1.70
  -8   2  -4    1.20    1.40
  -8   2  -4    1.50    1.90
  -8   2  -4    0.90    1.60
   8  -2   4    0.50    1.40
   8  -2   4    0.00    1.40
   8  -2   4    0.90    1.50
  -8  -1   4   -1.00    1.10
  -8  -1   4   -1.10    1.20
  -8  -1   4    0.10    1.60
   7   1  -4    8.70    1.60
   7   1  -4    9.60    1.40
   7   1  -4   10.10    1.60
   7   1  -4    6.70    1.30
   7   1  -4    9.40    1.70
   7   1  -4    6.70    1.30
   7   1  -4    6.30    1.20
   7   1  -4    5.50    1.40
   7   1  -4    5.00    1.30
   7   1  -4    9.10    1.70
   7   1  -4    6.50    1.10
   7   1  -4    6.30    1.30
  -7  -1   4    8.20    1.50
  -7  -1   4    7.70    1.60
  -7  -1   4    6.00    1.20
  -7  -1   4    4.00    1.40
  -7  -1   4    6.60    1.50
  -7  -1   4    5.20    1.40
  -7  -1   4    7.30    1.30
  -7  -1   4    5.20    1.20
  -7  -1   4    5.00    1.40
  -7  -1   4    6.80    1.30
  -7  -1   4    7.10    1.30
  -7  -1   4   10.10    1.60
   6   1  -4    1.90    1.00
   6   1  -4    2.40    0.90
   6   1  -4    2.60    1.00
   6   1  -4    3.00    1.00
   6   1  -4    4.80    1.10
   6   1  -4    2.80    0.90
   6   1  -4    2.50    1.00
   6   1  -4    4.40    0.80
   6   1  -4    3.30    1.00
   6   1  -4    3.50    0.90
   6   1  -4    2.50    0.80
  -6  -1   4    1.50    0.90
  -6  -1   4    1.50    1.00
  -6  -1   4    2.60    0.90
  -6  -1   4    2.30    0.90
  -6  -1   4    1.90    1.00
  -6  -1   4    2.00    0.90
  -6  -1   4    2.90    1.00
  -6  -1   4    3.20    0.90
  -6  -1   4    1.80    0.90
  -6  -1   4    2.50    1.00
  -6  -1   4    4.00    0.90
  -6  -1   4    2.50    0.80
   5   1  -4   56.49    3.10
   5   1  -4   59.19    3.30
   5   1  -4   52.59    3.30
   5   1  -4   59.09    2.90
   5   1  -4   61.19    2.90
   5   1  -4   57.39    3.00
   5   1  -4   60.59    3.30
   5   1  -4   55.89    3.30
  -5  -1   4   63.79    3.50
  -5  -1   4   60.39    3.10
  -5  -1   4   51.89    3.20
  -5  -1   4   55.09    3.40
  -5  -1   4   57.39    3.00
  -5  -1   4   56.09    3.30
  -5  -1   4   52.49    3.30
  -5  -1   4   54.69    3.30
  -5  -1   4   57.19    3.10
  -5  -1   4   54.59    3.30
  -5  -1   4   54.09    3.10
  -5  -1   4   60.49    3.10
   4   1  -4   49.20    2.90
   4   1  -4   51.79    2.50
   4   1  -4   53.29    2.40
   4   1  -4   48.50    2.80
   4   1  -4   48.30    2.70
   4   1  -4   44.90    2.50
   4   1  -4   52.09    2.50
  -4  -1   4   48.60    2.90
  -4  -1   4   45.40    2.80
  -4  -1   4   52.09    2.80
  -4  -1   4   47.10    2.70
  -4  -1   4   45.70    2.80
  -4  -1   4   48.40    2.70
  -4  -1   4   50.09    2.70
  -4  -1   4   49.50    2.90
  -4  -1   4   48.30    2.60
  -4  -1   4   50.39    2.50
  -4  -1   4   46.20    2.70
  -4  -1   4   53.79    2.60
   3   1  -4   77.49    3.30
   3   1  -4   76.89    3.80
   3   1  -4   76.89    3.30
   3   1  -4   74.99    3.60
   3   1  -4   74.09    3.70
   3   1  -4   77.39    3.20
  -3  -1   4   71.19    3.40
  -3  -1   4   77.39    3.60
  -3  -1   4   80.29    3.70
  -3  -1   4   74.69    3.60
  -3  -1   4   71.39    3.70
  -3  -1   4   69.09    3.50
  -3  -1   4   76.69    3.60
  -3  -1   4   74.39    3.30
  -3  -1   4   74.19    3.40
  -3  -1   4   73.99    3.70
  -3  -1   4   70.29    3.60
   2   1  -4  112.19    4.30
   2   1  -4  103.99    4.80
   2   1  -4  108.39    4.50
   2   1  -4  109.49    4.30
   2   1  -4  107.69    4.60
  -2  -1   4  103.29    4.60
  -2  -1   4   94.99    4.30
  -2  -1   4  102.79    4.60
  -2  -1   4   93.89    4.60
  -2  -1   4   95.99    4.30
  -2  -1   4  104.29    4.60
  -2  -1   4  110.59    4.70
  -2  -1   4  107.79    4.50
  -2  -1   4   99.79    4.50
   1   1  -4  101.69    4.40
   1   1  -4  102.69    4.10
   1   1  -4  102.69    4.20
   1   1  -4  105.59    4.30
   1   1  -4   94.29    4.50
  -1  -1   4   99.99    4.40
  -1  -1   4  102.59    4.10
  -1  -1   4  107.89    4.40
  -1  -1   4   97.39    4.20
  -1  -1   4   98.89    4.40
  -1  -1   4  103.39    4.40
  -1  -1   4  100.89    4.00
   0   1  -4  441.46   17.80
   0   1  -4  471.75   17.80
   0   1  -4  455.05   17.60
   0   1  -4  481.45   17.80
   0   1  -4  464.25   17.70
   0   1  -4  444.26   17.70
   0  -1   4  460.65   17.90
   0  -1   4  447.76   17.70
   0  -1   4  459.15   17.70
   0  -1   4  458.85   17.80
   0  -1   4  449.06   17.80
   0  -1   4  469.95   17.90
   0  -1   4  449.16   17.70
  -1   1  -4  103.99    4.10
  -1   1  -4   98.19    4.60
  -1   1  -4  101.89    4.20
  -1   1  -4  100.09    4.30
  -1   1  -4  101.39    4.30
  -1   1  -4  103.09    4.20
  -1   1  -4  102.69    4.30
   1  -1   4   94.39    4.30
   1  -1   4   96.89    4.40
   1  -1   4  101.49    4.50
   1  -1   4   98.49    4.30
   1  -1   4   89.19    4.30
   1  -1   4  103.89    4.30
  -2   1  -4    7.30    0.90
  -2   1  -4    6.80    1.10
  -2   1  -4    7.90    0.90
  -2   1  -4    9.50    1.00
  -2   1  -4    7.60    0.90
  -2   1  -4    6.80    1.10
  -2   1  -4    7.60    0.80
   2  -1   4    7.10    1.00
   2  -1   4    8.00    0.80
   2  -1   4    6.80    1.00
   2  -1   4    7.20    0.80
   2  -1   4    7.00    0.90
   2  -1   4    7.00    1.00
  -3   1  -4  112.19    5.20
  -3   1  -4  120.09    5.40
  -3   1  -4  121.29    6.00
  -3   1  -4  116.59    5.40
  -3   1  -4  120.89    5.30
  -3   1  -4  124.19    5.40
  -3   1  -4  120.89    6.00
   3  -1   4  118.59    5.20
   3  -1   4  110.99    5.40
   3  -1   4  121.09    5.60
   3  -1   4  113.79    5.60
   3  -1   4  119.49    5.60
   3  -1   4  114.29    5.10
  -4   1  -4   77.29    3.90
  -4   1  -4   70.59    3.80
  -4   1  -4   65.79    3.60
  -4   1  -4   76.39    4.60
  -4   1  -4   75.09    3.80
  -4   1  -4   74.29    4.50
  -4   1  -4   69.89    3.80
   4  -1   4   73.09    4.20
   4  -1   4   72.79    4.10
   4  -1   4   76.19    4.10
   4  -1   4   66.49    3.90
   4  -1   4   74.99    4.10
  -5   1  -4    5.60    1.10
  -5   1  -4    6.00    1.30
  -5   1  -4    6.20    1.60
  -5   1  -4    6.50    1.20
  -5   1  -4    4.50    1.10
  -5   1  -4    2.00    1.00
   5  -1   4    6.30    1.50
   5  -1   4    3.20    1.20
   5  -1   4    5.80    1.40
   5  -1   4    4.30    1.30
  -6   1  -4    0.50    0.80
  -6   1  -4    1.10    0.90
  -6   1  -4   -0.40    1.10
  -6   1  -4   -0.70    1.20
  -6   1  -4   -0.10    0.80
  -6   1  -4   -1.10    0.70
   6  -1   4    0.60    1.20
   6  -1   4   -0.40    0.90
   6  -1   4    0.10    1.00
   6  -1   4    0.00    1.20
  -7   1  -4    0.20    1.00
  -7   1  -4   -0.80    0.90
  -7   1  -4    0.60    1.20
  -7   1  -4    0.20    1.40
  -7   1  -4    0.30    1.70
  -7   1  -4    1.90    1.10
   7  -1   4   -0.40    1.20
   7  -1   4   -0.10    1.30
   7  -1   4    1.30    1.40
  -8   1  -4   11.50    2.30
  -8   1  -4   11.50    2.40
  -8   1  -4   12.40    3.00
   8  -1   4    9.50    2.20
   8  -1   4   11.00    2.40
   9   0  -4    2.40    1.40
  -9   0   4    2.60    1.80
  -9   0   4    2.50    1.30
   8   0  -4    2.60    1.00
   8   0  -4   -1.00    1.30
   8   0  -4    0.90    0.90
   8   0  -4    0.10    0.80
   8   0  -4    1.90    1.00
   8   0  -4    0.80    1.20
  -8   0   4    0.60    1.00
  -8   0   4    0.70    1.10
  -8   0   4   -0.60    1.00
  -8   0   4    0.30    0.90
  -8   0   4    1.60    1.10
  -8   0   4    1.90    1.10
   7   0  -4   -0.30    0.80
   7   0  -4    1.60    0.90
   7   0  -4   -1.70    0.90
   7   0  -4    0.10    0.60
   7   0  -4    0.10    0.70
   7   0  -4    0.60    0.70
   7   0  -4    0.00    0.60
   7   0  -4   -1.30    0.80
  -7   0   4   -0.20    0.90
  -7   0   4    1.40    0.90
  -7   0   4    0.00    1.20
  -7   0   4    0.10    0.80
  -7   0   4    1.60    0.80
  -7   0   4    0.90    0.80
  -7   0   4   -0.70    0.80
  -7   0   4    0.30    1.00
  -7   0   4    0.80    0.70
   6   0  -4    6.90    1.30
   6   0  -4    6.30    1.10
   6   0  -4    6.30    1.00
   6   0  -4    7.20    1.10
   6   0  -4    6.10    1.30
   6   0  -4    6.40    1.00
   6   0  -4    6.30    1.20
   6   0  -4    4.70    1.00
   6   0  -4    5.90    1.20
  -6   0   4    6.70    1.40
  -6   0   4    6.60    1.40
  -6   0   4    6.40    1.10
  -6   0   4    4.50    1.10
  -6   0   4    6.10    1.20
  -6   0   4    3.60    1.10
  -6   0   4    5.70    1.10
  -6   0   4    5.10    1.20
  -6   0   4    6.90    1.10
  -6   0   4    7.40    1.20
  -6   0   4    6.50    1.20
  -6   0   4    3.80    1.20
   5   0  -4   16.70    1.40
   5   0  -4   15.90    1.30
   5   0  -4   16.50    1.80
   5   0  -4   17.60    1.70
   5   0  -4   20.80    1.40
   5   0  -4   19.30    1.50
   5   0  -4   12.00    1.60
  -5   0   4   19.40    1.60
  -5   0   4   17.20    1.80
  -5   0   4   20.80    1.60
  -5   0   4   18.30    1.70
  -5   0   4   14.70    1.80
  -5   0   4   18.60    1.80
  -5   0   4   20.00    1.60
  -5   0   4   17.90    1.40
  -5   0   4   15.80    1.60
  -5   0   4   16.20    1.90
  -5   0   4   15.20    1.70
  -5   0   4   16.60    1.60
   4   0  -4  233.68    9.00
   4   0  -4  207.18    9.00
   4   0  -4  237.68    9.20
   4   0  -4  218.08    9.50
   4   0  -4  246.18    9.20
   4   0  -4  204.68    9.00
   4   0  -4  227.18    9.50
  -4   0   4  219.68    9.60
  -4   0   4  225.28    9.20
  -4   0   4  198.38    9.20
  -4   0   4  208.88    9.20
  -4   0   4  217.88    9.20
  -4   0   4  230.88    9.20
  -4   0   4  230.08    9.40
  -4   0   4  218.78    9.30
  -4   0   4  220.68    9.60
  -4   0   4  219.78    9.30
  -4   0   4  230.68    9.30
  -4   0   4  220.88    9.60
   3   0  -4    0.30    0.20
   3   0  -4   -0.30    0.30
   3   0  -4    0.30    0.40
   3   0  -4    0.50    0.20
   3   0  -4    0.50    0.30
   3   0  -4    0.40    0.30
  -3   0   4    0.00    0.30
  -3   0   4   -0.30    0.40
  -3   0   4   -0.10    0.20
  -3   0   4    0.40    0.30
  -3   0   4    0.00    0.30
  -3   0   4   -0.30    0.20
  -3   0   4    0.10    0.30
  -3   0   4    0.40    0.40
  -3   0   4   -0.10    0.20
  -3   0   4    0.40    0.30
  -3   0   4    0.10    0.40
   2   0  -4  539.45   19.70
   2   0  -4  483.75   19.90
   2   0  -4  497.95   19.30
   2   0  -4  528.45   19.60
   2   0  -4  462.35   19.30
   2   0  -4  516.25   19.90
   2   0  -4  542.25   19.50
  -2   0   4  514.85   20.00
  -2   0   4  501.95   20.00
  -2   0   4  465.95   19.80
  -2   0   4  543.95   19.60
  -2   0   4  484.25   19.90
  -2   0   4  505.95   19.80
  -2   0   4  499.85   19.90
   1   0  -4  116.69    4.50
   1   0  -4  103.69    4.70
   1   0  -4  112.69    4.40
   1   0  -4  109.19    4.50
   1   0  -4  109.39    4.60
  -1   0   4  111.29    4.80
  -1   0   4  105.69    4.40
  -1   0   4  100.79    4.60
  -1   0   4  107.29    4.70
  -1   0   4  107.39    4.70
  -1   0   4  111.29    4.80
   0   0  -4  154.28    6.40
   0   0  -4  152.68    6.30
   0   0  -4  162.38    6.30
   0   0  -4  154.28    6.30
   0   0  -4  148.09    6.40
   0   0  -4  159.38    6.30
   0   0  -4  158.38    6.20
   0   0  -4  160.18    6.30
   0   0   4  163.58    6.30
   0   0   4  149.69    6.40
   0   0   4  150.88    6.20
   0   0   4  148.59    6.50
   0   0   4  143.09    6.20
   0   0   4  153.28    6.50
   0   0   4  150.48    6.30
   0   0   4  167.08    6.30
  -1   0  -4   52.59    2.20
  -1   0  -4   52.09    2.40
  -1   0  -4   47.60    2.40
  -1   0  -4   47.60    2.60
  -1   0  -4   49.00    2.70
  -1   0  -4   47.50    2.40
  -1   0  -4   51.09    2.40
   1   0   4   49.60    2.50
   1   0   4   45.90    2.50
   1   0   4   47.60    2.50
   1   0   4   49.90    2.50
   1   0   4   48.50    2.70
   1   0   4   49.60    2.50
  -2   0  -4  125.49    5.30
  -2   0  -4  133.79    6.10
  -2   0  -4  128.99    5.50
  -2   0  -4  132.19    5.60
  -2   0  -4  130.99    5.50
  -2   0  -4  122.09    5.50
  -2   0  -4  131.99    6.10
   2   0   4  129.79    5.90
   2   0   4  125.99    5.80
   2   0   4  131.89    5.60
   2   0   4  129.69    5.60
   2   0   4  127.59    5.80
   2   0   4  117.89    5.70
  -3   0  -4    8.20    1.30
  -3   0  -4    8.90    1.10
  -3   0  -4    8.60    1.10
  -3   0  -4    6.90    0.90
  -3   0  -4    8.00    1.00
  -3   0  -4    9.80    1.10
  -3   0  -4    7.70    1.30
   3   0   4   10.40    1.40
   3   0   4    8.40    1.10
   3   0   4    9.30    1.30
   3   0   4    9.40    1.20
   3   0   4   11.30    1.40
   3   0   4    5.60    1.00
  -4   0  -4   27.90    2.00
  -4   0  -4   30.70    2.20
  -4   0  -4   38.90    2.90
  -4   0  -4   29.50    2.10
  -4   0  -4   33.90    3.10
  -4   0  -4   29.40    2.60
  -4   0  -4   29.50    2.10
   4   0   4   31.10    2.20
   4   0   4   30.80    2.50
   4   0   4   29.40    2.40
   4   0   4   32.50    2.40
   4   0   4   28.50    2.40
   4   0   4   33.60    2.20
  -5   0  -4    6.60    1.30
  -5   0  -4    8.60    1.80
  -5   0  -4    7.30    1.70
  -5   0  -4    6.40    1.20
  -5   0  -4    9.10    1.90
  -5   0  -4    8.90    1.40
  -5   0  -4    7.20    1.40
   5   0   4    7.40    1.50
   5   0   4    5.80    1.50
   5   0   4    9.00    1.60
   5   0   4    6.90    1.50
  -6   0  -4   17.30    2.30
  -6   0  -4   18.90    2.10
  -6   0  -4   16.50    2.10
  -6   0  -4   16.30    2.70
  -6   0  -4   17.20    2.10
  -6   0  -4   17.40    2.70
   6   0   4   16.50    2.30
   6   0   4   13.50    2.10
   6   0   4   13.00    2.20
   6   0   4   12.90    2.20
  -7   0  -4    9.90    1.90
  -7   0  -4    7.90    1.60
  -7   0  -4    7.50    2.20
  -7   0  -4    8.50    2.40
  -7   0  -4    9.60    2.10
   7   0   4    7.60    1.90
   7   0   4    6.30    1.80
   7   0   4    8.60    2.20
   7   0   4    5.50    1.80
  -8   0  -4    2.20    2.20
  -8   0  -4    1.90    1.80
  -8   0  -4    2.70    1.50
   8   0   4    2.30    1.80
   8   0   4    1.90    1.70
   9  -1  -4   -0.30    1.00
   9  -1  -4    0.80    1.20
   9  -1  -4    0.50    1.30
   9  -1  -4    0.50    1.10
   9  -1  -4    0.60    0.90
  -9   1   4    1.40    1.30
  -9   1   4    0.50    1.30
  -9   1   4    0.00    1.20
  -9   1   4   -0.50    1.60
  -9   1   4    0.20    1.40
   8  -1  -4    2.80    1.40
   8  -1  -4    2.70    1.10
   8  -1  -4    1.70    1.20
   8  -1  -4    2.80    1.00
   8  -1  -4    2.70    1.10
  -8   1   4    0.30    1.30
  -8   1   4    3.90    1.30
  -8   1   4    5.90    1.50
  -8   1   4    4.70    1.60
  -8   1   4    2.70    1.30
  -8   1   4    4.10    1.30
   7  -1  -4    2.40    1.30
   7  -1  -4    2.40    1.10
   7  -1  -4    3.80    1.00
   7  -1  -4    3.80    1.00
   7  -1  -4    6.10    1.10
  -7   1   4    4.00    1.40
  -7   1   4    5.70    1.30
  -7   1   4    4.50    1.40
  -7   1   4    6.10    1.30
  -7   1   4    3.20    1.20
  -7   1   4    6.70    1.40
   6  -1  -4   30.50    2.00
   6  -1  -4   25.90    2.00
   6  -1  -4   26.60    2.50
   6  -1  -4   24.60    1.90
   6  -1  -4   26.00    2.00
  -6   1   4   26.00    2.10
  -6   1   4   25.20    2.10
  -6   1   4   28.50    2.30
  -6   1   4   30.20    2.90
  -6   1   4   28.10    2.20
  -6   1   4   24.50    2.60
  -6   1   4   27.60    2.00
  -6   1   4   29.80    2.50
  -6   1   4   26.10    2.00
   5  -1  -4    0.50    0.40
   5  -1  -4    0.00    0.40
   5  -1  -4    0.00    0.40
   5  -1  -4   -0.40    0.50
   5  -1  -4    0.10    0.40
   5  -1  -4    0.10    0.40
  -5   1   4    0.00    0.50
  -5   1   4    0.10    0.50
  -5   1   4   -0.10    0.50
  -5   1   4   -1.10    0.50
  -5   1   4   -0.20    0.50
  -5   1   4    0.10    0.50
  -5   1   4    0.10    0.70
  -5   1   4   -0.10    0.60
  -5   1   4    0.30    0.50
  -5   1   4   -0.10    0.50
  -5   1   4    1.10    0.60
  -5   1   4    0.20    0.50
   4  -1  -4    4.30    0.70
   4  -1  -4    3.20    0.70
   4  -1  -4    3.50    0.70
   4  -1  -4    3.50    0.60
   4  -1  -4    4.00    0.90
   4  -1  -4    4.30    0.60
  -4   1   4    3.30    0.70
  -4   1   4    4.20    0.70
  -4   1   4    3.20    0.70
  -4   1   4    1.90    0.80
  -4   1   4    3.80    0.70
  -4   1   4    4.30    0.80
  -4   1   4    3.10    0.70
  -4   1   4    3.60    0.70
  -4   1   4    2.30    0.70
  -4   1   4    3.30    0.70
  -4   1   4    3.20    0.90
   3  -1  -4   30.80    1.50
   3  -1  -4   26.90    1.80
   3  -1  -4   28.90    1.60
   3  -1  -4   31.60    1.70
   3  -1  -4   28.30    1.40
  -3   1   4   26.50    1.70
  -3   1   4   29.00    2.00
  -3   1   4   29.10    1.50
  -3   1   4   28.70    1.80
  -3   1   4   29.20    2.00
  -3   1   4   28.40    1.70
  -3   1   4   28.30    1.60
  -3   1   4   25.00    1.90
   2  -1  -4    1.30    0.50
   2  -1  -4    1.00    0.30
   2  -1  -4    1.10    0.30
   2  -1  -4    1.40    0.20
   2  -1  -4    1.30    0.50
   2  -1  -4    1.60    0.30
  -2   1   4    1.00    0.40
  -2   1   4    1.00    0.30
  -2   1   4    1.50    0.40
  -2   1   4    1.40    0.50
  -2   1   4    1.10    0.30
  -2   1   4    0.90    0.40
  -2   1   4    1.40    0.40
   1  -1  -4  160.58    6.60
   1  -1  -4  156.48    6.70
   1  -1  -4  162.78    6.30
   1  -1  -4  148.79    6.70
   1  -1  -4  164.98    6.60
   1  -1  -4  170.38    6.50
  -1   1   4  158.78    6.80
  -1   1   4  161.78    6.70
  -1   1   4  161.48    6.40
  -1   1   4  162.08    6.90
  -1   1   4  151.78    6.70
  -1   1   4  170.08    6.80
  -1   1   4  155.08    6.70
   0  -1  -4  820.22   31.80
   0  -1  -4  836.22   31.80
   0  -1  -4  835.72   31.80
   0  -1  -4  822.32   31.80
   0  -1  -4  857.71   31.90
   0  -1  -4  815.62   31.90
   0  -1  -4  802.92   31.80
   0   1   4  807.42   32.10
   0   1   4  855.01   31.90
   0   1   4  818.52   31.80
   0   1   4  810.12   31.80
   0   1   4  868.91   32.20
   0   1   4  785.52   31.80
   0   1   4  847.32   32.10
  -1  -1  -4    3.60    0.40
  -1  -1  -4    4.20    0.60
  -1  -1  -4    3.80    0.50
  -1  -1  -4    3.80    0.70
  -1  -1  -4    4.00    0.70
  -1  -1  -4    3.90    0.60
  -1  -1  -4    2.80    0.50
   1   1   4    3.10    0.70
   1   1   4    2.60    0.60
   1   1   4    1.70    0.60
   1   1   4    4.10    0.70
   1   1   4    2.30    0.60
   1   1   4    2.90    0.70
  -2  -1  -4   13.10    1.20
  -2  -1  -4   13.60    1.50
  -2  -1  -4   11.80    1.50
  -2  -1  -4   12.20    0.80
  -2  -1  -4   11.80    1.00
  -2  -1  -4   12.10    1.20
  -2  -1  -4   12.60    1.00
  -2  -1  -4   12.20    1.50
   2   1   4   11.80    1.40
   2   1   4   11.70    1.30
   2   1   4   13.90    1.50
   2   1   4   12.40    1.40
   2   1   4   12.00    1.40
   2   1   4   11.90    1.40
  -3  -1  -4   64.89    3.20
  -3  -1  -4   58.29    2.90
  -3  -1  -4   59.99    3.00
  -3  -1  -4   52.69    3.50
  -3  -1  -4   53.29    3.60
  -3  -1  -4   51.89    3.50
  -3  -1  -4   58.19    3.00
   3   1   4   57.49    3.50
   3   1   4   56.49    3.20
   3   1   4   57.09    3.40
   3   1   4   58.79    3.20
   3   1   4   55.89    3.30
   3   1   4   49.30    3.20
  -4  -1  -4   31.90    2.10
  -4  -1  -4   34.00    2.70
  -4  -1  -4   37.60    3.00
  -4  -1  -4   32.50    2.20
  -4  -1  -4   34.30    2.20
  -4  -1  -4   32.40    2.30
  -4  -1  -4   35.00    2.90
   4   1   4   32.70    2.60
   4   1   4   29.80    2.30
   4   1   4   27.90    2.80
   4   1   4   31.40    2.60
   4   1   4   35.30    2.40
   4   1   4   29.20    2.50
  -5  -1  -4   -0.30    1.10
  -5  -1  -4    0.20    0.70
  -5  -1  -4    0.40    1.00
  -5  -1  -4    0.40    0.70
  -5  -1  -4   -0.60    0.60
  -5  -1  -4   -0.70    0.60
  -5  -1  -4   -1.70    0.60
   5   1   4   -0.90    0.90
   5   1   4   -0.90    0.90
   5   1   4    0.30    0.80
   5   1   4    0.50    0.80
   5   1   4   -0.40    0.90
  -6  -1  -4   -1.00    0.70
  -6  -1  -4    1.10    0.80
  -6  -1  -4   -0.20    1.10
  -6  -1  -4   -1.40    0.80
  -6  -1  -4    2.70    1.60
  -6  -1  -4   -0.60    1.10
   6   1   4    1.70    1.30
   6   1   4   -0.80    1.10
   6   1   4    1.00    1.10
   6   1   4    2.40    1.30
  -7  -1  -4    5.80    1.50
  -7  -1  -4    4.60    2.00
  -7  -1  -4    1.90    1.60
  -7  -1  -4    4.40    1.50
  -7  -1  -4    0.00    1.30
  -7  -1  -4    1.90    2.00
   7   1   4    5.60    1.90
   7   1   4    4.40    1.70
   7   1   4    4.70    1.80
   7   1   4    3.00    1.50
  -8  -1  -4    1.40    1.60
  -8  -1  -4    2.10    1.80
  -8  -1  -4   -0.10    1.80
   8   1   4    2.20    1.90
   8   1   4   -0.40    1.40
   8   1   4    1.40    1.70
   9  -2  -4    3.60    1.60
   9  -2  -4    3.70    1.20
   9  -2  -4    1.00    1.10
   9  -2  -4    2.40    1.50
  -9   2   4    4.30    1.60
  -9   2   4    4.50    1.90
  -9   2   4    3.30    1.50
  -9   2   4    3.50    1.70
   8  -2  -4   -0.50    0.80
   8  -2  -4    0.10    0.80
   8  -2  -4    0.20    0.80
   8  -2  -4    0.70    1.20
  -8   2   4    0.40    1.10
  -8   2   4    0.10    1.00
  -8   2   4    0.30    1.10
  -8   2   4   -0.40    1.30
  -8   2   4   -1.60    1.10
  -8   2   4   -0.20    0.90
   7  -2  -4    3.60    1.00
   7  -2  -4    2.50    0.90
   7  -2  -4    3.10    0.90
   7  -2  -4    2.70    1.30
  -7   2   4    4.10    1.20
  -7   2   4    4.50    1.40
  -7   2   4    2.20    1.00
  -7   2   4    2.00    1.30
  -7   2   4    3.80    1.20
  -7   2   4    1.50    1.10
   6  -2  -4    0.30    0.90
   6  -2  -4    0.30    0.60
   6  -2  -4    0.40    0.60
   6  -2  -4    0.10    0.60
  -6   2   4    0.70    0.60
  -6   2   4   -0.30    0.60
  -6   2   4   -0.30    0.80
  -6   2   4    1.50    0.90
  -6   2   4    0.20    0.70
  -6   2   4    1.00    0.80
  -6   2   4    0.70    0.90
  -6   2   4    1.10    0.70
   5  -2  -4   64.69    3.40
   5  -2  -4   59.59    3.10
   5  -2  -4   63.59    3.20
   5  -2  -4   57.09    3.60
   5  -2  -4   62.89    3.30
  -5   2   4   67.49    3.40
  -5   2   4   64.49    3.40
  -5   2   4   63.29    3.80
  -5   2   4   65.29    3.30
  -5   2   4   62.99    3.50
  -5   2   4   59.69    3.90
  -5   2   4   66.39    3.90
  -5   2   4   62.09    3.50
   4  -2  -4  318.57   12.30
   4  -2  -4  300.67   12.10
   4  -2  -4  318.87   12.50
   4  -2  -4  309.07   12.40
   4  -2  -4  285.17   12.70
  -4   2   4  311.37   12.50
  -4   2   4  314.67   12.50
  -4   2   4  325.57   12.40
  -4   2   4  301.57   12.60
  -4   2   4  287.77   13.00
  -4   2   4  295.27   12.60
  -4   2   4  306.67   12.60
  -4   2   4  315.37   13.10
  -4   2   4  287.57   12.90
   3  -2  -4  158.58    7.40
   3  -2  -4  170.48    7.20
   3  -2  -4  172.38    7.20
   3  -2  -4  176.38    7.00
   3  -2  -4  170.78    6.80
  -3   2   4  161.48    7.30
  -3   2   4  160.38    7.30
  -3   2   4  169.38    7.20
  -3   2   4  166.68    7.60
  -3   2   4  182.78    7.80
  -3   2   4  173.08    7.60
  -3   2   4  174.88    7.00
   2  -2  -4  625.44   24.10
   2  -2  -4  628.04   24.00
   2  -2  -4  580.84   24.20
   2  -2  -4  650.13   23.70
   2  -2  -4  642.14   23.90
  -2   2   4  591.64   24.30
  -2   2   4  616.94   24.40
  -2   2   4  610.64   24.50
  -2   2   4  591.54   24.10
  -2   2   4  624.84   23.90
  -2   2   4  624.94   24.30
   1  -2  -4  153.38    6.50
   1  -2  -4  157.78    6.40
   1  -2  -4  154.68    6.30
   1  -2  -4  159.28    6.40
   1  -2  -4  153.28    6.40
   1  -2  -4  132.89    6.40
  -1   2   4  147.89    6.50
  -1   2   4  162.08    6.80
  -1   2   4  150.98    6.10
  -1   2   4  150.68    6.70
  -1   2   4  158.08    6.50
  -1   2   4  151.88    6.60
  -1   2   4  159.88    6.60
   0  -2  -4  118.19    5.00
   0  -2  -4  110.29    4.90
   0  -2  -4  110.19    4.80
   0  -2  -4  112.89    4.70
   0  -2  -4  103.79    4.70
   0  -2  -4  116.59    4.80
   0  -2  -4  114.39    4.80
   0   2   4  107.09    4.80
   0   2   4  112.29    5.20
   0   2   4  107.59    4.70
   0   2   4  111.99    5.10
   0   2   4  113.59    4.90
   0   2   4  113.59    5.10
  -1  -2  -4   -0.10    0.30
  -1  -2  -4   -0.10    0.30
  -1  -2  -4    0.00    0.30
  -1  -2  -4    0.00    0.40
  -1  -2  -4    0.10    0.40
  -1  -2  -4    0.10    0.20
  -1  -2  -4   -0.10    0.30
  -1  -2  -4    0.20    0.20
   1   2   4   -0.30    0.40
   1   2   4    0.80    0.70
   1   2   4   -0.10    0.50
   1   2   4   -0.30    0.30
   1   2   4    1.10    0.70
  -2  -2  -4   30.80    1.90
  -2  -2  -4   29.50    1.60
  -2  -2  -4   26.90    2.10
  -2  -2  -4   33.60    2.30
  -2  -2  -4   29.80    1.80
  -2  -2  -4   32.30    1.80
  -2  -2  -4   30.30    2.20
   2   2   4   28.80    2.10
   2   2   4   26.70    2.20
   2   2   4   24.80    2.00
   2   2   4   30.10    2.20
   2   2   4   28.00    2.10
  -3  -2  -4   55.99    3.60
  -3  -2  -4   58.49    3.70
  -3  -2  -4   57.59    3.00
  -3  -2  -4   58.09    3.70
  -3  -2  -4   58.59    2.90
  -3  -2  -4   58.19    3.00
  -3  -2  -4   55.69    3.10
   3   2   4   58.09    3.40
   3   2   4   50.09    3.40
   3   2   4   54.49    3.30
   3   2   4   60.39    3.60
   3   2   4   54.79    3.40
   3   2   4   53.99    3.40
  -4  -2  -4    1.30    0.70
  -4  -2  -4    1.00    0.60
  -4  -2  -4    1.30    0.80
  -4  -2  -4    1.40    1.00
  -4  -2  -4    0.60    0.70
  -4  -2  -4    0.40    0.50
  -4  -2  -4    0.40    0.80
   4   2   4    0.50    1.00
   4   2   4    1.40    1.00
   4   2   4    1.40    0.90
   4   2   4    1.00    0.80
   4   2   4    0.50    0.90
   4   2   4    1.60    0.90
  -5  -2  -4    6.80    1.90
  -5  -2  -4   12.40    2.10
  -5  -2  -4   14.20    2.30
  -5  -2  -4    6.60    1.30
  -5  -2  -4    9.00    1.50
  -5  -2  -4   12.00    1.80
   5   2   4    8.90    1.60
   5   2   4    8.90    1.90
   5   2   4   11.80    1.90
   5   2   4    7.10    1.50
   5   2   4    9.60    1.90
   5   2   4   12.50    1.90
  -6  -2  -4    0.40    1.00
  -6  -2  -4    0.10    1.40
  -6  -2  -4    0.10    1.30
  -6  -2  -4    0.10    0.80
  -6  -2  -4    0.20    1.20
  -6  -2  -4    0.40    0.90
   6   2   4   -0.70    1.10
   6   2   4    0.30    1.20
   6   2   4   -0.80    1.20
   6   2   4   -0.50    1.20
  -7  -2  -4    2.10    1.80
  -7  -2  -4    2.70    1.80
  -7  -2  -4    3.90    1.50
  -7  -2  -4    5.20    1.80
  -7  -2  -4    1.90    1.10
  -7  -2  -4    3.80    2.20
   7   2   4    5.00    2.20
   7   2   4    0.70    1.50
   7   2   4    6.90    1.90
   7   2   4    4.00    1.70
  -8  -2  -4   -0.40    1.30
  -8  -2  -4    2.00    2.30
  -8  -2  -4    0.30    1.40
  -8  -2  -4   -1.20    1.50
   8   2   4   -0.70    1.50
   8   2   4    0.10    1.50
   8   2   4   -0.90    1.50
   9  -3  -4    1.70    1.60
   9  -3  -4    1.20    1.00
   9  -3  -4    1.30    1.30
  -9   3   4    2.70    1.50
  -9   3   4    1.80    1.80
  -9   3   4    2.60    1.80
  -9   3   4    4.00    1.80
  -9   3   4    2.70    1.50
   8  -3  -4    3.90    1.10
   8  -3  -4    6.40    1.30
   8  -3  -4    6.70    1.40
   8  -3  -4    4.40    1.70
  -8   3   4    6.40    1.90
  -8   3   4    2.20    1.40
  -8   3   4    4.10    1.40
  -8   3   4    5.40    1.80
  -8   3   4    5.00    1.50
  -8   3   4    6.40    1.60
   7  -3  -4   15.20    1.90
   7  -3  -4   14.80    1.70
   7  -3  -4   14.00    2.10
   7  -3  -4   10.90    1.60
  -7   3   4   14.70    2.10
  -7   3   4   15.60    2.40
  -7   3   4   14.30    2.30
  -7   3   4   14.90    2.00
  -7   3   4   11.60    1.80
  -7   3   4   11.50    2.10
   6  -3  -4   29.90    2.00
   6  -3  -4   22.10    2.50
   6  -3  -4   27.80    2.10
   6  -3  -4   28.20    2.20
  -6   3   4   26.40    2.50
  -6   3   4   22.40    2.60
  -6   3   4   26.00    2.00
  -6   3   4   25.00    2.80
  -6   3   4   28.80    2.40
  -6   3   4   27.10    3.00
  -6   3   4   28.50    2.30
   5  -3  -4   34.20    2.00
   5  -3  -4   30.90    2.10
   5  -3  -4   30.70    2.20
   5  -3  -4   29.90    2.10
   5  -3  -4   26.10    2.30
  -5   3   4   33.00    2.30
  -5   3   4   33.50    2.70
  -5   3   4   30.50    2.00
  -5   3   4   26.80    2.70
  -5   3   4   30.00    2.10
  -5   3   4   31.20    2.30
  -5   3   4   25.00    2.70
  -5   3   4   31.70    2.30
   4  -3  -4   -0.40    0.30
   4  -3  -4    0.00    0.40
   4  -3  -4   -0.20    0.40
   4  -3  -4   -0.20    0.40
   4  -3  -4    0.10    0.30
  -4   3   4   -0.40    0.70
  -4   3   4    0.00    0.40
  -4   3   4    0.00    0.40
  -4   3   4    0.00    0.50
  -4   3   4   -0.50    0.40
  -4   3   4    0.70    0.50
   3  -3  -4    4.20    0.70
   3  -3  -4    4.80    0.60
   3  -3  -4    2.60    0.80
   3  -3  -4    4.70    0.70
   3  -3  -4    4.70    0.80
  -3   3   4    3.80    0.90
  -3   3   4    5.30    0.70
  -3   3   4    4.10    0.80
  -3   3   4    3.00    0.80
  -3   3   4    4.50    0.80
  -3   3   4    3.80    0.80
  -3   3   4    4.40    1.00
   2  -3  -4   61.89    2.80
   2  -3  -4   59.39    3.10
   2  -3  -4   60.19    3.00
   2  -3  -4   62.99    2.90
   2  -3  -4   60.99    3.00
  -2   3   4   60.59    3.10
  -2   3   4   56.59    3.20
  -2   3   4   56.09    3.20
  -2   3   4   61.19    2.90
  -2   3   4   62.99    3.40
  -2   3   4   70.99    3.60
   1  -3  -4  140.39    6.00
   1  -3  -4  139.19    5.80
   1  -3  -4  142.59    6.00
   1  -3  -4  136.29    6.00
   1  -3  -4  141.59    6.00
   1  -3  -4  134.79    5.90
  -1   3   4  147.89    6.20
  -1   3   4  136.69    6.20
  -1   3   4  137.69    6.40
  -1   3   4  141.99    6.10
  -1   3   4  133.99    5.70
  -1   3   4  139.19    6.30
  -1   3   4  145.59    6.10
   0  -3  -4   66.09    3.30
   0  -3  -4   74.79    3.60
   0  -3  -4   74.99    3.40
   0  -3  -4   69.59    3.50
   0  -3  -4   71.69    3.30
   0  -3  -4   71.69    3.50
   0  -3  -4   73.49    3.40
   0  -3  -4   73.29    3.30
   0   3   4   74.29    3.40
   0   3   4   72.69    3.70
   0   3   4   69.29    3.80
   0   3   4   77.39    3.60
   0   3   4   70.49    3.90
   0   3   4   70.29    3.30
  -1  -3  -4    1.10    0.60
  -1  -3  -4    1.30    0.40
  -1  -3  -4    1.60    0.50
  -1  -3  -4    1.10    0.50
  -1  -3  -4    1.70    0.30
  -1  -3  -4    1.40    0.40
  -1  -3  -4    1.50    0.50
  -1  -3  -4    1.00    0.60
   1   3   4    1.40    0.30
   1   3   4    0.10    0.70
   1   3   4    1.20    0.70
   1   3   4    1.80    0.80
   1   3   4    1.90    0.70
   1   3   4    0.80    0.40
  -2  -3  -4   38.50    2.70
  -2  -3  -4   34.40    2.60
  -2  -3  -4   41.70    2.20
  -2  -3  -4   38.20    2.00
  -2  -3  -4   39.30    2.70
  -2  -3  -4   42.70    2.40
  -2  -3  -4   39.10    2.20
   2   3   4   38.00    2.70
   2   3   4   41.80    2.80
   2   3   4   37.40    2.80
   2   3   4   39.90    2.60
  -3  -3  -4   86.49    4.20
  -3  -3  -4   88.69    4.20
  -3  -3  -4   86.79    5.00
  -3  -3  -4   86.39    5.00
  -3  -3  -4   88.69    4.40
  -3  -3  -4   84.49    4.80
   3   3   4   87.39    4.70
   3   3   4   87.59    4.80
   3   3   4   77.89    4.60
   3   3   4   78.89    4.60
   3   3   4   90.39    5.00
  -4  -3  -4    0.30    1.00
  -4  -3  -4    0.00    0.40
  -4  -3  -4    0.20    0.70
  -4  -3  -4    0.20    0.50
  -4  -3  -4   -0.60    0.60
  -4  -3  -4    0.50    0.90
   4   3   4   -0.40    0.60
   4   3   4    1.10    1.10
   4   3   4    0.20    0.90
   4   3   4    0.50    1.00
   4   3   4    1.80    1.20
   4   3   4    0.50    1.00
  -5  -3  -4    6.90    1.30
  -5  -3  -4    7.20    2.00
  -5  -3  -4    7.60    1.80
  -5  -3  -4    8.70    1.40
  -5  -3  -4    5.20    1.40
  -5  -3  -4    4.40    1.50
   5   3   4    7.80    1.80
   5   3   4    6.70    1.70
   5   3   4    5.10    1.70
   5   3   4    4.50    1.60
   5   3   4    6.80    1.60
   5   3   4    5.70    1.40
  -6  -3  -4    0.60    1.40
  -6  -3  -4    1.00    1.00
  -6  -3  -4    0.60    1.30
  -6  -3  -4   -0.40    1.40
  -6  -3  -4    2.10    1.10
  -6  -3  -4    0.40    1.10
   6   3   4    0.10    1.30
   6   3   4    1.20    1.50
   6   3   4    1.40    1.30
   6   3   4    1.90    1.50
   6   3   4    0.20    1.20
  -7  -3  -4   -0.80    1.70
  -7  -3  -4    0.90    1.50
  -7  -3  -4   -2.20    1.40
  -7  -3  -4    2.60    1.20
  -7  -3  -4    0.80    1.20
   7   3   4    1.60    1.40
   7   3   4    1.10    1.40
   7   3   4   -0.90    1.30
  -8  -3  -4    2.20    1.80
  -8  -3  -4    5.50    2.10
  -8  -3  -4    4.00    2.70
  -8  -3  -4    3.00    1.70
   8   3   4    0.00    1.60
   8   3   4    3.60    2.10
   8   3   4    5.10    2.20
   9  -4  -4    1.10    1.10
   9  -4  -4   -1.60    1.40
   9  -4  -4    2.20    1.40
  -9   4   4    0.70    1.70
  -9   4   4   -0.60    1.40
  -9   4   4   -1.00    1.40
  -9   4   4    1.70    1.60
  -9   4   4    1.10    1.70
   8  -4  -4    2.60    1.30
   8  -4  -4    3.40    1.50
   8  -4  -4    4.20    1.30
   8  -4  -4    1.80    1.10
  -8   4   4    2.00    1.60
  -8   4   4    3.60    1.60
  -8   4   4    3.70    1.60
  -8   4   4    2.00    1.50
  -8   4   4    2.00    1.40
  -8   4   4    2.90    1.70
   7  -4  -4    0.80    1.10
   7  -4  -4    2.00    0.90
   7  -4  -4    3.10    1.00
   7  -4  -4    2.40    1.10
  -7   4   4    3.60    1.20
  -7   4   4    0.40    1.20
  -7   4   4    3.30    1.30
  -7   4   4    2.70    1.40
  -7   4   4    0.70    1.10
  -7   4   4    5.10    1.40
   6  -4  -4    1.40    1.00
   6  -4  -4    0.70    0.70
   6  -4  -4    2.00    0.80
   6  -4  -4    2.60    0.80
  -6   4   4    0.20    0.80
  -6   4   4    0.30    0.90
  -6   4   4    0.80    0.90
  -6   4   4    1.20    0.90
  -6   4   4    1.20    0.90
   5  -4  -4   15.20    1.50
   5  -4  -4   10.90    1.70
   5  -4  -4   14.80    1.60
   5  -4  -4   18.20    1.70
  -5   4   4   13.20    1.40
  -5   4   4   10.20    1.70
  -5   4   4   11.60    1.80
  -5   4   4   15.40    1.60
  -5   4   4   11.60    2.00
  -5   4   4   13.40    1.70
   4  -4  -4   97.99    5.60
   4  -4  -4  120.49    5.40
   4  -4  -4  116.69    5.50
   4  -4  -4  121.99    5.50
   4  -4  -4  122.69    5.20
  -4   4   4  123.39    6.00
  -4   4   4  117.79    6.30
  -4   4   4  124.29    5.50
  -4   4   4  122.29    6.20
  -4   4   4  118.99    5.60
  -4   4   4  123.19    5.80
   3  -4  -4    1.80    0.60
   3  -4  -4    2.60    0.50
   3  -4  -4    1.70    0.50
   3  -4  -4    1.30    0.70
   3  -4  -4    2.10    0.60
  -3   4   4    0.60    0.50
  -3   4   4    2.70    0.70
  -3   4   4    2.70    0.70
  -3   4   4    1.00    0.60
  -3   4   4    3.70    1.00
   2  -4  -4   50.29    2.90
   2  -4  -4   57.29    2.80
   2  -4  -4   53.59    2.80
   2  -4  -4   54.79    2.80
   2  -4  -4   59.79    2.90
  -2   4   4   54.89    2.70
  -2   4   4   48.30    3.10
  -2   4   4   55.89    3.30
  -2   4   4   55.49    3.20
  -2   4   4   53.19    3.00
  -2   4   4   58.69    3.10
   1  -4  -4   70.29    3.50
   1  -4  -4   75.19    3.50
   1  -4  -4   75.79    3.50
   1  -4  -4   72.49    3.50
   1  -4  -4   74.99    3.60
   1  -4  -4   74.09    3.60
  -1   4   4   72.89    3.70
  -1   4   4   73.39    4.00
  -1   4   4   76.19    3.70
  -1   4   4   73.39    3.90
  -1   4   4   78.09    3.70
  -1   4   4   78.19    4.00
  -1   4   4   70.09    3.30
   0  -4  -4    2.60    0.50
   0  -4  -4    1.20    0.50
   0  -4  -4    0.70    0.40
   0  -4  -4    0.90    0.50
   0  -4  -4    0.60    0.40
   0  -4  -4    2.00    0.50
   0  -4  -4    0.40    0.50
   0   4   4    0.40    0.40
   0   4   4    0.70    0.70
   0   4   4    0.70    0.40
   0   4   4    0.70    0.50
   0   4   4    0.80    0.70
   0   4   4   -0.60    0.70
  -1  -4  -4    3.30    0.90
  -1  -4  -4    3.40    0.60
  -1  -4  -4    3.70    0.50
  -1  -4  -4    2.70    0.70
  -1  -4  -4    2.30    0.80
  -1  -4  -4    3.40    0.60
  -1  -4  -4    2.20    0.80
   1   4   4    2.00    0.80
   1   4   4    2.80    0.80
   1   4   4    2.20    0.80
   1   4   4    4.10    0.80
   1   4   4    4.50    1.20
  -2  -4  -4   49.10    3.20
  -2  -4  -4   51.59    2.80
  -2  -4  -4   58.59    3.60
  -2  -4  -4   50.69    2.70
  -2  -4  -4   51.89    3.40
  -2  -4  -4   55.29    3.00
   2   4   4   45.00    3.20
   2   4   4   47.20    3.10
   2   4   4   50.69    3.30
   2   4   4   51.59    3.50
  -3  -4  -4   32.00    2.10
  -3  -4  -4   30.80    2.20
  -3  -4  -4   29.30    3.00
  -3  -4  -4   32.60    2.00
  -3  -4  -4   32.50    2.80
  -3  -4  -4   30.80    2.80
   3   4   4   28.80    2.80
   3   4   4   28.50    2.90
   3   4   4   29.70    2.80
   3   4   4   25.00    2.70
  -4  -4  -4   79.19    5.00
  -4  -4  -4   76.69    5.00
  -4  -4  -4   78.99    5.10
  -4  -4  -4   74.69    4.00
  -4  -4  -4   79.09    4.00
  -4  -4  -4   70.49    4.20
   4   4   4   74.99    4.60
   4   4   4   66.69    4.50
   4   4   4   70.09    4.60
   4   4   4   78.99    4.90
   4   4   4   75.49    4.70
  -5  -4  -4   -0.70    1.10
  -5  -4  -4    1.70    0.90
  -5  -4  -4    1.90    1.20
  -5  -4  -4    1.10    1.50
  -5  -4  -4    4.40    1.20
  -5  -4  -4    3.00    1.00
   5   4   4    0.00    1.30
   5   4   4    3.60    1.60
   5   4   4    0.70    1.00
   5   4   4    1.80    1.40
   5   4   4    0.00    1.00
   5   4   4    1.70    1.20
  -6  -4  -4    2.70    1.30
  -6  -4  -4    2.20    1.40
  -6  -4  -4    1.80    1.30
  -6  -4  -4    2.80    1.20
  -6  -4  -4    1.70    1.60
  -6  -4  -4    0.10    1.60
   6   4   4    2.40    1.40
   6   4   4   -0.80    1.40
   6   4   4    2.80    1.70
   6   4   4    1.20    1.50
   6   4   4    1.90    1.40
  -7  -4  -4    5.50    2.00
  -7  -4  -4   11.50    2.40
  -7  -4  -4   16.70    2.40
  -7  -4  -4    9.80    2.60
   7   4   4   13.90    2.70
   7   4   4    6.20    2.40
   7   4   4   15.40    2.60
   9  -5  -4    1.20    1.10
   9  -5  -4    3.20    1.40
   9  -5  -4    5.20    1.90
   8  -5  -4    0.00    1.30
   8  -5  -4    1.50    1.10
   8  -5  -4    0.70    1.00
  -8   5   4   -1.30    1.50
  -8   5   4   -1.20    1.00
  -8   5   4   -0.40    1.50
  -8   5   4    1.40    1.20
   7  -5  -4    0.20    0.70
   7  -5  -4    1.10    1.20
   7  -5  -4   -0.50    0.70
   7  -5  -4    0.00    0.70
  -7   5   4    0.40    1.10
  -7   5   4   -0.10    1.00
  -7   5   4    1.20    1.10
  -7   5   4   -0.10    0.90
  -7   5   4    0.80    1.20
   6  -5  -4    4.70    1.10
   6  -5  -4    5.90    1.20
   6  -5  -4    4.50    1.20
   6  -5  -4    6.70    1.40
  -6   5   4    7.40    1.70
  -6   5   4    7.40    1.60
  -6   5   4    5.10    1.50
  -6   5   4    5.20    1.30
   5  -5  -4   12.00    1.40
   5  -5  -4   11.00    1.40
   5  -5  -4   11.10    1.40
   5  -5  -4   10.20    1.60
  -5   5   4    7.50    1.50
  -5   5   4    8.70    1.40
  -5   5   4   10.70    1.50
  -5   5   4   10.50    2.00
  -5   5   4   12.70    2.00
   4  -5  -4   22.60    1.80
   4  -5  -4   21.50    1.70
   4  -5  -4   22.90    1.70
   4  -5  -4   25.30    2.10
  -4   5   4   22.70    2.50
  -4   5   4   22.40    2.40
  -4   5   4   24.30    2.00
  -4   5   4   23.90    2.60
  -4   5   4   24.40    1.80
  -4   5   4   23.70    1.90
   3  -5  -4    3.10    0.70
   3  -5  -4    3.80    0.70
   3  -5  -4    5.30    1.10
   3  -5  -4    2.20    0.60
   3  -5  -4    3.10    0.70
  -3   5   4    2.80    1.00
  -3   5   4    4.10    0.90
  -3   5   4    6.40    1.30
  -3   5   4    3.10    0.80
  -3   5   4    4.00    1.00
   2  -5  -4    0.00    0.40
   2  -5  -4   -0.30    0.40
   2  -5  -4    0.00    0.40
   2  -5  -4    0.10    0.40
   2  -5  -4   -0.50    0.40
  -2   5   4    0.10    0.50
  -2   5   4   -0.60    0.60
  -2   5   4   -0.20    0.40
  -2   5   4   -0.40    0.40
  -2   5   4   -0.50    0.50
  -2   5   4    0.30    0.60
   1  -5  -4   38.60    2.40
   1  -5  -4   47.40    2.50
   1  -5  -4   43.00    2.50
   1  -5  -4   47.20    2.60
   1  -5  -4   45.20    2.70
   1  -5  -4   46.20    2.50
  -1   5   4   47.00    3.10
  -1   5   4   43.90    2.60
  -1   5   4   45.90    2.70
  -1   5   4   43.40    2.70
  -1   5   4   47.40    3.00
   0  -5  -4  325.87   13.70
   0  -5  -4  345.67   14.10
   0  -5  -4  341.17   13.80
   0  -5  -4  344.27   13.50
   0  -5  -4  333.07   13.40
   0  -5  -4  338.37   13.50
   0  -5  -4  342.97   14.00
   0   5   4  331.57   14.20
   0   5   4  331.57   14.00
   0   5   4  337.17   14.50
   0   5   4  312.07   13.60
   0   5   4  346.27   14.10
  -1  -5  -4   87.09    4.60
  -1  -5  -4   88.39    4.80
  -1  -5  -4   85.29    4.40
  -1  -5  -4   86.19    4.90
  -1  -5  -4   85.99    4.20
  -1  -5  -4   94.29    4.20
   1   5   4   95.49    5.20
   1   5   4   95.59    4.60
   1   5   4   90.99    4.50
   1   5   4   87.29    4.90
   1   5   4   87.39    4.80
  -2  -5  -4   62.99    3.90
  -2  -5  -4   60.69    3.90
  -2  -5  -4   59.69    3.10
  -2  -5  -4   59.79    3.40
  -2  -5  -4   59.69    3.10
  -2  -5  -4   58.89    3.70
   2   5   4   57.19    3.60
   2   5   4   48.40    3.70
   2   5   4   54.49    3.90
   2   5   4   64.49    4.00
  -3  -5  -4   15.80    2.30
  -3  -5  -4   19.40    1.60
  -3  -5  -4   19.00    2.50
  -3  -5  -4   20.10    1.80
  -3  -5  -4   18.60    2.10
  -3  -5  -4   17.90    2.40
   3   5   4   19.60    2.40
   3   5   4   17.20    2.20
   3   5   4   16.90    2.40
   3   5   4   23.00    2.60
  -4  -5  -4   37.00    2.50
  -4  -5  -4   36.10    2.40
  -4  -5  -4   32.70    2.70
  -4  -5  -4   28.20    3.30
  -4  -5  -4   36.20    3.80
  -4  -5  -4   33.50    3.70
   4   5   4   28.00    3.10
   4   5   4   36.60    3.40
   4   5   4   28.80    3.20
   4   5   4   27.10    3.20
  -5  -5  -4   -0.10    1.40
  -5  -5  -4    1.60    1.00
  -5  -5  -4    0.00    1.20
  -5  -5  -4    4.10    1.30
  -5  -5  -4    2.20    1.20
  -5  -5  -4    0.50    1.00
   5   5   4    0.80    1.10
   5   5   4   -0.10    1.30
   5   5   4   -0.80    1.40
   5   5   4   -0.20    1.10
   5   5   4   -0.60    1.30
   5   5   4    1.50    1.50
  -6  -5  -4   14.50    2.40
  -6  -5  -4    5.80    2.00
  -6  -5  -4   10.20    2.10
  -6  -5  -4    6.00    2.30
   6   5   4    9.70    2.50
   6   5   4    6.50    2.10
   6   5   4    5.90    1.70
   6   5   4    7.50    2.10
   6   5   4    6.60    1.90
  -7  -5  -4   10.90    3.00
  -7  -5  -4   15.20    2.70
  -7  -5  -4   12.80    3.10
   7   5   4   13.70    2.70
   7   5   4    7.60    2.20
   7   5   4    8.30    2.40
   7   5   4   13.40    2.80
   8  -6  -4   -0.50    1.10
   8  -6  -4    0.30    1.10
   8  -6  -4    0.10    1.00
  -8   6   4   -0.10    1.10
  -8   6   4    1.60    1.30
  -8   6   4   -0.70    1.50
  -8   6   4   -0.50    1.60
   7  -6  -4    1.20    1.30
   7  -6  -4    1.20    1.10
   7  -6  -4   -0.30    0.80
   7  -6  -4    1.10    1.10
  -7   6   4   -1.00    1.30
  -7   6   4    0.20    1.10
  -7   6   4   -1.40    1.50
  -7   6   4    2.50    1.30
   6  -6  -4    0.60    0.90
   6  -6  -4   -0.70    0.70
   6  -6  -4    1.60    1.20
   6  -6  -4   -0.20    0.60
  -6   6   4   -0.90    1.10
  -6   6   4    0.90    1.10
  -6   6   4   -0.60    1.30
  -6   6   4   -0.30    1.10
   5  -6  -4   25.10    2.40
   5  -6  -4   23.70    2.30
   5  -6  -4   23.40    1.90
   5  -6  -4   24.80    2.60
  -5   6   4   23.70    3.00
  -5   6   4   30.60    2.40
  -5   6   4   27.60    2.90
  -5   6   4   25.00    3.10
   4  -6  -4    6.80    1.10
   4  -6  -4    6.50    1.10
   4  -6  -4    5.00    1.30
   4  -6  -4    7.50    1.20
  -4   6   4    6.20    1.10
  -4   6   4    3.20    1.30
  -4   6   4    8.10    1.70
  -4   6   4    9.60    1.40
  -4   6   4    8.80    1.60
   3  -6  -4   91.79    4.50
   3  -6  -4   93.79    4.50
   3  -6  -4   94.99    4.60
   3  -6  -4   90.39    4.60
   3  -6  -4   79.79    4.70
  -3   6   4   99.29    5.30
  -3   6   4   97.69    5.00
  -3   6   4   94.69    5.00
  -3   6   4  101.29    5.50
  -3   6   4   95.79    4.80
   2  -6  -4    0.10    0.50
   2  -6  -4    0.00    0.50
   2  -6  -4   -0.40    0.40
   2  -6  -4   -0.40    0.60
   2  -6  -4    0.20    0.50
  -2   6   4    0.10    0.80
  -2   6   4    0.40    0.60
  -2   6   4   -0.40    0.60
  -2   6   4    0.10    0.80
  -2   6   4    1.20    0.70
   1  -6  -4    2.80    0.80
   1  -6  -4    4.00    0.90
   1  -6  -4    4.00    0.80
   1  -6  -4    5.10    1.00
   1  -6  -4    3.70    0.80
  -1   6   4    7.60    1.20
  -1   6   4    4.00    1.10
  -1   6   4    5.10    1.20
  -1   6   4    5.70    1.30
  -1   6   4    4.80    0.90
  -1   6   4    6.20    1.20
   0  -6  -4  109.89    5.10
   0  -6  -4  110.19    5.30
   0  -6  -4  108.49    5.70
   0  -6  -4  114.49    5.00
   0  -6  -4  109.99    5.50
   0   6   4  111.79    6.10
   0   6   4  113.19    5.90
   0   6   4  109.09    5.60
   0   6   4  113.39    5.70
  -1  -6  -4    5.40    0.90
  -1  -6  -4    5.20    1.00
  -1  -6  -4    6.30    1.30
  -1  -6  -4    5.80    1.30
  -1  -6  -4    4.50    1.10
  -1  -6  -4    6.10    1.20
   1   6   4    5.10    1.10
   1   6   4    7.70    1.70
   1   6   4    5.00    1.30
   1   6   4    8.00    1.60
   1   6   4    5.90    1.70
  -2  -6  -4   10.50    1.50
  -2  -6  -4    8.80    1.20
  -2  -6  -4   10.90    1.80
  -2  -6  -4   10.30    1.20
  -2  -6  -4    8.70    1.70
  -2  -6  -4    8.70    1.80
   2   6   4   10.90    1.80
   2   6   4   12.60    2.00
   2   6   4    6.70    1.60
   2   6   4   11.20    2.00
  -3  -6  -4   88.59    5.40
  -3  -6  -4   87.49    5.60
  -3  -6  -4   92.79    5.80
  -3  -6  -4   91.19    4.60
  -3  -6  -4   93.79    5.00
  -3  -6  -4   94.99    4.60
   3   6   4   83.39    5.30
   3   6   4   92.79    5.50
   3   6   4   93.69    5.60
   3   6   4   94.09    5.30
  -4  -6  -4   -0.60    1.00
  -4  -6  -4   -0.10    0.70
  -4  -6  -4    1.40    0.80
  -4  -6  -4    1.50    1.20
  -4  -6  -4    1.20    1.00
  -4  -6  -4    1.30    1.10
   4   6   4    0.00    0.90
   4   6   4   -1.30    1.00
   4   6   4   -1.60    1.10
   4   6   4   -2.30    1.10
  -5  -6  -4    7.80    2.10
  -5  -6  -4   11.80    1.90
  -5  -6  -4    7.00    2.20
  -5  -6  -4    5.30    1.90
   5   6   4    3.20    1.40
   5   6   4    3.90    1.80
   5   6   4    8.20    2.10
   5   6   4    4.20    1.90
  -6  -6  -4    2.00    1.90
  -6  -6  -4    1.80    1.70
  -6  -6  -4    1.30    1.60
   6   6   4    0.90    1.70
   6   6   4    0.10    1.30
   6   6   4    0.50    1.80
   6   6   4    1.10    1.80
   8  -7  -4   -0.60    1.10
   8  -7  -4   -2.40    1.20
   8  -7  -4    1.60    1.40
  -8   7   4    0.70    1.40
  -8   7   4    1.90    1.50
  -8   7   4    2.50    2.00
  -8   7   4    1.80    2.30
   7  -7  -4    5.10    1.60
   7  -7  -4    4.60    1.80
   7  -7  -4    3.00    1.30
  -7   7   4    4.70    2.20
  -7   7   4    5.50    2.10
  -7   7   4    8.40    2.00
  -7   7   4    2.50    1.60
   6  -7  -4   14.80    1.90
   6  -7  -4   15.20    2.00
   6  -7  -4   10.80    1.90
   6  -7  -4   11.80    1.90
  -6   7   4   12.90    2.40
  -6   7   4   14.30    2.30
  -6   7   4   13.80    2.30
  -6   7   4   12.00    2.50
   5  -7  -4    0.20    0.80
   5  -7  -4    0.70    0.70
   5  -7  -4    1.00    1.10
   5  -7  -4    1.10    1.00
  -5   7   4    1.50    1.50
  -5   7   4    0.90    1.00
  -5   7   4    2.80    1.20
  -5   7   4   -0.20    0.90
   4  -7  -4  224.78   10.20
   4  -7  -4  244.18   10.20
   4  -7  -4  236.08   10.30
   4  -7  -4  212.48   10.50
  -4   7   4  245.18   10.90
  -4   7   4  246.48   10.70
  -4   7   4  260.37   11.70
  -4   7   4  238.18   11.20
   3  -7  -4    4.80    1.00
   3  -7  -4    5.30    1.00
   3  -7  -4    6.40    1.10
   3  -7  -4    5.00    1.20
  -3   7   4    5.40    1.40
  -3   7   4    4.80    1.10
  -3   7   4    4.40    1.50
  -3   7   4    6.10    1.30
  -3   7   4    6.80    1.40
   2  -7  -4   64.09    3.60
   2  -7  -4   58.79    3.20
   2  -7  -4   57.59    3.40
   2  -7  -4   58.59    3.30
   2  -7  -4   58.29    3.30
  -2   7   4   57.19    3.70
  -2   7   4   58.09    3.50
  -2   7   4   65.69    4.10
  -2   7   4   65.49    4.20
  -2   7   4   64.99    3.90
   1  -7  -4   80.59    4.30
   1  -7  -4   79.39    4.10
   1  -7  -4   81.59    4.00
   1  -7  -4   83.79    4.60
  -1   7   4   88.79    4.90
  -1   7   4   87.69    5.00
  -1   7   4   83.59    5.10
   0  -7  -4   42.40    2.40
   0  -7  -4   43.00    3.10
   0  -7  -4   44.90    2.50
   0  -7  -4   37.60    2.60
   0   7   4   41.40    3.00
   0   7   4   41.60    3.10
   0   7   4   38.30    3.60
   0   7   4   47.50    3.60
  -1  -7  -4   23.80    1.70
  -1  -7  -4   25.50    2.80
  -1  -7  -4   23.50    2.60
  -1  -7  -4   27.30    2.20
  -1  -7  -4   24.80    1.80
   1   7   4   28.10    3.00
   1   7   4   21.90    2.90
   1   7   4   23.60    2.70
  -2  -7  -4    0.10    0.60
  -2  -7  -4   -0.50    0.90
  -2  -7  -4   -0.40    0.50
  -2  -7  -4    0.10    0.90
  -2  -7  -4    0.50    0.80
  -2  -7  -4    0.50    0.90
   2   7   4    0.20    0.90
   2   7   4   -0.20    0.70
   2   7   4   -0.40    1.20
   2   7   4   -0.40    0.80
  -3  -7  -4   10.50    2.00
  -3  -7  -4   12.40    2.20
  -3  -7  -4   13.70    1.70
  -3  -7  -4   12.70    2.30
  -3  -7  -4   12.90    1.90
   3   7   4   15.90    2.70
   3   7   4   16.90    2.40
   3   7   4   14.40    2.40
   3   7   4   13.90    2.40
  -4  -7  -4    2.40    1.60
  -4  -7  -4    5.10    1.90
  -4  -7  -4    4.30    1.70
  -4  -7  -4    5.70    1.50
   4   7   4    2.30    1.60
   4   7   4    3.00    1.50
   4   7   4    5.30    1.90
   4   7   4   10.20    2.10
  -5  -7  -4    1.20    1.70
  -5  -7  -4   -0.40    1.30
  -5  -7  -4    0.20    1.10
   5   7   4    0.60    1.80
   5   7   4   -1.30    1.50
   5   7   4   -1.20    1.40
  -6  -7  -4    1.00    1.70
  -6  -7  -4   -0.10    1.90
  -6  -7  -4   -1.20    1.40
   6   7   4   -0.20    1.50
   6   7   4    0.40    1.60
   6   7   4    0.60    2.10
   6   7   4   -0.70    1.60
   7  -8  -4    1.20    1.10
   7  -8  -4    0.00    1.10
   7  -8  -4   -0.10    1.10
  -7   8   4   -0.10    1.40
  -7   8   4    0.40    1.70
  -7   8   4    1.90    1.50
  -7   8   4   -0.30    1.40
   6  -8  -4   50.89    3.40
   6  -8  -4   54.19    3.70
   6  -8  -4   47.20    3.80
  -6   8   4   49.70    4.20
  -6   8   4   51.39    5.20
  -6   8   4   56.19    4.70
  -6   8   4   49.10    3.90
   5  -8  -4   14.80    1.90
   5  -8  -4   11.60    1.70
   5  -8  -4   15.00    2.10
   5  -8  -4   14.10    2.00
  -5   8   4   14.50    2.60
  -5   8   4   12.90    2.70
  -5   8   4   14.00    2.30
   4  -8  -4    4.40    1.20
   4  -8  -4    4.90    1.10
   4  -8  -4    3.40    1.00
   4  -8  -4    3.20    1.30
  -4   8   4    3.10    1.50
  -4   8   4    0.60    1.00
  -4   8   4    4.60    1.70
   3  -8  -4   10.50    1.60
   3  -8  -4   11.80    1.50
   3  -8  -4    8.50    1.30
   3  -8  -4    9.30    1.40
  -3   8   4    8.90    1.80
  -3   8   4   14.60    2.00
  -3   8   4   12.60    1.80
  -3   8   4   11.10    2.30
  -3   8   4   11.70    1.80
   2  -8  -4    4.30    1.10
   2  -8  -4    3.40    0.90
   2  -8  -4    4.60    1.00
  -2   8   4    3.40    1.30
  -2   8   4    5.20    1.30
  -2   8   4    3.10    1.30
   1  -8  -4   13.80    1.40
   1  -8  -4   12.00    1.70
   1  -8  -4   10.30    1.40
   1  -8  -4   10.80    1.80
  -1   8   4    8.20    1.80
  -1   8   4   11.20    2.00
  -1   8   4   13.40    2.10
   0  -8  -4    0.40    0.60
   0  -8  -4    0.50    0.60
   0  -8  -4    0.10    0.80
   0  -8  -4    0.30    0.80
   0   8   4    0.60    1.00
   0   8   4   -0.50    1.20
   0   8   4   -0.50    0.80
  -1  -8  -4    0.30    0.60
  -1  -8  -4   -1.00    0.70
  -1  -8  -4    0.80    0.60
  -1  -8  -4    0.00    0.90
   1   8   4    1.90    1.60
   1   8   4    0.80    1.20
   1   8   4    0.80    1.30
  -2  -8  -4    1.00    1.20
  -2  -8  -4   -1.70    0.70
  -2  -8  -4    0.80    1.00
   2   8   4    0.70    1.30
   2   8   4   -0.10    1.30
   2   8   4    0.80    1.20
  -3  -8  -4    0.20    1.20
  -3  -8  -4    2.30    1.20
  -3  -8  -4    0.50    1.10
  -3  -8  -4    1.60    1.40
   3   8   4   -0.30    1.30
   3   8   4   -0.90    1.30
   3   8   4    0.40    1.40
   3   8   4    1.50    1.40
  -4  -8  -4   -1.80    1.20
  -4  -8  -4   -1.70    1.10
  -4  -8  -4   -0.50    1.40
   4   8   4    1.40    1.50
   4   8   4   -0.80    1.10
   4   8   4   -2.50    1.40
  -5  -8  -4   -1.50    1.40
  -5  -8  -4    0.60    1.40
  -5  -8  -4    0.00    1.80
   5   8   4   -0.50    1.60
   5   8   4   -1.70    1.60
   5   8   4   -0.20    1.70
   6  -9  -4   -0.30    1.00
   6  -9  -4    2.30    1.60
   6  -9  -4    0.10    1.10
  -6   9   4    2.20    1.80
  -6   9   4   -1.50    1.70
  -6   9   4    0.60    1.50
   5  -9  -4    0.90    0.80
   5  -9  -4   -0.50    1.00
   5  -9  -4    1.80    1.30
  -5   9   4   -0.80    1.50
  -5   9   4    1.20    1.50
  -5   9   4   -0.40    1.20
   4  -9  -4    6.10    1.40
   4  -9  -4    5.70    1.30
   4  -9  -4    3.40    1.10
   4  -9  -4    5.60    1.60
  -4   9   4    5.90    2.10
  -4   9   4    4.10    1.60
   3  -9  -4    0.90    1.00
   3  -9  -4    1.30    0.80
   3  -9  -4    1.50    0.90
  -3   9   4    1.30    1.10
  -3   9   4    3.10    1.40
  -3   9   4    1.50    1.10
   2  -9  -4    1.90    1.00
   2  -9  -4    2.50    0.80
   2  -9  -4    2.90    1.00
  -2   9   4    3.10    1.30
  -2   9   4    4.10    1.60
  -2   9   4    2.60    1.20
   1  -9  -4    5.10    1.50
   1  -9  -4    6.40    1.10
   1  -9  -4    6.10    1.40
   1  -9  -4    6.00    1.10
  -1   9   4    7.00    1.70
  -1   9   4    5.10    1.60
  -1   9   4    3.00    1.40
   0  -9  -4    2.60    0.80
   0  -9  -4    1.30    1.00
   0  -9  -4    2.90    1.10
   0   9   4    2.30    1.20
   0   9   4    1.60    1.50
   0   9   4    0.40    1.20
  -1  -9  -4    2.60    1.20
  -1  -9  -4    0.90    1.20
   1   9   4   -0.30    1.20
   1   9   4   -1.00    1.40
  -2  -9  -4    0.30    0.80
  -2  -9  -4    0.20    1.00
   2   9   4    1.40    1.50
   2   9   4    0.10    1.30
  -3  -9  -4    1.00    1.30
  -3  -9  -4    0.70    1.50
   3   9   4   -1.90    1.40
   3   9   4    0.40    1.50
  -4  -9  -4   -0.20    1.40
  -4  -9  -4    0.70    1.70
   4   9   4   -2.00    1.50
   4   9   4    2.00    1.90
   4   9   4    1.90    2.00
   5 -10  -4    1.60    1.20
   5 -10  -4    0.20    1.00
  -5  10   4    2.50    1.80
  -5  10   4    1.50    1.60
   4 -10  -4    1.00    1.00
   4 -10  -4    1.60    1.10
  -4  10   4    1.70    2.00
  -4  10   4    0.70    1.40
   3 -10  -4    0.70    0.80
   3 -10  -4   -0.20    0.80
   3 -10  -4    0.20    0.90
  -3  10   4    0.30    1.50
   2 -10  -4   -1.00    0.80
   2 -10  -4   -1.00    0.70
   2 -10  -4    0.00    0.70
  -2  10   4    0.40    1.40
  -2  10   4    0.40    1.40
   1 -10  -4    1.10    1.10
  -1  10   4    1.30    1.40
  -1  10   4    3.30    1.40
  -1  10   4    2.00    1.70
   0 -10  -4   -0.50    1.00
   0 -10  -4   -0.50    1.00
   0  10   4    1.40    1.60
  -1 -10  -4   -0.20    1.10
  -1 -10  -4    2.50    1.40
   1  10   4    1.90    1.80
  -2 -10  -4    0.80    1.30
   2  10   4    1.10    1.30
   3 -11  -4    2.40    1.30
  -3  11   4    0.30    1.80
   2 -11  -4    5.10    1.60
  -2  11   4    5.40    2.10
   1 -11  -4    4.40    1.40
  -1  11   4    2.00    1.80
  -1  11   4    1.20    1.50
   0 -11  -4    6.40    1.70
   0  11   4   11.20    2.50
   3  12  -5    1.80    1.50
   3  12  -5   -0.60    1.00
   3  12  -5    1.00    1.80
  -3 -12   5    1.20    1.80
  -3 -12   5    0.90    1.60
   2  12  -5    4.40    1.90
   2  12  -5    1.60    1.30
  -2 -12   5    5.70    2.00
  -2 -12   5    2.60    1.40
   1  12  -5    3.40    2.00
  -1 -12   5    8.50    2.10
  -1 -12   5    4.30    1.80
   0  12  -5    3.20    1.90
   0 -12   5    2.90    1.40
  -1  12  -5    4.50    1.80
  -1  12  -5    5.80    1.80
   1 -12   5    4.80    1.50
  -2  12  -5    2.30    1.50
  -2  12  -5    4.40    2.10
   2 -12   5    0.40    0.80
  -3  12  -5   -1.20    1.40
  -3  12  -5    2.30    2.00
   3 -12   5    1.40    1.20
   4  11  -5    0.10    1.10
   4  11  -5    2.20    1.60
   4  11  -5   -0.80    0.90
  -4 -11   5    0.60    1.50
  -4 -11   5   -0.90    1.30
  -4 -11   5   -1.30    0.90
  -4 -11   5   -0.50    1.20
   3  11  -5    5.20    1.80
   3  11  -5    1.60    1.20
   3  11  -5    2.80    1.60
  -3 -11   5    6.10    1.60
  -3 -11   5    2.20    1.50
  -3 -11   5    2.10    1.40
  -3 -11   5    6.00    1.70
   2  11  -5   -0.80    1.10
   2  11  -5    1.80    1.30
   2  11  -5    0.20    1.30
   2  11  -5   -1.70    0.70
  -2 -11   5   -0.40    0.80
  -2 -11   5    0.80    1.50
  -2 -11   5    0.00    0.90
  -2 -11   5    0.10    1.20
   1  11  -5    0.20    1.00
   1  11  -5   -0.10    1.30
  -1 -11   5   -0.30    1.00
  -1 -11   5    1.20    1.30
  -1 -11   5    0.10    0.90
   0  11  -5    1.40    1.40
   0  11  -5    0.30    1.00
   0 -11   5   -0.80    0.80
   0 -11   5    0.00    0.90
   0 -11   5    1.00    1.10
  -1  11  -5   -1.00    1.00
  -1  11  -5    0.80    1.50
   1 -11   5   -0.50    1.00
   1 -11   5   -1.10    0.80
  -2  11  -5    2.60    1.40
  -2  11  -5    0.60    1.10
   2 -11   5    2.00    1.20
  -3  11  -5    0.50    1.30
  -3  11  -5   -0.40    1.40
   3 -11   5   -1.00    0.80
  -4  11  -5    2.10    1.80
  -4  11  -5    2.50    1.80
  -4  11  -5    3.40    1.60
   4 -11   5    1.90    1.10
  -5  11  -5   -0.30    1.60
  -5  11  -5    0.60    1.50
  -5  11  -5    0.70    1.40
   5 -11   5    0.90    1.20
   5 -11   5   -1.40    1.00
   5  10  -5   -0.50    1.10
   5  10  -5    2.50    1.40
   5  10  -5    1.10    1.40
  -5 -10   5    0.00    1.40
  -5 -10   5   -0.20    1.40
  -5 -10   5    0.80    1.30
  -5 -10   5   -2.30    1.40
   4  10  -5    1.60    1.00
   4  10  -5    3.70    1.30
   4  10  -5    0.80    1.00
  -4 -10   5    2.30    1.20
  -4 -10   5    0.80    0.90
  -4 -10   5    0.40    1.50
  -4 -10   5    0.50    1.40
  -4 -10   5    2.50    1.50
   3  10  -5    1.00    0.90
   3  10  -5   -0.20    0.80
   3  10  -5    1.70    1.20
   3  10  -5   -0.20    1.00
  -3 -10   5    0.40    0.80
  -3 -10   5    0.70    1.10
  -3 -10   5   -0.30    1.20
  -3 -10   5   -0.20    0.80
  -3 -10   5    1.00    0.90
   2  10  -5    9.80    1.80
   2  10  -5   10.80    2.10
   2  10  -5   15.70    2.40
   2  10  -5    9.30    1.60
  -2 -10   5    9.90    1.90
  -2 -10   5   12.10    2.00
  -2 -10   5   13.60    2.20
  -2 -10   5    9.40    1.60
  -2 -10   5   11.20    2.10
   1  10  -5    3.50    1.10
   1  10  -5    3.00    1.10
   1  10  -5    3.20    1.50
   1  10  -5    4.70    1.30
  -1 -10   5    3.00    1.00
  -1 -10   5    2.60    1.00
  -1 -10   5    3.30    1.20
  -1 -10   5    2.30    1.10
   0  10  -5    4.00    1.40
   0  10  -5    6.60    1.50
   0 -10   5    6.60    1.40
   0 -10   5    4.40    1.30
   0 -10   5    6.50    1.50
  -1  10  -5    8.40    1.80
  -1  10  -5    9.20    2.00
   1 -10   5    8.10    1.50
   1 -10   5    6.40    1.40
   1 -10   5    5.30    1.40
  -2  10  -5   20.70    2.90
  -2  10  -5   18.50    2.70
   2 -10   5   21.80    2.40
   2 -10   5   21.00    2.40
  -3  10  -5    3.50    1.70
  -3  10  -5    3.80    1.30
  -3  10  -5    5.60    1.70
   3 -10   5    5.60    1.30
   3 -10   5    4.80    1.30
  -4  10  -5   19.30    2.60
  -4  10  -5   15.20    2.70
  -4  10  -5   16.80    2.80
   4 -10   5   17.20    2.00
   4 -10   5   20.30    2.30
  -5  10  -5   19.60    2.90
  -5  10  -5   18.30    3.00
  -5  10  -5   14.70    2.70
   5 -10   5   21.90    2.60
   5 -10   5   22.40    2.40
  -6  10  -5    2.70    1.90
  -6  10  -5    5.70    2.30
   6 -10   5    2.50    1.60
   6 -10   5    6.50    1.70
   6   9  -5    0.60    1.50
   6   9  -5    1.50    1.10
  -6  -9   5    1.40    1.00
  -6  -9   5    0.00    1.40
  -6  -9   5    2.90    1.90
  -6  -9   5    1.10    1.90
   5   9  -5    7.90    1.70
   5   9  -5    6.50    1.70
   5   9  -5   11.40    2.30
  -5  -9   5    6.70    2.10
  -5  -9   5    9.00    1.80
  -5  -9   5   10.70    2.40
  -5  -9   5    9.20    2.00
  -5  -9   5    4.90    1.90
   4   9  -5    8.70    1.80
   4   9  -5    6.60    1.60
   4   9  -5    7.70    1.70
   4   9  -5    8.40    1.80
  -4  -9   5    9.00    1.90
  -4  -9   5    7.40    1.90
  -4  -9   5    9.10    1.70
  -4  -9   5    6.90    2.00
  -4  -9   5    6.90    1.90
   3   9  -5   -0.10    1.00
   3   9  -5   -0.90    0.80
   3   9  -5    0.80    0.80
   3   9  -5    0.10    0.90
  -3  -9   5   -0.20    1.00
  -3  -9   5    1.00    0.90
  -3  -9   5    1.50    1.00
  -3  -9   5    0.10    0.70
  -3  -9   5   -0.20    0.70
   2   9  -5    7.10    1.40
   2   9  -5    8.00    1.50
   2   9  -5    7.60    1.30
   2   9  -5    7.90    1.60
  -2  -9   5    9.30    1.40
  -2  -9   5    5.20    1.40
  -2  -9   5    9.70    1.60
  -2  -9   5   10.30    1.90
  -2  -9   5    6.70    1.60
   1   9  -5    3.40    1.10
   1   9  -5    2.60    1.00
   1   9  -5    2.30    0.90
   1   9  -5    3.90    1.10
  -1  -9   5    2.40    1.00
  -1  -9   5    4.00    1.20
  -1  -9   5    1.70    1.00
  -1  -9   5    1.40    0.70
  -1  -9   5    2.80    1.00
   0   9  -5    4.70    1.30
   0   9  -5    5.40    1.20
   0   9  -5    5.30    1.20
   0  -9   5    5.70    1.20
   0  -9   5    5.80    1.30
   0  -9   5    4.60    1.20
  -1   9  -5   80.59    5.00
  -1   9  -5   83.99    4.80
   1  -9   5   81.89    4.60
   1  -9   5   85.89    4.50
   1  -9   5   80.19    4.60
  -2   9  -5   12.90    2.30
  -2   9  -5   14.60    2.00
  -2   9  -5   14.40    2.20
   2  -9   5   19.30    2.00
   2  -9   5   19.30    2.10
   2  -9   5   16.40    1.90
  -3   9  -5    9.40    1.90
  -3   9  -5    7.00    1.50
  -3   9  -5    6.70    1.80
   3  -9   5   10.60    1.60
   3  -9   5   11.60    1.70
   3  -9   5    9.10    1.30
  -4   9  -5    0.50    1.00
  -4   9  -5    1.60    1.00
  -4   9  -5    1.10    1.20
   4  -9   5   -0.30    0.90
   4  -9   5    0.30    0.80
   4  -9   5   -1.00    0.70
  -5   9  -5   -1.80    1.30
  -5   9  -5   -1.00    1.20
  -5   9  -5    2.60    1.30
  -5   9  -5   -0.70    0.90
  -5   9  -5    3.70    1.50
   5  -9   5    2.40    1.10
   5  -9   5    3.00    1.20
   5  -9   5    1.10    1.00
   5  -9   5    0.50    0.90
  -6   9  -5    5.80    1.70
  -6   9  -5    9.80    2.10
  -6   9  -5    5.00    1.90
  -6   9  -5    8.80    2.50
   6  -9   5    5.40    1.50
   6  -9   5   10.00    1.90
   6  -9   5    9.80    1.80
   7   8  -5   -0.10    1.30
   7   8  -5    0.50    1.00
  -7  -8   5    0.50    1.90
  -7  -8   5    1.30    1.80
  -7  -8   5    0.20    1.10
  -7  -8   5    1.40    1.40
   6   8  -5   -0.60    1.00
   6   8  -5   -0.60    0.70
   6   8  -5   -0.10    1.20
  -6  -8   5    1.10    1.70
  -6  -8   5    1.60    1.60
  -6  -8   5   -0.50    0.80
  -6  -8   5   -0.50    0.90
  -6  -8   5   -0.50    1.40
   5   8  -5    4.50    1.70
   5   8  -5    3.40    1.20
   5   8  -5    3.20    1.40
   5   8  -5    5.20    1.50
  -5  -8   5    3.90    1.70
  -5  -8   5    2.60    1.50
  -5  -8   5    5.10    1.60
  -5  -8   5    2.60    1.40
  -5  -8   5    4.10    1.30
   4   8  -5    2.70    1.40
   4   8  -5    4.90    1.30
   4   8  -5    3.40    1.30
   4   8  -5    3.70    1.20
  -4  -8   5    4.40    1.60
  -4  -8   5    5.80    1.60
  -4  -8   5    3.70    1.20
  -4  -8   5    1.30    1.10
  -4  -8   5    4.30    1.30
  -4  -8   5    3.30    1.10
   3   8  -5   83.29    4.10
   3   8  -5   80.09    4.40
   3   8  -5   79.79    4.50
   3   8  -5   70.89    4.50
  -3  -8   5   76.19    4.40
  -3  -8   5   68.49    4.50
  -3  -8   5   73.59    4.60
  -3  -8   5   79.99    4.40
  -3  -8   5   77.69    4.90
  -3  -8   5   75.99    4.80
   2   8  -5   37.70    2.70
   2   8  -5   33.60    2.60
   2   8  -5   35.40    2.70
   2   8  -5   35.10    2.40
  -2  -8   5   35.70    2.70
  -2  -8   5   30.00    2.60
  -2  -8   5   29.90    2.70
  -2  -8   5   35.40    2.50
  -2  -8   5   35.60    2.50
  -2  -8   5   32.90    2.70
   1   8  -5    5.10    1.10
   1   8  -5    4.70    1.10
   1   8  -5    9.90    1.60
   1   8  -5    4.50    1.10
  -1  -8   5    5.10    1.20
  -1  -8   5    6.80    1.40
  -1  -8   5    5.80    1.10
  -1  -8   5    4.80    1.20
  -1  -8   5    4.80    1.10
   0   8  -5   45.20    2.80
   0   8  -5   44.10    2.90
   0   8  -5   42.00    2.60
   0   8  -5   40.60    3.00
   0  -8   5   46.20    2.90
   0  -8   5   48.20    2.90
   0  -8   5   45.80    2.60
   0  -8   5   43.20    3.00
   0  -8   5   44.80    2.80
  -1   8  -5   12.60    1.80
  -1   8  -5    9.20    1.70
  -1   8  -5   11.40    1.50
   1  -8   5   11.60    1.50
   1  -8   5   12.40    1.60
   1  -8   5   13.60    1.60
  -2   8  -5   29.00    2.90
  -2   8  -5   25.10    2.20
  -2   8  -5   24.80    2.80
   2  -8   5   29.40    1.90
   2  -8   5   31.30    2.20
   2  -8   5   33.20    2.20
   2  -8   5   28.90    2.20
  -3   8  -5   27.10    2.90
  -3   8  -5   28.80    2.30
  -3   8  -5   25.30    2.90
  -3   8  -5   29.20    2.50
   3  -8   5   30.20    2.20
   3  -8   5   35.90    2.50
   3  -8   5   26.80    2.00
   3  -8   5   32.00    2.20
   3  -8   5   26.80    2.00
   3  -8   5   29.00    2.10
  -4   8  -5    0.40    1.10
  -4   8  -5    0.10    1.10
  -4   8  -5   -0.10    0.70
  -4   8  -5    1.40    1.00
  -4   8  -5    0.70    0.90
  -4   8  -5    0.90    0.80
   4  -8   5    1.20    0.80
   4  -8   5    0.90    0.70
   4  -8   5    0.00    0.50
   4  -8   5    0.40    0.70
   4  -8   5    2.30    1.10
   4  -8   5    1.00    0.70
  -5   8  -5   14.60    2.10
  -5   8  -5   12.00    1.90
  -5   8  -5   13.30    2.40
  -5   8  -5   18.00    2.50
  -5   8  -5   13.90    2.00
  -5   8  -5   11.80    2.20
   5  -8   5   13.40    1.90
   5  -8   5   18.10    2.20
   5  -8   5   12.50    1.80
   5  -8   5   14.90    1.90
   5  -8   5   14.20    1.80
  -6   8  -5    5.70    1.70
  -6   8  -5    1.90    1.40
  -6   8  -5    3.60    1.70
  -6   8  -5    0.50    1.00
  -6   8  -5   -0.10    1.10
   6  -8   5    2.00    1.30
   6  -8   5    3.40    1.30
   6  -8   5    0.20    1.00
   6  -8   5   -0.40    1.00
  -7   8  -5    1.20    1.60
  -7   8  -5    0.50    1.80
  -7   8  -5    1.60    1.60
  -7   8  -5    0.90    1.30
   7  -8   5    0.70    1.30
   7  -8   5    1.90    1.40
   7  -8   5    0.90    1.30
   8   7  -5    0.90    1.60
  -8  -7   5   -1.10    1.80
  -8  -7   5    0.20    1.10
  -8  -7   5   -0.20    1.50
   7   7  -5    2.20    1.50
   7   7  -5    4.70    1.60
  -7  -7   5    2.20    1.90
  -7  -7   5    3.40    2.00
  -7  -7   5    2.80    1.40
  -7  -7   5    1.50    1.60
  -7  -7   5    2.90    1.80
   6   7  -5    0.00    0.90
   6   7  -5   -1.30    0.90
   6   7  -5    0.20    1.00
   6   7  -5    1.50    0.90
  -6  -7   5   -0.80    1.40
  -6  -7   5    0.40    1.30
  -6  -7   5    0.40    0.90
  -6  -7   5   -0.10    0.90
  -6  -7   5   -0.20    1.20
  -6  -7   5   -0.60    0.90
   5   7  -5    2.50    1.00
   5   7  -5    1.50    1.10
   5   7  -5    1.00    1.00
   5   7  -5    1.90    1.30
  -5  -7   5    1.30    1.10
  -5  -7   5    3.30    1.20
  -5  -7   5    3.40    1.30
  -5  -7   5    1.70    1.20
  -5  -7   5    2.00    0.90
  -5  -7   5    1.10    1.30
   4   7  -5  103.69    5.60
   4   7  -5  110.39    5.50
   4   7  -5   97.89    5.60
  -4  -7   5  113.69    6.20
  -4  -7   5   97.29    5.80
  -4  -7   5  111.79    5.60
  -4  -7   5  101.99    5.40
  -4  -7   5  113.59    6.00
  -4  -7   5  109.79    6.20
   3   7  -5   12.80    1.40
   3   7  -5   15.70    2.00
   3   7  -5   13.40    1.80
   3   7  -5   12.40    1.70
  -3  -7   5   12.30    1.60
  -3  -7   5   11.40    1.80
  -3  -7   5   10.50    1.70
  -3  -7   5   15.60    1.80
  -3  -7   5   13.00    1.90
  -3  -7   5   14.30    1.90
   2   7  -5  267.97   10.60
   2   7  -5  241.48   10.90
   2   7  -5  252.47   10.80
   2   7  -5  236.08   10.80
  -2  -7   5  229.98   11.00
  -2  -7   5  253.47   10.90
  -2  -7   5  240.78   11.10
  -2  -7   5  259.17   11.00
  -2  -7   5  246.18   10.70
  -2  -7   5  262.97   10.70
   1   7  -5   48.70    3.00
   1   7  -5   49.50    3.00
   1   7  -5   52.29    3.00
   1   7  -5   49.99    2.90
  -1  -7   5   44.50    2.90
  -1  -7   5   50.89    2.80
  -1  -7   5   53.19    3.20
  -1  -7   5   46.90    3.10
  -1  -7   5   50.29    2.90
  -1  -7   5   47.10    3.00
   0   7  -5    6.00    1.00
   0   7  -5    4.60    1.00
   0   7  -5    5.80    1.20
   0   7  -5    7.10    1.00
   0   7  -5    4.10    0.90
   0  -7   5    6.60    1.10
   0  -7   5    4.50    0.80
   0  -7   5    6.80    1.10
   0  -7   5    6.30    1.10
   0  -7   5    4.20    0.90
   0  -7   5    6.40    0.90
  -1   7  -5   84.49    4.30
  -1   7  -5   81.89    4.50
  -1   7  -5   86.59    4.70
  -1   7  -5   80.29    4.10
   1  -7   5   81.39    3.80
   1  -7   5   82.69    4.20
   1  -7   5   89.29    4.20
   1  -7   5   93.89    4.40
   1  -7   5   95.39    4.40
  -2   7  -5   84.29    4.10
  -2   7  -5   83.29    4.40
  -2   7  -5   80.69    4.60
  -2   7  -5   81.59    4.70
  -2   7  -5   85.49    4.10
  -2   7  -5   83.19    4.10
   2  -7   5   87.49    4.30
   2  -7   5   86.69    4.10
   2  -7   5   84.79    4.30
   2  -7   5   76.99    3.90
   2  -7   5   83.69    3.90
  -3   7  -5   -0.90    0.70
  -3   7  -5    0.10    0.50
  -3   7  -5    0.10    0.60
  -3   7  -5    0.30    0.50
  -3   7  -5    0.80    0.90
  -3   7  -5   -0.40    0.60
   3  -7   5    0.20    0.50
   3  -7   5   -0.50    0.60
   3  -7   5    0.10    0.60
   3  -7   5    0.00    0.60
   3  -7   5   -0.10    0.50
  -4   7  -5    0.90    1.00
  -4   7  -5   -0.40    0.70
  -4   7  -5   -0.10    0.90
  -4   7  -5    0.50    0.80
  -4   7  -5    1.20    1.00
  -4   7  -5    0.80    0.70
   4  -7   5    0.80    0.70
   4  -7   5    0.20    0.60
   4  -7   5    0.80    0.90
   4  -7   5    0.40    0.60
   4  -7   5    0.70    0.80
  -5   7  -5    0.90    1.00
  -5   7  -5    1.10    1.20
  -5   7  -5    0.90    1.00
  -5   7  -5    2.90    1.00
  -5   7  -5    2.00    1.10
   5  -7   5    2.10    1.10
   5  -7   5    2.80    1.10
   5  -7   5    2.50    0.90
   5  -7   5    1.40    1.00
   5  -7   5    1.50    0.80
  -6   7  -5    3.00    1.40
  -6   7  -5    4.80    1.70
  -6   7  -5    4.10    1.50
  -6   7  -5    3.30    1.30
  -6   7  -5    4.40    1.80
   6  -7   5    8.40    1.80
   6  -7   5    4.30    1.30
   6  -7   5    4.30    1.40
   6  -7   5    3.40    1.30
  -7   7  -5   -0.30    1.20
  -7   7  -5   -0.20    1.10
  -7   7  -5    3.10    1.40
  -7   7  -5   -2.80    1.30
   7  -7   5    0.60    1.20
   7  -7   5    2.30    1.40
   8   6  -5    0.10    1.30
   8   6  -5    0.90    1.40
   8   6  -5    0.00    1.20
  -8  -6   5   -0.20    1.30
  -8  -6   5   -1.00    1.80
  -8  -6   5   -0.80    1.70
  -8  -6   5    0.40    1.10
   7   6  -5    3.00    1.10
   7   6  -5    4.80    1.70
   7   6  -5    1.00    1.20
  -7  -6   5    2.00    1.20
  -7  -6   5    1.40    1.50
  -7  -6   5    2.80    1.20
  -7  -6   5    3.30    1.70
  -7  -6   5   -0.20    1.50
  -7  -6   5    2.40    1.50
   6   6  -5   35.60    3.40
   6   6  -5   40.20    3.80
   6   6  -5   43.30    2.90
   6   6  -5   34.60    2.90
  -6  -6   5   32.50    3.20
  -6  -6   5   34.80    3.70
  -6  -6   5   33.30    3.70
  -6  -6   5   32.60    3.60
  -6  -6   5   32.50    3.70
  -6  -6   5   40.40    3.00
   5   6  -5   39.70    3.10
   5   6  -5   38.80    3.10
   5   6  -5   49.80    3.00
  -5  -6   5   37.10    3.10
  -5  -6   5   40.90    3.50
  -5  -6   5   44.90    3.10
  -5  -6   5   43.00    3.50
  -5  -6   5   42.50    3.10
  -5  -6   5   45.80    3.60
   4   6  -5  100.99    4.90
   4   6  -5   99.09    4.50
   4   6  -5   89.89    5.00
   4   6  -5   88.89    5.10
  -4  -6   5   86.89    5.10
  -4  -6   5   85.19    5.10
  -4  -6   5   92.19    5.30
  -4  -6   5   95.39    5.00
  -4  -6   5   86.89    5.20
  -4  -6   5   97.29    4.90
   3   6  -5   94.59    5.00
   3   6  -5  101.79    5.10
   3   6  -5  102.09    4.60
   3   6  -5  100.49    4.90
  -3  -6   5   93.19    5.10
  -3  -6   5   99.99    4.90
  -3  -6   5  102.39    5.20
  -3  -6   5   89.39    5.10
  -3  -6   5   92.29    4.90
  -3  -6   5   88.59    5.10
   2   6  -5   -0.80    0.50
   2   6  -5    0.40    0.50
   2   6  -5    0.20    0.40
   2   6  -5   -0.10    0.50
  -2  -6   5    0.00    0.50
  -2  -6   5    0.00    0.50
  -2  -6   5   -0.30    0.50
  -2  -6   5    1.00    0.50
  -2  -6   5   -0.10    0.40
  -2  -6   5   -0.50    0.40
   1   6  -5    6.70    1.10
   1   6  -5    8.00    0.90
   1   6  -5    8.60    1.20
   1   6  -5    7.20    1.10
   1   6  -5    7.40    1.10
  -1  -6   5   10.40    1.20
  -1  -6   5    6.80    1.10
  -1  -6   5    8.20    1.20
  -1  -6   5    6.50    1.00
  -1  -6   5    8.40    1.20
  -1  -6   5    6.10    0.90
   0   6  -5   56.99    3.10
   0   6  -5   54.19    3.00
   0   6  -5   56.29    2.90
   0   6  -5   56.99    3.00
   0   6  -5   51.19    3.10
   0  -6   5   62.69    2.90
   0  -6   5   56.19    3.00
   0  -6   5   57.29    3.00
   0  -6   5   55.29    2.90
   0  -6   5   57.49    3.10
   0  -6   5   54.09    3.00
   0  -6   5   49.10    2.50
  -1   6  -5    1.60    0.50
  -1   6  -5    2.10    0.60
  -1   6  -5    2.10    0.60
  -1   6  -5    3.20    0.90
  -1   6  -5    0.90    0.60
  -1   6  -5    1.10    0.40
  -1   6  -5    2.20    0.50
   1  -6   5    1.90    0.50
   1  -6   5    1.40    0.40
   1  -6   5    2.70    0.50
   1  -6   5    1.70    0.60
   1  -6   5    1.40    0.40
   1  -6   5    2.90    0.70
   1  -6   5    0.50    0.50
   1  -6   5    1.70    0.70
  -2   6  -5    1.70    0.60
  -2   6  -5    0.80    0.50
  -2   6  -5    2.40    0.70
  -2   6  -5    2.00    0.80
  -2   6  -5    2.90    0.70
  -2   6  -5    2.10    0.80
   2  -6   5    2.50    0.60
   2  -6   5    2.30    0.70
   2  -6   5    2.10    0.60
   2  -6   5    1.30    0.60
   2  -6   5    2.40    0.70
  -3   6  -5   24.40    1.90
  -3   6  -5   24.30    2.50
  -3   6  -5   24.20    2.40
  -3   6  -5   23.10    2.40
  -3   6  -5   24.10    2.00
  -3   6  -5   22.20    1.80
   3  -6   5   27.00    2.00
   3  -6   5   23.40    1.80
   3  -6   5   24.40    1.80
   3  -6   5   30.10    2.10
  -4   6  -5    4.30    1.10
  -4   6  -5    4.70    1.10
  -4   6  -5    4.30    1.30
  -4   6  -5    3.00    1.10
  -4   6  -5    7.10    1.40
  -4   6  -5    4.40    1.30
   4  -6   5    5.10    1.20
   4  -6   5    5.70    1.10
   4  -6   5    5.80    1.30
   4  -6   5    5.60    1.10
  -5   6  -5   10.40    1.70
  -5   6  -5   12.40    2.10
  -5   6  -5   13.40    2.10
  -5   6  -5   11.40    1.80
  -5   6  -5   13.20    2.00
   5  -6   5   12.50    1.80
   5  -6   5   14.70    1.70
   5  -6   5   11.30    1.60
   5  -6   5   13.60    1.90
   5  -6   5   12.30    1.80
  -6   6  -5    0.40    1.10
  -6   6  -5    1.20    1.30
  -6   6  -5   -0.10    1.00
  -6   6  -5    1.10    1.20
  -6   6  -5   -0.80    0.90
   6  -6   5    0.00    1.00
   6  -6   5    0.50    0.90
   6  -6   5    0.00    0.80
   6  -6   5   -0.20    0.90
   6  -6   5    0.80    1.00
  -7   6  -5   10.20    2.10
  -7   6  -5   11.40    2.20
  -7   6  -5    8.20    2.20
  -7   6  -5    5.90    2.00
   7  -6   5   11.30    2.10
   7  -6   5   13.00    2.20
  -8   6  -5    0.70    1.60
   8  -6   5    0.30    1.40
   8   5  -5    1.90    1.30
   8   5  -5    1.40    1.30
   8   5  -5    0.00    1.00
  -8  -5   5    1.10    1.20
  -8  -5   5    0.40    1.00
  -8  -5   5    0.60    1.80
  -8  -5   5    0.70    1.60
   7   5  -5   28.00    3.00
   7   5  -5   27.70    3.30
   7   5  -5   22.00    2.70
   7   5  -5   29.40    2.40
  -7  -5   5   22.60    3.00
  -7  -5   5   27.30    2.80
  -7  -5   5   28.20    3.40
  -7  -5   5   35.10    3.90
  -7  -5   5   29.00    2.40
  -7  -5   5   21.20    2.90
  -7  -5   5   29.50    3.00
   6   5  -5    1.60    1.00
   6   5  -5    0.40    0.70
   6   5  -5    0.20    0.60
   6   5  -5    1.60    1.00
  -6  -5   5   -0.60    0.70
  -6  -5   5    1.50    0.80
  -6  -5   5    1.70    0.90
  -6  -5   5    1.00    1.20
  -6  -5   5    1.50    1.00
  -6  -5   5    0.90    1.30
  -6  -5   5    1.70    1.20
   5   5  -5    0.10    0.60
   5   5  -5    0.60    0.70
   5   5  -5    0.20    0.70
   5   5  -5    0.10    0.60
  -5  -5   5    0.40    0.50
  -5  -5   5    0.10    0.70
  -5  -5   5   -0.60    0.80
  -5  -5   5   -0.80    0.50
  -5  -5   5   -1.10    0.70
  -5  -5   5    0.00    0.70
  -5  -5   5    0.70    0.70
   4   5  -5   28.80    2.30
   4   5  -5   29.60    2.70
   4   5  -5   30.20    2.10
   4   5  -5   27.00    1.80
  -4  -5   5   22.90    2.50
  -4  -5   5   22.80    2.00
  -4  -5   5   26.00    2.00
  -4  -5   5   25.60    2.30
  -4  -5   5   25.30    2.30
  -4  -5   5   28.50    2.40
  -4  -5   5   28.50    2.00
   3   5  -5   -0.30    0.50
   3   5  -5    0.10    0.40
   3   5  -5    0.20    0.30
   3   5  -5   -0.20    0.60
   3   5  -5   -0.20    0.60
  -3  -5   5    0.30    0.50
  -3  -5   5   -0.30    0.40
  -3  -5   5    0.70    0.60
  -3  -5   5    0.20    0.40
  -3  -5   5   -0.60    0.50
  -3  -5   5    0.40    0.50
   2   5  -5   17.10    1.30
   2   5  -5   17.00    1.70
   2   5  -5   15.70    1.50
   2   5  -5   14.30    1.60
   2   5  -5   15.10    1.00
  -2  -5   5   13.70    1.50
  -2  -5   5   17.60    1.40
  -2  -5   5   15.40    1.60
  -2  -5   5   12.30    1.50
  -2  -5   5   13.90    1.40
  -2  -5   5   13.40    1.50
   1   5  -5   75.39    3.80
   1   5  -5   74.09    3.90
   1   5  -5   79.89    3.50
   1   5  -5   81.99    3.70
  -1  -5   5   70.89    3.70
  -1  -5   5   76.99    3.70
  -1  -5   5   68.59    3.70
  -1  -5   5   74.29    3.80
  -1  -5   5   78.59    3.90
  -1  -5   5   78.89    3.70
   0   5  -5  220.08    8.70
   0   5  -5  215.58    9.20
   0   5  -5  223.78    9.10
   0   5  -5  217.38    9.20
   0   5  -5  203.88    9.20
   0   5  -5  216.68    8.70
   0  -5   5  224.48    9.00
   0  -5   5  219.58    9.10
   0  -5   5  210.78    8.60
   0  -5   5  227.18    9.10
   0  -5   5  223.68    9.20
   0  -5   5  221.68    9.20
   0  -5   5  222.68    9.00
  -1   5  -5   81.39    3.90
  -1   5  -5   82.59    3.80
  -1   5  -5   82.89    4.20
  -1   5  -5   83.89    3.90
  -1   5  -5   85.69    3.80
  -1   5  -5   89.09    4.30
  -1   5  -5   86.89    4.10
   1  -5   5   82.99    3.70
   1  -5   5   88.49    4.00
   1  -5   5   86.29    3.70
   1  -5   5   86.79    4.00
   1  -5   5   83.19    4.00
   1  -5   5   81.79    3.70
   1  -5   5   87.99    4.00
  -2   5  -5  191.08    7.80
  -2   5  -5  178.08    7.80
  -2   5  -5  183.58    7.90
  -2   5  -5  173.28    8.10
  -2   5  -5  182.38    8.20
  -2   5  -5  179.08    8.10
   2  -5   5  184.58    8.00
   2  -5   5  186.08    7.70
   2  -5   5  201.28    7.90
   2  -5   5  175.98    7.70
   2  -5   5  189.08    8.00
  -3   5  -5  135.49    6.40
  -3   5  -5  140.99    6.40
  -3   5  -5  130.79    6.60
  -3   5  -5  140.39    6.30
  -3   5  -5  143.09    6.70
  -3   5  -5  133.19    6.50
   3  -5   5  151.68    6.30
   3  -5   5  144.69    6.50
   3  -5   5  134.99    6.40
   3  -5   5  137.39    6.20
   3  -5   5  141.99    6.10
  -4   5  -5    1.00    0.90
  -4   5  -5    1.00    0.80
  -4   5  -5    0.40    0.90
  -4   5  -5    2.60    0.80
  -4   5  -5    1.20    0.80
  -4   5  -5    1.70    0.90
   4  -5   5    2.30    0.90
   4  -5   5    1.00    0.80
   4  -5   5    1.90    0.90
   4  -5   5    1.80    0.90
  -5   5  -5   40.80    3.20
  -5   5  -5   38.50    2.90
  -5   5  -5   36.60    2.80
  -5   5  -5   37.70    3.10
  -5   5  -5   42.10    3.00
   5  -5   5   41.10    3.10
   5  -5   5   38.50    2.70
   5  -5   5   41.50    2.80
   5  -5   5   37.30    2.80
  -6   5  -5    4.80    1.60
  -6   5  -5    1.00    1.20
  -6   5  -5    0.70    0.90
  -6   5  -5    1.00    1.00
  -6   5  -5    3.40    1.40
   6  -5   5    5.10    1.40
   6  -5   5    4.90    1.40
   6  -5   5    2.10    0.90
   6  -5   5    3.90    1.40
  -7   5  -5    0.20    1.20
  -7   5  -5    0.10    1.40
  -7   5  -5    1.30    1.30
  -7   5  -5    1.30    1.30
   7  -5   5    0.40    0.90
   7  -5   5    0.50    1.30
   7  -5   5   -0.10    1.20
  -8   5  -5   -0.10    1.50
  -8   5  -5   -2.40    1.50
  -8   5  -5   -2.30    1.50
   8  -5   5    2.10    1.60
   8  -5   5    0.50    1.50
   9   4  -5    0.50    1.60
   9   4  -5    0.80    1.50
   9   4  -5    0.70    1.40
  -9  -4   5    3.80    1.70
  -9  -4   5    0.30    1.20
  -9  -4   5    1.10    2.00
   8   4  -5    1.90    1.20
   8   4  -5    1.60    1.30
   8   4  -5    0.90    0.90
   8   4  -5    2.90    1.50
  -8  -4   5   -0.40    0.70
  -8  -4   5    0.60    1.30
  -8  -4   5    0.40    1.10
  -8  -4   5   -2.60    1.40
  -8  -4   5   -2.10    1.40
   7   4  -5    1.40    0.90
   7   4  -5   -0.10    1.10
   7   4  -5    1.10    1.00
   7   4  -5   -0.50    0.80
  -7  -4   5   -0.50    0.70
  -7  -4   5   -0.80    1.20
  -7  -4   5   -0.90    0.70
  -7  -4   5    0.20    0.80
  -7  -4   5   -1.00    0.80
  -7  -4   5    1.10    1.30
  -7  -4   5   -0.80    1.10
   6   4  -5   20.50    2.40
   6   4  -5   19.30    2.10
   6   4  -5   20.60    2.00
   6   4  -5   16.10    2.20
  -6  -4   5   17.10    2.00
  -6  -4   5   17.20    2.10
  -6  -4   5   16.40    1.90
  -6  -4   5   16.90    2.40
  -6  -4   5   17.20    2.30
  -6  -4   5   18.40    2.50
  -6  -4   5   21.10    2.50
  -6  -4   5   18.70    2.00
   5   4  -5   48.20    3.00
   5   4  -5   42.20    3.10
   5   4  -5   49.30    2.80
   5   4  -5   48.10    3.20
  -5  -4   5   48.90    3.10
  -5  -4   5   43.70    3.20
  -5  -4   5   45.20    2.90
  -5  -4   5   50.49    2.90
  -5  -4   5   49.10    2.90
  -5  -4   5   45.60    3.20
  -5  -4   5   42.20    3.10
  -5  -4   5   43.30    3.20
   4   4  -5    3.60    0.90
   4   4  -5    4.00    1.00
   4   4  -5    4.60    1.10
   4   4  -5    3.60    0.70
   4   4  -5    5.50    0.90
  -4  -4   5    3.80    1.00
  -4  -4   5    3.80    0.90
  -4  -4   5    3.00    0.90
  -4  -4   5    2.70    0.80
  -4  -4   5    5.10    1.00
  -4  -4   5    3.00    1.00
  -4  -4   5    2.90    0.70
   3   4  -5   23.50    1.70
   3   4  -5   25.80    1.50
   3   4  -5   28.60    1.70
   3   4  -5   25.70    2.00
  -3  -4   5   22.30    1.70
  -3  -4   5   24.80    1.80
  -3  -4   5   22.60    1.80
  -3  -4   5   21.80    1.80
  -3  -4   5   22.20    1.80
  -3  -4   5   24.50    1.90
  -3  -4   5   19.40    1.60
   2   4  -5  270.87   10.50
   2   4  -5  289.37   11.00
   2   4  -5  298.67   11.20
   2   4  -5  262.17   11.60
   2   4  -5  287.77   11.40
  -2  -4   5  260.87   11.30
  -2  -4   5  276.77   11.30
  -2  -4   5  263.07   11.40
  -2  -4   5  258.07   11.30
  -2  -4   5  281.67   11.30
  -2  -4   5  277.17   11.40
  -2  -4   5  270.77   11.50
   1   4  -5  240.08   10.30
   1   4  -5  248.08    9.50
   1   4  -5  238.18   10.10
   1   4  -5  257.47   10.10
   1   4  -5  264.37    9.90
  -1  -4   5  249.68   10.10
  -1  -4   5  255.97   10.10
  -1  -4   5  240.98   10.10
  -1  -4   5  237.28   10.10
  -1  -4   5  235.08   10.10
  -1  -4   5  237.48   10.20
   0   4  -5  179.08    7.70
   0   4  -5  181.58    7.20
   0   4  -5  178.08    7.30
   0   4  -5  179.78    7.70
   0   4  -5  186.78    7.70
   0   4  -5  184.98    7.60
   0  -4   5  193.18    7.60
   0  -4   5  188.08    7.60
   0  -4   5  164.98    7.10
   0  -4   5  175.58    7.60
   0  -4   5  189.58    7.60
   0  -4   5  188.88    7.60
   0  -4   5  182.18    7.70
  -1   4  -5  230.58    9.70
  -1   4  -5  243.18    9.70
  -1   4  -5  244.88    9.70
  -1   4  -5  234.18    9.70
  -1   4  -5  229.08   10.00
  -1   4  -5  238.18   10.00
  -1   4  -5  239.98   10.00
   1  -4   5  251.87    9.90
   1  -4   5  246.88    9.90
   1  -4   5  251.07    9.90
   1  -4   5  224.78    9.60
   1  -4   5  250.97    9.90
   1  -4   5  242.38    9.60
   1  -4   5  248.38    9.70
  -2   4  -5   36.10    2.40
  -2   4  -5   34.10    2.30
  -2   4  -5   42.00    2.40
  -2   4  -5   37.20    2.20
  -2   4  -5   38.00    1.90
  -2   4  -5   40.70    2.20
  -2   4  -5   39.20    2.20
   2  -4   5   37.50    1.90
   2  -4   5   42.20    2.40
   2  -4   5   39.50    2.20
   2  -4   5   37.40    2.10
   2  -4   5   41.30    2.30
   2  -4   5   44.10    2.40
  -3   4  -5   27.00    2.10
  -3   4  -5   24.60    2.00
  -3   4  -5   27.20    2.00
  -3   4  -5   25.30    1.90
  -3   4  -5   27.30    1.90
  -3   4  -5   28.20    1.90
   3  -4   5   26.50    2.00
   3  -4   5   28.60    2.00
   3  -4   5   27.20    2.00
   3  -4   5   27.20    1.90
  -4   4  -5   15.50    1.80
  -4   4  -5   14.30    1.70
  -4   4  -5   12.70    1.60
  -4   4  -5   11.90    1.70
  -4   4  -5   11.90    1.50
   4  -4   5   16.30    1.80
   4  -4   5   16.00    1.90
   4  -4   5   11.00    1.40
   4  -4   5   14.40    1.60
   4  -4   5   13.10    1.60
  -5   4  -5    2.40    1.10
  -5   4  -5    1.70    0.90
  -5   4  -5    2.50    1.00
  -5   4  -5    2.70    1.00
  -5   4  -5    3.40    1.20
   5  -4   5    1.00    0.80
   5  -4   5    2.30    1.00
   5  -4   5    1.30    1.00
   5  -4   5    2.60    1.10
  -6   4  -5    7.40    1.70
  -6   4  -5    5.10    1.30
  -6   4  -5    3.60    1.10
  -6   4  -5    5.10    1.60
  -6   4  -5    3.80    1.40
   6  -4   5    4.30    1.30
   6  -4   5    5.90    1.60
   6  -4   5    5.90    1.70
   6  -4   5    3.90    1.40
  -7   4  -5    4.80    1.80
  -7   4  -5    7.90    1.90
  -7   4  -5    6.90    1.70
  -7   4  -5    9.30    2.00
   7  -4   5    8.30    1.80
   7  -4   5    9.20    2.10
   7  -4   5    8.10    2.10
   7  -4   5    6.00    1.70
  -8   4  -5    3.20    1.60
  -8   4  -5    4.70    1.80
  -8   4  -5    0.90    1.80
   8  -4   5    1.70    1.40
   8  -4   5    0.60    1.70
   8  -4   5    0.20    1.40
   9   3  -5    3.30    1.60
  -9  -3   5    1.20    2.00
  -9  -3   5    1.20    1.40
  -9  -3   5    2.60    1.40
   8   3  -5    2.00    1.20
   8   3  -5    2.00    1.10
   8   3  -5    4.80    1.70
   8   3  -5    3.20    1.40
  -8  -3   5    1.10    1.00
  -8  -3   5    1.30    1.50
  -8  -3   5    2.80    2.00
  -8  -3   5    2.90    1.10
  -8  -3   5    1.70    1.20
   7   3  -5   19.80    2.60
   7   3  -5   14.30    2.00
   7   3  -5   20.30    2.40
   7   3  -5   15.80    2.10
  -7  -3   5   18.90    2.50
  -7  -3   5   12.00    2.10
  -7  -3   5   19.40    2.20
  -7  -3   5   14.00    2.30
  -7  -3   5   14.90    1.90
  -7  -3   5   17.60    2.10
  -7  -3   5   16.70    2.10
   6   3  -5    1.90    0.90
   6   3  -5    3.00    1.10
   6   3  -5    2.30    0.90
   6   3  -5    2.00    1.00
   6   3  -5    2.40    0.90
  -6  -3   5    1.90    1.00
  -6  -3   5    0.90    1.00
  -6  -3   5    1.60    0.90
  -6  -3   5    1.10    0.60
  -6  -3   5    3.00    1.20
  -6  -3   5    1.10    0.80
  -6  -3   5    0.00    0.50
  -6  -3   5    0.90    0.90
   5   3  -5   25.40    1.90
   5   3  -5   28.10    2.00
   5   3  -5   27.00    2.60
   5   3  -5   28.10    2.10
  -5  -3   5   23.80    1.90
  -5  -3   5   21.70    2.30
  -5  -3   5   25.30    2.00
  -5  -3   5   19.80    2.20
  -5  -3   5   21.30    2.30
  -5  -3   5   25.60    2.00
  -5  -3   5   23.80    2.00
  -5  -3   5   26.00    2.00
  -5  -3   5   24.90    2.50
   4   3  -5    0.40    0.60
   4   3  -5   -0.10    0.50
   4   3  -5   -0.20    0.30
   4   3  -5    0.60    0.50
   4   3  -5    1.10    0.60
  -4  -3   5   -0.30    0.30
  -4  -3   5   -0.40    0.50
  -4  -3   5   -0.10    0.60
  -4  -3   5    0.10    0.40
  -4  -3   5   -0.40    0.50
  -4  -3   5   -0.50    0.50
  -4  -3   5    0.40    0.60
  -4  -3   5    1.10    0.60
  -4  -3   5    0.70    0.60
   3   3  -5   48.90    2.60
   3   3  -5   49.30    2.50
   3   3  -5   51.39    2.80
   3   3  -5   48.30    2.90
   3   3  -5   49.30    2.10
   3   3  -5   48.60    2.10
  -3  -3   5   44.00    2.70
  -3  -3   5   44.50    2.60
  -3  -3   5   42.80    2.60
  -3  -3   5   51.99    2.70
  -3  -3   5   45.70    2.70
  -3  -3   5   45.30    2.80
  -3  -3   5   44.00    2.60
  -3  -3   5   48.90    2.80
   2   3  -5   47.10    2.20
   2   3  -5   44.50    2.50
   2   3  -5   43.40    1.90
   2   3  -5   44.60    1.90
   2   3  -5   44.40    2.30
  -2  -3   5   42.30    2.40
  -2  -3   5   40.60    2.40
  -2  -3   5   41.10    2.40
  -2  -3   5   46.70    2.40
  -2  -3   5   46.20    2.50
  -2  -3   5   41.70    2.30
  -2  -3   5   41.00    2.40
   1   3  -5  318.37   13.10
   1   3  -5  344.97   12.90
   1   3  -5  317.47   12.60
   1   3  -5  317.07   12.60
   1   3  -5  346.37   13.10
  -1  -3   5  337.07   13.00
  -1  -3   5  332.37   13.20
  -1  -3   5  341.57   13.10
  -1  -3   5  327.07   13.00
  -1  -3   5  312.57   13.20
  -1  -3   5  304.87   13.00
  -1  -3   5  317.97   12.90
   0   3  -5  230.78    9.20
   0   3  -5  230.28    9.30
   0   3  -5  233.08    9.30
   0   3  -5  228.18    9.50
   0   3  -5  251.67    9.60
   0   3  -5  229.48    9.60
   0  -3   5  214.98    9.10
   0  -3   5  236.78    9.60
   0  -3   5  247.88    9.60
   0  -3   5  239.38    9.50
   0  -3   5  245.08    9.50
   0  -3   5  238.88    9.40
   0  -3   5  230.68    9.50
  -1   3  -5  317.67   13.60
  -1   3  -5  329.37   13.40
  -1   3  -5  353.16   13.50
  -1   3  -5  327.87   13.50
  -1   3  -5  340.57   13.40
  -1   3  -5  346.87   13.70
   1  -3   5  338.77   13.50
   1  -3   5  345.37   13.60
   1  -3   5  326.67   13.50
   1  -3   5  340.17   13.60
   1  -3   5  352.36   13.40
   1  -3   5  352.46   13.40
  -2   3  -5    0.20    0.40
  -2   3  -5    0.40    0.40
  -2   3  -5    0.70    0.40
  -2   3  -5    0.70    0.40
  -2   3  -5    0.60    0.40
  -2   3  -5    0.00    0.30
   2  -3   5   -0.50    0.40
   2  -3   5    0.60    0.50
   2  -3   5    0.70    0.30
   2  -3   5    0.50    0.30
   2  -3   5    0.80    0.50
   2  -3   5    0.20    0.30
  -3   3  -5   17.10    1.70
  -3   3  -5   15.80    1.30
  -3   3  -5   14.70    1.50
  -3   3  -5   16.30    1.60
  -3   3  -5   16.70    1.60
  -3   3  -5   16.70    1.70
   3  -3   5   15.40    1.60
   3  -3   5   17.30    1.50
   3  -3   5   15.90    1.70
   3  -3   5   15.20    1.60
  -4   3  -5    0.90    0.70
  -4   3  -5    0.00    0.50
  -4   3  -5    0.10    0.50
  -4   3  -5    0.60    0.50
  -4   3  -5    0.50    0.60
   4  -3   5    0.10    0.60
   4  -3   5   -0.20    0.80
   4  -3   5    1.90    0.90
   4  -3   5    0.40    0.80
  -5   3  -5   38.50    2.80
  -5   3  -5   42.10    3.00
  -5   3  -5   39.80    2.80
  -5   3  -5   36.40    2.80
  -5   3  -5   38.00    2.90
   5  -3   5   35.80    2.70
   5  -3   5   43.80    3.20
   5  -3   5   36.80    2.70
   5  -3   5   41.30    3.00
  -6   3  -5    1.80    1.10
  -6   3  -5    2.40    1.20
  -6   3  -5    2.50    1.10
  -6   3  -5    3.00    1.30
   6  -3   5    2.20    1.30
   6  -3   5    4.20    1.50
   6  -3   5    3.50    1.30
  -7   3  -5    6.80    1.80
  -7   3  -5    3.10    1.60
  -7   3  -5    5.70    1.70
  -7   3  -5    5.40    1.50
   7  -3   5    5.50    1.70
   7  -3   5    5.50    1.90
   7  -3   5    4.10    1.40
   7  -3   5    3.40    1.60
  -8   3  -5   -1.50    1.20
  -8   3  -5    1.00    1.70
  -8   3  -5   -0.10    1.50
   8  -3   5    1.40    1.60
   8  -3   5   -0.30    1.50
   8  -3   5   -0.30    1.30
   8   2  -5    2.30    1.10
   8   2  -5    3.10    1.10
   8   2  -5    4.80    1.40
   8   2  -5    5.20    1.80
  -8  -2   5    2.30    1.00
  -8  -2   5    3.50    1.50
  -8  -2   5    2.70    1.40
  -8  -2   5    4.60    1.30
  -8  -2   5    3.50    1.20
   7   2  -5    3.70    1.10
   7   2  -5    5.00    1.40
   7   2  -5    2.50    1.10
   7   2  -5    7.20    1.50
   7   2  -5    2.50    1.30
   7   2  -5    4.60    1.30
  -7  -2   5    3.60    1.10
  -7  -2   5    2.70    1.10
  -7  -2   5    3.80    1.40
  -7  -2   5    4.30    1.40
  -7  -2   5    3.60    1.30
  -7  -2   5    4.00    1.30
  -7  -2   5    2.90    1.10
  -7  -2   5    4.20    1.10
   6   2  -5   -1.60    0.70
   6   2  -5    0.20    0.90
   6   2  -5    0.30    0.70
   6   2  -5    0.10    0.70
   6   2  -5   -0.60    0.70
  -6  -2   5    0.30    0.70
  -6  -2   5   -0.90    0.70
  -6  -2   5   -0.70    0.70
  -6  -2   5    0.20    0.60
  -6  -2   5    0.20    0.60
  -6  -2   5    1.00    1.00
  -6  -2   5    0.10    0.50
  -6  -2   5    0.80    0.80
  -6  -2   5    0.70    0.80
  -6  -2   5   -0.30    0.60
   5   2  -5  103.39    4.50
   5   2  -5  104.49    4.90
   5   2  -5  105.29    4.50
   5   2  -5  102.09    5.20
   5   2  -5   98.69    5.00
   5   2  -5   85.69    4.70
   5   2  -5  102.99    5.20
  -5  -2   5   92.49    5.00
  -5  -2   5   92.99    5.10
  -5  -2   5   95.69    4.90
  -5  -2   5   99.19    4.60
  -5  -2   5  101.29    4.60
  -5  -2   5   97.49    4.80
  -5  -2   5  106.09    5.10
  -5  -2   5   93.89    5.00
  -5  -2   5   96.19    4.90
  -5  -2   5  103.19    5.00
  -5  -2   5   95.79    5.10
   4   2  -5    1.30    0.60
   4   2  -5    2.20    0.80
   4   2  -5    0.40    0.40
   4   2  -5    1.50    0.70
   4   2  -5    1.10    0.40
   4   2  -5    1.90    0.40
   4   2  -5    2.30    0.70
  -4  -2   5    1.70    0.50
  -4  -2   5    1.30    0.60
  -4  -2   5    1.40    0.60
  -4  -2   5    1.40    0.60
  -4  -2   5    1.50    0.60
  -4  -2   5    1.30    0.70
  -4  -2   5    1.30    0.60
  -4  -2   5    0.40    0.60
  -4  -2   5    1.70    0.70
  -4  -2   5    2.20    0.60
  -4  -2   5    0.40    0.50
   3   2  -5  492.55   18.80
   3   2  -5  483.55   18.00
   3   2  -5  477.55   18.00
   3   2  -5  481.65   18.50
   3   2  -5  484.45   18.40
   3   2  -5  487.85   17.80
  -3  -2   5  439.06   17.90
  -3  -2   5  450.75   18.60
  -3  -2   5  486.85   18.50
  -3  -2   5  419.46   18.20
  -3  -2   5  455.45   18.50
  -3  -2   5  433.66   18.40
  -3  -2   5  452.15   18.50
  -3  -2   5  479.15   18.60
  -3  -2   5  446.36   18.50
  -3  -2   5  450.65   18.60
   2   2  -5    0.30    0.20
   2   2  -5    0.00    0.30
   2   2  -5    0.20    0.30
   2   2  -5    0.30    0.50
   2   2  -5    0.00    0.20
  -2  -2   5    0.50    0.30
  -2  -2   5    0.30    0.30
  -2  -2   5    0.00    0.30
  -2  -2   5    0.10    0.40
  -2  -2   5   -0.10    0.30
  -2  -2   5    0.10    0.20
  -2  -2   5    0.40    0.30
  -2  -2   5    0.10    0.30
   1   2  -5   25.80    1.60
   1   2  -5   25.90    1.30
   1   2  -5   26.00    1.60
   1   2  -5   25.00    1.50
   1   2  -5   23.90    1.30
  -1  -2   5   24.90    1.60
  -1  -2   5   30.70    1.50
  -1  -2   5   25.20    1.50
  -1  -2   5   27.00    1.30
  -1  -2   5   26.10    1.60
  -1  -2   5   27.50    1.60
  -1  -2   5   26.60    1.60
   0   2  -5   12.00    0.80
   0   2  -5   14.30    1.00
   0   2  -5   12.60    1.00
   0   2  -5   13.70    0.90
   0   2  -5   13.30    0.90
   0   2  -5   13.80    1.00
   0  -2   5   13.90    0.90
   0  -2   5   12.70    1.00
   0  -2   5   12.40    1.00
   0  -2   5   12.00    1.00
   0  -2   5   13.40    1.00
   0  -2   5   12.70    0.90
   0  -2   5   13.60    0.90
  -1   2  -5   69.09    3.30
  -1   2  -5   68.59    3.20
  -1   2  -5   69.99    3.20
  -1   2  -5   70.89    3.20
  -1   2  -5   70.39    3.30
  -1   2  -5   70.99    3.20
   1  -2   5   69.79    3.30
   1  -2   5   70.39    3.40
   1  -2   5   70.09    3.40
   1  -2   5   73.49    3.20
   1  -2   5   67.29    3.30
   1  -2   5   74.29    3.20
  -2   2  -5  325.87   13.60
  -2   2  -5  340.77   13.90
  -2   2  -5  342.37   13.80
  -2   2  -5  354.56   13.90
  -2   2  -5  337.47   14.00
  -2   2  -5  348.07   13.90
   2  -2   5  323.87   14.00
   2  -2   5  352.16   14.10
   2  -2   5  345.67   14.10
   2  -2   5  343.87   14.10
   2  -2   5  372.46   13.70
   2  -2   5  363.66   13.60
  -3   2  -5   37.80    2.20
  -3   2  -5   36.60    2.30
  -3   2  -5   31.70    2.20
  -3   2  -5   36.20    2.20
  -3   2  -5   36.60    2.80
  -3   2  -5   34.60    2.20
  -3   2  -5   38.20    2.80
   3  -2   5   35.20    2.40
   3  -2   5   35.10    2.40
   3  -2   5   39.50    2.40
   3  -2   5   35.50    1.90
   3  -2   5   32.90    2.30
  -4   2  -5   37.90    3.10
  -4   2  -5   39.40    2.60
  -4   2  -5   44.10    2.80
  -4   2  -5   43.60    2.80
  -4   2  -5   45.40    2.70
  -4   2  -5   44.00    3.30
  -4   2  -5   43.80    2.60
   4  -2   5   43.10    2.90
   4  -2   5   45.10    2.90
   4  -2   5   39.80    2.80
   4  -2   5   40.00    2.70
  -5   2  -5    6.50    1.30
  -5   2  -5    6.10    1.60
  -5   2  -5    6.10    1.50
  -5   2  -5    6.10    1.30
  -5   2  -5    7.00    1.30
  -5   2  -5    2.90    1.20
  -5   2  -5    8.10    1.60
   5  -2   5    7.20    1.40
   5  -2   5    8.60    1.70
   5  -2   5    9.70    1.60
   5  -2   5    7.80    1.40
  -6   2  -5    0.70    1.30
  -6   2  -5    1.60    1.30
  -6   2  -5    0.80    1.00
  -6   2  -5   -0.10    0.80
  -6   2  -5    0.30    1.00
  -6   2  -5    1.60    0.90
   6  -2   5   -1.20    1.00
   6  -2   5   -1.70    0.80
   6  -2   5    0.40    1.20
   6  -2   5    1.10    0.90
  -7   2  -5   -0.10    1.40
  -7   2  -5    0.20    1.30
  -7   2  -5   -0.70    0.80
  -7   2  -5   -1.10    1.10
  -7   2  -5    0.00    0.80
  -7   2  -5    0.80    1.10
   7  -2   5    0.20    1.20
   7  -2   5   -1.10    0.90
   7  -2   5   -0.40    1.40
  -8   2  -5   -0.50    1.30
  -8   2  -5    0.20    1.50
  -8   2  -5    1.40    2.20
  -8   2  -5   -2.10    1.50
   8  -2   5   -1.40    1.40
   8  -2   5    0.60    1.40
   8  -2   5   -0.30    1.50
   8   1  -5    0.90    1.00
   8   1  -5    1.00    1.40
   8   1  -5    0.40    1.20
  -8  -1   5    0.40    1.00
  -8  -1   5    1.40    1.00
  -8  -1   5    2.20    1.10
  -8  -1   5    1.00    1.30
  -8  -1   5    0.50    1.10
   7   1  -5   26.90    2.10
   7   1  -5   24.90    2.70
   7   1  -5   29.30    2.40
   7   1  -5   32.40    2.60
   7   1  -5   26.40    2.10
   7   1  -5   31.50    2.80
   7   1  -5   26.20    2.70
   7   1  -5   30.20    3.00
  -7  -1   5   29.50    2.30
  -7  -1   5   29.80    3.00
  -7  -1   5   34.30    2.50
  -7  -1   5   28.40    2.20
  -7  -1   5   20.50    2.30
  -7  -1   5   32.30    3.10
  -7  -1   5   26.00    2.20
  -7  -1   5   22.70    2.60
   6   1  -5   21.90    2.60
   6   1  -5   31.00    2.10
   6   1  -5   29.00    2.30
   6   1  -5   30.90    2.50
   6   1  -5   33.70    2.50
   6   1  -5   30.50    2.00
  -6  -1   5   29.80    3.60
  -6  -1   5   33.40    2.50
  -6  -1   5   28.00    2.70
  -6  -1   5   34.80    2.30
  -6  -1   5   28.90    2.10
  -6  -1   5   29.50    2.20
  -6  -1   5   29.80    2.60
  -6  -1   5   29.80    2.20
  -6  -1   5   31.50    2.30
  -6  -1   5   32.40    2.60
  -6  -1   5   29.60    2.50
   5   1  -5    0.40    0.50
   5   1  -5    0.20    0.70
   5   1  -5    0.10    0.50
   5   1  -5    0.80    0.50
   5   1  -5    0.20    0.40
   5   1  -5   -0.10    0.50
   5   1  -5    0.80    0.70
  -5  -1   5    0.70    0.50
  -5  -1   5    0.50    0.80
  -5  -1   5    0.40    0.70
  -5  -1   5   -0.10    0.50
  -5  -1   5    0.20    0.60
  -5  -1   5    0.30    0.50
  -5  -1   5    0.10    0.40
  -5  -1   5    0.90    0.70
  -5  -1   5    0.30    0.60
  -5  -1   5   -0.20    0.50
  -5  -1   5    0.30    0.50
  -5  -1   5    0.30    0.50
   4   1  -5   57.29    3.30
   4   1  -5   49.80    2.70
   4   1  -5   57.09    3.10
   4   1  -5   58.19    2.80
   4   1  -5   57.59    3.20
   4   1  -5   56.59    2.60
   4   1  -5   60.29    2.70
  -4  -1   5   50.79    2.80
  -4  -1   5   55.29    3.00
  -4  -1   5   50.59    3.10
  -4  -1   5   55.59    2.70
  -4  -1   5   57.99    3.20
  -4  -1   5   58.09    2.90
  -4  -1   5   50.19    3.00
  -4  -1   5   52.79    2.90
  -4  -1   5   58.89    3.10
  -4  -1   5   51.89    3.10
  -4  -1   5   47.70    2.80
   3   1  -5   33.70    1.60
   3   1  -5   29.10    1.80
   3   1  -5   28.70    2.00
   3   1  -5   28.50    1.90
   3   1  -5   29.70    1.60
   3   1  -5   30.30    1.40
  -3  -1   5   28.10    2.00
  -3  -1   5   26.00    1.60
  -3  -1   5   30.90    1.90
  -3  -1   5   29.10    1.90
  -3  -1   5   27.20    1.90
  -3  -1   5   25.50    1.80
  -3  -1   5   29.20    1.80
  -3  -1   5   30.30    1.90
  -3  -1   5   25.70    1.50
   2   1  -5  263.47   10.00
   2   1  -5  263.07    9.90
   2   1  -5  245.18   10.50
   2   1  -5  263.37   10.00
   2   1  -5  249.88   10.40
   2   1  -5  266.97   10.30
  -2  -1   5  256.87   10.20
  -2  -1   5  239.58   10.30
  -2  -1   5  241.38   10.00
  -2  -1   5  257.07   10.30
  -2  -1   5  258.47   10.40
  -2  -1   5  245.28   10.40
  -2  -1   5  227.18    9.80
  -2  -1   5  261.47   10.40
   1   1  -5    7.10    0.60
   1   1  -5    6.50    0.60
   1   1  -5    6.20    0.50
   1   1  -5    7.10    0.80
   1   1  -5    5.10    0.80
   1   1  -5    7.00    0.80
  -1  -1   5    7.30    0.50
  -1  -1   5    6.90    0.80
  -1  -1   5    7.50    0.60
  -1  -1   5    7.00    0.80
  -1  -1   5    6.70    0.80
  -1  -1   5    7.10    0.80
  -1  -1   5    6.80    0.70
  -1  -1   5    5.00    0.70
   0   1  -5  486.25   19.00
   0   1  -5  481.55   18.90
   0   1  -5  506.45   19.00
   0   1  -5  486.95   18.80
   0   1  -5  469.75   18.90
   0   1  -5  485.05   19.00
   0  -1   5  507.25   18.90
   0  -1   5  472.25   18.80
   0  -1   5  485.55   19.10
   0  -1   5  489.15   19.20
   0  -1   5  485.35   18.90
   0  -1   5  482.65   19.00
   0  -1   5  487.25   19.10
  -1   1  -5    4.90    0.70
  -1   1  -5    5.90    0.70
  -1   1  -5    4.90    0.80
  -1   1  -5    5.20    0.70
  -1   1  -5    3.80    0.60
  -1   1  -5    4.70    0.60
  -1   1  -5    4.40    0.50
   1  -1   5    3.80    0.70
   1  -1   5    4.00    0.60
   1  -1   5    2.80    0.60
   1  -1   5    5.10    0.80
   1  -1   5    3.60    0.70
   1  -1   5    5.30    0.50
   1  -1   5    4.80    0.70
  -2   1  -5   14.30    1.10
  -2   1  -5   11.10    1.50
  -2   1  -5   13.70    1.30
  -2   1  -5   16.80    1.80
  -2   1  -5   12.90    1.00
  -2   1  -5   15.70    1.20
  -2   1  -5   14.60    1.20
   2  -1   5   13.90    1.10
   2  -1   5   13.30    1.40
   2  -1   5   13.60    1.10
   2  -1   5   13.60    1.40
   2  -1   5   15.00    1.50
   2  -1   5   13.60    1.50
  -3   1  -5   30.70    2.00
  -3   1  -5   29.70    1.90
  -3   1  -5   28.50    1.90
  -3   1  -5   27.00    2.40
  -3   1  -5   27.10    1.90
  -3   1  -5   29.40    1.90
  -3   1  -5   27.10    2.40
   3  -1   5   31.00    1.80
   3  -1   5   32.10    2.30
   3  -1   5   29.40    2.20
   3  -1   5   31.10    1.90
   3  -1   5   32.70    2.30
   3  -1   5   30.30    2.20
  -4   1  -5    9.00    1.20
  -4   1  -5    7.30    1.20
  -4   1  -5    8.70    1.80
  -4   1  -5    8.90    1.30
  -4   1  -5   10.40    1.40
  -4   1  -5    5.80    1.40
  -4   1  -5    8.70    1.30
   4  -1   5    6.90    1.40
   4  -1   5    7.90    1.50
   4  -1   5    8.40    1.50
   4  -1   5    8.90    1.40
  -5   1  -5    4.80    1.50
  -5   1  -5    9.30    1.50
  -5   1  -5    8.50    1.40
  -5   1  -5    6.80    1.40
  -5   1  -5    7.90    1.30
  -5   1  -5    5.90    1.60
   5  -1   5    3.90    1.20
   5  -1   5    8.50    1.50
   5  -1   5    7.70    1.60
   5  -1   5    5.40    1.40
  -6   1  -5    7.50    2.00
  -6   1  -5    6.30    2.00
  -6   1  -5    5.30    1.30
  -6   1  -5    5.30    1.60
  -6   1  -5    4.10    1.20
  -6   1  -5    4.50    1.30
   6  -1   5    4.20    1.50
   6  -1   5    5.00    1.50
   6  -1   5    4.60    1.40
   6  -1   5    5.60    1.70
  -7   1  -5    7.40    2.20
  -7   1  -5    7.60    1.80
  -7   1  -5    7.10    1.80
  -7   1  -5    8.10    1.90
  -7   1  -5   10.50    2.60
   7  -1   5    9.00    2.40
   7  -1   5   11.00    2.20
   7  -1   5    9.60    2.10
  -8   1  -5   -0.30    1.40
  -8   1  -5    1.30    1.70
  -8   1  -5    0.70    1.30
   8  -1   5   -2.20    1.40
   8  -1   5    2.30    1.50
   9   0  -5   -0.10    1.40
   9   0  -5    1.00    1.50
  -9   0   5   -1.20    1.30
  -9   0   5    1.10    1.40
   8   0  -5    7.50    1.90
   8   0  -5    8.70    1.60
   8   0  -5    7.80    1.80
   8   0  -5    8.60    1.50
   8   0  -5   11.10    1.60
  -8   0   5    8.50    1.80
  -8   0   5    7.90    1.90
  -8   0   5   13.60    2.30
  -8   0   5   12.10    1.90
  -8   0   5    7.50    1.50
   7   0  -5    0.70    0.70
   7   0  -5    0.40    0.80
   7   0  -5   -0.10    1.00
   7   0  -5   -0.40    0.60
   7   0  -5   -0.30    0.60
   7   0  -5    0.40    0.80
   7   0  -5   -0.10    1.10
  -7   0   5    1.50    1.00
  -7   0   5   -1.00    0.80
  -7   0   5    0.20    0.80
  -7   0   5   -0.90    0.80
  -7   0   5    0.10    0.70
  -7   0   5   -0.30    0.70
  -7   0   5    0.00    0.60
  -7   0   5   -0.50    0.80
   6   0  -5    0.80    0.60
   6   0  -5   -0.40    0.60
   6   0  -5    0.10    0.80
   6   0  -5   -0.50    0.50
   6   0  -5    0.60    0.80
   6   0  -5    0.70    0.50
  -6   0   5    0.70    0.60
  -6   0   5    0.30    0.60
  -6   0   5   -0.70    0.60
  -6   0   5    0.40    0.60
  -6   0   5   -0.30    0.60
  -6   0   5   -0.60    0.70
  -6   0   5    0.10    0.90
  -6   0   5    1.20    0.70
  -6   0   5   -0.90    0.60
   5   0  -5   11.10    1.50
   5   0  -5   12.00    1.30
   5   0  -5   11.50    1.10
   5   0  -5   13.70    1.30
   5   0  -5    9.70    1.40
  -5   0   5    7.90    1.40
  -5   0   5   11.40    1.30
  -5   0   5   10.60    1.20
  -5   0   5    8.30    1.40
  -5   0   5   11.40    1.40
  -5   0   5    9.60    1.30
  -5   0   5    9.20    1.30
  -5   0   5   10.10    1.20
  -5   0   5    9.60    1.30
  -5   0   5    9.00    1.50
  -5   0   5    9.00    1.20
   4   0  -5   30.00    1.70
   4   0  -5   29.10    1.60
   4   0  -5   28.70    1.60
   4   0  -5   26.40    1.80
   4   0  -5   27.80    2.00
   4   0  -5   28.00    2.00
   4   0  -5   30.90    1.80
  -4   0   5   25.90    1.70
  -4   0   5   28.60    2.00
  -4   0   5   29.40    1.90
  -4   0   5   26.30    2.10
  -4   0   5   27.30    2.10
  -4   0   5   29.50    1.90
  -4   0   5   29.30    1.70
  -4   0   5   28.90    1.90
  -4   0   5   28.00    1.80
  -4   0   5   28.90    2.10
  -4   0   5   25.80    1.70
   3   0  -5    3.90    0.40
   3   0  -5    3.90    0.80
   3   0  -5    4.40    0.60
   3   0  -5    5.00    0.70
   3   0  -5    3.70    0.50
   3   0  -5    3.30    0.70
  -3   0   5    3.90    0.70
  -3   0   5    4.20    0.70
  -3   0   5    4.80    0.90
  -3   0   5    4.40    0.50
  -3   0   5    3.70    0.80
  -3   0   5    2.90    0.80
  -3   0   5    3.30    0.60
  -3   0   5    3.10    0.80
   2   0  -5    3.50    0.40
   2   0  -5    3.00    0.50
   2   0  -5    1.70    0.50
   2   0  -5    2.70    0.60
   2   0  -5    2.90    0.50
  -2   0   5    2.70    0.60
  -2   0   5    2.10    0.50
  -2   0   5    3.10    0.50
  -2   0   5    2.30    0.60
  -2   0   5    3.60    0.70
  -2   0   5    3.70    0.70
  -2   0   5    2.20    0.50
   1   0  -5  308.77   12.10
   1   0  -5  306.97   11.90
   1   0  -5  287.27   12.10
   1   0  -5  317.87   12.00
   1   0  -5  316.97   12.00
  -1   0   5  307.57   12.30
  -1   0   5  300.77   12.20
  -1   0   5  307.07   11.90
  -1   0   5  317.37   12.30
  -1   0   5  269.47   11.60
  -1   0   5  305.57   12.20
  -1   0   5  300.97   11.60
  -1   0   5  298.57   12.20
   0   0  -5  320.37   12.80
   0   0  -5  330.07   12.70
   0   0  -5  324.97   12.70
   0   0  -5  333.17   12.80
   0   0  -5  321.37   12.70
   0   0  -5  325.77   12.80
   0   0  -5  319.67   12.70
   0   0   5  334.47   13.00
   0   0   5  312.37   13.00
   0   0   5  315.17   12.60
   0   0   5  328.57   12.80
   0   0   5  306.07   12.80
   0   0   5  319.17   12.70
   0   0   5  312.57   13.00
  -1   0  -5  608.04   23.00
  -1   0  -5  614.24   23.10
  -1   0  -5  570.24   23.10
  -1   0  -5  622.24   23.20
  -1   0  -5  580.34   22.90
  -1   0  -5  587.54   23.50
  -1   0  -5  583.14   23.10
  -1   0  -5  591.24   23.50
   1   0   5  611.34   23.40
   1   0   5  594.64   23.50
   1   0   5  597.54   23.30
   1   0   5  565.54   23.20
   1   0   5  608.34   22.80
   1   0   5  577.94   23.30
  -2   0  -5  747.43   28.60
  -2   0  -5  733.03   28.60
  -2   0  -5  757.72   29.20
  -2   0  -5  726.83   28.50
  -2   0  -5  735.23   28.60
  -2   0  -5  725.73   29.20
  -2   0  -5  709.33   28.30
   2   0   5  709.03   28.80
   2   0   5  754.92   28.70
   2   0   5  754.42   29.10
   2   0   5  735.73   28.90
   2   0   5  698.93   28.80
   2   0   5  751.52   28.70
  -3   0  -5   81.09    4.60
  -3   0  -5   83.89    4.00
  -3   0  -5   75.49    3.60
  -3   0  -5   75.29    3.90
  -3   0  -5   79.89    4.00
  -3   0  -5   79.29    3.90
  -3   0  -5   71.89    4.50
   3   0   5   78.69    4.20
   3   0   5   79.99    4.30
   3   0   5   82.99    4.00
   3   0   5   72.39    4.20
   3   0   5   79.29    4.00
   3   0   5   76.19    4.30
  -4   0  -5    8.40    1.20
  -4   0  -5    8.70    1.30
  -4   0  -5    7.10    1.60
  -4   0  -5    9.60    1.30
  -4   0  -5    5.30    1.30
  -4   0  -5   10.30    1.50
   4   0   5    8.20    1.50
   4   0   5    8.50    1.60
   4   0   5    9.80    1.50
   4   0   5    9.20    1.50
   4   0   5    6.10    1.30
  -5   0  -5   40.70    3.00
  -5   0  -5   30.70    3.50
  -5   0  -5   38.90    2.80
  -5   0  -5   34.80    3.80
  -5   0  -5   38.40    2.70
   5   0   5   37.40    3.00
   5   0   5   40.70    3.20
   5   0   5   37.70    3.10
   5   0   5   36.20    3.10
  -6   0  -5   35.70    2.90
  -6   0  -5   38.10    3.00
  -6   0  -5   35.90    4.10
  -6   0  -5   31.50    3.90
  -6   0  -5   35.60    2.90
  -6   0  -5   32.60    3.30
   6   0   5   34.10    3.40
   6   0   5   38.10    3.40
   6   0   5   31.60    3.40
   6   0   5   29.00    3.20
  -7   0  -5   -0.50    0.80
  -7   0  -5    0.60    1.50
  -7   0  -5   -0.90    1.50
  -7   0  -5    2.90    1.40
  -7   0  -5    1.60    1.00
   7   0   5    0.90    1.40
   7   0   5    0.50    1.60
   7   0   5    0.20    1.40
   7   0   5   -0.20    1.50
  -8   0  -5   11.80    2.60
  -8   0  -5    7.20    2.60
  -8   0  -5    6.30    2.00
   8   0   5    5.50    2.10
   8   0   5    6.70    2.20
   9  -1  -5    4.10    1.50
   9  -1  -5    2.60    1.70
   9  -1  -5    0.90    1.00
   9  -1  -5    3.90    1.50
  -9   1   5    0.40    1.50
  -9   1   5    2.10    1.40
  -9   1   5    4.20    1.90
  -9   1   5    2.20    1.40
   8  -1  -5    4.20    1.50
   8  -1  -5    2.60    1.00
   8  -1  -5    3.40    1.40
   8  -1  -5    1.50    0.90
   8  -1  -5    1.90    1.00
  -8   1   5    1.30    1.20
  -8   1   5    0.10    1.00
  -8   1   5    2.80    1.30
  -8   1   5    2.80    1.50
  -8   1   5    0.70    1.50
  -8   1   5    3.20    1.30
   7  -1  -5    0.30    0.90
   7  -1  -5    2.50    0.90
   7  -1  -5    3.20    0.90
   7  -1  -5    2.20    1.20
   7  -1  -5    3.60    1.20
   7  -1  -5    4.80    1.10
  -7   1   5    3.50    1.10
  -7   1   5    3.00    1.20
  -7   1   5    2.10    1.00
  -7   1   5    3.50    1.40
  -7   1   5    4.40    1.00
  -7   1   5    3.20    1.10
  -7   1   5    4.20    1.20
  -7   1   5    4.80    1.30
   6  -1  -5    5.50    1.00
   6  -1  -5    4.80    0.90
   6  -1  -5    4.00    0.90
   6  -1  -5    4.20    1.30
   6  -1  -5    2.40    1.00
  -6   1   5    7.10    1.20
  -6   1   5    6.60    1.30
  -6   1   5    4.50    1.20
  -6   1   5    4.50    1.30
  -6   1   5    5.70    1.10
  -6   1   5    4.00    1.40
  -6   1   5    4.90    1.00
  -6   1   5    5.30    1.00
   5  -1  -5    9.20    1.40
   5  -1  -5    9.10    1.50
   5  -1  -5    9.80    1.20
   5  -1  -5   11.50    1.30
   5  -1  -5   10.20    1.10
  -5   1   5    8.10    1.50
  -5   1   5   10.00    1.20
  -5   1   5   10.50    1.40
  -5   1   5    7.70    1.40
  -5   1   5    8.10    1.20
  -5   1   5   10.50    1.30
  -5   1   5    8.10    1.40
  -5   1   5    8.90    1.30
  -5   1   5   10.90    1.30
   4  -1  -5    0.00    0.30
   4  -1  -5    0.30    0.40
   4  -1  -5    0.70    0.50
   4  -1  -5    0.60    0.60
   4  -1  -5    0.10    0.40
   4  -1  -5    0.30    0.30
  -4   1   5    0.10    0.40
  -4   1   5    0.40    0.60
  -4   1   5    0.50    0.50
  -4   1   5    0.70    0.70
  -4   1   5    0.90    0.40
  -4   1   5    1.00    0.60
  -4   1   5    0.70    0.50
  -4   1   5    0.30    0.50
   3  -1  -5  286.07   10.90
   3  -1  -5  279.77   10.60
   3  -1  -5  258.17   11.40
   3  -1  -5  276.37   11.20
   3  -1  -5  280.67   11.10
   3  -1  -5  246.18   11.40
  -3   1   5  274.67   11.70
  -3   1   5  295.97   11.30
  -3   1   5  282.77   11.70
  -3   1   5  277.77   10.90
  -3   1   5  271.17   11.30
  -3   1   5  267.17   11.60
  -3   1   5  274.07   11.40
   2  -1  -5 1018.90   37.80
   2  -1  -5  998.40   37.90
   2  -1  -5  944.71   38.10
   2  -1  -5  922.61   38.20
   2  -1  -5 1001.40   38.00
  -2   1   5 1066.39   37.70
  -2   1   5  952.40   38.30
  -2   1   5 1014.60   38.40
  -2   1   5  948.51   38.00
  -2   1   5 1024.30   38.30
  -2   1   5  975.30   38.30
  -2   1   5  948.41   38.10
   1  -1  -5  529.35   19.90
   1  -1  -5  509.55   19.60
   1  -1  -5  517.15   19.90
   1  -1  -5  522.75   19.80
   1  -1  -5  509.05   20.00
   1  -1  -5  486.95   20.00
  -1   1   5  511.45   20.30
  -1   1   5  508.85   20.20
  -1   1   5  478.55   19.60
  -1   1   5  501.15   20.10
  -1   1   5  520.75   20.10
  -1   1   5  521.25   20.20
  -1   1   5  516.35   19.70
   0  -1  -5  842.72   31.60
   0  -1  -5  837.32   31.60
   0  -1  -5  841.32   31.50
   0  -1  -5  783.92   31.50
   0  -1  -5  808.52   31.70
   0  -1  -5  793.92   31.60
   0  -1  -5  825.82   31.60
   0   1   5  778.22   31.50
   0   1   5  813.72   31.60
   0   1   5  794.92   31.90
   0   1   5  779.62   31.50
   0   1   5  843.62   31.90
   0   1   5  849.41   32.00
   0   1   5  841.42   31.70
   0   1   5  835.42   31.60
  -1  -1  -5  476.45   19.20
  -1  -1  -5  459.75   19.10
  -1  -1  -5  483.05   18.80
  -1  -1  -5  486.35   18.50
  -1  -1  -5  484.85   18.80
  -1  -1  -5  480.75   18.80
  -1  -1  -5  500.25   18.70
   1   1   5  489.55   18.50
   1   1   5  494.15   19.20
   1   1   5  486.45   19.10
   1   1   5  473.65   19.30
   1   1   5  444.46   18.90
   1   1   5  460.55   19.00
   1   1   5  465.65   19.00
  -2  -1  -5   23.80    2.00
  -2  -1  -5   24.00    1.60
  -2  -1  -5   25.50    1.60
  -2  -1  -5   21.60    2.00
  -2  -1  -5   24.90    1.70
  -2  -1  -5   24.40    1.60
  -2  -1  -5   22.70    1.30
   2   1   5   27.20    2.20
   2   1   5   24.70    1.90
   2   1   5   23.60    1.90
   2   1   5   23.30    1.90
   2   1   5   25.20    1.90
   2   1   5   24.10    1.90
  -3  -1  -5   18.90    1.70
  -3  -1  -5   16.80    2.00
  -3  -1  -5   13.80    1.90
  -3  -1  -5   16.30    1.60
  -3  -1  -5   13.00    1.40
  -3  -1  -5   14.90    1.50
   3   1   5   15.20    2.00
   3   1   5   14.10    1.70
   3   1   5   11.50    1.60
   3   1   5   14.40    1.80
   3   1   5   13.30    1.70
   3   1   5   15.40    1.80
  -4  -1  -5  106.39    4.90
  -4  -1  -5   96.69    5.00
  -4  -1  -5   91.39    5.60
  -4  -1  -5   95.59    4.90
  -4  -1  -5   96.39    5.70
  -4  -1  -5  106.19    5.90
  -4  -1  -5   92.89    4.80
   4   1   5  102.89    5.40
   4   1   5   94.59    5.00
   4   1   5   91.49    5.30
   4   1   5  105.19    5.20
   4   1   5   96.79    5.30
   4   1   5   86.49    5.20
  -5  -1  -5   19.20    2.10
  -5  -1  -5   18.60    2.00
  -5  -1  -5   17.60    2.10
  -5  -1  -5   15.20    2.50
  -5  -1  -5   19.20    2.80
  -5  -1  -5   21.20    2.40
  -5  -1  -5   19.50    2.80
   5   1   5   18.10    2.40
   5   1   5   17.70    2.40
   5   1   5   15.10    2.30
   5   1   5   17.10    2.40
   5   1   5   18.20    2.60
  -6  -1  -5   29.00    3.00
  -6  -1  -5   33.30    3.30
  -6  -1  -5   17.70    3.00
  -6  -1  -5   24.60    3.50
  -6  -1  -5   25.70    2.70
   6   1   5   37.10    3.30
   6   1   5   28.40    3.20
   6   1   5   22.00    2.90
   6   1   5   28.10    3.20
  -7  -1  -5    0.80    1.20
  -7  -1  -5   -0.70    1.30
  -7  -1  -5   -1.70    1.30
  -7  -1  -5   -0.80    0.90
   7   1   5   -1.00    1.30
   7   1   5    0.30    1.40
   7   1   5   -1.30    1.30
  -8  -1  -5    1.50    1.60
  -8  -1  -5    1.40    1.90
  -8  -1  -5   -0.10    2.10
   8   1   5    2.30    1.60
   8   1   5    2.00    2.00
   8   1   5   -0.90    1.60
   9  -2  -5    0.70    1.50
   9  -2  -5   -0.30    0.90
   9  -2  -5    4.90    1.80
  -9   2   5   -0.30    1.40
  -9   2   5    3.80    1.60
  -9   2   5   -0.50    1.50
  -9   2   5   -1.10    1.20
  -9   2   5    0.10    1.20
   8  -2  -5    0.90    0.90
   8  -2  -5   -0.60    1.10
   8  -2  -5    0.40    0.80
   8  -2  -5    0.10    1.20
   8  -2  -5   -0.30    0.80
  -8   2   5   -0.10    0.90
  -8   2   5    1.70    1.10
  -8   2   5   -1.30    0.70
  -8   2   5    1.80    1.20
  -8   2   5   -0.60    1.10
  -8   2   5    1.60    1.40
   7  -2  -5    3.20    1.40
   7  -2  -5    4.00    1.00
   7  -2  -5    6.00    1.10
   7  -2  -5    6.00    1.20
  -7   2   5    4.20    1.30
  -7   2   5    2.70    1.30
  -7   2   5    4.10    1.10
  -7   2   5    4.20    1.40
  -7   2   5    6.70    1.50
  -7   2   5    4.80    1.60
   6  -2  -5   23.80    1.90
   6  -2  -5   19.90    1.90
   6  -2  -5   21.40    1.70
   6  -2  -5   22.90    2.50
  -6   2   5   18.00    2.50
  -6   2   5   21.40    2.10
  -6   2   5   15.70    2.10
  -6   2   5   20.60    2.20
  -6   2   5   20.20    2.50
  -6   2   5   23.80    1.80
  -6   2   5   20.70    2.20
  -6   2   5   21.40    2.10
   5  -2  -5   20.60    1.50
   5  -2  -5   16.90    1.70
   5  -2  -5   17.20    1.90
   5  -2  -5   17.30    1.60
  -5   2   5   21.50    2.30
  -5   2   5   16.20    2.10
  -5   2   5   22.40    1.70
  -5   2   5   21.10    2.00
  -5   2   5   15.10    2.10
  -5   2   5   18.50    1.80
   4  -2  -5   61.09    3.00
   4  -2  -5   64.69    3.30
   4  -2  -5   62.39    3.20
   4  -2  -5   59.09    3.50
  -4   2   5   61.19    3.70
  -4   2   5   59.39    3.70
  -4   2   5   58.29    3.30
  -4   2   5   61.39    3.30
  -4   2   5   61.59    3.40
  -4   2   5   63.99    3.70
  -4   2   5   66.89    3.20
   3  -2  -5  129.49    5.70
   3  -2  -5  114.69    6.00
   3  -2  -5  128.79    6.10
   3  -2  -5  137.89    5.60
   3  -2  -5  136.09    5.30
   3  -2  -5  132.09    5.80
  -3   2   5  126.59    5.90
  -3   2   5  137.59    6.20
  -3   2   5  142.79    6.50
  -3   2   5  135.99    5.70
  -3   2   5  130.59    6.30
  -3   2   5  126.19    6.00
   2  -2  -5    7.00    0.80
   2  -2  -5    4.70    0.90
   2  -2  -5    6.10    1.00
   2  -2  -5    5.80    0.80
   2  -2  -5    6.10    0.60
   2  -2  -5    7.50    0.90
  -2   2   5    8.50    0.60
  -2   2   5    6.30    1.10
  -2   2   5    7.00    1.10
  -2   2   5    7.40    1.10
  -2   2   5    7.70    1.10
  -2   2   5    5.60    0.90
  -2   2   5    7.00    0.90
   1  -2  -5  190.48    8.10
   1  -2  -5  189.28    8.30
   1  -2  -5  202.98    8.20
   1  -2  -5  193.88    8.30
   1  -2  -5  204.78    8.20
   1  -2  -5  203.08    8.10
  -1   2   5  214.48    8.70
  -1   2   5  198.78    8.40
  -1   2   5  191.78    8.50
  -1   2   5  201.88    8.00
  -1   2   5  206.38    8.60
  -1   2   5  195.98    8.40
   0  -2  -5    2.80    0.60
   0  -2  -5    4.50    0.70
   0  -2  -5    4.30    0.70
   0  -2  -5    3.40    0.60
   0  -2  -5    6.50    0.80
   0  -2  -5    6.40    0.80
   0  -2  -5    4.40    0.70
   0   2   5    4.70    0.90
   0   2   5    5.60    0.80
   0   2   5    5.40    0.70
   0   2   5    3.00    0.80
   0   2   5    5.40    0.90
   0   2   5    3.70    0.70
   0   2   5    3.50    0.70
  -1  -2  -5   55.89    2.70
  -1  -2  -5   51.99    2.70
  -1  -2  -5   54.39    3.10
  -1  -2  -5   54.49    2.40
  -1  -2  -5   55.29    2.60
  -1  -2  -5   51.49    3.00
  -1  -2  -5   56.79    2.80
   1   2   5   44.40    3.00
   1   2   5   44.60    2.80
   1   2   5   55.39    2.60
   1   2   5   52.99    3.20
   1   2   5   58.99    3.20
   1   2   5   51.59    2.90
  -2  -2  -5    1.00    0.70
  -2  -2  -5    0.90    0.70
  -2  -2  -5    1.10    0.60
  -2  -2  -5    1.20    0.50
  -2  -2  -5    1.20    0.50
  -2  -2  -5    0.60    0.70
  -2  -2  -5    1.70    0.60
   2   2   5    0.90    0.90
   2   2   5    1.60    0.80
   2   2   5    1.20    0.70
   2   2   5    0.40    0.60
   2   2   5    1.40    0.80
   2   2   5    0.60    0.80
  -3  -2  -5   17.30    2.20
  -3  -2  -5   19.70    2.30
  -3  -2  -5   19.60    1.50
  -3  -2  -5   18.60    1.80
  -3  -2  -5   18.00    1.40
  -3  -2  -5   17.60    1.40
  -3  -2  -5   14.20    2.00
   3   2   5   23.50    2.50
   3   2   5   15.60    1.90
   3   2   5   15.10    2.00
   3   2   5   16.70    2.00
   3   2   5   20.60    2.20
   3   2   5   19.50    2.10
  -4  -2  -5   51.39    3.80
  -4  -2  -5   44.70    2.90
  -4  -2  -5   51.19    3.20
  -4  -2  -5   53.59    3.90
  -4  -2  -5   48.60    2.90
  -4  -2  -5   38.50    3.30
   4   2   5   49.50    3.30
   4   2   5   54.99    3.40
   4   2   5   52.79    3.50
   4   2   5   48.80    3.70
   4   2   5   45.80    3.30
   4   2   5   43.50    3.40
  -5  -2  -5    1.10    1.30
  -5  -2  -5    1.40    1.00
  -5  -2  -5    1.20    0.90
  -5  -2  -5    0.00    1.00
  -5  -2  -5    1.10    0.80
  -5  -2  -5    1.80    0.80
   5   2   5    3.40    1.40
   5   2   5    1.90    1.10
   5   2   5    1.30    1.30
   5   2   5   -0.20    1.10
   5   2   5    0.40    0.90
  -6  -2  -5   16.10    2.20
  -6  -2  -5    9.10    2.30
  -6  -2  -5   12.50    2.70
  -6  -2  -5   18.50    2.60
  -6  -2  -5   20.10    2.50
  -6  -2  -5   14.10    2.90
   6   2   5   14.00    2.40
   6   2   5   12.40    2.40
   6   2   5   16.70    2.60
   6   2   5   17.20    2.60
  -7  -2  -5    3.10    1.70
  -7  -2  -5    1.60    1.80
  -7  -2  -5    0.30    1.10
  -7  -2  -5   -1.40    1.90
   7   2   5   -0.40    1.60
   7   2   5    1.90    1.70
   7   2   5    1.80    1.60
   9  -3  -5   -0.10    1.10
   9  -3  -5    0.50    1.00
   9  -3  -5   -0.10    1.00
   9  -3  -5    0.60    1.50
  -9   3   5    0.60    1.30
  -9   3   5    2.20    1.70
  -9   3   5    1.20    1.50
  -9   3   5    0.80    1.60
  -9   3   5    1.30    1.40
   8  -3  -5   -0.70    0.80
   8  -3  -5   -0.30    1.00
   8  -3  -5    1.30    0.80
   8  -3  -5    0.40    0.90
  -8   3   5   -1.10    1.30
  -8   3   5    1.40    1.40
  -8   3   5    1.60    1.40
  -8   3   5   -0.40    1.10
  -8   3   5    0.50    1.10
  -8   3   5    2.50    1.20
   7  -3  -5   -1.10    0.90
   7  -3  -5   -0.70    0.70
   7  -3  -5    1.00    0.80
   7  -3  -5    0.00    0.70
  -7   3   5    0.40    1.10
  -7   3   5    0.10    0.90
  -7   3   5    1.80    1.00
  -7   3   5    3.20    1.40
  -7   3   5    0.30    0.80
  -7   3   5    1.50    1.30
   6  -3  -5   20.20    2.10
   6  -3  -5   24.70    1.90
   6  -3  -5   24.70    2.00
   6  -3  -5   22.40    2.50
  -6   3   5   19.70    2.60
  -6   3   5   26.10    2.50
  -6   3   5   23.00    2.00
  -6   3   5   21.00    2.60
  -6   3   5   18.20    2.50
  -6   3   5   24.90    2.80
   5  -3  -5    1.60    0.60
   5  -3  -5    0.50    0.50
   5  -3  -5    0.40    0.60
   5  -3  -5    1.20    0.60
  -5   3   5    0.80    0.60
  -5   3   5    0.60    0.60
  -5   3   5   -0.60    0.40
  -5   3   5    1.70    0.70
  -5   3   5    0.40    0.70
  -5   3   5    1.00    0.80
   4  -3  -5   29.50    2.00
   4  -3  -5   29.20    2.00
   4  -3  -5   27.00    2.20
   4  -3  -5   31.00    1.90
  -4   3   5   30.80    2.50
  -4   3   5   32.50    2.10
  -4   3   5   33.90    2.60
  -4   3   5   31.20    2.20
  -4   3   5   30.00    2.20
  -4   3   5   32.10    2.50
   3  -3  -5   19.90    1.70
   3  -3  -5   20.50    1.50
   3  -3  -5   20.80    1.40
   3  -3  -5   17.90    1.40
  -3   3   5   18.40    1.90
  -3   3   5   19.90    2.10
  -3   3   5   16.70    1.90
  -3   3   5   21.00    1.40
  -3   3   5   18.30    1.60
  -3   3   5   19.70    1.50
   2  -3  -5   66.29    3.60
   2  -3  -5   70.99    3.40
   2  -3  -5   72.99    3.30
   2  -3  -5   70.39    3.50
   2  -3  -5   70.69    3.40
  -2   3   5   73.29    3.80
  -2   3   5   71.19    3.70
  -2   3   5   74.49    3.90
  -2   3   5   74.49    3.50
  -2   3   5   76.39    3.90
  -2   3   5   72.39    4.00
   1  -3  -5    1.10    0.50
   1  -3  -5    0.60    0.50
   1  -3  -5    1.30    0.50
   1  -3  -5    0.90    0.50
   1  -3  -5    0.80    0.40
   1  -3  -5    0.80    0.50
  -1   3   5    1.70    0.70
  -1   3   5    0.90    0.50
  -1   3   5    1.30    0.60
  -1   3   5    0.20    0.50
  -1   3   5    0.60    0.50
  -1   3   5    1.20    0.50
  -1   3   5    0.70    0.60
   0  -3  -5   22.00    1.40
   0  -3  -5   24.20    1.60
   0  -3  -5   25.30    1.60
   0  -3  -5   22.90    1.60
   0  -3  -5   22.00    1.50
   0  -3  -5   22.90    1.50
   0  -3  -5   22.70    1.70
   0   3   5   24.30    1.80
   0   3   5   21.00    1.40
   0   3   5   22.90    1.90
   0   3   5   22.60    1.70
   0   3   5   25.00    1.70
   0   3   5   23.50    2.10
  -1  -3  -5    0.20    0.50
  -1  -3  -5    0.10    0.30
  -1  -3  -5    0.40    0.50
  -1  -3  -5   -0.40    0.40
  -1  -3  -5    0.20    0.40
  -1  -3  -5    0.50    0.30
  -1  -3  -5    0.20    0.40
   1   3   5   -0.40    0.70
   1   3   5   -1.00    0.70
   1   3   5    0.10    0.40
   1   3   5   -0.50    0.60
   1   3   5   -0.90    0.60
  -2  -3  -5   30.30    1.90
  -2  -3  -5   25.90    2.30
  -2  -3  -5   28.70    2.40
  -2  -3  -5   29.10    1.70
  -2  -3  -5   27.60    2.60
  -2  -3  -5   29.20    1.90
  -2  -3  -5   28.30    2.00
   2   3   5   26.60    2.50
   2   3   5   28.50    2.70
   2   3   5   29.40    2.30
   2   3   5   26.60    2.30
   2   3   5   23.40    2.10
  -3  -3  -5   84.99    4.20
  -3  -3  -5   87.29    4.40
  -3  -3  -5   84.59    5.10
  -3  -3  -5   76.49    4.80
  -3  -3  -5   95.19    4.60
  -3  -3  -5   84.09    5.10
   3   3   5   83.89    4.90
   3   3   5   82.59    4.80
   3   3   5   87.09    4.90
   3   3   5   87.59    5.10
   3   3   5   85.79    4.70
   3   3   5   80.39    4.70
  -4  -3  -5   69.99    3.80
  -4  -3  -5   73.49    4.80
  -4  -3  -5   72.39    4.00
  -4  -3  -5   74.69    4.90
  -4  -3  -5   61.99    4.50
  -4  -3  -5   61.29    3.80
   4   3   5   68.89    4.40
   4   3   5   67.49    4.30
   4   3   5   66.49    4.30
   4   3   5   71.29    4.30
   4   3   5   62.79    4.30
   4   3   5   70.29    4.50
  -5  -3  -5    0.50    1.00
  -5  -3  -5    1.00    0.80
  -5  -3  -5   -0.30    1.20
  -5  -3  -5    0.30    1.00
  -5  -3  -5    0.60    0.90
  -5  -3  -5    0.20    1.20
   5   3   5    0.70    1.20
   5   3   5   -1.90    1.00
   5   3   5   -0.10    1.00
   5   3   5   -0.10    1.30
   5   3   5    1.90    1.40
   5   3   5   -1.10    1.10
  -6  -3  -5    7.30    1.50
  -6  -3  -5   14.90    2.20
  -6  -3  -5    5.60    1.70
  -6  -3  -5   10.70    2.60
  -6  -3  -5    5.70    2.00
  -6  -3  -5   12.10    2.10
   6   3   5    5.90    2.10
   6   3   5    5.90    1.90
   6   3   5   11.80    2.30
   6   3   5    9.00    2.20
   6   3   5    8.00    2.00
  -7  -3  -5    1.30    1.80
  -7  -3  -5    2.50    1.40
  -7  -3  -5   -1.20    1.50
  -7  -3  -5   -2.10    1.80
   7   3   5   -1.50    1.50
   7   3   5    1.60    1.70
   7   3   5    2.40    1.80
   9  -4  -5    0.60    1.50
   9  -4  -5    3.40    1.20
   9  -4  -5    1.60    1.30
  -9   4   5    0.70    1.90
  -9   4   5    4.40    2.00
  -9   4   5    2.20    1.60
  -9   4   5    1.90    1.80
   8  -4  -5    2.90    1.60
   8  -4  -5    4.80    1.40
   8  -4  -5    3.90    1.30
  -8   4   5    5.70    1.70
  -8   4   5    4.90    1.90
  -8   4   5    4.10    1.70
  -8   4   5    6.30    1.80
   7  -4  -5   17.80    2.10
   7  -4  -5   18.70    2.20
   7  -4  -5   17.80    2.40
   7  -4  -5   19.40    2.10
  -7   4   5   21.50    2.90
  -7   4   5   19.70    2.50
  -7   4   5   15.40    2.50
  -7   4   5   16.80    2.60
   6  -4  -5   -0.50    0.60
   6  -4  -5   -0.20    0.50
   6  -4  -5    0.30    0.50
   6  -4  -5    0.10    0.90
  -6   4   5    0.20    0.70
  -6   4   5   -0.10    0.90
  -6   4   5    1.20    1.20
  -6   4   5    0.00    0.60
  -6   4   5   -0.50    0.90
   5  -4  -5    5.10    1.30
   5  -4  -5    3.90    0.90
   5  -4  -5    5.40    1.00
   5  -4  -5    4.00    0.90
  -5   4   5    4.00    1.30
  -5   4   5    4.20    1.30
  -5   4   5    3.90    1.00
  -5   4   5    6.30    1.50
  -5   4   5    3.40    1.00
  -5   4   5    3.60    0.90
   4  -4  -5    2.20    0.60
   4  -4  -5    1.40    0.70
   4  -4  -5    2.40    1.00
   4  -4  -5    2.20    0.70
  -4   4   5    2.10    0.70
  -4   4   5    1.30    1.00
  -4   4   5    1.20    0.80
  -4   4   5    2.10    0.80
  -4   4   5    3.40    1.10
   3  -4  -5   21.20    1.70
   3  -4  -5   23.40    1.60
   3  -4  -5   24.70    2.00
   3  -4  -5   25.60    1.70
  -3   4   5   24.00    1.80
  -3   4   5   25.20    2.50
  -3   4   5   26.50    2.10
  -3   4   5   26.20    2.00
  -3   4   5   20.20    2.10
   2  -4  -5   12.20    1.30
   2  -4  -5   12.30    1.40
   2  -4  -5   13.90    1.30
   2  -4  -5   13.20    1.10
   2  -4  -5   13.90    1.30
  -2   4   5   15.10    1.80
  -2   4   5   13.90    1.60
  -2   4   5   13.10    1.60
  -2   4   5   13.90    1.60
  -2   4   5   13.70    1.60
  -2   4   5   15.30    1.20
   1  -4  -5   22.10    1.70
   1  -4  -5   22.10    1.50
   1  -4  -5   22.40    1.60
   1  -4  -5   22.60    1.60
   1  -4  -5   22.90    1.60
  -1   4   5   24.90    1.70
  -1   4   5   25.90    2.00
  -1   4   5   19.90    1.60
  -1   4   5   20.80    2.00
  -1   4   5   22.40    2.20
  -1   4   5   26.90    1.90
   0  -4  -5    0.80    0.40
   0  -4  -5    0.40    0.50
   0  -4  -5    0.50    0.30
   0  -4  -5    0.80    0.40
   0  -4  -5    0.30    0.40
   0  -4  -5   -0.20    0.30
   0  -4  -5    0.80    0.50
   0  -4  -5   -0.20    0.50
   0   4   5    0.60    0.40
   0   4   5   -0.50    0.60
   0   4   5   -0.30    0.70
   0   4   5   -0.40    0.50
   0   4   5   -1.00    0.80
   0   4   5   -0.20    0.50
  -1  -4  -5    9.10    1.40
  -1  -4  -5    6.90    1.30
  -1  -4  -5    8.20    1.00
  -1  -4  -5    6.40    1.30
  -1  -4  -5    7.10    1.00
  -1  -4  -5    8.30    0.90
  -1  -4  -5    5.70    1.00
   1   4   5    5.80    1.40
   1   4   5    8.80    1.60
   1   4   5    7.20    1.30
   1   4   5    6.90    1.40
  -2  -4  -5   41.10    2.40
  -2  -4  -5   37.10    2.30
  -2  -4  -5   37.30    2.50
  -2  -4  -5   32.20    2.70
  -2  -4  -5   37.70    2.90
  -2  -4  -5   33.20    2.80
   2   4   5   37.50    2.70
   2   4   5   40.30    3.10
   2   4   5   37.70    3.00
   2   4   5   34.50    2.90
  -3  -4  -5    9.80    1.50
  -3  -4  -5   10.80    1.90
  -3  -4  -5   13.70    1.60
  -3  -4  -5   12.50    1.50
  -3  -4  -5   12.00    2.00
  -3  -4  -5   11.00    2.00
   3   4   5   12.10    2.00
   3   4   5   10.80    1.90
   3   4   5   10.70    1.90
   3   4   5   12.30    1.90
   3   4   5   11.30    1.90
  -4  -4  -5    2.00    0.90
  -4  -4  -5    0.50    0.90
  -4  -4  -5    0.20    0.60
  -4  -4  -5    1.00    1.20
  -4  -4  -5    0.10    1.10
  -4  -4  -5    1.20    1.10
   4   4   5   -1.10    1.10
   4   4   5   -0.70    0.70
   4   4   5   -0.30    0.80
   4   4   5   -0.40    0.90
   4   4   5   -0.40    1.20
   4   4   5    2.70    1.20
  -5  -4  -5    2.60    1.50
  -5  -4  -5    0.70    1.50
  -5  -4  -5    3.20    1.20
  -5  -4  -5    3.40    1.10
  -5  -4  -5    1.30    1.10
  -5  -4  -5    6.50    1.40
   5   4   5    2.90    1.70
   5   4   5    3.60    1.30
   5   4   5    2.20    1.50
   5   4   5    3.40    1.60
   5   4   5    1.10    1.50
   5   4   5    1.10    1.30
  -6  -4  -5   13.10    2.90
  -6  -4  -5   14.20    2.90
  -6  -4  -5   12.80    2.00
  -6  -4  -5   11.90    2.00
  -6  -4  -5   12.60    2.30
   6   4   5   11.10    2.30
   6   4   5    6.60    2.00
   6   4   5    6.70    2.30
   6   4   5    9.50    2.30
  -7  -4  -5    1.60    1.40
  -7  -4  -5    0.70    2.00
  -7  -4  -5   -1.00    1.40
  -7  -4  -5    2.20    1.90
   7   4   5    1.10    1.80
   7   4   5   -0.60    1.80
   7   4   5   -1.40    1.50
   8  -5  -5    1.40    1.00
   8  -5  -5   -0.40    1.30
   8  -5  -5   -0.70    0.70
  -8   5   5    0.20    1.70
  -8   5   5    0.40    1.00
  -8   5   5    0.30    1.00
  -8   5   5   -0.60    1.50
   7  -5  -5   -0.20    0.80
   7  -5  -5   -0.20    0.70
   7  -5  -5   -1.00    1.10
   7  -5  -5    0.40    0.90
  -7   5   5   -0.30    1.40
  -7   5   5   -1.30    1.00
  -7   5   5    1.00    1.00
  -7   5   5    0.40    1.10
   6  -5  -5    0.20    0.70
   6  -5  -5   -0.10    0.70
   6  -5  -5    0.20    0.80
   6  -5  -5    0.70    1.10
  -6   5   5   -0.30    1.10
  -6   5   5    2.40    1.20
  -6   5   5   -0.30    1.00
  -6   5   5    0.70    1.30
   5  -5  -5    0.70    0.70
   5  -5  -5    0.10    0.70
   5  -5  -5    1.50    0.70
   5  -5  -5    1.10    0.60
  -5   5   5    0.10    0.70
  -5   5   5    0.30    0.70
  -5   5   5    1.70    1.00
  -5   5   5    1.50    1.10
  -5   5   5    0.10    1.10
   4  -5  -5    0.50    0.60
   4  -5  -5    0.40    0.60
   4  -5  -5    0.00    0.50
   4  -5  -5    0.20    0.60
  -4   5   5   -0.10    0.90
  -4   5   5   -0.40    0.60
  -4   5   5    1.60    0.80
  -4   5   5   -0.40    0.50
  -4   5   5    0.50    0.70
   3  -5  -5   15.50    1.60
   3  -5  -5   16.30    1.80
   3  -5  -5   14.50    1.60
   3  -5  -5   16.20    1.60
  -3   5   5   18.10    2.00
  -3   5   5   15.20    2.00
  -3   5   5   17.30    2.00
  -3   5   5   12.50    2.00
  -3   5   5   13.90    1.60
   2  -5  -5   32.70    2.10
   2  -5  -5   31.10    2.00
   2  -5  -5   28.70    1.90
   2  -5  -5   26.40    2.00
  -2   5   5   27.50    2.40
  -2   5   5   28.30    2.30
  -2   5   5   33.80    2.40
  -2   5   5   30.40    2.00
  -2   5   5   32.20    2.40
  -2   5   5   31.40    2.20
   1  -5  -5  113.59    5.40
   1  -5  -5  116.29    5.20
   1  -5  -5  115.89    5.50
   1  -5  -5  107.09    5.20
   1  -5  -5  112.49    5.20
  -1   5   5  105.49    5.90
  -1   5   5  120.19    5.40
  -1   5   5  122.89    5.90
  -1   5   5  115.29    5.50
  -1   5   5  112.59    5.80
  -1   5   5  115.99    5.50
   0  -5  -5  226.88    9.60
   0  -5  -5  241.88    9.90
   0  -5  -5  233.78    9.40
   0  -5  -5  237.58   10.20
   0  -5  -5  222.38    9.50
   0   5   5  217.68   10.30
   0   5   5  231.48   10.20
   0   5   5  233.88   10.10
   0   5   5  214.88   10.40
  -1  -5  -5   26.20    2.20
  -1  -5  -5   28.80    2.40
  -1  -5  -5   31.50    2.60
  -1  -5  -5   32.40    2.00
  -1  -5  -5   33.40    2.30
  -1  -5  -5   32.10    2.00
   1   5   5   31.00    2.50
   1   5   5   33.60    2.40
   1   5   5   24.90    2.70
   1   5   5   22.20    2.70
  -2  -5  -5  136.99    6.60
  -2  -5  -5  135.79    7.00
  -2  -5  -5  138.29    7.20
  -2  -5  -5  145.19    6.40
  -2  -5  -5  145.79    6.40
  -2  -5  -5  145.59    7.40
   2   5   5  138.29    7.20
   2   5   5  144.89    7.30
   2   5   5  139.59    7.40
   2   5   5  133.79    6.80
  -3  -5  -5   25.20    1.90
  -3  -5  -5   21.50    2.80
  -3  -5  -5   19.00    2.20
  -3  -5  -5   22.10    2.80
  -3  -5  -5   23.00    2.80
  -3  -5  -5   23.30    2.20
   3   5   5   23.30    2.70
   3   5   5   20.20    2.50
   3   5   5   17.00    2.60
   3   5   5   22.00    2.80
  -4  -5  -5    8.30    2.00
  -4  -5  -5    9.50    2.00
  -4  -5  -5    6.80    1.30
  -4  -5  -5    7.60    1.70
  -4  -5  -5    7.40    1.40
  -4  -5  -5    4.50    1.80
   4   5   5    7.50    1.90
   4   5   5    6.10    1.90
   4   5   5    8.90    1.90
   4   5   5    6.40    1.70
   4   5   5    6.60    2.00
  -5  -5  -5   25.50    3.00
  -5  -5  -5   20.60    2.30
  -5  -5  -5   18.00    3.00
  -5  -5  -5   19.00    3.00
  -5  -5  -5   20.80    3.30
  -5  -5  -5   25.80    2.60
   5   5   5   22.70    3.00
   5   5   5   19.80    3.00
   5   5   5   21.40    3.00
   5   5   5   18.30    2.70
   5   5   5   18.90    2.90
   5   5   5   18.60    2.70
  -6  -5  -5    2.60    1.20
  -6  -5  -5    3.80    1.60
  -6  -5  -5    1.60    1.70
  -6  -5  -5    3.00    2.10
   6   5   5    3.70    1.90
   6   5   5    2.50    1.60
   6   5   5    0.20    1.70
   6   5   5    3.10    1.90
   8  -6  -5   -0.20    1.30
   8  -6  -5    1.30    1.20
   8  -6  -5   -0.20    1.10
  -8   6   5    0.70    1.40
  -8   6   5    1.00    1.80
  -8   6   5   -1.90    1.60
  -8   6   5   -0.60    1.40
   7  -6  -5    0.10    0.90
   7  -6  -5   -0.70    0.80
   7  -6  -5    0.70    1.30
  -7   6   5   -0.80    1.10
  -7   6   5    1.60    1.80
  -7   6   5    0.20    1.50
  -7   6   5   -0.10    1.30
   6  -6  -5    1.10    1.10
   6  -6  -5    1.40    1.00
   6  -6  -5    2.40    1.10
   6  -6  -5    1.00    0.80
  -6   6   5    0.00    1.20
  -6   6   5    1.70    1.20
  -6   6   5   -0.50    1.10
  -6   6   5    2.60    1.40
   5  -6  -5   23.60    2.30
   5  -6  -5   29.80    2.20
   5  -6  -5   31.30    2.40
   5  -6  -5   26.80    2.80
  -5   6   5   29.10    3.30
  -5   6   5   31.40    2.60
  -5   6   5   27.70    3.00
  -5   6   5   28.50    3.30
   4  -6  -5  124.79    5.70
   4  -6  -5  111.39    6.00
   4  -6  -5  109.49    5.60
   4  -6  -5  105.89    5.70
  -4   6   5  126.79    6.70
  -4   6   5  128.29    6.20
  -4   6   5  121.29    6.80
  -4   6   5  134.79    6.00
  -4   6   5  125.59    6.40
   3  -6  -5    0.60    0.70
   3  -6  -5   -0.10    0.70
   3  -6  -5    1.20    0.80
   3  -6  -5    0.10    0.50
  -3   6   5    0.80    0.80
  -3   6   5    1.10    1.10
  -3   6   5   -0.20    0.90
  -3   6   5    0.40    0.80
  -3   6   5    2.00    1.00
   2  -6  -5  518.55   21.00
   2  -6  -5  539.45   21.20
   2  -6  -5  485.55   21.10
   2  -6  -5  502.15   21.10
  -2   6   5  553.44   21.70
  -2   6   5  521.25   21.90
  -2   6   5  545.85   21.70
  -2   6   5  565.24   22.20
  -2   6   5  530.95   21.40
   1  -6  -5   83.49    4.60
   1  -6  -5   84.89    4.30
   1  -6  -5   85.69    4.20
   1  -6  -5   85.59    4.40
   1  -6  -5   83.89    4.20
  -1   6   5   87.49    5.00
  -1   6   5   91.99    4.70
  -1   6   5   89.59    4.50
  -1   6   5   88.99    5.10
  -1   6   5   87.59    4.90
   0  -6  -5   99.39    4.70
   0  -6  -5   96.99    4.70
   0  -6  -5   99.79    5.00
   0  -6  -5   99.59    5.40
   0   6   5   96.39    5.40
   0   6   5   98.89    5.70
   0   6   5   98.49    5.30
   0   6   5  100.29    5.30
  -1  -6  -5    6.80    1.50
  -1  -6  -5    4.20    1.20
  -1  -6  -5    6.90    1.10
  -1  -6  -5    6.20    1.00
  -1  -6  -5    5.80    1.20
   1   6   5    2.70    1.30
   1   6   5    5.30    1.70
   1   6   5    8.10    1.80
   1   6   5    6.40    1.70
  -2  -6  -5    1.00    1.00
  -2  -6  -5    1.80    1.00
  -2  -6  -5    2.00    0.80
  -2  -6  -5    1.00    0.90
  -2  -6  -5    1.30    1.00
  -2  -6  -5    1.90    0.70
   2   6   5    0.60    1.30
   2   6   5   -0.30    1.20
   2   6   5    0.40    1.00
   2   6   5    2.10    1.30
  -3  -6  -5    5.80    1.70
  -3  -6  -5   11.20    2.10
  -3  -6  -5   13.90    1.70
  -3  -6  -5   10.70    1.80
  -3  -6  -5   12.50    2.20
  -3  -6  -5   13.40    1.60
   3   6   5    8.20    1.80
   3   6   5    6.90    1.80
   3   6   5    7.80    1.90
   3   6   5    9.90    2.20
  -4  -6  -5    0.90    0.90
  -4  -6  -5    0.40    1.30
  -4  -6  -5    0.10    1.20
  -4  -6  -5    0.10    0.70
  -4  -6  -5   -0.70    1.00
  -4  -6  -5    0.90    1.10
   4   6   5   -1.20    1.30
   4   6   5    1.90    1.40
   4   6   5    0.00    1.40
   4   6   5   -1.70    1.30
  -5  -6  -5   -1.10    1.50
  -5  -6  -5    0.60    0.90
  -5  -6  -5    0.80    1.10
  -5  -6  -5   -0.30    1.50
   5   6   5   -2.40    1.40
   5   6   5    0.20    1.20
   5   6   5   -1.20    1.30
   5   6   5    0.10    1.20
   5   6   5   -1.40    1.70
  -6  -6  -5   -1.70    1.60
  -6  -6  -5   -0.30    1.60
  -6  -6  -5    1.10    1.90
   6   6   5    3.30    2.10
   6   6   5    0.70    1.70
   6   6   5    1.90    1.90
   6   6   5    2.20    1.60
   7  -7  -5    1.90    1.40
   7  -7  -5    0.20    0.90
   7  -7  -5    1.50    1.20
  -7   7   5    0.30    1.50
  -7   7   5   -0.80    1.00
  -7   7   5    1.00    1.70
  -7   7   5    0.30    1.80
   6  -7  -5   56.99    3.70
   6  -7  -5   52.79    3.40
   6  -7  -5   46.40    3.80
   6  -7  -5   45.90    3.80
  -6   7   5   55.29    4.30
  -6   7   5   52.99    4.50
  -6   7   5   48.30    4.90
   5  -7  -5   13.60    1.80
   5  -7  -5   10.80    1.80
   5  -7  -5    9.70    1.40
   5  -7  -5    8.60    1.60
  -5   7   5   13.00    2.30
  -5   7   5   13.60    2.20
  -5   7   5   10.60    2.30
   4  -7  -5   66.39    3.80
   4  -7  -5   56.89    3.90
   4  -7  -5   64.89    3.70
   4  -7  -5   67.29    3.70
  -4   7   5   59.69    4.60
  -4   7   5   60.19    4.10
  -4   7   5   62.59    4.50
  -4   7   5   73.69    4.20
   3  -7  -5    3.10    0.90
   3  -7  -5    4.10    1.10
   3  -7  -5    3.30    0.90
   3  -7  -5    5.10    1.20
  -3   7   5    3.20    1.10
  -3   7   5    4.30    1.20
  -3   7   5    8.00    1.50
  -3   7   5    2.00    1.30
  -3   7   5    5.70    1.50
   2  -7  -5    5.20    1.10
   2  -7  -5    6.50    1.20
   2  -7  -5    5.50    1.00
   2  -7  -5    8.00    1.20
  -2   7   5    3.50    1.20
  -2   7   5    8.80    1.60
  -2   7   5   10.40    1.90
  -2   7   5    8.00    1.70
   1  -7  -5    7.90    1.30
   1  -7  -5    8.30    1.20
   1  -7  -5    8.30    1.20
  -1   7   5   11.30    1.90
  -1   7   5    8.90    1.90
  -1   7   5   10.10    1.80
   0  -7  -5    5.70    1.10
   0  -7  -5    8.20    1.60
   0  -7  -5    8.50    1.20
   0  -7  -5    4.80    0.90
   0   7   5    6.20    1.40
   0   7   5    5.80    1.50
   0   7   5    5.40    1.60
   0   7   5    8.70    1.80
  -1  -7  -5    2.70    0.80
  -1  -7  -5    3.80    1.20
  -1  -7  -5    2.40    1.10
  -1  -7  -5    4.20    0.90
   1   7   5    1.90    1.30
   1   7   5    4.10    1.40
   1   7   5    5.10    1.60
  -2  -7  -5   -0.30    0.60
  -2  -7  -5    0.10    0.60
  -2  -7  -5    0.00    1.00
  -2  -7  -5   -0.70    0.80
  -2  -7  -5    0.60    1.00
   2   7   5    1.20    1.30
   2   7   5   -1.20    1.20
   2   7   5    0.80    1.40
  -3  -7  -5    6.60    1.80
  -3  -7  -5    6.40    1.90
  -3  -7  -5    8.70    2.00
  -3  -7  -5    8.40    1.50
  -3  -7  -5    8.20    1.40
  -3  -7  -5    7.80    1.60
   3   7   5    6.10    1.90
   3   7   5    3.70    1.70
   3   7   5    5.30    1.70
   3   7   5    7.30    2.10
  -4  -7  -5    2.00    1.20
  -4  -7  -5    0.60    1.50
  -4  -7  -5    0.70    1.40
  -4  -7  -5    2.10    1.60
   4   7   5    4.10    1.70
   4   7   5    2.80    1.60
   4   7   5    2.80    1.60
  -5  -7  -5    3.70    1.60
  -5  -7  -5    1.30    2.00
  -5  -7  -5    3.00    1.90
   5   7   5    2.50    2.00
   5   7   5    1.10    1.70
   5   7   5    1.10    1.50
   5   7   5    0.80    1.50
   7  -8  -5    0.90    1.60
   7  -8  -5   -0.30    0.80
   7  -8  -5    1.40    1.20
  -7   8   5   -0.80    1.50
  -7   8   5   -0.20    1.60
  -7   8   5   -1.30    1.90
   6  -8  -5   -0.50    1.30
   6  -8  -5    0.10    1.10
   6  -8  -5    4.70    1.30
  -6   8   5    1.90    1.70
  -6   8   5   -0.40    1.80
  -6   8   5    2.90    1.70
   5  -8  -5    6.30    1.40
   5  -8  -5    9.10    1.70
   5  -8  -5    6.40    1.40
   5  -8  -5    4.80    1.50
  -5   8   5    7.00    2.10
  -5   8   5    8.80    2.40
  -5   8   5    3.10    1.50
   4  -8  -5    2.20    1.00
   4  -8  -5    2.00    1.00
   4  -8  -5    1.00    0.90
   4  -8  -5    3.20    1.20
  -4   8   5    6.50    1.50
  -4   8   5    1.40    1.40
  -4   8   5    2.90    1.50
  -4   8   5    2.60    1.20
   3  -8  -5    0.40    0.80
   3  -8  -5    0.20    0.70
   3  -8  -5    0.80    0.80
   3  -8  -5   -0.40    0.60
  -3   8   5    0.20    1.30
  -3   8   5    0.60    0.90
  -3   8   5    1.70    1.00
  -3   8   5   -0.40    0.90
   2  -8  -5   24.70    2.50
   2  -8  -5   29.40    2.20
   2  -8  -5   24.70    2.00
  -2   8   5   22.60    2.90
  -2   8   5   22.80    2.60
  -2   8   5   30.80    3.20
   1  -8  -5    7.60    1.20
   1  -8  -5    6.00    1.10
   1  -8  -5    3.60    1.20
  -1   8   5    4.10    1.50
  -1   8   5    3.30    1.40
  -1   8   5    6.70    1.70
   0  -8  -5    0.70    0.70
   0  -8  -5    1.40    0.80
   0  -8  -5    0.00    0.70
   0   8   5    2.00    1.50
   0   8   5    0.90    1.40
  -1  -8  -5   11.10    1.90
  -1  -8  -5   10.70    1.40
  -1  -8  -5   11.80    2.20
  -1  -8  -5   12.00    1.50
   1   8   5   13.10    2.50
   1   8   5   17.70    2.70
   1   8   5    9.20    2.00
  -2  -8  -5    6.40    1.30
  -2  -8  -5    5.60    1.50
  -2  -8  -5    4.60    1.60
   2   8   5    3.90    1.70
   2   8   5    5.20    1.80
   2   8   5    1.90    1.60
  -3  -8  -5   -1.20    1.20
  -3  -8  -5    2.20    1.40
  -3  -8  -5    2.90    1.40
   3   8   5    3.70    1.80
   3   8   5    1.80    1.70
  -4  -8  -5    0.60    1.50
  -4  -8  -5    1.20    1.30
  -4  -8  -5   -0.10    1.40
   4   8   5    2.70    1.80
   4   8   5    0.10    1.60
   4   8   5   -2.60    1.60
   6  -9  -5    0.60    1.20
   6  -9  -5    1.00    1.40
   6  -9  -5    0.60    1.10
  -6   9   5   -0.10    2.00
  -6   9   5    0.00    1.20
  -6   9   5   -0.40    1.40
   5  -9  -5    1.50    1.20
   5  -9  -5    5.00    1.50
   5  -9  -5    1.40    1.10
  -5   9   5    0.60    1.20
  -5   9   5    1.50    1.90
  -5   9   5    2.40    1.50
   4  -9  -5    3.10    1.20
   4  -9  -5    2.10    1.00
  -4   9   5    1.30    1.70
  -4   9   5    1.50    1.50
   3  -9  -5    4.30    1.10
   3  -9  -5    5.40    1.20
   3  -9  -5    5.60    1.30
  -3   9   5    4.40    1.80
  -3   9   5    6.80    1.70
   2  -9  -5   -0.30    0.80
   2  -9  -5   -0.30    0.70
   2  -9  -5   -0.50    0.60
  -2   9   5    2.50    1.40
  -2   9   5    0.10    1.00
  -2   9   5    1.70    1.50
   1  -9  -5   -0.80    0.90
   1  -9  -5   -0.90    0.50
   1  -9  -5    0.30    0.60
  -1   9   5    1.50    1.50
  -1   9   5   -1.30    1.00
  -1   9   5    0.30    1.10
   0  -9  -5    1.40    0.80
   0  -9  -5   -0.10    1.00
   0  -9  -5    1.60    0.70
   0   9   5    0.60    1.30
   0   9   5    1.30    1.40
  -1  -9  -5    7.80    1.80
   1   9   5    8.60    2.20
  -2  -9  -5    0.10    1.20
  -2  -9  -5    2.30    1.40
   2   9   5   -1.60    1.30
   2   9   5   -1.00    1.50
  -3  -9  -5    1.30    1.40
   3   9   5   -1.60    1.50
   3   9   5    1.10    1.80
   4 -10  -5    3.70    1.40
   4 -10  -5    3.50    1.30
  -4  10   5    2.20    2.00
   3 -10  -5    2.20    1.20
   3 -10  -5    2.40    1.20
  -3  10   5    1.30    1.80
   2 -10  -5    1.20    0.90
   2 -10  -5    2.80    1.30
   2 -10  -5    0.80    1.10
  -2  10   5   -0.70    1.40
  -2  10   5    2.20    1.40
   1 -10  -5    2.00    1.30
   1 -10  -5   -0.40    0.80
  -1  10   5   -1.00    1.10
  -1  10   5    1.50    1.60
   0 -10  -5    1.00    1.10
   0  10   5    1.80    1.30
  -1 -10  -5   13.20    2.30
   1  10   5    6.80    2.30
  -2 -10  -5    4.70    1.90
   3  12  -6    2.50    1.50
   3  12  -6   -0.90    1.50
   3  12  -6   -0.70    1.20
  -3 -12   6    0.50    1.50
  -3 -12   6    0.70    1.30
  -3 -12   6    0.70    1.40
   2  12  -6    0.90    1.70
  -2 -12   6    4.90    1.60
  -2 -12   6    1.90    1.60
   1  12  -6   -0.30    1.50
  -1 -12   6    0.90    1.00
  -1 -12   6    2.00    1.40
   0  12  -6   -2.30    1.50
   0  12  -6    0.90    1.30
   0 -12   6    0.10    0.90
   0 -12   6   -0.90    1.30
  -1  12  -6   -0.50    1.30
  -1  12  -6   -0.30    1.70
   1 -12   6   -1.20    0.90
  -2  12  -6   -0.70    1.50
  -2  12  -6    1.60    1.50
   2 -12   6    0.00    0.90
  -3  12  -6    2.90    1.70
  -3  12  -6   -0.70    1.70
   3 -12   6   -0.50    1.00
   4  11  -6    0.90    1.00
   4  11  -6    2.50    1.60
   4  11  -6    2.80    1.40
  -4 -11   6   -0.50    1.50
  -4 -11   6   -0.40    1.00
  -4 -11   6    1.30    1.50
  -4 -11   6   -0.10    1.50
   3  11  -6    3.50    1.30
   3  11  -6    5.00    1.70
   3  11  -6    3.30    1.40
  -3 -11   6    2.80    1.50
  -3 -11   6    2.70    1.60
  -3 -11   6    2.90    1.40
  -3 -11   6    3.60    1.70
   2  11  -6    1.80    1.50
   2  11  -6    0.50    1.20
   2  11  -6    1.20    1.00
   2  11  -6    1.30    1.10
  -2 -11   6    1.40    1.10
  -2 -11   6    2.80    1.30
  -2 -11   6    0.30    0.90
   1  11  -6    1.40    0.90
   1  11  -6    2.00    1.50
  -1 -11   6    0.60    0.90
  -1 -11   6   -0.20    1.00
  -1 -11   6    0.00    1.00
   0  11  -6    4.40    1.80
   0  11  -6    7.10    1.70
   0 -11   6    8.60    1.80
   0 -11   6    4.70    1.40
   0 -11   6    6.80    1.70
  -1  11  -6    7.10    2.10
  -1  11  -6    7.50    1.80
   1 -11   6    9.30    1.70
   1 -11   6    7.10    1.70
   1 -11   6    6.70    1.80
  -2  11  -6    0.90    1.30
  -2  11  -6    1.50    1.30
   2 -11   6    0.10    1.00
  -3  11  -6    2.60    1.60
  -3  11  -6    2.80    1.70
   3 -11   6    0.00    1.00
  -4  11  -6    4.30    1.60
  -4  11  -6    6.60    2.00
  -4  11  -6    3.00    1.90
   4 -11   6    5.30    1.50
   5  10  -6   -1.00    1.10
   5  10  -6    0.30    1.30
   5  10  -6   -0.60    0.90
  -5 -10   6    1.30    1.50
  -5 -10   6    2.90    1.90
  -5 -10   6    0.60    1.30
  -5 -10   6    0.10    1.10
   4  10  -6    0.00    0.80
   4  10  -6   -0.50    0.90
   4  10  -6   -0.40    1.30
  -4 -10   6   -0.40    1.20
  -4 -10   6    0.70    1.50
  -4 -10   6   -1.10    1.30
  -4 -10   6   -0.30    0.80
  -4 -10   6    0.10    1.50
   3  10  -6   11.50    1.90
   3  10  -6    9.10    1.90
   3  10  -6   13.20    2.10
   3  10  -6   12.50    2.10
  -3 -10   6   10.50    2.20
  -3 -10   6    6.80    1.50
  -3 -10   6   12.30    2.30
  -3 -10   6    9.00    2.00
  -3 -10   6   10.90    2.00
   2  10  -6    7.10    1.50
   2  10  -6    5.70    1.50
   2  10  -6    3.80    1.30
   2  10  -6    6.50    1.60
  -2 -10   6    6.80    1.60
  -2 -10   6    3.50    1.20
  -2 -10   6    4.70    1.60
  -2 -10   6    5.10    1.50
  -2 -10   6    4.80    1.30
   1  10  -6    2.60    1.10
   1  10  -6    4.50    1.60
   1  10  -6    1.30    1.00
   1  10  -6    5.10    1.20
  -1 -10   6    4.70    1.50
  -1 -10   6    3.60    1.30
  -1 -10   6    3.00    1.20
   0  10  -6   -0.60    0.70
   0  10  -6   -0.90    0.50
   0 -10   6   -0.20    0.90
   0 -10   6   -0.40    0.50
   0 -10   6    2.10    1.10
  -1  10  -6    8.70    1.80
  -1  10  -6    7.10    1.90
   1 -10   6   11.10    1.80
   1 -10   6    9.30    1.80
   1 -10   6    9.60    1.70
  -2  10  -6    0.40    1.00
  -2  10  -6   -0.30    0.80
   2 -10   6    0.30    0.90
   2 -10   6    0.00    0.90
   2 -10   6    1.30    0.80
  -3  10  -6   24.70    2.90
  -3  10  -6   29.50    3.50
  -3  10  -6   26.60    3.30
   3 -10   6   30.50    2.80
   3 -10   6   28.10    2.80
  -4  10  -6    4.10    1.50
  -4  10  -6    3.50    1.60
  -4  10  -6   -0.10    1.40
   4 -10   6    2.20    1.20
  -5  10  -6    0.90    1.70
  -5  10  -6    2.20    1.60
   5 -10   6   -0.90    1.00
   5 -10   6    1.20    1.30
   6   9  -6    0.80    1.30
   6   9  -6    1.30    1.30
   6   9  -6    2.10    1.60
  -6  -9   6    1.10    1.20
  -6  -9   6    2.50    1.60
  -6  -9   6    2.20    1.90
  -6  -9   6    1.80    1.60
   5   9  -6    1.00    1.10
   5   9  -6    0.00    1.10
   5   9  -6    0.70    1.40
  -5  -9   6    0.80    1.40
  -5  -9   6   -0.40    1.10
  -5  -9   6   -0.20    1.30
  -5  -9   6    0.40    0.90
  -5  -9   6    0.50    1.10
   4   9  -6    0.60    1.00
   4   9  -6   -0.60    0.60
   4   9  -6    0.80    1.20
  -4  -9   6    1.60    1.10
  -4  -9   6   -0.30    1.10
  -4  -9   6    1.20    0.80
  -4  -9   6   -0.80    1.20
  -4  -9   6    1.60    1.10
   3   9  -6   -0.80    0.70
   3   9  -6    1.10    1.10
   3   9  -6    0.50    0.80
  -3  -9   6    0.40    0.90
  -3  -9   6    0.60    0.80
  -3  -9   6   -0.90    0.80
  -3  -9   6    1.20    1.00
  -3  -9   6    2.00    1.20
   2   9  -6    0.70    0.80
   2   9  -6    1.60    0.90
   2   9  -6   -0.70    0.70
   2   9  -6    0.00    0.80
  -2  -9   6    1.80    1.10
  -2  -9   6   -0.30    0.70
  -2  -9   6    0.00    0.70
  -2  -9   6    1.00    0.90
  -2  -9   6    0.50    0.90
   1   9  -6   57.69    3.60
   1   9  -6   61.19    3.70
   1   9  -6   60.29    3.70
   1   9  -6   60.49    4.00
  -1  -9   6   57.09    3.90
  -1  -9   6   54.99    3.40
  -1  -9   6   62.99    3.80
  -1  -9   6   60.89    3.80
  -1  -9   6   58.79    3.90
   0   9  -6    3.40    1.20
   0   9  -6    2.50    1.10
   0  -9   6    4.90    1.30
   0  -9   6    4.00    1.10
   0  -9   6    2.90    1.10
  -1   9  -6    2.60    1.00
  -1   9  -6    1.40    1.00
  -1   9  -6    1.90    1.10
   1  -9   6    2.60    1.00
   1  -9   6    1.70    0.90
   1  -9   6    2.20    1.00
  -2   9  -6    3.20    1.50
  -2   9  -6    5.00    1.40
  -2   9  -6    3.10    1.10
   2  -9   6    4.30    1.20
   2  -9   6    6.40    1.40
   2  -9   6    2.80    1.00
  -3   9  -6    2.50    1.20
  -3   9  -6    5.10    1.50
  -3   9  -6    4.60    1.60
   3  -9   6    9.00    1.60
   3  -9   6   10.10    1.50
   3  -9   6    4.50    1.10
  -4   9  -6   14.00    2.30
  -4   9  -6   11.90    2.30
  -4   9  -6   19.30    2.70
  -4   9  -6   19.60    2.90
   4  -9   6   15.90    2.10
   4  -9   6   15.50    2.10
   4  -9   6   13.00    1.70
  -5   9  -6    9.20    2.10
  -5   9  -6    7.50    1.70
  -5   9  -6    6.70    1.90
   5  -9   6    8.40    1.60
   5  -9   6    7.20    1.50
   5  -9   6   14.50    2.10
  -6   9  -6    0.60    1.30
  -6   9  -6    1.50    1.20
  -6   9  -6    1.40    1.30
  -6   9  -6    1.40    1.90
   6  -9   6   -0.50    1.10
   6  -9   6    0.60    1.10
   6  -9   6    3.80    1.60
   7   8  -6    2.90    1.50
   7   8  -6   -0.10    1.20
  -7  -8   6   -2.80    1.50
  -7  -8   6   -0.20    1.80
  -7  -8   6    1.30    1.60
  -7  -8   6    0.70    1.10
   6   8  -6   -0.30    0.70
   6   8  -6   -0.40    1.30
   6   8  -6   -0.10    1.00
  -6  -8   6    2.40    1.70
  -6  -8   6    0.60    0.70
  -6  -8   6   -1.00    1.10
  -6  -8   6   -0.10    1.50
  -6  -8   6    1.10    1.50
   5   8  -6    3.20    1.40
   5   8  -6    4.10    1.50
   5   8  -6    0.40    1.00
   5   8  -6    1.40    1.00
  -5  -8   6    1.20    0.90
  -5  -8   6    2.60    1.40
  -5  -8   6    2.00    1.60
  -5  -8   6    1.80    1.00
  -5  -8   6    1.60    1.30
  -5  -8   6    3.60    1.40
   4   8  -6    1.00    1.10
   4   8  -6    3.20    1.30
   4   8  -6    2.80    1.10
  -4  -8   6    2.70    1.30
  -4  -8   6    3.00    1.10
  -4  -8   6    4.00    1.30
  -4  -8   6    4.10    1.20
  -4  -8   6    2.00    1.30
  -4  -8   6    2.80    1.20
   3   8  -6    0.60    0.90
   3   8  -6    1.10    0.90
   3   8  -6    0.10    0.80
   3   8  -6    0.60    0.70
  -3  -8   6    1.10    0.80
  -3  -8   6    0.00    0.90
  -3  -8   6   -0.40    0.60
  -3  -8   6    0.20    0.90
  -3  -8   6    0.60    1.00
  -3  -8   6    0.10    0.90
   2   8  -6    8.10    1.30
   2   8  -6    4.70    1.10
   2   8  -6    6.70    1.30
   2   8  -6    7.30    1.40
  -2  -8   6    7.30    1.30
  -2  -8   6    7.30    1.30
  -2  -8   6    5.60    1.40
  -2  -8   6    8.40    1.50
  -2  -8   6    7.50    1.40
  -2  -8   6    6.50    1.40
   1   8  -6   10.20    1.50
   1   8  -6    9.40    1.50
   1   8  -6   11.00    1.50
   1   8  -6    6.60    1.40
  -1  -8   6    7.10    1.40
  -1  -8   6   10.10    1.60
  -1  -8   6    9.70    1.40
  -1  -8   6    7.40    1.20
  -1  -8   6    7.30    1.40
  -1  -8   6    8.40    1.50
   0   8  -6   86.89    4.60
   0   8  -6   78.29    4.30
   0   8  -6   79.49    4.70
   0   8  -6   87.99    4.30
   0   8  -6   86.59    4.30
   0  -8   6   87.99    4.50
   0  -8   6   86.39    4.50
   0  -8   6   80.89    4.50
   0  -8   6   86.09    4.30
   0  -8   6   79.89    4.50
  -1   8  -6   29.80    2.50
  -1   8  -6   26.70    2.80
  -1   8  -6   28.00    2.20
   1  -8   6   31.30    2.30
   1  -8   6   34.00    2.30
   1  -8   6   30.20    2.30
  -2   8  -6   -0.30    0.70
  -2   8  -6    1.10    0.90
  -2   8  -6    1.40    1.10
   2  -8   6    1.40    0.80
   2  -8   6    1.30    0.80
   2  -8   6    2.30    1.00
  -3   8  -6   28.90    3.10
  -3   8  -6   31.30    2.50
  -3   8  -6   36.60    3.10
  -3   8  -6   31.10    2.70
   3  -8   6   33.60    2.30
   3  -8   6   38.60    2.70
   3  -8   6   39.40    2.80
   3  -8   6   36.80    2.50
  -4   8  -6   35.00    3.50
  -4   8  -6   34.40    3.70
  -4   8  -6   35.10    3.50
  -4   8  -6   37.60    2.80
  -4   8  -6   44.00    3.00
  -4   8  -6   39.40    2.90
   4  -8   6   40.70    2.70
   4  -8   6   43.20    3.00
   4  -8   6   42.80    2.80
   4  -8   6   46.20    3.20
   4  -8   6   41.80    2.80
  -5   8  -6    0.00    1.20
  -5   8  -6   -0.20    0.80
  -5   8  -6   -0.80    0.90
  -5   8  -6   -0.20    1.10
  -5   8  -6    2.40    1.60
   5  -8   6   -0.30    0.90
   5  -8   6    0.50    1.00
   5  -8   6    1.20    0.90
   5  -8   6    2.40    1.40
  -6   8  -6    2.20    1.60
  -6   8  -6    1.00    1.10
  -6   8  -6    0.00    1.30
  -6   8  -6    1.50    1.70
   6  -8   6    1.20    1.20
   6  -8   6    0.90    1.10
   7   7  -6    1.10    1.50
   7   7  -6    0.90    1.20
   7   7  -6    0.60    1.20
  -7  -7   6    1.30    1.40
  -7  -7   6    0.60    1.80
  -7  -7   6   -1.80    1.40
  -7  -7   6    0.40    1.00
   6   7  -6    4.60    1.60
   6   7  -6    6.30    1.50
   6   7  -6    4.50    1.40
   6   7  -6    3.30    1.30
  -6  -7   6    5.00    1.80
  -6  -7   6    3.10    1.60
  -6  -7   6    4.30    1.40
  -6  -7   6    6.30    1.80
  -6  -7   6    5.30    1.70
  -6  -7   6    5.60    1.50
   5   7  -6    6.20    1.50
   5   7  -6    3.60    1.10
   5   7  -6    4.20    1.50
  -5  -7   6    2.60    1.10
  -5  -7   6    5.20    1.50
  -5  -7   6    4.60    1.60
  -5  -7   6    6.00    1.70
  -5  -7   6    7.60    1.70
  -5  -7   6    3.90    1.20
   4   7  -6    3.60    1.20
   4   7  -6    5.10    1.00
   4   7  -6    3.70    1.10
   4   7  -6    3.00    1.20
  -4  -7   6    2.00    1.20
  -4  -7   6    3.30    1.20
  -4  -7   6    2.00    1.00
  -4  -7   6    4.80    1.40
  -4  -7   6    4.90    1.20
  -4  -7   6    4.30    1.40
   3   7  -6   58.69    3.70
   3   7  -6   63.79    3.40
   3   7  -6   63.69    3.70
   3   7  -6   59.99    3.80
  -3  -7   6   58.89    3.90
  -3  -7   6   62.19    3.60
  -3  -7   6   58.99    3.80
  -3  -7   6   56.99    3.60
  -3  -7   6   60.39    3.90
  -3  -7   6   58.19    3.80
   2   7  -6   14.70    1.60
   2   7  -6   15.00    1.70
   2   7  -6   13.80    1.90
   2   7  -6   15.20    1.90
  -2  -7   6   13.70    1.80
  -2  -7   6   16.40    1.80
  -2  -7   6   14.60    1.80
  -2  -7   6   14.40    1.90
  -2  -7   6   14.40    1.80
  -2  -7   6   14.80    1.70
   1   7  -6   66.79    3.80
   1   7  -6   64.69    3.70
   1   7  -6   66.29    3.40
   1   7  -6   69.79    3.80
   1   7  -6   68.29    3.70
  -1  -7   6   69.99    3.60
  -1  -7   6   67.49    3.90
  -1  -7   6   68.69    3.80
  -1  -7   6   66.29    3.80
  -1  -7   6   68.99    3.80
  -1  -7   6   69.89    3.70
   0   7  -6   48.30    2.90
   0   7  -6   42.60    2.60
   0   7  -6   43.30    2.90
   0   7  -6   45.50    2.60
   0   7  -6   41.70    2.60
   0  -7   6   42.80    2.50
   0  -7   6   41.40    2.70
   0  -7   6   48.30    2.60
   0  -7   6   44.80    2.80
   0  -7   6   43.10    2.70
   0  -7   6   45.20    2.80
  -1   7  -6   44.90    2.80
  -1   7  -6   41.30    3.10
  -1   7  -6   52.89    3.20
   1  -7   6   44.80    2.80
   1  -7   6   47.00    2.90
   1  -7   6   48.60    2.80
   1  -7   6   48.40    2.80
  -2   7  -6   19.60    2.30
  -2   7  -6   24.00    2.00
  -2   7  -6   18.90    2.10
  -2   7  -6   21.40    2.30
   2  -7   6   21.90    1.80
   2  -7   6   19.80    1.60
   2  -7   6   19.40    1.50
   2  -7   6   24.80    1.90
   2  -7   6   27.90    1.90
  -3   7  -6   21.40    2.10
  -3   7  -6   18.90    2.00
  -3   7  -6   18.60    2.20
  -3   7  -6   22.20    2.10
  -3   7  -6   22.60    2.60
  -3   7  -6   18.60    2.30
   3  -7   6   22.90    2.10
   3  -7   6   19.30    1.80
   3  -7   6   21.50    1.70
   3  -7   6   23.70    1.90
   3  -7   6   21.50    1.90
  -4   7  -6    1.30    1.10
  -4   7  -6    4.40    1.20
  -4   7  -6    1.50    1.00
  -4   7  -6    4.20    1.50
  -4   7  -6    1.70    1.00
  -4   7  -6    1.50    0.90
   4  -7   6    2.40    0.90
   4  -7   6    1.90    0.80
   4  -7   6    3.10    1.00
   4  -7   6    2.10    1.00
   4  -7   6    4.40    1.00
  -5   7  -6    0.80    1.20
  -5   7  -6    1.90    1.20
  -5   7  -6    0.90    1.00
  -5   7  -6    0.60    1.10
  -5   7  -6    4.10    1.60
   5  -7   6    4.70    1.50
   5  -7   6    3.90    1.10
   5  -7   6    2.20    1.00
   5  -7   6    2.60    1.10
   5  -7   6    0.30    0.80
  -6   7  -6   -1.20    0.90
  -6   7  -6   -0.20    1.20
  -6   7  -6    0.20    1.00
  -6   7  -6    0.50    1.20
  -6   7  -6   -1.70    1.20
   6  -7   6    0.80    1.20
   6  -7   6   -0.40    1.10
   6  -7   6   -0.20    1.00
  -7   7  -6    5.50    2.00
  -7   7  -6    1.90    1.90
  -7   7  -6    5.10    1.80
  -7   7  -6    5.20    1.80
   7  -7   6    7.00    1.80
   7  -7   6    2.90    1.60
   8   6  -6    0.30    1.30
   8   6  -6    0.40    1.20
  -8  -6   6   -0.30    1.60
  -8  -6   6    1.70    1.60
  -8  -6   6    0.50    1.10
  -8  -6   6    1.40    1.90
   7   6  -6    5.10    1.50
   7   6  -6    6.70    1.60
   7   6  -6    3.70    1.60
   7   6  -6    8.80    2.10
  -7  -6   6    8.20    2.10
  -7  -6   6    5.40    1.70
  -7  -6   6    4.60    1.80
  -7  -6   6    7.30    1.70
  -7  -6   6    9.00    2.40
   6   6  -6    5.40    1.60
   6   6  -6    8.40    1.60
   6   6  -6    6.80    1.50
  -6  -6   6    1.90    1.40
  -6  -6   6    5.90    1.40
  -6  -6   6    5.70    1.40
  -6  -6   6    7.00    2.00
  -6  -6   6    5.60    1.50
  -6  -6   6    5.30    1.60
   5   6  -6   26.80    2.90
   5   6  -6   26.70    2.00
   5   6  -6   29.20    2.40
   5   6  -6   29.90    2.90
  -5  -6   6   21.40    2.40
  -5  -6   6   22.60    2.70
  -5  -6   6   23.40    2.80
  -5  -6   6   29.20    2.70
  -5  -6   6   25.10    2.90
  -5  -6   6   22.80    2.90
   4   6  -6   65.79    3.30
   4   6  -6   55.79    3.80
   4   6  -6   53.69    3.70
   4   6  -6   59.29    3.50
  -4  -6   6   52.49    3.80
  -4  -6   6   57.79    3.50
  -4  -6   6   57.99    3.90
  -4  -6   6   63.69    3.90
  -4  -6   6   56.99    3.80
  -4  -6   6   59.89    3.70
   3   6  -6   65.59    3.90
   3   6  -6   60.79    3.50
   3   6  -6   61.59    3.80
   3   6  -6   67.79    3.30
  -3  -6   6   62.49    3.60
  -3  -6   6   61.09    3.80
  -3  -6   6   60.89    3.70
  -3  -6   6   66.79    3.70
  -3  -6   6   58.49    3.70
  -3  -6   6   56.09    3.80
   2   6  -6    2.10    0.90
   2   6  -6    3.70    1.00
   2   6  -6    2.80    0.60
   2   6  -6    3.10    0.80
   2   6  -6    3.40    0.80
  -2  -6   6    2.60    1.00
  -2  -6   6    3.40    0.90
  -2  -6   6    3.20    0.90
  -2  -6   6    2.80    0.80
  -2  -6   6    3.00    0.80
  -2  -6   6    3.00    0.90
   1   6  -6  104.39    4.60
   1   6  -6   94.59    5.00
   1   6  -6  104.09    4.90
   1   6  -6   94.99    4.90
   1   6  -6  102.99    4.90
  -1  -6   6   97.99    4.90
  -1  -6   6   95.29    4.90
  -1  -6   6  104.89    5.00
  -1  -6   6  108.29    4.90
  -1  -6   6  101.99    4.80
  -1  -6   6   97.29    4.80
   0   6  -6   88.99    4.30
   0   6  -6   82.19    4.30
   0   6  -6   85.89    4.10
   0   6  -6   77.49    4.10
   0   6  -6   83.09    4.20
   0  -6   6   85.79    4.20
   0  -6   6   85.99    4.10
   0  -6   6   88.09    4.30
   0  -6   6   81.79    4.10
   0  -6   6   82.59    4.20
   0  -6   6   86.49    4.00
  -1   6  -6    0.20    0.40
  -1   6  -6    0.00    0.50
  -1   6  -6   -0.30    0.60
  -1   6  -6    0.10    0.30
  -1   6  -6   -0.30    0.30
  -1   6  -6   -0.20    0.40
   1  -6   6    0.00    0.50
   1  -6   6   -0.30    0.50
   1  -6   6   -0.30    0.40
   1  -6   6    0.50    0.50
   1  -6   6    0.30    0.40
  -2   6  -6    0.10    0.50
  -2   6  -6    0.90    0.60
  -2   6  -6    0.40    0.50
  -2   6  -6    0.10    0.50
  -2   6  -6    2.00    0.70
  -2   6  -6    0.90    0.80
   2  -6   6    0.70    0.60
   2  -6   6    0.20    0.60
   2  -6   6    0.20    0.60
   2  -6   6    1.00    0.60
   2  -6   6    3.00    0.70
  -3   6  -6   30.40    2.20
  -3   6  -6   29.20    2.40
  -3   6  -6   31.00    2.50
  -3   6  -6   34.40    2.30
  -3   6  -6   31.30    2.30
  -3   6  -6   29.40    2.60
   3  -6   6   35.90    2.50
   3  -6   6   29.90    2.30
   3  -6   6   32.60    2.20
   3  -6   6   33.10    2.20
  -4   6  -6    3.50    1.10
  -4   6  -6    5.50    1.30
  -4   6  -6    4.10    1.30
  -4   6  -6    3.30    1.10
  -4   6  -6    5.10    1.20
   4  -6   6    5.20    1.10
   4  -6   6    4.50    1.20
   4  -6   6    4.80    1.20
   4  -6   6    4.10    1.10
  -5   6  -6   33.10    3.40
  -5   6  -6   26.90    3.00
  -5   6  -6   29.10    3.00
  -5   6  -6   33.90    2.60
   5  -6   6   32.80    2.50
   5  -6   6   27.90    2.90
   5  -6   6   32.10    2.60
   5  -6   6   25.80    2.70
  -6   6  -6   -0.20    0.90
  -6   6  -6   -1.40    0.90
  -6   6  -6   -1.30    0.70
  -6   6  -6   -0.80    1.10
  -6   6  -6   -0.40    1.20
   6  -6   6   -0.70    1.00
   6  -6   6    1.70    1.10
   6  -6   6    0.00    1.00
   6  -6   6    0.00    1.00
  -7   6  -6    3.90    1.70
  -7   6  -6    0.30    1.40
  -7   6  -6    0.70    1.40
  -7   6  -6    4.50    2.10
   7  -6   6    6.80    1.80
   7  -6   6    5.10    1.80
   8   5  -6   13.40    2.30
   8   5  -6   14.40    2.50
  -8  -5   6   18.10    3.00
  -8  -5   6   15.20    2.30
  -8  -5   6   20.30    3.00
  -8  -5   6   16.80    2.70
   7   5  -6   25.60    2.60
   7   5  -6   19.30    2.80
   7   5  -6   24.20    2.80
   7   5  -6   23.40    2.80
  -7  -5   6   22.90    2.70
  -7  -5   6   24.30    3.20
  -7  -5   6   27.80    2.60
  -7  -5   6   27.30    3.40
  -7  -5   6   23.50    3.00
  -7  -5   6   28.60    3.00
   6   5  -6   42.50    3.30
   6   5  -6   39.20    3.10
   6   5  -6   46.90    3.10
  -6  -5   6   41.80    3.50
  -6  -5   6   41.10    3.90
  -6  -5   6   37.20    3.20
  -6  -5   6   34.40    2.90
  -6  -5   6   35.10    3.10
  -6  -5   6   40.40    3.00
  -6  -5   6   41.80    2.90
   5   5  -6   72.99    4.30
   5   5  -6   68.89    3.90
   5   5  -6   61.29    4.00
   5   5  -6   73.79    3.60
  -5  -5   6   68.09    3.70
  -5  -5   6   66.09    4.20
  -5  -5   6   70.29    4.30
  -5  -5   6   61.99    4.00
  -5  -5   6   62.29    4.20
  -5  -5   6   54.09    3.60
  -5  -5   6   52.39    3.70
   4   5  -6   15.20    2.00
   4   5  -6   20.30    2.30
   4   5  -6   22.50    1.90
   4   5  -6   19.00    1.60
  -4  -5   6   18.70    1.90
  -4  -5   6   17.00    2.10
  -4  -5   6   15.40    1.90
  -4  -5   6   16.10    1.80
  -4  -5   6   18.80    2.10
  -4  -5   6   18.50    1.80
  -4  -5   6   16.30    2.10
   3   5  -6    0.20    0.40
   3   5  -6   -0.40    0.50
   3   5  -6    0.70    0.60
   3   5  -6    0.40    0.50
  -3  -5   6   -0.80    0.50
  -3  -5   6   -0.50    0.50
  -3  -5   6   -0.20    0.40
  -3  -5   6    0.80    0.60
  -3  -5   6    1.30    0.70
  -3  -5   6   -0.10    0.50
  -3  -5   6    0.30    0.40
   2   5  -6   92.99    4.50
   2   5  -6   94.09    4.30
   2   5  -6   90.99    4.00
   2   5  -6   81.59    4.50
  -2  -5   6   89.89    4.40
  -2  -5   6   89.79    4.30
  -2  -5   6   84.29    4.50
  -2  -5   6   88.59    4.50
  -2  -5   6   79.29    4.30
  -2  -5   6   89.29    4.40
   1   5  -6    1.60    0.70
   1   5  -6    0.70    0.60
   1   5  -6    2.40    0.60
   1   5  -6    1.70    0.50
  -1  -5   6    1.00    0.50
  -1  -5   6    1.60    0.60
  -1  -5   6    2.10    0.60
  -1  -5   6    1.60    0.60
  -1  -5   6    1.90    0.60
  -1  -5   6    1.80    0.60
   0   5  -6    0.30    0.40
   0   5  -6   -0.10    0.30
   0   5  -6   -0.20    0.30
   0   5  -6    0.10    0.30
   0   5  -6    0.20    0.40
   0   5  -6    0.00    0.30
   0  -5   6    0.20    0.40
   0  -5   6    0.00    0.30
   0  -5   6   -0.40    0.40
   0  -5   6    0.30    0.30
   0  -5   6   -0.30    0.40
   0  -5   6    0.30    0.40
  -1   5  -6   74.69    3.50
  -1   5  -6   72.89    3.50
  -1   5  -6   70.09    3.80
  -1   5  -6   71.69    3.70
  -1   5  -6   71.19    3.40
  -1   5  -6   74.59    3.80
  -1   5  -6   73.19    3.50
   1  -5   6   75.69    3.40
   1  -5   6   67.79    3.30
   1  -5   6   80.69    3.70
   1  -5   6   78.89    3.70
   1  -5   6   74.59    3.60
   1  -5   6   73.69    3.40
   1  -5   6   74.09    3.70
  -2   5  -6    5.40    0.80
  -2   5  -6    3.80    0.90
  -2   5  -6    4.50    0.90
  -2   5  -6    2.60    0.90
  -2   5  -6    4.80    1.00
  -2   5  -6    2.90    0.70
   2  -5   6    5.30    0.90
   2  -5   6    4.10    0.80
   2  -5   6    4.40    0.90
   2  -5   6    3.30    0.80
   2  -5   6    3.10    0.70
  -3   5  -6   45.40    2.90
  -3   5  -6   46.70    3.10
  -3   5  -6   53.99    3.10
  -3   5  -6   43.00    3.00
  -3   5  -6   48.20    3.10
  -3   5  -6   49.80    2.90
   3  -5   6   51.99    2.80
   3  -5   6   56.89    3.00
   3  -5   6   47.90    3.10
   3  -5   6   49.80    2.80
   3  -5   6   47.50    3.00
  -4   5  -6    0.40    0.60
  -4   5  -6    0.60    0.70
  -4   5  -6    2.20    0.90
  -4   5  -6    0.40    0.90
  -4   5  -6    0.10    0.70
   4  -5   6    1.00    0.70
   4  -5   6    1.00    0.90
   4  -5   6    0.10    0.80
   4  -5   6    0.50    0.80
  -5   5  -6    0.30    0.80
  -5   5  -6   -0.80    0.90
  -5   5  -6    0.70    0.80
  -5   5  -6    1.40    1.00
  -5   5  -6    2.10    1.20
   5  -5   6    2.00    1.10
   5  -5   6    4.00    1.40
   5  -5   6    1.80    1.10
   5  -5   6    1.00    0.90
  -6   5  -6    1.10    1.30
  -6   5  -6    0.70    1.30
  -6   5  -6    0.90    1.20
  -6   5  -6    2.50    1.30
  -6   5  -6    0.50    1.00
   6  -5   6    1.50    1.20
   6  -5   6    2.50    1.40
   6  -5   6    1.30    0.90
   6  -5   6    0.90    1.20
  -7   5  -6    2.80    1.50
  -7   5  -6    5.10    1.70
  -7   5  -6   -0.70    1.30
   7  -5   6    4.40    1.70
   7  -5   6    3.60    1.60
   7  -5   6   -0.10    1.20
   9   4  -6   11.70    2.40
   9   4  -6   12.30    2.10
  -9  -4   6   13.30    2.20
  -9  -4   6   10.50    2.40
  -9  -4   6   18.70    3.30
   8   4  -6    0.10    1.40
   8   4  -6    5.20    1.70
   8   4  -6    3.50    1.20
   8   4  -6    4.90    1.50
   8   4  -6    6.60    1.70
  -8  -4   6    2.20    1.40
  -8  -4   6    2.80    1.50
  -8  -4   6    1.70    1.30
  -8  -4   6    2.90    1.80
  -8  -4   6    3.40    1.40
   7   4  -6    1.20    0.90
   7   4  -6   -0.60    0.80
   7   4  -6    1.50    0.90
   7   4  -6    0.90    1.10
  -7  -4   6    0.80    1.00
  -7  -4   6    2.40    1.00
  -7  -4   6    1.40    1.00
  -7  -4   6    0.30    1.10
  -7  -4   6    0.50    0.80
  -7  -4   6   -1.50    1.10
   6   4  -6    1.30    1.00
   6   4  -6    1.30    1.00
   6   4  -6    3.30    1.20
   6   4  -6    1.90    0.90
  -6  -4   6    1.90    0.80
  -6  -4   6    1.60    1.00
  -6  -4   6    3.30    1.20
  -6  -4   6    0.10    0.90
  -6  -4   6    1.90    1.00
  -6  -4   6    1.30    1.10
  -6  -4   6    2.30    0.90
   5   4  -6    1.00    0.80
   5   4  -6    0.00    0.60
   5   4  -6    0.10    0.50
   5   4  -6   -0.60    0.80
  -5  -4   6    0.50    0.60
  -5  -4   6    0.10    0.80
  -5  -4   6    1.00    0.60
  -5  -4   6    0.00    0.80
  -5  -4   6    1.30    0.80
  -5  -4   6    0.30    0.80
  -5  -4   6    1.00    0.70
  -5  -4   6    0.50    0.70
   4   4  -6    2.20    0.70
   4   4  -6    1.50    0.70
   4   4  -6    2.10    0.80
   4   4  -6    1.70    0.60
  -4  -4   6    0.80    0.80
  -4  -4   6    1.70    0.80
  -4  -4   6    2.80    0.90
  -4  -4   6    2.00    0.70
  -4  -4   6    1.50    0.60
  -4  -4   6    2.10    0.70
  -4  -4   6    1.30    0.70
   3   4  -6    6.40    1.00
   3   4  -6    7.10    0.90
   3   4  -6    7.00    1.10
   3   4  -6    7.90    1.30
  -3  -4   6    6.50    1.00
  -3  -4   6    5.50    0.90
  -3  -4   6    7.30    1.10
  -3  -4   6    9.20    1.30
  -3  -4   6    6.40    1.10
  -3  -4   6    8.50    1.10
  -3  -4   6    6.40    1.10
   2   4  -6  194.58    7.40
   2   4  -6  179.38    7.70
   2   4  -6  181.48    7.60
   2   4  -6  169.28    7.90
  -2  -4   6  178.88    7.90
  -2  -4   6  169.68    7.70
  -2  -4   6  183.48    7.70
  -2  -4   6  169.78    7.60
  -2  -4   6  175.28    7.70
  -2  -4   6  170.28    7.70
  -2  -4   6  173.38    7.70
   1   4  -6   36.20    1.70
   1   4  -6   36.00    1.70
   1   4  -6   38.20    2.10
   1   4  -6   35.30    2.20
   1   4  -6   34.40    2.30
   1   4  -6   36.70    2.00
  -1  -4   6   38.40    2.10
  -1  -4   6   32.60    2.10
  -1  -4   6   34.10    2.10
  -1  -4   6   36.40    2.10
  -1  -4   6   32.00    2.00
  -1  -4   6   35.80    2.00
   0   4  -6   30.60    1.60
   0   4  -6   28.20    1.90
   0   4  -6   30.30    1.50
   0   4  -6   29.30    1.60
   0   4  -6   31.60    1.90
   0   4  -6   28.90    1.80
   0  -4   6   29.30    1.80
   0  -4   6   31.40    1.80
   0  -4   6   32.80    1.80
   0  -4   6   29.90    1.80
   0  -4   6   27.10    1.40
   0  -4   6   33.90    1.90
   0  -4   6   27.40    1.90
  -1   4  -6   29.90    1.80
  -1   4  -6   27.10    1.90
  -1   4  -6   30.30    1.80
  -1   4  -6   32.00    2.00
  -1   4  -6   27.50    1.90
  -1   4  -6   31.40    1.80
   1  -4   6   32.50    1.90
   1  -4   6   30.00    1.70
   1  -4   6   31.50    1.70
   1  -4   6   34.70    1.90
   1  -4   6   32.60    1.80
   1  -4   6   28.00    1.90
   1  -4   6   31.90    1.90
  -2   4  -6   28.40    1.90
  -2   4  -6   29.90    2.10
  -2   4  -6   30.10    2.00
  -2   4  -6   32.20    2.20
  -2   4  -6   31.60    2.00
  -2   4  -6   30.00    1.90
   2  -4   6   30.30    2.00
   2  -4   6   27.80    2.00
   2  -4   6   30.30    1.90
   2  -4   6   32.80    2.10
   2  -4   6   32.00    2.00
  -3   4  -6   28.70    2.20
  -3   4  -6   28.20    2.00
  -3   4  -6   31.10    2.20
  -3   4  -6   28.90    2.30
  -3   4  -6   28.40    2.00
  -3   4  -6   28.30    2.20
   3  -4   6   29.60    2.20
   3  -4   6   29.20    2.10
   3  -4   6   30.40    2.20
   3  -4   6   26.70    2.00
   3  -4   6   30.90    2.00
  -4   4  -6    0.50    0.60
  -4   4  -6    2.60    0.80
  -4   4  -6    1.00    0.90
  -4   4  -6    1.30    0.70
  -4   4  -6    0.40    0.80
   4  -4   6    0.60    0.60
   4  -4   6    0.60    0.60
   4  -4   6    0.80    0.80
   4  -4   6    0.10    0.70
   4  -4   6    0.30    0.80
  -5   4  -6    0.30    0.70
  -5   4  -6   -0.60    0.80
  -5   4  -6   -0.30    0.50
  -5   4  -6    1.20    1.00
  -5   4  -6   -0.50    0.90
   5  -4   6    0.80    0.90
   5  -4   6    0.00    0.90
   5  -4   6   -0.70    0.90
   5  -4   6    1.00    0.80
  -6   4  -6    2.00    1.30
  -6   4  -6    1.90    1.10
  -6   4  -6   -0.80    1.10
  -6   4  -6    0.70    0.80
  -6   4  -6    0.20    0.90
   6  -4   6   -0.40    0.70
   6  -4   6    0.80    1.20
   6  -4   6   -0.10    1.10
   6  -4   6   -0.60    1.00
  -7   4  -6    1.50    1.30
  -7   4  -6    1.00    1.40
  -7   4  -6    2.10    1.30
   7  -4   6    1.90    1.50
   7  -4   6    2.90    1.50
   7  -4   6    1.80    1.10
  -8   4  -6    0.50    1.70
  -8   4  -6    0.40    1.60
  -8   4  -6    1.50    1.70
   8  -4   6    2.50    1.60
   8  -4   6   -0.20    1.80
   8  -4   6   -0.40    1.70
   9   3  -6   -0.90    1.20
  -9  -3   6    0.80    1.40
  -9  -3   6   -0.80    1.00
   8   3  -6    6.90    1.70
   8   3  -6    8.10    1.90
   8   3  -6    4.30    1.40
   8   3  -6    4.40    1.50
   8   3  -6    8.50    2.00
  -8  -3   6    5.70    1.70
  -8  -3   6    8.30    1.60
  -8  -3   6    6.50    1.50
  -8  -3   6    6.90    2.00
  -8  -3   6    5.80    1.40
   7   3  -6   -1.20    0.90
   7   3  -6    1.20    1.00
   7   3  -6    0.20    0.80
   7   3  -6    0.50    1.00
  -7  -3   6    1.80    1.10
  -7  -3   6   -0.50    0.90
  -7  -3   6   -0.10    0.80
  -7  -3   6    0.20    1.10
  -7  -3   6    0.90    0.90
  -7  -3   6   -0.30    0.80
   6   3  -6   -0.70    0.70
   6   3  -6    0.90    0.90
   6   3  -6    2.30    0.90
   6   3  -6    1.10    0.90
   6   3  -6    1.10    0.90
  -6  -3   6    0.30    0.80
  -6  -3   6    0.10    0.90
  -6  -3   6    1.70    0.90
  -6  -3   6   -0.40    0.60
  -6  -3   6    0.50    0.60
  -6  -3   6    0.10    0.90
  -6  -3   6    0.10    0.90
  -6  -3   6    0.30    0.80
   5   3  -6    1.40    0.90
   5   3  -6    2.90    0.90
   5   3  -6    2.40    0.80
   5   3  -6    3.50    1.10
  -5  -3   6    4.60    1.10
  -5  -3   6    3.00    1.00
  -5  -3   6    3.90    0.90
  -5  -3   6    2.10    1.00
  -5  -3   6    2.10    0.80
  -5  -3   6    2.00    0.90
  -5  -3   6    3.00    1.00
  -5  -3   6    2.60    0.80
  -5  -3   6    1.80    0.90
   4   3  -6   54.29    3.10
   4   3  -6   50.69    2.90
   4   3  -6   43.10    3.00
   4   3  -6   54.39    2.70
  -4  -3   6   44.30    2.90
  -4  -3   6   42.40    2.70
  -4  -3   6   47.70    2.90
  -4  -3   6   42.40    2.80
  -4  -3   6   49.80    3.00
  -4  -3   6   46.90    2.80
  -4  -3   6   51.29    3.00
  -4  -3   6   44.50    2.90
   3   3  -6   50.39    2.80
   3   3  -6   53.59    2.30
   3   3  -6   56.69    2.70
   3   3  -6   52.99    3.00
   3   3  -6   49.50    2.40
  -3  -3   6   43.40    2.60
  -3  -3   6   46.70    2.90
  -3  -3   6   52.99    2.90
  -3  -3   6   55.89    2.90
  -3  -3   6   50.19    2.90
  -3  -3   6   49.60    2.80
  -3  -3   6   49.50    2.80
  -3  -3   6   53.09    2.90
   2   3  -6   26.40    1.30
   2   3  -6   25.90    1.90
   2   3  -6   28.50    1.80
   2   3  -6   29.00    1.70
   2   3  -6   27.00    1.30
  -2  -3   6   26.50    1.80
  -2  -3   6   25.30    1.70
  -2  -3   6   26.90    1.80
  -2  -3   6   24.40    1.80
  -2  -3   6   28.00    1.60
  -2  -3   6   24.90    1.70
  -2  -3   6   26.00    1.80
   1   3  -6   82.89    3.70
   1   3  -6   76.49    3.40
   1   3  -6   80.49    3.40
   1   3  -6   75.59    3.80
   1   3  -6   82.19    3.70
  -1  -3   6   72.79    3.80
  -1  -3   6   79.59    3.60
  -1  -3   6   79.29    3.50
  -1  -3   6   83.49    3.90
  -1  -3   6   79.29    3.70
  -1  -3   6   79.09    3.80
  -1  -3   6   74.99    3.70
   0   3  -6   48.30    2.20
   0   3  -6   47.40    2.50
   0   3  -6   49.20    2.60
   0   3  -6   46.10    2.30
   0   3  -6   47.50    2.50
   0   3  -6   46.70    2.30
   0  -3   6   48.90    2.50
   0  -3   6   47.00    2.50
   0  -3   6   48.10    2.40
   0  -3   6   47.80    2.60
   0  -3   6   47.20    2.30
   0  -3   6   50.19    2.50
  -1   3  -6   65.09    3.30
  -1   3  -6   64.49    3.10
  -1   3  -6   67.89    3.10
  -1   3  -6   63.49    3.20
  -1   3  -6   61.69    3.10
  -1   3  -6   68.79    3.10
   1  -3   6   65.69    3.20
   1  -3   6   61.59    3.00
   1  -3   6   65.49    3.10
   1  -3   6   62.09    3.20
   1  -3   6   65.29    3.20
   1  -3   6   62.09    3.30
  -2   3  -6    3.50    0.80
  -2   3  -6    4.00    0.70
  -2   3  -6    4.10    0.70
  -2   3  -6    3.60    0.70
  -2   3  -6    4.40    0.80
  -2   3  -6    2.80    0.80
   2  -3   6    4.00    0.60
   2  -3   6    4.10    0.90
   2  -3   6    3.10    0.80
   2  -3   6    4.00    0.60
   2  -3   6    3.30    0.70
   2  -3   6    3.00    0.80
  -3   3  -6   14.00    1.60
  -3   3  -6   12.90    1.60
  -3   3  -6   14.80    1.60
  -3   3  -6   15.80    1.60
  -3   3  -6   11.90    1.40
   3  -3   6   16.60    1.70
   3  -3   6   12.70    1.50
   3  -3   6   14.80    1.70
   3  -3   6   14.20    1.60
  -4   3  -6   18.00    2.00
  -4   3  -6   18.80    2.00
  -4   3  -6   11.00    1.70
  -4   3  -6   19.50    2.00
  -4   3  -6   21.70    2.20
   4  -3   6   17.60    2.00
   4  -3   6   23.10    2.30
   4  -3   6   19.60    2.00
   4  -3   6   16.90    2.00
  -5   3  -6    0.50    0.70
  -5   3  -6    0.80    0.70
  -5   3  -6    0.60    0.90
  -5   3  -6    1.30    0.80
  -5   3  -6    2.10    0.90
   5  -3   6    0.30    0.90
   5  -3   6   -0.70    0.60
   5  -3   6    0.60    1.00
   5  -3   6    1.20    1.10
  -6   3  -6    0.30    1.00
  -6   3  -6    2.90    1.30
  -6   3  -6   -0.20    1.00
  -6   3  -6   -0.90    0.80
   6  -3   6    0.60    0.90
   6  -3   6    2.00    1.20
   6  -3   6   -1.50    1.00
  -7   3  -6   -0.10    1.30
  -7   3  -6    0.10    1.20
  -7   3  -6    0.50    0.90
   7  -3   6   -2.00    1.10
   7  -3   6   -1.20    1.20
   7  -3   6    0.00    1.30
  -8   3  -6   -0.50    1.60
  -8   3  -6    1.10    1.60
  -8   3  -6   -1.00    1.60
   8  -3   6    2.90    1.90
   8  -3   6   -0.50    1.40
   8  -3   6   -1.40    1.40
   8   2  -6    4.70    1.30
   8   2  -6    5.30    1.50
   8   2  -6    5.00    1.60
   8   2  -6    7.30    1.50
   8   2  -6    3.50    1.30
  -8  -2   6    4.20    1.60
  -8  -2   6    3.90    1.40
  -8  -2   6    4.90    1.40
  -8  -2   6    3.90    1.50
  -8  -2   6    4.50    1.20
   7   2  -6    2.80    1.30
   7   2  -6    2.20    1.30
   7   2  -6    3.60    1.10
   7   2  -6    1.80    1.10
   7   2  -6    0.40    0.90
  -7  -2   6    2.90    1.20
  -7  -2   6    4.40    1.20
  -7  -2   6    2.90    1.30
  -7  -2   6    3.00    1.00
  -7  -2   6    3.80    1.40
  -7  -2   6    2.40    1.20
  -7  -2   6    0.50    1.00
   6   2  -6    0.80    0.80
   6   2  -6    0.50    0.80
   6   2  -6   -0.60    0.70
   6   2  -6    0.10    0.70
  -6  -2   6    0.60    0.80
  -6  -2   6   -0.70    0.80
  -6  -2   6   -1.40    0.60
  -6  -2   6    0.20    0.70
  -6  -2   6    0.00    0.80
  -6  -2   6    0.00    0.70
  -6  -2   6    0.30    0.70
   5   2  -6   10.10    1.10
   5   2  -6    8.10    1.30
   5   2  -6    9.20    1.30
   5   2  -6   10.60    1.40
   5   2  -6    9.80    1.60
   5   2  -6   10.40    1.60
  -5  -2   6   10.50    1.50
  -5  -2   6    8.40    1.30
  -5  -2   6    8.50    1.40
  -5  -2   6    6.70    1.20
  -5  -2   6    9.40    1.20
  -5  -2   6   11.20    1.60
  -5  -2   6    9.70    1.50
  -5  -2   6   10.70    1.50
  -5  -2   6   10.10    1.50
   4   2  -6  163.98    6.60
   4   2  -6  164.98    6.70
   4   2  -6  172.98    7.10
   4   2  -6  154.98    7.40
   4   2  -6  168.28    7.30
  -4  -2   6  158.58    7.20
  -4  -2   6  158.88    7.20
  -4  -2   6  157.78    7.30
  -4  -2   6  140.69    6.80
  -4  -2   6  164.18    7.30
  -4  -2   6  150.78    7.00
  -4  -2   6  164.58    7.30
  -4  -2   6  159.48    7.10
  -4  -2   6  156.58    7.30
   3   2  -6   57.29    2.60
   3   2  -6   52.99    3.20
   3   2  -6   55.99    2.50
   3   2  -6   57.69    2.90
   3   2  -6   51.69    3.00
  -3  -2   6   47.80    2.70
  -3  -2   6   54.59    3.00
  -3  -2   6   53.59    3.00
  -3  -2   6   55.99    3.10
  -3  -2   6   53.29    3.00
  -3  -2   6   55.69    2.90
  -3  -2   6   47.80    2.60
  -3  -2   6   56.39    3.10
   2   2  -6  267.07   10.30
   2   2  -6  277.27   10.70
   2   2  -6  260.17   10.30
   2   2  -6  273.07   10.80
   2   2  -6  257.57   11.00
  -2  -2   6  249.08   10.50
  -2  -2   6  247.38   10.80
  -2  -2   6  281.27   10.90
  -2  -2   6  256.27   10.70
  -2  -2   6  234.88   10.30
  -2  -2   6  272.57   10.90
  -2  -2   6  262.07   10.80
  -2  -2   6  274.07   11.00
   1   2  -6  128.89    5.80
   1   2  -6  126.69    5.90
   1   2  -6  130.39    5.50
   1   2  -6  133.89    5.50
   1   2  -6  136.49    5.70
  -1  -2   6  129.79    5.80
  -1  -2   6  127.49    5.60
  -1  -2   6  130.59    5.80
  -1  -2   6  143.29    5.60
  -1  -2   6  131.69    5.90
  -1  -2   6  131.09    5.90
  -1  -2   6  138.69    5.40
   0   2  -6   93.19    4.00
   0   2  -6   92.09    4.20
   0   2  -6   91.69    4.10
   0   2  -6   88.49    3.90
   0   2  -6   89.09    4.10
   0   2  -6   92.89    4.00
   0  -2   6   93.99    4.30
   0  -2   6   92.79    4.20
   0  -2   6   90.99    4.00
   0  -2   6   91.49    4.10
   0  -2   6   94.29    4.10
   0  -2   6   88.39    4.20
   0  -2   6   91.49    4.00
  -1   2  -6   32.50    1.80
  -1   2  -6   27.80    1.90
  -1   2  -6   30.90    1.80
  -1   2  -6   30.60    1.70
  -1   2  -6   32.20    1.80
  -1   2  -6   30.00    1.70
   1  -2   6   31.60    1.80
   1  -2   6   30.20    1.90
   1  -2   6   31.30    1.80
   1  -2   6   30.30    2.00
   1  -2   6   32.20    2.00
   1  -2   6   31.50    1.90
  -2   2  -6   21.60    1.60
  -2   2  -6   23.20    1.40
  -2   2  -6   22.50    1.70
  -2   2  -6   24.20    1.60
  -2   2  -6   22.20    1.60
  -2   2  -6   22.30    1.60
   2  -2   6   21.90    1.40
   2  -2   6   20.70    1.80
   2  -2   6   21.60    1.70
   2  -2   6   22.90    1.80
   2  -2   6   21.20    1.70
   2  -2   6   22.00    1.50
  -3   2  -6    1.00    0.60
  -3   2  -6    2.40    0.70
  -3   2  -6    2.80    0.70
  -3   2  -6    3.50    0.90
  -3   2  -6    1.70    0.70
  -3   2  -6    1.70    1.00
   3  -2   6    3.00    1.00
   3  -2   6    2.30    1.00
   3  -2   6    1.80    0.90
   3  -2   6    2.00    0.80
  -4   2  -6   -0.60    0.30
  -4   2  -6    0.60    0.70
  -4   2  -6    0.90    1.00
  -4   2  -6    1.20    0.70
  -4   2  -6    0.10    0.70
  -4   2  -6    0.70    0.80
  -4   2  -6    0.70    0.50
   4  -2   6   -0.40    0.60
   4  -2   6    1.10    1.00
   4  -2   6    0.40    0.80
   4  -2   6    0.70    0.80
  -5   2  -6   27.00    2.70
  -5   2  -6   27.10    2.70
  -5   2  -6   21.30    3.00
  -5   2  -6   18.00    2.80
  -5   2  -6   30.10    2.50
  -5   2  -6   23.70    2.40
   5  -2   6   23.10    2.60
   5  -2   6   24.20    2.60
   5  -2   6   22.90    2.40
   5  -2   6   30.30    3.10
  -6   2  -6   -0.30    1.30
  -6   2  -6    1.90    1.00
  -6   2  -6    2.00    1.20
  -6   2  -6    3.60    1.30
  -6   2  -6    2.00    1.30
  -6   2  -6    2.70    1.70
   6  -2   6    0.40    1.30
   6  -2   6    2.90    1.40
   6  -2   6    1.30    1.40
   6  -2   6    2.00    1.20
  -7   2  -6    3.20    1.50
  -7   2  -6    4.00    1.90
  -7   2  -6    4.80    1.60
  -7   2  -6    3.40    1.40
   7  -2   6    2.60    1.70
   7  -2   6    3.10    1.70
  -8   2  -6    0.30    1.60
  -8   2  -6    1.80    1.60
  -8   2  -6    1.40    1.60
  -8   2  -6   -0.10    1.90
   8  -2   6    0.00    1.70
   8  -2   6    0.60    1.70
  -9  -1   6    0.80    1.70
  -9  -1   6    0.30    1.10
   8   1  -6    2.40    1.40
   8   1  -6    2.60    1.30
   8   1  -6    3.40    1.20
   8   1  -6    1.50    1.20
   8   1  -6    4.00    1.20
  -8  -1   6    4.00    1.40
  -8  -1   6    3.70    1.50
  -8  -1   6    2.80    1.10
  -8  -1   6    2.50    1.10
  -8  -1   6    2.10    1.40
   7   1  -6    0.50    0.90
   7   1  -6    2.40    1.10
   7   1  -6    3.10    1.20
   7   1  -6    2.30    1.20
  -7  -1   6    3.10    1.20
  -7  -1   6    1.70    1.20
  -7  -1   6   -0.10    0.90
  -7  -1   6    3.20    1.20
  -7  -1   6    2.70    1.00
  -7  -1   6    2.30    1.20
  -7  -1   6    3.10    1.00
   6   1  -6   45.70    3.30
   6   1  -6   46.70    3.10
   6   1  -6   45.30    3.40
   6   1  -6   46.90    2.80
   6   1  -6   49.00    2.70
   6   1  -6   47.50    3.30
  -6  -1   6   50.99    3.40
  -6  -1   6   42.90    2.90
  -6  -1   6   51.79    3.40
  -6  -1   6   46.60    3.20
  -6  -1   6   54.89    3.50
  -6  -1   6   42.50    3.10
  -6  -1   6   48.50    3.10
   5   1  -6    6.90    1.00
   5   1  -6    5.50    1.20
   5   1  -6    6.10    1.40
   5   1  -6    6.00    0.90
   5   1  -6    7.00    1.20
  -5  -1   6    6.10    1.20
  -5  -1   6    6.50    1.10
  -5  -1   6    5.40    1.20
  -5  -1   6    9.00    1.40
  -5  -1   6    7.80    1.20
  -5  -1   6    6.50    1.20
  -5  -1   6    7.20    1.40
  -5  -1   6    5.70    1.00
   4   1  -6    0.30    0.40
   4   1  -6    0.70    0.60
   4   1  -6   -0.20    0.40
   4   1  -6    0.10    0.60
   4   1  -6    0.40    0.60
  -4  -1   6   -0.40    0.70
  -4  -1   6   -0.20    0.30
  -4  -1   6   -0.10    0.50
  -4  -1   6    0.10    0.50
  -4  -1   6    0.60    0.70
  -4  -1   6    0.00    0.50
  -4  -1   6    1.00    0.70
   3   1  -6    4.00    0.70
   3   1  -6    6.60    1.10
   3   1  -6    4.90    0.80
   3   1  -6    6.10    0.70
   3   1  -6    4.30    0.80
   3   1  -6    6.50    0.50
   3   1  -6    6.20    0.80
  -3  -1   6    5.30    0.90
  -3  -1   6    4.90    1.00
  -3  -1   6    7.10    1.10
  -3  -1   6    4.70    0.50
  -3  -1   6    4.80    0.80
  -3  -1   6    5.80    0.80
  -3  -1   6    7.80    1.00
  -3  -1   6    6.40    1.00
  -3  -1   6    5.50    0.70
   2   1  -6   53.59    2.60
   2   1  -6   45.70    2.00
   2   1  -6   48.20    2.90
   2   1  -6   51.09    2.40
   2   1  -6   52.29    2.80
   2   1  -6   53.59    2.40
  -2  -1   6   54.09    2.50
  -2  -1   6   49.30    2.70
  -2  -1   6   42.40    2.00
  -2  -1   6   48.80    2.70
  -2  -1   6   53.59    2.80
  -2  -1   6   51.89    2.70
  -2  -1   6   48.80    2.30
  -2  -1   6   54.49    2.80
   1   1  -6   84.49    3.70
   1   1  -6   83.79    3.50
   1   1  -6   83.69    3.70
   1   1  -6   76.89    4.00
   1   1  -6   78.29    3.90
   1   1  -6   85.99    3.90
  -1  -1   6   75.09    3.90
  -1  -1   6   76.79    3.90
  -1  -1   6   89.89    3.40
  -1  -1   6   85.29    3.50
  -1  -1   6   83.19    3.70
  -1  -1   6   87.29    4.00
  -1  -1   6   85.99    4.10
  -1  -1   6   90.19    4.00
   0   1  -6    7.50    0.80
   0   1  -6    7.40    0.80
   0   1  -6    7.50    0.90
   0   1  -6    7.20    0.70
   0   1  -6    5.00    0.70
   0   1  -6    7.50    0.80
   0  -1   6    8.10    0.90
   0  -1   6    6.70    0.90
   0  -1   6    6.10    0.70
   0  -1   6    6.20    0.80
   0  -1   6    8.00    1.00
   0  -1   6    6.90    0.90
   0  -1   6    6.80    0.80
  -1   1  -6  172.88    7.10
  -1   1  -6  169.58    7.20
  -1   1  -6  161.88    7.20
  -1   1  -6  173.38    7.10
  -1   1  -6  167.08    7.10
  -1   1  -6  164.28    7.50
  -1   1  -6  168.98    6.90
   1  -1   6  177.68    7.50
   1  -1   6  171.48    6.90
   1  -1   6  172.88    7.30
   1  -1   6  169.88    7.20
   1  -1   6  165.18    7.30
   1  -1   6  167.58    7.20
   1  -1   6  170.98    7.20
  -2   1  -6   51.39    2.60
  -2   1  -6   50.59    2.70
  -2   1  -6   46.90    2.60
  -2   1  -6   47.80    3.20
  -2   1  -6   48.80    2.70
  -2   1  -6   47.80    2.70
  -2   1  -6   51.29    3.20
   2  -1   6   49.60    2.90
   2  -1   6   48.30    3.00
   2  -1   6   50.39    2.90
   2  -1   6   49.90    2.90
   2  -1   6   53.19    2.70
   2  -1   6   48.40    2.70
  -3   1  -6  193.28    8.00
  -3   1  -6  172.38    8.00
  -3   1  -6  176.08    7.90
  -3   1  -6  169.68    8.60
  -3   1  -6  186.18    8.80
  -3   1  -6  182.38    8.10
   3  -1   6  184.98    8.40
   3  -1   6  171.28    8.20
   3  -1   6  186.18    8.30
   3  -1   6  186.78    8.30
   3  -1   6  186.28    7.80
   3  -1   6  181.18    7.80
  -4   1  -6   56.59    4.00
  -4   1  -6   58.09    3.40
  -4   1  -6   52.29    3.30
  -4   1  -6   54.19    3.40
  -4   1  -6   54.99    4.10
  -4   1  -6   63.49    3.40
   4  -1   6   62.39    3.70
   4  -1   6   47.90    3.50
   4  -1   6   55.19    3.60
   4  -1   6   55.89    3.60
  -5   1  -6    7.00    2.00
  -5   1  -6   10.50    1.60
  -5   1  -6    7.70    1.90
  -5   1  -6   10.00    1.70
  -5   1  -6    6.90    1.30
  -5   1  -6    8.90    1.60
   5  -1   6    8.30    1.70
   5  -1   6    9.20    1.80
   5  -1   6   10.50    1.90
   5  -1   6    5.90    1.40
  -6   1  -6    0.50    1.10
  -6   1  -6    1.00    0.90
  -6   1  -6   -0.20    1.00
  -6   1  -6    1.10    1.20
  -6   1  -6    2.40    1.20
  -6   1  -6    2.90    1.50
   6  -1   6    1.40    1.40
   6  -1   6    0.70    1.00
   6  -1   6    1.70    1.20
   6  -1   6    0.30    1.20
  -7   1  -6    0.10    1.50
  -7   1  -6   -0.40    1.50
  -7   1  -6    0.00    1.30
  -7   1  -6    1.00    1.30
   7  -1   6    0.30    1.40
   7  -1   6   -0.80    1.40
  -8   1  -6    0.80    1.70
  -8   1  -6    3.20    2.30
  -8   1  -6    0.30    1.60
   8  -1   6    1.40    1.90
   8  -1   6    0.00    1.60
   9   0  -6    0.90    1.60
   9   0  -6   -0.50    1.30
   9   0  -6    0.10    1.40
  -9   0   6   -2.20    1.30
  -9   0   6   -0.60    1.20
  -9   0   6    0.70    1.50
   8   0  -6    7.00    2.00
   8   0  -6    5.40    1.60
   8   0  -6    1.90    1.30
   8   0  -6    4.60    1.20
  -8   0   6    4.20    1.50
  -8   0   6    6.70    1.50
  -8   0   6    5.30    1.80
  -8   0   6    4.30    1.40
  -8   0   6    6.00    1.90
   7   0  -6    0.50    0.80
   7   0  -6    0.00    1.20
   7   0  -6    1.30    1.00
   7   0  -6    0.20    0.80
   7   0  -6    0.90    0.80
   7   0  -6   -0.90    1.00
  -7   0   6   -0.20    0.70
  -7   0   6    0.50    1.10
  -7   0   6    0.90    0.80
  -7   0   6    0.60    1.00
  -7   0   6    0.10    1.00
  -7   0   6   -0.50    1.00
  -7   0   6    2.40    1.10
   6   0  -6   32.60    3.10
   6   0  -6   31.80    2.20
   6   0  -6   35.40    2.30
   6   0  -6   28.20    2.50
   6   0  -6   33.90    2.70
  -6   0   6   38.80    3.00
  -6   0   6   34.10    2.70
  -6   0   6   31.70    2.50
  -6   0   6   31.00    2.40
  -6   0   6   29.60    2.30
  -6   0   6   34.10    2.40
  -6   0   6   32.60    2.70
   5   0  -6   12.70    1.00
   5   0  -6   11.40    1.70
   5   0  -6   13.10    1.40
   5   0  -6   14.20    1.70
   5   0  -6   12.40    1.30
  -5   0   6   12.80    1.50
  -5   0   6   10.80    1.80
  -5   0   6   10.50    1.70
  -5   0   6   13.40    1.50
  -5   0   6   12.00    1.70
  -5   0   6   11.90    1.60
  -5   0   6   12.90    1.60
  -5   0   6   11.60    1.30
   4   0  -6    0.50    0.50
   4   0  -6   -0.20    0.40
   4   0  -6    0.10    0.60
   4   0  -6    0.40    0.40
   4   0  -6   -0.10    0.20
  -4   0   6    0.00    0.50
  -4   0   6    0.30    0.70
  -4   0   6   -0.60    0.40
  -4   0   6    0.00    0.40
  -4   0   6   -0.10    0.70
  -4   0   6    0.30    0.40
  -4   0   6    0.80    0.70
   3   0  -6    0.30    0.40
   3   0  -6    0.50    0.30
   3   0  -6    0.80    0.40
   3   0  -6    0.10    0.40
   3   0  -6   -0.10    0.30
  -3   0   6    0.30    0.40
  -3   0   6    0.70    0.50
  -3   0   6    0.10    0.40
  -3   0   6    0.20    0.40
  -3   0   6    0.10    0.40
  -3   0   6    0.50    0.50
  -3   0   6    1.00    0.40
   2   0  -6   33.80    1.70
   2   0  -6   30.40    1.60
   2   0  -6   30.20    2.00
   2   0  -6   29.80    1.70
   2   0  -6   29.40    1.90
  -2   0   6   30.60    1.90
  -2   0   6   29.20    1.90
  -2   0   6   30.80    1.70
  -2   0   6   32.70    2.10
  -2   0   6   34.30    2.10
  -2   0   6   29.50    2.00
   1   0  -6  196.68    8.10
   1   0  -6  193.68    7.90
   1   0  -6  198.48    7.90
   1   0  -6  188.58    8.10
   1   0  -6  195.78    7.80
  -1   0   6  184.68    8.20
  -1   0   6  188.18    7.50
  -1   0   6  192.28    7.90
  -1   0   6  191.48    8.20
  -1   0   6  189.98    8.30
  -1   0   6  194.98    8.20
  -1   0   6  199.18    7.60
  -1   0   6  203.68    8.20
   0   0  -6  261.57   10.80
   0   0  -6  269.57   10.70
   0   0  -6  262.87   10.70
   0   0  -6  270.67   10.80
   0   0  -6  269.67   10.80
   0   0  -6  266.37   10.70
   0   0  -6  265.37   10.70
   0   0   6  260.57   10.80
   0   0   6  268.17   11.00
   0   0   6  278.37   11.10
   0   0   6  262.77   10.60
   0   0   6  271.67   10.70
   0   0   6  255.77   11.10
   0   0   6  255.97   10.60
  -1   0  -6   54.19    3.10
  -1   0  -6   54.49    2.80
  -1   0  -6   52.89    3.10
  -1   0  -6   54.79    2.80
  -1   0  -6   57.89    2.70
  -1   0  -6   55.09    2.80
  -1   0  -6   59.79    2.90
  -1   0  -6   52.89    2.60
   1   0   6   53.39    2.90
   1   0   6   59.59    3.30
   1   0   6   55.89    2.90
   1   0   6   58.99    3.00
   1   0   6   53.39    3.00
   1   0   6   56.29    3.00
   1   0   6   55.59    2.50
  -2   0  -6   36.30    2.20
  -2   0  -6   40.30    2.30
  -2   0  -6   38.00    2.00
  -2   0  -6   36.10    2.20
  -2   0  -6   38.60    2.70
  -2   0  -6   39.00    2.70
  -2   0  -6   42.20    2.40
   2   0   6   38.50    2.50
   2   0   6   39.30    2.50
   2   0   6   43.40    2.70
   2   0   6   39.00    2.50
   2   0   6   42.20    2.50
   2   0   6   34.40    2.30
  -3   0  -6   30.70    2.70
  -3   0  -6   32.30    2.20
  -3   0  -6   32.80    2.70
  -3   0  -6   35.00    2.30
  -3   0  -6   31.00    2.20
  -3   0  -6   32.00    2.10
   3   0   6   30.80    2.10
   3   0   6   30.80    2.40
   3   0   6   28.30    2.20
   3   0   6   29.70    2.40
   3   0   6   33.90    2.70
   3   0   6   32.50    2.40
  -4   0  -6    0.20    1.00
  -4   0  -6    1.90    0.70
  -4   0  -6    0.80    1.00
  -4   0  -6    2.20    0.70
  -4   0  -6    1.50    0.60
  -4   0  -6    0.90    0.90
   4   0   6    0.20    0.80
   4   0   6   -0.10    0.80
   4   0   6    0.30    1.00
   4   0   6    2.60    1.20
   4   0   6    1.20    0.90
  -5   0  -6    0.80    0.70
  -5   0  -6   -0.30    0.90
  -5   0  -6   -0.50    0.70
  -5   0  -6    0.20    0.90
  -5   0  -6   -0.40    1.10
  -5   0  -6   -0.30    0.60
   5   0   6   -0.60    1.10
   5   0   6    0.80    1.20
   5   0   6    0.70    1.00
   5   0   6    0.80    1.20
  -6   0  -6    9.50    2.00
  -6   0  -6   11.10    1.90
  -6   0  -6    9.90    2.50
  -6   0  -6   10.80    1.80
  -6   0  -6    7.40    2.00
  -6   0  -6    9.00    1.70
   6   0   6    4.50    1.60
   6   0   6   11.30    2.20
   6   0   6    8.80    1.90
   6   0   6    8.50    2.00
  -7   0  -6   11.50    2.30
  -7   0  -6    2.60    1.10
  -7   0  -6    8.40    2.40
   7   0   6    6.50    2.10
   7   0   6    3.00    1.70
   7   0   6    5.50    2.00
   9  -1  -6    1.00    1.10
   9  -1  -6    2.00    1.60
   9  -1  -6    0.70    1.50
   9  -1  -6    2.10    1.60
  -9   1   6    0.00    1.50
  -9   1   6    0.50    1.70
  -9   1   6    0.70    1.20
  -9   1   6   -0.20    1.20
   8  -1  -6   15.10    2.60
   8  -1  -6   18.50    2.00
   8  -1  -6   16.70    2.10
   8  -1  -6   15.20    2.40
   8  -1  -6   14.70    2.30
  -8   1   6   12.30    2.00
  -8   1   6   13.00    2.40
  -8   1   6   21.70    2.60
  -8   1   6   15.50    2.20
  -8   1   6   14.20    2.50
   7  -1  -6    4.00    1.10
   7  -1  -6    4.70    1.10
   7  -1  -6    4.20    1.40
   7  -1  -6    4.20    1.20
  -7   1   6    4.80    1.00
  -7   1   6    4.70    1.20
  -7   1   6    4.60    1.40
  -7   1   6    4.10    1.40
  -7   1   6    8.10    1.90
  -7   1   6    5.00    1.20
  -7   1   6    5.70    1.50
   6  -1  -6    6.60    1.50
   6  -1  -6    5.80    1.40
   6  -1  -6    7.80    1.20
   6  -1  -6    6.80    1.10
   6  -1  -6    7.30    1.00
  -6   1   6    7.80    1.60
  -6   1   6    7.80    1.40
  -6   1   6    8.30    1.30
  -6   1   6    8.60    1.40
  -6   1   6    6.00    1.20
  -6   1   6    6.80    1.60
  -6   1   6    5.40    1.50
   5  -1  -6    7.30    1.40
   5  -1  -6    6.00    1.30
   5  -1  -6    9.10    1.20
   5  -1  -6    8.60    1.20
   5  -1  -6    7.20    0.90
  -5   1   6    9.30    1.30
  -5   1   6    6.00    1.30
  -5   1   6    9.30    1.60
  -5   1   6    7.70    1.50
  -5   1   6    8.50    1.20
  -5   1   6    9.80    1.40
  -5   1   6    7.20    1.20
   4  -1  -6   49.90    2.40
   4  -1  -6   47.30    2.70
   4  -1  -6   48.90    2.90
   4  -1  -6   46.40    2.60
   4  -1  -6   45.30    3.00
  -4   1   6   51.39    3.20
  -4   1   6   46.80    2.80
  -4   1   6   47.90    3.10
  -4   1   6   45.00    2.80
  -4   1   6   53.99    2.80
  -4   1   6   46.40    3.10
   3  -1  -6    7.90    1.00
   3  -1  -6    5.70    1.00
   3  -1  -6    6.80    0.90
   3  -1  -6    6.50    1.10
   3  -1  -6    7.20    0.80
  -3   1   6    8.70    1.00
  -3   1   6    7.40    1.10
  -3   1   6    5.70    1.00
  -3   1   6    6.40    0.70
  -3   1   6    6.00    1.10
  -3   1   6    5.80    1.10
  -3   1   6    8.60    1.30
   2  -1  -6    0.80    0.40
   2  -1  -6    0.20    0.30
   2  -1  -6    0.60    0.40
   2  -1  -6    0.60    0.40
   2  -1  -6    0.20    0.40
  -2   1   6    0.80    0.50
  -2   1   6    0.20    0.30
  -2   1   6    1.10    0.50
  -2   1   6    0.70    0.50
  -2   1   6    0.50    0.30
  -2   1   6    1.60    0.60
  -2   1   6    0.80    0.50
   1  -1  -6    3.30    0.70
   1  -1  -6    3.20    0.60
   1  -1  -6    2.50    0.50
   1  -1  -6    1.80    0.50
   1  -1  -6    3.40    0.40
   1  -1  -6    3.30    0.70
  -1   1   6    2.90    0.70
  -1   1   6    2.90    0.70
  -1   1   6    2.50    0.70
  -1   1   6    2.70    0.40
  -1   1   6    3.00    0.60
  -1   1   6    1.40    0.60
  -1   1   6    2.40    0.60
   0  -1  -6   78.19    3.60
   0  -1  -6   74.89    3.70
   0  -1  -6   77.79    3.70
   0  -1  -6   81.99    3.70
   0  -1  -6   77.29    3.60
   0  -1  -6   77.09    3.60
   0  -1  -6   80.19    3.70
   0   1   6   79.19    3.60
   0   1   6   74.39    3.60
   0   1   6   80.79    4.00
   0   1   6   86.09    3.80
   0   1   6   73.99    3.50
   0   1   6   79.29    3.70
   0   1   6   77.39    4.00
   0   1   6   79.59    4.00
  -1  -1  -6   13.50    0.90
  -1  -1  -6   12.80    1.10
  -1  -1  -6   13.70    1.20
  -1  -1  -6   11.00    1.20
  -1  -1  -6   11.90    1.20
  -1  -1  -6   15.30    1.60
  -1  -1  -6   13.50    1.30
  -1  -1  -6   13.10    1.40
   1   1   6   10.90    0.90
   1   1   6   12.10    1.50
   1   1   6   11.10    1.40
   1   1   6   11.80    1.40
   1   1   6   11.80    1.50
   1   1   6   10.30    1.30
   1   1   6   11.70    1.30
  -2  -1  -6    1.60    0.50
  -2  -1  -6    2.00    0.80
  -2  -1  -6    1.40    0.70
  -2  -1  -6    2.80    0.70
  -2  -1  -6    2.50    0.70
  -2  -1  -6    1.70    0.60
   2   1   6    2.60    0.90
   2   1   6    1.20    0.90
   2   1   6    2.40    0.90
   2   1   6    1.30    0.90
   2   1   6    2.10    0.80
   2   1   6    1.90    0.90
  -3  -1  -6   39.70    3.10
  -3  -1  -6   35.70    2.40
  -3  -1  -6   40.70    3.10
  -3  -1  -6   38.00    2.50
  -3  -1  -6   35.40    2.30
  -3  -1  -6   40.70    2.40
   3   1   6   36.90    2.80
   3   1   6   35.20    2.70
   3   1   6   39.90    2.70
   3   1   6   37.80    2.80
   3   1   6   40.50    3.10
   3   1   6   37.50    2.70
  -4  -1  -6    1.60    0.90
  -4  -1  -6    0.80    0.80
  -4  -1  -6    2.70    0.90
  -4  -1  -6    1.00    0.80
  -4  -1  -6    1.70    0.90
  -4  -1  -6    2.00    0.80
   4   1   6   -0.50    0.90
   4   1   6    1.70    1.20
   4   1   6    1.70    1.00
   4   1   6    0.00    1.40
   4   1   6    0.80    1.00
   4   1   6    2.00    1.30
  -5  -1  -6   26.10    3.40
  -5  -1  -6   25.80    3.30
  -5  -1  -6   29.00    2.40
  -5  -1  -6   28.10    2.90
  -5  -1  -6   33.90    2.90
   5   1   6   26.60    3.00
   5   1   6   25.20    2.90
   5   1   6   28.70    3.10
   5   1   6   22.20    2.90
  -6  -1  -6   -0.60    1.20
  -6  -1  -6   -0.40    1.40
  -6  -1  -6    0.00    1.20
  -6  -1  -6    1.20    1.10
  -6  -1  -6    1.60    1.60
   6   1   6    0.00    1.40
   6   1   6   -1.10    1.30
   6   1   6    0.20    1.30
   6   1   6   -0.40    1.20
  -7  -1  -6    2.30    2.00
  -7  -1  -6    6.10    1.80
  -7  -1  -6    6.60    2.00
   7   1   6    5.00    2.00
   7   1   6    6.90    2.10
   7   1   6    7.10    2.20
   9  -2  -6    0.10    1.10
   9  -2  -6    0.70    1.50
   9  -2  -6    0.80    1.10
  -9   2   6   -0.70    1.20
  -9   2   6    2.10    1.40
  -9   2   6    1.80    1.70
  -9   2   6    1.20    1.70
   8  -2  -6    1.60    1.00
   8  -2  -6    3.60    1.20
   8  -2  -6    2.10    1.10
   8  -2  -6    2.60    1.60
  -8   2   6    0.40    1.30
  -8   2   6    3.10    1.60
  -8   2   6    2.30    1.20
  -8   2   6    3.50    1.50
  -8   2   6    4.80    1.40
   7  -2  -6   -1.00    0.60
   7  -2  -6   -0.50    1.10
   7  -2  -6   -0.50    0.60
   7  -2  -6   -0.10    0.60
   7  -2  -6    2.20    1.30
  -7   2   6   -0.40    0.70
  -7   2   6    1.00    1.10
  -7   2   6    0.00    1.20
  -7   2   6   -0.20    1.10
  -7   2   6    0.80    0.70
   6  -2  -6    0.60    0.70
   6  -2  -6    0.30    0.50
   6  -2  -6    0.30    0.70
   6  -2  -6    0.90    0.80
   6  -2  -6   -0.70    0.80
  -6   2   6    0.30    0.80
  -6   2   6    1.90    1.10
  -6   2   6    0.90    0.90
  -6   2   6   -0.20    0.60
  -6   2   6    1.70    1.10
  -6   2   6    0.00    0.60
   5  -2  -6    5.50    1.20
   5  -2  -6    6.80    1.10
   5  -2  -6    5.70    1.10
   5  -2  -6    6.80    1.00
   5  -2  -6    4.00    1.20
  -5   2   6    5.90    1.40
  -5   2   6    5.80    1.40
  -5   2   6    9.00    1.30
  -5   2   6    4.90    1.10
  -5   2   6    5.90    1.20
  -5   2   6    4.40    1.20
   4  -2  -6   47.80    3.10
   4  -2  -6   56.19    3.00
   4  -2  -6   58.59    2.80
   4  -2  -6   54.39    3.00
  -4   2   6   56.19    3.60
  -4   2   6   58.09    3.50
  -4   2   6   58.69    3.00
  -4   2   6   54.69    3.10
  -4   2   6   53.89    3.30
  -4   2   6   49.99    3.40
   3  -2  -6   28.10    2.10
   3  -2  -6   29.20    1.90
   3  -2  -6   31.00    1.80
   3  -2  -6   27.10    1.80
   3  -2  -6   27.80    2.10
  -3   2   6   33.80    2.50
  -3   2   6   36.00    2.20
  -3   2   6   31.30    1.90
  -3   2   6   27.60    2.20
  -3   2   6   28.60    2.20
  -3   2   6   35.60    2.40
   2  -2  -6  119.99    5.60
   2  -2  -6  120.19    5.40
   2  -2  -6  126.69    5.50
   2  -2  -6  124.39    5.30
   2  -2  -6  109.79    5.60
  -2   2   6  119.39    5.70
  -2   2   6  122.89    5.00
  -2   2   6  127.99    5.80
  -2   2   6  121.89    5.80
  -2   2   6  128.79    6.00
  -2   2   6  123.59    5.50
  -2   2   6  123.79    5.90
   1  -2  -6  168.18    7.20
   1  -2  -6  168.88    7.20
   1  -2  -6  168.78    7.00
   1  -2  -6  169.28    7.30
   1  -2  -6  169.48    7.10
   1  -2  -6  169.38    7.10
  -1   2   6  170.98    7.60
  -1   2   6  164.68    6.90
  -1   2   6  178.08    7.60
  -1   2   6  171.78    7.50
  -1   2   6  162.68    7.30
  -1   2   6  170.28    7.70
   0  -2  -6    0.00    0.40
   0  -2  -6    0.20    0.40
   0  -2  -6   -0.20    0.30
   0  -2  -6    0.50    0.40
   0  -2  -6   -0.20    0.30
   0  -2  -6    0.00    0.40
   0  -2  -6    0.60    0.40
   0   2   6   -0.10    0.40
   0   2   6    0.20    0.60
   0   2   6   -0.60    0.50
   0   2   6    0.00    0.30
   0   2   6    0.60    0.60
   0   2   6    0.00    0.40
   0   2   6   -1.00    0.50
  -1  -2  -6   36.60    2.20
  -1  -2  -6   38.60    2.20
  -1  -2  -6   37.20    1.90
  -1  -2  -6   40.40    2.10
  -1  -2  -6   39.40    2.30
  -1  -2  -6   34.30    2.40
  -1  -2  -6   38.50    2.50
   1   2   6   37.00    2.60
   1   2   6   38.50    2.50
   1   2   6   38.00    2.60
   1   2   6   37.70    2.40
   1   2   6   35.60    2.30
   1   2   6   35.80    2.40
  -2  -2  -6   54.99    2.80
  -2  -2  -6   57.09    3.10
  -2  -2  -6   48.40    2.90
  -2  -2  -6   55.89    3.50
  -2  -2  -6   50.79    3.40
  -2  -2  -6   53.19    2.90
   2   2   6   51.99    3.20
   2   2   6   51.89    3.20
   2   2   6   46.80    3.20
   2   2   6   56.69    3.50
   2   2   6   48.80    3.40
   2   2   6   52.89    3.30
  -3  -2  -6   18.40    1.60
  -3  -2  -6   21.90    2.10
  -3  -2  -6   20.10    1.60
  -3  -2  -6   18.60    2.40
  -3  -2  -6   19.60    2.00
  -3  -2  -6   16.60    2.20
   3   2   6   15.50    2.10
   3   2   6   14.50    2.00
   3   2   6   21.60    2.60
   3   2   6   19.80    2.20
   3   2   6   17.50    2.00
   3   2   6   21.10    2.40
  -4  -2  -6    6.90    1.40
  -4  -2  -6    5.80    1.30
  -4  -2  -6    7.30    1.50
  -4  -2  -6    8.80    1.80
  -4  -2  -6    6.80    1.60
   4   2   6    7.70    1.70
   4   2   6    6.20    1.70
   4   2   6    7.10    1.70
   4   2   6    7.70    1.50
   4   2   6    4.70    1.50
   4   2   6    7.40    1.60
  -5  -2  -6   30.90    3.70
  -5  -2  -6   31.80    3.20
  -5  -2  -6   31.10    3.00
  -5  -2  -6   29.60    3.60
  -5  -2  -6   39.40    2.80
   5   2   6   25.40    3.10
   5   2   6   30.20    3.40
   5   2   6   28.50    3.10
   5   2   6   36.80    3.30
   5   2   6   26.10    3.00
  -6  -2  -6    1.90    1.40
  -6  -2  -6    2.20    1.70
  -6  -2  -6    1.20    1.40
  -6  -2  -6    0.80    1.20
  -6  -2  -6    2.50    1.30
   6   2   6    0.40    1.10
   6   2   6    1.10    1.60
   6   2   6    0.50    1.40
   6   2   6   -0.50    1.50
  -7  -2  -6    0.70    1.40
  -7  -2  -6   -2.20    1.30
  -7  -2  -6   -0.80    1.50
   7   2   6   -0.90    1.10
   7   2   6   -0.20    1.30
   7   2   6   -1.30    1.50
   9  -3  -6   -1.90    1.40
   9  -3  -6    0.20    1.10
   9  -3  -6    2.10    1.40
  -9   3   6   -1.90    1.30
  -9   3   6    0.60    1.30
  -9   3   6    0.70    1.70
  -9   3   6   -0.60    1.20
   8  -3  -6    0.40    1.00
   8  -3  -6    0.20    0.90
   8  -3  -6    0.40    0.90
   8  -3  -6   -1.00    0.80
   8  -3  -6    1.50    1.40
  -8   3   6    0.20    1.40
  -8   3   6    0.10    1.30
  -8   3   6    0.10    1.20
  -8   3   6    0.00    1.10
   7  -3  -6    0.90    1.10
   7  -3  -6    2.00    0.80
   7  -3  -6    0.70    0.90
   7  -3  -6    0.20    0.80
   7  -3  -6    1.60    0.90
  -7   3   6    1.60    1.10
  -7   3   6    2.50    1.50
  -7   3   6    2.20    1.10
  -7   3   6    1.90    1.30
   6  -3  -6    6.60    1.20
   6  -3  -6   11.40    1.80
   6  -3  -6   11.00    1.40
   6  -3  -6    7.20    1.30
  -6   3   6   10.80    1.90
  -6   3   6    9.50    1.60
  -6   3   6   10.20    2.00
  -6   3   6    6.40    1.60
  -6   3   6    9.50    1.60
  -6   3   6    7.40    1.30
   5  -3  -6   58.29    3.10
   5  -3  -6   54.09    3.50
   5  -3  -6   57.49    3.30
   5  -3  -6   56.89    3.20
  -5   3   6   50.19    3.90
  -5   3   6   58.89    3.50
  -5   3   6   60.59    3.50
  -5   3   6   54.89    3.80
  -5   3   6   54.49    3.30
  -5   3   6   57.79    3.90
   4  -3  -6    9.10    1.50
   4  -3  -6   11.30    1.30
   4  -3  -6   11.10    1.30
   4  -3  -6   13.50    1.30
  -4   3   6   15.00    1.60
  -4   3   6   16.50    2.10
  -4   3   6   11.90    1.80
  -4   3   6    9.70    1.60
  -4   3   6   12.40    1.60
   3  -3  -6  118.79    5.50
   3  -3  -6  112.59    5.70
   3  -3  -6  116.39    5.30
   3  -3  -6  117.99    5.40
   3  -3  -6  101.19    5.70
  -3   3   6  122.29    6.00
  -3   3   6  123.09    6.00
  -3   3   6  124.39    5.70
  -3   3   6  128.99    6.30
  -3   3   6  132.69    5.50
  -3   3   6  134.09    6.20
   2  -3  -6    0.50    0.40
   2  -3  -6    1.60    0.50
   2  -3  -6    1.10    0.50
   2  -3  -6    0.00    0.50
   2  -3  -6   -0.10    0.50
  -2   3   6    0.10    0.40
  -2   3   6    0.60    0.60
  -2   3   6   -0.60    0.50
  -2   3   6    0.40    0.40
  -2   3   6   -0.30    0.50
  -2   3   6   -0.10    0.60
   1  -3  -6    9.30    1.10
   1  -3  -6   10.20    1.30
   1  -3  -6    8.80    1.00
   1  -3  -6    9.40    1.10
   1  -3  -6    9.40    1.10
   1  -3  -6    8.50    1.10
  -1   3   6    8.30    1.30
  -1   3   6    7.90    1.30
  -1   3   6    9.90    1.30
  -1   3   6    7.30    1.10
  -1   3   6   11.40    1.10
  -1   3   6    8.90    1.40
   0  -3  -6   65.09    3.30
   0  -3  -6   59.29    3.00
   0  -3  -6   62.99    3.10
   0  -3  -6   64.79    3.40
   0  -3  -6   61.29    3.10
   0  -3  -6   58.19    3.10
   0   3   6   69.59    3.50
   0   3   6   65.89    3.70
   0   3   6   59.29    3.00
   0   3   6   60.19    3.60
   0   3   6   59.39    3.20
   0   3   6   56.99    3.10
   0   3   6   66.29    3.80
  -1  -3  -6   25.40    1.70
  -1  -3  -6   26.80    2.10
  -1  -3  -6   24.30    1.60
  -1  -3  -6   24.80    1.90
  -1  -3  -6   25.10    2.10
  -1  -3  -6   23.20    1.70
   1   3   6   25.30    2.10
   1   3   6   24.90    2.50
   1   3   6   23.20    1.90
   1   3   6   26.00    2.50
   1   3   6   22.00    2.40
  -2  -3  -6   75.79    4.10
  -2  -3  -6   75.39    3.60
  -2  -3  -6   77.09    4.50
  -2  -3  -6   78.69    3.90
  -2  -3  -6   76.49    4.50
  -2  -3  -6   73.79    3.90
   2   3   6   73.29    4.40
   2   3   6   67.49    4.50
   2   3   6   79.99    4.50
   2   3   6   72.89    4.20
   2   3   6   74.09    4.20
  -3  -3  -6    3.80    1.30
  -3  -3  -6    0.90    0.80
  -3  -3  -6    2.40    1.00
  -3  -3  -6    2.90    1.30
  -3  -3  -6    2.00    1.10
  -3  -3  -6    2.70    1.00
   3   3   6    4.10    1.40
   3   3   6    1.10    0.90
   3   3   6    3.40    1.20
   3   3   6    2.60    1.50
   3   3   6    4.80    1.40
   3   3   6    3.80    1.40
  -4  -3  -6   83.49    4.50
  -4  -3  -6   87.69    4.60
  -4  -3  -6   81.69    5.50
  -4  -3  -6   91.69    4.90
  -4  -3  -6   76.09    5.30
  -4  -3  -6   96.69    5.70
   4   3   6   77.79    5.00
   4   3   6   77.19    5.10
   4   3   6   80.99    5.00
   4   3   6   77.09    5.00
   4   3   6   76.89    5.00
   4   3   6   81.49    5.20
  -5  -3  -6   16.10    2.10
  -5  -3  -6   14.20    2.70
  -5  -3  -6   13.90    2.70
  -5  -3  -6   15.80    2.30
  -5  -3  -6   19.80    2.30
  -5  -3  -6    9.40    2.30
   5   3   6   13.40    2.30
   5   3   6   13.00    2.50
   5   3   6   13.80    2.30
   5   3   6   14.80    2.50
   5   3   6   14.70    2.50
  -6  -3  -6   30.20    4.10
  -6  -3  -6   39.60    3.90
  -6  -3  -6   39.70    3.20
  -6  -3  -6   29.10    3.10
  -6  -3  -6   26.30    3.80
   6   3   6   19.20    3.00
   6   3   6   28.10    3.60
   6   3   6   24.60    3.50
  -7  -3  -6    2.80    1.50
  -7  -3  -6   -1.40    1.20
  -7  -3  -6    0.40    1.60
   7   3   6    2.10    2.00
   7   3   6    3.20    1.80
   7   3   6   -0.70    1.80
   8  -4  -6    0.00    1.00
   8  -4  -6    0.00    0.90
   8  -4  -6   -0.40    1.30
  -8   4   6    0.60    1.30
  -8   4   6    2.30    1.60
  -8   4   6    0.00    1.60
  -8   4   6   -1.90    1.30
   7  -4  -6    3.60    1.50
   7  -4  -6    4.40    1.20
   7  -4  -6    4.00    1.10
   7  -4  -6    2.10    1.00
  -7   4   6    7.60    1.60
  -7   4   6    3.10    1.60
  -7   4   6    2.90    1.40
  -7   4   6    5.90    2.00
   6  -4  -6    3.00    1.20
   6  -4  -6    1.10    0.80
   6  -4  -6    1.90    0.90
   6  -4  -6    1.50    0.80
  -6   4   6    1.80    1.00
  -6   4   6    3.20    1.50
  -6   4   6    3.70    1.10
  -6   4   6    0.70    1.00
  -6   4   6    2.20    1.30
   5  -4  -6   15.20    2.00
   5  -4  -6   12.30    1.50
   5  -4  -6   15.50    1.80
   5  -4  -6   12.00    1.50
  -5   4   6   13.50    2.00
  -5   4   6   14.90    2.20
  -5   4   6   12.40    2.20
  -5   4   6   11.80    1.60
  -5   4   6   14.50    1.90
   4  -4  -6   -0.10    0.50
   4  -4  -6    0.40    0.80
   4  -4  -6   -0.20    0.50
   4  -4  -6    0.60    0.50
  -4   4   6   -0.50    0.60
  -4   4   6   -0.80    0.80
  -4   4   6    0.30    0.70
  -4   4   6    1.40    1.00
  -4   4   6    1.40    0.80
   3  -4  -6   59.49    3.10
   3  -4  -6   55.29    3.10
   3  -4  -6   53.49    2.90
   3  -4  -6   52.49    3.30
  -3   4   6   58.29    3.50
  -3   4   6   53.59    3.60
  -3   4   6   60.29    3.80
  -3   4   6   56.09    3.50
  -3   4   6   54.89    3.30
   2  -4  -6   23.20    1.80
   2  -4  -6   18.80    2.00
   2  -4  -6   21.70    1.70
   2  -4  -6   23.00    1.70
   2  -4  -6   22.60    1.70
  -2   4   6   26.50    2.00
  -2   4   6   26.30    1.80
  -2   4   6   24.80    2.40
  -2   4   6   26.00    2.30
  -2   4   6   25.80    2.50
  -2   4   6   25.50    2.00
   1  -4  -6   12.70    1.40
   1  -4  -6   15.10    1.40
   1  -4  -6   13.30    1.40
   1  -4  -6   11.90    1.30
   1  -4  -6   11.40    1.40
  -1   4   6   13.50    1.60
  -1   4   6   14.80    1.80
  -1   4   6   13.00    1.90
  -1   4   6   13.70    1.80
  -1   4   6   14.90    1.60
   0  -4  -6  376.16   15.20
   0  -4  -6  355.06   15.60
   0  -4  -6  377.56   15.30
   0  -4  -6  387.46   15.50
   0  -4  -6  394.66   15.20
   0   4   6  370.16   15.30
   0   4   6  385.76   15.70
   0   4   6  380.26   16.10
   0   4   6  372.26   15.80
   0   4   6  378.36   15.90
  -1  -4  -6  245.78   11.10
  -1  -4  -6  247.78   10.50
  -1  -4  -6  249.68   10.70
  -1  -4  -6  249.68   11.00
  -1  -4  -6  250.67   10.20
  -1  -4  -6  253.17   10.40
   1   4   6  258.67   11.30
   1   4   6  233.38   10.70
   1   4   6  250.77   11.20
   1   4   6  247.88   10.70
   1   4   6  252.37   11.40
  -2  -4  -6  678.53   28.00
  -2  -4  -6  676.13   27.30
  -2  -4  -6  696.23   27.00
  -2  -4  -6  701.43   27.90
  -2  -4  -6  653.73   27.70
  -2  -4  -6  695.83   27.10
   2   4   6  646.94   27.40
   2   4   6  697.03   27.90
   2   4   6  679.03   27.40
   2   4   6  672.43   27.90
   2   4   6  710.23   28.00
  -3  -4  -6    6.10    1.20
  -3  -4  -6    4.80    1.20
  -3  -4  -6    4.90    1.10
  -3  -4  -6    4.30    1.50
  -3  -4  -6    5.80    1.60
  -3  -4  -6    5.40    1.60
   3   4   6    5.40    1.70
   3   4   6    3.50    1.50
   3   4   6    3.30    1.30
   3   4   6    5.00    1.60
   3   4   6    4.00    1.40
  -4  -4  -6  100.29    6.50
  -4  -4  -6  111.49    5.80
  -4  -4  -6   98.09    6.20
  -4  -4  -6  104.29    6.50
  -4  -4  -6  113.79    5.60
  -4  -4  -6  110.89    5.40
   4   4   6  109.89    6.20
   4   4   6   99.39    6.20
   4   4   6   96.89    5.80
   4   4   6  107.89    6.20
   4   4   6   95.79    6.10
   4   4   6   96.59    5.90
  -5  -4  -6    1.30    0.90
  -5  -4  -6    1.30    1.30
  -5  -4  -6    1.80    1.50
  -5  -4  -6    0.50    0.90
  -5  -4  -6    0.90    1.50
  -5  -4  -6    1.30    1.20
   5   4   6    0.20    1.20
   5   4   6    0.50    1.60
   5   4   6   -0.10    1.50
   5   4   6    1.30    1.60
   5   4   6    2.50    1.50
   5   4   6   -1.60    1.40
  -6  -4  -6   -0.30    1.00
  -6  -4  -6   -0.80    1.50
  -6  -4  -6    1.00    1.50
  -6  -4  -6   -0.30    1.90
   6   4   6    1.00    1.40
   6   4   6    1.50    1.50
   6   4   6    0.40    1.50
   6   4   6   -2.50    1.40
   8  -5  -6    4.90    1.50
   8  -5  -6    2.70    1.60
   8  -5  -6    4.60    1.50
  -8   5   6    1.80    1.80
  -8   5   6    3.00    1.50
  -8   5   6    1.40    1.70
  -8   5   6    7.90    2.50
   7  -5  -6    1.90    1.40
   7  -5  -6    4.60    1.30
   7  -5  -6    2.30    1.10
  -7   5   6    6.70    1.90
  -7   5   6    1.60    1.70
  -7   5   6    5.90    1.80
  -7   5   6    7.10    1.90
   6  -5  -6    6.00    1.50
   6  -5  -6    2.90    1.00
   6  -5  -6    5.70    1.20
   6  -5  -6    6.10    1.30
  -6   5   6    5.40    1.90
  -6   5   6    4.40    1.80
  -6   5   6    3.30    1.10
  -6   5   6    7.40    1.80
   5  -5  -6   10.60    1.60
   5  -5  -6   14.50    1.60
   5  -5  -6    8.20    1.60
   5  -5  -6    9.80    1.50
  -5   5   6    9.90    1.80
  -5   5   6   13.40    1.90
  -5   5   6   12.50    2.20
  -5   5   6   11.50    1.60
  -5   5   6   12.30    2.10
   4  -5  -6   50.99    2.90
   4  -5  -6   49.40    3.30
   4  -5  -6   49.60    3.00
   4  -5  -6   48.40    3.00
  -4   5   6   47.10    3.40
  -4   5   6   60.19    4.10
  -4   5   6   50.59    3.70
  -4   5   6   50.69    3.40
  -4   5   6   50.79    3.20
   3  -5  -6   50.19    3.10
   3  -5  -6   52.19    3.00
   3  -5  -6   54.39    3.30
   3  -5  -6   55.69    3.10
  -3   5   6   58.99    3.50
  -3   5   6   59.49    3.90
  -3   5   6   57.39    3.50
  -3   5   6   55.99    3.60
  -3   5   6   55.19    3.60
   2  -5  -6  456.15   19.30
   2  -5  -6  459.75   19.30
   2  -5  -6  462.25   19.20
   2  -5  -6  472.15   19.30
  -2   5   6  501.75   20.20
  -2   5   6  484.45   19.70
  -2   5   6  480.35   19.40
  -2   5   6  493.15   20.10
  -2   5   6  506.75   19.70
  -2   5   6  493.25   19.80
   1  -5  -6   35.80    2.40
   1  -5  -6   34.20    2.40
   1  -5  -6   38.00    2.40
   1  -5  -6   35.80    2.40
   1  -5  -6   35.60    2.30
  -1   5   6   39.30    2.70
  -1   5   6   35.10    3.00
  -1   5   6   36.60    2.80
  -1   5   6   39.40    2.90
   0  -5  -6  532.05   21.50
   0  -5  -6  555.34   21.20
   0  -5  -6  531.85   21.30
   0  -5  -6  516.85   22.00
   0  -5  -6  529.75   21.00
   0   5   6  540.25   22.30
   0   5   6  515.45   22.00
   0   5   6  521.15   21.90
   0   5   6  552.24   21.80
  -1  -5  -6    2.80    0.80
  -1  -5  -6    0.80    0.90
  -1  -5  -6    0.60    0.80
  -1  -5  -6    1.50    0.90
  -1  -5  -6    2.20    0.80
   1   5   6    1.00    0.90
   1   5   6    3.90    1.40
   1   5   6    3.40    1.40
   1   5   6    1.80    1.00
  -2  -5  -6   38.30    3.10
  -2  -5  -6   39.20    3.20
  -2  -5  -6   37.30    3.10
  -2  -5  -6   35.60    2.70
  -2  -5  -6   42.90    2.60
  -2  -5  -6   33.90    2.50
   2   5   6   34.40    3.40
   2   5   6   37.00    3.60
   2   5   6   42.70    3.40
   2   5   6   43.20    3.20
  -3  -5  -6    8.60    1.90
  -3  -5  -6    8.20    1.40
  -3  -5  -6   11.00    1.60
  -3  -5  -6    9.50    2.00
  -3  -5  -6   10.40    1.70
  -3  -5  -6    8.40    1.90
   3   5   6    7.20    1.80
   3   5   6    6.90    1.70
   3   5   6    7.50    1.90
   3   5   6    8.70    1.90
   3   5   6    6.60    1.90
  -4  -5  -6    1.00    1.30
  -4  -5  -6    0.80    1.50
  -4  -5  -6    0.00    1.10
  -4  -5  -6   -0.60    1.10
  -4  -5  -6    0.00    0.80
  -4  -5  -6   -0.50    0.80
   4   5   6   -1.20    1.30
   4   5   6   -0.60    1.40
   4   5   6   -1.10    1.30
   4   5   6   -1.40    1.20
   4   5   6    0.80    1.10
   4   5   6   -0.20    1.40
  -5  -5  -6    3.80    1.90
  -5  -5  -6    4.60    1.40
  -5  -5  -6    3.80    1.20
  -5  -5  -6    4.50    2.10
  -5  -5  -6    5.40    1.90
  -5  -5  -6    3.70    1.30
   5   5   6    4.00    1.70
   5   5   6    3.40    2.00
   5   5   6    1.80    1.70
   5   5   6    3.60    1.50
   5   5   6    3.10    1.80
   5   5   6    1.20    1.70
  -6  -5  -6    0.00    1.60
  -6  -5  -6    1.40    1.90
  -6  -5  -6    0.70    1.50
  -6  -5  -6    1.30    1.30
   6   5   6   -1.10    1.70
   6   5   6    0.20    1.70
   6   5   6    0.00    1.50
   6   5   6    1.10    1.80
   8  -6  -6    6.70    1.50
   8  -6  -6    8.70    2.20
   8  -6  -6    8.30    1.80
  -8   6   6    7.90    2.00
  -8   6   6   13.50    3.10
  -8   6   6   11.20    2.70
  -8   6   6    5.90    2.10
   7  -6  -6    0.10    0.90
   7  -6  -6   -1.00    0.80
   7  -6  -6    0.30    1.40
  -7   6   6    0.20    1.70
  -7   6   6    0.70    1.40
  -7   6   6    0.10    1.50
  -7   6   6    1.80    1.60
   6  -6  -6   34.40    2.60
   6  -6  -6   35.60    2.60
   6  -6  -6   35.20    2.80
   6  -6  -6   40.80    3.30
  -6   6   6   37.50    3.80
  -6   6   6   33.40    3.90
  -6   6   6   29.00    3.70
   5  -6  -6   -0.80    0.70
   5  -6  -6   -0.90    0.70
   5  -6  -6    0.10    0.70
   5  -6  -6   -0.40    0.90
  -5   6   6    0.00    1.40
  -5   6   6    0.90    1.00
  -5   6   6    1.20    1.10
  -5   6   6   -1.20    0.90
   4  -6  -6   54.29    3.50
   4  -6  -6   48.30    3.10
   4  -6  -6   46.20    3.00
   4  -6  -6   53.79    3.10
  -4   6   6   49.80    3.50
  -4   6   6   55.69    3.40
  -4   6   6   47.20    3.80
  -4   6   6   46.90    3.40
  -4   6   6   54.59    4.20
   3  -6  -6    8.70    1.40
   3  -6  -6    9.00    1.40
   3  -6  -6    9.10    1.50
   3  -6  -6    8.30    1.20
  -3   6   6    9.80    1.70
  -3   6   6   10.10    2.10
  -3   6   6    9.70    1.70
  -3   6   6    9.90    1.60
  -3   6   6    6.80    1.60
   2  -6  -6    3.10    1.00
   2  -6  -6    3.80    1.00
   2  -6  -6    3.70    0.90
   2  -6  -6    5.50    1.20
  -2   6   6    3.00    1.10
  -2   6   6    2.80    1.10
  -2   6   6    5.10    1.30
  -2   6   6    4.80    1.20
  -2   6   6    4.40    1.40
   1  -6  -6   40.10    2.50
   1  -6  -6   41.50    2.80
   1  -6  -6   38.00    2.60
   1  -6  -6   42.60    2.60
  -1   6   6   37.60    3.10
  -1   6   6   46.90    3.00
  -1   6   6   41.40    3.20
  -1   6   6   42.60    3.40
   0  -6  -6    4.60    1.10
   0  -6  -6    7.90    1.20
   0  -6  -6    5.60    1.00
   0   6   6    4.70    1.60
   0   6   6    5.60    1.50
   0   6   6    6.40    1.50
  -1  -6  -6   52.29    3.00
  -1  -6  -6   54.09    3.40
  -1  -6  -6   48.50    3.60
  -1  -6  -6   50.09    2.90
   1   6   6   46.60    3.70
   1   6   6   51.49    4.00
   1   6   6   47.60    3.80
  -2  -6  -6    6.80    1.70
  -2  -6  -6    9.40    1.80
  -2  -6  -6    5.20    1.40
  -2  -6  -6    7.70    1.30
  -2  -6  -6    7.10    1.20
   2   6   6    4.70    1.70
   2   6   6    6.80    1.50
   2   6   6    6.90    1.80
   2   6   6    4.90    1.70
  -3  -6  -6    0.50    0.80
  -3  -6  -6    0.70    1.10
  -3  -6  -6    0.50    1.20
  -3  -6  -6    1.30    0.80
  -3  -6  -6   -0.30    0.90
  -3  -6  -6   -2.10    1.00
   3   6   6    1.00    1.20
   3   6   6    5.70    1.90
   3   6   6    1.20    1.30
   3   6   6    0.40    1.50
   3   6   6    0.80    1.20
  -4  -6  -6    0.30    1.20
  -4  -6  -6    3.00    1.00
  -4  -6  -6    4.00    1.30
  -4  -6  -6    2.80    1.50
  -4  -6  -6    5.60    2.00
  -4  -6  -6    3.50    2.00
   4   6   6    0.60    1.20
   4   6   6    2.70    1.70
   4   6   6    3.60    1.70
   4   6   6    3.40    1.90
   4   6   6    2.80    1.70
  -5  -6  -6    0.10    1.40
  -5  -6  -6   -0.40    1.70
  -5  -6  -6    1.40    1.20
  -5  -6  -6    1.80    1.80
   5   6   6    1.00    1.40
   5   6   6    0.00    1.70
   5   6   6    0.80    1.40
   5   6   6    2.20    1.90
   7  -7  -6    1.50    1.30
   7  -7  -6    1.80    1.10
   7  -7  -6    2.40    1.50
  -7   7   6    1.50    1.80
  -7   7   6    2.30    2.00
  -7   7   6    4.00    2.30
   6  -7  -6    4.40    1.60
   6  -7  -6    0.10    1.10
   6  -7  -6    2.40    1.00
  -6   7   6    0.10    1.60
  -6   7   6   -0.50    1.30
  -6   7   6    1.90    1.60
   5  -7  -6    0.30    0.80
   5  -7  -6    0.40    0.80
   5  -7  -6    0.10    0.90
   5  -7  -6    1.60    1.20
  -5   7   6   -2.50    1.20
  -5   7   6    0.50    0.90
  -5   7   6   -0.30    1.20
   4  -7  -6   16.80    2.20
   4  -7  -6   15.80    2.00
   4  -7  -6   16.10    1.80
   4  -7  -6   18.40    2.00
  -4   7   6   17.50    2.10
  -4   7   6   20.00    2.70
  -4   7   6   16.00    2.70
  -4   7   6   24.00    2.70
  -4   7   6   21.80    2.50
   3  -7  -6   40.30    2.70
   3  -7  -6   41.00    2.80
   3  -7  -6   39.40    2.80
   3  -7  -6   41.10    3.00
  -3   7   6   35.30    3.80
  -3   7   6   38.10    3.20
  -3   7   6   46.80    3.20
  -3   7   6   54.99    3.70
  -3   7   6   45.70    3.20
   2  -7  -6    3.50    1.00
   2  -7  -6    2.70    0.80
   2  -7  -6    2.70    0.90
  -2   7   6    2.70    1.30
  -2   7   6    3.30    1.30
  -2   7   6    2.00    1.10
   1  -7  -6   28.50    2.20
   1  -7  -6   31.70    2.50
   1  -7  -6   30.00    2.20
  -1   7   6   36.20    3.00
  -1   7   6   31.30    3.30
  -1   7   6   31.30    3.10
   0  -7  -6    5.90    1.10
   0  -7  -6    6.40    1.30
   0  -7  -6    5.30    1.10
   0   7   6    4.00    1.40
   0   7   6    4.40    1.30
   0   7   6    4.70    1.50
  -1  -7  -6   10.50    1.40
  -1  -7  -6   12.90    2.00
  -1  -7  -6    9.20    1.40
   1   7   6    7.00    1.90
   1   7   6   11.30    2.30
   1   7   6    7.60    1.90
  -2  -7  -6    1.20    1.10
  -2  -7  -6    3.10    1.00
  -2  -7  -6    3.20    1.00
  -2  -7  -6    2.80    1.30
   2   7   6    0.70    1.40
   2   7   6    0.50    1.50
   2   7   6    2.50    1.60
  -3  -7  -6   -0.80    1.10
  -3  -7  -6    0.80    0.80
  -3  -7  -6   -0.10    1.10
  -3  -7  -6   -0.20    0.70
   3   7   6    0.00    1.30
   3   7   6   -0.20    1.50
   3   7   6   -1.70    1.30
   3   7   6   -0.10    1.70
  -4  -7  -6    0.60    1.50
  -4  -7  -6    4.70    1.70
  -4  -7  -6    3.00    1.90
  -4  -7  -6    2.50    1.70
   4   7   6    3.30    1.90
   4   7   6    0.00    1.70
   4   7   6    3.00    1.60
   4   7   6    1.50    1.80
   6  -8  -6    4.70    1.40
   6  -8  -6    5.00    1.80
   6  -8  -6    5.90    1.50
  -6   8   6    7.00    2.10
  -6   8   6    3.50    2.00
  -6   8   6    1.80    2.10
   5  -8  -6    0.90    1.10
   5  -8  -6   -0.40    0.90
   5  -8  -6    1.80    1.30
  -5   8   6    0.80    1.40
  -5   8   6    1.30    1.30
  -5   8   6    0.10    1.20
   4  -8  -6    3.40    1.20
   4  -8  -6    1.50    1.20
   4  -8  -6    1.40    1.00
   4  -8  -6    1.80    1.00
  -4   8   6    2.60    1.20
  -4   8   6    5.00    1.70
  -4   8   6    0.70    0.90
  -4   8   6    1.10    1.10
   3  -8  -6   13.00    1.70
   3  -8  -6   11.60    1.60
   3  -8  -6    9.30    1.60
  -3   8   6   10.20    1.80
  -3   8   6   12.20    2.10
  -3   8   6    8.00    2.10
   2  -8  -6   -0.90    0.60
   2  -8  -6    0.30    0.70
   2  -8  -6    0.40    0.70
  -2   8   6    1.00    1.20
  -2   8   6    2.00    1.20
  -2   8   6    3.00    1.20
   1  -8  -6    2.40    0.90
   1  -8  -6    1.60    1.00
   1  -8  -6    3.20    0.90
  -1   8   6    3.60    1.50
  -1   8   6    4.60    1.50
  -1   8   6    3.00    1.50
   0  -8  -6    3.80    0.90
   0  -8  -6    4.70    1.20
   0  -8  -6    2.40    1.10
   0   8   6    4.00    1.40
   0   8   6    5.00    1.80
  -1  -8  -6    0.40    0.80
  -1  -8  -6    1.40    1.00
  -1  -8  -6    1.10    0.70
   1   8   6    2.60    1.50
   1   8   6   -0.10    1.50
   1   8   6   -0.90    1.40
  -2  -8  -6    0.90    0.90
  -2  -8  -6   -0.30    1.20
  -2  -8  -6    0.90    0.90
   2   8   6    0.90    1.60
   2   8   6    0.30    1.50
  -3  -8  -6    1.60    1.60
   3   8   6    1.80    1.90
   3   8   6   -1.30    1.50
   5  -9  -6    0.50    1.00
   5  -9  -6   -0.10    1.10
   5  -9  -6   -1.50    1.10
  -5   9   6    1.70    1.60
  -5   9   6    0.30    1.50
  -5   9   6    0.40    1.50
   4  -9  -6   -0.40    0.70
   4  -9  -6    0.00    0.70
  -4   9   6    0.60    1.70
   3  -9  -6    0.40    0.90
   3  -9  -6   -0.20    1.00
  -3   9   6   -0.10    1.00
  -3   9   6    1.20    1.40
  -3   9   6   -0.20    1.50
   2  -9  -6    7.30    1.40
   2  -9  -6    8.50    1.50
   2  -9  -6    7.40    1.40
  -2   9   6    7.60    1.80
  -2   9   6   10.80    2.50
  -2   9   6   10.20    2.40
   1  -9  -6    3.30    1.00
   1  -9  -6    2.00    0.90
   1  -9  -6    4.00    1.40
  -1   9   6    2.20    1.50
   0  -9  -6    4.90    1.20
   0  -9  -6    6.40    1.60
   0  -9  -6    9.10    1.50
   0   9   6    3.30    1.60
  -1  -9  -6    4.30    1.70
  -1  -9  -6    1.90    1.40
   1   9   6    6.60    2.20
  -2  -9  -6   -0.30    1.40
   2   9   6    1.50    1.80
   2   9   6    2.30    1.90
   3 -10  -6    1.70    1.00
   3 -10  -6    3.30    1.40
  -3  10   6   -0.60    1.70
   2 -10  -6    6.90    1.80
   2 -10  -6    7.40    1.50
  -2  10   6    7.70    2.10
  -2  10   6    6.40    2.20
   1 -10  -6   37.30    3.60
   1 -10  -6   39.30    2.90
  -1  10   6   33.00    3.70
   0 -10  -6    6.00    1.90
   0  10   6    9.90    2.30
   2  12  -7    0.00    1.60
  -2 -12   7    0.90    1.30
  -2 -12   7   -1.70    1.20
   1  12  -7    1.00    1.20
   1  12  -7    0.00    1.60
  -1 -12   7   -0.20    1.30
  -1 -12   7   -0.20    1.30
   0  12  -7    2.20    1.40
   0  12  -7   -1.50    1.40
   0 -12   7   -0.40    1.00
   0 -12   7    1.50    1.30
  -1  12  -7    0.80    1.60
  -1  12  -7   -1.80    1.60
   1 -12   7    1.20    1.20
  -2  12  -7    4.20    2.20
  -2  12  -7    9.60    2.20
   2 -12   7    7.20    1.80
   4  11  -7    2.40    1.70
   4  11  -7    0.80    1.50
   4  11  -7    1.20    1.30
  -4 -11   7    1.60    1.30
  -4 -11   7    0.40    1.60
  -4 -11   7   -1.60    1.40
  -4 -11   7    0.40    1.50
   3  11  -7   10.80    2.20
   3  11  -7    6.00    1.90
   3  11  -7    5.50    1.60
  -3 -11   7    3.60    1.50
  -3 -11   7    3.90    1.70
  -3 -11   7    8.30    2.20
  -3 -11   7    4.80    1.50
   2  11  -7    6.90    1.70
   2  11  -7    3.20    1.50
   2  11  -7    3.50    1.40
  -2 -11   7    4.70    1.60
  -2 -11   7    3.10    1.50
  -2 -11   7    4.50    1.60
  -2 -11   7    4.30    1.50
   1  11  -7   22.30    2.70
   1  11  -7   13.80    2.50
  -1 -11   7   13.90    2.40
  -1 -11   7   15.20    2.40
  -1 -11   7   16.40    2.40
   0  11  -7    4.50    1.90
   0  11  -7    6.50    1.60
   0 -11   7    4.40    1.40
   0 -11   7    4.90    1.60
   0 -11   7    3.60    1.40
  -1  11  -7    1.70    1.30
  -1  11  -7    2.30    1.60
   1 -11   7   -0.90    1.00
   1 -11   7   -0.30    0.90
  -2  11  -7   -0.30    1.40
  -2  11  -7   -1.30    1.40
   2 -11   7   -0.40    1.10
   2 -11   7   -0.90    0.90
  -3  11  -7    0.60    1.50
  -3  11  -7    0.60    1.10
   3 -11   7    1.00    1.10
  -4  11  -7    0.90    1.60
  -4  11  -7    2.00    1.80
  -4  11  -7    0.90    1.40
   4 -11   7    1.00    1.10
   5  10  -7   24.40    3.00
   5  10  -7   16.60    2.60
   5  10  -7   17.40    3.00
  -5 -10   7   18.70    3.10
  -5 -10   7   19.30    3.20
  -5 -10   7   20.50    3.30
  -5 -10   7   18.00    2.60
   4  10  -7   -0.10    1.20
   4  10  -7    2.10    1.30
  -4 -10   7    1.60    1.60
  -4 -10   7    0.20    1.40
  -4 -10   7    4.90    1.60
  -4 -10   7    0.90    1.10
  -4 -10   7    2.90    1.80
   3  10  -7    2.90    1.50
   3  10  -7    2.30    1.30
   3  10  -7    1.70    1.40
  -3 -10   7    1.10    1.20
  -3 -10   7    0.70    1.20
  -3 -10   7    3.40    1.50
  -3 -10   7    4.80    1.40
  -3 -10   7    1.80    1.30
   2  10  -7   -0.10    0.80
   2  10  -7    0.70    0.80
   2  10  -7   -0.30    0.90
   2  10  -7    0.20    1.10
  -2 -10   7   -0.20    1.00
  -2 -10   7    1.30    0.80
  -2 -10   7    0.20    0.80
  -2 -10   7    0.10    1.10
  -2 -10   7   -1.20    0.90
   1  10  -7    2.50    1.30
   1  10  -7    1.50    1.10
  -1 -10   7    1.00    1.20
  -1 -10   7    4.30    1.40
  -1 -10   7    2.70    1.40
  -1 -10   7    1.50    1.10
   0  10  -7    1.30    1.20
   0  10  -7   -0.30    0.70
   0 -10   7    1.50    0.90
   0 -10   7    2.40    1.20
   0 -10   7    1.70    1.10
  -1  10  -7    2.50    1.20
  -1  10  -7    1.80    1.10
   1 -10   7    1.60    0.90
   1 -10   7    2.90    1.20
   1 -10   7    2.50    1.10
  -2  10  -7    7.60    1.90
  -2  10  -7   10.50    1.90
  -2  10  -7    5.40    1.60
   2 -10   7    8.50    1.60
   2 -10   7    8.20    1.60
   2 -10   7    9.70    1.70
  -3  10  -7    0.80    1.40
  -3  10  -7   -1.00    1.20
  -3  10  -7    0.00    1.00
   3 -10   7    1.00    0.90
   3 -10   7    0.30    0.90
  -4  10  -7    4.80    1.90
  -4  10  -7    3.30    1.60
  -4  10  -7    5.10    2.00
   4 -10   7    7.50    1.80
  -5  10  -7   -0.10    1.40
  -5  10  -7    1.70    2.00
   5 -10   7    1.50    1.30
   6   9  -7    2.00    1.80
   6   9  -7    2.30    1.50
   6   9  -7    0.80    1.40
  -6  -9   7    0.80    1.30
  -6  -9   7    0.60    1.60
  -6  -9   7    3.60    1.60
  -6  -9   7    1.00    1.20
   5   9  -7    0.20    1.10
   5   9  -7   -0.80    0.90
  -5  -9   7    2.70    1.70
  -5  -9   7    1.40    1.50
  -5  -9   7    0.80    1.20
  -5  -9   7   -0.40    1.40
  -5  -9   7    0.20    1.00
   4   9  -7    4.60    1.30
   4   9  -7    0.40    0.80
   4   9  -7    2.10    1.00
  -4  -9   7    2.30    0.90
  -4  -9   7    1.40    1.30
  -4  -9   7    2.20    1.40
  -4  -9   7    1.50    1.40
  -4  -9   7    2.00    1.10
  -4  -9   7    2.20    1.40
   3   9  -7   -0.30    0.60
   3   9  -7    0.10    0.60
   3   9  -7    0.30    0.90
   3   9  -7    1.70    1.10
  -3  -9   7   -0.70    0.80
  -3  -9   7   -0.10    1.00
  -3  -9   7   -0.80    0.50
  -3  -9   7   -0.30    0.70
  -3  -9   7    0.90    0.90
  -3  -9   7    0.50    1.10
   2   9  -7   -0.20    1.00
   2   9  -7    0.30    0.80
   2   9  -7    1.00    0.80
   2   9  -7    1.00    0.90
  -2  -9   7   -0.30    0.80
  -2  -9   7    0.10    0.90
  -2  -9   7   -0.20    0.60
  -2  -9   7    0.10    0.90
  -2  -9   7   -0.40    0.60
  -2  -9   7    0.20    0.90
   1   9  -7   -0.90    0.80
   1   9  -7    2.50    0.90
   1   9  -7    1.30    0.80
   1   9  -7    0.50    0.80
  -1  -9   7    1.60    1.00
  -1  -9   7    1.30    0.90
  -1  -9   7    2.30    1.00
  -1  -9   7    1.20    0.70
  -1  -9   7    2.50    0.90
  -1  -9   7    2.30    1.00
   0   9  -7    7.70    1.60
   0   9  -7    8.50    1.70
   0  -9   7    5.60    1.40
   0  -9   7    6.90    1.40
   0  -9   7    9.40    1.60
  -1   9  -7    3.40    1.30
  -1   9  -7    2.50    1.30
  -1   9  -7    3.70    1.10
   1  -9   7    7.50    1.30
   1  -9   7    4.70    1.20
   1  -9   7    4.90    1.30
  -2   9  -7   56.59    4.00
  -2   9  -7   54.19    4.10
  -2   9  -7   55.29    3.70
   2  -9   7   64.79    3.90
   2  -9   7   63.39    3.90
   2  -9   7   60.59    3.60
  -3   9  -7   10.00    1.90
  -3   9  -7   10.60    2.10
  -3   9  -7    5.50    1.70
   3  -9   7    7.30    1.40
   3  -9   7   10.20    1.80
   3  -9   7    8.70    1.50
  -4   9  -7    6.10    1.90
  -4   9  -7    1.00    1.30
  -4   9  -7    0.90    1.30
   4  -9   7    5.70    1.30
   4  -9   7    4.40    1.90
   4  -9   7    6.20    1.50
  -5   9  -7   10.40    2.30
  -5   9  -7   14.20    2.50
   5  -9   7   10.70    2.00
  -6   9  -7   11.20    2.60
  -6   9  -7    6.70    2.20
   7   8  -7   -0.90    1.10
   7   8  -7    0.50    1.50
   7   8  -7    1.30    1.40
  -7  -8   7    0.40    1.80
  -7  -8   7   -2.00    1.30
  -7  -8   7    0.10    1.80
  -7  -8   7   -0.30    0.70
   6   8  -7    3.40    1.70
   6   8  -7    3.10    1.50
   6   8  -7    0.80    1.20
  -6  -8   7    3.60    1.80
  -6  -8   7    1.20    1.20
  -6  -8   7    3.80    1.60
  -6  -8   7    4.40    1.90
   5   8  -7    0.10    0.90
   5   8  -7   -0.10    0.70
   5   8  -7   -0.30    0.90
  -5  -8   7    1.50    1.00
  -5  -8   7   -0.20    0.80
  -5  -8   7   -1.30    1.10
  -5  -8   7    1.50    1.40
  -5  -8   7   -0.30    1.10
  -5  -8   7   -1.00    0.70
   4   8  -7    9.50    1.70
   4   8  -7    6.20    1.50
   4   8  -7    8.30    1.70
   4   8  -7    9.20    1.40
  -4  -8   7    7.80    1.60
  -4  -8   7    7.70    1.80
  -4  -8   7    9.50    1.60
  -4  -8   7    7.20    1.60
  -4  -8   7    6.40    1.50
  -4  -8   7   11.00    2.10
   3   8  -7    3.20    1.10
   3   8  -7    4.80    1.20
   3   8  -7    4.50    1.20
   3   8  -7    3.80    1.10
  -3  -8   7    2.00    1.30
  -3  -8   7    2.70    1.20
  -3  -8   7    1.50    0.90
  -3  -8   7    3.90    1.40
  -3  -8   7    3.70    1.20
  -3  -8   7    4.80    1.10
   2   8  -7   15.30    1.90
   2   8  -7   12.40    1.80
   2   8  -7   15.10    1.90
   2   8  -7   12.90    1.90
  -2  -8   7   12.90    2.00
  -2  -8   7   13.50    1.90
  -2  -8   7   12.20    1.90
  -2  -8   7   11.40    1.80
  -2  -8   7   13.90    1.80
  -2  -8   7   13.10    1.80
   1   8  -7   27.70    2.30
   1   8  -7   27.40    2.50
   1   8  -7   23.80    2.40
   1   8  -7   29.40    2.30
  -1  -8   7   27.40    2.40
  -1  -8   7   25.50    2.50
  -1  -8   7   26.50    2.30
  -1  -8   7   27.30    2.10
  -1  -8   7   25.50    2.50
  -1  -8   7   29.00    2.20
   0   8  -7   37.60    2.60
   0   8  -7   37.60    3.00
   0   8  -7   42.20    2.90
   0  -8   7   41.40    2.80
   0  -8   7   44.30    2.90
   0  -8   7   42.00    2.80
   0  -8   7   41.40    2.90
  -1   8  -7   29.90    2.30
  -1   8  -7   31.40    2.60
  -1   8  -7   27.30    2.80
   1  -8   7   34.90    2.50
   1  -8   7   33.90    2.40
   1  -8   7   32.90    2.50
  -2   8  -7   11.00    1.70
  -2   8  -7    9.20    1.70
  -2   8  -7    8.00    1.60
   2  -8   7   11.40    1.60
   2  -8   7   13.70    1.60
   2  -8   7    9.30    1.50
  -3   8  -7    7.50    1.80
  -3   8  -7    9.20    1.80
  -3   8  -7    8.20    1.60
   3  -8   7   11.50    1.80
   3  -8   7    9.70    1.50
   3  -8   7    9.50    1.50
  -4   8  -7   16.20    2.50
  -4   8  -7   16.20    2.50
   4  -8   7   17.70    2.20
   4  -8   7   15.30    2.10
   4  -8   7   17.00    2.10
   4  -8   7   17.60    2.00
  -5   8  -7    7.10    1.70
  -5   8  -7    7.50    1.50
  -5   8  -7    6.00    1.90
  -5   8  -7    7.40    2.00
  -5   8  -7    7.30    1.80
   5  -8   7    8.00    1.60
   5  -8   7    9.10    1.70
   5  -8   7    7.80    1.50
   5  -8   7   10.50    1.90
  -6   8  -7    0.60    1.30
  -6   8  -7    0.30    1.50
  -6   8  -7   -1.80    1.00
  -6   8  -7    0.50    1.70
   6  -8   7    0.60    1.20
   6  -8   7    1.30    1.10
   7   7  -7    0.70    1.40
   7   7  -7    0.50    1.10
   7   7  -7    1.10    1.00
  -7  -7   7   -0.20    0.90
  -7  -7   7    0.70    1.10
  -7  -7   7    0.30    1.70
  -7  -7   7   -2.40    1.40
   6   7  -7   -0.60    0.70
   6   7  -7    0.90    1.00
   6   7  -7    0.90    1.10
  -6  -7   7    0.40    0.90
  -6  -7   7    0.90    1.30
  -6  -7   7    0.70    1.40
  -6  -7   7   -1.20    0.80
  -6  -7   7   -0.20    1.00
   5   7  -7   16.80    2.10
   5   7  -7   12.00    2.10
   5   7  -7   16.10    2.20
   5   7  -7   13.60    2.00
  -5  -7   7   10.70    1.80
  -5  -7   7   10.10    2.10
  -5  -7   7   13.00    2.00
  -5  -7   7   16.40    2.60
  -5  -7   7   15.20    2.40
  -5  -7   7   10.90    2.10
   4   7  -7    1.90    0.90
   4   7  -7    1.20    0.80
   4   7  -7   -0.20    0.70
   4   7  -7   -0.50    0.80
  -4  -7   7   -0.10    0.50
  -4  -7   7    0.00    0.70
  -4  -7   7    0.70    0.90
  -4  -7   7   -1.10    0.80
  -4  -7   7    0.10    0.90
  -4  -7   7    0.00    0.80
   3   7  -7   14.90    1.90
   3   7  -7   18.00    1.80
   3   7  -7   24.20    2.40
   3   7  -7   18.00    2.20
  -3  -7   7   16.20    2.10
  -3  -7   7   12.30    1.90
  -3  -7   7   16.60    2.00
  -3  -7   7   14.60    2.00
  -3  -7   7   20.60    2.10
  -3  -7   7   14.20    2.10
   2   7  -7   39.00    2.50
   2   7  -7   35.90    2.70
   2   7  -7   36.50    2.70
   2   7  -7   41.90    2.80
  -2  -7   7   34.80    2.60
  -2  -7   7   32.80    2.60
  -2  -7   7   38.20    2.60
  -2  -7   7   31.60    2.60
  -2  -7   7   33.30    2.60
  -2  -7   7   36.80    2.40
   1   7  -7   43.80    2.90
   1   7  -7   42.60    2.50
   1   7  -7   40.90    2.70
   1   7  -7   44.80    2.90
   1   7  -7   42.50    2.80
  -1  -7   7   41.70    2.60
  -1  -7   7   38.60    2.80
  -1  -7   7   43.80    2.80
  -1  -7   7   40.50    2.60
  -1  -7   7   44.20    2.90
  -1  -7   7   38.00    2.70
   0   7  -7    4.10    1.10
   0   7  -7    4.10    1.10
   0   7  -7    3.70    0.90
   0   7  -7    5.10    1.00
   0   7  -7    3.00    0.90
   0  -7   7    3.10    0.80
   0  -7   7    4.10    1.00
   0  -7   7    3.50    0.90
   0  -7   7    2.90    0.80
   0  -7   7    4.10    1.00
   0  -7   7    5.50    1.00
  -1   7  -7   52.99    3.20
  -1   7  -7   51.59    3.30
  -1   7  -7   50.49    3.40
   1  -7   7   54.79    3.20
   1  -7   7   54.79    3.20
   1  -7   7   61.79    3.30
   1  -7   7   58.19    3.20
  -2   7  -7   20.90    2.20
  -2   7  -7   23.20    2.50
  -2   7  -7   18.50    2.30
   2  -7   7   19.00    2.00
   2  -7   7   23.70    1.90
   2  -7   7   24.10    1.90
  -3   7  -7   -0.40    0.90
  -3   7  -7    1.50    0.90
  -3   7  -7    0.50    0.70
  -3   7  -7   -0.90    0.90
  -3   7  -7   -0.90    0.60
   3  -7   7    0.20    0.80
   3  -7   7    1.10    0.70
   3  -7   7    0.40    0.70
   3  -7   7    0.60    0.60
  -4   7  -7    1.60    0.90
  -4   7  -7    1.30    1.00
  -4   7  -7    2.30    1.20
  -4   7  -7    0.00    1.00
  -4   7  -7    1.00    1.30
   4  -7   7    2.30    1.10
   4  -7   7    1.80    1.10
   4  -7   7    0.80    0.90
   4  -7   7    1.80    1.00
  -5   7  -7    3.50    1.60
  -5   7  -7    3.80    1.30
  -5   7  -7    3.20    1.20
  -5   7  -7    4.20    1.40
  -5   7  -7    4.40    1.60
   5  -7   7    6.30    1.70
   5  -7   7    6.20    1.30
   5  -7   7    3.60    1.20
   5  -7   7    2.30    1.20
  -6   7  -7   -0.60    1.20
  -6   7  -7    3.10    1.50
  -6   7  -7    0.40    1.00
  -6   7  -7    2.20    1.50
   6  -7   7    2.00    1.20
   6  -7   7    4.10    1.40
   6  -7   7    1.30    1.30
   8   6  -7    0.30    1.50
   8   6  -7    2.10    1.40
  -8  -6   7    0.60    1.20
  -8  -6   7   -0.10    1.10
  -8  -6   7    0.30    1.90
   7   6  -7    4.90    1.80
   7   6  -7    4.60    1.50
   7   6  -7    1.40    1.20
  -7  -6   7    4.80    2.10
  -7  -6   7    3.10    1.20
  -7  -6   7    5.20    1.90
  -7  -6   7    3.90    1.40
  -7  -6   7    5.70    1.70
   6   6  -7   23.90    2.80
   6   6  -7   31.00    2.90
   6   6  -7   22.20    2.70
  -6  -6   7   26.40    3.30
  -6  -6   7   24.40    2.50
  -6  -6   7   16.70    2.60
  -6  -6   7   23.50    2.60
  -6  -6   7   24.30    3.10
  -6  -6   7   23.30    2.60
   5   6  -7   47.50    3.60
   5   6  -7   51.59    3.40
   5   6  -7   56.39    3.20
   5   6  -7   51.59    3.60
  -5  -6   7   45.90    3.60
  -5  -6   7   54.09    3.50
  -5  -6   7   47.20    3.70
  -5  -6   7   47.60    3.60
  -5  -6   7   51.69    3.50
   4   6  -7   55.79    3.70
   4   6  -7   59.99    3.40
   4   6  -7   63.19    4.10
   4   6  -7   64.29    3.70
  -4  -6   7   57.79    3.60
  -4  -6   7   60.99    4.00
  -4  -6   7   63.59    4.00
  -4  -6   7   64.49    4.00
  -4  -6   7   63.99    4.10
  -4  -6   7   54.09    3.70
   3   6  -7   78.89    4.60
   3   6  -7   92.59    4.30
   3   6  -7   86.39    4.40
   3   6  -7   75.49    4.40
  -3  -6   7   75.29    4.40
  -3  -6   7   72.89    4.40
  -3  -6   7   81.59    4.40
  -3  -6   7   75.29    4.50
  -3  -6   7   81.19    4.30
  -3  -6   7   77.29    4.40
   2   6  -7   28.40    2.30
   2   6  -7   30.70    2.50
   2   6  -7   37.10    2.20
   2   6  -7   31.90    1.90
  -2  -6   7   32.00    2.40
  -2  -6   7   31.60    2.30
  -2  -6   7   32.30    2.40
  -2  -6   7   30.00    2.30
  -2  -6   7   32.70    2.20
  -2  -6   7   31.10    2.30
   1   6  -7   -0.30    0.50
   1   6  -7    0.30    0.50
   1   6  -7   -0.60    0.50
   1   6  -7    0.30    0.60
  -1  -6   7    0.30    0.50
  -1  -6   7    0.50    0.50
  -1  -6   7    0.10    0.50
  -1  -6   7   -0.30    0.50
  -1  -6   7   -0.10    0.40
  -1  -6   7   -0.10    0.50
   0   6  -7   56.59    3.20
   0   6  -7   57.99    3.20
   0   6  -7   61.09    3.40
   0   6  -7   54.79    3.30
   0  -6   7   60.19    3.10
   0  -6   7   54.39    3.10
   0  -6   7   63.69    3.20
   0  -6   7   57.59    3.20
   0  -6   7   56.19    3.30
   0  -6   7   58.19    3.10
  -1   6  -7    3.50    1.00
  -1   6  -7    3.30    0.90
  -1   6  -7    3.40    0.90
   1  -6   7    2.20    0.70
   1  -6   7    4.50    0.90
   1  -6   7    3.40    0.80
   1  -6   7    3.30    0.80
  -2   6  -7   -0.20    0.50
  -2   6  -7   -0.50    0.60
  -2   6  -7   -0.30    0.40
  -2   6  -7   -0.60    0.50
  -2   6  -7   -0.10    0.70
   2  -6   7    0.00    0.50
   2  -6   7   -0.50    0.50
   2  -6   7    0.10    0.50
   2  -6   7   -0.40    0.60
  -3   6  -7    3.20    1.10
  -3   6  -7    5.70    1.20
  -3   6  -7    2.40    1.10
  -3   6  -7    3.60    1.20
  -3   6  -7    5.80    1.20
  -3   6  -7    3.40    0.90
   3  -6   7    4.80    1.00
   3  -6   7    4.80    1.00
   3  -6   7    4.20    1.00
   3  -6   7    4.60    1.00
  -4   6  -7    0.30    0.90
  -4   6  -7    0.40    0.90
  -4   6  -7    0.00    0.60
  -4   6  -7    0.60    0.80
  -4   6  -7   -0.60    0.60
   4  -6   7   -0.20    0.70
   4  -6   7    0.60    0.90
   4  -6   7    1.70    1.10
   4  -6   7   -0.60    0.80
  -5   6  -7    3.90    1.30
  -5   6  -7    5.30    1.60
  -5   6  -7    1.40    1.20
  -5   6  -7    5.50    1.70
  -5   6  -7    2.20    1.10
   5  -6   7    4.50    1.30
   5  -6   7    1.80    1.10
   5  -6   7    5.60    1.50
   5  -6   7    3.90    1.30
  -6   6  -7   -0.90    1.30
  -6   6  -7    0.70    1.40
  -6   6  -7    1.50    1.40
  -6   6  -7    0.60    1.10
  -6   6  -7    0.20    1.40
   6  -6   7   -0.70    1.10
   6  -6   7   -1.60    1.00
   6  -6   7    2.50    1.30
  -7   6  -7    0.10    1.40
  -7   6  -7   -0.10    1.50
  -7   6  -7    0.70    1.40
   7  -6   7   -0.20    1.40
   7  -6   7   -0.20    1.30
   7  -6   7   -1.20    1.30
   8   5  -7    7.60    2.00
   8   5  -7   10.60    1.90
   8   5  -7    6.90    1.80
  -8  -5   7    5.40    1.80
  -8  -5   7    8.20    1.80
  -8  -5   7    9.90    1.90
  -8  -5   7    8.40    2.50
   7   5  -7   32.20    3.40
   7   5  -7   33.50    3.20
   7   5  -7   31.10    3.40
  -7  -5   7   31.60    3.10
  -7  -5   7   37.50    2.90
  -7  -5   7   31.60    3.20
  -7  -5   7   26.00    3.20
  -7  -5   7   35.70    3.90
   6   5  -7    1.30    1.10
   6   5  -7    2.00    0.90
   6   5  -7    1.40    1.00
   6   5  -7    1.30    1.10
  -6  -5   7    2.80    1.40
  -6  -5   7    2.30    1.30
  -6  -5   7    0.80    0.70
  -6  -5   7    1.10    0.80
  -6  -5   7    0.50    1.10
  -6  -5   7    2.90    1.20
   5   5  -7    1.40    1.00
   5   5  -7    2.40    0.90
   5   5  -7    0.90    0.80
   5   5  -7    1.70    1.00
  -5  -5   7    1.40    0.90
  -5  -5   7    0.30    0.80
  -5  -5   7    0.40    0.80
  -5  -5   7    0.00    0.70
  -5  -5   7    0.80    0.70
  -5  -5   7    1.20    0.70
   4   5  -7    3.10    0.80
   4   5  -7    0.90    0.60
   4   5  -7    1.90    0.90
  -4  -5   7    0.70    0.70
  -4  -5   7    1.40    0.90
  -4  -5   7    1.70    0.70
  -4  -5   7    1.40    0.70
  -4  -5   7    1.50    0.90
  -4  -5   7    2.40    0.90
  -4  -5   7    1.70    0.70
   3   5  -7    5.40    0.80
   3   5  -7    6.40    1.10
   3   5  -7    5.00    1.20
   3   5  -7    4.50    0.90
  -3  -5   7    6.40    1.20
  -3  -5   7    4.50    1.00
  -3  -5   7    6.20    1.10
  -3  -5   7    3.10    0.80
  -3  -5   7    3.40    1.00
  -3  -5   7    6.70    1.10
  -3  -5   7    4.90    1.00
   2   5  -7    0.50    0.60
   2   5  -7    2.00    0.60
   2   5  -7    1.20    0.70
   2   5  -7    1.30    0.60
  -2  -5   7    1.80    0.70
  -2  -5   7    1.90    0.70
  -2  -5   7    2.50    0.80
  -2  -5   7    1.40    0.60
  -2  -5   7    1.50    0.70
  -2  -5   7    1.20    0.70
   1   5  -7   18.40    1.80
   1   5  -7   17.70    1.50
   1   5  -7   15.60    1.80
   1   5  -7   18.40    1.40
  -1  -5   7   15.90    1.40
  -1  -5   7   16.80    1.50
  -1  -5   7   17.80    1.80
  -1  -5   7   17.90    1.40
  -1  -5   7   17.90    1.70
  -1  -5   7   16.70    1.60
   0   5  -7   56.89    3.30
   0   5  -7   63.89    3.30
   0   5  -7   57.59    3.30
   0   5  -7   60.09    3.30
   0  -5   7   64.79    3.30
   0  -5   7   62.49    3.40
   0  -5   7   62.29    3.20
   0  -5   7   63.49    3.20
   0  -5   7   59.99    3.10
   0  -5   7   59.39    3.10
  -1   5  -7    3.70    0.90
  -1   5  -7    4.90    0.80
  -1   5  -7    4.10    0.80
  -1   5  -7    3.90    1.00
  -1   5  -7    3.60    0.80
  -1   5  -7    2.60    0.60
   1  -5   7    3.90    0.80
   1  -5   7    3.00    0.80
   1  -5   7    5.00    0.80
   1  -5   7    3.40    0.80
   1  -5   7    3.80    0.70
   1  -5   7    3.40    0.80
  -2   5  -7   -0.60    0.50
  -2   5  -7   -0.10    0.60
  -2   5  -7   -0.70    0.40
  -2   5  -7   -0.30    0.50
  -2   5  -7    0.20    0.60
  -2   5  -7   -0.20    0.60
   2  -5   7   -0.20    0.60
   2  -5   7   -0.40    0.50
   2  -5   7   -0.10    0.50
   2  -5   7   -0.30    0.50
   2  -5   7    0.30    0.60
  -3   5  -7    4.60    1.00
  -3   5  -7    0.70    0.70
  -3   5  -7    3.80    1.10
  -3   5  -7    2.70    1.00
  -3   5  -7    2.20    0.90
   3  -5   7    5.70    1.20
   3  -5   7    5.80    1.10
   3  -5   7    3.90    1.00
   3  -5   7    4.50    0.90
   3  -5   7    4.90    1.10
  -4   5  -7   11.50    1.70
  -4   5  -7   10.40    1.70
  -4   5  -7    9.90    1.80
  -4   5  -7   10.20    1.70
  -4   5  -7    9.40    1.50
   4  -5   7    9.80    1.70
   4  -5   7   10.00    1.50
   4  -5   7    8.80    1.60
   4  -5   7    8.90    1.50
  -5   5  -7   -0.30    0.80
  -5   5  -7    1.90    1.10
  -5   5  -7    0.60    1.10
  -5   5  -7    1.20    1.00
  -5   5  -7    0.90    1.00
   5  -5   7    0.20    1.10
   5  -5   7   -1.10    0.90
   5  -5   7    1.70    1.10
   5  -5   7    0.30    1.00
  -6   5  -7    0.80    1.30
  -6   5  -7    1.50    1.40
  -6   5  -7    0.10    0.90
  -6   5  -7    1.40    1.10
  -6   5  -7    2.20    1.40
   6  -5   7    1.30    1.30
   6  -5   7    2.20    1.40
   6  -5   7    1.60    1.30
   6  -5   7    2.40    1.70
  -7   5  -7   -3.00    1.00
  -7   5  -7   -0.10    1.40
  -7   5  -7    1.40    1.40
   7  -5   7    0.90    1.50
   7  -5   7   -0.30    1.20
   7  -5   7   -0.90    1.00
   8   4  -7    2.60    1.50
   8   4  -7    0.90    1.30
   8   4  -7    2.40    1.30
  -8  -4   7    0.00    1.20
  -8  -4   7    0.40    1.20
  -8  -4   7   -1.10    0.90
  -8  -4   7    1.80    1.70
   7   4  -7    2.30    1.30
   7   4  -7    0.60    0.90
   7   4  -7    1.00    1.10
   7   4  -7    1.10    1.00
  -7  -4   7    1.90    1.20
  -7  -4   7    3.30    1.60
  -7  -4   7   -0.60    1.00
  -7  -4   7    2.80    1.10
  -7  -4   7   -0.20    0.80
  -7  -4   7    2.10    1.20
   6   4  -7    2.60    1.00
   6   4  -7    2.30    1.20
   6   4  -7    1.00    1.00
   6   4  -7    3.80    1.20
  -6  -4   7    4.50    1.20
  -6  -4   7    3.00    1.00
  -6  -4   7    1.40    1.10
  -6  -4   7    5.20    1.30
  -6  -4   7    4.20    1.20
  -6  -4   7    4.00    1.20
   5   4  -7    4.70    1.10
   5   4  -7    5.60    1.40
   5   4  -7    5.40    1.20
   5   4  -7    5.20    1.00
  -5  -4   7    2.50    1.10
  -5  -4   7    4.30    1.10
  -5  -4   7    4.00    1.20
  -5  -4   7    4.80    1.10
  -5  -4   7    3.40    0.90
  -5  -4   7    4.90    1.20
  -5  -4   7    5.20    1.10
   4   4  -7    2.10    0.90
   4   4  -7    1.60    0.60
   4   4  -7    0.10    0.70
   4   4  -7    0.30    0.50
  -4  -4   7    1.10    0.80
  -4  -4   7    0.90    0.60
  -4  -4   7    0.90    0.80
  -4  -4   7    0.20    0.70
  -4  -4   7    1.20    0.70
  -4  -4   7    0.50    0.50
   3   4  -7   33.50    2.50
   3   4  -7   30.10    2.20
   3   4  -7   32.70    1.90
   3   4  -7   33.70    2.20
  -3  -4   7   31.90    2.30
  -3  -4   7   35.80    2.40
  -3  -4   7   32.40    2.20
  -3  -4   7   26.60    2.00
  -3  -4   7   30.00    2.20
  -3  -4   7   27.50    2.20
  -3  -4   7   31.50    2.20
   2   4  -7    7.80    1.00
   2   4  -7    9.10    1.20
   2   4  -7    7.90    1.10
  -2  -4   7    7.80    1.10
  -2  -4   7    9.40    1.10
  -2  -4   7    8.70    1.20
  -2  -4   7    8.40    1.10
  -2  -4   7    8.20    1.20
  -2  -4   7    6.80    1.10
  -2  -4   7    7.70    1.20
   1   4  -7    3.10    0.50
   1   4  -7    2.80    0.70
   1   4  -7    2.40    0.70
   1   4  -7    4.50    0.70
   1   4  -7    4.00    0.50
  -1  -4   7    2.90    0.70
  -1  -4   7    3.60    0.80
  -1  -4   7    4.40    0.80
  -1  -4   7    4.60    0.70
  -1  -4   7    4.50    0.90
  -1  -4   7    3.70    0.80
  -1  -4   7    5.00    0.80
   0   4  -7    1.50    0.50
   0   4  -7    2.50    0.50
   0   4  -7    2.00    0.60
   0   4  -7    1.70    0.60
   0   4  -7    1.70    0.50
   0  -4   7    1.70    0.60
   0  -4   7    3.10    0.60
   0  -4   7    1.40    0.50
   0  -4   7    0.80    0.50
   0  -4   7    1.10    0.50
   0  -4   7    2.00    0.60
  -1   4  -7   19.10    1.40
  -1   4  -7   19.10    1.60
  -1   4  -7   18.40    1.40
  -1   4  -7   19.30    1.60
  -1   4  -7   16.90    1.50
  -1   4  -7   20.10    1.40
   1  -4   7   19.20    1.50
   1  -4   7   22.30    1.50
   1  -4   7   20.30    1.50
   1  -4   7   22.00    1.50
   1  -4   7   20.50    1.60
   1  -4   7   20.30    1.60
   1  -4   7   19.00    1.30
  -2   4  -7    1.30    0.70
  -2   4  -7    1.80    0.70
  -2   4  -7    2.00    0.70
  -2   4  -7    4.50    1.00
  -2   4  -7    2.20    0.60
  -2   4  -7    1.30    0.70
   2  -4   7    3.10    0.90
   2  -4   7    1.50    0.70
   2  -4   7    1.10    0.70
   2  -4   7    1.90    0.60
  -3   4  -7    1.60    0.70
  -3   4  -7    1.80    0.80
  -3   4  -7    1.90    0.80
  -3   4  -7    1.20    0.70
  -3   4  -7    0.90    0.90
   3  -4   7    0.80    0.80
   3  -4   7    3.00    1.00
   3  -4   7    1.80    0.80
   3  -4   7    1.90    0.70
  -4   4  -7    0.80    0.90
  -4   4  -7    0.10    0.80
  -4   4  -7   -0.30    0.60
  -4   4  -7    0.50    0.60
  -4   4  -7    0.40    0.80
   4  -4   7    0.90    0.70
   4  -4   7    0.60    1.00
   4  -4   7    0.00    0.60
   4  -4   7   -0.10    0.60
  -5   4  -7    3.10    1.20
  -5   4  -7    2.30    1.20
  -5   4  -7    3.50    1.30
  -5   4  -7    1.70    1.00
  -5   4  -7    4.80    1.40
   5  -4   7    0.40    1.00
   5  -4   7    1.00    0.90
   5  -4   7    2.80    1.30
   5  -4   7    2.70    1.30
  -6   4  -7    0.80    1.00
  -6   4  -7   -1.00    1.10
  -6   4  -7   -0.80    1.00
  -6   4  -7   -0.70    1.10
   6  -4   7   -0.20    1.30
   6  -4   7   -0.80    1.10
   6  -4   7    1.80    1.50
   6  -4   7   -0.70    1.10
  -7   4  -7   -0.10    1.30
  -7   4  -7   -0.70    1.20
  -7   4  -7   -1.90    1.30
   7  -4   7    1.70    1.50
   7  -4   7    0.60    1.20
   7  -4   7   -0.50    1.40
   9   3  -7    2.50    1.40
  -9  -3   7    2.60    1.40
  -9  -3   7    1.70    1.30
  -9  -3   7   -1.30    1.40
   8   3  -7    1.40    1.10
   8   3  -7    1.00    1.00
   8   3  -7    2.00    1.40
   8   3  -7    0.80    1.10
  -8  -3   7   -1.00    1.10
  -8  -3   7    0.00    1.00
  -8  -3   7    1.00    1.20
  -8  -3   7   -0.60    0.90
  -8  -3   7   -0.70    0.90
   7   3  -7    3.80    1.20
   7   3  -7    4.10    1.40
   7   3  -7    3.00    1.30
   7   3  -7    5.90    1.60
  -7  -3   7    3.70    1.30
  -7  -3   7    3.30    1.50
  -7  -3   7    6.40    1.70
  -7  -3   7    4.30    1.40
  -7  -3   7    5.40    1.40
  -7  -3   7    6.20    1.40
   6   3  -7   14.80    2.10
   6   3  -7   15.20    1.90
   6   3  -7   11.60    1.90
   6   3  -7   11.30    1.60
  -6  -3   7   13.70    1.90
  -6  -3   7   14.70    2.00
  -6  -3   7   12.60    1.80
  -6  -3   7   15.10    2.00
  -6  -3   7   12.50    2.00
  -6  -3   7   12.20    1.70
  -6  -3   7   14.00    2.00
   5   3  -7    6.80    1.50
   5   3  -7    9.00    1.30
   5   3  -7    6.40    1.40
   5   3  -7    6.60    1.30
  -5  -3   7    4.10    1.20
  -5  -3   7    7.30    1.30
  -5  -3   7    6.80    1.40
  -5  -3   7    6.30    1.30
  -5  -3   7    5.40    1.30
  -5  -3   7    6.90    1.30
   4   3  -7   25.90    2.20
   4   3  -7   28.40    1.90
   4   3  -7   27.00    2.00
   4   3  -7   24.60    2.10
  -4  -3   7   26.60    2.20
  -4  -3   7   28.40    2.10
  -4  -3   7   25.30    2.10
  -4  -3   7   23.20    2.00
  -4  -3   7   24.80    2.10
  -4  -3   7   24.40    2.00
  -4  -3   7   24.90    2.00
   3   3  -7    0.00    0.50
   3   3  -7    0.50    0.30
   3   3  -7    0.00    0.40
   3   3  -7    0.50    0.50
  -3  -3   7   -0.10    0.40
  -3  -3   7    0.60    0.40
  -3  -3   7    0.30    0.50
  -3  -3   7   -0.20    0.40
  -3  -3   7    0.50    0.50
  -3  -3   7   -0.10    0.40
  -3  -3   7   -0.10    0.40
  -3  -3   7    0.30    0.60
   2   3  -7   61.19    3.40
   2   3  -7   64.89    2.80
   2   3  -7   69.79    3.20
   2   3  -7   64.49    3.30
   2   3  -7   63.79    2.80
  -2  -3   7   60.69    3.40
  -2  -3   7   56.59    2.90
  -2  -3   7   61.09    3.40
  -2  -3   7   65.69    3.30
  -2  -3   7   56.89    3.20
  -2  -3   7   60.89    3.30
  -2  -3   7   62.09    3.10
   1   3  -7    0.00    0.30
   1   3  -7    0.50    0.40
   1   3  -7    0.00    0.30
   1   3  -7   -0.40    0.30
   1   3  -7   -0.10    0.50
  -1  -3   7   -0.70    0.40
  -1  -3   7   -0.10    0.30
  -1  -3   7    0.60    0.30
  -1  -3   7   -0.30    0.40
  -1  -3   7    0.10    0.30
  -1  -3   7    0.10    0.40
  -1  -3   7    1.10    0.50
   0   3  -7   63.39    3.00
   0   3  -7   61.89    3.20
   0   3  -7   61.89    3.00
   0   3  -7   64.09    3.20
   0   3  -7   60.99    3.20
   0  -3   7   60.39    3.30
   0  -3   7   66.19    3.10
   0  -3   7   65.89    3.30
   0  -3   7   61.89    3.20
   0  -3   7   59.79    3.20
   0  -3   7   69.89    3.20
   0  -3   7   62.99    3.00
  -1   3  -7    1.20    0.50
  -1   3  -7    1.10    0.60
  -1   3  -7    0.50    0.50
  -1   3  -7    0.80    0.50
  -1   3  -7    1.60    0.50
  -1   3  -7    0.60    0.50
   1  -3   7    0.70    0.60
   1  -3   7    0.60    0.60
   1  -3   7    0.60    0.50
   1  -3   7    0.50    0.40
   1  -3   7    1.20    0.50
   1  -3   7    0.40    0.40
  -2   3  -7   29.60    2.20
  -2   3  -7   29.40    2.10
  -2   3  -7   27.80    1.90
  -2   3  -7   33.80    2.10
  -2   3  -7   28.90    2.00
  -2   3  -7   29.70    2.00
   2  -3   7   29.30    1.80
   2  -3   7   31.40    2.20
   2  -3   7   34.30    2.20
   2  -3   7   31.00    2.20
   2  -3   7   29.70    2.20
  -3   3  -7    9.50    1.30
  -3   3  -7    7.10    1.30
  -3   3  -7    8.60    1.40
  -3   3  -7   10.10    1.40
  -3   3  -7   11.30    1.40
   3  -3   7    7.50    1.40
   3  -3   7    8.20    1.20
   3  -3   7    9.20    1.40
   3  -3   7    7.30    1.40
  -4   3  -7    1.10    0.90
  -4   3  -7    0.60    0.80
  -4   3  -7   -0.60    0.60
  -4   3  -7    0.20    0.80
  -4   3  -7   -0.20    0.60
   4  -3   7   -0.60    0.80
   4  -3   7   -0.30    0.60
   4  -3   7    0.20    0.70
   4  -3   7    1.20    0.90
  -5   3  -7    0.70    0.80
  -5   3  -7    4.60    1.30
  -5   3  -7    1.50    0.90
  -5   3  -7    1.70    1.00
   5  -3   7    1.20    1.00
   5  -3   7    1.60    1.20
   5  -3   7    0.50    1.20
   5  -3   7    1.90    1.20
  -6   3  -7   -1.20    1.10
  -6   3  -7    1.50    1.30
  -6   3  -7   -1.70    0.90
  -6   3  -7    0.40    0.90
   6  -3   7    2.20    1.50
   6  -3   7    1.00    1.40
   6  -3   7   -0.90    0.90
  -7   3  -7    3.10    1.40
  -7   3  -7    3.50    1.60
  -7   3  -7    2.20    1.50
   7  -3   7    0.60    1.50
   7  -3   7    3.50    1.80
   9   2  -7    3.20    1.70
  -9  -2   7    0.70    1.30
  -9  -2   7    0.80    1.30
   8   2  -7    2.10    1.30
   8   2  -7    5.20    1.40
   8   2  -7    2.20    1.40
   8   2  -7    1.60    1.20
  -8  -2   7    3.80    1.40
  -8  -2   7    1.70    1.30
  -8  -2   7    3.60    1.40
  -8  -2   7    1.80    1.20
  -8  -2   7    1.80    1.50
   7   2  -7    1.00    1.30
   7   2  -7    0.50    0.90
   7   2  -7   -0.70    0.90
   7   2  -7    0.70    1.00
  -7  -2   7    1.10    1.20
  -7  -2   7    0.40    0.90
  -7  -2   7    1.10    1.10
  -7  -2   7    1.40    1.10
  -7  -2   7    1.30    0.90
  -7  -2   7    0.80    1.10
   6   2  -7   -0.30    0.60
   6   2  -7    1.10    0.80
   6   2  -7    0.40    0.80
   6   2  -7   -0.60    1.00
  -6  -2   7    0.20    0.70
  -6  -2   7    0.50    0.80
  -6  -2   7   -0.80    0.80
  -6  -2   7    0.40    0.60
  -6  -2   7   -0.80    0.70
  -6  -2   7   -0.20    0.70
  -6  -2   7   -0.70    0.90
   5   2  -7    1.20    0.90
   5   2  -7    1.90    0.80
   5   2  -7    1.30    0.90
  -5  -2   7    2.40    1.10
  -5  -2   7    2.80    0.90
  -5  -2   7    3.70    1.00
  -5  -2   7    1.70    0.90
  -5  -2   7    0.80    1.00
  -5  -2   7    1.30    0.70
  -5  -2   7    1.40    0.90
   4   2  -7   13.10    1.20
   4   2  -7   11.00    1.10
   4   2  -7   10.70    1.40
   4   2  -7   10.80    1.30
   4   2  -7    8.70    1.50
  -4  -2   7   11.50    1.50
  -4  -2   7   10.50    1.50
  -4  -2   7    9.20    1.40
  -4  -2   7   11.00    1.40
  -4  -2   7    6.10    1.20
  -4  -2   7   10.10    1.30
   3   2  -7   19.40    1.30
   3   2  -7   22.40    1.80
   3   2  -7   21.50    1.60
   3   2  -7   23.50    1.40
   3   2  -7   21.30    2.20
  -3  -2   7   25.10    1.90
  -3  -2   7   23.70    1.80
  -3  -2   7   25.50    1.90
  -3  -2   7   21.00    1.70
  -3  -2   7   21.60    1.70
  -3  -2   7   19.80    1.50
  -3  -2   7   25.00    1.90
   2   2  -7   33.10    1.80
   2   2  -7   36.00    1.80
   2   2  -7   35.90    2.10
   2   2  -7   39.00    2.50
   2   2  -7   36.60    2.20
  -2  -2   7   32.70    2.00
  -2  -2   7   42.50    2.30
  -2  -2   7   30.90    1.70
  -2  -2   7   32.90    2.20
  -2  -2   7   31.80    1.90
  -2  -2   7   39.40    2.30
  -2  -2   7   30.50    2.20
  -2  -2   7   33.60    2.20
   1   2  -7   14.60    1.00
   1   2  -7   15.80    1.30
   1   2  -7   18.20    1.30
   1   2  -7   13.60    1.40
   1   2  -7   13.90    1.00
  -1  -2   7   15.10    1.50
  -1  -2   7   16.00    1.20
  -1  -2   7   17.10    1.60
  -1  -2   7   14.20    1.00
  -1  -2   7   15.70    1.30
  -1  -2   7   15.80    0.90
  -1  -2   7   15.70    1.20
   0   2  -7   56.19    2.90
   0   2  -7   51.39    2.70
   0   2  -7   49.60    2.80
   0   2  -7   55.79    2.60
   0   2  -7   54.99    2.70
   0   2  -7   55.69    2.80
   0  -2   7   53.49    2.70
   0  -2   7   56.79    3.00
   0  -2   7   52.29    2.90
   0  -2   7   50.89    2.80
   0  -2   7   53.19    2.70
   0  -2   7   55.69    2.60
   0  -2   7   55.29    3.00
  -1   2  -7   34.20    2.10
  -1   2  -7   37.00    2.20
  -1   2  -7   32.50    2.10
  -1   2  -7   32.70    1.90
  -1   2  -7   38.70    2.10
  -1   2  -7   36.50    2.10
   1  -2   7   39.00    2.30
   1  -2   7   37.20    2.20
   1  -2   7   35.50    2.20
   1  -2   7   34.40    2.30
   1  -2   7   39.60    2.20
   1  -2   7   36.40    2.20
  -2   2  -7    8.40    1.20
  -2   2  -7    7.80    1.10
  -2   2  -7    7.70    1.10
  -2   2  -7   10.30    1.20
  -2   2  -7    7.40    1.10
   2  -2   7    8.30    1.10
   2  -2   7    8.30    1.40
   2  -2   7    8.40    1.20
   2  -2   7    7.40    1.00
   2  -2   7    6.80    1.20
   2  -2   7    8.70    1.30
  -3   2  -7    5.50    1.10
  -3   2  -7    5.40    1.00
  -3   2  -7    4.90    1.00
  -3   2  -7    3.80    0.90
  -3   2  -7    7.00    1.20
   3  -2   7    5.60    1.20
   3  -2   7    6.00    1.20
   3  -2   7    6.00    1.30
   3  -2   7    5.60    1.20
  -4   2  -7   31.20    2.50
  -4   2  -7   32.10    2.40
  -4   2  -7   30.10    2.40
  -4   2  -7   33.80    2.50
  -4   2  -7   24.20    3.10
   4  -2   7   32.40    2.70
   4  -2   7   28.10    2.40
   4  -2   7   36.10    2.80
   4  -2   7   31.10    2.60
  -5   2  -7   17.00    2.20
  -5   2  -7   21.50    3.10
  -5   2  -7   17.50    2.20
  -5   2  -7   18.90    2.20
  -5   2  -7   18.40    2.30
  -5   2  -7   14.60    2.60
   5  -2   7   17.60    2.30
   5  -2   7   17.20    2.30
   5  -2   7   14.60    2.20
   5  -2   7   18.10    2.40
  -6   2  -7    4.10    1.90
  -6   2  -7    4.10    1.40
  -6   2  -7    3.30    1.40
  -6   2  -7    3.30    1.70
  -6   2  -7    2.70    1.20
  -6   2  -7    4.80    1.70
   6  -2   7    3.10    1.70
   6  -2   7    2.60    1.50
   6  -2   7    5.30    1.50
   6  -2   7    7.80    2.00
  -7   2  -7   -0.20    1.30
  -7   2  -7    0.80    1.40
  -7   2  -7   -0.30    1.30
   7  -2   7    2.40    1.70
   7  -2   7   -0.50    1.40
   9   1  -7   -0.50    1.60
   9   1  -7    0.60    1.40
  -9  -1   7   -0.30    1.40
  -9  -1   7    0.40    1.30
   8   1  -7    0.10    1.40
   8   1  -7   -0.90    1.20
   8   1  -7    1.10    1.00
   8   1  -7   -0.80    1.10
  -8  -1   7    0.70    1.20
  -8  -1   7    1.70    1.10
  -8  -1   7    0.60    1.30
  -8  -1   7    0.90    1.30
  -8  -1   7   -1.70    0.90
   7   1  -7    2.20    1.20
   7   1  -7    1.10    1.10
   7   1  -7    2.70    1.40
   7   1  -7    5.90    1.50
  -7  -1   7    4.80    1.50
  -7  -1   7    1.70    1.10
  -7  -1   7    4.00    1.30
  -7  -1   7    2.70    1.10
  -7  -1   7    2.10    1.10
  -7  -1   7    3.00    1.10
   6   1  -7   82.79    4.20
   6   1  -7   83.39    4.60
   6   1  -7   77.19    4.70
   6   1  -7   87.29    4.10
   6   1  -7   81.19    5.00
  -6  -1   7   73.79    4.60
  -6  -1   7   85.39    4.90
  -6  -1   7   82.49    4.30
  -6  -1   7   73.89    4.50
  -6  -1   7   76.89    4.40
  -6  -1   7   88.09    4.90
  -6  -1   7   79.89    4.70
   5   1  -7    4.90    1.00
   5   1  -7    3.00    1.10
   5   1  -7    5.60    1.40
   5   1  -7    7.00    1.00
   5   1  -7    5.20    1.20
  -5  -1   7    5.70    1.10
  -5  -1   7    4.40    1.00
  -5  -1   7    4.90    1.10
  -5  -1   7    7.00    1.40
  -5  -1   7    6.20    1.40
  -5  -1   7    9.70    1.40
  -5  -1   7    5.00    1.20
   4   1  -7  164.38    7.60
   4   1  -7  166.08    7.00
   4   1  -7  171.08    7.40
   4   1  -7  173.78    7.00
   4   1  -7  167.38    7.90
  -4  -1   7  156.98    7.40
  -4  -1   7  166.48    7.70
  -4  -1   7  162.28    7.60
  -4  -1   7  160.18    7.30
  -4  -1   7  170.38    7.70
  -4  -1   7  150.18    7.40
  -4  -1   7  154.38    7.40
   3   1  -7    9.80    1.60
   3   1  -7   14.70    1.10
   3   1  -7   13.10    1.50
   3   1  -7   12.50    1.00
   3   1  -7    9.50    1.20
  -3  -1   7   12.10    1.30
  -3  -1   7   11.10    1.40
  -3  -1   7   13.50    1.50
  -3  -1   7   12.10    1.40
  -3  -1   7   14.20    1.60
  -3  -1   7   11.20    1.30
   2   1  -7   13.60    1.50
   2   1  -7   15.60    1.80
   2   1  -7   16.90    1.10
   2   1  -7   17.20    1.40
   2   1  -7   15.80    1.10
   2   1  -7   19.80    1.20
  -2  -1   7   16.80    1.60
  -2  -1   7   14.90    1.50
  -2  -1   7   14.70    1.50
  -2  -1   7   15.40    1.60
  -2  -1   7   16.00    1.30
  -2  -1   7   15.90    1.20
  -2  -1   7   18.00    1.70
   1   1  -7   15.10    1.40
   1   1  -7   12.80    0.90
   1   1  -7   14.10    1.00
   1   1  -7   14.80    1.10
   1   1  -7   15.40    1.20
   1   1  -7   14.00    1.50
  -1  -1   7   13.70    1.30
  -1  -1   7   12.60    1.30
  -1  -1   7   15.20    1.00
  -1  -1   7   14.30    0.80
  -1  -1   7   14.90    1.50
  -1  -1   7   11.80    1.40
  -1  -1   7   13.60    1.50
   0   1  -7  115.79    5.20
   0   1  -7  115.69    5.20
   0   1  -7  119.99    5.00
   0   1  -7  116.79    5.20
   0   1  -7  113.29    5.10
   0   1  -7  115.19    5.10
   0  -1   7  125.09    5.40
   0  -1   7  121.09    5.50
   0  -1   7  111.49    5.20
   0  -1   7  119.29    5.50
   0  -1   7  122.39    5.10
   0  -1   7  111.89    5.00
   0  -1   7  114.69    5.10
  -1   1  -7   29.60    1.80
  -1   1  -7   30.80    1.90
  -1   1  -7   28.90    1.90
  -1   1  -7   35.90    1.90
  -1   1  -7   33.40    2.00
  -1   1  -7   31.10    1.70
   1  -1   7   32.80    2.10
   1  -1   7   30.50    2.10
   1  -1   7   32.80    1.70
   1  -1   7   29.60    2.20
   1  -1   7   29.90    1.90
   1  -1   7   34.70    2.10
   1  -1   7   28.70    2.00
  -2   1  -7   66.49    3.60
  -2   1  -7   65.29    4.00
  -2   1  -7   68.89    3.60
  -2   1  -7   68.29    3.50
  -2   1  -7   63.49    3.30
  -2   1  -7   68.59    3.60
   2  -1   7   68.99    3.70
   2  -1   7   68.29    3.80
   2  -1   7   69.79    3.60
   2  -1   7   71.99    4.00
   2  -1   7   70.19    3.70
   2  -1   7   72.19    3.60
  -3   1  -7    8.70    1.30
  -3   1  -7    6.30    1.40
  -3   1  -7    7.10    1.30
  -3   1  -7    7.30    1.20
  -3   1  -7    9.80    1.30
  -3   1  -7    6.20    1.20
  -3   1  -7    7.30    1.50
   3  -1   7    8.00    1.10
   3  -1   7    5.50    1.20
   3  -1   7    8.10    1.50
   3  -1   7    8.30    1.50
   3  -1   7    5.10    1.30
  -4   1  -7    5.10    1.30
  -4   1  -7    3.40    1.00
  -4   1  -7    3.90    1.30
  -4   1  -7    4.60    1.10
  -4   1  -7    4.60    1.00
  -4   1  -7    6.00    1.60
   4  -1   7    2.00    0.90
   4  -1   7    5.00    1.30
   4  -1   7    2.70    1.20
   4  -1   7    4.70    1.40
  -5   1  -7    1.60    0.90
  -5   1  -7    0.50    1.20
  -5   1  -7    1.40    1.00
  -5   1  -7    1.20    1.30
  -5   1  -7    0.10    1.00
  -5   1  -7    2.20    1.00
   5  -1   7    4.50    1.50
   5  -1   7    3.30    1.50
   5  -1   7    1.60    1.30
   5  -1   7   -0.50    1.00
  -6   1  -7    2.70    1.70
  -6   1  -7    2.70    1.50
  -6   1  -7    0.40    1.40
  -6   1  -7    1.60    1.20
  -6   1  -7    1.90    1.30
  -6   1  -7    1.80    1.30
   6  -1   7    0.90    1.30
   6  -1   7    1.70    1.70
   6  -1   7    1.00    1.40
   6  -1   7    1.40    1.40
  -7   1  -7    0.10    1.60
  -7   1  -7   -0.30    1.50
  -7   1  -7   -1.40    1.00
   7  -1   7   -1.30    1.30
   7  -1   7   -1.40    2.20
   7  -1   7   -1.10    1.50
   9   0  -7    2.00    1.50
   9   0  -7    1.20    1.50
   9   0  -7   -0.10    1.60
  -9   0   7    0.80    1.30
  -9   0   7    1.50    1.70
  -9   0   7    1.70    1.70
   8   0  -7   58.79    4.20
   8   0  -7   56.09    4.30
   8   0  -7   53.89    4.40
   8   0  -7   63.59    4.40
  -8   0   7   59.79    4.00
  -8   0   7   58.39    4.20
  -8   0   7   56.19    3.80
  -8   0   7   73.49    4.90
  -8   0   7   72.19    4.90
   7   0  -7   13.00    2.10
   7   0  -7   13.20    2.40
   7   0  -7   10.30    1.40
   7   0  -7   12.20    1.60
   7   0  -7    7.50    1.90
  -7   0   7    9.70    1.60
  -7   0   7    9.40    1.80
  -7   0   7   13.10    2.20
  -7   0   7   10.40    1.70
  -7   0   7   11.40    2.10
  -7   0   7   11.60    1.80
   6   0  -7   69.09    4.00
   6   0  -7   65.49    3.60
   6   0  -7   56.49    4.20
   6   0  -7   66.29    4.20
   6   0  -7   70.39    3.60
  -6   0   7   68.99    4.40
  -6   0   7   64.79    4.10
  -6   0   7   70.59    4.10
  -6   0   7   66.39    3.90
  -6   0   7   66.09    4.00
  -6   0   7   67.29    3.90
  -6   0   7   61.19    4.20
   5   0  -7    1.80    0.70
   5   0  -7   -0.10    0.60
   5   0  -7    0.80    0.60
   5   0  -7    1.20    0.80
  -5   0   7    1.20    0.80
  -5   0   7    2.50    1.00
  -5   0   7    2.10    1.10
  -5   0   7    1.20    0.70
  -5   0   7    0.50    0.70
  -5   0   7    1.10    0.70
   4   0  -7   21.10    2.20
   4   0  -7   30.60    1.80
   4   0  -7   27.40    1.80
   4   0  -7   26.40    2.10
  -4   0   7   24.30    2.00
  -4   0   7   27.10    2.30
  -4   0   7   24.40    2.00
  -4   0   7   22.90    2.20
  -4   0   7   26.00    2.00
  -4   0   7   26.60    2.20
  -4   0   7   29.60    2.30
   3   0  -7   91.79    4.60
   3   0  -7   98.39    4.40
   3   0  -7   93.09    4.30
   3   0  -7   83.99    4.70
   3   0  -7   98.29    4.10
  -3   0   7   94.49    4.90
  -3   0   7   96.89    4.80
  -3   0   7   95.59    4.70
  -3   0   7   97.19    4.90
  -3   0   7   95.79    4.90
  -3   0   7   95.69    4.30
  -3   0   7   94.29    4.70
   2   0  -7   24.10    1.40
   2   0  -7   24.50    1.70
   2   0  -7   24.50    1.80
   2   0  -7   25.20    1.50
   2   0  -7   23.90    1.50
  -2   0   7   23.70    1.80
  -2   0   7   25.50    1.80
  -2   0   7   22.80    1.70
  -2   0   7   24.10    1.80
  -2   0   7   25.70    1.90
  -2   0   7   25.10    1.50
   1   0  -7   31.90    2.10
   1   0  -7   32.80    1.90
   1   0  -7   32.30    2.30
   1   0  -7   33.40    2.10
   1   0  -7   36.90    1.90
   1   0  -7   35.70    2.00
  -1   0   7   37.20    2.40
  -1   0   7   35.80    1.90
  -1   0   7   36.90    2.20
  -1   0   7   35.50    2.30
  -1   0   7   37.20    2.20
  -1   0   7   35.70    2.20
  -1   0   7   35.90    1.80
   0   0  -7   -0.20    0.50
   0   0  -7   -0.30    0.30
   0   0  -7   -0.20    0.30
   0   0  -7    0.50    0.40
   0   0  -7    0.10    0.30
   0   0  -7    0.40    0.40
   0   0  -7    0.00    0.30
   0   0   7    0.10    0.40
   0   0   7    0.10    0.40
   0   0   7   -0.10    0.50
   0   0   7    0.40    0.40
   0   0   7   -0.40    0.40
   0   0   7   -0.30    0.50
   0   0   7    0.30    0.40
  -1   0  -7  112.39    5.10
  -1   0  -7  106.99    5.40
  -1   0  -7  109.59    5.50
  -1   0  -7  110.59    5.10
  -1   0  -7  111.29    5.10
  -1   0  -7  106.79    4.90
  -1   0  -7  129.09    5.20
   1   0   7  113.89    5.40
   1   0   7  114.79    5.20
   1   0   7  109.29    5.30
   1   0   7  103.99    5.10
   1   0   7  117.19    5.40
   1   0   7  113.39    5.60
  -2   0  -7    7.20    1.30
  -2   0  -7    7.30    1.10
  -2   0  -7    7.20    1.10
  -2   0  -7    7.70    1.20
  -2   0  -7    7.70    1.10
  -2   0  -7    5.60    1.30
  -2   0  -7    6.40    0.90
   2   0   7    7.70    1.50
   2   0   7    8.60    1.30
   2   0   7    6.10    1.20
   2   0   7    4.10    0.90
   2   0   7    8.70    1.30
   2   0   7    7.60    1.40
  -3   0  -7    0.00    0.40
  -3   0  -7   -0.40    0.80
  -3   0  -7    1.00    0.60
  -3   0  -7    0.40    0.60
  -3   0  -7    0.50    0.50
  -3   0  -7   -0.80    0.70
   3   0   7   -0.80    0.90
   3   0   7    0.60    0.80
   3   0   7    0.00    0.80
   3   0   7   -0.10    0.60
   3   0   7    0.40    0.70
   3   0   7   -0.30    0.70
  -4   0  -7    4.20    1.10
  -4   0  -7    2.40    0.90
  -4   0  -7    3.80    1.10
  -4   0  -7    3.70    1.10
  -4   0  -7    1.70    1.10
  -4   0  -7    3.50    1.50
   4   0   7    2.50    1.20
   4   0   7    1.90    1.00
   4   0   7    1.00    0.90
   4   0   7    1.80    1.10
  -5   0  -7   -1.60    0.90
  -5   0  -7    0.40    1.00
  -5   0  -7    0.70    1.10
  -5   0  -7    1.10    1.00
  -5   0  -7    2.10    0.90
  -5   0  -7    1.10    1.00
   5   0   7    0.70    1.30
   5   0   7    0.30    0.90
   5   0   7    1.60    1.20
   5   0   7    0.70    0.90
  -6   0  -7   -0.90    1.00
  -6   0  -7   -0.30    1.00
  -6   0  -7   -0.50    1.00
  -6   0  -7    1.10    1.20
  -6   0  -7    0.70    1.20
   6   0   7   -1.90    0.70
   6   0   7   -2.10    1.30
   6   0   7   -0.50    1.00
   6   0   7    1.10    1.00
  -7   0  -7    1.10    1.70
  -7   0  -7    1.60    1.90
  -7   0  -7   -0.50    1.30
   7   0   7   -1.30    1.30
   7   0   7    0.80    1.80
   7   0   7   -0.90    1.60
   9  -1  -7    3.10    1.90
   9  -1  -7    1.30    1.60
   9  -1  -7    2.60    1.30
  -9   1   7    2.20    1.90
  -9   1   7    2.00    1.70
  -9   1   7    1.20    1.50
  -9   1   7   -0.30    1.60
   8  -1  -7    1.50    1.70
   8  -1  -7    4.00    1.20
   8  -1  -7    8.50    2.00
   8  -1  -7   10.60    2.10
   8  -1  -7    6.60    1.40
  -8   1   7    8.70    2.20
  -8   1   7    9.80    2.20
  -8   1   7    8.40    1.80
  -8   1   7    5.30    1.80
   7  -1  -7    3.40    1.50
   7  -1  -7    3.50    1.00
   7  -1  -7    5.00    1.50
   7  -1  -7    2.10    0.90
  -7   1   7    1.20    1.30
  -7   1   7    3.30    1.10
  -7   1   7    3.00    1.10
  -7   1   7    5.50    1.40
  -7   1   7    5.10    1.60
  -7   1   7    3.70    1.60
   6  -1  -7    1.00    0.70
   6  -1  -7    0.80    1.00
   6  -1  -7    0.90    1.00
   6  -1  -7    0.20    0.60
  -6   1   7    0.80    0.70
  -6   1   7   -0.30    0.60
  -6   1   7    0.50    0.90
  -6   1   7   -0.60    0.80
  -6   1   7    1.60    1.00
  -6   1   7    1.20    0.90
   5  -1  -7    2.40    0.70
   5  -1  -7    2.00    0.70
   5  -1  -7    2.30    0.90
   5  -1  -7    1.70    0.70
   5  -1  -7    2.50    1.10
  -5   1   7    2.40    0.90
  -5   1   7    2.30    1.00
  -5   1   7    1.80    0.80
  -5   1   7    3.10    1.20
  -5   1   7    1.10    0.60
  -5   1   7    4.70    1.30
   4  -1  -7    4.20    1.20
   4  -1  -7    5.40    1.10
   4  -1  -7    5.70    0.90
   4  -1  -7    4.80    0.70
   4  -1  -7    4.60    0.80
  -4   1   7    6.40    1.30
  -4   1   7    6.20    1.20
  -4   1   7    6.30    1.30
  -4   1   7    6.80    1.10
  -4   1   7    4.50    0.90
  -4   1   7    3.90    1.20
   3  -1  -7   16.70    1.20
   3  -1  -7   18.60    1.90
   3  -1  -7   16.60    1.30
   3  -1  -7   15.70    1.70
   3  -1  -7   16.40    1.40
  -3   1   7   17.40    1.90
  -3   1   7   17.20    1.80
  -3   1   7   20.10    1.90
  -3   1   7   20.00    2.00
  -3   1   7   20.20    2.00
  -3   1   7   18.10    1.50
   2  -1  -7    0.00    0.40
   2  -1  -7    0.30    0.40
   2  -1  -7   -0.30    0.30
   2  -1  -7    0.00    0.50
   2  -1  -7   -0.20    0.50
  -2   1   7    0.80    0.60
  -2   1   7    0.10    0.50
  -2   1   7    0.10    0.40
  -2   1   7    1.00    0.40
  -2   1   7    0.30    0.40
  -2   1   7    0.40    0.50
   1  -1  -7   23.00    1.50
   1  -1  -7   21.90    1.40
   1  -1  -7   21.50    1.60
   1  -1  -7   19.90    1.60
   1  -1  -7   21.60    1.50
  -1   1   7   22.10    1.40
  -1   1   7   19.80    1.60
  -1   1   7   19.90    1.60
  -1   1   7   20.20    1.60
  -1   1   7   21.60    1.80
  -1   1   7   24.30    1.80
   0  -1  -7    0.60    0.50
   0  -1  -7    0.70    0.50
   0  -1  -7    1.10    0.50
   0  -1  -7    0.70    0.50
   0  -1  -7    1.50    0.50
   0  -1  -7    1.00    0.50
   0  -1  -7    0.70    0.50
   0   1   7   -0.40    0.60
   0   1   7    1.30    0.50
   0   1   7    2.00    0.60
   0   1   7    0.70    0.60
   0   1   7    1.00    0.70
   0   1   7    0.20    0.50
   0   1   7    0.70    0.50
  -1  -1  -7   29.00    2.20
  -1  -1  -7   29.50    1.90
  -1  -1  -7   29.70    1.90
  -1  -1  -7   26.20    2.10
  -1  -1  -7   30.10    1.70
  -1  -1  -7   29.30    1.90
  -1  -1  -7   34.00    2.00
   1   1   7   25.30    1.90
   1   1   7   27.50    2.10
   1   1   7   28.70    2.30
   1   1   7   29.80    2.10
   1   1   7   31.60    2.20
   1   1   7   29.70    2.20
  -2  -1  -7    1.10    0.60
  -2  -1  -7    0.70    0.80
  -2  -1  -7    0.40    0.40
  -2  -1  -7    0.60    0.50
  -2  -1  -7    0.30    0.50
  -2  -1  -7    1.20    0.80
   2   1   7    0.80    0.80
   2   1   7    0.60    0.70
   2   1   7    0.20    0.70
   2   1   7    1.00    0.80
   2   1   7    1.80    1.10
   2   1   7    0.00    0.90
  -3  -1  -7   -0.60    0.90
  -3  -1  -7   -0.10    0.70
  -3  -1  -7    0.30    0.60
  -3  -1  -7   -0.60    0.50
  -3  -1  -7    0.70    0.90
  -3  -1  -7    0.20    0.60
   3   1   7   -0.20    0.80
   3   1   7    0.20    0.80
   3   1   7    0.80    0.90
   3   1   7    1.50    1.00
   3   1   7    1.60    0.90
   3   1   7   -0.40    0.70
  -4  -1  -7    4.50    1.20
  -4  -1  -7    1.50    0.90
  -4  -1  -7    3.30    1.40
  -4  -1  -7    3.00    1.10
  -4  -1  -7    2.00    0.80
  -4  -1  -7    0.80    1.10
   4   1   7    1.50    1.30
   4   1   7    1.20    1.10
   4   1   7    2.10    1.10
   4   1   7    2.00    1.40
   4   1   7    2.40    1.20
  -5  -1  -7   -0.60    1.00
  -5  -1  -7    2.10    1.40
  -5  -1  -7    0.50    0.90
  -5  -1  -7    0.60    0.90
  -5  -1  -7    0.10    0.90
   5   1   7   -0.80    1.30
   5   1   7    0.60    0.80
   5   1   7   -1.20    1.10
   5   1   7   -0.20    1.20
  -6  -1  -7    2.20    1.30
  -6  -1  -7    0.00    1.60
  -6  -1  -7    1.30    1.30
  -6  -1  -7   -0.20    1.00
  -6  -1  -7    0.60    1.60
   6   1   7   -0.80    1.30
   6   1   7   -1.40    1.30
   6   1   7   -2.90    1.30
   6   1   7    1.50    1.60
  -7  -1  -7    3.10    1.80
  -7  -1  -7   -1.70    1.10
  -7  -1  -7    0.20    1.20
   7   1   7   -0.50    1.30
   7   1   7    1.80    1.50
   7   1   7   -0.90    1.20
   9  -2  -7   -0.40    1.00
   9  -2  -7   -0.70    1.40
   9  -2  -7    1.20    1.50
   9  -2  -7    0.20    1.80
  -9   2   7   -1.30    1.50
  -9   2   7   -0.90    1.50
  -9   2   7   -0.50    1.40
  -9   2   7    0.40    1.30
   8  -2  -7   -0.30    0.80
   8  -2  -7    1.20    1.20
   8  -2  -7    0.60    1.40
   8  -2  -7   -0.90    0.70
  -8   2   7   -0.60    1.10
  -8   2   7   -0.70    1.20
  -8   2   7   -1.30    1.20
  -8   2   7    1.00    1.40
   7  -2  -7   -0.40    0.80
   7  -2  -7    1.20    0.90
   7  -2  -7    0.60    0.80
   7  -2  -7    0.70    1.20
  -7   2   7    0.50    1.00
  -7   2   7   -0.40    1.00
  -7   2   7    0.30    1.00
  -7   2   7    0.30    0.80
  -7   2   7    1.00    1.10
  -7   2   7    1.30    1.00
   6  -2  -7    1.30    1.00
   6  -2  -7    0.70    0.60
   6  -2  -7    0.50    1.00
   6  -2  -7    0.20    0.70
   6  -2  -7    0.70    0.80
  -6   2   7    2.50    1.00
  -6   2   7    0.50    0.80
  -6   2   7   -0.70    0.80
  -6   2   7    0.20    1.20
  -6   2   7    1.40    1.20
  -6   2   7    0.90    0.80
   5  -2  -7    2.50    1.00
   5  -2  -7    3.90    1.00
   5  -2  -7    4.60    0.90
   5  -2  -7    4.80    1.10
   5  -2  -7    2.50    0.70
  -5   2   7    3.20    1.20
  -5   2   7    5.30    1.30
  -5   2   7    4.60    1.20
  -5   2   7    3.60    1.00
  -5   2   7    3.10    1.00
   4  -2  -7    0.40    0.50
   4  -2  -7    1.00    0.50
   4  -2  -7   -0.90    0.70
   4  -2  -7    1.70    0.60
   4  -2  -7   -0.70    0.40
  -4   2   7    0.60    0.80
  -4   2   7    0.40    0.50
  -4   2   7    0.00    0.60
  -4   2   7    0.00    0.50
  -4   2   7   -0.10    0.70
  -4   2   7    0.40    0.90
   3  -2  -7    6.90    0.90
   3  -2  -7    7.60    1.00
   3  -2  -7    4.20    1.10
   3  -2  -7    5.90    1.10
   3  -2  -7    6.90    1.00
  -3   2   7    5.80    1.20
  -3   2   7    4.60    1.10
  -3   2   7    4.90    1.10
  -3   2   7    7.40    1.20
  -3   2   7    4.10    1.10
  -3   2   7    6.70    1.00
   2  -2  -7    6.60    1.00
   2  -2  -7    8.00    1.00
   2  -2  -7    7.70    0.90
   2  -2  -7    6.80    1.10
   2  -2  -7    7.70    1.00
  -2   2   7    7.80    1.30
  -2   2   7    7.70    1.10
  -2   2   7    8.50    1.30
  -2   2   7    8.00    1.20
  -2   2   7    6.40    1.10
   1  -2  -7   65.29    3.30
   1  -2  -7   61.99    3.40
   1  -2  -7   64.99    3.30
   1  -2  -7   61.09    3.30
   1  -2  -7   66.89    3.20
  -1   2   7   65.49    3.50
  -1   2   7   63.09    3.10
  -1   2   7   68.59    3.60
  -1   2   7   61.69    3.40
  -1   2   7   61.99    3.70
  -1   2   7   70.79    3.70
   0  -2  -7    0.60    0.50
   0  -2  -7    0.00    0.40
   0  -2  -7    0.70    0.50
   0  -2  -7    0.20    0.40
   0  -2  -7    0.70    0.50
   0   2   7    0.70    0.50
   0   2   7    0.20    0.60
   0   2   7    0.60    0.60
   0   2   7   -0.70    0.60
   0   2   7    0.20    0.60
   0   2   7    1.50    0.70
   0   2   7    0.70    0.40
  -1  -2  -7    5.10    0.90
  -1  -2  -7    5.70    1.10
  -1  -2  -7    6.80    1.00
  -1  -2  -7    4.50    1.10
  -1  -2  -7    5.30    1.00
  -1  -2  -7    4.70    0.90
   1   2   7    4.80    1.10
   1   2   7    3.90    1.30
   1   2   7    4.00    1.00
   1   2   7    5.40    1.20
   1   2   7    6.10    1.30
   1   2   7    5.80    1.10
  -2  -2  -7    8.70    1.20
  -2  -2  -7    6.60    1.20
  -2  -2  -7    6.80    1.60
  -2  -2  -7    8.20    1.20
  -2  -2  -7   10.10    1.70
  -2  -2  -7    9.20    1.20
   2   2   7    7.20    1.50
   2   2   7    8.60    1.40
   2   2   7    7.40    1.70
   2   2   7    7.70    1.50
   2   2   7    6.20    1.40
   2   2   7    7.60    1.50
  -3  -2  -7    0.10    0.60
  -3  -2  -7    1.30    0.90
  -3  -2  -7    2.10    0.90
  -3  -2  -7    1.90    0.90
  -3  -2  -7    0.50    1.10
  -3  -2  -7    1.10    1.00
   3   2   7    1.00    1.00
   3   2   7    1.10    1.10
   3   2   7   -0.60    1.00
   3   2   7   -0.80    1.00
   3   2   7    0.90    1.20
   3   2   7    1.60    1.20
  -4  -2  -7    7.80    1.50
  -4  -2  -7    4.60    1.60
  -4  -2  -7    6.90    1.40
  -4  -2  -7    6.10    1.40
  -4  -2  -7    6.40    1.80
   4   2   7    6.00    1.90
   4   2   7    9.60    2.10
   4   2   7    5.30    1.60
   4   2   7   10.20    2.00
   4   2   7    6.80    1.70
   4   2   7    6.80    1.70
  -5  -2  -7    9.90    1.80
  -5  -2  -7   10.70    2.00
  -5  -2  -7   12.00    2.50
  -5  -2  -7   12.30    2.00
  -5  -2  -7   11.40    2.40
   5   2   7   11.80    2.30
   5   2   7   11.00    2.20
   5   2   7    8.90    2.20
   5   2   7   10.00    2.10
  -6  -2  -7   39.00    3.20
  -6  -2  -7   32.90    4.40
  -6  -2  -7   44.40    4.20
   6   2   7   41.60    4.30
   6   2   7   30.10    3.70
   6   2   7   36.80    4.00
  -7  -2  -7    3.70    2.10
  -7  -2  -7    4.20    1.80
  -7  -2  -7    1.80    2.00
   7   2   7    2.90    2.10
   7   2   7    2.10    2.00
   7   2   7    0.60    1.70
   8  -3  -7    0.30    1.40
   8  -3  -7    0.30    1.00
   8  -3  -7    3.10    1.60
  -8   3   7   -0.10    1.60
  -8   3   7   -0.50    1.50
  -8   3   7    1.00    1.40
  -8   3   7   -0.10    1.20
   7  -3  -7    0.50    1.20
   7  -3  -7    2.40    1.10
   7  -3  -7    0.30    0.80
   7  -3  -7    2.70    1.30
   7  -3  -7    2.10    1.00
  -7   3   7    0.70    1.20
  -7   3   7    2.80    1.20
  -7   3   7    1.70    1.50
  -7   3   7    1.30    1.20
  -7   3   7    1.80    1.40
   6  -3  -7    0.70    0.60
   6  -3  -7   -0.60    0.90
   6  -3  -7    0.30    0.70
   6  -3  -7   -0.30    0.70
   6  -3  -7    0.50    1.10
  -6   3   7    2.80    1.30
  -6   3   7   -0.20    1.20
  -6   3   7   -0.20    1.10
  -6   3   7    1.30    0.90
  -6   3   7   -0.40    0.90
   5  -3  -7    0.30    0.60
   5  -3  -7    0.00    0.60
   5  -3  -7    0.10    0.50
   5  -3  -7   -0.40    0.60
   5  -3  -7    0.10    0.80
  -5   3   7    0.50    1.00
  -5   3   7    0.10    0.70
  -5   3   7    0.50    0.80
  -5   3   7    0.20    0.90
  -5   3   7    1.00    0.90
   4  -3  -7    2.60    0.70
   4  -3  -7    3.90    0.80
   4  -3  -7    2.70    0.80
   4  -3  -7    3.30    1.10
   4  -3  -7    5.30    1.20
  -4   3   7    3.10    1.10
  -4   3   7    3.90    1.30
  -4   3   7    4.20    1.20
  -4   3   7    4.40    1.10
  -4   3   7    4.40    1.20
   3  -3  -7   10.00    1.20
   3  -3  -7    9.50    1.40
   3  -3  -7   10.90    1.30
   3  -3  -7    7.20    1.40
   3  -3  -7   10.80    1.30
  -3   3   7    9.10    1.50
  -3   3   7   12.30    1.70
  -3   3   7   12.40    1.60
  -3   3   7    9.60    1.50
  -3   3   7   11.60    1.30
  -3   3   7    6.30    1.40
   2  -3  -7   28.80    1.90
   2  -3  -7   27.40    2.10
   2  -3  -7   29.10    2.20
   2  -3  -7   27.70    1.90
   2  -3  -7   26.30    1.80
  -2   3   7   30.30    2.00
  -2   3   7   30.60    2.40
  -2   3   7   29.90    2.30
  -2   3   7   31.90    2.30
  -2   3   7   28.50    2.40
   1  -3  -7   51.99    2.90
   1  -3  -7   54.69    2.80
   1  -3  -7   50.89    2.80
   1  -3  -7   48.60    2.90
   1  -3  -7   51.59    2.80
  -1   3   7   47.60    3.30
  -1   3   7   54.99    3.20
  -1   3   7   49.20    2.90
  -1   3   7   46.40    3.10
  -1   3   7   51.59    3.20
   0  -3  -7   11.60    1.30
   0  -3  -7   11.20    1.20
   0  -3  -7   10.70    1.40
   0  -3  -7   10.20    1.20
   0   3   7   10.40    1.60
   0   3   7   11.80    1.50
   0   3   7   10.90    1.70
   0   3   7   11.00    1.80
   0   3   7   12.50    1.50
  -1  -3  -7   18.60    1.70
  -1  -3  -7   18.70    1.80
  -1  -3  -7   18.10    1.90
  -1  -3  -7   16.90    1.40
  -1  -3  -7   20.70    2.20
   1   3   7   20.30    1.80
   1   3   7   19.00    2.10
   1   3   7   16.60    2.20
   1   3   7   15.60    2.10
   1   3   7   17.40    2.20
   1   3   7   15.70    1.90
  -2  -3  -7  154.88    7.20
  -2  -3  -7  153.98    7.60
  -2  -3  -7  157.08    7.80
  -2  -3  -7  146.39    7.00
  -2  -3  -7  146.39    6.90
  -2  -3  -7  162.78    6.80
   2   3   7  154.88    7.40
   2   3   7  153.38    7.40
   2   3   7  141.89    7.30
   2   3   7  156.88    7.60
   2   3   7  149.69    7.60
   2   3   7  149.29    7.80
  -3  -3  -7  102.79    5.30
  -3  -3  -7  100.99    5.00
  -3  -3  -7   95.99    5.80
  -3  -3  -7   91.69    5.70
  -3  -3  -7   97.19    5.00
   3   3   7   95.49    5.50
   3   3   7   93.79    5.80
   3   3   7   95.29    5.50
   3   3   7   92.89    5.40
   3   3   7   90.89    5.50
   3   3   7   94.29    5.40
  -4  -3  -7  219.18    9.80
  -4  -3  -7  227.78   10.20
  -4  -3  -7  232.48   11.20
  -4  -3  -7  207.68   11.00
  -4  -3  -7  229.88   10.00
   4   3   7  231.08   11.00
   4   3   7  203.18   10.40
   4   3   7  220.58   10.50
   4   3   7  193.98   10.40
   4   3   7  216.88   10.40
   4   3   7  224.98   10.50
  -5  -3  -7    7.80    1.60
  -5  -3  -7    4.70    1.90
  -5  -3  -7    5.80    2.00
  -5  -3  -7    6.00    1.60
  -5  -3  -7    4.20    1.50
   5   3   7    2.80    1.60
   5   3   7    5.80    1.80
   5   3   7    4.00    1.80
   5   3   7    3.50    1.70
   5   3   7    5.10    1.90
  -6  -3  -7   10.50    2.50
  -6  -3  -7   15.50    2.50
  -6  -3  -7   16.50    2.70
   6   3   7   12.70    2.60
   6   3   7    9.60    2.80
   6   3   7   11.50    2.70
   8  -4  -7    3.00    1.60
   8  -4  -7   -0.20    1.10
   8  -4  -7    0.00    1.00
   8  -4  -7    2.10    1.60
  -8   4   7    2.10    1.50
  -8   4   7    1.10    1.50
  -8   4   7   -0.80    1.70
  -8   4   7    1.60    1.50
   7  -4  -7    0.00    0.70
   7  -4  -7   -0.40    0.90
   7  -4  -7   -0.10    1.00
   7  -4  -7    0.20    0.80
   7  -4  -7   -0.40    0.90
  -7   4   7   -1.20    1.10
  -7   4   7   -2.40    0.90
  -7   4   7    0.70    1.10
   6  -4  -7   16.00    1.80
   6  -4  -7   14.90    2.20
   6  -4  -7   15.80    2.00
   6  -4  -7   14.70    2.30
   6  -4  -7   16.50    1.80
  -6   4   7   16.50    2.50
  -6   4   7   10.90    2.00
  -6   4   7   21.20    2.20
  -6   4   7   12.60    2.50
  -6   4   7   16.60    2.20
   5  -4  -7    5.70    1.40
   5  -4  -7    5.70    1.00
   5  -4  -7    7.10    1.60
   5  -4  -7    5.40    1.00
   5  -4  -7    4.70    1.00
  -5   4   7    6.80    1.50
  -5   4   7    7.10    1.40
  -5   4   7    3.40    1.60
  -5   4   7    8.00    1.60
  -5   4   7    9.10    1.80
   4  -4  -7   20.80    2.50
   4  -4  -7   23.70    1.90
   4  -4  -7   25.20    1.80
   4  -4  -7   20.80    2.30
   4  -4  -7   25.70    2.00
  -4   4   7   27.70    2.50
  -4   4   7   26.50    2.70
  -4   4   7   18.80    2.60
  -4   4   7   28.20    2.70
  -4   4   7   26.80    2.80
   3  -4  -7   15.30    1.60
   3  -4  -7   15.20    1.50
   3  -4  -7   11.50    1.70
   3  -4  -7   11.70    1.50
   3  -4  -7   13.30    1.70
  -3   4   7   13.00    1.90
  -3   4   7   16.30    2.10
  -3   4   7   12.60    1.90
  -3   4   7   18.80    2.00
  -3   4   7   15.40    1.90
   2  -4  -7   84.29    4.00
   2  -4  -7   67.19    4.10
   2  -4  -7   76.59    4.10
   2  -4  -7   70.99    3.80
   2  -4  -7   75.09    3.90
  -2   4   7   82.59    4.40
  -2   4   7   79.59    4.40
  -2   4   7   77.39    4.00
  -2   4   7   82.59    4.70
  -2   4   7   79.09    4.60
  -2   4   7   80.19    4.30
   1  -4  -7   30.60    2.20
   1  -4  -7   28.00    2.00
   1  -4  -7   31.50    2.20
   1  -4  -7   33.40    2.10
   1  -4  -7   31.20    2.10
  -1   4   7   34.10    2.30
  -1   4   7   32.40    2.60
  -1   4   7   32.80    2.70
  -1   4   7   31.00    2.50
  -1   4   7   29.50    2.50
   0  -4  -7  263.77   11.40
   0  -4  -7  280.47   11.30
   0  -4  -7  266.67   11.30
   0  -4  -7  269.87   11.60
   0   4   7  280.67   12.10
   0   4   7  268.07   12.30
   0   4   7  277.47   12.10
  -1  -4  -7   13.30    1.50
  -1  -4  -7   11.60    1.50
  -1  -4  -7   15.40    1.50
  -1  -4  -7   12.20    1.70
   1   4   7   12.20    2.00
   1   4   7   11.20    2.00
   1   4   7   12.00    2.00
   1   4   7   10.60    1.60
  -2  -4  -7   41.30    2.90
  -2  -4  -7   38.90    3.20
  -2  -4  -7   39.80    2.70
  -2  -4  -7   41.00    2.60
   2   4   7   34.50    2.90
   2   4   7   36.90    3.60
   2   4   7   39.40    3.60
   2   4   7   33.70    2.80
   2   4   7   35.90    3.50
  -3  -4  -7    0.70    1.10
  -3  -4  -7    1.70    1.00
  -3  -4  -7   -0.30    0.70
  -3  -4  -7    0.90    1.20
  -3  -4  -7    0.20    0.70
   3   4   7   -0.20    1.10
   3   4   7    0.50    1.20
   3   4   7    1.40    1.10
   3   4   7    0.40    1.30
   3   4   7    0.70    1.40
   3   4   7   -0.30    1.00
  -4  -4  -7    1.90    1.30
  -4  -4  -7    3.60    1.30
  -4  -4  -7    1.70    1.20
  -4  -4  -7    1.30    1.30
  -4  -4  -7    2.20    1.00
   4   4   7    3.40    1.40
   4   4   7    1.50    1.50
   4   4   7    2.00    1.70
   4   4   7    2.60    1.50
   4   4   7    0.30    1.70
   4   4   7    1.40    1.60
  -5  -4  -7    0.20    1.00
  -5  -4  -7    0.90    1.10
  -5  -4  -7   -1.80    1.40
  -5  -4  -7   -0.20    1.40
  -5  -4  -7    1.00    1.00
   5   4   7    1.00    1.30
   5   4   7   -2.90    1.30
   5   4   7   -0.90    1.50
   5   4   7   -0.40    1.10
   5   4   7   -0.30    1.70
  -6  -4  -7   -1.20    0.90
  -6  -4  -7    0.30    1.10
  -6  -4  -7   -0.50    1.70
   6   4   7    0.80    1.60
   6   4   7   -0.10    1.90
   6   4   7   -2.80    1.80
   8  -5  -7    5.30    1.40
   8  -5  -7    0.60    1.20
   8  -5  -7    5.10    1.90
   8  -5  -7    3.30    1.60
  -8   5   7    2.90    2.10
  -8   5   7    3.40    1.60
  -8   5   7    4.00    2.20
   7  -5  -7    0.80    1.00
   7  -5  -7    1.10    1.10
   7  -5  -7    1.70    1.40
   7  -5  -7    0.20    1.30
  -7   5   7    3.60    2.10
  -7   5   7    1.50    1.50
  -7   5   7    3.50    1.50
   6  -5  -7   22.70    2.40
   6  -5  -7   27.90    2.20
   6  -5  -7   23.90    2.80
   6  -5  -7   19.50    2.10
  -6   5   7   20.30    3.20
  -6   5   7   23.50    3.30
  -6   5   7   28.10    2.90
  -6   5   7   23.50    3.00
   5  -5  -7    3.00    1.00
   5  -5  -7    5.60    1.50
   5  -5  -7    4.40    1.00
   5  -5  -7    2.50    0.90
  -5   5   7    4.60    1.60
  -5   5   7    5.70    1.80
  -5   5   7    3.80    1.40
  -5   5   7    4.30    1.30
  -5   5   7    5.70    1.30
   4  -5  -7   62.49    4.30
   4  -5  -7   70.29    4.30
   4  -5  -7   72.99    4.00
   4  -5  -7   72.49    4.00
   4  -5  -7   76.09    4.00
  -4   5   7   76.99    4.80
  -4   5   7   81.19    4.70
  -4   5   7   87.69    4.50
  -4   5   7   77.19    4.60
  -4   5   7   73.99    5.00
   3  -5  -7   -1.20    0.70
   3  -5  -7   -0.20    0.40
   3  -5  -7   -0.50    0.50
   3  -5  -7   -1.30    0.70
   3  -5  -7   -0.20    0.50
  -3   5   7    1.00    0.90
  -3   5   7   -0.50    0.80
  -3   5   7    0.50    1.00
  -3   5   7    0.90    0.90
  -3   5   7    0.10    0.70
   2  -5  -7    0.00    0.60
   2  -5  -7    0.40    0.60
   2  -5  -7   -0.20    0.70
   2  -5  -7   -1.00    0.60
   2  -5  -7    1.30    0.70
  -2   5   7    1.30    1.10
  -2   5   7    0.60    1.00
  -2   5   7   -0.80    0.80
  -2   5   7   -0.40    0.80
  -2   5   7    0.10    1.20
  -2   5   7    0.60    0.70
   1  -5  -7   30.60    2.20
   1  -5  -7   26.80    2.10
   1  -5  -7   28.00    2.00
   1  -5  -7   30.40    2.10
  -1   5   7   29.50    2.80
  -1   5   7   28.10    2.60
  -1   5   7   25.40    2.70
  -1   5   7   29.10    3.00
   0  -5  -7  125.09    5.90
   0  -5  -7  123.89    6.10
   0  -5  -7  122.09    5.80
   0   5   7  124.79    6.50
   0   5   7  140.09    7.00
   0   5   7  126.79    6.70
  -1  -5  -7    3.50    0.90
  -1  -5  -7    2.70    1.00
  -1  -5  -7    2.90    0.90
   1   5   7    3.60    1.40
   1   5   7    5.50    1.60
   1   5   7    2.30    1.40
  -2  -5  -7    8.90    1.40
  -2  -5  -7    7.30    2.00
  -2  -5  -7    6.10    1.30
  -2  -5  -7    6.50    1.40
   2   5   7    8.70    1.90
   2   5   7    7.60    1.60
   2   5   7    8.30    1.90
   2   5   7   10.30    2.00
  -3  -5  -7    7.70    1.50
  -3  -5  -7    7.90    2.00
  -3  -5  -7    6.70    1.30
  -3  -5  -7    6.70    2.20
  -3  -5  -7    8.40    1.80
  -3  -5  -7    4.50    1.70
   3   5   7    8.10    2.20
   3   5   7    4.80    1.60
   3   5   7    4.30    1.60
   3   5   7    7.60    1.80
   3   5   7    4.20    1.70
   3   5   7    4.60    1.80
  -4  -5  -7    3.10    1.20
  -4  -5  -7    2.60    1.60
  -4  -5  -7    3.50    1.30
  -4  -5  -7    2.20    1.70
  -4  -5  -7    1.90    1.30
  -4  -5  -7    1.70    1.60
   4   5   7    4.20    1.80
   4   5   7    3.00    1.70
   4   5   7    2.80    1.60
   4   5   7    0.90    1.20
   4   5   7    5.20    1.90
   4   5   7    0.40    1.50
  -5  -5  -7    0.20    1.50
  -5  -5  -7    0.80    1.00
  -5  -5  -7   -1.90    1.30
   5   5   7   -2.60    1.70
   5   5   7   -0.30    1.60
   5   5   7    1.10    1.50
   5   5   7   -0.70    1.60
   7  -6  -7    9.00    1.80
   7  -6  -7    7.50    1.60
   7  -6  -7    5.30    1.60
  -7   6   7    8.10    2.60
  -7   6   7    6.10    1.90
  -7   6   7    4.00    2.00
   6  -6  -7    0.10    1.00
   6  -6  -7    0.10    0.80
   6  -6  -7    0.10    1.20
  -6   6   7   -1.10    1.10
  -6   6   7   -1.00    1.10
  -6   6   7    0.80    1.20
   5  -6  -7    0.80    0.80
   5  -6  -7   -0.10    0.60
   5  -6  -7    2.70    1.10
   5  -6  -7    1.90    0.90
  -5   6   7    1.80    1.20
  -5   6   7    1.70    1.40
  -5   6   7    2.10    1.10
  -5   6   7    1.80    1.60
  -5   6   7    1.10    1.10
   4  -6  -7   55.99    3.40
   4  -6  -7   53.39    3.50
   4  -6  -7   55.29    3.40
   4  -6  -7   57.49    3.80
  -4   6   7   59.99    4.40
  -4   6   7   54.59    4.10
  -4   6   7   58.69    4.00
  -4   6   7   66.79    3.90
  -4   6   7   58.39    4.10
   3  -6  -7    6.70    1.20
   3  -6  -7   10.20    1.70
   3  -6  -7    8.60    1.40
   3  -6  -7   11.70    1.60
   3  -6  -7    7.10    1.30
  -3   6   7   10.30    1.90
  -3   6   7   10.00    1.70
  -3   6   7    9.50    2.10
  -3   6   7    9.60    1.80
  -3   6   7    7.50    1.60
   2  -6  -7   70.29    3.90
   2  -6  -7   73.59    4.00
   2  -6  -7   73.59    4.00
   2  -6  -7   74.79    4.10
  -2   6   7   75.89    4.80
  -2   6   7   76.99    4.60
  -2   6   7   69.89    4.70
   1  -6  -7    0.90    0.70
   1  -6  -7    0.30    0.70
   1  -6  -7    0.60    0.70
  -1   6   7    0.50    0.90
  -1   6   7    1.60    1.30
  -1   6   7    1.40    1.00
  -1   6   7    1.70    1.20
   0  -6  -7    1.40    0.70
   0  -6  -7    2.10    0.80
   0  -6  -7    1.00    0.90
   0   6   7    1.20    1.20
   0   6   7    3.00    1.30
   0   6   7    1.60    1.10
  -1  -6  -7    2.20    0.80
  -1  -6  -7    2.20    0.80
  -1  -6  -7    2.00    1.10
   1   6   7    2.70    1.40
   1   6   7    2.60    1.40
   1   6   7    2.00    1.40
  -2  -6  -7   -0.20    0.90
  -2  -6  -7   -0.70    0.70
  -2  -6  -7   -0.90    0.70
   2   6   7   -0.30    0.90
   2   6   7   -0.20    1.20
   2   6   7    1.30    1.40
  -3  -6  -7   -0.80    0.70
  -3  -6  -7    0.50    1.30
  -3  -6  -7   -0.40    0.80
  -3  -6  -7   -1.50    0.80
   3   6   7   -0.90    1.00
   3   6   7   -1.40    1.10
   3   6   7   -1.50    1.30
   3   6   7    0.80    1.40
  -4  -6  -7   -0.30    1.30
  -4  -6  -7    0.00    1.10
  -4  -6  -7   -0.90    1.30
  -4  -6  -7   -1.60    1.50
   4   6   7    1.30    2.50
   4   6   7   -0.60    1.30
   4   6   7    2.60    1.50
   4   6   7   -2.20    1.40
   4   6   7   -1.20    1.50
   7  -7  -7    0.90    1.20
   7  -7  -7    0.40    1.10
   7  -7  -7    1.10    1.40
   6  -7  -7    3.30    1.50
   6  -7  -7    2.00    1.10
   6  -7  -7    6.60    1.60
  -6   7   7    2.90    1.70
  -6   7   7    2.60    1.70
  -6   7   7    2.30    1.60
   5  -7  -7    1.40    1.00
   5  -7  -7    2.30    1.20
   5  -7  -7    1.60    1.20
  -5   7   7    3.70    1.30
  -5   7   7    0.50    1.10
  -5   7   7    0.90    1.60
  -5   7   7   -0.60    1.00
   4  -7  -7    4.40    1.30
   4  -7  -7    5.70    1.20
   4  -7  -7    5.70    1.10
   4  -7  -7    7.70    1.50
  -4   7   7    5.40    1.80
  -4   7   7    8.20    1.70
  -4   7   7    7.10    1.80
  -4   7   7    5.90    1.40
  -4   7   7    6.10    2.00
   3  -7  -7    8.30    1.50
   3  -7  -7    7.10    1.40
   3  -7  -7    7.60    1.40
   3  -7  -7    5.60    1.20
  -3   7   7    7.80    2.00
  -3   7   7    6.80    1.60
  -3   7   7   11.40    1.90
  -3   7   7   10.70    2.00
   2  -7  -7   25.90    2.20
   2  -7  -7   23.20    2.20
   2  -7  -7   25.50    2.50
  -2   7   7   25.70    3.10
  -2   7   7   28.90    3.20
  -2   7   7   29.10    3.00
   1  -7  -7    4.60    1.00
   1  -7  -7    3.50    1.10
   1  -7  -7    3.00    1.10
  -1   7   7    3.90    1.40
  -1   7   7    2.20    1.30
   0  -7  -7    2.80    1.10
   0  -7  -7    2.60    0.90
   0  -7  -7    4.00    1.10
   0   7   7    2.50    1.30
   0   7   7    2.10    1.20
   0   7   7    2.50    1.50
  -1  -7  -7    7.30    1.20
  -1  -7  -7    4.00    1.10
  -1  -7  -7    4.30    1.40
   1   7   7    5.10    1.60
   1   7   7    5.70    1.70
   1   7   7    3.70    1.60
  -2  -7  -7   22.40    2.40
  -2  -7  -7   19.10    2.60
  -2  -7  -7   17.40    2.10
   2   7   7   20.80    3.00
   2   7   7   20.10    3.00
  -3  -7  -7    3.30    1.20
  -3  -7  -7    0.60    1.30
  -3  -7  -7    1.10    2.00
   3   7   7    1.20    1.90
   3   7   7   -1.40    1.60
  -4  -7  -7   15.70    2.40
  -4  -7  -7   13.60    2.60
   4   7   7   10.50    3.00
   4   7   7    6.90    2.00
   4   7   7    9.80    2.40
   6  -8  -7    2.10    1.20
   6  -8  -7    1.80    1.30
   6  -8  -7    4.20    1.70
   5  -8  -7    8.70    1.70
   5  -8  -7    8.50    2.00
   5  -8  -7   10.90    1.90
  -5   8   7   10.90    2.40
  -5   8   7   10.50    2.30
  -5   8   7   10.90    2.80
   4  -8  -7   13.50    2.00
   4  -8  -7   15.80    2.10
   4  -8  -7   12.10    1.90
  -4   8   7   19.50    2.70
  -4   8   7   14.50    2.50
  -4   8   7   14.90    2.60
  -4   8   7   11.90    2.70
   3  -8  -7   23.20    2.50
   3  -8  -7   24.20    2.50
  -3   8   7   23.60    3.30
  -3   8   7   26.20    3.20
  -3   8   7   21.90    2.70
   2  -8  -7   -0.70    0.90
   2  -8  -7    1.10    0.70
   2  -8  -7    1.00    0.90
  -2   8   7    0.20    1.00
  -2   8   7    0.30    1.00
  -2   8   7    1.60    1.30
   1  -8  -7    6.30    1.20
   1  -8  -7    7.40    1.50
   1  -8  -7    6.70    1.40
  -1   8   7    6.40    1.80
  -1   8   7    6.80    1.70
   0  -8  -7   37.10    3.10
   0  -8  -7   32.10    2.50
   0  -8  -7   34.10    2.70
   0   8   7   35.80    3.70
  -1  -8  -7    7.80    1.90
  -1  -8  -7    6.30    1.40
  -1  -8  -7    6.70    1.40
   1   8   7    5.10    1.90
   1   8   7    2.90    1.90
  -2  -8  -7   24.10    2.60
  -2  -8  -7   28.50    3.30
   2   8   7   19.70    3.20
   2   8   7   22.50    3.20
  -3  -8  -7    0.70    1.60
   3   8   7    0.70    1.90
   3   8   7    5.00    2.30
   4  -9  -7    4.30    1.40
   4  -9  -7    2.60    1.20
  -4   9   7    1.90    1.70
   3  -9  -7    0.50    1.10
   3  -9  -7    0.60    1.00
  -3   9   7    0.30    1.70
  -3   9   7    1.30    1.30
   2  -9  -7    4.30    1.20
   2  -9  -7    1.10    1.20
  -2   9   7    1.90    1.70
  -2   9   7    4.30    1.50
   1  -9  -7    1.10    1.20
   1  -9  -7    1.80    1.00
  -1   9   7    1.30    1.40
   0  -9  -7    6.30    1.70
   0  -9  -7    5.20    1.40
   0   9   7    4.10    1.70
  -1  -9  -7   30.20    3.40
  -1  -9  -7   29.80    3.00
   1   9   7   24.90    3.40
   2  12  -8    1.40    1.80
  -2 -12   8    6.00    2.00
  -2 -12   8    5.40    2.00
   1  12  -8    6.50    1.90
   1  12  -8    3.90    2.10
  -1 -12   8    5.40    1.80
  -1 -12   8    9.20    2.10
   0  12  -8    1.70    1.60
   0  12  -8   -0.20    1.60
   0 -12   8    1.00    1.10
   0 -12   8    2.30    1.40
  -1  12  -8    4.90    2.20
  -1  12  -8    7.80    2.10
   1 -12   8    8.40    2.10
   1 -12   8    8.70    2.00
  -2  12  -8    1.10    1.70
   4  11  -8   -1.90    1.30
   4  11  -8    1.00    1.30
  -4 -11   8   -1.30    1.50
  -4 -11   8    0.30    1.60
  -4 -11   8   -0.60    1.20
  -4 -11   8    0.20    1.30
   3  11  -8   14.40    2.60
   3  11  -8   14.30    2.20
  -3 -11   8   15.80    2.60
  -3 -11   8    9.80    2.20
  -3 -11   8   13.70    2.60
  -3 -11   8   12.10    2.10
   2  11  -8    0.90    1.20
   2  11  -8    0.20    1.00
  -2 -11   8   -1.40    1.10
  -2 -11   8   -0.60    1.20
  -2 -11   8   -1.30    1.10
   1  11  -8    2.30    1.70
   1  11  -8    0.90    1.30
  -1 -11   8    4.00    1.60
  -1 -11   8    2.40    1.50
   0  11  -8    3.40    1.40
   0  11  -8    3.70    1.70
   0 -11   8    3.30    1.40
   0 -11   8    4.20    1.60
  -1  11  -8    1.00    1.00
  -1  11  -8    0.00    1.40
   1 -11   8    1.20    1.20
   1 -11   8   -1.30    1.00
  -2  11  -8    0.80    1.20
  -2  11  -8   -1.00    1.20
   2 -11   8   -0.60    0.90
   2 -11   8   -0.80    1.20
  -3  11  -8    1.70    1.70
  -3  11  -8    1.80    1.70
  -3  11  -8    1.80    1.30
   3 -11   8   -0.50    1.00
   5  10  -8   -0.10    1.40
   5  10  -8   -0.20    1.20
  -5 -10   8    1.60    1.20
  -5 -10   8    2.70    1.90
  -5 -10   8    0.00    1.60
  -5 -10   8    1.30    1.40
   4  10  -8    7.30    2.00
   4  10  -8    8.10    1.80
  -4 -10   8    8.90    2.30
  -4 -10   8    9.10    1.90
  -4 -10   8   10.70    2.20
  -4 -10   8    7.50    2.20
  -4 -10   8    5.20    1.90
   3  10  -8    4.00    1.40
   3  10  -8    4.50    1.60
   3  10  -8    1.90    1.20
   3  10  -8    1.90    1.50
  -3 -10   8    0.70    1.30
  -3 -10   8    1.70    1.30
  -3 -10   8    3.10    1.60
  -3 -10   8    1.50    1.40
  -3 -10   8    6.00    1.50
  -3 -10   8    3.40    1.20
   2  10  -8   10.50    1.80
   2  10  -8   13.00    2.00
   2  10  -8   11.70    2.20
   2  10  -8   12.60    2.00
  -2 -10   8   13.00    2.10
  -2 -10   8    9.50    1.90
  -2 -10   8   11.50    1.80
  -2 -10   8    7.40    1.70
  -2 -10   8    9.90    2.00
  -2 -10   8    9.70    1.70
   1  10  -8   -0.60    1.10
   1  10  -8    1.90    1.10
  -1 -10   8    2.10    1.30
  -1 -10   8    1.90    1.10
  -1 -10   8    1.30    1.10
  -1 -10   8    1.60    1.10
   0  10  -8    0.50    1.20
   0  10  -8    0.20    1.00
   0 -10   8    0.20    0.90
   0 -10   8   -1.20    0.80
   0 -10   8    1.20    1.10
  -1  10  -8    1.80    1.40
  -1  10  -8    1.10    1.30
   1 -10   8   -0.20    1.00
   1 -10   8    3.70    1.40
   1 -10   8    3.10    1.40
  -2  10  -8   -0.30    0.80
  -2  10  -8    0.60    1.00
  -2  10  -8    0.00    1.30
   2 -10   8    0.10    0.90
   2 -10   8    1.40    1.10
   2 -10   8    0.90    0.90
  -3  10  -8    3.20    1.70
  -3  10  -8    3.70    1.70
  -3  10  -8    1.90    1.30
   3 -10   8    1.90    1.10
   3 -10   8    2.00    1.20
  -4  10  -8    6.80    2.20
  -4  10  -8    1.60    1.60
   4 -10   8    9.70    1.90
   6   9  -8    3.80    1.70
   6   9  -8    2.40    1.70
   6   9  -8    3.90    1.70
  -6  -9   8    4.20    2.00
  -6  -9   8    2.60    2.00
  -6  -9   8    1.30    1.50
  -6  -9   8    1.50    1.20
   5   9  -8    1.20    1.20
   5   9  -8    0.20    1.20
  -5  -9   8    1.70    1.50
  -5  -9   8    1.90    1.60
  -5  -9   8    0.40    1.10
  -5  -9   8    4.30    1.90
   4   9  -8    2.10    1.00
   4   9  -8    1.20    1.30
   4   9  -8    4.50    1.40
   4   9  -8    3.10    1.40
  -4  -9   8    2.90    1.40
  -4  -9   8    2.60    1.20
  -4  -9   8    3.40    1.50
  -4  -9   8    4.80    1.70
  -4  -9   8    2.60    1.10
  -4  -9   8    2.70    1.20
   3   9  -8   -0.30    0.70
   3   9  -8    1.10    1.00
   3   9  -8    0.60    0.90
   3   9  -8    0.10    1.00
  -3  -9   8    0.80    1.20
  -3  -9   8    1.80    1.10
  -3  -9   8    0.30    1.00
  -3  -9   8    0.80    0.80
  -3  -9   8    0.80    0.70
  -3  -9   8    1.20    1.20
   2   9  -8   11.60    1.90
   2   9  -8   10.60    1.90
   2   9  -8    9.20    1.70
   2   9  -8   13.00    1.90
  -2  -9   8   12.00    1.90
  -2  -9   8   11.60    1.70
  -2  -9   8    8.30    1.80
  -2  -9   8   11.10    1.90
  -2  -9   8   10.90    2.00
  -2  -9   8   11.90    1.70
   1   9  -8    6.30    1.50
   1   9  -8    6.00    1.30
   1   9  -8    3.80    1.40
   1   9  -8    5.30    1.30
  -1  -9   8   10.30    1.80
  -1  -9   8    6.40    1.50
  -1  -9   8    4.70    1.30
  -1  -9   8    6.30    1.60
   0   9  -8    0.00    0.90
   0   9  -8    1.30    1.10
   0  -9   8    1.90    1.00
   0  -9   8    0.00    0.80
   0  -9   8   -0.30    0.80
   0  -9   8   -1.10    0.70
  -1   9  -8   18.90    2.60
  -1   9  -8   21.30    2.30
  -1   9  -8   22.50    2.70
   1  -9   8   23.20    2.10
   1  -9   8   17.30    2.20
   1  -9   8   23.80    2.40
  -2   9  -8    2.80    1.10
  -2   9  -8    1.40    1.30
  -2   9  -8    1.60    1.00
   2  -9   8    2.60    1.30
   2  -9   8    1.70    1.10
   2  -9   8    2.40    1.20
  -3   9  -8    4.00    1.60
  -3   9  -8    4.30    1.60
  -3   9  -8    6.30    1.90
   3  -9   8    6.10    1.50
   3  -9   8   10.60    1.80
   3  -9   8    9.00    1.70
  -4   9  -8    4.00    1.60
  -4   9  -8    7.60    2.10
   4  -9   8    5.10    1.40
   4  -9   8    1.60    1.20
  -5   9  -8    2.30    1.70
  -5   9  -8    6.80    2.20
   5  -9   8    2.60    2.00
   5  -9   8    4.80    1.60
   7   8  -8    0.40    1.30
   7   8  -8    0.70    1.10
   7   8  -8   -0.90    1.20
  -7  -8   8   -0.60    1.00
  -7  -8   8   -1.70    1.70
  -7  -8   8    0.10    1.10
  -7  -8   8    2.40    1.90
   6   8  -8   -0.90    1.10
   6   8  -8   -0.10    1.20
  -6  -8   8    0.90    1.70
  -6  -8   8    0.80    0.90
  -6  -8   8    0.90    1.70
  -6  -8   8    0.90    1.00
   5   8  -8    1.10    1.30
   5   8  -8    1.10    1.00
   5   8  -8    1.30    1.00
  -5  -8   8    2.40    1.20
  -5  -8   8    2.60    1.60
  -5  -8   8    1.00    1.30
  -5  -8   8    1.40    1.10
  -5  -8   8    2.60    1.20
   4   8  -8    1.60    1.00
   4   8  -8    2.70    1.00
   4   8  -8    1.80    1.10
   4   8  -8    0.10    1.00
  -4  -8   8    1.00    1.20
  -4  -8   8    2.20    1.10
  -4  -8   8    3.90    1.50
  -4  -8   8    1.60    1.30
  -4  -8   8    1.70    0.90
  -4  -8   8    0.60    0.80
   3   8  -8   21.00    2.50
   3   8  -8   18.60    2.20
   3   8  -8   18.80    2.10
   3   8  -8   18.60    2.30
  -3  -8   8   18.80    2.20
  -3  -8   8   15.80    2.20
  -3  -8   8   17.00    2.00
  -3  -8   8   19.50    2.40
  -3  -8   8   19.70    2.40
  -3  -8   8   16.00    2.40
   2   8  -8    1.40    0.90
   2   8  -8    3.40    1.20
   2   8  -8    1.00    0.90
   2   8  -8    2.90    1.10
  -2  -8   8    1.60    1.00
  -2  -8   8    0.40    0.80
  -2  -8   8    0.70    1.00
  -2  -8   8    1.40    1.00
  -2  -8   8    0.70    0.80
  -2  -8   8    1.60    1.00
   1   8  -8   13.90    1.90
   1   8  -8   13.80    1.80
   1   8  -8   12.20    1.80
   1   8  -8   11.40    1.60
  -1  -8   8   13.10    1.80
  -1  -8   8   12.50    1.90
  -1  -8   8   13.20    1.90
  -1  -8   8   12.30    1.60
  -1  -8   8   10.00    1.50
  -1  -8   8   10.30    1.60
   0   8  -8   51.89    3.40
   0   8  -8   50.79    3.60
   0   8  -8   51.79    3.20
   0  -8   8   50.99    3.30
   0  -8   8   52.99    3.30
   0  -8   8   55.49    3.50
   0  -8   8   50.39    3.30
  -1   8  -8    6.20    1.50
  -1   8  -8    4.80    1.20
  -1   8  -8    4.30    1.20
   1  -8   8    4.20    1.20
   1  -8   8    4.30    1.20
   1  -8   8    5.70    1.30
  -2   8  -8   16.80    2.40
  -2   8  -8   22.00    2.50
  -2   8  -8   19.50    2.60
   2  -8   8   23.10    2.30
   2  -8   8   20.40    2.20
   2  -8   8   25.50    2.20
  -3   8  -8   24.90    2.80
  -3   8  -8   20.60    2.60
  -3   8  -8   18.90    2.70
   3  -8   8   28.20    2.50
   3  -8   8   23.70    2.40
   3  -8   8   27.20    2.50
  -4   8  -8   -0.30    1.20
  -4   8  -8    0.80    0.90
   4  -8   8   -0.10    0.80
   4  -8   8    0.70    1.10
   4  -8   8    0.40    1.00
  -5   8  -8    8.60    2.00
  -5   8  -8    8.20    2.10
  -5   8  -8   12.40    2.40
   5  -8   8   12.50    2.00
   5  -8   8   13.60    2.20
  -6   8  -8    0.10    1.60
  -6   8  -8    2.60    1.90
  -6   8  -8    0.70    1.50
   6  -8   8   -0.30    1.30
   6  -8   8    1.00    1.50
   6  -8   8    1.30    1.80
   7   7  -8    1.70    1.40
   7   7  -8    3.50    1.60
  -7  -7   8    1.10    1.40
  -7  -7   8    2.50    1.30
  -7  -7   8    2.80    2.00
   6   7  -8   -0.90    1.10
   6   7  -8    1.90    1.10
  -6  -7   8   -0.40    0.90
  -6  -7   8   -1.40    1.30
  -6  -7   8   -0.60    0.80
  -6  -7   8    0.20    1.20
   5   7  -8    3.10    1.10
   5   7  -8    3.40    1.10
   5   7  -8    3.50    1.30
   5   7  -8    3.30    1.10
  -5  -7   8    2.60    1.10
  -5  -7   8    2.10    1.30
  -5  -7   8    1.80    0.90
  -5  -7   8    2.90    1.50
  -5  -7   8    3.80    1.50
   4   7  -8   52.89    3.40
   4   7  -8   41.70    3.30
   4   7  -8   42.30    3.30
   4   7  -8   49.80    3.10
  -4  -7   8   42.50    3.40
  -4  -7   8   43.60    3.10
  -4  -7   8   36.60    3.60
  -4  -7   8   45.50    3.20
  -4  -7   8   41.50    3.40
   3   7  -8   16.80    2.10
   3   7  -8   16.10    2.00
   3   7  -8   16.90    2.30
   3   7  -8   18.30    2.00
  -3  -7   8   15.90    2.10
  -3  -7   8   17.50    2.20
  -3  -7   8   18.40    2.30
  -3  -7   8   19.40    2.20
  -3  -7   8   20.80    2.20
  -3  -7   8   16.40    2.20
   2   7  -8  184.68    8.40
   2   7  -8  196.58    8.10
   2   7  -8  163.08    8.10
   2   7  -8  172.98    8.20
  -2  -7   8  173.18    8.30
  -2  -7   8  155.98    8.10
  -2  -7   8  175.88    8.00
  -2  -7   8  181.28    8.10
  -2  -7   8  166.98    8.10
  -2  -7   8  176.98    8.20
   1   7  -8   27.50    2.30
   1   7  -8   27.00    2.00
   1   7  -8   25.60    2.20
   1   7  -8   26.80    2.20
   1   7  -8   30.00    2.30
  -1  -7   8   26.80    2.10
  -1  -7   8   25.70    2.40
  -1  -7   8   28.20    2.00
  -1  -7   8   23.50    2.10
  -1  -7   8   25.40    2.10
  -1  -7   8   26.30    2.20
   0   7  -8    9.80    1.60
   0   7  -8    8.90    1.50
   0   7  -8   11.80    1.50
   0   7  -8    9.90    1.40
   0  -7   8    9.30    1.40
   0  -7   8   11.00    1.50
   0  -7   8   10.80    1.50
   0  -7   8   10.40    1.50
  -1   7  -8    6.80    1.40
  -1   7  -8    6.60    1.30
  -1   7  -8    8.40    1.40
   1  -7   8    7.20    1.30
   1  -7   8    9.70    1.40
   1  -7   8    9.20    1.40
   1  -7   8    6.80    1.20
  -2   7  -8   11.20    1.80
  -2   7  -8   11.40    1.70
  -2   7  -8    6.50    1.60
   2  -7   8   11.00    1.60
   2  -7   8    9.60    1.50
   2  -7   8   11.60    1.60
  -3   7  -8   11.40    1.90
  -3   7  -8   11.70    1.90
   3  -7   8   15.10    1.90
   3  -7   8   11.90    1.80
  -4   7  -8    9.30    1.70
  -4   7  -8   10.60    1.80
  -4   7  -8   11.20    2.00
  -4   7  -8   11.20    2.10
   4  -7   8   13.60    2.00
   4  -7   8   13.10    2.00
   4  -7   8   14.50    2.00
  -5   7  -8    3.50    1.30
  -5   7  -8    0.30    1.30
  -5   7  -8    6.90    1.90
  -5   7  -8    4.30    1.50
  -5   7  -8    4.50    1.60
   5  -7   8    4.90    1.60
   5  -7   8    4.30    1.40
   5  -7   8    7.60    1.60
  -6   7  -8    4.20    1.90
  -6   7  -8    2.00    1.40
  -6   7  -8    1.50    1.50
  -6   7  -8    2.60    1.90
   6  -7   8    3.00    1.50
   6  -7   8    2.00    1.30
   6  -7   8    3.60    1.60
   8   6  -8    1.90    1.50
   8   6  -8    2.60    1.60
   8   6  -8    3.70    1.70
  -8  -6   8    2.10    2.30
  -8  -6   8    1.50    1.30
  -8  -6   8    2.80    1.50
  -8  -6   8    1.40    1.70
   7   6  -8    2.60    1.30
   7   6  -8    3.20    1.40
  -7  -6   8    1.80    1.60
  -7  -6   8    2.60    1.30
  -7  -6   8    1.60    1.20
  -7  -6   8    0.90    1.30
   6   6  -8   28.30    3.30
   6   6  -8   38.10    3.00
   6   6  -8   33.90    3.40
   6   6  -8   36.30    2.70
  -6  -6   8   30.10    3.60
  -6  -6   8   32.20    2.80
  -6  -6   8   29.00    3.00
  -6  -6   8   33.70    3.70
  -6  -6   8   30.00    3.40
  -6  -6   8   33.80    3.40
   5   6  -8   14.40    2.20
   5   6  -8   15.90    2.40
   5   6  -8   21.20    2.40
   5   6  -8   16.60    1.90
  -5  -6   8   19.30    2.30
  -5  -6   8   17.70    2.40
  -5  -6   8   18.70    2.10
  -5  -6   8   17.70    2.20
  -5  -6   8   15.20    2.30
  -5  -6   8   16.00    2.40
   4   6  -8   47.50    3.20
   4   6  -8   46.50    2.80
   4   6  -8   38.80    3.10
   4   6  -8   43.40    3.30
  -4  -6   8   38.80    3.10
  -4  -6   8   40.70    3.00
  -4  -6   8   36.70    3.10
  -4  -6   8   39.00    3.10
  -4  -6   8   41.70    3.00
   3   6  -8    2.40    0.90
   3   6  -8    3.30    0.90
   3   6  -8    4.80    1.30
   3   6  -8    4.10    0.80
  -3  -6   8    2.30    1.00
  -3  -6   8    3.30    1.10
  -3  -6   8    2.50    0.90
  -3  -6   8    3.50    1.00
  -3  -6   8    2.60    0.90
  -3  -6   8    3.80    1.00
   2   6  -8   13.80    1.50
   2   6  -8   20.90    2.00
   2   6  -8   18.40    2.10
   2   6  -8   15.80    1.80
  -2  -6   8   14.40    1.70
  -2  -6   8   20.10    2.00
  -2  -6   8   16.50    1.90
  -2  -6   8   14.40    1.80
  -2  -6   8   18.40    1.80
  -2  -6   8   17.00    2.00
   1   6  -8    3.20    1.00
   1   6  -8    2.80    0.80
   1   6  -8    1.60    0.60
   1   6  -8    3.90    0.80
  -1  -6   8    2.30    0.80
  -1  -6   8    2.40    0.80
  -1  -6   8    2.70    0.90
  -1  -6   8    1.70    0.70
  -1  -6   8    3.10    0.90
  -1  -6   8    4.10    0.90
   0   6  -8    1.00    0.80
   0   6  -8    1.10    0.70
   0   6  -8    0.60    0.60
   0   6  -8    0.20    0.50
   0  -6   8    1.30    0.70
   0  -6   8    1.90    0.60
   0  -6   8    0.60    0.50
   0  -6   8    2.10    0.80
   0  -6   8    0.90    0.70
   0  -6   8    1.50    0.70
  -1   6  -8    0.80    0.80
  -1   6  -8    1.40    0.70
  -1   6  -8    1.50    0.70
   1  -6   8    2.70    0.80
   1  -6   8    1.50    0.70
   1  -6   8    3.20    0.90
   1  -6   8    0.30    0.60
  -2   6  -8   74.89    4.30
  -2   6  -8   78.69    3.80
  -2   6  -8   68.69    3.80
  -2   6  -8   69.49    4.10
  -2   6  -8   71.69    4.20
   2  -6   8   79.49    4.10
   2  -6   8   73.59    4.00
   2  -6   8   81.89    4.10
   2  -6   8   58.69    3.80
  -3   6  -8    2.10    1.00
  -3   6  -8    2.10    1.00
  -3   6  -8    3.40    1.20
  -3   6  -8    5.10    1.30
   3  -6   8    3.50    1.00
   3  -6   8    5.00    1.20
   3  -6   8    5.30    1.20
  -4   6  -8   18.30    2.10
  -4   6  -8   13.80    2.10
  -4   6  -8   14.70    2.00
  -4   6  -8   10.30    1.90
  -4   6  -8   17.80    2.20
   4  -6   8   15.90    2.20
   4  -6   8   16.00    1.90
   4  -6   8   13.10    2.00
   4  -6   8   15.60    2.00
  -5   6  -8    1.20    1.30
  -5   6  -8    1.40    1.10
  -5   6  -8    1.80    1.10
  -5   6  -8    1.10    1.10
  -5   6  -8    2.20    1.20
   5  -6   8    1.90    1.40
   5  -6   8    1.00    1.20
   5  -6   8    1.40    1.10
   5  -6   8    1.20    1.10
  -6   6  -8    0.90    1.40
  -6   6  -8    0.60    1.40
  -6   6  -8   -2.20    1.00
  -6   6  -8    1.20    1.40
   6  -6   8    0.60    1.20
   6  -6   8    1.60    1.40
   6  -6   8    1.60    1.50
   8   5  -8    0.90    1.20
   8   5  -8    0.70    1.30
   8   5  -8    1.40    1.50
  -8  -5   8   -0.60    1.00
  -8  -5   8    1.40    1.50
  -8  -5   8    0.10    1.20
  -8  -5   8   -2.40    1.40
   7   5  -8   -0.10    1.10
   7   5  -8    1.20    1.00
   7   5  -8   -0.40    1.10
   7   5  -8   -0.10    1.20
  -7  -5   8   -1.30    1.00
  -7  -5   8   -0.80    1.00
  -7  -5   8    0.50    1.30
  -7  -5   8   -2.20    0.90
  -7  -5   8   -1.30    0.80
   6   5  -8    0.80    1.00
   6   5  -8    0.10    1.00
   6   5  -8    0.20    1.00
   6   5  -8   -0.20    0.70
  -6  -5   8    0.00    0.80
  -6  -5   8    0.70    1.20
  -6  -5   8   -0.30    0.80
  -6  -5   8   -0.10    0.70
  -6  -5   8   -1.10    0.70
   5   5  -8   -1.50    0.70
   5   5  -8    0.30    0.80
   5   5  -8    1.30    1.00
  -5  -5   8   -0.50    0.50
  -5  -5   8    0.20    0.90
  -5  -5   8    0.30    0.80
  -5  -5   8    0.00    0.50
  -5  -5   8    0.00    0.90
  -5  -5   8   -0.20    0.90
   4   5  -8   18.10    2.30
   4   5  -8   17.20    1.90
   4   5  -8   16.70    1.90
   4   5  -8   16.00    1.50
  -4  -5   8   18.50    2.10
  -4  -5   8   14.80    1.80
  -4  -5   8   17.10    2.20
  -4  -5   8   14.00    1.90
  -4  -5   8   18.10    2.20
  -4  -5   8   13.90    1.70
   3   5  -8   -0.30    0.40
   3   5  -8    1.30    0.70
   3   5  -8    0.60    0.70
   3   5  -8   -0.20    0.50
  -3  -5   8    1.70    0.70
  -3  -5   8    0.90    0.70
  -3  -5   8    0.00    0.50
  -3  -5   8    0.30    0.70
  -3  -5   8    0.40    0.60
  -3  -5   8    0.10    0.60
   2   5  -8    2.30    0.80
   2   5  -8    4.40    1.00
   2   5  -8    2.20    1.00
   2   5  -8    3.40    0.80
  -2  -5   8    3.10    0.80
  -2  -5   8    1.30    0.80
  -2  -5   8    1.70    0.80
  -2  -5   8    2.90    0.80
  -2  -5   8    1.70    0.80
  -2  -5   8    4.80    1.00
   1   5  -8   14.00    1.50
   1   5  -8   14.20    1.60
   1   5  -8   11.10    1.60
   1   5  -8   14.70    1.60
  -1  -5   8   11.90    1.50
  -1  -5   8   11.50    1.40
  -1  -5   8   12.70    1.50
  -1  -5   8   11.50    1.30
  -1  -5   8   13.50    1.50
  -1  -5   8   12.40    1.60
   0   5  -8   33.20    2.20
   0   5  -8   25.60    2.10
   0   5  -8   31.00    2.20
   0   5  -8   33.60    2.40
   0  -5   8   34.40    2.20
   0  -5   8   34.00    2.20
   0  -5   8   33.90    2.10
   0  -5   8   32.30    2.10
   0  -5   8   33.70    2.40
   0  -5   8   31.00    2.10
  -1   5  -8   -0.70    0.60
  -1   5  -8   -0.40    0.60
  -1   5  -8   -0.50    0.40
  -1   5  -8    0.50    0.50
  -1   5  -8   -0.60    0.40
   1  -5   8    0.20    0.50
   1  -5   8    0.80    0.70
   1  -5   8    0.40    0.60
   1  -5   8    0.40    0.50
  -2   5  -8   44.40    2.90
  -2   5  -8   49.99    2.90
  -2   5  -8   43.10    3.10
  -2   5  -8   50.19    3.20
  -2   5  -8   49.50    2.90
   2  -5   8   51.29    3.00
   2  -5   8   46.70    2.90
   2  -5   8   49.40    3.00
   2  -5   8   51.39    3.00
  -3   5  -8    3.60    1.20
  -3   5  -8    2.70    0.90
  -3   5  -8    3.30    1.00
  -3   5  -8    4.70    1.20
  -3   5  -8    2.30    0.80
   3  -5   8    5.40    1.30
   3  -5   8    4.00    1.10
   3  -5   8    4.70    1.10
   3  -5   8    3.10    1.00
   3  -5   8    5.80    1.30
  -4   5  -8   15.70    2.20
  -4   5  -8   24.30    2.60
  -4   5  -8   16.80    2.00
  -4   5  -8   20.40    2.40
  -4   5  -8   15.80    2.30
   4  -5   8   22.90    2.50
   4  -5   8   24.30    2.30
   4  -5   8   18.70    2.20
   4  -5   8   23.50    2.40
  -5   5  -8   -2.40    0.90
  -5   5  -8   -0.60    0.90
  -5   5  -8    0.60    1.00
  -5   5  -8   -0.30    0.80
  -5   5  -8   -1.00    0.90
   5  -5   8   -1.10    1.00
   5  -5   8   -1.10    1.00
   5  -5   8   -0.90    1.00
   5  -5   8   -0.50    1.00
  -6   5  -8   -1.20    1.30
  -6   5  -8   -1.70    1.20
  -6   5  -8    0.60    1.20
   6  -5   8   -1.00    1.20
   6  -5   8   -0.50    1.30
   6  -5   8    1.70    1.50
  -7   5  -8    0.20    1.40
  -7   5  -8    0.40    1.50
  -7   5  -8    0.30    1.50
   7  -5   8    0.80    1.60
   7  -5   8    0.40    1.60
   7  -5   8    1.40    1.60
   8   4  -8    0.90    1.50
   8   4  -8    3.40    1.50
  -8  -4   8    4.50    1.60
  -8  -4   8    5.30    1.60
  -8  -4   8    2.40    1.50
   7   4  -8    3.60    1.40
   7   4  -8    3.60    1.30
   7   4  -8    2.70    1.60
   7   4  -8    2.80    1.40
  -7  -4   8    3.20    1.30
  -7  -4   8    3.50    1.20
  -7  -4   8    5.80    1.90
  -7  -4   8    4.60    1.60
  -7  -4   8    2.00    1.20
  -7  -4   8    4.40    1.60
   6   4  -8    0.30    0.70
   6   4  -8   -0.70    1.00
   6   4  -8   -0.20    0.70
  -6  -4   8    0.70    0.90
  -6  -4   8    2.10    1.30
  -6  -4   8    0.10    0.70
  -6  -4   8    0.50    1.10
  -6  -4   8   -0.10    0.80
  -6  -4   8   -0.70    0.70
   5   4  -8   11.60    1.40
   5   4  -8   13.80    1.90
   5   4  -8   13.90    1.80
   5   4  -8   11.40    2.00
  -5  -4   8   10.50    1.80
  -5  -4   8   11.80    1.90
  -5  -4   8   10.00    1.60
  -5  -4   8   14.20    1.90
  -5  -4   8   12.40    1.90
  -5  -4   8   12.20    1.70
   4   4  -8   20.30    1.70
   4   4  -8   18.10    2.40
   4   4  -8   19.90    2.20
   4   4  -8   23.70    1.90
  -4  -4   8   22.50    2.30
  -4  -4   8   19.70    2.10
  -4  -4   8   19.50    2.20
  -4  -4   8   20.30    2.20
  -4  -4   8   23.60    2.20
  -4  -4   8   21.50    2.30
   3   4  -8   15.50    1.80
   3   4  -8   14.80    1.40
   3   4  -8   15.30    1.70
  -3  -4   8   10.50    1.50
  -3  -4   8   15.30    1.70
  -3  -4   8   13.00    1.60
  -3  -4   8   16.60    1.90
  -3  -4   8   14.10    1.70
  -3  -4   8   11.10    1.50
   2   4  -8    4.70    1.00
   2   4  -8    6.90    1.00
   2   4  -8    6.70    1.10
  -2  -4   8    3.20    0.90
  -2  -4   8    5.90    1.10
  -2  -4   8    5.50    1.10
  -2  -4   8    3.80    0.90
  -2  -4   8    6.50    1.00
  -2  -4   8    5.40    1.10
   1   4  -8   10.20    1.40
   1   4  -8   11.10    1.30
   1   4  -8   12.20    1.10
   1   4  -8   11.80    1.40
  -1  -4   8   10.30    1.20
  -1  -4   8   11.70    1.40
  -1  -4   8    9.20    1.40
  -1  -4   8   11.50    1.20
  -1  -4   8   11.20    1.30
  -1  -4   8   11.80    1.40
  -1  -4   8   13.20    1.50
   0   4  -8  145.99    6.80
   0   4  -8  151.38    6.50
   0   4  -8  151.48    6.80
   0   4  -8  151.08    6.40
   0   4  -8  146.79    6.70
   0  -4   8  150.18    6.80
   0  -4   8  155.18    6.70
   0  -4   8  156.18    6.50
   0  -4   8  154.98    6.80
   0  -4   8  143.99    6.90
   0  -4   8  155.68    6.80
  -1   4  -8    0.70    0.60
  -1   4  -8   -0.20    0.60
  -1   4  -8    2.10    0.60
  -1   4  -8    2.30    0.70
  -1   4  -8    0.60    0.60
   1  -4   8    1.50    0.60
   1  -4   8    2.10    0.70
   1  -4   8    1.40    0.60
   1  -4   8    1.20    0.60
   1  -4   8    1.90    0.60
   1  -4   8    2.30    0.90
  -2   4  -8   47.50    2.90
  -2   4  -8   49.20    2.90
  -2   4  -8   46.60    2.90
  -2   4  -8   44.90    3.10
  -2   4  -8   46.20    3.10
   2  -4   8   54.09    3.20
   2  -4   8   52.69    3.10
   2  -4   8   56.49    3.20
   2  -4   8   52.89    3.10
  -3   4  -8    3.10    1.10
  -3   4  -8    4.10    1.10
  -3   4  -8    3.80    1.00
  -3   4  -8    2.70    0.90
  -3   4  -8    2.40    1.00
   3  -4   8    3.20    1.10
   3  -4   8    5.10    1.10
   3  -4   8    4.80    1.20
   3  -4   8    5.60    1.30
  -4   4  -8    5.10    1.30
  -4   4  -8    6.20    1.40
  -4   4  -8    5.80    1.40
  -4   4  -8    4.20    1.30
  -4   4  -8    7.80    1.50
   4  -4   8    6.40    1.50
   4  -4   8    9.20    1.50
   4  -4   8    5.70    1.40
   4  -4   8    7.50    1.40
  -5   4  -8   -0.50    1.00
  -5   4  -8    1.50    1.00
  -5   4  -8   -0.10    0.80
  -5   4  -8    0.80    1.20
   5  -4   8    1.30    1.20
   5  -4   8   -0.30    1.10
   5  -4   8    3.30    1.40
  -6   4  -8   -0.20    1.50
  -6   4  -8    3.30    1.60
  -6   4  -8    1.60    1.20
   6  -4   8    2.30    1.50
   6  -4   8    3.20    1.60
   6  -4   8    2.70    1.30
  -7   4  -8    0.30    1.70
  -7   4  -8    0.20    1.60
  -7   4  -8    0.70    1.50
   7  -4   8   -0.70    1.50
   7  -4   8    1.00    1.60
   7  -4   8    1.70    1.70
   8   3  -8   -0.90    1.10
   8   3  -8    0.20    1.30
   8   3  -8    0.40    1.10
  -8  -3   8   -0.40    1.00
  -8  -3   8   -0.30    1.20
  -8  -3   8   -1.80    1.20
  -8  -3   8    1.30    1.20
   7   3  -8    1.10    1.10
   7   3  -8    3.30    1.40
   7   3  -8    4.70    1.60
  -7  -3   8    4.80    1.50
  -7  -3   8    3.30    1.20
  -7  -3   8    4.80    1.40
  -7  -3   8    6.20    1.50
  -7  -3   8    2.10    1.30
   6   3  -8    4.90    1.50
   6   3  -8    8.10    1.60
   6   3  -8   11.40    1.60
   6   3  -8   11.30    1.90
  -6  -3   8   11.40    2.00
  -6  -3   8    9.40    1.60
  -6  -3   8   11.90    1.90
  -6  -3   8   10.00    1.80
  -6  -3   8   10.70    1.80
  -6  -3   8   10.20    1.80
   5   3  -8    2.30    1.10
   5   3  -8    1.40    1.00
   5   3  -8    0.90    0.80
   5   3  -8    2.00    1.10
  -5  -3   8   -0.20    0.60
  -5  -3   8    2.80    1.10
  -5  -3   8    2.30    1.00
  -5  -3   8    1.80    1.10
  -5  -3   8    1.60    0.80
  -5  -3   8    1.60    0.70
   4   3  -8    3.20    1.10
   4   3  -8    3.70    1.10
   4   3  -8    2.70    0.80
  -4  -3   8    1.90    1.00
  -4  -3   8    2.30    0.80
  -4  -3   8    1.70    0.70
  -4  -3   8    0.60    0.80
  -4  -3   8    1.70    1.00
  -4  -3   8    2.50    0.90
   3   3  -8   -0.80    0.60
   3   3  -8    0.60    0.60
   3   3  -8    0.30    0.50
  -3  -3   8   -0.60    0.50
  -3  -3   8    0.50    0.60
  -3  -3   8   -0.30    0.50
  -3  -3   8    0.40    0.50
  -3  -3   8   -0.20    0.60
  -3  -3   8    0.50    0.70
   2   3  -8    7.00    1.30
   2   3  -8    4.60    0.90
   2   3  -8    5.70    0.90
   2   3  -8    5.60    0.70
   2   3  -8    6.30    0.70
  -2  -3   8    5.80    1.00
  -2  -3   8    6.30    1.00
  -2  -3   8    5.60    1.10
  -2  -3   8    5.50    1.00
  -2  -3   8    2.60    0.70
  -2  -3   8    5.00    1.00
   1   3  -8   16.00    1.10
   1   3  -8   16.30    1.20
   1   3  -8   16.90    1.60
   1   3  -8   16.30    1.60
   1   3  -8   16.40    1.40
  -1  -3   8   13.30    1.50
  -1  -3   8   16.90    1.40
  -1  -3   8   15.90    1.10
  -1  -3   8   15.30    1.50
  -1  -3   8   15.40    1.20
  -1  -3   8   17.60    1.80
  -1  -3   8   18.00    1.70
   0   3  -8   12.20    1.30
   0   3  -8   12.00    1.10
   0   3  -8   12.20    1.20
   0   3  -8   10.20    1.30
   0   3  -8   12.10    1.40
   0  -3   8   10.80    1.30
   0  -3   8   12.70    1.30
   0  -3   8    9.80    1.20
   0  -3   8   10.20    1.10
   0  -3   8   10.70    1.30
   0  -3   8   11.00    1.10
   0  -3   8   10.90    1.40
  -1   3  -8    0.60    0.60
  -1   3  -8   -0.30    0.50
  -1   3  -8    0.20    0.40
  -1   3  -8    0.30    0.40
  -1   3  -8    1.40    0.60
  -1   3  -8    0.10    0.50
   1  -3   8   -0.40    0.60
   1  -3   8    0.10    0.50
   1  -3   8    0.10    0.40
   1  -3   8    0.00    0.50
   1  -3   8   -0.30    0.50
   1  -3   8    1.10    0.70
  -2   3  -8    8.80    1.20
  -2   3  -8    9.70    1.40
  -2   3  -8    7.60    1.30
  -2   3  -8    6.90    1.10
  -2   3  -8    8.70    1.20
   2  -3   8    7.10    1.20
   2  -3   8    8.00    1.20
   2  -3   8    9.40    1.40
   2  -3   8    8.60    1.40
  -3   3  -8    8.50    1.40
  -3   3  -8   10.70    1.50
  -3   3  -8   10.30    1.50
  -3   3  -8   12.20    1.60
  -3   3  -8   13.40    1.70
   3  -3   8    9.80    1.50
   3  -3   8   11.10    1.70
   3  -3   8   10.40    1.70
   3  -3   8    9.10    1.50
  -4   3  -8   21.20    2.40
  -4   3  -8   19.90    2.20
  -4   3  -8   24.80    2.60
  -4   3  -8   25.60    2.50
  -4   3  -8   26.80    2.70
   4  -3   8   22.90    2.40
   4  -3   8   21.90    2.50
   4  -3   8   28.20    2.50
   4  -3   8   21.80    2.50
  -5   3  -8    1.10    1.20
  -5   3  -8    1.10    1.10
  -5   3  -8    1.10    1.00
  -5   3  -8    2.80    1.30
   5  -3   8    2.00    1.10
   5  -3   8    2.20    1.40
   5  -3   8    0.70    0.90
   5  -3   8    0.20    1.00
  -6   3  -8   18.90    2.70
  -6   3  -8   16.70    2.60
  -6   3  -8   15.60    2.50
   6  -3   8   21.60    3.70
   6  -3   8   17.10    2.60
   6  -3   8   14.80    2.50
  -7   3  -8    2.50    1.70
  -7   3  -8    1.70    1.60
  -7   3  -8    3.90    1.80
   7  -3   8    2.00    1.70
   7  -3   8    5.80    2.10
   9   2  -8    0.50    1.30
   9   2  -8    2.70    1.60
   9   2  -8    2.40    1.70
  -9  -2   8    1.10    1.20
  -9  -2   8    1.00    1.50
   8   2  -8    1.20    1.20
   8   2  -8   -0.40    0.90
   8   2  -8    0.40    1.40
  -8  -2   8   -1.30    1.10
  -8  -2   8   -0.30    0.90
  -8  -2   8    0.20    0.90
  -8  -2   8   -1.10    1.30
  -8  -2   8   -0.30    1.20
  -8  -2   8    1.70    1.80
   7   2  -8    1.20    1.20
   7   2  -8    0.90    1.00
   7   2  -8    1.80    1.20
   7   2  -8   -0.30    1.30
  -7  -2   8   -0.40    0.80
  -7  -2   8   -1.30    1.10
  -7  -2   8    1.50    1.00
  -7  -2   8    0.30    1.00
  -7  -2   8   -0.40    1.20
  -7  -2   8   -0.70    1.00
   6   2  -8   13.20    1.90
   6   2  -8    7.00    1.50
   6   2  -8   12.40    1.80
   6   2  -8   11.60    2.10
  -6  -2   8    7.40    1.50
  -6  -2   8   10.50    1.90
  -6  -2   8    9.90    1.70
  -6  -2   8    9.80    1.60
  -6  -2   8   10.70    1.90
  -6  -2   8   10.10    1.70
   5   2  -8   13.80    2.10
   5   2  -8   15.40    1.80
   5   2  -8   13.40    1.80
  -5  -2   8   13.80    1.90
  -5  -2   8   13.30    1.80
  -5  -2   8   11.50    1.60
  -5  -2   8   14.50    1.90
  -5  -2   8   10.60    1.70
  -5  -2   8   13.10    1.90
   4   2  -8  237.18   10.40
   4   2  -8  242.38   10.20
   4   2  -8  238.58    9.90
   4   2  -8  227.98   10.60
   4   2  -8  252.97    9.70
  -4  -2   8  231.48   10.20
  -4  -2   8  222.78   10.30
  -4  -2   8  223.58   10.40
  -4  -2   8  245.48   10.50
  -4  -2   8  232.58   10.40
  -4  -2   8  228.08   10.40
   3   2  -8    7.40    1.50
   3   2  -8    7.10    1.10
   3   2  -8    7.90    0.90
   3   2  -8    8.70    1.40
   3   2  -8    7.60    0.90
  -3  -2   8    9.40    1.20
  -3  -2   8    6.50    1.10
  -3  -2   8    7.80    1.20
  -3  -2   8    6.50    1.20
  -3  -2   8    9.60    1.40
  -3  -2   8   10.30    1.40
   2   2  -8  140.09    6.30
   2   2  -8  140.69    6.20
   2   2  -8  134.59    5.80
   2   2  -8  142.69    6.60
   2   2  -8  137.99    5.90
  -2  -2   8  136.09    6.10
  -2  -2   8  139.99    6.50
  -2  -2   8  130.89    6.40
  -2  -2   8  138.79    6.40
  -2  -2   8  139.99    6.40
   1   2  -8  138.79    5.90
   1   2  -8  145.89    6.30
   1   2  -8  135.09    6.20
   1   2  -8  136.29    6.00
   1   2  -8  140.39    6.40
  -1  -2   8  142.79    6.30
  -1  -2   8  136.59    6.40
  -1  -2   8  138.89    6.40
  -1  -2   8  142.09    6.50
  -1  -2   8  142.49    5.90
  -1  -2   8  136.19    6.10
   0   2  -8    5.20    0.90
   0   2  -8    5.00    0.80
   0   2  -8    3.10    0.70
   0   2  -8    2.80    0.70
   0   2  -8    3.90    0.70
   0  -2   8    5.00    1.00
   0  -2   8    3.20    0.80
   0  -2   8    3.00    0.80
   0  -2   8    3.60    0.70
   0  -2   8    5.00    0.80
   0  -2   8    4.50    0.70
   0  -2   8    5.00    1.00
  -1   2  -8   -0.30    0.50
  -1   2  -8    0.50    0.50
  -1   2  -8    0.60    0.50
  -1   2  -8    1.10    0.50
  -1   2  -8    1.80    0.70
  -1   2  -8    1.20    0.60
   1  -2   8    1.00    0.60
   1  -2   8    0.40    0.60
   1  -2   8    1.20    0.60
   1  -2   8    2.00    0.70
   1  -2   8    0.50    0.70
   1  -2   8    1.10    0.60
  -2   2  -8   59.79    3.30
  -2   2  -8   59.49    3.50
  -2   2  -8   58.69    3.30
  -2   2  -8   69.19    3.50
  -2   2  -8   58.39    3.40
   2  -2   8   65.19    3.50
   2  -2   8   59.49    3.60
   2  -2   8   62.49    3.30
   2  -2   8   65.39    3.60
   2  -2   8   61.89    3.60
  -3   2  -8   32.60    2.30
  -3   2  -8   28.60    2.30
  -3   2  -8   32.90    2.40
  -3   2  -8   31.40    2.40
  -3   2  -8   34.60    2.50
   3  -2   8   33.60    2.70
   3  -2   8   40.40    2.80
   3  -2   8   33.60    2.60
   3  -2   8   33.20    2.70
  -4   2  -8    5.90    1.30
  -4   2  -8    8.60    1.50
  -4   2  -8    7.60    1.40
  -4   2  -8    8.70    1.60
   4  -2   8    7.10    1.60
   4  -2   8    5.90    1.60
   4  -2   8    9.90    1.70
   4  -2   8    4.70    1.20
  -5   2  -8    1.60    1.20
  -5   2  -8    1.10    1.00
  -5   2  -8   -1.20    0.80
  -5   2  -8   -0.30    0.90
   5  -2   8    0.90    1.10
   5  -2   8    0.40    0.80
   5  -2   8    0.50    1.30
   5  -2   8   -0.20    1.20
  -6   2  -8    0.70    1.20
  -6   2  -8   -1.40    1.30
  -6   2  -8    0.20    1.00
   6  -2   8   -2.00    1.40
   6  -2   8    1.00    1.20
   6  -2   8   -0.10    1.20
   6  -2   8    0.20    1.10
  -7   2  -8    4.10    1.70
  -7   2  -8    5.20    2.00
  -7   2  -8    3.40    1.90
   7  -2   8    4.30    1.70
   7  -2   8    5.20    2.10
   9   1  -8    0.70    1.50
   9   1  -8   -0.70    1.70
  -9  -1   8   -1.20    1.80
  -9  -1   8   -1.00    1.50
  -9  -1   8    0.60    1.50
   8   1  -8   21.60    2.80
   8   1  -8   22.60    3.00
   8   1  -8   25.50    2.90
   8   1  -8   22.60    3.00
  -8  -1   8   28.00    3.00
  -8  -1   8   25.40    3.30
  -8  -1   8   19.50    2.70
  -8  -1   8   22.90    2.70
  -8  -1   8   17.30    2.70
   7   1  -8    1.90    1.20
   7   1  -8   -0.10    1.30
   7   1  -8    0.80    1.00
   7   1  -8    1.30    1.30
  -7  -1   8    0.40    1.00
  -7  -1   8   -1.00    1.20
  -7  -1   8    0.00    1.20
  -7  -1   8    0.50    1.00
  -7  -1   8    1.50    1.00
  -7  -1   8    1.70    1.20
   6   1  -8  143.29    7.20
   6   1  -8  137.29    7.40
   6   1  -8  143.79    7.00
  -6  -1   8  148.19    7.50
  -6  -1   8  137.89    6.90
  -6  -1   8  140.89    7.20
  -6  -1   8  137.09    7.10
  -6  -1   8  136.69    7.00
  -6  -1   8  148.49    7.50
   5   1  -8   90.99    5.10
   5   1  -8   88.79    5.30
   5   1  -8   88.89    4.40
   5   1  -8   96.79    4.40
   5   1  -8   95.09    4.90
  -5  -1   8   89.79    5.10
  -5  -1   8   90.29    4.90
  -5  -1   8   94.29    5.00
  -5  -1   8   88.69    5.10
  -5  -1   8   85.99    5.00
  -5  -1   8  104.39    5.40
   4   1  -8   83.19    4.70
   4   1  -8   93.19    4.20
   4   1  -8   79.39    4.80
   4   1  -8   91.59    4.50
   4   1  -8   87.09    4.10
  -4  -1   8   87.79    4.60
  -4  -1   8   82.79    4.30
  -4  -1   8   78.19    4.50
  -4  -1   8   90.69    4.80
  -4  -1   8   77.09    4.50
  -4  -1   8   88.29    4.80
   3   1  -8   39.80    2.50
   3   1  -8   47.00    2.90
   3   1  -8   43.20    2.30
   3   1  -8   43.60    2.30
   3   1  -8   42.30    3.00
  -3  -1   8   47.00    2.80
  -3  -1   8   45.30    2.90
  -3  -1   8   39.90    2.40
  -3  -1   8   38.00    2.70
  -3  -1   8   40.50    2.80
  -3  -1   8   42.40    2.70
   2   1  -8   12.90    1.40
   2   1  -8   15.50    1.20
   2   1  -8   16.30    1.20
   2   1  -8   15.10    1.60
   2   1  -8   19.60    2.00
  -2  -1   8   15.60    1.70
  -2  -1   8   20.90    1.90
  -2  -1   8   15.90    1.70
  -2  -1   8   17.20    1.70
  -2  -1   8   14.90    1.70
  -2  -1   8   16.30    1.30
   1   1  -8   69.99    3.30
   1   1  -8   73.19    3.60
   1   1  -8   68.39    3.60
   1   1  -8   64.89    3.30
   1   1  -8   70.19    3.80
  -1  -1   8   70.49    3.80
  -1  -1   8   70.89    3.80
  -1  -1   8   69.19    3.80
  -1  -1   8   72.09    3.60
  -1  -1   8   70.89    3.40
   0   1  -8    5.90    0.90
   0   1  -8    3.90    0.70
   0   1  -8    6.60    1.00
   0   1  -8    5.10    0.80
   0   1  -8    5.30    0.90
   0   1  -8    6.50    0.90
   0  -1   8    4.20    0.90
   0  -1   8    5.10    0.70
   0  -1   8    5.80    1.10
   0  -1   8    4.80    0.80
   0  -1   8    3.40    0.90
   0  -1   8    4.00    0.90
   0  -1   8    4.30    0.70
  -1   1  -8    0.00    0.50
  -1   1  -8    0.10    0.40
  -1   1  -8    0.90    0.50
  -1   1  -8    0.90    0.50
  -1   1  -8    0.50    0.50
   1  -1   8    0.40    0.60
   1  -1   8    0.50    0.60
   1  -1   8    1.00    0.60
   1  -1   8    0.00    0.80
   1  -1   8    0.10    0.70
   1  -1   8    0.70    0.60
  -2   1  -8    7.10    1.00
  -2   1  -8    8.30    1.50
  -2   1  -8    7.50    1.20
  -2   1  -8    9.60    1.30
  -2   1  -8    8.00    1.20
  -2   1  -8   10.10    1.40
   2  -1   8    7.20    1.30
   2  -1   8    7.10    1.50
   2  -1   8    6.70    1.20
   2  -1   8    9.10    1.50
   2  -1   8    6.40    1.10
   2  -1   8    6.40    1.10
  -3   1  -8   41.40    2.80
  -3   1  -8   40.10    3.20
  -3   1  -8   35.50    2.50
  -3   1  -8   33.80    2.50
  -3   1  -8   34.60    3.10
  -3   1  -8   36.60    2.60
   3  -1   8   36.60    2.80
   3  -1   8   37.60    3.00
   3  -1   8   35.30    2.50
   3  -1   8   39.90    2.90
   3  -1   8   32.60    2.70
  -4   1  -8   12.50    2.30
  -4   1  -8   10.50    1.60
  -4   1  -8   14.10    1.90
  -4   1  -8   13.30    1.90
  -4   1  -8   13.10    2.40
  -4   1  -8   15.00    2.10
   4  -1   8   12.90    2.00
   4  -1   8   16.90    2.30
   4  -1   8   16.40    2.20
   4  -1   8   14.90    2.20
  -5   1  -8   -0.80    0.90
  -5   1  -8   -0.30    0.80
  -5   1  -8    0.70    1.50
  -5   1  -8    0.30    0.90
  -5   1  -8   -0.10    1.40
  -5   1  -8   -1.00    0.80
   5  -1   8   -0.60    0.90
   5  -1   8    0.60    1.10
   5  -1   8   -0.80    1.10
   5  -1   8   -0.30    1.30
  -6   1  -8    1.00    1.20
  -6   1  -8    2.10    2.10
  -6   1  -8    1.30    1.50
  -6   1  -8    0.50    1.60
  -6   1  -8    2.90    1.50
   6  -1   8    2.30    1.70
   6  -1   8   -0.30    1.30
   6  -1   8    6.80    1.90
   6  -1   8    1.30    2.10
  -7   1  -8   -1.50    1.60
  -7   1  -8    0.20    1.70
  -7   1  -8    4.50    1.80
   7  -1   8    1.10    1.70
   7  -1   8    2.00    2.10
   7  -1   8    0.00    1.80
   9   0  -8    3.60    1.70
   9   0  -8    0.80    1.80
   9   0  -8    4.50    2.00
  -9   0   8    5.10    2.10
  -9   0   8    7.10    2.10
  -9   0   8    0.70    1.60
   8   0  -8    8.20    2.20
   8   0  -8    8.60    1.90
   8   0  -8    9.20    2.00
   8   0  -8    8.50    2.00
  -8   0   8    9.00    2.00
  -8   0   8   11.00    1.90
  -8   0   8    9.20    2.20
  -8   0   8    4.80    1.80
  -8   0   8    6.40    1.80
   7   0  -8    4.90    1.60
   7   0  -8    6.60    1.90
   7   0  -8    4.90    1.50
   7   0  -8    7.30    1.40
  -7   0   8   10.00    1.60
  -7   0   8    6.50    1.80
  -7   0   8    8.50    2.00
  -7   0   8    6.50    1.80
  -7   0   8   10.40    1.80
   6   0  -8    7.90    1.70
   6   0  -8   11.20    1.70
   6   0  -8    8.60    2.00
   6   0  -8    8.00    1.30
   6   0  -8    8.20    1.20
  -6   0   8   11.20    2.00
  -6   0   8    7.70    1.80
  -6   0   8    8.50    1.50
  -6   0   8    8.90    1.60
  -6   0   8    9.90    1.60
  -6   0   8    5.50    1.50
   5   0  -8    6.80    1.40
   5   0  -8    5.90    1.50
   5   0  -8    7.00    1.30
   5   0  -8    7.70    1.10
   5   0  -8    5.60    1.10
  -5   0   8    8.90    1.60
  -5   0   8    7.60    1.40
  -5   0   8    6.20    1.40
  -5   0   8    9.50    1.60
  -5   0   8    5.90    1.30
  -5   0   8    4.90    1.20
   4   0  -8    1.40    0.60
   4   0  -8    1.70    0.60
   4   0  -8    0.00    0.70
   4   0  -8    0.20    0.80
   4   0  -8    0.80    1.10
  -4   0   8    1.60    1.00
  -4   0   8    1.50    0.90
  -4   0   8    1.80    0.70
  -4   0   8    2.50    1.00
  -4   0   8    0.30    0.80
  -4   0   8    1.00    0.70
   3   0  -8    1.30    1.00
   3   0  -8    2.00    0.80
   3   0  -8    1.60    0.90
   3   0  -8    1.20    0.50
   3   0  -8    0.60    0.50
  -3   0   8    1.00    0.60
  -3   0   8    0.30    0.40
  -3   0   8    0.60    0.50
  -3   0   8    1.60    0.80
  -3   0   8    1.30    0.80
  -3   0   8    0.50    0.70
   2   0  -8   57.99    2.80
   2   0  -8   61.69    3.00
   2   0  -8   53.09    2.90
   2   0  -8   52.79    3.20
   2   0  -8   60.49    3.60
   2   0  -8   56.89    3.10
  -2   0   8   56.19    3.30
  -2   0   8   60.49    3.40
  -2   0   8   60.79    3.30
  -2   0   8   58.69    2.90
  -2   0   8   60.29    3.40
  -2   0   8   63.89    3.60
   1   0  -8   27.70    1.90
   1   0  -8   27.20    1.80
   1   0  -8   26.40    1.80
   1   0  -8   27.90    1.70
   1   0  -8   30.60    2.00
   1   0  -8   29.20    2.30
  -1   0   8   28.90    1.80
  -1   0   8   30.40    2.20
  -1   0   8   27.30    2.10
  -1   0   8   27.50    2.10
  -1   0   8   29.20    1.90
  -1   0   8   31.40    2.10
   0   0  -8    8.40    1.20
   0   0  -8   10.50    1.20
   0   0  -8    9.50    1.10
   0   0  -8   10.70    1.20
   0   0  -8    9.30    1.10
   0   0  -8    9.80    1.20
   0   0   8   10.00    1.20
   0   0   8    9.30    1.40
   0   0   8   11.30    1.40
   0   0   8    9.60    1.20
   0   0   8   10.70    1.10
   0   0   8    9.30    1.40
  -1   0  -8    2.60    0.80
  -1   0  -8    2.40    0.70
  -1   0  -8    3.40    0.80
  -1   0  -8    2.50    0.70
  -1   0  -8    1.50    0.80
  -1   0  -8    3.10    0.70
   1   0   8    3.40    0.90
   1   0   8    2.20    0.80
   1   0   8    3.30    0.90
   1   0   8    2.50    0.70
   1   0   8    3.00    1.00
   1   0   8    2.00    1.00
  -2   0  -8   14.80    1.70
  -2   0  -8   15.10    1.70
  -2   0  -8   13.20    1.90
  -2   0  -8   13.90    1.90
  -2   0  -8   12.70    1.50
  -2   0  -8   12.80    1.50
   2   0   8   12.00    1.90
   2   0   8   11.00    1.50
   2   0   8   13.70    1.70
   2   0   8   11.80    1.70
   2   0   8   11.60    1.60
   2   0   8   12.10    1.60
  -3   0  -8   10.10    1.90
  -3   0  -8    8.80    1.80
  -3   0  -8   10.90    1.50
  -3   0  -8   14.10    1.70
  -3   0  -8   12.00    1.60
  -3   0  -8   13.00    1.70
   3   0   8   11.60    1.80
   3   0   8   12.30    1.60
   3   0   8    7.70    1.70
   3   0   8   10.60    1.90
   3   0   8   10.90    1.70
  -4   0  -8    2.60    1.50
  -4   0  -8    5.20    1.20
  -4   0  -8    3.60    1.50
  -4   0  -8    5.80    1.30
  -4   0  -8    9.10    1.50
  -4   0  -8    5.40    1.30
   4   0   8    3.30    1.30
   4   0   8    4.60    1.50
   4   0   8    5.20    1.60
   4   0   8    5.80    1.70
  -5   0  -8    1.40    1.00
  -5   0  -8    0.40    1.30
  -5   0  -8   -1.10    1.00
  -5   0  -8    0.10    0.90
  -5   0  -8    0.10    1.10
  -5   0  -8   -0.40    1.30
   5   0   8   -1.30    1.20
   5   0   8   -0.60    1.20
   5   0   8   -1.60    1.00
   5   0   8    0.60    1.30
  -6   0  -8   -0.30    1.30
  -6   0  -8   -1.10    1.40
  -6   0  -8    0.60    1.40
   6   0   8    1.60    1.70
   6   0   8    1.10    1.10
   6   0   8    0.80    1.60
   9  -1  -8    5.80    2.00
   9  -1  -8    3.40    1.80
   8  -1  -8    1.80    1.80
   8  -1  -8    2.20    1.30
   8  -1  -8    2.50    1.50
   8  -1  -8    3.10    1.10
  -8   1   8    3.20    1.50
  -8   1   8    5.30    1.90
  -8   1   8    0.70    1.20
  -8   1   8    4.10    1.80
  -8   1   8    2.50    1.40
   7  -1  -8   -0.10    1.10
   7  -1  -8    0.10    1.10
   7  -1  -8   -0.40    0.70
   7  -1  -8   -0.70    0.60
  -7   1   8    0.20    0.90
  -7   1   8   -0.90    0.90
  -7   1   8    0.00    1.30
  -7   1   8    1.00    1.10
  -7   1   8   -1.00    1.10
   6  -1  -8    0.10    1.00
   6  -1  -8    0.70    0.70
   6  -1  -8    0.90    0.80
   6  -1  -8   -0.50    0.70
  -6   1   8   -0.30    0.70
  -6   1   8   -0.20    0.70
  -6   1   8    0.60    0.70
  -6   1   8    2.60    1.30
  -6   1   8   -0.20    1.10
   5  -1  -8   26.60    2.80
   5  -1  -8   28.60    2.10
   5  -1  -8   31.30    2.50
   5  -1  -8   30.90    2.20
  -5   1   8   26.30    2.60
  -5   1   8   28.40    2.30
  -5   1   8   32.80    3.10
  -5   1   8   29.60    2.40
  -5   1   8   22.50    2.70
  -5   1   8   31.40    2.70
   4  -1  -8   22.20    1.80
   4  -1  -8   21.70    2.30
   4  -1  -8   24.80    1.80
   4  -1  -8   22.20    1.90
  -4   1   8   17.70    2.20
  -4   1   8   23.20    2.40
  -4   1   8   21.80    1.90
  -4   1   8   21.80    2.20
  -4   1   8   21.60    2.30
  -4   1   8   20.20    2.30
   3  -1  -8    4.30    1.10
   3  -1  -8    6.00    1.00
   3  -1  -8    9.10    1.30
   3  -1  -8    6.50    1.00
   3  -1  -8    7.90    0.90
  -3   1   8    6.90    1.20
  -3   1   8    7.60    1.40
  -3   1   8    5.70    1.30
  -3   1   8    9.30    1.40
  -3   1   8    6.80    1.20
   2  -1  -8   13.40    1.50
   2  -1  -8   14.10    1.40
   2  -1  -8   14.30    1.30
   2  -1  -8   14.10    1.60
   2  -1  -8   13.20    1.40
  -2   1   8   13.20    1.70
  -2   1   8   14.40    1.60
  -2   1   8   17.20    1.90
  -2   1   8   13.20    1.60
  -2   1   8   15.50    1.20
  -2   1   8   13.20    1.60
   1  -1  -8   59.09    3.10
   1  -1  -8   53.99    3.10
   1  -1  -8   59.49    3.00
   1  -1  -8   57.59    3.00
   1  -1  -8   58.59    3.10
  -1   1   8   64.49    3.00
  -1   1   8   58.99    3.40
  -1   1   8   54.89    3.30
  -1   1   8   59.49    3.30
  -1   1   8   64.29    3.70
  -1   1   8   54.59    3.20
   0  -1  -8   51.39    2.90
   0  -1  -8   60.99    3.10
   0  -1  -8   54.09    2.90
   0  -1  -8   57.89    3.00
   0  -1  -8   55.79    3.00
   0  -1  -8   52.89    3.10
   0   1   8   56.29    3.00
   0   1   8   56.29    3.40
   0   1   8   52.79    3.00
   0   1   8   53.89    3.40
   0   1   8   59.49    3.40
  -1  -1  -8    0.80    1.00
  -1  -1  -8    0.70    0.60
  -1  -1  -8    0.20    0.50
  -1  -1  -8    0.10    0.60
  -1  -1  -8    0.60    0.60
   1   1   8    1.40    1.00
   1   1   8   -0.10    0.90
   1   1   8    0.30    0.80
   1   1   8    0.90    0.80
   1   1   8   -0.40    0.60
   1   1   8    1.10    0.70
  -2  -1  -8    7.80    1.70
  -2  -1  -8   11.20    1.40
  -2  -1  -8    8.80    1.30
  -2  -1  -8    8.10    1.30
  -2  -1  -8   10.60    1.40
  -2  -1  -8   10.20    1.70
   2   1   8    9.80    1.60
   2   1   8    8.80    1.50
   2   1   8    9.10    1.40
   2   1   8    7.40    1.40
   2   1   8    5.30    1.50
   2   1   8    9.00    1.60
  -3  -1  -8   11.20    1.60
  -3  -1  -8   15.30    1.80
  -3  -1  -8    9.40    1.90
  -3  -1  -8   10.40    1.60
  -3  -1  -8    8.50    1.90
  -3  -1  -8    8.60    1.40
   3   1   8    6.60    1.60
   3   1   8    8.40    1.80
   3   1   8   10.30    1.70
   3   1   8    7.70    1.60
   3   1   8   15.80    2.10
   3   1   8   12.70    1.80
  -4  -1  -8    0.10    0.70
  -4  -1  -8   -0.10    0.80
  -4  -1  -8    0.50    1.30
  -4  -1  -8   -0.70    0.80
  -4  -1  -8   -1.50    1.00
  -4  -1  -8   -0.50    0.90
   4   1   8    0.60    1.00
   4   1   8   -1.20    1.00
   4   1   8   -3.00    1.00
   4   1   8   -0.20    1.00
   4   1   8   -2.70    0.90
  -5  -1  -8   -0.20    1.20
  -5  -1  -8    1.80    1.20
  -5  -1  -8    0.30    1.00
  -5  -1  -8    1.60    1.60
  -5  -1  -8   -0.60    1.40
   5   1   8    1.80    1.50
   5   1   8    2.10    1.50
   5   1   8    0.70    1.20
   5   1   8   -0.30    1.40
  -6  -1  -8    3.30    1.90
  -6  -1  -8   -0.40    1.70
  -6  -1  -8    2.30    1.60
   6   1   8    0.10    1.70
   6   1   8    0.90    1.80
   6   1   8    0.80    1.50
   8  -2  -8    1.90    1.60
   8  -2  -8    3.20    1.60
   8  -2  -8    1.00    1.00
  -8   2   8    2.90    1.80
  -8   2   8    3.30    1.90
  -8   2   8    2.50    1.80
   7  -2  -8    1.10    1.30
   7  -2  -8   -0.70    0.80
   7  -2  -8    0.30    1.20
   7  -2  -8   -0.10    0.80
  -7   2   8   -0.20    0.80
  -7   2   8   -0.60    1.30
  -7   2   8   -0.50    0.90
  -7   2   8    0.80    1.50
  -7   2   8   -1.00    1.30
   6  -2  -8   10.60    1.80
   6  -2  -8   13.90    1.80
   6  -2  -8   16.10    1.80
   6  -2  -8   12.10    2.20
  -6   2   8   10.10    2.10
  -6   2   8   11.50    1.90
  -6   2   8   10.40    2.00
  -6   2   8   14.80    2.00
  -6   2   8   14.40    2.30
   5  -2  -8   15.10    1.70
   5  -2  -8   14.00    2.00
   5  -2  -8   10.70    1.90
   5  -2  -8   14.90    1.70
  -5   2   8   15.70    2.30
  -5   2   8   15.50    2.00
  -5   2   8   13.70    2.20
  -5   2   8   14.50    2.10
  -5   2   8   16.20    2.00
   4  -2  -8   13.10    1.80
   4  -2  -8   18.10    1.70
   4  -2  -8   15.10    2.00
   4  -2  -8   17.10    1.80
   4  -2  -8   15.70    1.50
  -4   2   8   19.10    1.90
  -4   2   8   11.10    1.90
  -4   2   8   13.80    2.00
  -4   2   8   15.00    2.00
  -4   2   8   13.80    1.80
  -4   2   8   14.10    2.00
   3  -2  -8   11.00    1.60
   3  -2  -8    8.20    1.00
   3  -2  -8    7.40    1.10
   3  -2  -8    8.40    1.10
   3  -2  -8    7.90    1.20
  -3   2   8    7.40    1.50
  -3   2   8    7.70    1.30
  -3   2   8    7.40    1.40
  -3   2   8    8.00    1.50
  -3   2   8    7.20    1.30
  -3   2   8   10.10    1.40
   2  -2  -8   13.60    1.40
   2  -2  -8   15.80    1.60
   2  -2  -8   14.60    1.40
   2  -2  -8   16.10    1.50
   2  -2  -8   14.10    1.70
  -2   2   8   15.00    2.00
  -2   2   8   14.60    1.80
  -2   2   8   17.00    1.90
  -2   2   8   15.40    1.70
  -2   2   8   12.60    1.60
   1  -2  -8    5.20    0.90
   1  -2  -8    3.10    0.90
   1  -2  -8    4.80    0.90
   1  -2  -8    4.30    0.90
   1  -2  -8    4.80    0.90
  -1   2   8    4.60    1.20
  -1   2   8    4.80    0.80
  -1   2   8    3.80    1.10
  -1   2   8    3.20    1.00
  -1   2   8    3.70    0.90
  -1   2   8    5.90    1.20
   0  -2  -8    6.60    1.00
   0  -2  -8    8.00    1.10
   0  -2  -8    4.80    1.00
   0  -2  -8    5.50    1.00
   0  -2  -8    7.80    1.10
   0   2   8    3.10    1.00
   0   2   8    6.90    1.10
   0   2   8    6.60    1.40
   0   2   8    5.80    1.20
   0   2   8    5.60    1.40
  -1  -2  -8   54.39    3.10
  -1  -2  -8   53.59    3.00
  -1  -2  -8   55.09    3.00
  -1  -2  -8   54.59    3.20
   1   2   8   54.99    3.70
   1   2   8   51.99    3.50
   1   2   8   49.20    3.40
   1   2   8   58.39    3.40
  -2  -2  -8    1.40    1.20
  -2  -2  -8    2.70    0.90
  -2  -2  -8    3.00    0.90
  -2  -2  -8    1.40    1.00
  -2  -2  -8    3.30    0.90
  -2  -2  -8    1.60    0.80
   2   2   8    2.40    1.20
   2   2   8    1.30    1.10
   2   2   8    3.40    1.10
   2   2   8    3.20    1.10
   2   2   8    1.10    1.10
   2   2   8    0.50    1.10
  -3  -2  -8    5.70    1.20
  -3  -2  -8    5.50    1.10
  -3  -2  -8    3.70    1.50
  -3  -2  -8    2.30    1.30
  -3  -2  -8    7.80    1.40
  -3  -2  -8    5.60    1.30
   3   2   8    2.20    1.10
   3   2   8    8.90    2.00
   3   2   8    7.00    1.60
   3   2   8    6.00    1.50
   3   2   8    3.90    1.50
   3   2   8    4.10    1.30
  -4  -2  -8   75.49    4.60
  -4  -2  -8   69.49    4.30
  -4  -2  -8   64.19    4.90
  -4  -2  -8   75.19    4.20
  -4  -2  -8   61.39    5.00
   4   2   8   64.79    4.40
   4   2   8   64.49    4.80
   4   2   8   65.49    4.70
   4   2   8   65.09    4.70
   4   2   8   72.49    4.80
  -5  -2  -8    1.40    1.50
  -5  -2  -8    3.20    1.70
  -5  -2  -8    1.30    1.10
  -5  -2  -8    1.10    1.40
  -5  -2  -8    0.90    1.20
   5   2   8    1.70    1.40
   5   2   8   -0.70    1.40
   5   2   8   -0.30    1.50
   5   2   8    3.00    1.60
  -6  -2  -8   63.39    4.50
  -6  -2  -8   57.59    6.00
  -6  -2  -8   67.19    4.90
   6   2   8   51.39    4.60
   6   2   8   56.89    5.00
   6   2   8   60.99    5.00
   8  -3  -8    0.00    1.40
   8  -3  -8    0.00    1.00
   8  -3  -8    0.30    1.40
  -8   3   8    3.60    1.70
  -8   3   8    2.80    1.80
  -8   3   8    0.30    1.70
   7  -3  -8    0.20    0.90
   7  -3  -8   -1.00    1.10
   7  -3  -8    0.60    0.90
   7  -3  -8   -0.30    0.70
  -7   3   8    0.80    1.00
  -7   3   8   -0.20    1.20
  -7   3   8   -1.30    1.30
  -7   3   8    0.30    1.50
   6  -3  -8   -0.60    0.90
   6  -3  -8   -0.10    1.00
   6  -3  -8   -0.80    0.70
   6  -3  -8   -0.20    0.70
  -6   3   8   -0.40    0.90
  -6   3   8   -0.50    0.80
  -6   3   8    1.20    1.30
  -6   3   8   -0.60    1.20
  -6   3   8    0.10    0.70
   5  -3  -8    3.70    1.30
   5  -3  -8    4.20    0.90
   5  -3  -8    2.90    1.20
   5  -3  -8    2.70    0.80
   5  -3  -8    3.70    0.90
  -5   3   8    5.50    1.70
  -5   3   8    4.70    1.20
  -5   3   8    4.00    1.50
  -5   3   8    3.70    1.40
  -5   3   8    3.60    1.30
   4  -3  -8   15.20    1.50
   4  -3  -8   14.30    1.70
   4  -3  -8   12.00    1.70
   4  -3  -8   14.20    1.90
   4  -3  -8   14.00    1.60
  -4   3   8   12.70    1.80
  -4   3   8   13.20    2.00
  -4   3   8   12.00    1.80
  -4   3   8   14.60    2.10
  -4   3   8   14.40    2.30
   3  -3  -8   17.80    2.10
   3  -3  -8   16.70    1.90
   3  -3  -8   17.30    1.70
   3  -3  -8   19.60    1.60
   3  -3  -8   18.60    1.50
  -3   3   8   18.30    2.10
  -3   3   8   20.80    1.70
  -3   3   8   15.80    2.00
  -3   3   8   19.80    2.20
  -3   3   8   20.40    2.30
  -3   3   8   17.90    2.30
   2  -3  -8    2.70    0.80
   2  -3  -8    2.60    0.80
   2  -3  -8    0.90    0.70
   2  -3  -8    1.20    0.60
   2  -3  -8    1.80    0.70
  -2   3   8    2.50    0.90
  -2   3   8    2.70    1.10
  -2   3   8    2.10    0.90
  -2   3   8    2.10    1.00
  -2   3   8    2.70    1.10
   1  -3  -8   30.80    2.00
   1  -3  -8   28.90    2.10
   1  -3  -8   32.50    2.20
   1  -3  -8   29.20    2.00
   1  -3  -8   31.60    2.10
  -1   3   8   32.10    2.50
  -1   3   8   33.50    2.70
  -1   3   8   29.20    2.40
  -1   3   8   30.40    2.20
  -1   3   8   32.40    3.00
   0  -3  -8   47.50    2.80
   0  -3  -8   45.80    2.70
   0  -3  -8   49.30    2.90
   0  -3  -8   45.50    2.80
   0   3   8   46.20    3.30
   0   3   8   47.30    3.30
   0   3   8   46.40    2.90
   0   3   8   47.10    3.30
  -1  -3  -8    8.90    1.40
  -1  -3  -8   10.40    1.30
  -1  -3  -8    7.50    1.30
  -1  -3  -8    9.90    1.40
   1   3   8    7.50    1.80
   1   3   8   13.30    2.00
   1   3   8    7.00    1.60
   1   3   8    9.60    1.70
  -2  -3  -8  159.58    7.60
  -2  -3  -8  155.48    7.30
  -2  -3  -8  150.68    7.40
  -2  -3  -8  187.18    7.90
   2   3   8  151.48    8.10
   2   3   8  162.48    7.70
   2   3   8  162.08    8.00
   2   3   8  145.39    7.90
  -3  -3  -8    7.10    1.40
  -3  -3  -8    8.80    1.60
  -3  -3  -8    7.90    1.80
  -3  -3  -8    4.80    1.40
  -3  -3  -8    4.70    1.60
   3   3   8    8.40    1.90
   3   3   8    6.70    1.70
   3   3   8    6.70    1.70
   3   3   8    6.30    1.70
   3   3   8    7.00    1.70
   3   3   8    8.50    1.80
  -4  -3  -8    7.90    1.80
  -4  -3  -8    5.10    1.80
  -4  -3  -8    8.00    1.70
  -4  -3  -8    8.10    1.60
  -4  -3  -8   10.00    2.20
   4   3   8    3.90    1.60
   4   3   8    7.70    2.00
   4   3   8    7.80    2.00
   4   3   8    7.60    1.80
   4   3   8    6.10    2.00
  -5  -3  -8    0.50    1.60
  -5  -3  -8    0.40    1.50
  -5  -3  -8    0.00    1.20
  -5  -3  -8   -0.10    0.70
   5   3   8    1.00    1.50
   5   3   8    1.30    1.90
   5   3   8    1.80    1.80
   5   3   8    0.70    1.80
   5   3   8    1.50    1.50
  -6  -3  -8   -1.00    2.20
  -6  -3  -8    0.60    1.20
  -6  -3  -8    1.60    1.40
   6   3   8    0.50    2.00
   6   3   8    0.40    1.80
   6   3   8    1.00    2.10
   8  -4  -8    2.20    1.40
   8  -4  -8    2.80    1.70
   8  -4  -8    3.20    1.70
  -8   4   8    0.50    1.60
  -8   4   8    2.10    2.10
  -8   4   8    3.50    2.20
   7  -4  -8    9.80    1.80
   7  -4  -8    8.30    2.10
   7  -4  -8   14.20    2.40
  -7   4   8   14.50    2.90
  -7   4   8   11.40    2.50
  -7   4   8   15.80    2.70
   6  -4  -8    1.60    1.00
   6  -4  -8    2.10    0.90
   6  -4  -8    0.30    0.90
   6  -4  -8    2.30    0.90
   6  -4  -8    1.30    1.30
  -6   4   8    1.30    1.40
  -6   4   8    0.40    1.00
  -6   4   8    3.50    1.20
  -6   4   8    0.50    1.10
  -6   4   8    2.30    1.60
   5  -4  -8    8.70    1.30
   5  -4  -8    9.50    1.50
   5  -4  -8    9.50    1.80
   5  -4  -8    7.90    1.40
   5  -4  -8   12.00    2.00
  -5   4   8   12.80    1.90
  -5   4   8   12.00    2.10
  -5   4   8    9.80    2.00
  -5   4   8    8.80    1.90
  -5   4   8   14.50    2.10
   4  -4  -8    6.00    1.10
   4  -4  -8    8.40    1.50
   4  -4  -8    5.10    1.40
   4  -4  -8    5.00    1.10
   4  -4  -8    7.40    1.20
  -4   4   8    5.00    1.60
  -4   4   8    4.90    1.50
  -4   4   8    8.10    1.70
  -4   4   8    9.60    1.60
  -4   4   8    4.90    1.50
   3  -4  -8    0.20    0.60
   3  -4  -8    2.00    0.80
   3  -4  -8    0.30    0.60
   3  -4  -8    0.00    0.60
   3  -4  -8    1.20    0.90
  -3   4   8    1.00    0.90
  -3   4   8    0.20    0.70
  -3   4   8    2.00    1.20
  -3   4   8    2.30    1.20
  -3   4   8   -0.20    0.70
   2  -4  -8   74.29    4.20
   2  -4  -8   70.19    3.90
   2  -4  -8   68.99    3.80
   2  -4  -8   77.89    4.00
   2  -4  -8   74.19    4.00
  -2   4   8   72.49    4.20
  -2   4   8   77.59    4.50
  -2   4   8   80.09    4.20
  -2   4   8   80.19    4.70
  -2   4   8   74.89    4.60
   1  -4  -8    7.00    1.10
   1  -4  -8    7.40    1.30
   1  -4  -8    7.90    1.20
   1  -4  -8    7.80    1.30
  -1   4   8    5.90    1.50
  -1   4   8    5.80    1.40
  -1   4   8    5.60    1.30
  -1   4   8    5.70    1.40
   0  -4  -8   -0.30    0.50
   0  -4  -8   -0.10    0.50
   0  -4  -8   -0.10    0.50
   0  -4  -8   -0.10    0.70
   0   4   8    0.80    1.00
   0   4   8   -0.90    0.80
   0   4   8   -0.80    0.80
  -1  -4  -8   34.50    2.40
  -1  -4  -8   32.80    2.60
  -1  -4  -8   35.90    2.60
   1   4   8   39.00    3.20
   1   4   8   32.00    2.80
   1   4   8   40.50    3.10
   1   4   8   33.00    2.70
  -2  -4  -8   53.09    3.30
  -2  -4  -8   49.50    3.10
  -2  -4  -8   42.50    3.20
   2   4   8   44.00    3.50
   2   4   8   50.89    4.00
   2   4   8   40.90    3.30
   2   4   8   48.00    3.60
  -3  -4  -8    0.30    0.70
  -3  -4  -8    0.40    0.90
  -3  -4  -8    0.70    0.80
   3   4   8   -0.10    1.20
   3   4   8   -0.70    1.40
   3   4   8    0.70    1.30
   3   4   8    1.50    1.40
   3   4   8    1.90    2.20
  -4  -4  -8    1.70    1.20
  -4  -4  -8   -0.20    1.00
  -4  -4  -8    0.60    1.60
  -4  -4  -8    0.30    1.60
  -4  -4  -8    0.50    0.90
   4   4   8   -0.20    1.30
   4   4   8    0.80    1.40
   4   4   8    1.20    1.40
   4   4   8   -0.90    1.30
   4   4   8    0.00    1.60
   4   4   8    0.00    1.30
  -5  -4  -8   -1.40    1.50
  -5  -4  -8    1.70    1.60
  -5  -4  -8    2.00    1.30
   5   4   8   -0.30    1.70
   5   4   8    1.90    1.70
   5   4   8    0.30    1.30
   5   4   8    1.80    1.90
   7  -5  -8    0.10    0.80
   7  -5  -8    0.70    1.10
   7  -5  -8   -0.80    1.30
   7  -5  -8    2.40    1.00
  -7   5   8    0.20    1.80
  -7   5   8    1.20    1.60
  -7   5   8   -0.10    1.10
   6  -5  -8    7.10    1.70
   6  -5  -8    5.40    1.30
   6  -5  -8    7.80    1.40
   6  -5  -8    7.20    1.90
  -6   5   8   10.10    2.50
  -6   5   8    9.00    1.80
  -6   5   8    5.90    1.70
  -6   5   8    5.10    1.90
   5  -5  -8   18.40    2.00
   5  -5  -8   15.50    1.90
   5  -5  -8   14.10    1.80
   5  -5  -8   16.90    2.40
   5  -5  -8   12.10    2.00
  -5   5   8   13.90    2.30
  -5   5   8   12.30    2.50
  -5   5   8   18.70    2.40
  -5   5   8   18.30    2.60
  -5   5   8   18.50    2.50
   4  -5  -8    0.70    0.70
   4  -5  -8   -0.20    0.90
   4  -5  -8    0.00    0.60
   4  -5  -8    0.60    0.80
   4  -5  -8    0.80    1.10
  -4   5   8    0.20    1.10
  -4   5   8    2.00    1.10
  -4   5   8   -0.20    0.80
  -4   5   8   -1.00    1.20
  -4   5   8    0.30    1.00
   3  -5  -8   -0.30    0.70
   3  -5  -8    0.00    0.70
   3  -5  -8    0.50    0.90
   3  -5  -8    0.20    0.70
   3  -5  -8   -0.30    0.80
  -3   5   8   -0.20    0.70
  -3   5   8    1.60    1.10
  -3   5   8   -0.80    0.70
  -3   5   8    0.20    0.90
  -3   5   8   -0.30    0.80
   2  -5  -8   41.90    2.80
   2  -5  -8   47.20    3.00
   2  -5  -8   46.80    3.20
   2  -5  -8   47.40    3.00
   2  -5  -8   47.90    3.00
  -2   5   8   50.99    3.70
  -2   5   8   48.50    3.70
  -2   5   8   54.19    3.60
   1  -5  -8   13.20    1.80
   1  -5  -8   13.80    1.60
   1  -5  -8   17.60    1.80
   1  -5  -8   16.70    1.70
  -1   5   8   15.00    2.10
  -1   5   8   15.30    2.00
  -1   5   8   15.70    2.20
   0  -5  -8    1.20    0.90
   0  -5  -8    2.30    0.90
   0  -5  -8    2.50    0.90
   0   5   8    7.50    1.60
   0   5   8    4.90    1.30
   0   5   8    2.20    1.30
  -1  -5  -8    4.90    1.00
  -1  -5  -8    3.30    1.20
  -1  -5  -8    3.40    1.00
   1   5   8    3.60    1.40
   1   5   8    3.40    1.30
   1   5   8    4.00    1.60
  -2  -5  -8    4.60    1.30
  -2  -5  -8    4.30    1.20
  -2  -5  -8    4.20    1.40
   2   5   8    2.10    1.40
   2   5   8    3.00    1.50
   2   5   8    5.50    1.80
  -3  -5  -8    1.60    1.10
  -3  -5  -8    0.10    0.90
  -3  -5  -8    1.10    1.00
   3   5   8   -0.20    1.20
   3   5   8    0.50    1.30
   3   5   8   -2.00    1.40
   3   5   8    0.00    1.50
  -4  -5  -8   -0.50    1.10
  -4  -5  -8    0.30    1.20
   4   5   8   -1.50    1.40
   4   5   8   -0.30    1.60
   4   5   8    0.40    1.80
   7  -6  -8    0.80    1.10
   7  -6  -8    1.80    1.30
   7  -6  -8    1.30    1.60
   7  -6  -8    0.10    1.00
  -7   6   8    4.40    2.00
  -7   6   8    1.20    1.60
  -7   6   8    0.70    1.60
   6  -6  -8    5.90    1.90
   6  -6  -8    4.40    1.30
   6  -6  -8    8.80    2.00
   6  -6  -8    4.70    1.30
  -6   6   8    4.60    1.90
  -6   6   8    7.20    2.10
  -6   6   8    3.60    1.70
   5  -6  -8    0.00    0.80
   5  -6  -8   -0.80    0.80
   5  -6  -8    1.00    1.00
   5  -6  -8    0.20    1.10
  -5   6   8    0.80    1.30
  -5   6   8    1.10    1.60
  -5   6   8   -0.30    1.10
  -5   6   8    0.30    1.30
  -5   6   8   -0.50    0.90
   4  -6  -8    0.00    0.80
   4  -6  -8   -0.80    0.80
   4  -6  -8    0.40    1.00
   4  -6  -8   -0.90    0.80
   4  -6  -8    0.00    0.70
  -4   6   8   -0.70    0.80
  -4   6   8   -0.40    1.00
  -4   6   8    1.60    1.20
  -4   6   8    2.00    1.30
  -4   6   8    0.30    1.00
   3  -6  -8    4.80    1.10
   3  -6  -8    4.70    1.10
   3  -6  -8    4.80    1.30
   3  -6  -8    4.60    1.00
   3  -6  -8    6.60    1.50
  -3   6   8    4.40    1.50
  -3   6   8    6.60    1.50
  -3   6   8    8.30    1.70
  -3   6   8    6.00    1.60
  -3   6   8    4.10    1.60
   2  -6  -8    4.30    1.20
   2  -6  -8    2.40    0.90
   2  -6  -8    3.20    1.00
   2  -6  -8    2.70    1.00
  -2   6   8    6.00    1.60
  -2   6   8    3.10    1.40
  -2   6   8    2.70    1.20
   1  -6  -8   11.80    1.60
   1  -6  -8   14.80    1.90
   1  -6  -8   17.00    2.00
  -1   6   8   16.00    2.40
  -1   6   8   15.10    2.50
  -1   6   8   12.30    2.10
   0  -6  -8    5.80    1.30
   0  -6  -8    4.20    1.30
   0  -6  -8    4.90    1.10
   0   6   8    5.50    1.70
   0   6   8    6.70    1.70
   0   6   8    4.50    1.40
  -1  -6  -8    2.40    0.90
  -1  -6  -8    4.20    1.30
  -1  -6  -8    1.50    0.90
   1   6   8    1.60    1.10
   1   6   8    1.50    1.30
   1   6   8    3.60    1.50
  -2  -6  -8   -0.30    0.80
  -2  -6  -8    0.50    0.70
  -2  -6  -8   -0.30    0.70
   2   6   8    0.80    1.30
   2   6   8    0.00    1.30
   2   6   8    1.30    1.50
  -3  -6  -8    0.90    1.10
  -3  -6  -8   -0.30    1.30
   3   6   8    2.20    1.60
   3   6   8   -2.10    1.70
  -4  -6  -8   12.00    2.40
  -4  -6  -8    9.60    2.00
   4   6   8    5.60    2.40
   4   6   8    7.80    2.30
   4   6   8    5.60    2.20
   6  -7  -8   -0.30    0.90
   6  -7  -8    0.50    0.90
   6  -7  -8    2.60    1.70
   6  -7  -8   -1.00    1.30
  -6   7   8    0.60    1.60
  -6   7   8    0.20    1.30
  -6   7   8    1.70    1.70
   5  -7  -8   -0.80    0.80
   5  -7  -8    0.20    0.90
   5  -7  -8    0.50    1.30
   5  -7  -8   -0.40    1.00
  -5   7   8   -0.10    1.00
  -5   7   8   -0.30    1.70
  -5   7   8   -0.30    1.30
  -5   7   8    3.00    1.90
   4  -7  -8    1.40    1.30
   4  -7  -8    1.00    1.10
   4  -7  -8   -0.10    1.00
   4  -7  -8    1.30    0.80
  -4   7   8    1.70    1.10
  -4   7   8    1.20    1.30
  -4   7   8    1.00    1.50
  -4   7   8    4.20    1.50
  -4   7   8    1.80    1.40
   3  -7  -8    4.20    1.40
   3  -7  -8    6.30    1.40
   3  -7  -8    3.40    1.20
   3  -7  -8    4.30    1.30
  -3   7   8    5.80    1.90
  -3   7   8    4.40    2.20
  -3   7   8    7.30    1.60
  -3   7   8    5.30    1.50
   2  -7  -8    1.30    0.90
   2  -7  -8    0.00    0.80
   2  -7  -8    0.90    1.00
  -2   7   8    1.30    1.40
  -2   7   8    2.00    1.40
  -2   7   8    3.00    1.20
   1  -7  -8   14.60    2.00
   1  -7  -8   13.50    1.70
   1  -7  -8   16.30    2.10
  -1   7   8   14.70    2.60
  -1   7   8   14.70    2.30
   0  -7  -8    6.10    1.40
   0  -7  -8    8.40    1.40
   0  -7  -8    9.20    1.50
   0   7   8   11.10    2.10
   0   7   8   11.30    2.10
  -1  -7  -8    2.80    1.20
  -1  -7  -8    3.60    1.30
  -1  -7  -8    2.70    1.30
   1   7   8    0.80    1.40
   1   7   8    0.70    1.20
  -2  -7  -8   22.00    2.60
  -2  -7  -8   19.50    2.70
   2   7   8   19.50    3.00
   2   7   8   18.80    3.00
  -3  -7  -8    5.80    1.80
  -3  -7  -8    6.60    1.80
   3   7   8    3.30    2.20
   3   7   8    3.20    1.90
   5  -8  -8   -1.00    0.60
   5  -8  -8    0.20    1.00
   5  -8  -8   -1.10    1.20
   5  -8  -8    1.30    1.50
  -5   8   8   -0.10    1.40
  -5   8   8    2.30    1.70
  -5   8   8    0.40    1.40
   4  -8  -8   11.70    2.00
   4  -8  -8   11.00    1.90
  -4   8   8   12.70    2.10
  -4   8   8   11.80    2.80
   3  -8  -8    1.70    1.10
   3  -8  -8    2.60    1.20
  -3   8   8    5.00    1.60
  -3   8   8    4.00    1.90
   2  -8  -8   17.40    2.10
   2  -8  -8   16.70    2.30
  -2   8   8   11.00    2.20
   1  -8  -8   -0.70    0.80
   1  -8  -8    1.60    1.20
  -1   8   8    0.40    1.20
   0  -8  -8    3.60    1.20
   0  -8  -8    1.60    1.40
   0   8   8   -0.20    1.40
  -1  -8  -8   -1.50    0.90
  -1  -8  -8    1.30    1.10
   1   8   8    0.70    1.50
   1   8   8   -0.20    1.50
   2  -9  -8    3.50    1.40
   2  -9  -8    4.80    1.40
  -2   9   8    3.20    1.70
   1  -9  -8   14.30    2.30
   1  -9  -8   13.90    2.10
   1  12  -9    1.30    1.40
   0  12  -9    0.90    1.90
   3  11  -9    0.90    1.30
   3  11  -9    1.20    1.60
  -3 -11   9    1.20    1.30
  -3 -11   9   -0.10    1.00
  -3 -11   9   -2.40    1.00
  -3 -11   9    0.60    1.60
   2  11  -9    0.40    1.10
   2  11  -9    0.20    1.50
  -2 -11   9   -0.40    1.20
  -2 -11   9    0.40    1.30
  -2 -11   9   -0.80    1.30
   1  11  -9    2.60    1.40
   1  11  -9    0.30    1.30
  -1 -11   9    1.80    1.20
  -1 -11   9   -0.20    1.30
   0  11  -9    1.20    1.10
   0  11  -9    2.30    1.70
   0 -11   9    3.50    1.50
   0 -11   9    3.30    1.50
  -1  11  -9    2.60    1.30
  -1  11  -9    0.40    1.40
   1 -11   9    2.10    1.40
   1 -11   9    2.80    1.40
  -2  11  -9    0.10    1.60
  -2  11  -9    2.40    1.60
   2 -11   9    0.60    1.20
   2 -11   9   -0.30    1.20
  -3  11  -9   -1.50    1.50
  -3  11  -9   -1.60    1.50
   5  10  -9    3.40    1.40
   5  10  -9    0.80    1.50
  -5 -10   9   -0.10    1.80
  -5 -10   9    2.40    1.90
  -5 -10   9    2.20    1.60
  -5 -10   9    1.10    1.20
   4  10  -9    1.00    1.10
   4  10  -9   -0.90    1.20
  -4 -10   9    1.40    1.20
  -4 -10   9    2.90    1.60
  -4 -10   9   -0.10    1.20
  -4 -10   9    1.00    1.60
   3  10  -9    2.50    1.50
   3  10  -9    2.50    1.30
   3  10  -9    2.70    1.20
   3  10  -9    2.20    1.30
  -3 -10   9    1.30    1.10
  -3 -10   9    0.40    1.00
  -3 -10   9    2.50    1.30
  -3 -10   9   -0.90    1.20
  -3 -10   9    3.60    1.30
   2  10  -9    3.10    1.30
   2  10  -9    1.40    1.10
   2  10  -9    0.60    0.90
   2  10  -9    0.40    0.90
  -2 -10   9   -0.10    0.70
  -2 -10   9    2.90    1.60
  -2 -10   9    0.40    1.10
  -2 -10   9    0.50    1.00
   1  10  -9   -0.30    1.00
   1  10  -9    1.00    1.30
  -1 -10   9    0.40    1.00
  -1 -10   9    0.50    1.00
  -1 -10   9    0.40    1.20
  -1 -10   9    0.70    1.00
   0  10  -9    1.20    1.40
   0  10  -9    0.90    1.20
   0 -10   9    1.10    1.10
   0 -10   9    1.50    1.20
   0 -10   9    2.30    1.20
  -1  10  -9    1.30    1.40
  -1  10  -9    1.10    1.40
   1 -10   9    1.10    1.10
   1 -10   9    1.80    1.20
   1 -10   9    2.00    1.30
  -2  10  -9    4.50    1.70
  -2  10  -9    0.80    1.40
  -2  10  -9    3.50    1.30
   2 -10   9    5.20    1.60
   2 -10   9    3.40    1.30
  -3  10  -9   -1.00    1.20
  -3  10  -9    0.20    1.40
  -3  10  -9   -1.00    1.30
   3 -10   9   -0.30    1.10
   3 -10   9   -0.20    1.10
  -4  10  -9    1.40    1.40
  -4  10  -9    1.60    1.70
   4 -10   9    1.00    1.40
   4 -10   9    2.00    1.60
   6   9  -9    4.70    1.80
   6   9  -9    6.90    1.90
  -6  -9   9    4.60    2.20
  -6  -9   9    5.30    2.20
  -6  -9   9    7.90    2.20
  -6  -9   9    4.80    1.50
   5   9  -9   -1.90    1.00
   5   9  -9    1.00    1.00
  -5  -9   9   -1.30    1.10
  -5  -9   9    0.30    1.60
  -5  -9   9   -1.10    1.50
  -5  -9   9    0.50    0.80
   4   9  -9    0.50    1.40
   4   9  -9    1.30    1.40
   4   9  -9    2.10    1.20
   4   9  -9   -0.20    1.00
  -4  -9   9    1.20    1.20
  -4  -9   9    1.10    1.40
  -4  -9   9    3.10    1.40
  -4  -9   9    2.00    1.50
  -4  -9   9    0.50    1.00
   3   9  -9    6.00    1.50
   3   9  -9    8.00    1.70
   3   9  -9    5.50    1.40
   3   9  -9    5.70    1.60
  -3  -9   9    7.40    1.60
  -3  -9   9    6.80    1.60
  -3  -9   9    4.60    1.80
  -3  -9   9    5.20    1.50
  -3  -9   9    7.50    1.70
   2   9  -9    0.20    0.80
   2   9  -9    1.20    1.10
   2   9  -9    0.60    1.00
   2   9  -9    1.40    1.00
  -2  -9   9    1.10    0.90
  -2  -9   9    2.80    1.30
  -2  -9   9    0.90    1.00
  -2  -9   9    1.00    0.90
  -2  -9   9   -0.40    0.70
  -2  -9   9    0.90    1.20
   1   9  -9    1.20    1.10
   1   9  -9    0.10    0.70
  -1  -9   9    0.00    0.80
  -1  -9   9   -0.30    0.90
  -1  -9   9    1.00    0.90
  -1  -9   9   -0.50    0.90
   0   9  -9    2.30    1.30
   0   9  -9    2.10    1.30
   0  -9   9    3.10    1.10
   0  -9   9    1.20    1.10
   0  -9   9    3.10    1.00
   0  -9   9    1.70    1.10
  -1   9  -9    5.50    1.30
  -1   9  -9    4.20    1.60
  -1   9  -9    5.40    1.60
   1  -9   9    7.20    1.50
   1  -9   9    6.30    1.40
   1  -9   9    5.40    1.40
  -2   9  -9   10.60    2.20
  -2   9  -9   10.20    2.10
  -2   9  -9    9.60    1.90
   2  -9   9   12.40    1.90
   2  -9   9   15.00    2.10
   2  -9   9   13.50    2.00
  -3   9  -9    5.00    1.60
  -3   9  -9    2.40    1.30
   3  -9   9    4.10    1.40
   3  -9   9    3.30    1.40
   3  -9   9    3.00    1.30
  -4   9  -9    2.60    1.70
  -4   9  -9    0.80    1.60
   4  -9   9    2.30    1.40
   4  -9   9    3.00    1.40
   6   8  -9    0.80    1.30
   6   8  -9    2.10    1.40
  -6  -8   9    2.10    1.80
  -6  -8   9    0.40    1.40
  -6  -8   9    0.00    1.00
  -6  -8   9   -1.20    1.10
   5   8  -9    2.90    1.30
   5   8  -9    4.40    1.50
   5   8  -9    4.10    1.30
  -5  -8   9    1.10    1.20
  -5  -8   9    3.40    1.20
  -5  -8   9    3.20    1.70
  -5  -8   9    3.40    1.70
   4   8  -9    2.00    1.00
   4   8  -9    1.20    1.10
   4   8  -9    0.60    1.10
   4   8  -9    2.30    1.20
  -4  -8   9    0.30    1.10
  -4  -8   9    1.10    1.30
  -4  -8   9    1.70    1.30
  -4  -8   9    1.30    1.00
  -4  -8   9    0.80    1.10
   3   8  -9    1.40    1.00
   3   8  -9    0.80    1.00
   3   8  -9   -0.20    0.90
   3   8  -9    0.80    1.10
  -3  -8   9    0.80    0.90
  -3  -8   9    0.20    0.80
  -3  -8   9    0.30    0.90
  -3  -8   9   -0.60    0.90
  -3  -8   9    0.10    0.80
   2   8  -9    5.20    1.40
   2   8  -9    7.30    1.60
   2   8  -9   10.20    1.70
   2   8  -9    9.00    1.60
  -2  -8   9    7.80    1.70
  -2  -8   9    4.90    1.40
  -2  -8   9    6.30    1.40
  -2  -8   9    6.70    1.40
  -2  -8   9    5.60    1.40
  -2  -8   9    6.60    1.40
   1   8  -9   17.30    1.90
   1   8  -9   17.50    2.10
   1   8  -9   17.30    2.30
   1   8  -9   16.90    2.20
   1   8  -9   14.80    2.00
  -1  -8   9   15.90    2.00
  -1  -8   9   16.40    2.20
  -1  -8   9   18.90    2.00
  -1  -8   9   16.10    2.10
  -1  -8   9   13.10    1.90
   0   8  -9   55.19    3.80
   0   8  -9   60.99    3.70
   0   8  -9   64.49    4.00
   0  -8   9   68.09    3.90
   0  -8   9   61.39    3.90
   0  -8   9   55.79    3.80
   0  -8   9   65.39    3.90
  -1   8  -9    7.90    1.60
  -1   8  -9    7.50    1.60
  -1   8  -9    7.10    1.70
   1  -8   9    8.70    1.60
   1  -8   9    8.90    1.50
   1  -8   9   10.00    1.70
   1  -8   9   10.90    1.70
  -2   8  -9   12.50    2.20
  -2   8  -9   15.60    2.20
  -2   8  -9   13.40    2.30
   2  -8   9   18.20    2.10
   2  -8   9   15.00    2.00
   2  -8   9   16.80    2.10
  -3   8  -9    1.10    1.20
  -3   8  -9    1.50    1.10
   3  -8   9    1.70    1.10
   3  -8   9    0.30    1.00
   3  -8   9    0.60    1.10
  -4   8  -9    3.20    1.50
  -4   8  -9    2.10    1.40
   4  -8   9    1.80    1.20
   4  -8   9    2.70    1.30
  -5   8  -9   -1.50    1.40
  -5   8  -9    0.10    1.50
   5  -8   9    2.00    1.40
   5  -8   9   -1.40    1.10
   7   7  -9    2.30    1.60
   7   7  -9    8.50    2.00
  -7  -7   9   -0.20    1.10
  -7  -7   9    0.40    1.00
  -7  -7   9    4.30    2.10
   6   7  -9    0.50    1.30
   6   7  -9    1.80    1.10
   6   7  -9    1.30    1.10
  -6  -7   9   -0.40    0.60
  -6  -7   9    1.40    1.60
  -6  -7   9    0.30    1.40
   5   7  -9   -0.30    0.70
   5   7  -9   -0.80    0.90
   5   7  -9   -0.20    0.80
   5   7  -9    0.40    0.60
  -5  -7   9    0.20    0.70
  -5  -7   9    0.50    1.30
  -5  -7   9    0.00    0.60
  -5  -7   9   -0.90    0.80
  -5  -7   9   -0.80    1.00
   4   7  -9   14.30    1.90
   4   7  -9   14.60    2.10
   4   7  -9   15.90    2.20
   4   7  -9   17.70    2.50
  -4  -7   9   15.70    2.30
  -4  -7   9   17.40    2.40
  -4  -7   9   14.40    2.00
  -4  -7   9   12.80    2.20
  -4  -7   9   12.50    1.90
   3   7  -9    1.60    0.90
   3   7  -9    3.40    1.20
   3   7  -9    2.70    1.00
   3   7  -9    1.70    0.90
  -3  -7   9    3.10    1.20
  -3  -7   9    1.70    0.90
  -3  -7   9    1.50    0.90
  -3  -7   9    1.50    1.00
  -3  -7   9    1.90    0.90
   2   7  -9   28.30    2.20
   2   7  -9   26.70    2.70
   2   7  -9   27.30    2.00
   2   7  -9   23.90    2.70
  -2  -7   9   26.70    2.40
  -2  -7   9   26.30    2.70
  -2  -7   9   27.10    2.20
  -2  -7   9   23.80    2.60
  -2  -7   9   25.00    2.50
   1   7  -9    7.70    1.50
   1   7  -9   10.40    1.70
   1   7  -9    7.90    1.50
   1   7  -9   14.50    1.70
  -1  -7   9   10.00    1.60
  -1  -7   9   12.30    1.90
  -1  -7   9   11.10    1.70
  -1  -7   9   13.30    1.70
  -1  -7   9   11.30    1.50
  -1  -7   9   13.50    1.60
   0   7  -9    6.30    1.40
   0   7  -9    8.60    1.50
   0   7  -9    9.70    1.50
   0  -7   9   11.10    1.50
   0  -7   9    4.70    1.30
   0  -7   9    8.10    1.40
   0  -7   9    6.90    1.40
  -1   7  -9    2.70    1.10
  -1   7  -9    3.20    1.20
  -1   7  -9    3.60    1.20
   1  -7   9    2.60    1.00
   1  -7   9    5.20    1.10
   1  -7   9    2.70    0.90
   1  -7   9    2.60    1.00
  -2   7  -9    5.40    1.40
  -2   7  -9    6.30    1.60
  -2   7  -9    5.40    1.40
   2  -7   9    7.40    1.40
   2  -7   9    5.80    1.30
   2  -7   9    7.00    1.50
  -3   7  -9    5.90    1.60
  -3   7  -9    6.30    1.50
   3  -7   9    5.20    1.30
   3  -7   9    5.70    1.50
   3  -7   9    5.80    1.30
  -4   7  -9   26.70    3.10
  -4   7  -9   24.10    3.10
  -4   7  -9   31.30    3.00
   4  -7   9   30.40    3.10
   4  -7   9   33.60    2.90
   4  -7   9   32.40    3.00
  -5   7  -9    8.20    2.10
  -5   7  -9    5.80    1.80
  -5   7  -9    5.30    1.70
  -5   7  -9    4.30    1.70
   5  -7   9    8.60    1.80
   5  -7   9    6.70    1.70
   7   6  -9    4.10    1.60
   7   6  -9    0.80    1.20
  -7  -6   9    2.20    1.70
  -7  -6   9   -0.20    0.90
  -7  -6   9    2.00    1.40
  -7  -6   9   -1.00    1.30
   6   6  -9   -0.80    0.90
   6   6  -9    0.80    1.20
   6   6  -9    1.00    1.10
   6   6  -9    1.90    1.30
  -6  -6   9    0.40    1.10
  -6  -6   9   -0.70    1.00
  -6  -6   9    1.40    1.20
  -6  -6   9   -1.20    0.80
  -6  -6   9   -0.40    1.40
   5   6  -9    0.40    1.00
   5   6  -9    0.30    0.80
   5   6  -9   -0.10    1.10
   5   6  -9    1.20    0.90
  -5  -6   9   -0.40    0.80
  -5  -6   9   -0.50    0.70
  -5  -6   9    0.20    0.90
  -5  -6   9    0.70    1.20
  -5  -6   9   -0.30    0.70
   4   6  -9    6.10    1.60
   4   6  -9    4.60    1.40
   4   6  -9    7.40    1.30
  -4  -6   9    6.40    1.50
  -4  -6   9    6.70    1.40
  -4  -6   9    4.50    1.50
  -4  -6   9    5.20    1.30
  -4  -6   9    3.00    1.10
  -4  -6   9    4.60    1.30
   3   6  -9    5.00    1.00
   3   6  -9    4.50    1.30
   3   6  -9    5.40    1.20
   3   6  -9    2.30    0.90
  -3  -6   9    3.40    1.10
  -3  -6   9    3.50    1.20
  -3  -6   9    5.80    1.30
  -3  -6   9    4.20    1.10
  -3  -6   9    3.20    1.20
   2   6  -9    3.10    1.00
   2   6  -9    2.60    0.80
   2   6  -9    3.00    0.90
   2   6  -9    2.90    1.20
  -2  -6   9    1.60    0.80
  -2  -6   9    3.00    1.00
  -2  -6   9    1.90    0.80
  -2  -6   9    2.10    0.90
  -2  -6   9    0.70    0.80
   1   6  -9    3.20    1.10
   1   6  -9    1.40    0.80
   1   6  -9    2.30    0.90
   1   6  -9    1.10    0.70
  -1  -6   9   -0.50    0.70
  -1  -6   9    1.30    0.80
  -1  -6   9    1.30    0.70
  -1  -6   9    1.30    0.80
  -1  -6   9    0.60    0.80
  -1  -6   9    0.90    0.70
   0   6  -9    4.60    1.10
   0   6  -9    1.00    0.90
   0   6  -9    2.00    0.80
   0   6  -9    2.80    0.90
   0  -6   9    2.20    0.80
   0  -6   9    1.50    0.90
   0  -6   9    2.90    0.80
   0  -6   9    1.70    0.90
   0  -6   9    1.90    0.90
  -1   6  -9   70.49    4.00
  -1   6  -9   64.59    4.00
  -1   6  -9   65.29    3.90
   1  -6   9   72.19    3.90
   1  -6   9   73.29    3.90
   1  -6   9   69.99    3.80
   1  -6   9   67.29    4.00
  -2   6  -9    2.80    1.10
  -2   6  -9    3.60    1.20
   2  -6   9    6.10    1.30
   2  -6   9    3.80    1.00
   2  -6   9    3.80    1.10
   2  -6   9    6.00    1.20
  -3   6  -9   47.40    3.40
  -3   6  -9   53.09    3.80
  -3   6  -9   49.90    3.70
  -3   6  -9   54.09    3.40
   3  -6   9   63.69    3.70
   3  -6   9   60.79    3.70
   3  -6   9   56.69    3.60
  -4   6  -9   10.60    2.00
  -4   6  -9    5.80    1.50
  -4   6  -9    8.40    1.60
  -4   6  -9    8.60    1.80
   4  -6   9   13.40    2.00
   4  -6   9   11.60    2.00
   4  -6   9    9.60    1.90
  -5   6  -9    1.20    1.40
  -5   6  -9    2.90    1.50
  -5   6  -9    2.50    1.30
  -5   6  -9    0.20    1.30
   5  -6   9    3.80    1.50
   5  -6   9    2.80    1.50
   5  -6   9    4.30    1.40
  -6   6  -9    2.20    1.70
  -6   6  -9    5.80    1.80
  -6   6  -9    4.30    1.90
   6  -6   9    4.20    1.80
   6  -6   9    2.80    1.60
   6  -6   9    4.70    1.60
   8   5  -9    5.30    1.70
   8   5  -9    2.20    1.60
  -8  -5   9    2.20    1.60
  -8  -5   9    2.10    1.50
  -8  -5   9    2.80    2.10
  -8  -5   9    1.50    1.20
   7   5  -9   -0.40    1.20
   7   5  -9    3.80    1.40
   7   5  -9    0.30    1.10
  -7  -5   9    1.20    1.20
  -7  -5   9    2.90    1.50
  -7  -5   9    1.00    1.60
  -7  -5   9    0.30    1.30
   6   5  -9   28.10    3.10
   6   5  -9   28.60    3.20
   6   5  -9   30.80    2.90
  -6  -5   9   24.10    2.80
  -6  -5   9   24.00    2.70
  -6  -5   9   29.60    3.10
  -6  -5   9   23.60    3.10
  -6  -5   9   29.40    3.20
   5   5  -9    8.10    1.80
   5   5  -9    8.40    1.50
   5   5  -9    7.10    1.50
  -5  -5   9    5.00    1.50
  -5  -5   9    7.10    1.40
  -5  -5   9    6.60    1.40
  -5  -5   9    8.10    1.70
  -5  -5   9    5.80    1.40
   4   5  -9   29.20    3.10
   4   5  -9   29.10    2.80
   4   5  -9   29.70    2.30
   4   5  -9   30.70    2.10
  -4  -5   9   26.50    2.80
  -4  -5   9   28.00    2.40
  -4  -5   9   22.00    2.60
  -4  -5   9   22.70    2.40
  -4  -5   9   24.90    2.60
   3   5  -9   30.20    2.70
   3   5  -9   38.90    2.40
   3   5  -9   39.10    2.60
   3   5  -9   37.30    2.70
  -3  -5   9   33.60    2.50
  -3  -5   9   38.70    2.60
  -3  -5   9   32.60    2.50
  -3  -5   9   31.30    2.60
  -3  -5   9   34.80    2.70
  -3  -5   9   33.60    2.60
   2   5  -9    2.30    1.10
   2   5  -9    2.70    0.90
   2   5  -9    1.90    0.70
   2   5  -9    1.40    0.80
  -2  -5   9    0.50    0.80
  -2  -5   9    1.50    0.90
  -2  -5   9    1.90    0.90
  -2  -5   9    0.60    0.70
  -2  -5   9    3.10    0.90
  -2  -5   9    2.20    0.90
   1   5  -9   81.89    4.10
   1   5  -9   77.09    4.20
   1   5  -9   78.39    4.20
  -1  -5   9   74.29    4.30
  -1  -5   9   78.59    4.10
  -1  -5   9   72.49    4.10
  -1  -5   9   80.59    4.20
  -1  -5   9   77.99    4.20
   0   5  -9   12.00    1.60
   0   5  -9   14.50    1.70
   0   5  -9   14.10    1.80
   0  -5   9   16.10    1.70
   0  -5   9   14.00    1.50
   0  -5   9   15.70    1.70
   0  -5   9   16.80    1.70
   0  -5   9   12.60    1.50
   0  -5   9   16.00    1.90
  -1   5  -9   79.19    4.10
  -1   5  -9   74.09    4.20
  -1   5  -9   81.29    4.50
  -1   5  -9   77.99    4.10
  -1   5  -9   78.19    4.40
   1  -5   9   85.49    4.50
   1  -5   9   84.69    4.20
   1  -5   9   85.49    4.30
   1  -5   9   91.69    4.40
  -2   5  -9    4.70    1.00
  -2   5  -9    5.00    1.30
  -2   5  -9    5.20    1.20
  -2   5  -9    4.70    1.20
   2  -5   9    7.70    1.30
   2  -5   9    8.30    1.40
   2  -5   9    6.70    1.40
   2  -5   9    5.70    1.10
  -3   5  -9   15.00    1.90
  -3   5  -9   13.40    1.80
  -3   5  -9   18.30    2.30
  -3   5  -9   10.10    1.80
   3  -5   9   18.80    2.20
   3  -5   9   15.70    2.00
   3  -5   9   17.90    2.00
   3  -5   9   17.20    2.00
  -4   5  -9    0.60    0.90
  -4   5  -9   -0.20    1.00
  -4   5  -9    0.00    1.00
  -4   5  -9   -0.70    0.80
   4  -5   9    1.90    1.20
   4  -5   9   -0.90    1.00
   4  -5   9    1.10    1.10
   4  -5   9   -0.10    1.00
  -5   5  -9   -0.90    1.20
  -5   5  -9   -0.80    0.80
  -5   5  -9   -0.40    0.80
  -5   5  -9   -1.30    1.20
  -5   5  -9    1.00    1.00
   5  -5   9    0.90    1.10
   5  -5   9   -0.40    1.20
   5  -5   9    1.10    1.20
   5  -5   9    0.90    1.40
  -6   5  -9    9.40    2.20
  -6   5  -9    9.10    2.10
  -6   5  -9    8.00    2.10
   6  -5   9    7.00    1.90
   6  -5   9   10.90    2.30
   6  -5   9    7.50    1.90
   8   4  -9    7.30    1.80
   8   4  -9    6.70    1.80
   8   4  -9    8.30    2.20
  -8  -4   9    3.60    1.60
  -8  -4   9    5.80    1.80
  -8  -4   9    4.90    1.60
  -8  -4   9    7.90    2.10
   7   4  -9   17.00    2.20
   7   4  -9   14.90    2.50
   7   4  -9   10.30    2.60
  -7  -4   9   15.90    2.60
  -7  -4   9   16.60    2.30
  -7  -4   9   12.50    2.10
  -7  -4   9   21.40    2.70
  -7  -4   9   15.90    2.50
   6   4  -9    8.10    1.60
   6   4  -9    7.30    1.70
   6   4  -9    5.60    1.70
  -6  -4   9    7.80    1.70
  -6  -4   9    6.60    1.50
  -6  -4   9    6.80    1.90
  -6  -4   9    8.90    1.60
  -6  -4   9    7.10    1.50
  -6  -4   9    4.80    1.40
   5   4  -9   22.30    1.90
   5   4  -9   23.70    2.60
   5   4  -9   21.50    2.60
   5   4  -9   25.60    2.50
  -5  -4   9   22.90    2.50
  -5  -4   9   20.60    2.50
  -5  -4   9   19.50    2.20
  -5  -4   9   20.80    2.40
  -5  -4   9   23.90    2.50
   4   4  -9    1.30    0.90
   4   4  -9    0.60    0.70
   4   4  -9   -0.80    0.60
   4   4  -9   -0.50    0.80
  -4  -4   9    0.40    0.70
  -4  -4   9    2.00    0.90
  -4  -4   9    0.40    0.70
  -4  -4   9    1.90    1.00
  -4  -4   9    0.00    0.70
   3   4  -9   22.90    1.80
   3   4  -9   18.00    2.10
   3   4  -9   21.90    2.10
  -3  -4   9   19.50    2.10
  -3  -4   9   21.00    2.20
  -3  -4   9   23.90    2.30
  -3  -4   9   20.20    2.20
  -3  -4   9   20.00    2.10
   2   4  -9   26.40    1.80
   2   4  -9   23.80    2.00
   2   4  -9   22.90    1.90
  -2  -4   9   24.10    2.10
  -2  -4   9   22.80    1.80
  -2  -4   9   23.30    2.30
  -2  -4   9   25.10    2.00
  -2  -4   9   24.70    1.90
  -2  -4   9   24.70    2.30
   1   4  -9   21.60    1.90
   1   4  -9   20.70    2.10
   1   4  -9   23.40    2.00
  -1  -4   9   20.40    2.20
  -1  -4   9   21.30    1.70
  -1  -4   9   24.10    2.20
  -1  -4   9   21.20    1.80
  -1  -4   9   22.30    1.90
  -1  -4   9   22.10    1.80
   0   4  -9  135.69    6.20
   0   4  -9  137.19    6.20
   0   4  -9  137.39    6.50
   0   4  -9  143.69    6.60
   0   4  -9  138.79    6.50
   0  -4   9  148.29    6.60
   0  -4   9  148.09    6.40
   0  -4   9  140.29    6.50
   0  -4   9  141.39    6.60
   0  -4   9  142.99    6.80
   0  -4   9  145.19    6.30
  -1   4  -9   18.70    1.70
  -1   4  -9   19.70    2.00
  -1   4  -9   18.40    2.00
  -1   4  -9   17.50    1.80
  -1   4  -9   16.10    1.70
   1  -4   9   22.40    1.80
   1  -4   9   23.20    2.10
   1  -4   9   21.40    1.80
   1  -4   9   21.10    1.90
   1  -4   9   19.10    2.00
  -2   4  -9  158.98    7.30
  -2   4  -9  148.19    7.50
  -2   4  -9  137.09    7.40
  -2   4  -9  158.68    7.40
   2  -4   9  179.68    7.60
   2  -4   9  173.38    7.80
   2  -4   9  164.88    7.50
   2  -4   9  172.88    7.60
  -3   4  -9   11.40    1.70
  -3   4  -9    9.20    1.50
  -3   4  -9   12.40    1.80
  -3   4  -9   10.80    1.80
   3  -4   9   13.40    1.80
   3  -4   9   10.80    1.70
   3  -4   9   10.70    1.60
   3  -4   9   11.90    1.80
  -4   4  -9   30.90    3.10
  -4   4  -9   30.70    2.90
  -4   4  -9   26.60    2.60
  -4   4  -9   22.70    2.60
  -4   4  -9   27.80    2.80
   4  -4   9   24.50    2.70
   4  -4   9   27.20    2.90
   4  -4   9   24.20    2.50
   4  -4   9   24.60    2.80
  -5   4  -9   -0.10    1.20
  -5   4  -9    1.30    1.10
  -5   4  -9    1.00    0.90
  -5   4  -9    1.60    1.20
   5  -4   9    2.40    1.50
   5  -4   9   -0.30    1.10
   5  -4   9    3.50    1.60
  -6   4  -9    8.50    2.10
  -6   4  -9   11.80    2.40
  -6   4  -9    9.30    2.20
   6  -4   9   10.80    2.30
   6  -4   9   13.60    2.40
   6  -4   9   14.70    2.50
   8   3  -9    1.20    1.20
   8   3  -9    0.40    1.10
   8   3  -9    0.70    1.30
  -8  -3   9   -1.20    1.40
  -8  -3   9    0.00    1.10
  -8  -3   9    0.30    1.30
  -8  -3   9   -1.00    1.10
   7   3  -9    8.30    1.90
   7   3  -9    9.90    2.10
   7   3  -9   10.30    1.90
  -7  -3   9    5.40    1.60
  -7  -3   9    7.50    2.00
  -7  -3   9    5.20    1.50
  -7  -3   9    5.50    1.40
  -7  -3   9    4.00    1.40
   6   3  -9    1.70    1.00
   6   3  -9    2.80    1.30
   6   3  -9    4.40    1.50
   6   3  -9    2.50    1.30
  -6  -3   9    3.00    1.40
  -6  -3   9    4.50    1.40
  -6  -3   9    2.20    1.40
  -6  -3   9    1.40    1.10
  -6  -3   9    1.10    1.00
  -6  -3   9    2.00    1.10
   5   3  -9    2.50    1.20
   5   3  -9    1.90    1.00
   5   3  -9    2.40    1.20
  -5  -3   9    2.20    1.00
  -5  -3   9    2.20    1.30
  -5  -3   9    1.00    0.90
  -5  -3   9    2.70    1.20
  -5  -3   9    2.70    1.00
  -5  -3   9    3.80    1.00
   4   3  -9   67.89    3.60
   4   3  -9   70.39    3.90
   4   3  -9   63.69    4.10
  -4  -3   9   64.09    3.80
  -4  -3   9   71.29    4.10
  -4  -3   9   62.19    3.80
  -4  -3   9   58.89    3.90
  -4  -3   9   62.29    3.90
  -4  -3   9   55.89    3.80
   3   3  -9    1.40    0.70
   3   3  -9   -0.10    0.50
   3   3  -9    1.60    1.00
  -3  -3   9    1.30    0.70
  -3  -3   9    1.90    0.90
  -3  -3   9    0.30    0.60
  -3  -3   9    0.30    0.80
  -3  -3   9    0.70    0.90
   2   3  -9  757.52   31.50
   2   3  -9  808.92   31.30
   2   3  -9  805.22   31.20
   2   3  -9  807.92   30.70
   2   3  -9  824.92   31.00
  -2  -3   9  809.12   31.40
  -2  -3   9  789.52   31.50
  -2  -3   9  771.92   31.50
  -2  -3   9  785.22   31.40
  -2  -3   9  761.92   31.10
   1   3  -9   68.29    3.40
   1   3  -9   68.79    3.80
   1   3  -9   74.39    3.80
   1   3  -9   67.49    3.40
   1   3  -9   69.39    3.70
  -1  -3   9   73.49    3.50
  -1  -3   9   66.99    3.80
  -1  -3   9   70.39    3.70
  -1  -3   9   70.49    3.70
  -1  -3   9   71.09    4.00
  -1  -3   9   73.49    3.90
   0   3  -9  401.16   16.90
   0   3  -9  417.36   17.20
   0   3  -9  414.06   17.00
   0   3  -9  430.76   17.20
   0   3  -9  435.56   17.30
   0  -3   9  433.66   17.40
   0  -3   9  444.46   17.10
   0  -3   9  431.06   17.10
   0  -3   9  424.46   17.40
   0  -3   9  427.86   17.60
   0  -3   9  412.26   17.20
  -1   3  -9  114.39    5.50
  -1   3  -9  118.99    5.50
  -1   3  -9  108.79    5.60
  -1   3  -9  111.39    5.70
   1  -3   9  116.99    5.70
   1  -3   9  131.59    5.70
   1  -3   9  118.69    5.90
   1  -3   9  130.99    5.80
   1  -3   9  122.69    5.70
   1  -3   9  115.89    5.50
  -2   3  -9   41.40    2.70
  -2   3  -9   35.90    2.70
  -2   3  -9   38.10    2.60
  -2   3  -9   39.70    2.60
   2  -3   9   43.00    2.80
   2  -3   9   39.00    2.70
   2  -3   9   38.20    2.70
   2  -3   9   44.60    3.00
  -3   3  -9    2.00    0.90
  -3   3  -9    0.40    1.00
  -3   3  -9    2.40    1.00
  -3   3  -9    1.30    0.80
  -3   3  -9    0.90    0.70
   3  -3   9    0.30    1.00
   3  -3   9    2.20    1.10
   3  -3   9    1.20    0.70
   3  -3   9    0.80    1.10
  -4   3  -9   14.10    2.10
  -4   3  -9   10.50    1.70
  -4   3  -9    8.50    1.90
  -4   3  -9   11.90    2.00
   4  -3   9   11.20    1.90
   4  -3   9   12.80    1.90
   4  -3   9   10.60    1.90
   4  -3   9   10.10    1.90
  -5   3  -9   22.00    2.60
  -5   3  -9   27.60    3.10
  -5   3  -9   20.60    2.70
  -5   3  -9   25.20    2.90
   5  -3   9   26.60    3.10
   5  -3   9   20.00    2.50
   5  -3   9   25.50    2.90
   5  -3   9   26.10    3.00
  -6   3  -9    2.10    1.30
  -6   3  -9    1.60    1.50
  -6   3  -9   -0.10    1.30
   6  -3   9   -0.50    1.50
   6  -3   9   -1.90    1.30
   8   2  -9    1.70    1.30
   8   2  -9    0.30    1.40
   8   2  -9   -0.70    1.50
  -8  -2   9   -1.70    1.20
  -8  -2   9    0.20    1.10
  -8  -2   9    1.20    1.40
  -8  -2   9    1.80    1.60
   7   2  -9    0.50    1.10
   7   2  -9    1.70    1.20
   7   2  -9    2.20    1.00
   7   2  -9    1.80    1.20
  -7  -2   9    1.50    1.10
  -7  -2   9    0.80    1.30
  -7  -2   9    0.90    1.30
  -7  -2   9    3.50    1.60
  -7  -2   9    0.60    0.90
  -7  -2   9    0.00    1.10
   6   2  -9   69.09    4.10
   6   2  -9   69.19    4.30
   6   2  -9   52.39    4.20
  -6  -2   9   78.79    4.70
  -6  -2   9   64.19    4.30
  -6  -2   9   70.49    4.50
  -6  -2   9   61.89    4.20
  -6  -2   9   67.89    4.10
   5   2  -9    7.40    1.30
   5   2  -9    5.00    1.60
   5   2  -9    7.10    1.60
  -5  -2   9    7.50    1.60
  -5  -2   9    6.10    1.40
  -5  -2   9    9.00    1.80
  -5  -2   9   10.20    1.70
  -5  -2   9    8.00    1.50
  -5  -2   9    6.20    1.40
   4   2  -9  288.37   13.80
   4   2  -9  354.56   13.70
   4   2  -9  331.67   13.30
  -4  -2   9  301.87   13.30
  -4  -2   9  300.17   13.50
  -4  -2   9  340.37   13.80
  -4  -2   9  324.67   13.70
  -4  -2   9  288.47   13.50
  -4  -2   9  310.27   13.70
   3   2  -9  117.49    6.30
   3   2  -9  121.49    6.10
   3   2  -9  133.69    6.00
   3   2  -9  120.29    5.40
   3   2  -9  120.59    5.50
  -3  -2   9  114.19    6.10
  -3  -2   9  128.79    6.20
  -3  -2   9  122.09    5.80
  -3  -2   9  119.19    6.20
  -3  -2   9  134.89    6.30
  -3  -2   9  137.99    6.30
   2   2  -9  249.97   10.20
   2   2  -9  253.87   10.30
   2   2  -9  248.28   10.70
   2   2  -9  259.07   10.60
   2   2  -9  259.77   11.10
  -2  -2   9  246.98   10.90
  -2  -2   9  250.47   11.00
  -2  -2   9  247.18   10.80
  -2  -2   9  249.28   10.50
  -2  -2   9  236.78   10.80
   1   2  -9   16.30    1.40
   1   2  -9   15.80    1.40
   1   2  -9   19.40    1.60
   1   2  -9   20.30    2.00
   1   2  -9   15.70    1.70
  -1  -2   9   17.90    1.70
  -1  -2   9   17.40    1.90
  -1  -2   9   17.00    1.70
  -1  -2   9   20.10    2.00
  -1  -2   9   13.70    1.80
   0   2  -9   71.29    3.90
   0   2  -9   78.79    3.80
   0   2  -9   77.69    3.80
   0   2  -9   70.19    3.80
   0   2  -9   75.09    3.90
   0  -2   9   83.29    4.20
   0  -2   9   76.79    4.20
   0  -2   9   75.59    4.10
   0  -2   9   77.29    3.70
   0  -2   9   77.89    4.00
   0  -2   9   77.79    3.80
  -1   2  -9   62.69    3.40
  -1   2  -9   60.09    3.30
  -1   2  -9   59.79    3.50
  -1   2  -9   65.09    3.40
   1  -2   9   63.39    3.70
   1  -2   9   61.49    3.50
   1  -2   9   59.69    3.40
   1  -2   9   57.29    3.50
   1  -2   9   57.69    3.40
  -2   2  -9   16.80    1.90
  -2   2  -9   20.70    2.00
  -2   2  -9   20.50    2.00
  -2   2  -9   20.40    2.00
  -2   2  -9   20.60    2.00
   2  -2   9   18.80    2.00
   2  -2   9   18.00    1.90
   2  -2   9   19.30    2.20
   2  -2   9   24.40    2.30
   2  -2   9   23.40    2.00
  -3   2  -9    2.50    1.10
  -3   2  -9    3.20    1.10
  -3   2  -9    2.60    0.90
  -3   2  -9    2.20    0.90
   3  -2   9    3.90    1.20
   3  -2   9    1.00    1.00
   3  -2   9    3.30    1.20
   3  -2   9    1.30    0.90
  -4   2  -9   21.30    2.50
  -4   2  -9   25.80    2.70
  -4   2  -9   26.90    2.70
  -4   2  -9   21.60    2.40
   4  -2   9   16.30    2.30
   4  -2   9   22.80    2.60
   4  -2   9   21.30    2.60
   4  -2   9   20.70    2.50
  -5   2  -9   10.30    1.90
  -5   2  -9   11.20    2.10
  -5   2  -9    8.60    1.70
  -5   2  -9   13.40    2.30
   5  -2   9    7.70    1.90
   5  -2   9   13.30    2.30
   5  -2   9   11.20    2.10
   5  -2   9   10.50    2.20
  -6   2  -9   -1.30    1.40
  -6   2  -9    1.80    1.50
  -6   2  -9    0.90    1.10
   6  -2   9   -0.40    1.50
   6  -2   9    1.70    1.30
   6  -2   9    2.00    1.60
   8   1  -9    1.90    1.80
   8   1  -9    4.10    1.70
   8   1  -9    3.80    1.80
  -8  -1   9    6.20    1.90
  -8  -1   9    4.90    2.10
  -8  -1   9    5.50    2.00
  -8  -1   9    5.50    1.60
   7   1  -9   19.00    2.80
   7   1  -9   18.30    2.40
   7   1  -9   12.20    2.20
  -7  -1   9   12.20    2.30
  -7  -1   9   12.10    2.10
  -7  -1   9   17.80    2.60
  -7  -1   9   13.80    2.10
  -7  -1   9   12.10    2.20
  -7  -1   9   10.90    2.30
   6   1  -9    3.20    1.30
   6   1  -9    3.00    1.50
   6   1  -9    5.80    1.50
  -6  -1   9    5.70    1.40
  -6  -1   9    4.20    1.40
  -6  -1   9    2.50    1.30
  -6  -1   9    2.80    1.20
  -6  -1   9    2.50    1.10
  -6  -1   9    1.80    1.10
   5   1  -9    0.80    0.70
   5   1  -9    0.60    1.00
   5   1  -9    0.20    0.60
   5   1  -9   -0.50    1.20
   5   1  -9    0.50    0.90
  -5  -1   9    1.10    1.10
  -5  -1   9    0.70    0.70
  -5  -1   9   -0.60    0.90
  -5  -1   9    0.70    1.20
  -5  -1   9    0.60    0.90
   4   1  -9   42.70    2.50
   4   1  -9   40.60    2.40
   4   1  -9   41.40    3.00
   4   1  -9   39.90    2.70
   4   1  -9   41.50    3.30
  -4  -1   9   41.50    2.90
  -4  -1   9   43.10    3.20
  -4  -1   9   42.90    3.10
  -4  -1   9   37.70    3.00
  -4  -1   9   40.40    2.90
   3   1  -9   77.79    4.30
   3   1  -9   77.19    3.80
   3   1  -9   78.69    4.60
   3   1  -9   78.19    3.70
   3   1  -9   81.69    4.10
  -3  -1   9   86.59    4.50
  -3  -1   9   81.89    4.40
  -3  -1   9   73.59    4.20
  -3  -1   9   73.49    3.90
  -3  -1   9   75.59    4.40
  -3  -1   9   72.99    4.20
   2   1  -9    6.90    1.20
   2   1  -9    6.10    1.10
   2   1  -9    6.30    0.90
   2   1  -9    6.10    1.40
   2   1  -9    6.00    0.90
  -2  -1   9    5.00    1.10
  -2  -1   9    5.70    1.30
  -2  -1   9    4.10    1.00
  -2  -1   9    4.40    1.00
  -2  -1   9    3.30    1.00
  -2  -1   9    4.60    0.90
   1   1  -9    2.20    0.80
   1   1  -9    0.90    0.50
   1   1  -9    2.00    1.00
   1   1  -9    1.80    0.60
   1   1  -9    1.80    0.70
  -1  -1   9    2.10    0.80
  -1  -1   9    1.70    0.70
  -1  -1   9    1.80    0.80
  -1  -1   9    2.30    0.70
  -1  -1   9    1.40    0.80
   0   1  -9   51.99    3.00
   0   1  -9   54.69    3.10
   0   1  -9   49.99    3.00
   0   1  -9   55.39    3.00
   0   1  -9   54.09    2.90
   0  -1   9   55.99    3.40
   0  -1   9   56.99    3.40
   0  -1   9   51.59    2.90
   0  -1   9   53.19    3.10
   0  -1   9   60.79    3.40
  -1   1  -9   45.10    2.70
  -1   1  -9   49.70    2.90
  -1   1  -9   45.70    2.80
  -1   1  -9   50.59    2.80
  -1   1  -9   44.20    2.90
   1  -1   9   45.70    3.00
   1  -1   9   46.30    2.90
   1  -1   9   48.30    2.80
   1  -1   9   47.60    3.20
   1  -1   9   49.00    3.10
  -2   1  -9    1.20    0.70
  -2   1  -9    0.60    0.70
  -2   1  -9    1.60    0.80
  -2   1  -9    2.50    0.90
   2  -1   9    2.10    0.90
   2  -1   9    1.30    0.80
   2  -1   9    0.70    0.80
   2  -1   9    0.50    0.70
   2  -1   9    0.70    0.90
   2  -1   9    1.30    1.10
  -3   1  -9    0.40    0.80
  -3   1  -9   -0.30    0.80
  -3   1  -9   -0.10    0.90
  -3   1  -9    1.40    0.90
  -3   1  -9   -0.30    0.70
   3  -1   9    0.30    1.10
   3  -1   9   -0.40    0.80
   3  -1   9   -0.70    0.90
   3  -1   9   -0.40    0.80
  -4   1  -9    3.60    1.30
  -4   1  -9    1.40    1.30
  -4   1  -9    2.90    1.50
  -4   1  -9    1.90    1.00
  -4   1  -9    4.60    1.20
   4  -1   9    5.60    1.70
   4  -1   9    2.60    1.30
   4  -1   9    3.00    1.50
   4  -1   9    1.90    1.10
  -5   1  -9   13.90    2.40
  -5   1  -9   14.40    2.80
  -5   1  -9   17.00    2.50
  -5   1  -9   12.30    2.40
  -5   1  -9   15.00    2.20
   5  -1   9   13.80    2.30
   5  -1   9   11.30    2.20
   5  -1   9   14.90    2.50
   5  -1   9   12.70    2.20
  -6   1  -9    0.30    1.50
  -6   1  -9    0.40    1.20
  -6   1  -9    2.80    1.40
   6  -1   9    1.70    1.60
   6  -1   9    4.50    1.80
   6  -1   9   -0.70    1.50
   8   0  -9    5.40    1.80
   8   0  -9    4.80    1.90
   8   0  -9    9.00    2.50
  -8   0   9    3.50    2.00
  -8   0   9    4.00    1.90
  -8   0   9    6.10    1.60
  -8   0   9    4.50    1.90
   7   0  -9   17.10    2.50
   7   0  -9   23.30    3.00
   7   0  -9   26.20    3.40
  -7   0   9   22.00    2.70
  -7   0   9   17.40    2.70
  -7   0   9   23.20    3.10
  -7   0   9   20.60    2.50
  -7   0   9   27.60    3.50
   6   0  -9    8.30    1.70
   6   0  -9   12.60    2.20
   6   0  -9   11.60    1.90
   6   0  -9    8.70    1.40
   6   0  -9   13.10    1.70
  -6   0   9   14.80    2.20
  -6   0   9    9.80    2.10
  -6   0   9   10.90    2.00
  -6   0   9   15.30    2.10
  -6   0   9   12.30    2.20
  -6   0   9   10.70    1.70
   5   0  -9   11.60    2.10
   5   0  -9   10.80    1.40
   5   0  -9   11.40    1.70
   5   0  -9   11.90    1.50
   5   0  -9   11.50    1.90
  -5   0   9   11.10    1.70
  -5   0   9    7.60    1.70
  -5   0   9   12.60    1.90
  -5   0   9    9.70    1.80
  -5   0   9   14.10    2.10
  -5   0   9    9.00    1.50
   4   0  -9   -1.20    1.00
   4   0  -9    1.30    0.60
   4   0  -9   -0.30    0.70
   4   0  -9    0.40    0.70
   4   0  -9    0.10    0.60
  -4   0   9   -0.40    0.50
  -4   0   9    0.20    0.80
  -4   0   9    0.50    0.70
  -4   0   9   -0.50    0.60
  -4   0   9   -0.30    0.90
   3   0  -9   41.10    2.60
   3   0  -9   35.30    2.60
   3   0  -9   37.90    2.30
   3   0  -9   38.00    3.00
   3   0  -9   39.10    2.30
  -3   0   9   39.70    2.80
  -3   0   9   37.30    2.80
  -3   0   9   37.40    2.70
  -3   0   9   35.00    2.70
  -3   0   9   38.20    2.70
   2   0  -9   95.29    4.50
   2   0  -9   84.89    5.00
   2   0  -9   89.39    4.80
   2   0  -9   95.39    4.50
   2   0  -9   93.39    4.70
  -2   0   9   96.09    5.00
  -2   0   9   95.09    4.90
  -2   0   9  102.99    5.00
  -2   0   9   99.59    5.20
  -2   0   9   93.69    4.40
  -2   0   9   95.79    4.90
   1   0  -9    0.70    0.60
   1   0  -9   -1.60    0.90
   1   0  -9    1.00    0.60
   1   0  -9   -0.70    0.40
   1   0  -9   -0.10    0.60
  -1   0   9    0.30    0.60
  -1   0   9    1.00    0.80
  -1   0   9   -0.30    0.70
  -1   0   9    0.00    0.60
  -1   0   9   -0.40    0.70
   0   0  -9   31.50    2.10
   0   0  -9   29.90    2.00
   0   0  -9   31.40    2.10
   0   0  -9   29.00    2.10
   0   0  -9   33.00    2.10
   0   0   9   27.60    2.30
   0   0   9   34.00    2.60
   0   0   9   29.80    2.30
   0   0   9   32.00    2.20
  -1   0  -9   49.99    3.10
  -1   0  -9   54.79    2.90
  -1   0  -9   52.99    3.10
  -1   0  -9   49.20    3.00
  -1   0  -9   51.49    3.00
   1   0   9   58.49    3.50
   1   0   9   56.29    3.40
   1   0   9   63.59    3.80
   1   0   9   51.49    3.30
  -2   0  -9   38.20    2.60
  -2   0  -9   36.50    2.60
  -2   0  -9   42.20    2.80
  -2   0  -9   35.60    2.50
   2   0   9   41.00    3.00
   2   0   9   37.60    2.70
   2   0   9   35.10    2.70
   2   0   9   38.40    3.10
   2   0   9   39.80    2.80
  -3   0  -9    2.50    1.30
  -3   0  -9    5.90    1.40
  -3   0  -9    2.60    1.10
  -3   0  -9    3.60    1.10
  -3   0  -9    4.10    1.50
  -3   0  -9    3.90    1.10
   3   0   9    4.00    1.10
   3   0   9    3.10    1.20
   3   0   9    4.70    1.50
   3   0   9    3.90    1.40
   3   0   9    3.30    1.40
  -4   0  -9    5.50    1.50
  -4   0  -9    3.40    1.70
  -4   0  -9    1.70    1.00
  -4   0  -9    0.20    1.40
  -4   0  -9    4.20    1.20
  -4   0  -9    4.80    1.30
   4   0   9    5.20    1.50
   4   0   9    2.50    1.50
   4   0   9    4.30    1.60
   4   0   9    1.60    1.40
  -5   0  -9    2.30    1.60
  -5   0  -9    1.40    1.10
  -5   0  -9    6.80    1.80
  -5   0  -9    0.50    1.50
  -5   0  -9    3.50    1.80
   5   0   9    2.20    1.70
   5   0   9    0.90    1.70
   5   0   9    2.10    1.50
   5   0   9    1.10    1.30
  -6   0  -9   -1.20    1.50
  -6   0  -9    0.00    1.50
  -6   0  -9   -0.30    1.40
   6   0   9   -1.10    1.40
   6   0   9   -1.60    1.40
   6   0   9   -2.50    1.50
   8  -1  -9   10.80    2.70
   8  -1  -9   12.70    2.60
   8  -1  -9   10.50    2.30
  -8   1   9   10.90    2.00
  -8   1   9   17.70    2.90
  -8   1   9   12.00    2.50
  -8   1   9   17.10    3.00
   7  -1  -9    4.00    1.40
   7  -1  -9    7.80    2.10
   7  -1  -9    4.70    1.30
   7  -1  -9    7.20    1.80
   7  -1  -9    6.20    1.30
  -7   1   9    6.20    1.70
  -7   1   9    6.00    1.80
  -7   1   9    5.90    1.40
  -7   1   9    5.70    1.90
  -7   1   9    6.50    2.00
   6  -1  -9   12.20    2.00
   6  -1  -9    6.40    1.80
   6  -1  -9   11.60    1.60
   6  -1  -9   10.50    1.50
  -6   1   9   16.50    2.30
  -6   1   9   14.60    2.50
  -6   1   9   15.00    2.00
  -6   1   9   12.70    2.10
  -6   1   9   13.70    2.40
   5  -1  -9   -0.10    0.90
   5  -1  -9    0.00    0.70
   5  -1  -9    0.00    0.60
   5  -1  -9   -0.10    0.90
  -5   1   9    1.30    0.90
  -5   1   9   -0.20    0.60
  -5   1   9   -0.60    1.00
  -5   1   9    2.20    1.20
  -5   1   9    0.60    1.10
  -5   1   9    0.70    0.90
   4  -1  -9   77.19    4.70
   4  -1  -9   94.19    4.60
   4  -1  -9   92.09    4.50
   4  -1  -9   88.49    5.10
  -4   1   9   90.59    5.10
  -4   1   9   91.19    5.20
  -4   1   9   93.39    5.00
  -4   1   9   93.99    5.30
  -4   1   9   94.99    4.90
   3  -1  -9   43.30    2.50
   3  -1  -9   41.00    2.70
   3  -1  -9   35.80    2.40
   3  -1  -9   35.60    2.70
  -3   1   9   43.70    2.90
  -3   1   9   36.70    2.70
  -3   1   9   39.50    2.70
  -3   1   9   36.00    2.90
  -3   1   9   34.60    2.80
   2  -1  -9   13.80    1.50
   2  -1  -9   12.70    1.60
   2  -1  -9   12.70    1.40
   2  -1  -9   10.70    1.30
   2  -1  -9   13.40    1.60
  -2   1   9   14.60    1.80
  -2   1   9   11.70    1.60
  -2   1   9   14.00    1.80
  -2   1   9   12.50    1.80
  -2   1   9   11.20    1.60
   1  -1  -9    1.40    0.70
   1  -1  -9    4.60    0.80
   1  -1  -9    2.50    1.20
   1  -1  -9    4.70    0.90
   1  -1  -9    1.70    0.80
   1  -1  -9    4.10    0.80
  -1   1   9    4.20    1.00
  -1   1   9    3.20    1.00
  -1   1   9    2.10    0.80
  -1   1   9    3.40    0.90
  -1   1   9    1.00    0.90
  -1   1   9    2.00    1.00
   0  -1  -9   24.80    1.80
   0  -1  -9   24.20    1.80
   0  -1  -9   20.20    1.80
   0  -1  -9   22.80    1.90
   0  -1  -9   23.30    1.80
   0   1   9   23.10    2.40
   0   1   9   20.80    2.20
   0   1   9   21.50    2.40
   0   1   9   23.00    2.10
  -1  -1  -9   26.10    2.00
  -1  -1  -9   32.40    2.20
  -1  -1  -9   26.30    2.10
  -1  -1  -9   26.10    2.00
   1   1   9   24.80    2.70
   1   1   9   28.60    2.40
   1   1   9   30.70    2.40
   1   1   9   23.90    2.50
  -2  -1  -9    2.10    0.90
  -2  -1  -9    1.10    0.60
  -2  -1  -9    0.90    0.60
  -2  -1  -9    0.50    0.80
   2   1   9   -0.10    1.00
   2   1   9    1.70    0.90
   2   1   9    0.40    0.90
   2   1   9    1.70    0.90
   2   1   9    1.50    1.20
  -3  -1  -9   20.70    2.20
  -3  -1  -9   23.80    2.50
  -3  -1  -9   19.90    2.70
  -3  -1  -9   21.50    2.30
  -3  -1  -9   25.10    2.50
   3   1   9   19.60    2.60
   3   1   9   17.00    2.40
   3   1   9   19.90    3.50
   3   1   9   17.40    2.20
   3   1   9   19.00    2.30
  -4  -1  -9    2.70    1.30
  -4  -1  -9    1.50    1.00
  -4  -1  -9    0.30    1.30
  -4  -1  -9    4.80    1.50
  -4  -1  -9    0.70    1.10
  -4  -1  -9    1.50    1.40
   4   1   9    1.30    1.50
   4   1   9    0.80    1.10
   4   1   9    2.10    1.60
   4   1   9    2.50    1.40
  -5  -1  -9    2.50    1.50
  -5  -1  -9    4.80    1.80
  -5  -1  -9    1.60    1.70
  -5  -1  -9    0.60    1.50
   5   1   9    2.80    1.70
   5   1   9    1.40    1.70
   5   1   9    1.80    1.50
   5   1   9    1.90    1.80
  -6  -1  -9   12.40    2.60
  -6  -1  -9   10.10    3.00
  -6  -1  -9   17.40    2.80
   6   1   9   10.10    2.40
   6   1   9   14.10    2.90
   6   1   9    7.60    2.50
   8  -2  -9   -0.70    0.80
   8  -2  -9    0.20    1.30
   8  -2  -9    0.80    1.70
  -8   2   9   -0.20    1.30
  -8   2   9    4.10    2.10
  -8   2   9    0.30    1.80
   7  -2  -9   12.50    2.20
   7  -2  -9   10.10    2.10
   7  -2  -9   14.70    1.90
   7  -2  -9   10.80    1.70
  -7   2   9   12.30    2.50
  -7   2   9   15.30    2.50
  -7   2   9   12.20    2.30
  -7   2   9   12.20    2.40
  -7   2   9   17.20    2.30
   6  -2  -9    0.00    0.70
   6  -2  -9   -1.70    1.00
   6  -2  -9    0.80    0.80
   6  -2  -9   -0.50    0.70
  -6   2   9    1.40    1.00
  -6   2   9    0.90    1.30
  -6   2   9    1.20    1.30
  -6   2   9    0.90    1.10
  -6   2   9    0.50    1.10
   5  -2  -9    1.10    1.00
   5  -2  -9    1.60    0.90
   5  -2  -9    0.40    0.70
   5  -2  -9    0.00    0.60
  -5   2   9    0.20    0.80
  -5   2   9    0.10    0.90
  -5   2   9   -1.00    0.70
  -5   2   9    0.00    1.10
  -5   2   9    0.00    1.10
   4  -2  -9    0.70    0.90
   4  -2  -9    0.40    0.60
   4  -2  -9    0.50    0.60
   4  -2  -9   -1.20    0.80
  -4   2   9   -0.10    0.70
  -4   2   9   -0.50    0.80
  -4   2   9    0.00    0.60
  -4   2   9   -0.50    0.90
  -4   2   9    0.00    0.70
  -4   2   9    2.50    1.20
   3  -2  -9   43.20    2.70
   3  -2  -9   43.20    2.60
   3  -2  -9   44.20    3.10
   3  -2  -9   44.20    2.60
   3  -2  -9   43.40    2.90
  -3   2   9   42.10    3.10
  -3   2   9   43.20    3.10
  -3   2   9   44.80    3.30
  -3   2   9   41.80    2.90
  -3   2   9   45.30    3.30
   2  -2  -9   22.60    1.90
   2  -2  -9   22.80    1.80
   2  -2  -9   20.70    1.70
   2  -2  -9   19.40    1.70
   2  -2  -9   22.80    2.20
  -2   2   9   21.10    2.30
  -2   2   9   25.60    2.10
  -2   2   9   20.60    2.30
  -2   2   9   22.80    2.30
  -2   2   9   20.70    2.40
   1  -2  -9   77.09    4.00
   1  -2  -9   75.79    4.10
   1  -2  -9   80.19    4.10
   1  -2  -9   79.89    4.10
   1  -2  -9   77.99    4.10
  -1   2   9   81.99    4.50
  -1   2   9   80.29    4.40
  -1   2   9   80.39    4.60
  -1   2   9   84.59    4.20
  -1   2   9   86.49    4.80
   0  -2  -9   -0.40    0.50
   0  -2  -9    0.10    0.60
   0  -2  -9    0.10    0.60
   0  -2  -9   -0.60    0.50
   0   2   9   -0.50    0.70
   0   2   9    0.80    0.70
   0   2   9    0.20    0.90
   0   2   9    0.70    1.00
  -1  -2  -9   30.40    2.10
  -1  -2  -9   24.00    2.00
  -1  -2  -9   26.60    2.20
  -1  -2  -9   27.00    2.10
   1   2   9   25.70    2.80
   1   2   9   25.20    2.70
   1   2   9   29.50    2.60
   1   2   9   25.70    2.70
  -2  -2  -9   15.10    1.80
  -2  -2  -9   15.20    1.90
  -2  -2  -9   13.20    1.80
  -2  -2  -9    9.80    1.50
   2   2   9   12.30    2.00
   2   2   9   14.30    2.10
   2   2   9   11.10    1.90
   2   2   9   13.70    2.30
  -3  -2  -9    8.70    1.60
  -3  -2  -9    7.50    1.50
  -3  -2  -9    6.20    1.40
   3   2   9    6.10    1.80
   3   2   9    5.50    1.60
   3   2   9    5.90    1.60
   3   2   9    6.90    1.90
   3   2   9    4.10    1.50
  -4  -2  -9   41.40    4.40
  -4  -2  -9   29.80    3.10
  -4  -2  -9   41.70    3.30
  -4  -2  -9   32.80    3.40
   4   2   9   34.70    3.60
   4   2   9   26.80    3.30
   4   2   9   34.40    3.40
   4   2   9   34.70    3.60
   4   2   9   35.10    4.30
  -5  -2  -9    1.90    1.60
  -5  -2  -9    0.10    1.20
  -5  -2  -9    0.10    1.10
  -5  -2  -9   -0.20    1.90
   5   2   9    1.00    1.40
   5   2   9    2.10    2.40
   5   2   9   -0.60    1.70
   5   2   9    0.30    1.50
   8  -3  -9    1.70    1.20
   8  -3  -9    1.80    1.60
   8  -3  -9    1.80    1.20
  -8   3   9   -1.50    1.20
  -8   3   9    2.30    2.00
  -8   3   9    0.20    1.50
   7  -3  -9   12.10    1.90
   7  -3  -9   11.00    2.40
   7  -3  -9   11.00    2.20
  -7   3   9    9.80    2.40
  -7   3   9    8.70    1.80
  -7   3   9   14.50    2.40
  -7   3   9   10.10    2.40
  -7   3   9   11.00    2.40
   6  -3  -9    7.50    1.90
   6  -3  -9    8.40    1.40
   6  -3  -9    6.90    1.70
   6  -3  -9    8.40    1.50
  -6   3   9    9.80    2.10
  -6   3   9    5.80    1.90
  -6   3   9   11.30    1.90
  -6   3   9   13.50    2.20
  -6   3   9   10.30    2.20
   5  -3  -9   46.70    3.50
   5  -3  -9   50.79    3.80
   5  -3  -9   51.69    3.30
   5  -3  -9   51.09    3.20
  -5   3   9   49.30    3.50
  -5   3   9   55.59    4.10
  -5   3   9   51.99    3.80
  -5   3   9   49.90    4.00
  -5   3   9   53.09    4.10
   4  -3  -9    2.90    0.90
   4  -3  -9    1.90    1.00
   4  -3  -9    2.90    0.90
   4  -3  -9    2.70    0.80
   4  -3  -9   -0.40    1.00
  -4   3   9    6.70    1.60
  -4   3   9    2.10    1.30
  -4   3   9    2.40    1.20
  -4   3   9    2.30    1.20
  -4   3   9    2.70    1.10
   3  -3  -9   38.80    2.90
   3  -3  -9   33.60    2.60
   3  -3  -9   34.10    2.40
   3  -3  -9   38.70    2.50
   3  -3  -9   39.80    2.60
  -3   3   9   36.70    2.60
  -3   3   9   34.60    2.90
  -3   3   9   35.10    2.90
  -3   3   9   35.80    3.10
  -3   3   9   39.30    3.10
   2  -3  -9    0.80    0.70
   2  -3  -9    0.70    0.60
   2  -3  -9    0.30    0.80
   2  -3  -9    0.10    0.60
   2  -3  -9    2.10    0.90
  -2   3   9    1.40    0.80
  -2   3   9    1.10    1.00
  -2   3   9   -0.80    0.80
  -2   3   9   -0.70    0.60
  -2   3   9    0.50    1.00
   1  -3  -9   -0.40    0.60
   1  -3  -9   -0.40    0.60
   1  -3  -9    1.20    0.80
   1  -3  -9   -0.60    0.60
  -1   3   9    1.10    0.90
  -1   3   9    0.30    0.80
  -1   3   9    1.70    1.00
   0  -3  -9   45.40    2.80
   0  -3  -9   40.50    2.90
   0  -3  -9   46.20    2.90
   0  -3  -9   44.30    2.80
   0   3   9   47.00    3.50
   0   3   9   47.60    3.40
   0   3   9   48.10    3.50
  -1  -3  -9    0.20    0.70
  -1  -3  -9    0.40    0.80
  -1  -3  -9   -0.10    0.80
  -1  -3  -9   -0.50    0.50
   1   3   9    0.30    1.00
   1   3   9    1.10    1.20
   1   3   9   -0.10    1.00
   1   3   9   -1.00    1.10
  -2  -3  -9    0.80    0.90
  -2  -3  -9    1.20    0.90
  -2  -3  -9   -0.50    0.70
   2   3   9   -1.00    0.70
   2   3   9   -0.60    1.10
   2   3   9    1.10    1.10
   2   3   9    1.00    1.30
  -3  -3  -9    0.10    0.90
  -3  -3  -9    0.60    1.00
  -3  -3  -9   -0.20    0.90
   3   3   9    0.30    1.10
   3   3   9    0.50    1.50
   3   3   9    1.00    1.20
   3   3   9    1.20    1.10
  -4  -3  -9   14.10    2.20
  -4  -3  -9   16.40    2.50
   4   3   9   16.30    2.70
   4   3   9   15.30    2.50
   4   3   9   16.90    2.70
   4   3   9   12.10    2.70
  -5  -3  -9   -0.30    1.50
  -5  -3  -9    0.00    1.30
  -5  -3  -9    0.30    1.20
   5   3   9   -0.80    1.80
   5   3   9   -0.20    1.50
   5   3   9    1.30    1.90
   7  -4  -9    4.30    1.60
   7  -4  -9    6.80    1.60
   7  -4  -9    5.80    1.90
  -7   4   9    5.80    2.10
  -7   4   9    4.20    2.10
  -7   4   9    4.40    1.80
   6  -4  -9    0.60    0.90
   6  -4  -9    1.90    1.40
   6  -4  -9    0.30    1.20
  -6   4   9    0.20    1.40
  -6   4   9    0.10    1.40
  -6   4   9    1.70    1.50
  -6   4   9   -1.30    0.80
  -6   4   9    0.20    1.00
   5  -4  -9    0.60    0.70
   5  -4  -9    0.60    1.10
   5  -4  -9    0.10    0.70
   5  -4  -9    0.30    1.10
   5  -4  -9    1.10    0.90
  -5   4   9   -0.10    0.80
  -5   4   9    0.20    0.90
  -5   4   9    0.40    1.20
  -5   4   9   -2.00    1.00
  -5   4   9    0.50    1.00
   4  -4  -9   25.30    2.70
   4  -4  -9   22.40    2.20
   4  -4  -9   26.40    2.10
   4  -4  -9   26.70    2.50
   4  -4  -9   23.40    2.70
  -4   4   9   27.90    3.00
  -4   4   9   30.40    3.20
  -4   4   9   27.40    2.80
  -4   4   9   26.30    3.00
  -4   4   9   20.50    2.90
   3  -4  -9   12.20    1.60
   3  -4  -9    9.60    1.50
   3  -4  -9   11.00    1.50
   3  -4  -9   11.20    1.80
   3  -4  -9    6.80    1.20
  -3   4   9   10.70    2.00
  -3   4   9   11.80    1.90
  -3   4   9    8.60    1.80
  -3   4   9   11.30    1.90
   2  -4  -9    1.20    0.70
   2  -4  -9    2.30    0.90
   2  -4  -9    1.70    1.00
   2  -4  -9    2.20    0.90
   2  -4  -9    1.40    0.80
  -2   4   9    2.40    1.10
  -2   4   9    2.10    1.20
  -2   4   9    2.00    0.90
  -2   4   9    2.30    1.20
  -2   4   9    3.60    1.10
   1  -4  -9    7.30    1.10
   1  -4  -9    5.30    1.20
   1  -4  -9    4.70    1.10
   1  -4  -9    5.70    1.10
  -1   4   9    4.20    1.50
  -1   4   9    7.90    1.60
  -1   4   9    6.10    1.40
   0  -4  -9   15.40    1.80
   0  -4  -9   14.90    1.70
   0  -4  -9   20.10    2.10
   0  -4  -9   19.30    2.10
   0   4   9   18.20    2.50
   0   4   9   14.10    2.10
   0   4   9   13.40    2.20
  -1  -4  -9    0.60    0.60
  -1  -4  -9   -0.20    0.70
  -1  -4  -9   -0.40    0.70
   1   4   9    0.00    0.80
   1   4   9    0.20    1.10
   1   4   9   -0.50    0.90
  -2  -4  -9    0.90    1.10
  -2  -4  -9    1.00    0.90
  -2  -4  -9    0.60    1.00
   2   4   9    1.60    1.50
   2   4   9    0.10    1.10
   2   4   9    0.30    1.20
   2   4   9    1.20    1.20
  -3  -4  -9    1.10    1.20
  -3  -4  -9   -1.70    1.00
  -3  -4  -9   -0.40    1.40
   3   4   9   -0.10    1.20
   3   4   9   -1.20    1.30
   3   4   9    2.70    1.80
   3   4   9    1.60    1.10
  -4  -4  -9    1.80    1.20
  -4  -4  -9    1.40    1.10
   4   4   9   -0.10    1.60
   4   4   9   -0.40    1.30
   4   4   9   -2.40    1.50
   7  -5  -9    2.90    1.70
   7  -5  -9    2.50    1.30
   7  -5  -9    6.00    1.70
  -7   5   9    1.40    1.50
  -7   5   9    2.40    1.70
  -7   5   9    1.90    1.50
   6  -5  -9    1.80    1.20
   6  -5  -9    3.30    1.10
   6  -5  -9    4.50    1.40
   6  -5  -9    2.80    1.50
  -6   5   9    2.70    1.60
  -6   5   9    3.50    1.50
  -6   5   9    2.70    1.70
  -6   5   9    2.90    1.90
  -6   5   9    1.30    1.30
   5  -5  -9    5.40    1.50
   5  -5  -9    2.00    1.10
   5  -5  -9    2.60    1.00
   5  -5  -9   -1.20    0.90
  -5   5   9    3.90    1.70
  -5   5   9    3.60    1.50
  -5   5   9    2.60    1.50
  -5   5   9    0.80    1.50
  -5   5   9    4.90    1.50
   4  -5  -9   -0.10    1.00
   4  -5  -9    0.80    0.80
   4  -5  -9   -0.40    0.60
   4  -5  -9    0.50    0.90
   4  -5  -9   -0.60    1.00
  -4   5   9   -1.40    1.10
  -4   5   9    0.10    1.10
  -4   5   9    0.30    1.10
  -4   5   9    1.00    1.20
  -4   5   9    1.60    1.00
   3  -5  -9    0.00    1.00
   3  -5  -9    0.70    0.80
   3  -5  -9    0.90    0.90
   3  -5  -9   -0.70    0.60
   3  -5  -9   -0.70    0.40
  -3   5   9    0.00    1.20
  -3   5   9    0.60    1.00
  -3   5   9    0.50    1.10
  -3   5   9   -0.60    0.90
   2  -5  -9    2.50    0.90
   2  -5  -9    1.70    0.90
   2  -5  -9    2.60    0.90
   2  -5  -9    3.00    1.00
  -2   5   9    0.70    0.90
  -2   5   9    1.80    1.10
  -2   5   9    2.50    1.20
   1  -5  -9    0.70    0.70
   1  -5  -9   -0.50    0.70
   1  -5  -9   -0.20    0.80
   1  -5  -9   -0.10    0.60
  -1   5   9    2.80    1.20
  -1   5   9   -0.40    0.70
  -1   5   9    0.40    0.90
   0  -5  -9    1.10    0.90
   0  -5  -9   -0.60    0.70
   0  -5  -9   -0.70    0.80
   0   5   9    0.20    1.00
   0   5   9    1.40    1.20
   0   5   9   -0.30    0.80
  -1  -5  -9    1.70    1.00
  -1  -5  -9    1.10    1.00
  -1  -5  -9    1.90    0.90
   1   5   9    4.00    1.60
   1   5   9    5.50    1.60
   1   5   9    4.00    1.50
  -2  -5  -9   14.60    2.40
  -2  -5  -9   14.70    2.20
  -2  -5  -9   16.90    2.40
   2   5   9   17.60    2.80
   2   5   9   12.60    2.30
   2   5   9   15.20    2.60
  -3  -5  -9    1.10    1.20
  -3  -5  -9    0.90    1.20
   3   5   9   -0.90    1.00
   3   5   9    0.50    2.10
   3   5   9   -0.60    1.20
  -4  -5  -9    2.30    1.60
  -4  -5  -9    2.00    1.50
   4   5   9    0.40    1.90
   4   5   9   -0.30    1.80
   4   5   9    0.90    1.60
   6  -6  -9   -0.10    1.00
   6  -6  -9    0.60    1.20
   6  -6  -9    0.50    1.00
   6  -6  -9   -0.10    1.30
  -6   6   9   -0.20    1.30
  -6   6   9    1.80    1.70
  -6   6   9    1.60    1.80
   5  -6  -9    0.70    1.00
   5  -6  -9    0.40    1.00
   5  -6  -9    3.20    1.40
   5  -6  -9    0.30    1.10
  -5   6   9    0.40    1.00
  -5   6   9   -1.60    1.30
  -5   6   9    0.40    1.60
  -5   6   9   -1.00    1.40
   4  -6  -9    0.00    1.10
   4  -6  -9    0.20    0.90
   4  -6  -9   -0.40    0.90
   4  -6  -9    0.90    1.20
  -4   6   9    0.00    1.10
  -4   6   9   -0.60    1.10
  -4   6   9   -0.20    1.00
  -4   6   9   -0.40    1.10
  -4   6   9    1.50    1.40
   3  -6  -9    0.50    0.70
   3  -6  -9    0.50    0.80
   3  -6  -9   -0.20    0.90
   3  -6  -9    0.00    0.80
  -3   6   9   -0.40    1.00
  -3   6   9    1.70    1.40
  -3   6   9    1.60    1.50
   2  -6  -9   12.30    1.80
   2  -6  -9   13.80    1.80
   2  -6  -9   14.60    1.80
   2  -6  -9   13.20    1.90
  -2   6   9   16.10    2.50
  -2   6   9   15.10    2.30
   1  -6  -9    0.50    0.80
   1  -6  -9    1.00    1.00
   1  -6  -9   -0.10    0.90
  -1   6   9    0.10    1.20
  -1   6   9   -0.10    1.30
   0  -6  -9    4.40    1.20
   0  -6  -9    4.10    1.30
   0  -6  -9    3.50    1.40
   0   6   9    5.40    1.70
   0   6   9    4.00    1.80
   0   6   9    3.90    1.60
  -1  -6  -9    4.00    1.40
  -1  -6  -9    3.40    1.30
   1   6   9    4.50    1.40
   1   6   9    0.20    1.40
  -2  -6  -9   -0.50    1.10
  -2  -6  -9    0.60    1.30
   2   6   9    0.50    1.40
   2   6   9    0.80    1.20
  -3  -6  -9    1.10    1.40
  -3  -6  -9    2.90    1.50
   3   6   9   -0.10    1.60
   3   6   9    2.40    2.10
   5  -7  -9    6.50    1.50
   5  -7  -9    3.90    1.70
   5  -7  -9    3.60    1.50
   5  -7  -9    2.20    1.20
  -5   7   9    4.30    1.90
  -5   7   9    2.50    1.80
  -5   7   9    2.40    1.70
   4  -7  -9   -1.20    1.20
   4  -7  -9   -0.50    1.00
   4  -7  -9   -0.50    0.90
  -4   7   9    0.60    1.30
  -4   7   9   -2.10    1.40
  -4   7   9    1.30    1.30
   3  -7  -9    5.20    1.40
   3  -7  -9    3.60    1.30
  -3   7   9    4.80    1.90
  -3   7   9   10.40    2.10
   2  -7  -9    5.70    1.40
   2  -7  -9    7.90    1.60
  -2   7   9    4.80    1.60
   1  -7  -9   -0.30    1.00
   1  -7  -9    1.10    1.00
  -1   7   9    1.40    1.20
   0  -7  -9    2.60    1.20
   0  -7  -9    1.90    1.40
   0   7   9   -0.40    1.30
  -1  -7  -9   -0.10    1.10
  -1  -7  -9    1.30    1.30
   1   7   9    0.90    1.40
   1   7   9    2.20    1.50
  -2  -7  -9   -0.10    1.10
  -2  -7  -9   -0.20    1.30
   2   7   9    0.70    1.40
   2   7   9    0.90    1.60
   3  -8  -9    0.20    1.10
   3  -8  -9    0.00    1.10
  -3   8   9    1.90    1.40
  -3   8   9    2.90    2.00
   2  -8  -9    0.60    1.10
   2  -8  -9    0.40    1.00
  -2   8   9   -0.50    1.30
   1  -8  -9    1.40    1.10
   1  -8  -9    0.80    1.30
  -1   8   9    2.60    1.50
   0  -8  -9    4.30    1.80
   0  -8  -9    6.20    1.50
   0   8   9    5.60    1.90
   3  11 -10    1.40    1.80
   2  11 -10    1.10    1.30
   2  11 -10   -0.10    1.20
  -2 -11  10   -0.10    1.50
  -2 -11  10   -0.30    1.40
  -2 -11  10    1.00    1.30
   1  11 -10    0.50    1.60
   1  11 -10    0.40    1.40
  -1 -11  10    1.10    1.50
  -1 -11  10    0.80    1.40
   0  11 -10   -0.20    1.10
   0  11 -10    1.50    1.60
   0 -11  10    0.90    1.40
   0 -11  10   -0.30    1.30
  -1  11 -10    0.60    1.20
  -1  11 -10    1.70    1.70
   1 -11  10    3.40    1.50
   1 -11  10    2.90    1.50
   4  10 -10    1.50    1.40
   4  10 -10    3.00    1.50
   4  10 -10    2.20    1.80
  -4 -10  10    2.20    1.30
  -4 -10  10    1.10    1.20
  -4 -10  10    0.30    1.60
  -4 -10  10    2.90    1.70
   3  10 -10    2.10    1.70
   3  10 -10    2.70    1.40
   3  10 -10    0.70    1.20
  -3 -10  10    0.90    1.50
  -3 -10  10    0.90    1.30
  -3 -10  10    0.60    1.00
  -3 -10  10    0.20    1.40
   2  10 -10   -0.60    1.30
   2  10 -10    0.70    1.20
  -2 -10  10    0.70    1.20
  -2 -10  10    1.10    1.20
  -2 -10  10   -1.50    1.20
   1  10 -10   13.50    2.20
   1  10 -10   10.70    2.30
  -1 -10  10   15.70    2.40
  -1 -10  10   16.50    2.50
  -1 -10  10   13.10    2.20
   0  10 -10    1.50    1.40
   0  10 -10    3.90    1.60
   0 -10  10    3.60    1.50
   0 -10  10    3.20    1.50
   0 -10  10    1.80    1.30
  -1  10 -10    0.00    0.90
  -1  10 -10   -0.70    1.20
   1 -10  10   -0.60    1.10
   1 -10  10    1.70    1.30
   1 -10  10    0.90    1.60
  -2  10 -10    0.80    1.10
  -2  10 -10    0.00    1.30
  -2  10 -10   -0.20    1.10
   2 -10  10    0.50    1.30
   2 -10  10    0.10    0.90
  -3  10 -10    3.40    1.80
  -3  10 -10    3.10    1.70
   3 -10  10    2.60    1.50
   3 -10  10    3.60    1.60
   5   9 -10    4.60    1.60
   5   9 -10    4.50    1.70
   5   9 -10    3.20    1.60
  -5  -9  10    2.90    1.40
  -5  -9  10    3.00    1.60
  -5  -9  10    0.50    1.50
  -5  -9  10    5.40    2.10
   4   9 -10    9.50    2.00
   4   9 -10    8.60    1.80
   4   9 -10   12.30    2.20
  -4  -9  10   11.30    2.30
  -4  -9  10    7.30    1.70
  -4  -9  10    9.60    2.20
  -4  -9  10    9.90    2.10
   3   9 -10    5.40    1.70
   3   9 -10    2.40    1.50
   3   9 -10    8.50    1.80
   3   9 -10    5.60    1.40
  -3  -9  10    2.80    1.10
  -3  -9  10    1.70    1.10
  -3  -9  10    5.30    1.80
  -3  -9  10    3.70    1.40
  -3  -9  10    3.10    1.60
   2   9 -10    1.50    1.10
   2   9 -10   -0.40    1.10
   2   9 -10   -0.80    1.00
   2   9 -10   -0.20    0.80
  -2  -9  10    0.80    1.00
  -2  -9  10   -0.90    0.70
  -2  -9  10    0.20    1.20
  -2  -9  10   -1.10    1.00
   1   9 -10   -0.50    0.80
   1   9 -10   -0.90    1.00
  -1  -9  10    0.90    0.80
  -1  -9  10    0.10    0.80
  -1  -9  10    1.30    1.20
   0   9 -10    1.60    1.10
   0   9 -10   -0.50    0.90
   0   9 -10   -0.30    1.10
   0  -9  10   -0.70    1.00
   0  -9  10   -0.30    0.90
   0  -9  10    1.90    1.10
   0  -9  10    1.40    1.20
  -1   9 -10   -0.60    1.00
  -1   9 -10    0.80    1.00
  -1   9 -10   -0.10    1.20
   1  -9  10    0.90    1.10
   1  -9  10    1.00    1.00
   1  -9  10    0.20    1.00
  -2   9 -10    2.60    1.30
  -2   9 -10    4.00    1.50
  -2   9 -10    1.00    1.40
   2  -9  10    4.80    1.50
   2  -9  10    5.60    1.50
   2  -9  10    2.90    1.30
  -3   9 -10    0.80    1.30
  -3   9 -10    1.10    1.60
   3  -9  10   -0.30    1.20
   3  -9  10    2.60    1.30
  -4   9 -10    5.30    1.90
  -4   9 -10    3.00    1.90
   4  -9  10    5.40    1.70
   4  -9  10    8.00    1.90
   6   8 -10    4.10    1.60
   6   8 -10    2.60    1.40
  -6  -8  10    4.20    2.10
  -6  -8  10    1.40    1.50
  -6  -8  10    4.00    1.30
   5   8 -10    0.20    1.20
   5   8 -10    1.70    1.30
   5   8 -10    0.00    1.20
  -5  -8  10    0.60    1.20
  -5  -8  10   -0.30    1.00
  -5  -8  10    2.40    1.60
   4   8 -10   -0.10    0.90
   4   8 -10   -1.90    0.90
   4   8 -10    0.20    1.10
   4   8 -10   -1.20    1.00
  -4  -8  10    0.50    1.30
  -4  -8  10    1.70    1.30
  -4  -8  10    0.10    1.00
  -4  -8  10    1.20    0.90
  -4  -8  10    0.90    1.10
   3   8 -10    6.70    1.70
   3   8 -10    5.30    1.40
   3   8 -10    6.40    1.50
   3   8 -10    4.60    1.60
  -3  -8  10    5.00    1.50
  -3  -8  10    5.30    1.50
  -3  -8  10    4.60    1.40
  -3  -8  10    4.20    1.40
  -3  -8  10    7.60    1.80
   2   8 -10    1.70    1.10
   2   8 -10    3.00    1.10
   2   8 -10    0.50    0.80
   2   8 -10    3.40    1.30
  -2  -8  10    2.20    1.10
  -2  -8  10    0.60    1.00
  -2  -8  10    1.10    0.80
  -2  -8  10    0.20    0.80
  -2  -8  10    2.00    1.10
   1   8 -10   25.30    2.80
   1   8 -10   21.00    2.60
   1   8 -10   27.40    3.20
   1   8 -10   31.20    2.80
  -1  -8  10   27.40    2.80
  -1  -8  10   22.40    2.60
  -1  -8  10   20.00    2.50
   0   8 -10    7.30    1.50
   0   8 -10    5.30    1.40
   0   8 -10    4.20    1.40
   0  -8  10    8.70    1.50
   0  -8  10    4.00    1.30
   0  -8  10    6.10    1.40
   0  -8  10    5.20    1.40
  -1   8 -10    2.00    1.00
  -1   8 -10    2.10    0.90
  -1   8 -10    1.40    1.10
   1  -8  10    3.90    1.30
   1  -8  10    1.60    1.00
   1  -8  10    2.20    1.00
   1  -8  10    2.30    1.10
  -2   8 -10    3.30    1.30
  -2   8 -10    5.90    1.40
   2  -8  10    4.60    1.20
   2  -8  10    6.10    1.60
   2  -8  10    8.80    1.60
  -3   8 -10    0.20    0.80
  -3   8 -10    0.80    1.20
   3  -8  10   -0.50    1.10
   3  -8  10   -0.90    1.00
   3  -8  10    2.30    1.30
  -4   8 -10    0.00    1.20
  -4   8 -10    0.80    1.50
   4  -8  10   -0.50    1.20
   4  -8  10    0.90    1.20
  -7  -7  10   -0.10    1.50
   6   7 -10    0.00    0.80
   6   7 -10   -1.40    1.10
   6   7 -10   -1.10    1.30
  -6  -7  10   -0.20    1.60
  -6  -7  10    0.40    1.20
  -6  -7  10    1.10    1.10
   5   7 -10    8.40    1.80
   5   7 -10   11.80    2.90
   5   7 -10    9.60    1.70
   5   7 -10   10.40    2.00
  -5  -7  10    9.50    2.00
  -5  -7  10    5.60    1.60
  -5  -7  10   10.00    2.60
  -5  -7  10    7.90    1.60
   4   7 -10    2.50    1.40
   4   7 -10    2.40    1.20
   4   7 -10    4.10    1.40
  -4  -7  10    3.40    1.40
  -4  -7  10    2.50    1.70
  -4  -7  10    1.50    0.80
  -4  -7  10    2.30    1.10
  -4  -7  10    0.90    1.10
   3   7 -10   18.80    2.20
   3   7 -10   16.50    2.30
   3   7 -10   16.40    2.40
  -3  -7  10   14.10    2.20
  -3  -7  10   12.50    1.90
  -3  -7  10   19.10    2.40
  -3  -7  10   12.90    2.10
  -3  -7  10   13.70    2.00
   2   7 -10    2.80    1.10
   2   7 -10    2.20    1.00
   2   7 -10    2.70    1.00
   2   7 -10    0.40    0.90
  -2  -7  10    1.20    0.70
  -2  -7  10    1.60    0.90
  -2  -7  10    1.80    1.10
  -2  -7  10    1.00    0.80
  -2  -7  10    1.70    0.90
   1   7 -10    2.10    1.00
   1   7 -10    2.10    0.90
   1   7 -10    0.50    0.90
   1   7 -10   -0.30    0.80
  -1  -7  10    1.20    0.90
  -1  -7  10    1.70    0.90
  -1  -7  10    1.70    0.90
  -1  -7  10    0.70    0.90
  -1  -7  10    0.50    0.90
   0   7 -10    3.90    1.30
   0   7 -10    5.20    1.30
   0   7 -10    5.70    1.40
   0  -7  10    4.40    1.30
   0  -7  10    4.70    1.20
   0  -7  10    7.40    1.40
  -1   7 -10    0.90    1.10
  -1   7 -10    1.40    0.90
  -1   7 -10    1.70    1.10
   1  -7  10    0.90    0.80
   1  -7  10    2.40    1.10
   1  -7  10    1.90    1.00
   1  -7  10    0.40    1.00
  -2   7 -10   -0.90    0.60
  -2   7 -10    0.40    0.80
   2  -7  10   -0.70    0.80
   2  -7  10   -0.60    0.80
   2  -7  10    0.30    1.00
   2  -7  10   -1.20    0.80
  -3   7 -10   11.60    2.10
  -3   7 -10   13.30    2.30
   3  -7  10   11.80    2.00
   3  -7  10   10.50    1.90
   3  -7  10   14.80    2.10
  -4   7 -10    4.70    1.70
  -4   7 -10    4.10    1.60
   4  -7  10    6.80    1.80
   4  -7  10    4.60    2.10
   4  -7  10    5.40    1.60
  -5   7 -10    2.10    1.70
  -5   7 -10    6.10    1.70
  -5   7 -10    3.60    1.80
   5  -7  10    5.60    1.90
   5  -7  10    5.20    1.70
   7   6 -10   -0.20    1.20
   7   6 -10   -1.10    1.10
   7   6 -10    0.40    1.30
  -7  -6  10   -0.40    1.10
  -7  -6  10   -0.30    1.20
  -7  -6  10    0.20    1.80
  -7  -6  10   -0.90    1.30
   6   6 -10    2.60    1.20
   6   6 -10    0.00    1.10
   6   6 -10    0.10    1.10
  -6  -6  10    0.00    1.30
  -6  -6  10   -1.20    1.10
  -6  -6  10   -0.50    1.10
  -6  -6  10    0.10    0.90
   5   6 -10    1.00    1.10
   5   6 -10    1.00    1.20
   5   6 -10    2.50    1.10
  -5  -6  10    2.50    1.40
  -5  -6  10    2.50    1.10
  -5  -6  10    0.30    1.20
  -5  -6  10    0.80    0.80
  -5  -6  10    1.40    1.30
   4   6 -10   19.00    2.30
   4   6 -10   18.00    2.50
   4   6 -10   26.70    2.60
  -4  -6  10   20.10    2.60
  -4  -6  10   19.30    2.30
  -4  -6  10   19.60    2.40
  -4  -6  10   21.10    2.30
  -4  -6  10   25.50    2.90
   3   6 -10   19.70    2.60
   3   6 -10   25.80    2.00
   3   6 -10   21.60    2.30
   3   6 -10   21.90    2.50
  -3  -6  10   30.30    2.80
  -3  -6  10   25.30    2.80
  -3  -6  10   22.00    2.40
  -3  -6  10   24.00    2.50
  -3  -6  10   26.50    2.70
   2   6 -10   27.70    2.40
   2   6 -10   28.50    2.90
   2   6 -10   33.40    2.30
   2   6 -10   28.80    2.80
  -2  -6  10   32.30    2.50
  -2  -6  10   33.00    2.60
  -2  -6  10   34.10    2.70
  -2  -6  10   27.80    2.70
  -2  -6  10   31.10    2.50
   1   6 -10   45.00    3.00
   1   6 -10   47.30    3.20
   1   6 -10   40.30    2.90
   1   6 -10   38.60    2.70
  -1  -6  10   39.30    2.80
  -1  -6  10   38.90    2.90
  -1  -6  10   40.40    2.80
  -1  -6  10   37.30    2.90
  -1  -6  10   42.90    2.90
   0   6 -10    5.10    1.20
   0   6 -10    6.00    1.40
   0   6 -10    6.30    1.20
   0  -6  10    6.10    1.30
   0  -6  10    6.10    1.40
   0  -6  10    5.90    1.20
  -1   6 -10    8.00    1.60
  -1   6 -10    4.00    1.20
  -1   6 -10    7.50    1.50
   1  -6  10    7.60    1.30
   1  -6  10    4.40    1.30
   1  -6  10    7.70    1.40
   1  -6  10    5.80    1.30
  -2   6 -10   26.80    2.90
  -2   6 -10   28.40    2.90
   2  -6  10   33.00    2.60
   2  -6  10   26.00    2.70
   2  -6  10   30.90    2.50
   2  -6  10   26.40    2.70
  -3   6 -10   -1.90    1.00
  -3   6 -10   -1.70    1.50
  -3   6 -10    1.00    0.90
  -3   6 -10    0.40    1.00
   3  -6  10   -1.10    0.70
   3  -6  10    1.30    1.10
   3  -6  10   -0.10    1.10
  -4   6 -10    2.20    1.20
  -4   6 -10    0.70    1.00
  -4   6 -10    0.70    1.30
  -4   6 -10    3.20    1.50
   4  -6  10    0.70    1.40
   4  -6  10    1.30    1.10
   4  -6  10    0.50    1.20
  -5   6 -10    1.20    1.40
  -5   6 -10    1.20    1.40
  -5   6 -10   -0.10    1.30
   5  -6  10    1.80    1.40
   5  -6  10   -2.50    1.20
   7   5 -10    0.30    1.10
   7   5 -10    0.20    1.50
   7   5 -10    0.80    0.80
  -7  -5  10   -1.80    1.20
  -7  -5  10    1.60    1.20
  -7  -5  10   -1.70    1.40
  -7  -5  10    0.80    0.80
   6   5 -10    8.50    1.70
   6   5 -10    4.50    1.50
   6   5 -10    5.30    1.70
  -6  -5  10    5.50    1.60
  -6  -5  10    8.50    2.00
  -6  -5  10    6.90    1.70
  -6  -5  10    7.70    1.90
  -6  -5  10    8.10    1.60
   5   5 -10   31.10    3.10
   5   5 -10   36.10    2.70
   5   5 -10   30.40    3.40
  -5  -5  10   29.60    3.00
  -5  -5  10   27.60    2.90
  -5  -5  10   33.20    3.30
  -5  -5  10   32.80    3.20
  -5  -5  10   30.30    3.20
   4   5 -10    3.80    1.30
   4   5 -10    2.90    1.00
   4   5 -10    4.40    1.40
   4   5 -10    3.20    1.00
  -4  -5  10    1.80    1.10
  -4  -5  10    3.80    1.20
  -4  -5  10    3.00    1.00
  -4  -5  10    2.50    1.00
  -4  -5  10    2.70    1.20
   3   5 -10   38.40    2.90
   3   5 -10   40.50    2.70
   3   5 -10   33.80    3.40
   3   5 -10   40.50    2.60
  -3  -5  10   36.00    2.80
  -3  -5  10   41.20    2.90
  -3  -5  10   38.40    2.90
  -3  -5  10   33.70    2.80
  -3  -5  10   34.00    2.80
   2   5 -10    1.60    0.80
   2   5 -10    2.70    1.00
   2   5 -10    0.70    0.70
  -2  -5  10    1.50    0.80
  -2  -5  10    1.00    0.80
  -2  -5  10    1.10    0.90
  -2  -5  10    0.90    0.70
  -2  -5  10    2.20    1.00
  -2  -5  10    0.80    0.70
   1   5 -10    0.50    0.80
   1   5 -10   -1.00    0.60
   1   5 -10   -1.10    0.60
  -1  -5  10    0.20    0.60
  -1  -5  10   -1.90    0.60
  -1  -5  10   -0.60    0.60
  -1  -5  10   -0.30    0.60
  -1  -5  10   -0.40    0.60
   0   5 -10   15.60    2.00
   0   5 -10   15.80    1.90
   0   5 -10   14.30    1.80
   0  -5  10   19.50    1.90
   0  -5  10   17.90    2.00
   0  -5  10   23.90    2.20
   0  -5  10   19.30    2.20
  -1   5 -10   14.70    1.90
  -1   5 -10   13.70    1.90
   1  -5  10   13.00    1.90
   1  -5  10   13.40    1.80
   1  -5  10   12.70    1.70
  -2   5 -10   98.69    5.30
  -2   5 -10  102.59    5.60
  -2   5 -10   98.09    5.60
  -2   5 -10   95.99    5.20
   2  -5  10  114.59    5.60
   2  -5  10  115.59    5.60
   2  -5  10  109.49    5.50
   2  -5  10  108.49    5.70
  -3   5 -10   -0.40    0.90
  -3   5 -10    0.50    0.90
  -3   5 -10    0.30    0.80
  -3   5 -10    0.50    0.80
   3  -5  10    1.80    1.20
   3  -5  10    0.70    1.10
   3  -5  10   -0.30    1.10
   3  -5  10    1.50    1.00
  -4   5 -10   78.19    4.70
  -4   5 -10   62.69    4.70
   4  -5  10   86.69    5.00
   4  -5  10   75.19    4.80
   4  -5  10   77.89    4.60
  -5   5 -10    4.80    1.80
  -5   5 -10    2.70    1.60
   5  -5  10    1.40    1.10
   5  -5  10    1.90    1.50
   8   4 -10    3.60    1.50
   8   4 -10    1.10    1.40
   8   4 -10    0.60    1.60
  -8  -4  10    1.20    1.20
  -8  -4  10   -0.10    1.30
  -8  -4  10    1.30    1.20
  -8  -4  10    1.40    1.60
   7   4 -10    2.70    1.70
   7   4 -10    2.70    1.50
  -7  -4  10    3.60    1.40
  -7  -4  10    3.40    1.40
  -7  -4  10    3.70    1.60
  -7  -4  10    5.20    1.80
   6   4 -10    1.80    1.50
   6   4 -10    4.80    1.50
   6   4 -10    4.10    1.20
   6   4 -10    3.30    1.40
  -6  -4  10    1.70    1.20
  -6  -4  10    3.30    1.40
  -6  -4  10    1.40    1.00
  -6  -4  10    2.50    1.30
  -6  -4  10    2.40    1.30
   5   4 -10   16.10    2.50
   5   4 -10   15.60    2.10
   5   4 -10   15.30    2.20
   5   4 -10   15.90    1.90
  -5  -4  10   17.10    2.30
  -5  -4  10   15.00    2.10
  -5  -4  10   12.40    2.00
  -5  -4  10   11.40    1.80
  -5  -4  10   14.20    2.10
   4   4 -10    0.00    1.10
   4   4 -10    2.40    0.90
   4   4 -10    2.10    1.00
  -4  -4  10    1.70    1.00
  -4  -4  10    2.70    1.20
  -4  -4  10    3.70    1.20
  -4  -4  10    2.30    1.00
  -4  -4  10    2.60    1.10
   3   4 -10    0.60    0.90
   3   4 -10    0.00    0.60
   3   4 -10    1.60    0.80
  -3  -4  10    0.90    0.80
  -3  -4  10    1.60    1.00
  -3  -4  10   -0.20    0.50
  -3  -4  10    1.70    0.90
  -3  -4  10    1.00    0.90
   2   4 -10   45.30    3.10
   2   4 -10   43.70    2.80
   2   4 -10   44.60    2.90
  -2  -4  10   40.70    3.00
  -2  -4  10   47.90    3.00
  -2  -4  10   42.30    3.10
  -2  -4  10   43.60    3.00
  -2  -4  10   45.30    2.90
   1   4 -10   15.70    1.80
   1   4 -10   14.40    1.80
   1   4 -10   13.50    1.70
  -1  -4  10   14.20    1.60
  -1  -4  10   14.50    1.90
  -1  -4  10   13.80    1.60
  -1  -4  10   12.80    1.80
  -1  -4  10   13.50    1.80
  -1  -4  10   16.10    1.80
   0   4 -10  433.86   17.90
   0   4 -10  420.96   17.40
   0   4 -10  423.56   17.70
   0   4 -10  433.76   17.90
   0   4 -10  410.86   17.50
   0  -4  10  419.56   18.10
   0  -4  10  444.96   17.90
   0  -4  10  446.56   17.90
   0  -4  10  444.86   18.00
   0  -4  10  469.85   17.70
  -1   4 -10    0.00    0.60
  -1   4 -10    1.40    0.90
  -1   4 -10    3.80    1.10
  -1   4 -10    1.20    0.80
   1  -4  10    0.50    0.80
   1  -4  10    1.50    0.80
   1  -4  10    0.80    0.90
  -2   4 -10  131.29    6.70
  -2   4 -10  128.09    6.80
  -2   4 -10  131.29    6.50
  -2   4 -10  132.59    6.60
   2  -4  10  143.39    6.80
   2  -4  10  137.49    6.80
   2  -4  10  154.58    6.90
   2  -4  10  146.89    7.10
  -3   4 -10    4.80    1.30
  -3   4 -10    4.50    1.20
  -3   4 -10    5.70    1.40
  -3   4 -10    4.00    1.30
   3  -4  10    3.80    1.30
   3  -4  10    5.20    1.50
   3  -4  10    5.80    1.40
   3  -4  10    6.00    1.50
  -4   4 -10    4.20    1.40
  -4   4 -10    1.80    1.10
  -4   4 -10    3.10    1.30
   4  -4  10    4.20    1.50
   4  -4  10    5.10    1.40
   4  -4  10    4.00    1.50
   4  -4  10    4.00    1.50
  -5   4 -10   -0.50    1.40
  -5   4 -10    0.70    1.10
  -5   4 -10    2.00    1.40
   5  -4  10   -1.60    1.70
   5  -4  10   -0.10    1.30
   5  -4  10   -0.40    1.30
  -6   4 -10   -0.80    1.50
  -6   4 -10   -0.70    1.50
  -6   4 -10   -1.20    1.40
   6  -4  10   -0.70    1.50
   6  -4  10    0.60    1.60
   8   3 -10    0.90    1.50
   8   3 -10    2.40    1.70
  -8  -3  10    0.50    1.40
  -8  -3  10    0.90    1.20
  -8  -3  10    0.20    1.10
  -8  -3  10    0.70    1.70
   7   3 -10    6.50    1.60
   7   3 -10    6.00    1.80
   7   3 -10    6.30    1.80
  -7  -3  10   10.60    2.20
  -7  -3  10    6.50    1.60
  -7  -3  10   10.50    2.10
  -7  -3  10    8.30    1.80
   6   3 -10    3.00    1.40
   6   3 -10    1.30    1.20
   6   3 -10    1.60    1.10
   6   3 -10   -0.10    0.90
  -6  -3  10    0.10    1.30
  -6  -3  10    1.70    1.10
  -6  -3  10    1.80    1.00
  -6  -3  10    1.10    0.80
  -6  -3  10    0.80    1.00
   5   3 -10   14.10    2.10
   5   3 -10   15.70    2.40
   5   3 -10   14.40    1.80
  -5  -3  10   11.90    2.00
  -5  -3  10    9.00    1.60
  -5  -3  10    9.60    1.70
  -5  -3  10   11.90    1.90
  -5  -3  10   11.50    1.90
  -5  -3  10   16.70    2.30
   4   3 -10   70.59    4.00
   4   3 -10   67.59    3.70
   4   3 -10   63.99    4.20
  -4  -3  10   55.29    3.80
  -4  -3  10   62.99    4.00
  -4  -3  10   55.49    3.80
  -4  -3  10   54.69    3.90
  -4  -3  10   62.19    3.90
   3   3 -10    1.20    0.80
   3   3 -10    4.00    1.00
   3   3 -10    1.80    1.10
  -3  -3  10    2.00    0.90
  -3  -3  10    2.60    1.00
  -3  -3  10    2.30    0.90
  -3  -3  10    3.60    1.10
  -3  -3  10    2.00    0.80
   2   3 -10   82.69    4.30
   2   3 -10   88.79    4.60
   2   3 -10   82.79    4.70
  -2  -3  10   88.49    4.60
  -2  -3  10   88.39    4.40
  -2  -3  10   79.89    4.60
  -2  -3  10   81.79    4.60
  -2  -3  10   78.89    4.70
   1   3 -10   -0.40    0.50
   1   3 -10   -0.20    0.50
   1   3 -10    0.00    0.60
   1   3 -10   -1.10    0.60
   1   3 -10    0.70    0.80
  -1  -3  10    0.90    0.70
  -1  -3  10    0.00    0.70
  -1  -3  10    0.50    0.80
  -1  -3  10    0.60    0.80
  -1  -3  10    0.70    0.80
   0   3 -10   12.70    1.70
   0   3 -10   11.70    1.60
   0   3 -10   14.60    1.60
   0   3 -10   13.30    1.60
   0   3 -10   13.60    1.50
   0  -3  10   15.30    1.50
   0  -3  10   15.70    1.80
   0  -3  10   16.70    1.90
   0  -3  10   12.50    1.70
   0  -3  10    9.00    1.60
   0  -3  10   14.00    1.50
  -1   3 -10    9.20    1.50
  -1   3 -10   11.50    1.50
  -1   3 -10   10.80    1.50
  -1   3 -10   12.30    1.60
   1  -3  10   13.20    1.70
   1  -3  10   14.40    1.80
   1  -3  10   12.20    1.70
   1  -3  10   10.40    1.50
  -2   3 -10    0.60    0.90
  -2   3 -10    1.10    0.80
  -2   3 -10    0.90    0.80
  -2   3 -10    1.00    0.80
   2  -3  10   -0.10    0.60
   2  -3  10    0.30    0.90
   2  -3  10    1.30    1.00
  -3   3 -10   16.30    2.10
  -3   3 -10   16.80    2.10
  -3   3 -10   16.70    2.10
   3  -3  10   16.40    2.20
   3  -3  10   17.50    2.20
   3  -3  10   17.40    2.20
   3  -3  10   19.60    2.30
  -4   3 -10   16.90    2.30
  -4   3 -10   22.70    2.60
  -4   3 -10   20.70    2.60
  -4   3 -10   19.80    2.60
   4  -3  10   18.20    2.40
   4  -3  10   22.40    2.70
   4  -3  10   21.60    2.70
   4  -3  10   15.20    2.30
  -5   3 -10    1.90    1.40
  -5   3 -10   -0.20    1.00
  -5   3 -10   -1.00    1.10
   5  -3  10    1.40    1.60
   5  -3  10   -0.10    1.30
   5  -3  10   -1.10    1.10
   5  -3  10   -0.30    1.00
  -6   3 -10   13.80    2.60
  -6   3 -10   10.50    2.30
  -6   3 -10    9.10    2.20
   6  -3  10   13.50    2.60
   6  -3  10    8.80    2.30
   8   2 -10    6.40    2.30
   8   2 -10    6.30    1.80
   8   2 -10    7.80    1.80
  -8  -2  10    8.90    2.20
  -8  -2  10    6.60    1.70
  -8  -2  10    2.60    1.50
   7   2 -10    4.40    1.50
   7   2 -10    5.90    2.10
   7   2 -10    3.10    1.50
  -7  -2  10    5.10    1.60
  -7  -2  10    5.00    1.90
  -7  -2  10    4.30    1.80
  -7  -2  10    3.30    1.30
   6   2 -10    3.80    1.50
   6   2 -10   -0.10    1.40
   6   2 -10    0.10    1.10
  -6  -2  10   -0.70    0.90
  -6  -2  10    1.20    1.00
  -6  -2  10    5.30    1.50
  -6  -2  10    2.20    1.40
  -6  -2  10    1.70    1.20
   5   2 -10    9.20    2.00
   5   2 -10    8.60    1.50
   5   2 -10    8.50    1.60
  -5  -2  10    8.00    1.60
  -5  -2  10    5.50    1.40
  -5  -2  10    9.10    1.80
  -5  -2  10    8.90    1.80
  -5  -2  10    8.70    1.70
   4   2 -10   51.59    3.10
   4   2 -10   42.00    3.50
   4   2 -10   46.90    3.20
  -4  -2  10   50.99    3.40
  -4  -2  10   40.80    3.10
  -4  -2  10   46.00    3.30
  -4  -2  10   42.70    3.00
  -4  -2  10   43.10    3.30
  -4  -2  10   45.80    3.20
   3   2 -10   27.90    2.20
   3   2 -10   27.10    1.90
   3   2 -10   31.40    2.60
   3   2 -10   26.10    1.80
   3   2 -10   30.40    2.40
  -3  -2  10   28.50    2.30
  -3  -2  10   26.10    2.70
  -3  -2  10   27.30    2.70
  -3  -2  10   24.60    2.30
  -3  -2  10   26.50    2.70
   2   2 -10   21.80    1.90
   2   2 -10   17.90    2.20
   2   2 -10   18.90    1.50
   2   2 -10   19.50    2.00
   2   2 -10   22.00    1.60
  -2  -2  10   18.50    2.20
  -2  -2  10   23.10    2.10
  -2  -2  10   20.80    2.10
  -2  -2  10   20.10    2.20
  -2  -2  10   19.40    2.20
   1   2 -10  146.49    6.80
   1   2 -10  148.49    7.00
   1   2 -10  144.29    6.60
   1   2 -10  144.59    6.50
   1   2 -10  147.29    6.80
  -1  -2  10  150.68    6.80
  -1  -2  10  152.68    6.80
  -1  -2  10  152.98    7.20
  -1  -2  10  144.29    7.10
  -1  -2  10  144.89    7.20
   0   2 -10   21.90    2.30
   0   2 -10   22.90    1.80
   0   2 -10   20.90    1.80
   0   2 -10   25.50    2.00
   0   2 -10   24.90    2.00
   0  -2  10   22.50    2.40
   0  -2  10   22.50    2.30
   0  -2  10   23.40    2.40
   0  -2  10   25.60    2.00
  -1   2 -10    2.30    0.90
  -1   2 -10    2.20    0.80
  -1   2 -10    1.30    0.80
  -1   2 -10    0.50    0.70
   1  -2  10    2.60    1.00
   1  -2  10    2.30    0.90
   1  -2  10    1.10    0.80
   1  -2  10    2.50    0.90
   1  -2  10    1.40    0.80
  -2   2 -10   46.50    3.00
  -2   2 -10   43.80    3.00
  -2   2 -10   43.80    2.90
  -2   2 -10   40.90    3.00
   2  -2  10   47.10    3.30
   2  -2  10   48.90    3.40
   2  -2  10   47.20    3.20
  -3   2 -10   52.79    3.40
  -3   2 -10   51.49    3.50
  -3   2 -10   45.90    3.40
  -3   2 -10   47.10    3.40
   3  -2  10   53.29    3.80
   3  -2  10   49.00    3.60
   3  -2  10   49.70    3.50
  -4   2 -10    1.10    1.00
  -4   2 -10    2.50    1.30
  -4   2 -10    0.20    1.10
  -4   2 -10    0.70    0.80
   4  -2  10    0.50    0.90
   4  -2  10    0.90    1.30
   4  -2  10   -0.30    1.00
   4  -2  10    0.20    1.20
  -5   2 -10    3.20    1.60
  -5   2 -10    1.90    1.50
  -5   2 -10    5.60    1.60
   5  -2  10    5.20    1.80
   5  -2  10    3.40    1.90
   5  -2  10   -0.10    1.50
   5  -2  10    4.30    1.60
  -6   2 -10   -1.00    1.50
  -6   2 -10    1.30    1.60
  -6   2 -10    2.10    1.40
   6  -2  10    0.60    1.80
   6  -2  10   -0.10    1.50
   6  -2  10   -0.30    1.30
   8   1 -10   -2.60    1.60
   8   1 -10    0.90    1.50
   8   1 -10    2.50    1.30
  -8  -1  10    3.10    1.70
  -8  -1  10    0.90    1.70
  -8  -1  10    0.60    1.60
  -8  -1  10    0.10    1.20
   7   1 -10    1.10    1.70
   7   1 -10   -0.70    1.10
   7   1 -10    0.70    1.30
  -7  -1  10    0.50    1.50
  -7  -1  10    0.40    0.80
  -7  -1  10   -0.40    1.30
  -7  -1  10   -1.50    0.90
  -7  -1  10   -0.70    1.50
   6   1 -10   47.20    3.90
   6   1 -10   42.50    3.30
   6   1 -10   47.80    3.40
  -6  -1  10   41.90    3.40
  -6  -1  10   42.60    3.50
  -6  -1  10   44.00    3.70
  -6  -1  10   43.40    3.50
  -6  -1  10   41.60    3.30
   5   1 -10   29.30    3.30
   5   1 -10   32.30    3.20
   5   1 -10   34.70    2.70
  -5  -1  10   27.70    3.00
  -5  -1  10   34.80    3.40
  -5  -1  10   31.70    3.00
  -5  -1  10   36.50    2.90
  -5  -1  10   31.80    3.20
   4   1 -10  126.29    5.80
   4   1 -10  116.99    6.80
   4   1 -10  123.99    6.30
   4   1 -10  132.69    6.00
   4   1 -10  127.59    6.60
  -4  -1  10  131.69    6.60
  -4  -1  10  133.09    6.60
  -4  -1  10  122.69    6.60
  -4  -1  10  135.49    6.80
  -4  -1  10  139.59    6.80
   3   1 -10   16.20    1.50
   3   1 -10   19.90    2.40
   3   1 -10   16.70    1.80
   3   1 -10   16.60    2.00
   3   1 -10   14.90    1.60
  -3  -1  10   21.00    2.30
  -3  -1  10   17.30    2.10
  -3  -1  10   16.80    1.70
  -3  -1  10   16.50    2.10
  -3  -1  10   16.80    2.00
  -3  -1  10   14.70    2.00
   2   1 -10   76.99    4.50
   2   1 -10   73.39    3.80
   2   1 -10   77.19    3.90
   2   1 -10   72.69    4.20
   2   1 -10   71.89    4.00
  -2  -1  10   78.69    4.30
  -2  -1  10   79.79    4.60
  -2  -1  10   77.59    3.90
  -2  -1  10   75.09    4.40
  -2  -1  10   82.69    4.50
   1   1 -10   51.39    3.10
   1   1 -10   51.89    2.90
   1   1 -10   54.79    3.40
   1   1 -10   49.90    3.10
   1   1 -10   50.69    3.00
  -1  -1  10   52.89    3.00
  -1  -1  10   59.49    3.70
  -1  -1  10   56.49    3.20
  -1  -1  10   48.60    3.40
  -1  -1  10   57.89    3.50
   0   1 -10   27.40    2.10
   0   1 -10   24.10    1.90
   0   1 -10   24.80    1.90
   0   1 -10   25.70    2.00
   0  -1  10   27.70    2.40
   0  -1  10   28.30    2.60
   0  -1  10   30.10    2.50
   0  -1  10   25.80    2.10
  -1   1 -10   27.70    2.30
  -1   1 -10   31.40    2.20
  -1   1 -10   29.40    2.30
  -1   1 -10   30.30    2.20
   1  -1  10   29.00    2.80
   1  -1  10   29.60    2.40
   1  -1  10   29.20    2.40
   1  -1  10   32.60    2.50
  -2   1 -10   27.70    2.60
  -2   1 -10   25.20    2.50
  -2   1 -10   24.30    2.40
  -2   1 -10   28.00    2.20
   2  -1  10   26.40    2.70
   2  -1  10   22.00    2.30
   2  -1  10   25.20    2.60
   2  -1  10   28.60    2.40
  -3   1 -10    3.40    1.20
  -3   1 -10    2.70    1.20
  -3   1 -10    4.30    1.30
  -3   1 -10    1.30    1.10
   3  -1  10    0.30    1.00
   3  -1  10    3.30    1.40
   3  -1  10    2.40    1.20
  -4   1 -10    0.10    0.70
  -4   1 -10    0.30    1.00
  -4   1 -10    1.40    1.50
  -4   1 -10    1.60    0.90
   4  -1  10    0.40    1.20
   4  -1  10   -0.30    1.40
   4  -1  10    1.70    1.40
  -5   1 -10    0.20    1.10
  -5   1 -10    0.10    1.10
  -5   1 -10   -0.30    1.40
   5  -1  10   -1.10    1.10
   5  -1  10   -2.50    1.40
   5  -1  10   -0.40    1.60
   5  -1  10    0.10    1.20
   8   0 -10   13.60    2.40
   8   0 -10    8.50    2.30
   8   0 -10   16.90    2.80
  -8   0  10    9.00    2.40
  -8   0  10   17.50    3.10
  -8   0  10   14.20    2.20
  -8   0  10   15.40    3.00
   7   0 -10    1.00    1.40
   7   0 -10    0.50    1.40
   7   0 -10    2.80    1.50
  -7   0  10    2.00    1.70
  -7   0  10    2.10    1.30
  -7   0  10    0.00    1.50
  -7   0  10   -0.20    1.00
  -7   0  10    0.90    1.20
   6   0 -10   82.49    5.80
   6   0 -10   80.09    5.10
   6   0 -10   88.09    4.70
   6   0 -10   92.19    5.50
  -6   0  10   96.19    5.80
  -6   0  10   99.19    5.90
  -6   0  10   96.79    5.80
  -6   0  10   90.39    5.20
  -6   0  10   79.39    5.20
   5   0 -10   36.40    2.50
   5   0 -10   34.30    2.90
   5   0 -10   35.80    2.90
   5   0 -10   30.80    3.50
   5   0 -10   37.30    2.50
  -5   0  10   36.70    3.10
  -5   0  10   36.30    2.80
  -5   0  10   36.60    2.90
  -5   0  10   33.60    3.40
  -5   0  10   35.50    3.50
   4   0 -10    2.70    1.00
   4   0 -10    4.40    1.30
   4   0 -10    2.20    0.80
   4   0 -10    2.40    1.20
   4   0 -10    2.40    0.80
  -4   0  10    5.60    1.30
  -4   0  10    2.00    1.20
  -4   0  10    3.00    1.30
  -4   0  10    3.00    1.10
  -4   0  10    3.10    1.20
   3   0 -10   12.00    1.40
   3   0 -10    8.30    1.70
   3   0 -10    6.60    1.30
   3   0 -10   10.90    1.30
   3   0 -10   10.30    1.70
  -3   0  10    8.70    1.50
  -3   0  10    9.70    1.50
  -3   0  10    9.10    1.60
  -3   0  10   12.70    1.80
  -3   0  10   12.50    1.80
   2   0 -10   75.29    4.50
   2   0 -10   70.09    4.00
   2   0 -10   76.39    3.80
   2   0 -10   70.79    3.70
   2   0 -10   71.39    4.10
  -2   0  10   75.09    4.30
  -2   0  10   71.29    4.10
  -2   0  10   75.59    4.50
  -2   0  10   72.09    4.20
  -2   0  10   74.99    4.40
  -2   0  10   70.89    4.10
   1   0 -10    6.00    1.20
   1   0 -10    4.60    1.40
   1   0 -10    6.70    1.10
   1   0 -10    4.60    1.00
   1   0 -10    5.00    1.00
  -1   0  10    6.50    1.50
  -1   0  10    5.00    1.30
  -1   0  10    6.80    1.30
  -1   0  10    8.60    1.20
  -1   0  10    6.40    1.10
   0   0 -10    1.00    0.70
   0   0 -10    1.30    0.80
   0   0 -10    2.20    0.80
   0   0 -10    2.40    0.90
   0   0  10    1.50    0.90
   0   0  10    3.30    1.00
   0   0  10    1.20    0.90
   0   0  10    2.70    1.10
  -1   0 -10    0.10    0.80
  -1   0 -10    0.80    0.80
  -1   0 -10    1.30    0.80
  -1   0 -10    0.70    0.70
   1   0  10    0.60    1.00
   1   0  10    1.20    1.00
   1   0  10    1.30    1.00
   1   0  10    1.50    1.00
  -2   0 -10    1.10    0.90
  -2   0 -10    0.30    0.80
  -2   0 -10    0.90    0.90
  -2   0 -10    1.70    0.90
   2   0  10    0.80    0.90
   2   0  10    0.90    1.10
   2   0  10    1.30    1.20
   2   0  10   -0.30    1.10
  -3   0 -10   30.40    2.80
  -3   0 -10   33.80    3.20
  -3   0 -10   26.70    2.70
  -3   0 -10   29.20    2.90
   3   0  10   34.20    3.30
   3   0  10   21.70    2.90
   3   0  10   28.60    2.90
   3   0  10   28.20    3.50
  -4   0 -10    1.60    1.00
  -4   0 -10    1.00    1.50
  -4   0 -10    0.00    1.10
  -4   0 -10    1.40    1.10
   4   0  10   -0.10    1.10
   4   0  10    2.60    1.70
   4   0  10    0.20    1.40
  -5   0 -10    7.80    1.90
  -5   0 -10    5.10    1.90
  -5   0 -10    7.80    2.40
   5   0  10    7.20    2.30
   5   0  10    8.40    2.20
   5   0  10    6.50    2.00
   8  -1 -10    4.30    1.70
   8  -1 -10    2.60    1.80
   8  -1 -10    2.70    1.70
  -8   1  10    3.60    2.10
  -8   1  10    3.20    1.40
  -8   1  10    0.30    1.80
  -8   1  10    4.90    2.10
   7  -1 -10    7.00    2.30
   7  -1 -10    5.40    2.00
   7  -1 -10    6.10    1.40
   7  -1 -10    5.60    1.80
   7  -1 -10    6.40    2.00
  -7   1  10    8.00    2.10
  -7   1  10    6.60    2.10
  -7   1  10    8.40    1.80
  -7   1  10    6.90    2.20
   6  -1 -10   -0.70    1.60
   6  -1 -10   -0.80    0.80
   6  -1 -10    0.50    0.80
   6  -1 -10    0.20    0.80
   6  -1 -10   -0.60    0.80
  -6   1  10   -0.20    1.20
  -6   1  10    0.70    1.00
  -6   1  10   -0.70    0.80
  -6   1  10    0.00    1.00
  -6   1  10   -1.10    1.00
   5  -1 -10    4.00    1.90
   5  -1 -10    4.30    1.30
   5  -1 -10    3.40    1.00
   5  -1 -10    5.20    1.60
   5  -1 -10    3.80    1.10
  -5   1  10    5.30    1.40
  -5   1  10    3.10    1.40
  -5   1  10    2.00    1.40
  -5   1  10    3.00    1.20
  -5   1  10    6.10    1.50
   4  -1 -10    4.90    1.30
   4  -1 -10    3.00    1.00
   4  -1 -10    1.90    1.00
   4  -1 -10    3.10    1.00
  -4   1  10    2.40    1.10
  -4   1  10    3.20    1.20
  -4   1  10    4.60    1.40
  -4   1  10    4.20    1.20
  -4   1  10    3.30    1.30
   3  -1 -10   -0.90    0.50
   3  -1 -10    0.60    0.80
   3  -1 -10    1.10    0.80
   3  -1 -10   -0.30    1.10
   3  -1 -10   -0.30    0.50
  -3   1  10   -0.30    0.80
  -3   1  10    0.30    0.60
  -3   1  10    0.20    0.70
  -3   1  10    0.20    0.90
  -3   1  10   -0.80    0.50
   2  -1 -10    8.00    1.70
   2  -1 -10    7.40    1.30
   2  -1 -10    6.70    1.20
   2  -1 -10    8.30    1.30
   2  -1 -10    5.40    1.10
  -2   1  10    8.80    1.40
  -2   1  10    6.00    1.50
  -2   1  10    8.60    1.50
  -2   1  10    5.10    1.30
  -2   1  10    5.60    1.30
   1  -1 -10   70.19    4.30
   1  -1 -10   74.29    4.00
   1  -1 -10   72.89    3.90
   1  -1 -10   72.59    3.90
   1  -1 -10   66.09    3.80
  -1   1  10   81.69    4.70
  -1   1  10   72.39    4.30
  -1   1  10   71.19    4.30
   0  -1 -10   38.80    2.60
   0  -1 -10   39.00    2.70
   0  -1 -10   40.80    2.70
   0  -1 -10   40.00    2.60
   0   1  10   41.90    3.10
   0   1  10   45.20    2.80
   0   1  10   41.70    3.10
   0   1  10   42.90    3.20
  -1  -1 -10   67.79    3.80
  -1  -1 -10   63.89    3.70
  -1  -1 -10   67.79    3.80
  -1  -1 -10   60.19    3.60
   1   1  10   66.09    4.10
   1   1  10   57.19    4.00
   1   1  10   58.09    4.20
   1   1  10   67.09    3.90
  -2  -1 -10    2.20    0.90
  -2  -1 -10    0.20    0.60
  -2  -1 -10    0.20    0.80
  -2  -1 -10    1.10    0.70
   2   1  10    1.10    0.90
   2   1  10   -1.00    1.00
   2   1  10   -0.70    0.80
   2   1  10   -0.60    1.20
  -3  -1 -10    9.80    1.60
  -3  -1 -10   12.20    2.10
  -3  -1 -10   12.60    1.90
  -3  -1 -10   14.40    2.10
   3   1  10   18.20    2.70
   3   1  10    8.90    1.80
   3   1  10   11.70    2.10
  -4  -1 -10    1.60    1.20
  -4  -1 -10   -1.20    1.60
  -4  -1 -10   -0.50    1.10
   4   1  10    0.70    1.50
   4   1  10    2.70    1.70
   4   1  10   -0.40    1.20
  -5  -1 -10    3.80    1.90
  -5  -1 -10    6.10    2.00
  -5  -1 -10    7.90    2.10
   5   1  10    5.50    2.00
   5   1  10    5.70    2.20
   5   1  10    5.50    2.20
   7  -2 -10    1.50    1.60
   7  -2 -10    1.50    1.40
   7  -2 -10    2.00    1.00
  -7   2  10    1.80    1.30
  -7   2  10    2.60    1.80
  -7   2  10   -1.10    1.50
  -7   2  10   -0.10    1.60
   6  -2 -10    7.10    1.80
   6  -2 -10    7.80    1.40
   6  -2 -10    5.90    1.70
   6  -2 -10    8.10    1.50
  -6   2  10    7.20    2.00
  -6   2  10    5.10    1.70
  -6   2  10    6.20    1.80
  -6   2  10    5.60    1.60
  -6   2  10    6.00    1.70
   5  -2 -10   29.30    2.90
   5  -2 -10   29.80    2.40
   5  -2 -10   30.00    2.30
   5  -2 -10   28.20    3.10
  -5   2  10   27.40    3.30
  -5   2  10   38.80    3.60
  -5   2  10   29.40    3.30
  -5   2  10   28.50    3.30
  -5   2  10   29.20    3.00
   4  -2 -10   11.40    1.60
   4  -2 -10   12.50    2.00
   4  -2 -10   13.60    1.80
   4  -2 -10   14.50    1.70
  -4   2  10   10.10    1.90
  -4   2  10    9.80    1.80
  -4   2  10   14.10    2.30
  -4   2  10   13.40    1.80
  -4   2  10   16.90    2.20
   3  -2 -10   49.30    3.30
   3  -2 -10   49.90    3.50
   3  -2 -10   49.99    3.20
   3  -2 -10   50.09    3.10
  -3   2  10   63.49    3.80
  -3   2  10   55.49    3.50
  -3   2  10   54.49    3.80
  -3   2  10   57.69    4.00
  -3   2  10   59.19    3.90
   2  -2 -10    3.70    0.90
   2  -2 -10    4.30    1.00
   2  -2 -10    3.00    1.00
   2  -2 -10    4.60    1.20
  -2   2  10    4.40    1.10
  -2   2  10    5.60    1.40
  -2   2  10    4.10    1.30
  -2   2  10    4.50    1.30
  -2   2  10    4.00    1.10
   1  -2 -10   11.10    1.50
   1  -2 -10   15.20    1.70
   1  -2 -10   14.90    1.70
   1  -2 -10   16.50    1.80
   1  -2 -10   12.40    1.60
  -1   2  10   15.50    2.10
  -1   2  10   18.20    2.30
  -1   2  10   13.00    2.10
  -1   2  10   14.80    2.00
   0  -2 -10    0.10    0.70
   0  -2 -10    1.20    0.80
   0  -2 -10    0.50    0.70
   0  -2 -10    2.10    0.80
   0   2  10   -0.30    0.90
   0   2  10    0.60    0.60
   0   2  10    1.80    1.00
  -1  -2 -10    2.30    1.00
  -1  -2 -10    2.20    0.80
  -1  -2 -10   -0.20    0.90
  -1  -2 -10    0.40    0.80
   1   2  10    1.60    1.10
   1   2  10    2.40    1.30
   1   2  10    2.70    1.30
   1   2  10    1.60    1.10
  -2  -2 -10   11.00    1.70
  -2  -2 -10    9.80    1.70
  -2  -2 -10   12.70    1.70
  -2  -2 -10   11.70    1.80
   2   2  10   10.80    1.90
   2   2  10   11.30    2.30
   2   2  10   13.10    2.10
   2   2  10    5.60    1.50
  -3  -2 -10    1.60    1.20
  -3  -2 -10    2.60    1.30
  -3  -2 -10    2.90    1.40
   3   2  10    1.30    1.60
   3   2  10    2.50    1.60
   3   2  10    1.80    1.30
  -4  -2 -10   -0.70    0.80
  -4  -2 -10    1.20    1.20
   4   2  10   -0.10    1.60
   4   2  10    0.60    1.60
  -5  -2 -10    3.50    1.60
  -5  -2 -10    2.80    1.70
   5   2  10    1.60    2.00
   5   2  10    1.70    1.80
   5   2  10    1.10    1.80
   7  -3 -10    4.60    1.70
   7  -3 -10    5.70    1.50
   7  -3 -10   10.90    2.40
  -7   3  10    9.90    2.50
  -7   3  10    9.00    2.50
  -7   3  10    6.20    2.20
  -7   3  10   11.20    2.10
   6  -3 -10   -0.10    1.10
   6  -3 -10    2.40    1.00
   6  -3 -10    0.90    1.40
   6  -3 -10    0.70    0.80
  -6   3  10    2.20    1.60
  -6   3  10    0.20    1.20
  -6   3  10    0.90    1.20
  -6   3  10    1.30    1.50
  -6   3  10    0.10    1.40
   5  -3 -10    3.20    1.40
   5  -3 -10    1.30    0.90
   5  -3 -10    2.70    1.20
   5  -3 -10    1.30    0.80
  -5   3  10    2.50    1.30
  -5   3  10    1.20    1.40
  -5   3  10    3.00    1.30
  -5   3  10    4.40    1.60
  -5   3  10    2.00    1.10
   4  -3 -10   -0.20    1.20
   4  -3 -10    0.90    0.80
   4  -3 -10    0.80    0.90
   4  -3 -10    0.40    0.70
  -4   3  10    2.30    1.30
  -4   3  10    1.80    1.30
  -4   3  10    0.60    1.20
  -4   3  10    1.70    1.20
   3  -3 -10    1.90    0.90
   3  -3 -10    0.00    0.90
   3  -3 -10    1.40    0.90
   3  -3 -10    0.40    0.80
  -3   3  10    1.50    0.90
  -3   3  10    1.60    0.90
  -3   3  10    1.70    1.10
  -3   3  10    1.10    1.20
  -3   3  10    2.70    0.90
   2  -3 -10   55.39    3.50
   2  -3 -10   56.79    3.40
   2  -3 -10   49.70    3.20
   2  -3 -10   50.19    3.20
   2  -3 -10   53.79    3.20
  -2   3  10   59.39    3.90
  -2   3  10   54.89    4.00
  -2   3  10   50.19    3.40
  -2   3  10   55.69    3.60
  -2   3  10   58.49    3.90
   1  -3 -10    3.10    1.00
   1  -3 -10    4.80    1.10
   1  -3 -10    4.00    1.10
   1  -3 -10    5.00    1.10
  -1   3  10    5.20    1.40
  -1   3  10    4.60    1.20
  -1   3  10    4.60    1.30
   0  -3 -10   13.00    1.60
   0  -3 -10    8.20    1.50
   0  -3 -10   11.50    1.70
   0  -3 -10   12.70    1.60
   0   3  10   13.70    2.10
   0   3  10   14.80    2.10
   0   3  10   11.80    2.00
  -1  -3 -10   -0.60    0.70
  -1  -3 -10    0.10    0.80
  -1  -3 -10    0.50    0.60
  -1  -3 -10    0.00    0.90
   1   3  10    1.60    1.00
   1   3  10    1.50    1.00
   1   3  10   -0.50    0.80
  -2  -3 -10    0.40    1.00
  -2  -3 -10    0.50    1.00
  -2  -3 -10    0.40    1.00
   2   3  10   -1.10    1.20
   2   3  10    1.60    1.60
   2   3  10    0.20    0.80
   2   3  10    1.00    1.20
  -3  -3 -10    8.80    1.90
  -3  -3 -10    4.90    1.40
   3   3  10    4.60    1.70
   3   3  10    2.40    1.40
   3   3  10    4.40    1.80
   3   3  10    1.10    1.40
  -4  -3 -10    0.40    1.20
  -4  -3 -10    1.00    1.60
   4   3  10   -2.20    1.50
   4   3  10   -1.30    1.10
   4   3  10    0.60    1.70
   7  -4 -10    0.50    1.10
   7  -4 -10   -2.20    1.10
   7  -4 -10    0.30    1.50
  -7   4  10   -1.10    1.50
  -7   4  10   -0.40    1.70
  -7   4  10    0.50    1.80
   6  -4 -10    9.40    2.10
   6  -4 -10    8.80    1.60
   6  -4 -10    4.50    1.60
  -6   4  10    5.70    2.00
  -6   4  10    6.10    2.10
  -6   4  10    4.60    1.60
  -6   4  10    4.70    1.80
   5  -4 -10    6.20    1.70
   5  -4 -10    3.60    1.40
   5  -4 -10    6.00    1.30
  -5   4  10    5.30    1.80
  -5   4  10    7.60    1.80
  -5   4  10    3.70    1.70
  -5   4  10    6.40    2.00
  -5   4  10    6.40    1.70
   4  -4 -10   19.70    2.50
   4  -4 -10   15.10    1.90
   4  -4 -10   19.50    2.20
   4  -4 -10   17.70    2.30
  -4   4  10   18.00    2.60
  -4   4  10   18.60    2.70
  -4   4  10   21.20    2.90
  -4   4  10   22.80    2.90
   3  -4 -10    2.60    1.10
   3  -4 -10    1.30    0.90
   3  -4 -10    2.60    1.00
   3  -4 -10    1.70    1.00
   3  -4 -10    2.40    1.20
  -3   4  10    4.20    1.50
  -3   4  10    0.70    1.10
  -3   4  10    2.20    1.10
  -3   4  10    0.90    0.90
   2  -4 -10    4.60    1.10
   2  -4 -10    4.50    1.20
   2  -4 -10    6.80    1.30
   2  -4 -10    4.90    1.10
  -2   4  10    5.60    1.30
  -2   4  10    7.20    2.10
  -2   4  10    5.90    1.60
  -2   4  10    6.60    1.60
   1  -4 -10   -0.50    0.80
   1  -4 -10    0.90    0.70
   1  -4 -10   -0.20    0.70
   1  -4 -10    0.00    0.70
  -1   4  10    2.40    1.20
  -1   4  10   -0.30    1.00
  -1   4  10    0.80    0.90
   0  -4 -10    9.20    1.40
   0  -4 -10    8.10    1.50
   0  -4 -10    7.70    1.50
   0  -4 -10    7.10    1.50
   0   4  10    9.10    1.90
   0   4  10    9.50    1.90
   0   4  10    9.10    1.90
  -1  -4 -10    5.70    1.50
  -1  -4 -10    8.60    1.60
  -1  -4 -10    6.80    1.40
   1   4  10    6.40    1.90
   1   4  10    4.50    1.40
   1   4  10    7.50    1.70
  -2  -4 -10    1.70    1.10
  -2  -4 -10    1.20    1.10
   2   4  10    2.10    1.40
   2   4  10    1.60    1.30
   2   4  10    0.50    1.60
  -3  -4 -10    2.00    1.40
  -3  -4 -10    4.60    1.70
   3   4  10    4.10    1.90
   3   4  10    3.40    2.00
   3   4  10    4.00    1.70
   6  -5 -10    0.20    1.40
   6  -5 -10    0.90    1.10
   6  -5 -10    1.20    1.50
  -6   5  10   -1.90    1.60
  -6   5  10   -0.30    1.70
  -6   5  10   -0.10    1.20
  -6   5  10   -1.70    1.20
   5  -5 -10   -0.80    0.60
   5  -5 -10   -0.60    1.20
   5  -5 -10    0.80    1.40
  -5   5  10    2.00    1.70
  -5   5  10   -0.20    1.30
  -5   5  10   -0.20    1.40
  -5   5  10    1.00    1.20
   4  -5 -10    3.70    1.20
   4  -5 -10    5.30    1.40
   4  -5 -10    4.70    1.60
   4  -5 -10    5.50    1.50
  -4   5  10    4.60    1.60
  -4   5  10    3.80    1.50
  -4   5  10    2.90    1.50
   3  -5 -10    0.40    0.90
   3  -5 -10   -0.10    0.60
   3  -5 -10    0.80    1.00
  -3   5  10   -0.90    1.00
  -3   5  10   -0.90    1.30
  -3   5  10    0.30    1.20
   2  -5 -10   -0.20    0.70
   2  -5 -10   -0.70    0.70
   2  -5 -10   -0.40    0.70
   2  -5 -10    0.60    0.90
  -2   5  10    0.70    1.10
  -2   5  10    0.00    1.30
   1  -5 -10    0.00    0.90
   1  -5 -10    0.70    0.90
   1  -5 -10    0.00    0.90
   1  -5 -10    0.00    0.80
  -1   5  10    1.00    1.00
  -1   5  10    0.80    1.00
  -1   5  10    0.60    1.00
   0  -5 -10    6.10    1.40
   0  -5 -10    5.70    1.50
   0   5  10    6.50    2.30
   0   5  10    5.90    1.50
   0   5  10    6.00    1.70
  -1  -5 -10   -1.10    0.90
  -1  -5 -10    0.50    1.10
   1   5  10    2.50    1.60
   1   5  10    0.90    1.30
  -2  -5 -10    0.90    1.20
  -2  -5 -10   -1.40    1.20
   2   5  10    2.70    1.40
   2   5  10    1.90    1.80
  -3  -5 -10   -0.10    1.20
  -3  -5 -10   -2.30    1.20
   3   5  10    1.80    1.60
   3   5  10    0.50    1.40
   5  -6 -10    1.20    1.50
   5  -6 -10    0.20    1.00
   5  -6 -10    2.10    1.10
   5  -6 -10    1.10    1.40
  -5   6  10    1.20    1.50
  -5   6  10    2.60    2.00
  -5   6  10    2.50    1.80
  -5   6  10    1.40    1.60
   4  -6 -10    2.30    1.20
   4  -6 -10    1.70    1.60
   4  -6 -10    2.80    1.30
   4  -6 -10    1.90    1.10
  -4   6  10    2.50    1.40
  -4   6  10    1.70    1.30
   3  -6 -10    9.50    1.60
   3  -6 -10   10.80    1.80
   3  -6 -10   11.00    1.90
  -3   6  10   12.80    2.20
  -3   6  10    8.00    2.20
   2  -6 -10    6.60    1.50
   2  -6 -10    5.30    1.40
  -2   6  10    7.20    1.80
   1  -6 -10   10.20    1.70
   1  -6 -10   12.90    2.00
  -1   6  10   12.30    2.40
   0  -6 -10   10.20    1.90
   0  -6 -10    9.80    1.80
   0   6  10    9.90    2.20
   0   6  10    7.10    1.90
  -1  -6 -10    0.40    1.20
  -1  -6 -10    0.60    1.10
   1   6  10   -1.90    1.20
   1   6  10    0.10    1.50
  -2  -6 -10    0.60    1.40
  -2  -6 -10    1.10    1.30
   2   6  10   -1.00    1.20
   2   6  10   -0.70    1.40
   3  -7 -10    4.00    1.30
   3  -7 -10    3.50    1.40
  -3   7  10    2.60    1.70
   2  -7 -10    2.30    1.20
   2  -7 -10   -0.20    1.00
  -2   7  10    3.40    1.60
   1  -7 -10   -0.20    1.10
   1  -7 -10   -0.50    1.00
  -1   7  10    0.10    0.90
   0  -7 -10    2.30    1.40
   0  -7 -10    3.60    1.30
   0   7  10    3.10    1.80
   3  10 -11    0.80    1.30
   3  10 -11    2.10    1.30
   3  10 -11    1.40    1.80
  -3 -10  11   -0.40    1.50
  -3 -10  11    1.10    1.10
  -3 -10  11   -0.40    1.00
  -3 -10  11    1.50    1.50
   2  10 -11    8.60    2.10
   2  10 -11   10.20    2.40
  -2 -10  11   15.00    2.70
  -2 -10  11   12.20    2.30
  -2 -10  11    7.10    1.80
   1  10 -11   -1.20    1.20
   1  10 -11    0.30    1.20
  -1 -10  11    1.00    1.40
  -1 -10  11    2.50    1.40
  -1 -10  11    1.00    1.40
   0  10 -11    4.10    1.70
   0  10 -11    1.40    1.50
   0 -10  11    4.70    1.70
   0 -10  11    5.40    1.80
  -1  10 -11    0.90    1.40
  -1  10 -11   -0.30    1.00
  -1  10 -11    2.20    1.60
   1 -10  11    1.20    1.30
   1 -10  11    1.90    1.50
  -2  10 -11    0.00    1.20
  -2  10 -11    1.30    1.30
   2 -10  11   -0.20    1.30
   2 -10  11   -0.50    0.90
   4   9 -11    0.50    1.40
   4   9 -11    2.90    1.50
   4   9 -11    2.40    1.50
  -4  -9  11    0.80    1.20
  -4  -9  11    5.10    2.00
  -4  -9  11    0.20    1.60
  -4  -9  11    1.70    1.10
   3   9 -11    4.10    1.50
   3   9 -11    1.10    1.20
   3   9 -11    1.80    1.30
   3   9 -11    2.40    1.60
  -3  -9  11   -0.20    1.20
  -3  -9  11    0.90    1.10
  -3  -9  11    1.40    1.30
  -3  -9  11    0.40    1.20
  -3  -9  11    1.70    1.40
   2   9 -11    2.90    1.30
   2   9 -11    3.00    1.70
   2   9 -11    2.70    1.30
  -2  -9  11    0.90    1.20
  -2  -9  11    2.20    1.30
  -2  -9  11    1.90    1.40
   1   9 -11   -1.40    1.10
   1   9 -11   -0.30    0.70
  -1  -9  11    0.60    1.10
  -1  -9  11    0.80    1.10
  -1  -9  11   -0.20    1.00
   0   9 -11    1.30    1.30
   0   9 -11    1.10    1.20
   0   9 -11    0.20    1.00
   0  -9  11    1.40    1.10
   0  -9  11   -0.20    1.10
   0  -9  11   -0.50    0.80
  -1   9 -11   15.60    2.30
  -1   9 -11   15.50    2.60
  -1   9 -11   10.90    2.20
   1  -9  11   15.10    2.20
   1  -9  11   15.70    2.30
  -2   9 -11    3.30    1.50
  -2   9 -11    2.20    1.30
   2  -9  11    2.90    1.60
   2  -9  11    4.50    1.50
  -3   9 -11    5.10    1.70
  -3   9 -11    0.90    1.50
   3  -9  11    1.80    1.40
   3  -9  11    2.00    1.50
   5   8 -11    0.50    1.30
   5   8 -11    0.00    1.20
   5   8 -11   -1.40    1.10
  -5  -8  11   -1.60    0.90
  -5  -8  11    0.10    0.80
  -5  -8  11   -1.30    1.30
   4   8 -11    1.80    1.50
   4   8 -11    5.40    1.60
   4   8 -11    3.80    1.40
  -4  -8  11   -0.20    1.00
  -4  -8  11    2.70    1.40
  -4  -8  11    2.70    1.60
   3   8 -11    1.70    1.40
   3   8 -11    6.50    1.70
   3   8 -11    4.10    1.40
   3   8 -11    3.40    1.30
  -3  -8  11    3.00    1.30
  -3  -8  11    2.80    1.40
  -3  -8  11    2.70    1.30
  -3  -8  11    4.10    1.30
  -3  -8  11    2.10    1.10
   2   8 -11    0.80    1.10
   2   8 -11    1.10    1.20
   2   8 -11    0.00    1.10
  -2  -8  11    1.50    1.10
  -2  -8  11    0.40    1.10
  -2  -8  11    1.50    1.00
  -2  -8  11    0.90    1.20
  -2  -8  11    2.90    1.20
   1   8 -11    5.60    1.60
   1   8 -11    5.90    1.50
   1   8 -11    6.00    1.50
  -1  -8  11    5.70    1.40
  -1  -8  11    4.80    1.40
  -1  -8  11    5.40    1.50
   0   8 -11    0.20    1.00
   0   8 -11    0.70    1.20
   0   8 -11    2.40    1.30
   0  -8  11    2.10    1.20
   0  -8  11    0.60    1.00
   0  -8  11    2.50    1.10
  -1   8 -11   -0.20    1.00
  -1   8 -11    1.10    1.30
  -1   8 -11    0.70    1.10
   1  -8  11    2.40    1.30
   1  -8  11    1.90    1.10
   1  -8  11    1.90    1.20
  -2   8 -11    1.60    1.30
  -2   8 -11    0.60    1.40
   2  -8  11    2.60    1.30
   2  -8  11   -0.10    1.10
  -3   8 -11   -1.20    1.20
  -3   8 -11   -0.70    1.20
   3  -8  11   -2.60    1.00
   3  -8  11   -0.20    1.20
  -4   8 -11   -0.30    1.50
  -4   8 -11    0.30    1.40
   4  -8  11    1.10    1.40
   4  -8  11   -1.00    1.20
   6   7 -11    0.30    1.20
   6   7 -11   -1.00    1.30
   6   7 -11    2.20    1.40
  -6  -7  11   -0.70    0.80
  -6  -7  11    0.20    1.00
  -6  -7  11    0.00    1.70
   5   7 -11    0.20    1.40
   5   7 -11   -0.30    1.10
   5   7 -11    0.70    1.20
  -5  -7  11    1.40    1.20
  -5  -7  11    0.10    1.30
  -5  -7  11    0.00    1.00
   4   7 -11    0.20    1.10
   4   7 -11   -0.80    0.70
   4   7 -11    1.70    1.40
  -4  -7  11    0.90    1.00
  -4  -7  11    0.00    0.90
  -4  -7  11    0.40    1.20
  -4  -7  11    1.70    1.10
   3   7 -11    2.50    1.10
   3   7 -11    1.60    0.90
   3   7 -11    2.60    1.20
  -3  -7  11    3.70    1.50
  -3  -7  11    2.60    1.10
  -3  -7  11    5.10    1.50
  -3  -7  11    0.80    1.00
   2   7 -11    3.20    1.30
   2   7 -11    2.80    1.10
   2   7 -11    3.30    1.30
   2   7 -11    2.60    1.20
  -2  -7  11    2.60    1.10
  -2  -7  11    1.70    1.00
  -2  -7  11    3.60    1.30
  -2  -7  11    4.20    1.20
  -2  -7  11    2.70    1.20
   1   7 -11    1.20    1.00
   1   7 -11    2.10    1.20
   1   7 -11    3.00    1.20
  -1  -7  11    0.80    1.00
  -1  -7  11   -0.10    0.90
  -1  -7  11    2.20    1.20
  -1  -7  11    0.30    1.00
   0   7 -11    6.30    1.40
   0   7 -11    4.90    1.40
   0   7 -11    6.70    1.50
   0  -7  11    8.20    1.50
   0  -7  11    8.40    1.70
   0  -7  11    6.60    1.50
  -1   7 -11    5.30    1.40
  -1   7 -11    4.90    1.40
   1  -7  11    6.20    1.50
   1  -7  11    7.80    1.70
   1  -7  11    6.70    1.60
  -2   7 -11    0.40    1.20
  -2   7 -11    1.10    1.10
   2  -7  11   -1.30    1.00
   2  -7  11   -0.20    1.10
   2  -7  11    0.00    0.90
  -3   7 -11    1.80    1.20
  -3   7 -11   -1.10    1.30
   3  -7  11   -1.10    1.10
   3  -7  11    0.10    1.10
   3  -7  11   -0.90    1.10
  -4   7 -11   -0.30    1.30
  -4   7 -11    0.70    1.30
   4  -7  11    0.10    1.30
   4  -7  11   -0.10    1.30
  -7  -6  11    0.70    1.20
  -7  -6  11    3.10    2.20
  -7  -6  11    1.80    1.50
   6   6 -11    3.30    1.30
   6   6 -11    2.30    1.50
  -6  -6  11    1.50    1.50
  -6  -6  11    3.00    1.60
  -6  -6  11    4.00    1.80
  -6  -6  11    0.30    1.10
   5   6 -11    2.70    1.40
   5   6 -11    2.60    1.30
  -5  -6  11    0.80    1.00
  -5  -6  11    2.90    1.30
  -5  -6  11    1.40    1.20
  -5  -6  11    2.90    1.60
   4   6 -11    3.10    1.40
   4   6 -11    4.00    1.20
   4   6 -11    2.40    1.20
   4   6 -11    2.20    1.10
  -4  -6  11    2.30    1.00
  -4  -6  11    3.90    1.20
  -4  -6  11    4.60    1.40
  -4  -6  11    2.10    1.00
  -4  -6  11    4.00    1.40
   3   6 -11    2.90    1.40
   3   6 -11   -0.20    1.10
   3   6 -11    2.10    0.90
   3   6 -11   -0.90    1.00
  -3  -6  11    0.60    1.00
  -3  -6  11    1.20    1.00
  -3  -6  11    1.30    1.10
  -3  -6  11    2.60    1.00
   2   6 -11   -0.30    0.90
   2   6 -11    0.80    1.00
   2   6 -11   -0.10    0.80
   2   6 -11   -0.80    0.80
  -2  -6  11    0.10    0.80
  -2  -6  11    1.20    1.00
  -2  -6  11   -1.40    0.80
  -2  -6  11    0.20    0.90
   1   6 -11    9.50    1.80
   1   6 -11    6.30    1.40
   1   6 -11    8.70    1.60
   1   6 -11   10.70    1.70
  -1  -6  11    6.60    1.30
  -1  -6  11    7.40    1.50
  -1  -6  11    8.80    1.70
  -1  -6  11    8.50    1.60
  -1  -6  11    8.80    1.50
   0   6 -11    0.80    1.00
   0   6 -11    0.90    1.00
   0   6 -11    1.20    1.00
   0  -6  11    1.20    1.00
   0  -6  11   -0.30    0.90
   0  -6  11    1.50    1.10
  -1   6 -11    0.70    0.80
  -1   6 -11    0.80    1.10
   1  -6  11   -0.80    0.80
   1  -6  11    1.20    0.90
   1  -6  11    0.50    0.80
  -2   6 -11    3.20    1.30
  -2   6 -11    1.50    1.10
   2  -6  11    4.60    1.30
   2  -6  11    3.50    1.30
   2  -6  11    3.40    1.20
  -3   6 -11   -0.10    1.20
  -3   6 -11   -0.10    1.10
   3  -6  11    0.90    1.20
   3  -6  11    0.60    1.60
   3  -6  11    0.90    1.00
  -4   6 -11    2.50    1.50
  -4   6 -11    2.30    1.20
  -4   6 -11    7.20    2.00
   4  -6  11    7.60    1.80
   4  -6  11    3.60    1.70
   7   5 -11    0.30    1.20
   7   5 -11   -0.20    1.50
  -7  -5  11   -1.10    0.90
  -7  -5  11   -0.10    1.50
  -7  -5  11    0.50    1.40
   6   5 -11   -0.80    1.00
   6   5 -11   -0.50    1.40
  -6  -5  11   -0.10    1.10
  -6  -5  11    2.50    1.30
  -6  -5  11   -0.30    1.30
  -6  -5  11    0.60    1.40
   5   5 -11   -0.10    0.90
   5   5 -11    0.70    1.00
   5   5 -11    1.50    1.20
   5   5 -11    0.00    1.00
  -5  -5  11    1.60    1.30
  -5  -5  11   -0.10    0.80
  -5  -5  11   -0.70    0.80
  -5  -5  11    0.10    0.90
  -5  -5  11   -0.40    1.00
   4   5 -11    2.70    1.00
   4   5 -11    1.70    1.00
   4   5 -11    2.10    1.30
   4   5 -11    1.20    1.00
  -4  -5  11    3.70    1.30
  -4  -5  11    1.80    1.20
  -4  -5  11    2.90    1.10
  -4  -5  11    1.20    1.10
  -4  -5  11    4.00    1.20
   3   5 -11    4.50    1.30
   3   5 -11    4.00    1.10
   3   5 -11    2.60    1.00
   3   5 -11    2.80    1.10
  -3  -5  11    2.20    0.90
  -3  -5  11    2.30    1.00
  -3  -5  11    3.50    1.10
  -3  -5  11    3.30    1.20
  -3  -5  11    3.50    1.20
   2   5 -11   14.60    2.00
   2   5 -11   18.50    2.00
   2   5 -11   15.90    2.00
  -2  -5  11   15.50    2.00
  -2  -5  11   11.60    1.80
  -2  -5  11   13.40    2.00
  -2  -5  11   14.10    1.90
  -2  -5  11   16.00    2.00
   1   5 -11   13.30    1.80
   1   5 -11    8.50    1.50
   1   5 -11    9.30    1.60
  -1  -5  11    7.00    1.40
  -1  -5  11    9.80    1.70
  -1  -5  11    8.20    1.60
  -1  -5  11    8.90    1.60
   0   5 -11    2.50    1.10
   0   5 -11    3.70    1.30
   0   5 -11    1.80    1.00
   0  -5  11    1.80    1.00
   0  -5  11    2.80    0.90
   0  -5  11    1.90    0.90
   0  -5  11    2.00    1.10
  -1   5 -11   16.60    2.20
  -1   5 -11   19.40    2.30
   1  -5  11   19.10    2.10
   1  -5  11   18.20    2.20
   1  -5  11   14.30    2.10
  -2   5 -11   32.50    3.80
  -2   5 -11   36.30    2.80
  -2   5 -11   30.10    3.20
  -2   5 -11   39.80    3.10
   2  -5  11   44.60    3.10
   2  -5  11   47.80    3.30
   2  -5  11   44.00    3.20
  -3   5 -11   12.80    1.90
  -3   5 -11   13.30    2.20
  -3   5 -11   14.40    2.10
  -3   5 -11   14.30    2.30
   3  -5  11   14.10    2.10
   3  -5  11   14.10    2.10
   3  -5  11   17.90    2.40
  -4   5 -11   14.20    2.40
  -4   5 -11   14.70    2.30
   4  -5  11   17.10    2.40
   4  -5  11   14.70    3.00
   4  -5  11   12.60    2.30
  -5   5 -11    2.60    1.50
  -5   5 -11    7.70    2.00
   5  -5  11    6.60    1.90
   5  -5  11    3.50    1.60
   7   4 -11   -0.70    1.20
   7   4 -11   -2.50    1.40
  -7  -4  11    0.10    1.10
  -7  -4  11    1.50    1.20
  -7  -4  11    0.50    1.50
   6   4 -11   -0.80    1.00
   6   4 -11    0.90    1.50
   6   4 -11   -0.10    1.00
  -6  -4  11    0.50    1.00
  -6  -4  11    0.90    1.00
  -6  -4  11    3.50    1.40
   5   4 -11    4.60    1.30
   5   4 -11    3.60    1.70
   5   4 -11    3.10    1.30
   5   4 -11    4.30    1.50
  -5  -4  11    1.30    0.80
  -5  -4  11    4.20    1.30
  -5  -4  11    4.00    1.50
  -5  -4  11    2.30    0.90
  -5  -4  11    4.00    1.40
   4   4 -11    0.30    0.80
   4   4 -11    3.10    1.10
   4   4 -11    2.20    1.20
  -4  -4  11    1.90    1.10
  -4  -4  11    3.20    1.10
  -4  -4  11    3.50    1.10
  -4  -4  11   -0.10    0.70
  -4  -4  11    1.20    1.00
   3   4 -11   41.10    3.30
   3   4 -11   48.20    3.00
   3   4 -11   46.10    3.20
  -3  -4  11   35.10    3.00
  -3  -4  11   49.80    3.30
  -3  -4  11   45.00    3.20
  -3  -4  11   39.60    3.20
  -3  -4  11   45.50    3.10
   2   4 -11    7.10    1.40
   2   4 -11    5.70    1.20
  -2  -4  11    4.90    1.40
  -2  -4  11    4.80    1.10
  -2  -4  11    4.10    1.30
  -2  -4  11    6.40    1.30
  -2  -4  11    4.20    1.00
   1   4 -11   78.99    4.50
   1   4 -11   76.69    4.40
   1   4 -11   81.79    4.40
  -1  -4  11   76.99    4.30
  -1  -4  11   76.89    4.60
  -1  -4  11   84.09    4.50
  -1  -4  11   75.59    4.60
  -1  -4  11   82.79    4.60
   0   4 -11    1.00    0.90
   0   4 -11    1.20    0.90
   0   4 -11    0.50    0.80
   0  -4  11   -0.30    0.60
   0  -4  11   -0.30    0.80
   0  -4  11    0.70    0.80
  -1   4 -11   18.40    2.20
  -1   4 -11   18.80    2.00
  -1   4 -11   19.30    2.20
  -1   4 -11   21.10    2.20
   1  -4  11   18.50    2.20
   1  -4  11   19.90    2.30
  -2   4 -11    4.50    1.20
  -2   4 -11    5.70    1.30
  -2   4 -11    3.00    1.30
  -2   4 -11    5.00    1.40
   2  -4  11    6.20    1.50
   2  -4  11    3.40    1.40
   2  -4  11    3.80    1.40
  -3   4 -11    1.50    1.10
  -3   4 -11   -0.40    0.90
  -3   4 -11    0.80    1.00
  -3   4 -11   -0.10    0.90
   3  -4  11    1.70    1.30
   3  -4  11   -1.50    1.10
   3  -4  11   -0.40    0.60
  -4   4 -11   -0.70    1.10
  -4   4 -11    1.20    1.20
   4  -4  11   -1.60    1.10
   4  -4  11    1.10    1.10
   4  -4  11    0.60    1.30
  -5   4 -11    0.20    1.40
  -5   4 -11    0.00    1.30
   5  -4  11    0.80    1.50
   5  -4  11    1.30    1.50
   7   3 -11    1.20    1.40
   7   3 -11   -0.20    1.40
   7   3 -11    2.80    1.70
  -7  -3  11   -1.60    1.30
  -7  -3  11    1.00    1.20
  -7  -3  11    0.40    1.50
  -7  -3  11    2.20    1.40
   6   3 -11    4.10    1.30
   6   3 -11    3.60    1.60
   6   3 -11    1.50    1.00
   6   3 -11    4.30    1.50
  -6  -3  11    4.50    1.70
  -6  -3  11    3.10    1.30
  -6  -3  11    3.20    1.20
  -6  -3  11    1.30    1.10
   5   3 -11    7.70    1.50
   5   3 -11    7.70    1.50
   5   3 -11    8.10    1.90
  -5  -3  11    7.30    1.60
  -5  -3  11    6.50    1.70
  -5  -3  11    8.40    1.80
  -5  -3  11    6.70    1.40
  -5  -3  11    7.80    1.70
   4   3 -11   -0.50    1.10
   4   3 -11   -1.50    0.70
   4   3 -11    0.40    0.70
  -4  -3  11    0.00    1.00
  -4  -3  11    0.70    0.90
  -4  -3  11   -0.70    0.90
  -4  -3  11    0.30    0.60
  -4  -3  11   -0.70    0.60
   3   3 -11   32.40    2.50
   3   3 -11   36.30    2.70
   3   3 -11   39.00    3.10
  -3  -3  11   33.30    2.80
  -3  -3  11   38.00    2.90
  -3  -3  11   31.20    3.00
  -3  -3  11   34.50    2.70
  -3  -3  11   35.00    3.30
   2   3 -11   92.29    5.00
   2   3 -11  100.39    5.10
   2   3 -11   95.39    5.30
  -2  -3  11   95.29    5.30
  -2  -3  11   97.49    5.50
  -2  -3  11   94.79    5.10
  -2  -3  11  102.19    5.50
  -2  -3  11  102.89    5.10
   1   3 -11    8.30    1.40
   1   3 -11    7.60    1.20
   1   3 -11    6.70    1.30
   1   3 -11    6.10    1.10
   1   3 -11    9.10    1.50
  -1  -3  11    8.40    1.50
  -1  -3  11    4.90    1.30
  -1  -3  11    8.20    1.30
  -1  -3  11    5.40    1.30
  -1  -3  11    6.40    1.30
   0   3 -11   44.40    2.90
   0   3 -11   37.80    2.90
   0   3 -11   41.60    2.70
   0   3 -11   45.20    2.70
   0  -3  11   46.50    3.10
   0  -3  11   47.30    3.30
   0  -3  11   37.00    2.90
   0  -3  11   44.80    2.90
  -1   3 -11    0.60    0.80
  -1   3 -11    1.00    0.90
  -1   3 -11    3.20    0.90
  -1   3 -11    0.90    0.90
   1  -3  11    1.70    0.90
   1  -3  11    1.80    0.90
   1  -3  11    1.90    1.10
  -2   3 -11    2.30    1.20
  -2   3 -11    4.10    1.20
  -2   3 -11    4.90    1.20
  -2   3 -11    3.30    1.10
   2  -3  11    4.00    1.40
   2  -3  11    4.20    1.40
   2  -3  11    6.90    1.50
  -3   3 -11    1.10    1.00
  -3   3 -11    1.00    1.10
  -3   3 -11    2.80    1.20
   3  -3  11    0.60    1.10
   3  -3  11   -0.30    1.00
   3  -3  11    2.50    1.40
  -4   3 -11    0.70    1.30
  -4   3 -11    0.40    1.10
   4  -3  11    0.50    1.30
   4  -3  11    1.20    1.20
   4  -3  11    2.70    1.30
  -5   3 -11    8.20    2.10
  -5   3 -11   10.00    2.20
   5  -3  11    8.10    2.10
   5  -3  11    4.40    1.60
   5  -3  11    9.90    2.20
   7   2 -11   -0.70    1.30
   7   2 -11    3.00    1.90
   7   2 -11    1.10    1.30
  -7  -2  11    3.80    1.40
  -7  -2  11    2.00    1.70
  -7  -2  11    2.70    1.90
  -7  -2  11    1.60    1.40
   6   2 -11    1.10    1.30
   6   2 -11    3.70    1.10
   6   2 -11    2.80    1.50
  -6  -2  11    3.20    1.40
  -6  -2  11    3.50    1.60
  -6  -2  11    1.90    1.60
  -6  -2  11    3.90    1.40
  -6  -2  11    4.30    1.40
   5   2 -11    1.90    1.00
   5   2 -11    0.50    1.10
   5   2 -11    1.60    1.30
  -5  -2  11    0.30    1.40
  -5  -2  11   -0.30    1.00
  -5  -2  11    1.80    1.10
  -5  -2  11    0.10    0.80
  -5  -2  11   -0.10    0.90
   4   2 -11   40.30    3.50
   4   2 -11   41.60    3.20
   4   2 -11   43.00    3.00
  -4  -2  11   41.30    3.30
  -4  -2  11   35.00    3.00
  -4  -2  11   39.40    3.10
  -4  -2  11   40.90    3.20
  -4  -2  11   47.10    3.50
   3   2 -11    8.30    1.60
   3   2 -11    6.60    1.30
   3   2 -11    8.60    1.70
  -3  -2  11    9.40    1.70
  -3  -2  11    9.40    1.60
  -3  -2  11    6.20    1.50
  -3  -2  11    8.80    1.40
  -3  -2  11    6.70    1.40
   2   2 -11   70.29    3.90
   2   2 -11   63.79    3.80
   2   2 -11   65.39    4.00
   2   2 -11   63.99    3.40
   2   2 -11   66.29    3.50
  -2  -2  11   67.69    3.90
  -2  -2  11   65.59    4.20
  -2  -2  11   65.99    3.70
  -2  -2  11   64.69    4.20
  -2  -2  11   71.09    4.20
   1   2 -11   14.90    1.80
   1   2 -11   13.90    1.60
   1   2 -11   16.00    2.00
   1   2 -11   19.00    1.80
   1   2 -11   15.20    1.80
  -1  -2  11   15.30    1.80
  -1  -2  11   18.60    2.20
  -1  -2  11   12.90    1.90
  -1  -2  11   16.40    2.10
  -1  -2  11   19.20    1.90
   0   2 -11   19.00    1.90
   0   2 -11   22.80    2.20
   0   2 -11   21.60    2.10
   0   2 -11   19.30    2.10
   0  -2  11   20.20    2.10
   0  -2  11   17.20    2.20
   0  -2  11   16.40    2.10
   0  -2  11   18.40    2.20
  -1   2 -11   36.20    2.60
  -1   2 -11   37.70    2.80
  -1   2 -11   33.90    2.60
  -1   2 -11   35.60    2.70
   1  -2  11   41.40    3.20
   1  -2  11   42.20    3.00
   1  -2  11   39.40    3.00
  -2   2 -11   15.00    2.00
  -2   2 -11   11.50    1.90
  -2   2 -11   13.00    1.80
   2  -2  11   15.20    2.00
   2  -2  11   12.40    2.00
  -3   2 -11   11.30    1.90
  -3   2 -11   12.30    2.10
  -3   2 -11   10.60    1.70
   3  -2  11   14.20    2.30
   3  -2  11   10.10    1.80
   3  -2  11    5.90    1.50
  -4   2 -11   10.80    2.10
  -4   2 -11   15.20    2.20
   4  -2  11    9.00    2.10
   4  -2  11    9.00    2.00
   4  -2  11    9.70    2.20
  -5   2 -11   -2.40    1.20
  -5   2 -11   -1.40    1.40
  -5   2 -11    3.30    1.60
   5  -2  11    3.40    1.50
   5  -2  11    0.30    1.60
   5  -2  11    0.30    1.20
   7   1 -11    0.50    1.30
   7   1 -11    0.40    1.30
   7   1 -11   -1.40    1.20
  -7  -1  11    0.00    1.20
  -7  -1  11   -0.30    1.50
  -7  -1  11    1.10    1.20
   6   1 -11    5.20    2.00
   6   1 -11    2.20    1.20
   6   1 -11    4.10    1.50
  -6  -1  11    4.30    1.70
  -6  -1  11    5.20    1.60
  -6  -1  11    1.80    1.20
  -6  -1  11    3.50    1.70
  -6  -1  11    3.20    1.40
   5   1 -11   21.30    2.70
   5   1 -11   19.30    2.80
   5   1 -11   27.10    2.70
  -5  -1  11   25.80    2.90
  -5  -1  11   24.00    2.70
  -5  -1  11   19.40    2.50
  -5  -1  11   23.50    2.90
  -5  -1  11   20.90    2.80
   4   1 -11   53.79    3.70
   4   1 -11   51.59    3.00
   4   1 -11   49.70    3.90
   4   1 -11   51.89    3.40
  -4  -1  11   56.89    3.80
  -4  -1  11   44.70    3.60
  -4  -1  11   46.60    3.50
  -4  -1  11   51.59    3.70
  -4  -1  11   43.30    3.50
   3   1 -11   91.59    4.70
   3   1 -11   92.39    5.20
   3   1 -11   93.29    4.60
   3   1 -11   95.09    5.00
   3   1 -11   91.79    5.50
  -3  -1  11   96.59    5.30
  -3  -1  11  101.09    5.60
  -3  -1  11   94.99    5.40
  -3  -1  11  103.49    5.40
  -3  -1  11   96.19    5.40
   2   1 -11   -1.00    0.60
   2   1 -11   -1.30    0.90
   2   1 -11    0.90    0.90
   2   1 -11   -0.80    0.60
   2   1 -11   -0.50    0.50
  -2  -1  11   -0.60    0.90
  -2  -1  11   -0.10    0.60
  -2  -1  11   -0.20    0.70
  -2  -1  11    0.30    0.70
  -2  -1  11    0.80    0.90
   1   1 -11   34.90    2.70
   1   1 -11   36.80    2.60
   1   1 -11   37.80    2.60
   1   1 -11   36.70    2.40
   1   1 -11   39.50    2.50
  -1  -1  11   35.60    3.00
  -1  -1  11   33.80    3.20
  -1  -1  11   37.70    2.90
  -1  -1  11   36.50    2.60
   0   1 -11   64.69    3.50
   0   1 -11   58.59    3.40
   0   1 -11   60.29    3.50
   0   1 -11   52.89    3.40
   0  -1  11   58.89    3.50
   0  -1  11   55.29    3.90
   0  -1  11   63.99    4.00
   0  -1  11   58.69    3.90
  -1   1 -11    1.10    0.90
  -1   1 -11   -0.40    0.70
  -1   1 -11    0.80    0.80
   1  -1  11    0.00    0.90
   1  -1  11    0.00    1.00
   1  -1  11    1.20    1.10
   1  -1  11    0.40    0.90
  -2   1 -11   30.10    2.80
  -2   1 -11   21.80    2.40
  -2   1 -11   24.40    2.60
   2  -1  11   24.50    2.60
   2  -1  11   25.60    2.90
   2  -1  11   24.20    2.70
  -3   1 -11    1.50    1.00
  -3   1 -11    1.50    1.20
  -3   1 -11   -0.30    0.60
  -3   1 -11    0.50    1.10
   3  -1  11   -0.40    0.90
   3  -1  11    1.20    1.10
  -4   1 -11    5.30    1.50
  -4   1 -11    4.30    1.70
  -4   1 -11    4.90    1.60
   4  -1  11    1.10    1.60
   4  -1  11    7.10    2.00
   4  -1  11    3.60    1.60
  -5   1 -11    6.90    2.00
  -5   1 -11    4.60    2.10
  -5   1 -11    3.60    1.70
   5  -1  11    2.80    2.00
   5  -1  11    5.60    2.10
   5  -1  11    6.00    2.00
   7   0 -11    8.00    2.50
   7   0 -11   12.70    2.40
   7   0 -11    9.70    2.10
  -7   0  11   12.80    2.60
  -7   0  11    9.30    2.00
  -7   0  11   10.10    2.50
   6   0 -11   -1.00    0.80
   6   0 -11   -0.70    1.70
   6   0 -11    1.70    1.30
  -6   0  11   -0.20    1.10
  -6   0  11    1.00    1.70
  -6   0  11   -0.40    1.40
  -6   0  11    0.20    1.30
  -6   0  11    1.70    1.20
   5   0 -11   27.80    2.40
   5   0 -11   25.80    3.20
   5   0 -11   29.20    2.20
   5   0 -11   24.80    2.70
   5   0 -11   26.10    3.00
  -5   0  11   27.60    3.20
  -5   0  11   25.40    3.00
  -5   0  11   22.90    2.80
  -5   0  11   26.80    2.90
  -5   0  11   32.10    3.20
   4   0 -11   10.50    1.90
   4   0 -11    9.10    2.20
   4   0 -11    8.90    1.30
   4   0 -11   11.80    1.80
   4   0 -11   10.80    1.50
  -4   0  11   10.50    1.80
  -4   0  11    8.10    1.80
  -4   0  11    7.50    1.70
  -4   0  11   12.20    1.80
  -4   0  11    9.40    1.80
   3   0 -11    1.30    1.00
   3   0 -11    2.60    0.90
   3   0 -11    1.40    1.10
   3   0 -11    2.10    0.90
   3   0 -11    0.30    1.30
  -3   0  11    3.00    1.10
  -3   0  11    4.30    1.30
  -3   0  11    3.10    1.20
  -3   0  11    2.10    1.00
  -3   0  11    1.40    1.10
   2   0 -11    4.00    1.10
   2   0 -11    6.80    1.30
   2   0 -11    7.00    1.60
   2   0 -11    5.00    1.10
   2   0 -11    4.90    1.10
  -2   0  11    9.30    1.60
  -2   0  11    3.00    1.20
  -2   0  11    5.90    1.50
  -2   0  11    5.00    1.20
   1   0 -11   -0.20    0.70
   1   0 -11    0.20    0.60
   1   0 -11    0.00    0.70
   1   0 -11   -0.10    0.70
  -1   0  11   -0.60    0.80
  -1   0  11    1.20    1.00
  -1   0  11   -1.30    0.70
  -1   0  11    0.20    0.80
   0   0 -11   26.30    2.50
   0   0 -11   24.00    2.30
   0   0 -11   27.80    2.10
   0   0 -11   26.40    2.30
   0   0  11   31.20    2.90
   0   0  11   26.90    2.50
   0   0  11   25.90    2.80
   0   0  11   25.00    2.80
  -1   0 -11   11.30    1.70
  -1   0 -11   11.40    1.70
  -1   0 -11    9.00    1.50
   1   0  11   12.10    2.10
   1   0  11   12.20    1.90
   1   0  11   12.90    1.90
   1   0  11   10.70    1.80
  -2   0 -11   12.10    1.90
  -2   0 -11   11.70    1.80
  -2   0 -11   11.00    1.80
  -2   0 -11    8.60    1.80
   2   0  11   12.50    2.20
   2   0  11   10.20    1.80
   2   0  11   13.20    2.10
  -3   0 -11    8.10    1.70
  -3   0 -11    6.90    1.70
  -3   0 -11    7.50    1.70
   3   0  11    7.80    2.00
   3   0  11    6.50    1.80
  -4   0 -11    2.20    1.40
  -4   0 -11    2.30    1.40
  -4   0 -11   -0.30    1.30
   4   0  11    0.40    1.50
   4   0  11   -1.00    1.50
   7  -1 -11    0.10    1.50
   7  -1 -11    0.70    1.40
   7  -1 -11    0.60    2.00
  -7   1  11   -1.70    1.50
  -7   1  11    1.20    1.30
  -7   1  11    2.30    1.60
  -7   1  11   -1.50    1.50
   6  -1 -11    3.80    1.10
   6  -1 -11    5.90    1.90
   6  -1 -11    6.10    2.20
   6  -1 -11    3.00    1.10
   6  -1 -11    4.50    1.60
  -6   1  11    4.00    1.80
  -6   1  11    4.10    1.60
  -6   1  11    6.40    2.00
   5  -1 -11    1.10    1.40
   5  -1 -11    3.50    1.90
   5  -1 -11    0.90    0.90
   5  -1 -11    4.30    1.10
   5  -1 -11    3.20    1.30
  -5   1  11    0.60    1.30
  -5   1  11    2.40    1.20
  -5   1  11    1.30    1.40
  -5   1  11    4.00    1.20
  -5   1  11    1.60    1.20
   4  -1 -11   -0.30    0.70
   4  -1 -11    0.30    0.90
   4  -1 -11   -1.20    0.50
   4  -1 -11   -0.70    0.60
   4  -1 -11    0.70    1.40
  -4   1  11    0.10    1.10
  -4   1  11   -0.90    0.80
  -4   1  11   -1.30    1.00
  -4   1  11    0.80    0.90
  -4   1  11   -0.10    1.00
   3  -1 -11   10.30    1.50
   3  -1 -11    9.40    1.60
   3  -1 -11   15.00    1.90
   3  -1 -11   14.80    1.80
   3  -1 -11   11.50    2.20
  -3   1  11    9.40    1.70
  -3   1  11   12.20    2.00
  -3   1  11   10.60    2.00
  -3   1  11   12.20    2.10
  -3   1  11   13.60    1.90
   2  -1 -11    3.60    0.90
   2  -1 -11    2.80    1.00
   2  -1 -11    1.80    1.30
   2  -1 -11    5.10    1.20
   2  -1 -11    2.70    0.90
  -2   1  11    1.80    1.10
  -2   1  11    6.20    1.40
  -2   1  11    2.00    1.00
  -2   1  11    6.50    1.40
  -2   1  11    5.30    1.30
   1  -1 -11    3.90    1.10
   1  -1 -11    2.70    0.90
   1  -1 -11    3.30    1.00
   1  -1 -11    2.90    0.90
  -1   1  11    3.40    1.20
  -1   1  11    3.60    1.20
  -1   1  11    2.00    1.10
   0  -1 -11    2.70    1.00
   0  -1 -11    1.00    0.90
   0  -1 -11    0.20    0.80
   0   1  11    1.70    1.00
   0   1  11    0.50    1.00
   0   1  11    3.60    1.10
   0   1  11    1.80    1.10
  -1  -1 -11    0.80    0.80
  -1  -1 -11    0.50    0.90
  -1  -1 -11   -0.40    0.80
  -1  -1 -11    0.30    0.90
   1   1  11    0.00    0.90
   1   1  11   -0.70    0.90
   1   1  11    0.30    1.20
   1   1  11    1.50    1.20
  -2  -1 -11   -0.80    0.70
  -2  -1 -11    0.00    1.00
  -2  -1 -11    1.10    1.00
  -2  -1 -11    0.00    0.80
   2   1  11    0.50    1.00
   2   1  11    1.30    1.30
   2   1  11    0.20    1.10
  -3  -1 -11   -0.90    1.00
  -3  -1 -11    0.00    0.80
  -3  -1 -11    0.10    1.10
   3   1  11    0.70    1.10
   3   1  11    0.70    1.60
   3   1  11    0.40    1.20
  -4  -1 -11    2.20    1.50
  -4  -1 -11    5.90    1.80
   4   1  11    3.70    1.90
   4   1  11    4.10    2.00
   7  -2 -11   -0.70    1.40
   7  -2 -11    2.10    2.30
   7  -2 -11   -0.50    1.20
   7  -2 -11    0.60    1.00
  -7   2  11    0.50    1.60
  -7   2  11    1.30    1.40
  -7   2  11    2.60    1.50
  -7   2  11   -0.20    1.10
   6  -2 -11   -0.40    1.40
   6  -2 -11    0.00    0.90
   6  -2 -11    1.20    1.00
  -6   2  11   -0.60    1.10
  -6   2  11    0.30    1.50
  -6   2  11   -1.40    1.40
   5  -2 -11    1.50    1.30
   5  -2 -11    2.00    1.00
   5  -2 -11    2.20    1.00
   5  -2 -11    2.20    1.10
  -5   2  11    2.50    1.50
  -5   2  11    0.70    1.10
  -5   2  11    3.50    1.70
  -5   2  11    2.30    1.50
   4  -2 -11    8.10    1.40
   4  -2 -11    5.60    1.20
   4  -2 -11   11.20    1.90
   4  -2 -11    7.40    1.60
  -4   2  11    8.40    2.00
  -4   2  11   12.60    2.00
  -4   2  11   11.30    2.20
  -4   2  11   12.30    2.10
  -4   2  11   11.70    2.30
   3  -2 -11    2.20    1.20
   3  -2 -11    2.80    1.00
   3  -2 -11    1.30    0.80
   3  -2 -11    2.00    0.90
  -3   2  11    2.70    1.10
  -3   2  11    1.10    1.10
  -3   2  11    1.90    1.10
  -3   2  11    1.80    1.10
  -3   2  11    1.40    1.10
   2  -2 -11    0.60    1.30
   2  -2 -11    2.90    1.00
   2  -2 -11    3.70    1.20
   2  -2 -11    1.60    0.70
   2  -2 -11    2.50    0.90
  -2   2  11    2.80    1.40
  -2   2  11    3.10    1.10
  -2   2  11    4.30    1.30
  -2   2  11    2.50    1.20
  -2   2  11    3.10    1.60
   1  -2 -11    8.30    1.40
   1  -2 -11    6.20    1.20
   1  -2 -11    6.80    1.40
  -1   2  11    8.60    1.70
  -1   2  11   10.10    1.90
  -1   2  11    8.60    1.70
   0  -2 -11   19.20    2.20
   0  -2 -11   18.20    2.00
   0  -2 -11   22.00    2.20
   0  -2 -11   14.90    2.00
   0   2  11   17.10    2.30
   0   2  11   18.20    2.40
   0   2  11   16.60    2.40
  -1  -2 -11    0.80    0.90
  -1  -2 -11    3.40    1.10
  -1  -2 -11    1.70    1.10
  -1  -2 -11    2.60    1.10
   1   2  11    3.20    1.30
   1   2  11    1.90    1.20
   1   2  11    0.40    1.30
   1   2  11    4.20    1.30
  -2  -2 -11    5.10    1.40
  -2  -2 -11    4.70    1.50
  -2  -2 -11    5.30    1.40
   2   2  11    9.80    1.80
   2   2  11    5.90    1.60
   2   2  11    8.00    1.80
   2   2  11    7.70    2.00
  -3  -2 -11   -0.30    1.10
  -3  -2 -11   -0.60    1.20
   3   2  11    0.40    1.10
   3   2  11   -1.20    1.40
   3   2  11   -0.80    1.10
  -4  -2 -11    0.60    1.50
  -4  -2 -11   -1.10    1.50
   4   2  11    2.00    1.90
   4   2  11    2.30    1.90
   6  -3 -11    1.50    1.10
   6  -3 -11    0.40    1.50
   6  -3 -11    0.80    1.20
  -6   3  11    1.80    1.40
  -6   3  11    2.90    1.80
  -6   3  11    2.30    1.40
   5  -3 -11   -0.70    0.80
   5  -3 -11   -0.60    1.20
   5  -3 -11    0.80    1.20
  -5   3  11    0.40    1.20
  -5   3  11    0.70    1.30
  -5   3  11    0.80    1.30
   4  -3 -11    0.90    1.20
   4  -3 -11    1.20    0.90
   4  -3 -11   -0.50    0.80
   4  -3 -11   -0.30    0.90
  -4   3  11   -0.30    1.20
  -4   3  11    1.30    1.10
  -4   3  11    1.60    1.20
  -4   3  11    1.30    1.30
   3  -3 -11    3.70    1.20
   3  -3 -11    2.00    0.90
   3  -3 -11    1.60    1.10
   3  -3 -11    1.20    0.80
  -3   3  11    5.00    1.30
  -3   3  11    2.00    1.10
  -3   3  11    2.90    1.30
  -3   3  11    4.50    1.50
  -3   3  11    1.60    1.50
   2  -3 -11    2.20    1.10
   2  -3 -11    2.80    1.00
   2  -3 -11    5.60    1.30
  -2   3  11    5.90    1.40
  -2   3  11    2.80    1.30
  -2   3  11    1.50    0.90
   1  -3 -11    0.50    0.90
   1  -3 -11   -0.10    0.80
   1  -3 -11    0.80    0.90
   1  -3 -11   -0.20    0.60
  -1   3  11    0.80    1.20
  -1   3  11    0.00    0.90
  -1   3  11   -0.30    0.80
   0  -3 -11    3.20    1.00
   0  -3 -11    3.20    1.10
   0  -3 -11    2.90    1.10
   0  -3 -11    4.20    1.30
   0   3  11    1.50    1.10
   0   3  11    2.50    1.30
   0   3  11    3.90    1.20
  -1  -3 -11    2.10    1.20
  -1  -3 -11    1.40    1.20
  -1  -3 -11    3.60    1.30
   1   3  11    1.90    1.60
   1   3  11    3.20    1.20
   1   3  11    1.20    1.20
  -2  -3 -11    5.30    1.60
  -2  -3 -11    8.90    1.90
   2   3  11    6.80    1.90
   2   3  11    8.60    1.90
   2   3  11    8.90    2.20
  -3  -3 -11    0.50    1.20
  -3  -3 -11   -2.00    1.10
   3   3  11    2.40    1.80
   3   3  11    0.20    1.40
   3   3  11    0.80    1.60
   6  -4 -11    1.80    1.20
   6  -4 -11    3.20    1.70
   6  -4 -11   -0.20    1.30
  -6   4  11    0.70    1.60
  -6   4  11    0.00    1.10
  -6   4  11    2.80    1.50
  -6   4  11    0.60    1.50
   5  -4 -11   -0.30    1.00
   5  -4 -11   -0.50    1.40
   5  -4 -11    0.20    1.10
  -5   4  11    2.00    1.30
  -5   4  11    0.70    1.30
  -5   4  11    0.30    1.60
   4  -4 -11    0.70    1.30
   4  -4 -11    2.80    1.30
   4  -4 -11    2.40    1.00
  -4   4  11    1.60    1.40
  -4   4  11    1.70    1.30
  -4   4  11    3.00    1.40
   3  -4 -11    0.50    0.70
   3  -4 -11   -1.20    0.90
   3  -4 -11    0.40    0.90
  -3   4  11    0.30    1.00
  -3   4  11    0.80    1.30
   2  -4 -11    2.10    1.10
   2  -4 -11    1.70    1.10
   2  -4 -11    2.50    1.00
  -2   4  11    4.40    1.40
  -2   4  11    2.00    1.10
   1  -4 -11    0.30    0.90
   1  -4 -11    0.00    0.90
   1  -4 -11   -1.90    0.60
  -1   4  11   -1.50    0.90
  -1   4  11    0.20    1.00
   0  -4 -11   -0.50    1.00
   0  -4 -11    0.50    0.80
   0   4  11   -0.10    1.10
   0   4  11    0.70    1.10
  -1  -4 -11    8.00    1.70
  -1  -4 -11    8.60    1.90
   1   4  11    5.50    2.00
   1   4  11    5.50    1.80
  -2  -4 -11    1.40    1.30
  -2  -4 -11   -0.20    1.40
   2   4  11   -0.10    1.70
   2   4  11    1.50    1.10
   5  -5 -11    0.60    1.10
   5  -5 -11    0.10    1.00
   5  -5 -11   -1.80    1.00
  -5   5  11   -0.30    0.90
  -5   5  11   -1.10    1.50
  -5   5  11    0.90    1.30
   4  -5 -11   -0.20    1.00
   4  -5 -11    1.10    1.10
   4  -5 -11   -0.30    1.40
  -4   5  11    0.10    1.30
  -4   5  11    0.30    1.50
  -4   5  11   -1.00    1.70
   3  -5 -11    2.00    1.10
   3  -5 -11    4.50    1.30
   3  -5 -11    3.90    1.30
  -3   5  11    4.20    1.60
   2  -5 -11    0.40    1.00
   2  -5 -11   -0.20    0.90
   2  -5 -11   -0.40    0.90
  -2   5  11    2.30    1.30
   1  -5 -11   25.60    2.80
   1  -5 -11   25.50    2.80
  -1   5  11   23.30    3.00
  -1   5  11   29.00    3.10
   0  -5 -11   14.70    2.20
   0  -5 -11   14.20    2.20
   0   5  11   14.30    2.40
   0   5  11   19.40    2.90
  -1  -5 -11   33.80    3.50
  -1  -5 -11   38.50    3.70
   1   5  11   39.70    4.20
   1   5  11   29.70    3.60
   3  -6 -11   14.00    2.10
   3  -6 -11   16.20    2.30
   3  -6 -11   16.60    2.30
  -3   6  11   18.20    2.90
   2  -6 -11    1.30    1.20
   2  -6 -11    2.80    1.30
  -2   6  11    5.90    1.80
   1  -6 -11    9.00    1.70
   1  -6 -11    8.60    2.00
  -1   6  11    9.80    2.20
   0  -6 -11    4.60    1.60
   0  -6 -11    5.80    1.70
   0   6  11    3.70    1.60
   0   6  11    7.30    2.10
   2  10 -12    5.60    2.20
   2  10 -12    1.90    1.50
  -2 -10  12    1.50    1.60
  -2 -10  12    3.40    1.70
  -2 -10  12    3.70    1.60
   1  10 -12    0.80    1.50
   1  10 -12    0.60    1.30
  -1 -10  12    0.30    1.20
  -1 -10  12   -0.40    1.50
  -1 -10  12    1.50    1.60
   0  10 -12    1.60    1.60
   0  10 -12    2.40    1.50
   0 -10  12    2.20    1.60
   0 -10  12    0.60    1.40
   4   9 -12    1.00    1.30
   4   9 -12    2.30    1.20
   4   9 -12    1.50    1.40
  -4  -9  12   -0.60    1.30
  -4  -9  12    2.20    1.50
  -4  -9  12    0.10    1.60
   3   9 -12    0.30    1.00
   3   9 -12    1.60    1.80
   3   9 -12    1.40    1.40
  -3  -9  12    0.30    1.50
  -3  -9  12   -1.00    1.10
  -3  -9  12    3.10    1.50
   2   9 -12    8.20    2.20
   2   9 -12    5.50    1.80
  -2  -9  12    8.20    1.90
  -2  -9  12    6.40    1.90
  -2  -9  12    7.40    1.90
   1   9 -12   -0.80    1.30
   1   9 -12    0.30    1.30
  -1  -9  12    0.80    1.30
  -1  -9  12   -0.10    1.10
  -1  -9  12    0.70    1.30
   0   9 -12    0.20    1.20
   0   9 -12    0.70    1.40
   0   9 -12    2.20    1.60
   0  -9  12    0.70    1.20
   0  -9  12    1.80    1.40
   0  -9  12    1.80    1.40
  -1   9 -12   -0.20    1.30
  -1   9 -12   -0.10    1.20
   1  -9  12    0.50    1.20
   1  -9  12    1.50    1.30
  -2   9 -12    1.10    1.40
  -2   9 -12   -1.20    1.60
   2  -9  12   -1.00    1.20
   2  -9  12   -0.50    1.40
   5   8 -12   -1.10    1.20
   5   8 -12    3.20    1.60
   5   8 -12    3.40    1.70
  -5  -8  12    1.80    1.50
  -5  -8  12    3.20    2.00
  -5  -8  12    0.20    1.30
   4   8 -12   -0.10    1.10
   4   8 -12    2.40    1.70
   4   8 -12    1.00    1.40
  -4  -8  12    1.40    1.30
  -4  -8  12    0.70    0.90
  -4  -8  12   -0.70    1.30
   3   8 -12    1.80    1.70
   3   8 -12   -0.50    1.30
   3   8 -12    2.90    1.30
  -3  -8  12    0.80    1.10
  -3  -8  12    0.10    1.10
  -3  -8  12    0.90    1.10
  -3  -8  12    0.60    1.40
   2   8 -12    3.50    1.40
   2   8 -12    0.80    1.30
  -2  -8  12    2.20    1.50
  -2  -8  12    1.70    1.20
  -2  -8  12    0.00    1.10
   1   8 -12   -0.30    1.10
   1   8 -12    1.60    1.30
   1   8 -12   -1.30    1.00
  -1  -8  12    1.80    1.20
  -1  -8  12    3.30    1.40
  -1  -8  12    1.50    1.40
   0   8 -12    5.10    1.70
   0   8 -12    4.90    1.50
   0   8 -12    1.60    1.30
   0  -8  12    5.00    1.60
   0  -8  12    1.60    1.30
   0  -8  12    2.80    1.40
  -1   8 -12    0.60    0.90
  -1   8 -12    0.60    1.20
   1  -8  12    0.40    1.30
   1  -8  12    1.60    1.20
   1  -8  12    1.40    1.30
  -2   8 -12   -1.40    1.20
  -2   8 -12    0.80    1.30
   2  -8  12    1.50    1.30
   2  -8  12    1.50    1.10
  -3   8 -12    0.70    1.50
  -3   8 -12    1.30    1.40
   3  -8  12   -0.10    1.40
   3  -8  12   -0.60    1.30
   5   7 -12   -1.10    1.10
   5   7 -12   -0.20    1.70
  -5  -7  12    2.30    1.70
  -5  -7  12    2.10    1.70
  -5  -7  12    2.00    1.30
   4   7 -12   -1.00    1.10
   4   7 -12   -0.90    1.30
  -4  -7  12    0.70    1.40
  -4  -7  12    0.50    1.20
  -4  -7  12   -0.60    1.00
   3   7 -12    0.20    0.80
   3   7 -12   -0.30    1.30
   3   7 -12    0.90    1.00
   3   7 -12    2.00    1.10
  -3  -7  12    0.20    0.90
  -3  -7  12    0.00    1.10
  -3  -7  12    0.10    0.90
  -3  -7  12    0.30    1.20
   2   7 -12    2.40    1.20
   2   7 -12    3.60    1.20
   2   7 -12    4.10    1.50
   2   7 -12    2.80    1.40
  -2  -7  12    2.90    1.40
  -2  -7  12    5.10    1.40
  -2  -7  12    2.50    1.20
  -2  -7  12    5.20    1.40
   1   7 -12    0.40    1.10
   1   7 -12    3.20    1.30
   1   7 -12    1.40    1.20
  -1  -7  12    1.20    1.00
  -1  -7  12    2.60    1.30
   0   7 -12    0.60    1.20
   0   7 -12    1.20    1.00
   0   7 -12    1.30    1.10
   0  -7  12    0.00    1.00
   0  -7  12    1.10    1.20
   0  -7  12    1.80    1.20
  -1   7 -12    1.70    1.20
  -1   7 -12    0.50    1.00
   1  -7  12    3.20    1.30
   1  -7  12    2.30    1.30
   1  -7  12    2.30    1.30
  -2   7 -12   -0.50    1.10
  -2   7 -12    0.50    1.30
   2  -7  12    2.10    1.30
   2  -7  12    1.20    1.20
   2  -7  12    1.30    1.20
  -3   7 -12    1.30    1.50
  -3   7 -12    2.20    1.50
   3  -7  12    0.20    1.30
   3  -7  12   -0.20    1.30
   6   6 -12    2.60    1.60
   6   6 -12   -0.80    1.10
  -6  -6  12    1.10    1.50
  -6  -6  12   -0.90    1.00
  -6  -6  12    0.60    1.30
  -6  -6  12   -1.20    1.40
   5   6 -12    1.20    1.50
   5   6 -12   -0.30    1.00
  -5  -6  12   -0.90    1.00
  -5  -6  12    0.70    1.40
  -5  -6  12   -0.20    1.30
  -5  -6  12    0.20    1.20
   4   6 -12   -0.20    1.30
   4   6 -12    0.10    0.70
   4   6 -12   -1.10    1.20
   4   6 -12    1.20    1.00
  -4  -6  12   -0.30    1.00
  -4  -6  12   -1.10    0.90
  -4  -6  12   -0.10    0.60
  -4  -6  12   -1.20    1.00
  -4  -6  12   -0.30    1.10
   3   6 -12   -1.50    0.90
   3   6 -12    0.70    0.90
   3   6 -12    1.00    1.30
   3   6 -12    1.40    1.20
  -3  -6  12   -1.00    0.80
  -3  -6  12    0.70    1.00
  -3  -6  12    1.20    1.20
  -3  -6  12    0.20    0.80
   2   6 -12    1.40    1.20
   2   6 -12   -0.10    0.70
   2   6 -12    1.10    0.90
   2   6 -12   -1.20    0.90
  -2  -6  12    1.50    1.00
  -2  -6  12    1.30    0.90
  -2  -6  12    1.30    1.10
  -2  -6  12    0.90    1.00
   1   6 -12    3.90    1.30
   1   6 -12    5.00    1.40
   1   6 -12    5.50    1.30
  -1  -6  12    5.90    1.40
  -1  -6  12    5.90    1.50
  -1  -6  12    4.00    1.20
   0   6 -12    7.30    1.60
   0   6 -12    8.10    1.60
   0   6 -12    6.20    1.60
   0  -6  12    6.70    1.60
   0  -6  12    4.80    1.60
   0  -6  12    8.70    2.00
  -1   6 -12    6.90    1.70
  -1   6 -12    7.50    1.70
   1  -6  12   10.20    1.90
   1  -6  12   10.70    1.80
   1  -6  12    7.00    1.80
  -2   6 -12    0.90    1.20
  -2   6 -12    1.40    0.90
   2  -6  12    0.60    1.10
   2  -6  12   -0.60    1.10
   2  -6  12    1.80    1.30
  -3   6 -12   15.10    2.60
  -3   6 -12   10.50    2.20
   3  -6  12   14.30    2.20
   3  -6  12   10.60    2.20
   3  -6  12   14.20    2.30
  -4   6 -12    4.30    1.80
  -4   6 -12    1.00    2.20
   4  -6  12    5.30    1.90
   4  -6  12   10.10    2.10
   6   5 -12    0.60    1.20
   6   5 -12    0.00    1.50
  -6  -5  12    1.10    1.60
  -6  -5  12   -1.10    1.30
  -6  -5  12   -0.30    1.00
  -6  -5  12    1.20    1.30
   5   5 -12    8.30    1.70
   5   5 -12    5.50    1.90
   5   5 -12    7.50    1.80
  -5  -5  12    8.60    1.80
  -5  -5  12    8.90    2.00
  -5  -5  12    5.90    1.70
  -5  -5  12    5.80    1.70
   4   5 -12    6.50    1.60
   4   5 -12    7.70    1.90
   4   5 -12    7.40    1.70
   4   5 -12    8.20    1.50
  -4  -5  12    4.60    1.50
  -4  -5  12    5.90    1.60
  -4  -5  12    8.40    1.60
  -4  -5  12    5.90    1.50
  -4  -5  12    6.50    1.60
   3   5 -12    4.60    1.40
   3   5 -12    5.20    1.30
   3   5 -12    6.00    1.50
  -3  -5  12    4.90    1.50
  -3  -5  12    4.80    1.40
  -3  -5  12    5.70    1.60
  -3  -5  12    6.80    1.60
  -3  -5  12    4.30    1.40
   2   5 -12    7.00    1.60
   2   5 -12    7.10    1.60
   2   5 -12    7.90    1.50
  -2  -5  12    4.90    1.40
  -2  -5  12   10.10    1.80
  -2  -5  12    7.30    1.50
  -2  -5  12    6.50    1.50
   1   5 -12   27.20    2.70
   1   5 -12   30.10    2.50
   1   5 -12   26.60    2.70
  -1  -5  12   26.60    3.10
  -1  -5  12   29.50    3.00
  -1  -5  12   30.90    3.00
  -1  -5  12   24.90    2.70
   0   5 -12    5.10    1.40
   0   5 -12    4.30    1.20
   0  -5  12    5.50    1.40
   0  -5  12    2.90    1.20
  -1   5 -12   35.30    3.40
  -1   5 -12   37.50    3.10
   1  -5  12   38.60    3.20
   1  -5  12   40.00    3.10
   1  -5  12   36.80    3.10
  -2   5 -12    2.00    1.30
  -2   5 -12    1.10    1.00
   2  -5  12    2.20    1.10
   2  -5  12    2.50    1.30
   2  -5  12    3.20    1.30
  -3   5 -12    0.90    1.00
  -3   5 -12    2.90    1.60
  -3   5 -12    1.30    1.30
  -3   5 -12   -0.10    1.30
   3  -5  12    3.60    1.70
   3  -5  12    2.50    1.30
   3  -5  12    5.60    1.80
  -4   5 -12    0.40    1.10
  -4   5 -12   -1.00    1.20
   4  -5  12    1.00    1.60
   4  -5  12    0.40    1.50
   7   4 -12    5.90    1.90
  -7  -4  12    4.00    1.60
  -7  -4  12    3.40    1.50
   6   4 -12    4.60    1.70
   6   4 -12    2.70    1.50
   6   4 -12    2.20    1.30
  -6  -4  12    5.10    1.80
  -6  -4  12    7.20    1.90
  -6  -4  12    4.00    1.50
   5   4 -12    1.90    1.20
   5   4 -12    1.60    1.30
   5   4 -12    2.80    1.60
  -5  -4  12    0.40    1.40
  -5  -4  12    2.20    1.20
  -5  -4  12    3.50    1.60
  -5  -4  12    2.40    1.10
   4   4 -12    1.10    1.00
   4   4 -12    0.00    1.00
   4   4 -12   -0.10    0.90
  -4  -4  12    1.00    1.20
  -4  -4  12    0.00    1.00
  -4  -4  12    0.80    0.80
  -4  -4  12    0.50    1.10
  -4  -4  12   -0.20    1.00
   3   4 -12    4.10    1.50
   3   4 -12    3.10    1.20
   3   4 -12    4.20    1.20
  -3  -4  12    4.40    1.50
  -3  -4  12    4.50    1.40
  -3  -4  12    5.60    1.40
  -3  -4  12    5.20    1.40
  -3  -4  12    8.30    1.70
   2   4 -12    6.40    1.50
   2   4 -12    5.50    1.30
   2   4 -12    5.10    1.30
  -2  -4  12    2.40    0.90
  -2  -4  12    6.20    1.40
  -2  -4  12    3.70    1.20
  -2  -4  12    3.40    1.30
  -2  -4  12    5.20    1.50
   1   4 -12    5.20    1.30
   1   4 -12    3.70    1.20
   1   4 -12    6.70    1.40
  -1  -4  12    3.30    1.30
  -1  -4  12    4.30    1.30
  -1  -4  12    4.10    1.40
  -1  -4  12    5.00    1.40
   0   4 -12    6.50    1.50
   0   4 -12    8.90    1.60
   0  -4  12    7.80    1.60
   0  -4  12    7.70    1.80
   0  -4  12    7.00    1.50
  -1   4 -12    0.50    0.80
  -1   4 -12    0.90    1.00
  -1   4 -12    1.40    0.90
   1  -4  12    1.10    1.00
   1  -4  12    0.10    1.00
  -2   4 -12    4.80    1.30
  -2   4 -12    2.50    1.10
  -2   4 -12    3.40    1.50
  -2   4 -12    2.60    1.30
   2  -4  12    6.60    1.60
   2  -4  12    3.90    1.40
   2  -4  12    4.30    1.50
  -3   4 -12    1.80    1.20
  -3   4 -12    0.00    1.10
  -3   4 -12   -0.30    1.30
   3  -4  12   -0.90    1.00
   3  -4  12   -2.40    1.10
   3  -4  12    0.60    1.30
  -4   4 -12    0.80    1.40
  -4   4 -12   -2.00    1.10
   4  -4  12   -1.60    1.30
   4  -4  12    1.50    1.40
   4  -4  12   -0.40    1.20
   7   3 -12    0.60    1.20
   7   3 -12    0.40    1.60
   7   3 -12    0.70    1.40
  -7  -3  12    0.10    1.60
  -7  -3  12   -1.10    1.50
  -7  -3  12    1.00    1.30
  -7  -3  12   -0.70    1.00
   6   3 -12    7.90    1.80
   6   3 -12    5.10    1.70
   6   3 -12    4.20    1.50
  -6  -3  12    3.00    1.40
  -6  -3  12    2.90    1.50
  -6  -3  12    3.90    1.40
  -6  -3  12    5.30    1.60
   5   3 -12    2.10    1.30
   5   3 -12    1.60    1.50
   5   3 -12    2.70    1.20
  -5  -3  12    4.00    1.50
  -5  -3  12    4.20    1.90
  -5  -3  12    3.80    1.30
  -5  -3  12    1.60    1.40
   4   3 -12    1.90    0.90
   4   3 -12   -0.20    0.70
   4   3 -12    0.20    1.30
  -4  -3  12    1.10    1.10
  -4  -3  12    1.40    1.20
  -4  -3  12    0.30    1.00
  -4  -3  12    0.80    1.10
   3   3 -12    1.10    0.80
   3   3 -12    0.50    0.90
   3   3 -12    0.20    0.80
  -3  -3  12    0.50    1.10
  -3  -3  12    1.50    1.10
  -3  -3  12    3.00    1.10
  -3  -3  12    1.00    1.00
  -3  -3  12    1.80    0.80
   2   3 -12   -0.20    0.60
   2   3 -12    2.30    1.20
   2   3 -12    1.60    0.90
  -2  -3  12   -0.20    1.00
  -2  -3  12    0.50    0.90
  -2  -3  12   -0.80    0.90
  -2  -3  12    1.60    1.00
  -2  -3  12    0.60    1.00
   1   3 -12    1.60    1.00
   1   3 -12    1.90    1.00
   1   3 -12    1.20    0.80
  -1  -3  12    1.90    1.20
  -1  -3  12    0.90    0.90
  -1  -3  12    2.90    1.20
  -1  -3  12    2.40    1.20
   0   3 -12    3.30    0.90
   0   3 -12    1.60    0.90
   0   3 -12    0.60    0.80
   0   3 -12   -0.10    0.80
   0  -3  12    1.90    1.00
   0  -3  12    2.10    1.10
   0  -3  12    0.00    0.90
  -1   3 -12   -0.40    0.70
  -1   3 -12   -0.20    0.80
  -1   3 -12   -0.50    0.70
  -1   3 -12    0.50    0.90
   1  -3  12   -0.10    0.90
   1  -3  12   -0.50    1.00
  -2   3 -12    0.10    0.90
  -2   3 -12    1.30    1.00
  -2   3 -12    0.50    1.10
   2  -3  12    0.90    1.10
   2  -3  12    1.80    1.30
  -3   3 -12   -0.40    1.00
  -3   3 -12    1.30    1.20
   3  -3  12   -0.20    1.10
   3  -3  12   -0.90    1.00
   3  -3  12   -0.60    1.00
  -4   3 -12    0.80    1.30
  -4   3 -12    0.20    1.40
   4  -3  12    0.70    1.50
   4  -3  12    0.10    0.90
   4  -3  12    2.20    1.50
   7   2 -12    1.30    1.20
   7   2 -12    1.30    1.40
   7   2 -12   -0.30    1.60
  -7  -2  12    1.60    1.70
  -7  -2  12    1.40    1.30
  -7  -2  12    1.60    1.40
  -7  -2  12    2.10    1.40
   6   2 -12   -0.30    1.30
   6   2 -12    0.60    1.10
   6   2 -12    0.30    1.60
  -6  -2  12    0.10    1.10
  -6  -2  12   -1.40    1.40
  -6  -2  12    2.90    1.40
  -6  -2  12    1.70    1.60
   5   2 -12    1.00    1.10
   5   2 -12    0.90    1.60
   5   2 -12   -0.50    1.00
  -5  -2  12   -0.10    0.90
  -5  -2  12   -0.20    0.70
  -5  -2  12   -1.00    1.20
  -5  -2  12    0.40    1.40
  -5  -2  12    1.00    1.30
   4   2 -12    0.70    1.00
   4   2 -12    2.00    1.20
   4   2 -12    3.10    1.50
  -4  -2  12    0.80    1.00
  -4  -2  12    0.30    0.90
  -4  -2  12    1.70    1.00
  -4  -2  12    2.30    1.30
   3   2 -12   -0.50    0.90
   3   2 -12    0.50    1.00
   3   2 -12   -1.90    0.70
  -3  -2  12   -1.40    0.90
  -3  -2  12    0.30    0.70
  -3  -2  12   -0.40    1.00
  -3  -2  12    0.30    1.00
   2   2 -12    3.10    1.10
   2   2 -12    3.70    1.20
   2   2 -12    2.80    1.30
   2   2 -12    3.80    1.00
   2   2 -12    4.20    1.20
  -2  -2  12    1.00    1.20
  -2  -2  12    2.70    1.20
  -2  -2  12    2.90    1.10
  -2  -2  12    4.20    1.30
  -2  -2  12    5.60    1.20
   1   2 -12    0.70    0.80
   1   2 -12   -0.10    0.60
   1   2 -12    0.10    0.80
   1   2 -12    0.30    0.70
  -1  -2  12    1.30    1.00
  -1  -2  12   -0.20    1.00
  -1  -2  12    1.40    0.90
  -1  -2  12    0.00    0.90
   0   2 -12    3.70    1.20
   0   2 -12    2.80    0.90
   0   2 -12    4.10    1.10
   0   2 -12    3.10    1.00
   0  -2  12    0.20    0.90
   0  -2  12    4.70    1.20
   0  -2  12    2.10    1.00
   0  -2  12    0.10    0.80
  -1   2 -12   -0.80    0.80
  -1   2 -12    0.00    0.80
  -1   2 -12    0.10    0.80
  -1   2 -12   -1.20    0.80
   1  -2  12   -0.20    0.80
   1  -2  12    0.60    0.80
   1  -2  12   -0.50    1.00
  -2   2 -12    0.40    0.90
  -2   2 -12   -0.10    0.90
  -2   2 -12    1.00    0.90
   2  -2  12   -0.50    1.10
   2  -2  12    1.60    1.30
  -3   2 -12    1.40    1.20
  -3   2 -12   -1.10    0.80
   3  -2  12    1.00    1.40
   3  -2  12    0.80    1.20
  -4   2 -12    4.80    1.60
  -4   2 -12    1.40    1.60
   4  -2  12    2.40    1.70
   4  -2  12    1.70    1.50
   7   1 -12    1.90    1.50
   7   1 -12    0.10    1.40
   7   1 -12    0.70    2.10
  -7  -1  12    1.60    1.40
  -7  -1  12    0.00    1.60
  -7  -1  12   -1.90    1.70
   6   1 -12    0.30    1.40
   6   1 -12   -1.20    1.00
   6   1 -12   -1.80    1.60
  -6  -1  12   -1.10    1.00
  -6  -1  12    0.20    1.40
  -6  -1  12   -0.60    1.10
  -6  -1  12   -1.00    1.50
   5   1 -12    6.00    1.90
   5   1 -12    5.00    2.00
   5   1 -12    7.70    1.70
  -5  -1  12    8.20    1.70
  -5  -1  12   11.40    2.30
  -5  -1  12    5.20    1.70
  -5  -1  12   11.10    2.00
   4   1 -12   -1.00    1.40
   4   1 -12   -0.30    0.90
   4   1 -12   -0.30    1.10
  -4  -1  12   -1.60    1.00
  -4  -1  12    1.30    1.00
  -4  -1  12    0.40    0.80
  -4  -1  12    0.20    1.10
  -4  -1  12   -0.10    1.00
   3   1 -12    0.60    1.20
   3   1 -12    0.70    0.70
   3   1 -12    2.60    0.90
   3   1 -12    2.50    1.20
   3   1 -12    1.10    0.70
  -3  -1  12    1.80    1.00
  -3  -1  12    3.70    1.20
  -3  -1  12   -0.10    1.00
  -3  -1  12    1.90    1.20
   2   1 -12   -0.40    0.70
   2   1 -12    0.20    0.70
   2   1 -12    0.10    0.70
   2   1 -12    0.30    0.60
   2   1 -12   -0.30    1.00
  -2  -1  12    0.60    1.00
  -2  -1  12   -1.20    0.60
  -2  -1  12   -0.50    0.90
  -2  -1  12   -0.40    0.80
   1   1 -12    0.60    0.70
   1   1 -12    0.30    0.70
   1   1 -12   -0.30    0.70
   1   1 -12   -0.20    0.80
  -1  -1  12   -0.70    0.90
  -1  -1  12    1.10    1.00
  -1  -1  12    0.00    0.80
  -1  -1  12    0.20    0.70
   0   1 -12    0.10    0.70
   0   1 -12   -1.20    0.70
   0   1 -12    0.10    0.80
   0   1 -12   -0.30    0.80
   0  -1  12   -0.70    0.80
   0  -1  12   -0.40    1.00
   0  -1  12   -0.20    0.90
   0  -1  12   -0.80    1.00
  -1   1 -12   -0.40    0.70
  -1   1 -12    1.50    1.00
  -1   1 -12    1.40    0.90
   1  -1  12    0.90    0.90
   1  -1  12    0.30    1.00
   1  -1  12    0.00    1.00
  -2   1 -12    2.10    1.00
  -2   1 -12    3.90    1.30
  -2   1 -12    2.80    1.30
   2  -1  12    3.80    1.60
   2  -1  12    2.80    1.30
  -3   1 -12    4.00    1.50
  -3   1 -12    5.70    1.70
   3  -1  12    1.70    1.40
   3  -1  12    2.70    1.70
  -4   1 -12    1.10    1.40
  -4   1 -12    0.90    1.50
   4  -1  12    0.90    1.70
   4  -1  12    0.60    1.50
   7   0 -12    9.40    2.20
   7   0 -12    7.70    2.00
   7   0 -12    6.90    2.50
  -7   0  12    7.90    2.40
  -7   0  12   11.00    2.60
  -7   0  12    6.60    1.90
   6   0 -12    8.40    2.60
   6   0 -12   10.10    2.00
   6   0 -12   13.40    2.50
  -6   0  12    6.00    2.00
  -6   0  12    9.30    2.00
  -6   0  12   10.00    2.40
   5   0 -12    2.80    1.30
   5   0 -12    5.10    1.40
   5   0 -12    5.70    2.10
   5   0 -12    5.40    1.70
  -5   0  12    3.20    1.50
  -5   0  12    1.80    1.10
  -5   0  12    3.40    1.40
  -5   0  12    4.40    1.90
   4   0 -12    2.30    1.00
   4   0 -12    5.10    1.60
   4   0 -12    3.10    1.10
   4   0 -12    5.30    1.60
   4   0 -12    3.10    1.00
  -4   0  12    4.70    1.50
  -4   0  12    2.40    1.10
  -4   0  12    3.30    1.50
  -4   0  12    4.50    1.50
  -4   0  12    3.20    1.30
   3   0 -12   -1.20    0.90
   3   0 -12   -0.70    0.70
   3   0 -12    0.90    0.70
   3   0 -12   -0.70    0.50
   3   0 -12   -0.20    1.20
  -3   0  12    0.10    1.00
  -3   0  12    1.00    1.10
  -3   0  12   -0.70    0.80
  -3   0  12   -0.50    1.00
  -3   0  12    0.80    0.70
   2   0 -12    1.30    0.90
   2   0 -12   -0.30    0.80
   2   0 -12   -0.10    0.70
   2   0 -12    1.50    0.90
   2   0 -12   -0.80    1.10
  -2   0  12    0.50    0.80
  -2   0  12    1.30    0.90
  -2   0  12   -0.50    0.90
   1   0 -12    1.20    0.80
   1   0 -12    1.00    0.70
   1   0 -12    0.40    0.80
   1   0 -12    0.80    0.90
  -1   0  12    0.00    1.00
  -1   0  12    0.80    0.80
  -1   0  12    1.40    1.10
   0   0 -12    6.60    1.30
   0   0 -12    6.20    1.30
   0   0 -12    6.20    1.40
   0   0  12    9.60    1.90
   0   0  12    5.20    1.50
   0   0  12    8.80    1.70
   0   0  12    8.80    1.90
  -1   0 -12   -0.10    0.80
  -1   0 -12    0.50    1.00
  -1   0 -12   -0.40    0.90
   1   0  12    0.00    0.80
   1   0  12    0.70    1.10
   1   0  12    0.30    1.10
   1   0  12    0.00    1.10
  -2   0 -12   12.20    2.00
  -2   0 -12    7.60    1.70
   2   0  12    6.60    1.70
   2   0  12   13.20    2.20
   2   0  12   10.70    1.90
  -3   0 -12   -0.80    0.80
  -3   0 -12   -1.30    1.10
   3   0  12    0.80    1.40
   3   0  12   -0.70    1.40
   6  -1 -12    7.40    2.00
   6  -1 -12    2.90    1.20
   6  -1 -12    1.10    2.10
   6  -1 -12    4.60    1.60
  -6   1  12    2.50    1.60
  -6   1  12    3.40    1.60
  -6   1  12    1.70    1.70
   5  -1 -12    1.50    0.80
   5  -1 -12    0.60    1.00
   5  -1 -12    2.60    2.00
   5  -1 -12    4.40    1.20
   5  -1 -12    5.70    1.70
  -5   1  12    1.60    1.30
  -5   1  12    1.00    1.40
  -5   1  12    1.40    1.50
   4  -1 -12    3.50    1.00
   4  -1 -12    2.70    1.40
   4  -1 -12    2.30    1.80
   4  -1 -12    1.20    0.90
   4  -1 -12    4.50    1.30
  -4   1  12    2.50    1.30
  -4   1  12    1.10    1.30
  -4   1  12    2.40    1.40
  -4   1  12    1.50    1.20
  -4   1  12    2.10    1.50
   3  -1 -12   -1.00    0.70
   3  -1 -12   -0.10    0.70
   3  -1 -12   -1.30    1.40
   3  -1 -12   -0.30    0.70
   3  -1 -12   -0.20    1.00
  -3   1  12    0.10    1.10
  -3   1  12    0.10    1.00
  -3   1  12    1.30    1.10
  -3   1  12   -0.10    0.90
  -3   1  12    0.40    1.10
   2  -1 -12   39.30    2.80
   2  -1 -12   37.70    2.90
   2  -1 -12   47.90    3.10
   2  -1 -12   41.40    3.10
  -2   1  12   48.10    3.50
  -2   1  12   46.40    3.70
  -2   1  12   52.19    3.80
   1  -1 -12    0.30    0.90
   1  -1 -12    0.10    0.70
   1  -1 -12    2.00    1.10
  -1   1  12   -0.30    0.80
  -1   1  12   -0.10    1.00
  -1   1  12    0.30    0.90
   0  -1 -12    6.80    1.40
   0  -1 -12    8.60    1.60
   0  -1 -12    5.30    1.20
   0   1  12    7.60    1.80
   0   1  12    4.50    1.50
   0   1  12    5.00    1.50
  -1  -1 -12    0.10    1.00
  -1  -1 -12   -0.10    0.90
  -1  -1 -12   -2.10    1.10
   1   1  12    0.40    1.10
   1   1  12    1.90    1.20
   1   1  12    0.50    1.20
   1   1  12    0.20    1.20
  -2  -1 -12    4.30    1.50
  -2  -1 -12    4.80    1.60
   2   1  12    6.90    1.70
   2   1  12    2.00    1.30
   2   1  12    4.40    1.70
  -3  -1 -12   -0.20    1.30
  -3  -1 -12    1.60    1.20
   3   1  12    0.40    1.50
   3   1  12   -0.40    1.50
   6  -2 -12   -0.10    1.00
   6  -2 -12    0.10    2.10
   6  -2 -12    0.90    1.60
   6  -2 -12    0.80    1.00
  -6   2  12    3.00    1.80
  -6   2  12    0.20    1.20
  -6   2  12    1.60    1.50
   5  -2 -12    2.00    1.40
   5  -2 -12   -0.50    0.90
   5  -2 -12    0.80    1.10
   5  -2 -12   -1.30    1.80
  -5   2  12    1.10    1.40
  -5   2  12   -1.10    1.30
  -5   2  12   -0.80    1.10
   4  -2 -12    5.80    2.30
   4  -2 -12    5.40    1.30
   4  -2 -12    5.40    1.30
   4  -2 -12    6.50    1.70
   4  -2 -12    5.70    1.50
  -4   2  12    6.60    1.70
  -4   2  12    8.60    1.80
  -4   2  12    6.90    1.70
  -4   2  12    5.60    1.80
   3  -2 -12    4.10    1.90
   3  -2 -12    0.90    0.90
   3  -2 -12    2.50    1.30
   3  -2 -12    2.10    1.00
   3  -2 -12    4.10    1.30
  -3   2  12    1.50    1.20
  -3   2  12    0.40    1.20
  -3   2  12    3.40    1.30
  -3   2  12    1.50    1.60
  -3   2  12    4.10    1.50
   2  -2 -12    0.90    0.90
   2  -2 -12   -0.60    1.10
   2  -2 -12    0.00    0.90
   2  -2 -12   -1.20    0.70
  -2   2  12   -0.20    0.70
  -2   2  12    1.50    1.30
  -2   2  12   -0.20    1.10
   1  -2 -12    1.10    1.00
   1  -2 -12    1.60    0.90
   1  -2 -12    1.00    1.00
  -1   2  12    3.90    1.30
  -1   2  12    2.30    1.40
  -1   2  12    1.70    1.10
   0  -2 -12    1.20    0.90
   0  -2 -12    1.00    1.00
   0   2  12    0.80    1.00
   0   2  12    0.60    1.10
   0   2  12   -0.50    0.70
  -1  -2 -12    2.10    1.30
  -1  -2 -12    2.20    1.20
   1   2  12    2.40    1.40
   1   2  12    3.30    1.80
   1   2  12    1.10    1.30
  -2  -2 -12   -1.30    0.70
  -2  -2 -12    1.60    1.10
   2   2  12    0.30    1.20
   2   2  12    0.70    1.40
   2   2  12    1.70    1.30
  -3  -2 -12    1.50    1.40
  -3  -2 -12    1.50    1.60
   3   2  12   -0.90    1.60
   3   2  12    2.80    2.00
   5  -3 -12   -0.20    1.00
   5  -3 -12    0.70    1.30
   5  -3 -12   -0.20    1.40
  -5   3  12   -0.90    1.20
  -5   3  12   -0.50    1.10
  -5   3  12   -2.40    1.30
   4  -3 -12    5.20    1.30
   4  -3 -12    6.00    1.60
   4  -3 -12    6.00    1.70
  -4   3  12    8.00    1.90
  -4   3  12    4.30    1.70
  -4   3  12    8.70    2.00
   3  -3 -12    1.20    1.00
   3  -3 -12    2.10    1.20
   3  -3 -12    1.10    1.10
  -3   3  12    4.10    1.70
  -3   3  12    0.60    1.10
   2  -3 -12    3.50    1.20
   2  -3 -12    5.60    1.30
  -2   3  12    4.50    1.50
  -2   3  12    5.40    1.70
   1  -3 -12    6.10    1.40
   1  -3 -12    7.50    1.50
  -1   3  12    5.40    1.60
  -1   3  12    7.50    1.70
   0  -3 -12    2.70    1.20
   0  -3 -12    2.60    1.20
   0   3  12    3.30    1.50
   0   3  12    2.30    1.50
  -1  -3 -12    1.30    1.10
  -1  -3 -12   -1.70    1.00
   1   3  12    3.90    1.80
   1   3  12    1.60    1.30
  -2  -3 -12   -1.00    1.10
  -2  -3 -12   -0.70    1.10
   2   3  12    3.90    1.90
   2   3  12    2.10    1.40
   5  -4 -12   -1.40    0.90
  -5   4  12    0.30    1.30
   4  -4 -12    2.90    1.20
   4  -4 -12    4.20    1.40
   4  -4 -12    3.30    1.50
  -4   4  12    2.20    1.60
  -4   4  12    1.50    1.50
  -4   4  12    3.70    1.70
   3  -4 -12    1.20    1.10
   3  -4 -12   -0.90    1.00
  -3   4  12    1.40    1.10
   2  -4 -12    2.10    1.10
   2  -4 -12    0.70    1.00
  -2   4  12    2.20    1.30
  -2   4  12    2.30    1.40
   1  -4 -12    5.10    1.40
   1  -4 -12    0.30    1.00
  -1   4  12    0.60    1.20
  -1   4  12    3.10    1.50
   0  -4 -12    1.90    1.20
   0  -4 -12    1.20    1.10
   0   4  12    0.10    1.30
   0   4  12   -0.50    1.20
  -1  -4 -12   10.40    2.10
  -1  -4 -12   10.50    2.10
   1   4  12   11.60    2.50
   1   4  12    8.40    2.10
   3  -5 -12   -0.10    1.10
   3  -5 -12    3.80    1.40
  -3   5  12   -0.20    1.30
   2  -5 -12   13.20    2.00
   2  -5 -12   12.20    2.10
  -2   5  12    9.70    2.20
   1  -5 -12    6.80    1.70
   1  -5 -12    9.90    1.90
  -1   5  12    7.60    2.10
  -1   5  12    7.70    1.90
   2   9 -13    0.80    1.60
   2   9 -13    2.00    1.60
  -2  -9  13    0.40    1.20
  -2  -9  13    3.50    1.90
   1   9 -13    0.30    1.50
   1   9 -13    1.40    1.60
  -1  -9  13   -1.20    1.40
  -1  -9  13    1.60    1.10
   0   9 -13    5.50    2.10
   0   9 -13    6.60    1.90
   3   8 -13    3.70    1.90
   3   8 -13    2.90    1.50
  -3  -8  13    7.20    1.80
  -3  -8  13    1.50    1.60
  -3  -8  13    2.30    1.30
   2   8 -13    0.30    1.30
   2   8 -13    0.20    1.40
   2   8 -13    1.20    1.40
  -2  -8  13   -0.70    1.20
  -2  -8  13    1.10    1.30
   1   8 -13    2.40    1.40
   1   8 -13    4.20    1.60
   1   8 -13    0.20    1.30
  -1  -8  13    1.00    1.20
  -1  -8  13    1.00    1.50
   0   8 -13    0.50    1.60
   0   8 -13   -0.70    1.20
   0  -8  13    1.50    1.30
   0  -8  13   -0.50    1.30
   0  -8  13    0.80    1.80
  -1   8 -13   -0.20    1.00
  -1   8 -13    0.70    1.50
   1  -8  13    1.10    1.30
   1  -8  13    2.50    1.50
   1  -8  13   -0.20    1.30
   4   7 -13    2.80    1.60
   4   7 -13    5.70    2.10
  -4  -7  13    2.70    1.30
  -4  -7  13    4.80    1.80
  -4  -7  13    3.20    1.40
   3   7 -13    4.90    1.80
   3   7 -13    0.80    1.30
   3   7 -13    0.40    1.20
  -3  -7  13   -0.60    1.20
  -3  -7  13    1.00    1.00
  -3  -7  13    1.90    1.30
   2   7 -13   -0.90    1.00
   2   7 -13   -0.80    1.10
   2   7 -13    0.30    1.30
  -2  -7  13    0.60    1.40
  -2  -7  13   -0.20    1.20
  -2  -7  13   -0.10    0.80
   1   7 -13    7.80    2.00
   1   7 -13    9.00    1.90
   1   7 -13    6.40    1.80
  -1  -7  13    9.10    2.00
  -1  -7  13   10.70    2.10
   0   7 -13    1.30    1.30
   0   7 -13    2.30    1.40
   0  -7  13    3.00    1.50
   0  -7  13    4.90    1.60
  -1   7 -13    5.60    1.80
  -1   7 -13    8.80    2.10
   1  -7  13   13.50    2.20
   1  -7  13    8.20    2.00
   1  -7  13    6.90    1.90
  -2   7 -13    2.30    1.60
  -2   7 -13    3.40    1.70
   2  -7  13    1.60    1.50
   2  -7  13    3.90    1.60
   2  -7  13    5.20    1.70
   5   6 -13    3.30    1.60
   5   6 -13    5.60    1.80
  -5  -6  13    6.60    1.80
  -5  -6  13    4.70    1.60
  -5  -6  13    6.00    1.60
  -5  -6  13    2.80    1.80
   4   6 -13    0.50    1.50
   4   6 -13    1.20    1.00
   4   6 -13    1.90    1.20
  -4  -6  13    0.60    1.30
  -4  -6  13   -1.30    1.20
  -4  -6  13   -0.50    1.20
  -4  -6  13    2.40    1.30
   3   6 -13   22.00    2.80
   3   6 -13   24.40    3.10
   3   6 -13   25.40    2.70
  -3  -6  13   30.10    3.30
  -3  -6  13   27.10    3.30
  -3  -6  13   21.70    2.90
  -3  -6  13   26.50    3.00
   2   6 -13    1.50    1.30
   2   6 -13    0.90    1.20
   2   6 -13    0.60    1.10
   2   6 -13    2.80    1.50
  -2  -6  13    2.70    1.40
  -2  -6  13    1.20    1.10
  -2  -6  13    1.00    1.10
  -2  -6  13    3.00    1.40
   1   6 -13    5.10    1.60
   1   6 -13    5.00    1.50
   1   6 -13    4.90    1.50
  -1  -6  13    8.90    1.90
  -1  -6  13    6.60    1.70
   0   6 -13    3.50    1.40
   0   6 -13    4.00    1.30
   0  -6  13    4.70    1.60
   0  -6  13    2.20    1.30
  -1   6 -13   -0.20    1.20
  -1   6 -13    1.60    1.40
   1  -6  13    1.70    1.20
   1  -6  13    1.30    1.40
  -2   6 -13    1.10    1.40
  -2   6 -13    4.40    1.70
   2  -6  13    0.80    1.30
   2  -6  13    2.00    1.40
   2  -6  13    4.20    1.50
   5   5 -13    3.60    1.50
   5   5 -13    5.80    1.90
   5   5 -13    6.40    1.60
  -5  -5  13    3.50    1.70
  -5  -5  13    7.90    2.00
  -5  -5  13    5.10    1.90
  -5  -5  13    6.30    1.70
   4   5 -13   -0.80    0.80
   4   5 -13    1.50    1.10
   4   5 -13    0.30    1.10
  -4  -5  13   -1.20    1.10
  -4  -5  13   -0.30    1.10
  -4  -5  13    1.30    1.10
  -4  -5  13   -1.00    0.80
   3   5 -13    0.50    1.00
   3   5 -13   -0.90    0.90
   3   5 -13    0.30    1.30
  -3  -5  13   -1.20    0.90
  -3  -5  13   -0.30    0.80
  -3  -5  13    0.10    1.20
  -3  -5  13    0.30    1.10
  -3  -5  13   -1.30    0.90
   2   5 -13    0.10    0.80
   2   5 -13   -0.90    1.00
   2   5 -13   -0.40    0.70
  -2  -5  13    0.20    1.00
  -2  -5  13    0.00    1.10
  -2  -5  13   -1.10    0.90
  -2  -5  13   -0.80    0.80
   1   5 -13   -0.60    0.90
   1   5 -13    0.20    1.10
   1   5 -13    2.20    1.20
  -1  -5  13    1.50    1.10
  -1  -5  13   -1.00    0.70
  -1  -5  13    0.60    0.90
   0   5 -13   -0.30    1.00
   0   5 -13   -0.70    1.00
   0  -5  13   -0.40    1.00
   0  -5  13    0.70    1.00
  -1   5 -13    1.80    1.30
  -1   5 -13    1.60    1.30
   1  -5  13    0.10    1.20
   1  -5  13    1.10    1.20
  -2   5 -13    7.40    1.90
  -2   5 -13    4.60    1.50
   2  -5  13    7.40    1.90
   2  -5  13    7.00    1.90
  -3   5 -13    0.20    1.10
  -3   5 -13    0.70    1.50
   3  -5  13    0.40    1.60
   3  -5  13    3.00    1.60
   3  -5  13    4.20    1.50
   6   4 -13    1.30    1.80
   6   4 -13    2.10    1.30
   6   4 -13    2.80    1.40
  -6  -4  13    1.10    1.20
  -6  -4  13    0.90    1.10
  -6  -4  13    0.80    1.60
   5   4 -13   -0.90    1.00
   5   4 -13   -0.40    1.60
   5   4 -13    1.50    1.30
  -5  -4  13   -0.90    1.10
  -5  -4  13   -2.40    1.20
  -5  -4  13    0.70    1.10
   4   4 -13   10.40    2.00
   4   4 -13    9.70    1.80
   4   4 -13    9.40    1.70
  -4  -4  13   10.30    2.00
  -4  -4  13    7.10    1.70
  -4  -4  13    7.10    1.90
  -4  -4  13    8.00    1.80
   3   4 -13    0.90    0.90
   3   4 -13    2.60    1.40
   3   4 -13    0.20    1.00
  -3  -4  13   -0.30    0.60
  -3  -4  13    0.30    1.00
  -3  -4  13    0.90    1.20
  -3  -4  13   -0.90    0.90
  -3  -4  13    1.30    1.20
   2   4 -13   -0.50    0.90
   2   4 -13    1.00    1.10
   2   4 -13   -1.20    0.90
  -2  -4  13   -0.60    0.90
  -2  -4  13    2.00    1.10
  -2  -4  13    1.10    1.30
  -2  -4  13   -0.30    1.00
  -2  -4  13   -0.10    0.90
   1   4 -13    0.10    0.90
   1   4 -13   -0.60    0.70
  -1  -4  13    0.30    0.80
  -1  -4  13   -0.30    1.10
  -1  -4  13   -1.20    1.00
  -1  -4  13   -0.10    0.80
   0   4 -13    5.00    1.50
   0   4 -13    6.20    1.50
   0  -4  13    7.00    1.70
   0  -4  13    6.40    1.70
  -1   4 -13    6.20    1.70
  -1   4 -13    7.20    1.70
   1  -4  13    6.50    1.70
   1  -4  13    6.60    1.70
  -2   4 -13    0.90    1.40
  -2   4 -13    0.60    1.50
  -2   4 -13    2.70    1.30
   2  -4  13    2.00    1.30
   2  -4  13    3.40    1.60
  -3   4 -13   -0.40    1.20
  -3   4 -13    0.40    1.20
   3  -4  13    2.10    1.50
   3  -4  13   -0.10    1.40
   6   3 -13    4.90    2.20
   6   3 -13    7.10    1.80
   6   3 -13    5.20    1.80
  -6  -3  13    5.30    1.70
  -6  -3  13    3.50    1.80
  -6  -3  13    6.80    1.80
   5   3 -13    0.50    1.70
   5   3 -13    0.30    1.00
   5   3 -13    1.30    1.50
  -5  -3  13   -1.40    1.10
  -5  -3  13   -0.10    1.10
  -5  -3  13    0.00    0.80
   4   3 -13   -0.50    1.40
   4   3 -13    3.10    1.40
   4   3 -13    2.80    1.20
  -4  -3  13    4.20    1.50
  -4  -3  13    3.30    1.40
  -4  -3  13    0.20    1.00
   3   3 -13    4.20    1.40
   3   3 -13    2.30    1.30
   3   3 -13    1.00    1.40
  -3  -3  13    0.90    1.20
  -3  -3  13    1.80    1.30
  -3  -3  13    1.60    1.30
  -3  -3  13    7.50    1.80
  -3  -3  13    3.20    1.30
   2   3 -13   -0.70    0.70
   2   3 -13   -0.20    1.00
   2   3 -13   -0.10    0.90
  -2  -3  13    0.80    1.20
  -2  -3  13    0.00    0.90
  -2  -3  13    0.00    1.10
  -2  -3  13   -1.10    0.90
  -2  -3  13   -0.10    0.90
   1   3 -13   -0.20    1.00
   1   3 -13   -0.10    0.70
  -1  -3  13   -0.10    0.90
  -1  -3  13    0.50    0.90
  -1  -3  13    1.00    1.00
  -1  -3  13    1.10    1.10
   0   3 -13    3.20    1.10
   0   3 -13    1.60    1.10
   0   3 -13    2.10    1.20
   0  -3  13    3.90    1.40
   0  -3  13    1.70    1.20
   0  -3  13    2.70    1.40
  -1   3 -13    2.70    1.10
  -1   3 -13    1.40    1.10
  -1   3 -13    3.90    1.50
  -1   3 -13    3.80    1.30
   1  -3  13    3.70    1.40
   1  -3  13    2.40    1.20
  -2   3 -13    4.50    1.60
  -2   3 -13    3.90    1.40
   2  -3  13    3.70    1.50
   2  -3  13    4.60    1.60
  -3   3 -13    1.00    1.10
  -3   3 -13    1.20    1.20
   3  -3  13    0.00    1.40
   3  -3  13   -1.20    1.30
   6   2 -13    0.90    1.30
   6   2 -13    1.50    1.50
   6   2 -13    2.30    1.50
  -6  -2  13    2.60    1.50
  -6  -2  13    2.50    1.70
  -6  -2  13    1.90    1.70
  -6  -2  13   -0.80    1.20
   5   2 -13    2.20    1.80
   5   2 -13    1.60    1.20
   5   2 -13   -0.40    0.80
  -5  -2  13    0.50    1.20
  -5  -2  13    0.60    1.20
  -5  -2  13    2.60    1.50
   4   2 -13    0.60    0.90
   4   2 -13    2.20    1.50
   4   2 -13    1.10    1.10
  -4  -2  13    0.30    0.90
  -4  -2  13    0.50    0.80
  -4  -2  13   -0.90    1.10
   3   2 -13   25.20    3.00
   3   2 -13   26.20    2.70
   3   2 -13   30.50    2.80
  -3  -2  13   26.50    3.20
  -3  -2  13   25.50    3.00
  -3  -2  13   24.40    2.80
  -3  -2  13   18.40    2.70
   2   2 -13    0.40    1.20
   2   2 -13    1.20    1.10
   2   2 -13    0.50    0.90
  -2  -2  13    1.10    1.10
  -2  -2  13    1.90    1.00
  -2  -2  13    1.40    1.20
  -2  -2  13    0.30    0.90
   1   2 -13    1.60    1.10
   1   2 -13    1.10    0.90
   1   2 -13    0.70    0.90
   1   2 -13    2.50    1.10
  -1  -2  13    1.50    1.20
  -1  -2  13    0.20    1.20
  -1  -2  13    3.00    1.20
  -1  -2  13    1.30    1.20
   0   2 -13    4.60    1.20
   0   2 -13    6.60    1.60
   0   2 -13    3.70    1.20
   0   2 -13    5.60    1.60
   0  -2  13    6.40    1.70
   0  -2  13    6.70    1.60
   0  -2  13    7.00    1.70
  -1   2 -13    3.00    1.20
  -1   2 -13    6.60    1.60
  -1   2 -13    5.40    1.30
   1  -2  13    5.10    1.60
   1  -2  13    3.70    1.50
   1  -2  13    6.00    2.10
  -2   2 -13   -2.00    0.90
  -2   2 -13    1.30    1.30
   2  -2  13   -1.10    1.10
   2  -2  13    0.50    1.20
  -3   2 -13    1.90    1.60
  -3   2 -13    2.30    1.30
   3  -2  13    0.70    1.50
   3  -2  13    0.40    1.30
   6   1 -13    0.70    1.20
   6   1 -13   -1.80    1.90
   6   1 -13   -2.80    1.30
  -6  -1  13    0.70    1.70
  -6  -1  13    0.10    1.20
  -6  -1  13    1.40    1.60
  -6  -1  13   -0.60    1.10
   5   1 -13    9.80    2.10
   5   1 -13    9.10    2.20
   5   1 -13   10.50    2.00
  -5  -1  13    9.40    2.00
  -5  -1  13   12.70    2.30
  -5  -1  13   13.20    2.40
  -5  -1  13   16.70    2.70
   4   1 -13    1.20    1.20
   4   1 -13    0.70    1.00
   4   1 -13    2.20    1.30
  -4  -1  13    2.00    1.40
  -4  -1  13    1.80    1.30
  -4  -1  13    1.20    1.10
   3   1 -13    1.50    1.10
   3   1 -13    3.40    1.10
   3   1 -13    1.10    1.40
   3   1 -13    0.70    1.10
  -3  -1  13    0.40    1.20
  -3  -1  13    0.40    1.30
  -3  -1  13    1.10    1.20
  -3  -1  13   -0.40    1.00
   2   1 -13    0.80    1.10
   2   1 -13    0.50    0.80
   2   1 -13    0.00    1.00
   2   1 -13    0.10    0.80
  -2  -1  13    1.60    1.20
  -2  -1  13    3.00    1.20
  -2  -1  13    0.70    1.00
   1   1 -13    7.30    1.40
   1   1 -13    8.10    1.60
   1   1 -13   10.40    1.70
   1   1 -13    5.90    1.30
  -1  -1  13   10.80    2.10
  -1  -1  13    7.80    1.80
  -1  -1  13    9.00    1.90
   0   1 -13   -0.80    0.90
   0   1 -13    0.40    0.90
   0   1 -13    1.70    1.00
   0  -1  13    1.20    1.20
   0  -1  13    0.40    1.00
   0  -1  13   -0.70    1.10
   0  -1  13   -0.30    1.00
  -1   1 -13    1.40    1.10
  -1   1 -13    0.00    1.10
   1  -1  13   -1.10    1.00
   1  -1  13    0.40    1.30
   1  -1  13    1.50    1.20
  -2   1 -13   -0.50    1.20
  -2   1 -13    0.60    1.20
   2  -1  13    0.60    1.30
   2  -1  13   -0.30    1.20
  -3   1 -13    1.40    1.40
  -3   1 -13    2.00    1.60
   3  -1  13    2.70    1.70
   3  -1  13   -0.20    0.90
   6   0 -13    3.70    2.20
   6   0 -13    7.00    2.10
   6   0 -13    3.80    1.60
  -6   0  13    2.60    1.90
  -6   0  13    3.20    1.70
  -6   0  13    2.70    1.80
   5   0 -13    0.80    1.20
   5   0 -13   -0.50    1.60
   5   0 -13    1.70    1.40
  -5   0  13   -0.20    1.10
  -5   0  13   -0.30    1.30
  -5   0  13    1.70    1.20
  -5   0  13    0.00    1.40
   4   0 -13    4.20    2.00
   4   0 -13    5.00    1.30
   4   0 -13    8.40    1.90
   4   0 -13    2.20    1.20
  -4   0  13    4.70    1.70
  -4   0  13    8.30    2.00
  -4   0  13    4.00    1.50
  -4   0  13    9.60    2.10
   3   0 -13    0.70    0.90
   3   0 -13   -1.10    0.80
   3   0 -13    0.30    1.40
   3   0 -13    0.00    0.80
   3   0 -13   -1.50    0.80
  -3   0  13   -0.90    1.00
  -3   0  13    1.40    1.30
  -3   0  13    2.60    1.30
   2   0 -13    0.10    0.90
   2   0 -13   -1.90    0.90
   2   0 -13    0.40    0.80
   2   0 -13    0.70    0.80
  -2   0  13    0.30    1.10
  -2   0  13    0.90    1.20
  -2   0  13   -1.10    1.10
   1   0 -13   -0.80    0.70
   1   0 -13   -0.30    0.80
   1   0 -13    0.20    0.80
  -1   0  13    0.30    0.90
  -1   0  13    0.60    1.20
  -1   0  13    0.80    1.10
   0   0 -13   15.80    2.10
   0   0 -13   16.70    2.20
   0   0 -13   12.10    2.10
   0   0  13   11.20    2.10
   0   0  13    7.10    1.80
   0   0  13   15.70    2.50
  -1   0 -13   -0.30    1.00
  -1   0 -13   -0.40    1.00
   1   0  13    1.80    1.40
   1   0  13   -0.80    1.20
   1   0  13    1.60    1.20
  -2   0 -13    0.90    1.20
  -2   0 -13    0.30    1.20
   2   0  13    2.30    1.10
   2   0  13   -0.50    1.20
   5  -1 -13    1.50    1.50
   5  -1 -13   -0.90    1.30
   5  -1 -13    1.10    0.90
   5  -1 -13    1.10    1.10
  -5   1  13   -0.60    1.30
  -5   1  13    0.70    1.60
  -5   1  13   -1.90    1.30
   4  -1 -13   -1.50    1.10
   4  -1 -13    0.60    1.00
   4  -1 -13   -1.60    1.60
   4  -1 -13   -0.50    0.80
  -4   1  13   -0.80    1.20
  -4   1  13    1.40    1.60
  -4   1  13   -0.70    1.20
  -4   1  13   -0.70    1.10
   3  -1 -13    6.20    1.50
   3  -1 -13    5.00    1.40
   3  -1 -13    4.00    1.30
   3  -1 -13    1.70    1.70
  -3   1  13    2.90    1.50
  -3   1  13    5.60    1.70
  -3   1  13    7.00    1.80
   2  -1 -13    1.70    1.00
   2  -1 -13    0.50    1.00
   2  -1 -13    0.30    1.00
  -2   1  13    0.50    1.10
  -2   1  13    0.30    1.20
   1  -1 -13    2.10    1.30
   1  -1 -13    5.70    1.30
  -1   1  13    5.20    1.50
  -1   1  13    6.70    2.00
   0  -1 -13    1.90    1.00
   0  -1 -13   -0.40    0.70
   0   1  13   -0.20    1.10
   0   1  13   -0.80    1.20
  -1  -1 -13   -0.80    1.00
  -1  -1 -13    0.50    1.20
   1   1  13    2.30    1.40
   1   1  13    1.50    1.10
  -2  -1 -13    2.40    1.40
  -2  -1 -13    3.20    1.60
   2   1  13   -0.30    1.40
   2   1  13    1.00    1.50
   2   1  13    5.30    1.60
   5  -2 -13    2.90    2.20
   5  -2 -13    3.40    1.60
   5  -2 -13    2.50    1.40
   5  -2 -13    4.60    1.40
  -5   2  13    0.90    1.80
  -5   2  13    2.10    1.60
  -5   2  13    3.80    1.80
   4  -2 -13    2.80    1.90
   4  -2 -13    4.20    1.60
   4  -2 -13    2.50    1.20
   4  -2 -13    3.50    1.20
  -4   2  13    2.10    1.60
  -4   2  13    1.70    1.50
  -4   2  13    1.20    1.50
   3  -2 -13   -0.60    1.00
   3  -2 -13    1.40    1.30
   3  -2 -13    1.00    1.00
  -3   2  13    0.90    1.30
  -3   2  13   -0.10    1.00
  -3   2  13    0.10    1.30
   2  -2 -13    2.90    1.30
   2  -2 -13    5.70    1.40
  -2   2  13    4.30    1.70
  -2   2  13    4.20    1.50
   1  -2 -13    1.20    1.10
   1  -2 -13    2.10    1.30
  -1   2  13    2.30    1.50
  -1   2  13    1.90    1.20
   0  -2 -13    4.90    1.50
   0  -2 -13    3.30    1.30
   0   2  13    4.10    1.60
   0   2  13    3.50    1.60
  -1  -2 -13   -0.10    1.20
  -1  -2 -13    1.70    1.20
   1   2  13    1.40    1.60
   1   2  13    1.90    1.40
   4  -3 -13   -1.00    0.90
   4  -3 -13   -2.90    1.90
   4  -3 -13   -0.40    1.10
   4  -3 -13   -0.30    1.40
  -4   3  13   -0.10    1.50
  -4   3  13    0.90    1.60
  -4   3  13   -0.30    1.40
   3  -3 -13    1.10    1.20
   3  -3 -13   -0.30    1.00
  -3   3  13    1.60    1.60
   2  -3 -13   11.00    1.90
   2  -3 -13   11.60    2.00
  -2   3  13   13.10    2.50
  -2   3  13   10.00    2.00
   1  -3 -13    1.70    1.20
   1  -3 -13   -0.90    1.00
  -1   3  13    1.20    1.50
  -1   3  13    1.00    1.40
   0  -3 -13    7.60    1.80
   0  -3 -13    3.90    1.50
   0   3  13    8.40    2.20
   0   3  13    2.20    1.60
   3   7 -14    1.80    1.60
   3   7 -14    3.70    1.70
   3   7 -14    2.30    1.70
  -3  -7  14    1.50    1.60
  -3  -7  14    3.10    1.50
  -3  -7  14    0.70    1.00
   2   7 -14    1.40    1.60
   2   7 -14    0.20    1.20
   2   7 -14   -1.20    1.30
  -2  -7  14    1.60    1.40
  -2  -7  14    0.90    1.60
   1   7 -14   11.80    2.20
   1   7 -14   16.70    2.50
  -1  -7  14   14.70    2.50
  -1  -7  14   16.20    2.50
   0   7 -14    0.70    1.10
   0   7 -14    0.90    1.10
   0  -7  14    1.90    1.60
   0  -7  14    4.10    1.50
   4   6 -14   -1.60    1.40
   4   6 -14    0.60    1.20
   4   6 -14    1.10    1.80
  -4  -6  14    0.20    1.60
  -4  -6  14   -0.20    1.60
  -4  -6  14    2.90    1.50
   3   6 -14   -0.70    1.50
   3   6 -14    1.50    1.20
   3   6 -14   -1.40    1.10
  -3  -6  14   -2.30    1.20
  -3  -6  14   -0.10    1.10
  -3  -6  14    0.50    1.30
   2   6 -14    2.20    1.40
   2   6 -14    3.20    1.40
   2   6 -14    5.50    1.70
  -2  -6  14    3.40    1.50
  -2  -6  14    3.30    1.40
  -2  -6  14    4.80    1.80
   1   6 -14    4.50    1.80
   1   6 -14    8.30    1.90
  -1  -6  14    4.00    1.60
  -1  -6  14    5.70    1.80
   0   6 -14    2.40    1.50
   0   6 -14    0.90    1.40
   0  -6  14    1.30    1.20
   0  -6  14   -2.70    1.20
  -1   6 -14   -1.60    1.30
  -1   6 -14   -0.70    1.30
   1  -6  14   -0.80    1.30
   1  -6  14    0.70    1.30
   4   5 -14    2.40    1.60
   4   5 -14    0.40    1.20
   4   5 -14    2.30    1.40
  -4  -5  14    3.40    1.30
  -4  -5  14    2.90    1.60
  -4  -5  14    0.10    1.50
  -4  -5  14    2.00    1.30
   3   5 -14    2.30    1.10
   3   5 -14    4.20    1.70
   3   5 -14   -0.10    1.40
  -3  -5  14    1.60    1.50
  -3  -5  14    0.80    1.40
  -3  -5  14    3.00    1.80
  -3  -5  14    0.40    1.20
   2   5 -14    0.80    1.40
   2   5 -14    0.10    1.30
   2   5 -14    4.20    1.40
  -2  -5  14    1.80    1.40
  -2  -5  14    5.10    1.50
  -2  -5  14    3.00    2.10
  -2  -5  14    4.10    1.50
   1   5 -14   -0.50    1.20
   1   5 -14   -0.40    1.20
  -1  -5  14   -0.20    1.10
  -1  -5  14    1.20    1.40
  -1  -5  14    1.80    1.50
   0   5 -14    3.90    1.60
   0   5 -14    0.70    1.30
   0  -5  14    3.20    1.50
   0  -5  14    0.00    1.00
  -1   5 -14    4.10    1.50
  -1   5 -14    6.60    1.80
   1  -5  14    5.30    1.60
   1  -5  14    8.60    2.10
   5   4 -14   -2.00    1.10
   5   4 -14    1.50    1.20
   5   4 -14   -1.30    1.70
  -5  -4  14    0.20    1.20
  -5  -4  14    1.50    1.60
  -5  -4  14    0.90    1.50
   4   4 -14    0.50    1.70
   4   4 -14    2.80    1.40
   4   4 -14    3.60    1.40
  -4  -4  14    4.80    1.80
  -4  -4  14    2.50    1.50
  -4  -4  14    2.50    1.10
   3   4 -14    1.90    1.40
   3   4 -14    1.90    1.30
   3   4 -14    2.40    1.40
  -3  -4  14    3.50    1.50
  -3  -4  14    2.70    1.40
  -3  -4  14    2.30    1.50
  -3  -4  14    1.80    1.30
   2   4 -14    4.20    1.60
   2   4 -14    2.80    1.40
   2   4 -14    5.00    1.70
  -2  -4  14    5.60    2.00
  -2  -4  14    4.20    1.50
  -2  -4  14    6.40    1.60
  -2  -4  14    3.10    1.60
   1   4 -14    6.30    1.70
   1   4 -14    8.80    1.90
  -1  -4  14    6.70    2.00
  -1  -4  14    7.40    1.80
  -1  -4  14    6.70    2.00
   0   4 -14    5.80    1.70
   0   4 -14    6.10    1.80
   0  -4  14    6.60    1.70
   0  -4  14    7.40    1.90
  -1   4 -14   -1.10    1.20
  -1   4 -14    1.90    1.40
   1  -4  14   -1.00    1.30
   1  -4  14    0.60    1.30
   5   3 -14    2.70    1.60
   5   3 -14    2.10    1.40
   5   3 -14   -0.10    1.90
  -5  -3  14    2.00    1.60
  -5  -3  14    0.20    1.10
  -5  -3  14    1.70    1.40
   4   3 -14    1.90    1.50
   4   3 -14    3.30    1.50
   4   3 -14    2.70    1.40
  -4  -3  14    1.00    1.30
  -4  -3  14    4.10    1.60
  -4  -3  14    1.00    1.50
   3   3 -14    1.60    1.30
   3   3 -14    0.00    1.30
   3   3 -14    2.50    1.50
  -3  -3  14    1.80    1.40
  -3  -3  14    2.30    1.40
  -3  -3  14    3.20    1.50
   2   3 -14   17.40    2.40
   2   3 -14   14.30    2.10
  -2  -3  14   13.30    2.50
  -2  -3  14   19.10    2.80
  -2  -3  14   18.10    2.40
   1   3 -14   34.60    3.30
   1   3 -14   37.20    3.10
  -1  -3  14   32.10    3.60
  -1  -3  14   35.90    3.70
  -1  -3  14   39.90    3.20
   0   3 -14    5.60    1.70
   0   3 -14   13.10    2.10
   0  -3  14   10.80    2.30
   0  -3  14    6.60    1.90
   0  -3  14    8.30    1.90
  -1   3 -14    9.60    2.00
  -1   3 -14    5.90    1.50
   1  -3  14    7.50    2.00
   1  -3  14    9.30    2.00
  -2   3 -14    1.60    1.30
   2  -3  14    1.30    1.50
   5   2 -14   15.30    2.50
   5   2 -14   20.60    3.10
   5   2 -14   23.20    2.70
  -5  -2  14   16.60    2.70
  -5  -2  14   14.80    2.60
  -5  -2  14   11.70    2.40
   4   2 -14    6.70    1.60
   4   2 -14    5.20    1.80
   4   2 -14    5.60    2.00
  -4  -2  14    5.10    1.70
  -4  -2  14    6.20    1.80
  -4  -2  14    4.40    1.70
   3   2 -14   20.00    3.00
   3   2 -14   23.10    2.80
   3   2 -14   23.60    2.70
  -3  -2  14   22.90    3.20
  -3  -2  14   20.90    2.70
  -3  -2  14   21.30    2.90
   2   2 -14    7.10    1.70
   2   2 -14    8.70    1.80
  -2  -2  14    6.60    1.90
  -2  -2  14    7.80    2.00
   1   2 -14   -0.80    1.10
   1   2 -14    1.50    1.20
   1   2 -14    0.50    1.20
  -1  -2  14   -2.00    1.10
  -1  -2  14   -0.70    1.30
  -1  -2  14    2.30    1.50
  -1  -2  14    1.90    1.40
   0   2 -14    3.20    1.50
   0   2 -14    4.00    1.40
   0  -2  14    5.40    1.70
   0  -2  14    5.00    1.40
   0  -2  14    6.70    1.80
  -1   2 -14   -1.70    1.10
  -1   2 -14   -0.80    1.10
   1  -2  14    1.00    1.40
   1  -2  14    0.20    1.30
   5   1 -14    1.60    1.60
   5   1 -14   -0.10    0.90
   5   1 -14   -0.20    1.80
  -5  -1  14    0.50    1.40
  -5  -1  14    1.50    1.40
  -5  -1  14   -0.80    1.40
   4   1 -14    2.10    1.90
   4   1 -14    8.00    1.70
   4   1 -14    4.60    1.70
  -4  -1  14    5.70    1.90
  -4  -1  14    3.90    1.60
  -4  -1  14    4.00    1.60
   3   1 -14    0.20    1.10
   3   1 -14    1.70    1.50
   3   1 -14    0.70    1.20
  -3  -1  14    1.40    1.10
  -3  -1  14    1.00    1.30
   2   1 -14   13.40    2.10
   2   1 -14   12.80    1.90
   2   1 -14   11.30    1.90
  -2  -1  14   12.60    2.30
  -2  -1  14    9.60    2.10
   1   1 -14    3.50    1.50
   1   1 -14    2.40    1.30
   1   1 -14    2.30    1.20
  -1  -1  14    3.70    1.60
  -1  -1  14    2.50    1.50
   0   1 -14   -0.90    1.00
   0   1 -14   -0.60    1.10
   0  -1  14    0.80    1.50
   0  -1  14   -1.50    1.20
  -1   1 -14   -0.50    0.80
  -1   1 -14   -0.10    1.20
   1  -1  14    0.00    1.40
   1  -1  14    0.70    1.40
   1  -1  14   -0.50    1.40
   4   0 -14    1.50    1.00
   4   0 -14    0.80    1.90
   4   0 -14    3.70    1.60
  -4   0  14   -0.60    1.40
  -4   0  14    0.80    1.30
  -4   0  14    0.80    1.40
   3   0 -14    1.80    1.20
   3   0 -14    1.60    1.10
   3   0 -14    1.40    1.30
  -3   0  14    0.30    1.40
  -3   0  14    0.10    1.40
   2   0 -14   -0.50    1.00
   2   0 -14   -0.30    1.10
   2   0 -14    0.50    1.00
  -2   0  14   -0.20    1.20
  -2   0  14   -0.30    1.30
   1   0 -14    2.60    1.30
   1   0 -14    4.00    1.40
  -1   0  14    6.00    1.80
  -1   0  14    2.80    1.50
   0   0 -14    0.80    1.20
   0   0 -14    4.50    1.40
   0   0  14    0.70    1.40
   0   0  14    1.50    1.50
  -1   0 -14    3.40    1.50
   1   0  14    5.20    1.80
   1   0  14    4.60    1.60
   4  -1 -14   -0.10    1.20
   4  -1 -14   -0.40    0.90
   4  -1 -14    0.00    1.40
  -4   1  14   -0.20    1.40
  -4   1  14    0.20    1.60
   3  -1 -14    0.40    1.20
   3  -1 -14    0.10    1.10
   3  -1 -14    1.60    1.30
  -3   1  14    2.40    1.50
  -3   1  14    2.40    1.50
   2  -1 -14    0.00    1.10
   2  -1 -14    1.50    1.20
  -2   1  14   -0.30    0.90
  -2   1  14    0.00    1.40
   1  -1 -14    1.70    1.30
   1  -1 -14    1.80    1.30
  -1   1  14    1.30    1.40
  -1   1  14    0.00    1.10
   0  -1 -14    7.10    1.70
   0  -1 -14    7.30    1.80
   0   1  14    6.60    1.90
   0   1  14    6.70    2.10
   2   4 -15    0.90    1.20
   2   4 -15    0.30    1.40
  -2  -4  15    1.70    1.40
  -2  -4  15    0.30    1.50
  -2  -4  15    0.80    1.60
   1   4 -15    1.30    1.50
   1   4 -15    1.20    1.40
  -1  -4  15    4.70    1.90
  -1  -4  15    2.50    1.70
  -1  -4  15    0.60    1.40
   3   3 -15   12.70    2.10
  -3  -3  15    9.70    2.30
  -3  -3  15    8.70    2.00
   2   3 -15    0.90    1.60
   2   3 -15    4.70    1.50
  -2  -3  15    0.80    1.50
  -2  -3  15    1.40    1.60
   1   3 -15   17.70    2.50
   1   3 -15   21.90    2.80
  -1  -3  15   15.60    2.70
  -1  -3  15   23.40    2.90
  -1  -3  15   14.90    2.70
   2   2 -15    1.60    1.10
   2   2 -15   -0.10    1.30
  -2  -2  15    0.50    1.50
  -2  -2  15    1.30    1.70
   1   2 -15    1.00    1.40
  -1  -2  15    0.40    1.30
  -1  -2  15    0.20    1.50
   0   0   0    0.00    0.00

_computing_structure_solution     'SHELXT 2014/5 (Sheldrick, 2014)'
;
_shelx_hkl_checksum              18606
loop_
_space_group_symop_operation_xyz
'x, y, z'
'-x, -y, -z'
loop_
_atom_site_label
_atom_site_type_symbol
_atom_site_fract_x
_atom_site_fract_y
_atom_site_fract_z
_atom_site_U_iso_or_equiv
_atom_site_adp_type
_atom_site_occupancy
_atom_site_site_symmetry_order
_atom_site_calc_flag
_atom_site_refinement_flags_posn
_atom_site_refinement_flags_adp
F1 F 0.91769(15) 1.12348(10) 0.84271(10) 0.0784(4) Uani 1 1 d . .
O002 O 0.67387(17) 0.46436(11) 0.69168(10) 0.0619(3) Uani 1 1 d . .
N003 N 0.70581(15) 0.30191(11) 0.31636(10) 0.0404(3) Uani 1 1 d . .
N004 N 0.74921(16) 0.48480(12) 0.51011(11) 0.0442(3) Uani 1 1 d . .
N005 N 0.83466(16) 0.51896(12) 0.29829(11) 0.0481(3) Uani 1 1 d . .
N1 N 0.68688(19) 0.33953(14) 0.11925(11) 0.0578(4) Uani 1 1 d . .
C007 C 0.74330(18) 0.39112(14) 0.24108(12) 0.0412(3) Uani 1 1 d . .
C008 C 0.78353(17) 0.69510(14) 0.68115(12) 0.0401(3) Uani 1 1 d . .
C009 C 0.71660(18) 0.34183(14) 0.44681(12) 0.0403(3) Uani 1 1 d . .
C00A C 0.66542(18) 0.15177(14) 0.27746(12) 0.0406(3) Uani 1 1 d . .
C00B C 0.65275(18) 0.10387(14) 0.38344(13) 0.0427(3) Uani 1 1 d . .
C00C C 0.68574(19) 0.22503(15) 0.48801(13) 0.0454(4) Uani 1 1 d . .
H00C H 0.6859 0.2236 0.5701 0.054 Uiso 1 1 calc R U
C00D C 0.72962(19) 0.53839(15) 0.62986(13) 0.0426(3) Uani 1 1 d . .
C00E C 0.6432(2) 0.05746(15) 0.16145(13) 0.0492(4) Uani 1 1 d . .
H00E H 0.6545 0.0895 0.0915 0.059 Uiso 1 1 calc R U
C00F C 0.6133(2) -0.04161(15) 0.37200(14) 0.0500(4) Uani 1 1 d . .
H00F H 0.6052 -0.0747 0.4419 0.060 Uiso 1 1 calc R U
C00G C 0.8387(2) 0.78676(16) 0.61359(14) 0.0513(4) Uani 1 1 d . .
H00G H 0.8449 0.7504 0.5304 0.062 Uiso 1 1 calc R U
C00H C 0.5865(2) -0.13546(16) 0.25640(14) 0.0531(4) Uani 1 1 d . .
H00H H 0.5568 -0.2323 0.2476 0.064 Uiso 1 1 calc R U
C00I C 0.7773(2) 0.75222(17) 0.80491(13) 0.0524(4) Uani 1 1 d . .
H00I H 0.7414 0.6927 0.8519 0.063 Uiso 1 1 calc R U
C00J C 0.8742(2) 0.98145(16) 0.78962(15) 0.0529(4) Uani 1 1 d . .
C00K C 0.8769(2) 0.59953(16) 0.22500(14) 0.0543(4) Uani 1 1 d . .
H00K H 0.9403 0.6896 0.2616 0.065 Uiso 1 1 calc R U
C00L C 0.6034(2) -0.08632(16) 0.15275(14) 0.0549(4) Uani 1 1 d . .
H00L H 0.5878 -0.1515 0.0755 0.066 Uiso 1 1 calc R U
C00M C 0.8308(2) 0.55507(18) 0.09785(16) 0.0630(5) Uani 1 1 d . .
H00M H 0.8636 0.6113 0.0473 0.076 Uiso 1 1 calc R U
C00N C 0.8842(2) 0.93045(17) 0.66782(15) 0.0563(4) Uani 1 1 d . .
H00N H 0.9210 0.9913 0.6223 0.068 Uiso 1 1 calc R U
C00O C 0.8236(2) 0.89586(18) 0.85969(14) 0.0587(4) Uani 1 1 d . .
H00O H 0.8201 0.9335 0.9431 0.070 Uiso 1 1 calc R U
C00P C 0.7342(3) 0.42380(19) 0.04956(15) 0.0677(5) Uani 1 1 d . .
H00P H 0.6992 0.3910 -0.0366 0.081 Uiso 1 1 calc R U
H1N H 0.793(2) 0.5419(18) 0.4661(16) 0.066(5) Uiso 1 1 d . .
loop_
_atom_site_aniso_label
_atom_site_aniso_U_11
_atom_site_aniso_U_22
_atom_site_aniso_U_33
_atom_site_aniso_U_23
_atom_site_aniso_U_13
_atom_site_aniso_U_12
F1 0.0941(8) 0.0459(6) 0.0804(7) -0.0095(5) 0.0179(6) -0.0109(5)
O002 0.0915(8) 0.0488(6) 0.0490(6) 0.0101(5) 0.0286(6) -0.0021(6)
N003 0.0486(6) 0.0380(6) 0.0330(6) 0.0072(5) 0.0068(5) 0.0034(5)
N004 0.0564(7) 0.0390(7) 0.0345(6) 0.0052(5) 0.0089(5) -0.0013(5)
N005 0.0552(7) 0.0430(7) 0.0457(7) 0.0109(5) 0.0105(5) 0.0011(5)
N1 0.0785(9) 0.0548(8) 0.0383(7) 0.0114(6) 0.0100(6) -0.0019(7)
C007 0.0452(7) 0.0402(8) 0.0385(8) 0.0088(6) 0.0096(6) 0.0069(6)
C008 0.0389(7) 0.0437(8) 0.0356(7) 0.0071(6) 0.0056(5) 0.0049(6)
C009 0.0444(7) 0.0388(7) 0.0347(7) 0.0056(6) 0.0059(5) 0.0018(6)
C00A 0.0427(7) 0.0385(8) 0.0389(7) 0.0072(6) 0.0066(6) 0.0052(6)
C00B 0.0453(7) 0.0397(8) 0.0418(8) 0.0080(6) 0.0085(6) 0.0031(6)
C00C 0.0573(8) 0.0422(8) 0.0356(7) 0.0086(6) 0.0093(6) 0.0003(6)
C00D 0.0462(7) 0.0446(8) 0.0362(7) 0.0088(6) 0.0083(6) 0.0039(6)
C00E 0.0625(9) 0.0443(8) 0.0386(8) 0.0062(6) 0.0092(6) 0.0093(7)
C00F 0.0592(9) 0.0430(8) 0.0483(8) 0.0114(6) 0.0125(7) 0.0057(6)
C00G 0.0668(9) 0.0477(9) 0.0382(8) 0.0073(6) 0.0128(7) 0.0030(7)
C00H 0.0630(9) 0.0367(8) 0.0572(9) 0.0072(7) 0.0115(7) 0.0063(6)
C00I 0.0634(9) 0.0544(9) 0.0373(8) 0.0068(7) 0.0130(6) -0.0017(7)
C00J 0.0510(8) 0.0428(8) 0.0555(9) -0.0018(7) 0.0071(7) -0.0008(6)
C00K 0.0646(9) 0.0465(9) 0.0552(10) 0.0174(7) 0.0153(7) 0.0015(7)
C00L 0.0671(10) 0.0431(8) 0.0475(9) -0.0009(7) 0.0087(7) 0.0102(7)
C00M 0.0832(12) 0.0595(10) 0.0561(10) 0.0257(8) 0.0249(8) 0.0067(8)
C00N 0.0711(10) 0.0455(9) 0.0521(9) 0.0117(7) 0.0139(7) -0.0011(7)
C00O 0.0673(10) 0.0595(10) 0.0401(8) -0.0056(7) 0.0139(7) -0.0038(8)
C00P 0.0977(13) 0.0660(11) 0.0411(9) 0.0162(8) 0.0161(8) 0.0016(9)
loop_
_atom_type_symbol
_atom_type_description
_atom_type_scat_dispersion_real
_atom_type_scat_dispersion_imag
_atom_type_scat_source
C C 0.0033 0.0016 'International Tables Vol C Tables 4.2.6.8 and 6.1.1.4'
H H 0.0000 0.0000 'International Tables Vol C Tables 4.2.6.8 and 6.1.1.4'
F F 0.0171 0.0103 'International Tables Vol C Tables 4.2.6.8 and 6.1.1.4'
N N 0.0061 0.0033 'International Tables Vol C Tables 4.2.6.8 and 6.1.1.4'
O O 0.0106 0.0060 'International Tables Vol C Tables 4.2.6.8 and 6.1.1.4'
loop_
_geom_angle_atom_site_label_1
_geom_angle_atom_site_label_2
_geom_angle_atom_site_label_3
_geom_angle
C007 N003 C00A 125.98(11)
C007 N003 C009 126.96(11)
C00A N003 C009 106.86(10)
C00D N004 C009 124.76(12)
C00D N004 H1N 121.2(11)
C009 N004 H1N 113.9(11)
C00K N005 C007 116.27(13)
C007 N1 C00P 115.37(13)
N1 C007 N005 126.07(13)
N1 C007 N003 116.79(12)
N005 C007 N003 117.13(12)
C00I C008 C00G 118.08(14)
C00I C008 C00D 117.12(13)
C00G C008 C00D 124.79(13)
C00C C009 N004 130.55(13)
C00C C009 N003 109.87(12)
N004 C009 N003 119.54(12)
C00E C00A C00B 121.33(13)
C00E C00A N003 131.32(12)
C00B C00A N003 107.34(11)
C00F C00B C00A 119.61(13)
C00F C00B C00C 132.36(13)
C00A C00B C00C 108.02(12)
C009 C00C C00B 107.90(12)
C009 C00C H00C 126.0
C00B C00C H00C 126.0
O002 C00D N004 122.77(14)
O002 C00D C008 121.99(12)
N004 C00D C008 115.24(12)
C00A C00E C00L 117.81(14)
C00A C00E H00E 121.1
C00L C00E H00E 121.1
C00H C00F C00B 119.30(14)
C00H C00F H00F 120.4
C00B C00F H00F 120.4
C00N C00G C008 121.05(14)
C00N C00G H00G 119.5
C008 C00G H00G 119.5
C00F C00H C00L 120.25(14)
C00F C00H H00H 119.9
C00L C00H H00H 119.9
C00O C00I C008 121.04(15)
C00O C00I H00I 119.5
C008 C00I H00I 119.5
C00O C00J F1 119.03(14)
C00O C00J C00N 122.52(14)
F1 C00J C00N 118.45(15)
N005 C00K C00M 122.57(15)
N005 C00K H00K 118.7
C00M C00K H00K 118.7
C00E C00L C00H 121.66(14)
C00E C00L H00L 119.2
C00H C00L H00L 119.2
C00P C00M C00K 116.12(14)
C00P C00M H00M 121.9
C00K C00M H00M 121.9
C00J C00N C00G 118.52(15)
C00J C00N H00N 120.7
C00G C00N H00N 120.7
C00J C00O C00I 118.77(14)
C00J C00O H00O 120.6
C00I C00O H00O 120.6
N1 C00P C00M 123.54(15)
N1 C00P H00P 118.2
C00M C00P H00P 118.2
loop_
_geom_bond_atom_site_label_1
_geom_bond_atom_site_label_2
_geom_bond_distance
F1 C00J 1.3586(17)
O002 C00D 1.2176(17)
N003 C007 1.3993(17)
N003 C00A 1.4144(16)
N003 C009 1.4159(17)
N004 C00D 1.3628(18)
N004 C009 1.3845(18)
N004 H1N 0.909(17)
N005 C00K 1.3298(18)
N005 C007 1.3325(18)
N1 C007 1.3243(18)
N1 C00P 1.3359(19)
C008 C00I 1.383(2)
C008 C00G 1.391(2)
C008 C00D 1.494(2)
C009 C00C 1.3467(19)
C00A C00E 1.3818(19)
C00A C00B 1.3989(19)
C00B C00F 1.395(2)
C00B C00C 1.426(2)
C00C H00C 0.9300
C00E C00L 1.385(2)
C00E H00E 0.9300
C00F C00H 1.374(2)
C00F H00F 0.9300
C00G C00N 1.377(2)
C00G H00G 0.9300
C00H C00L 1.387(2)
C00H H00H 0.9300
C00I C00O 1.378(2)
C00I H00I 0.9300
C00J C00O 1.357(2)
C00J C00N 1.361(2)
C00K C00M 1.368(2)
C00K H00K 0.9300
C00L H00L 0.9300
C00M C00P 1.361(2)
C00M H00M 0.9300
C00N H00N 0.9300
C00O H00O 0.9300
C00P H00P 0.9300
