#------------------------------------------------------------------------------
#$Date: 2019-11-24 00:37:05 +0200 (Sun, 24 Nov 2019) $
#$Revision: 235795 $
#$URL: file:///home/coder/svn-repositories/cod/cif/4/03/72/4037203.cif $
#------------------------------------------------------------------------------
#
# This file is available in the Crystallography Open Database (COD),
# http://www.crystallography.net/
#
# All data on this site have been placed in the public domain by the
# contributors.
#
data_4037203
loop_
_publ_author_name
'Nourian, Saghar'
'Zilber, Zachary A.'
'Toscano, John P.'
_publ_section_title
;
 Development of N-Substituted Hydroxamic Acids with Pyrazolone Leaving
 Groups as Nitrosocarbonyl Precursors.
;
_journal_issue                   19
_journal_name_full               'The Journal of organic chemistry'
_journal_page_first              9138
_journal_page_last               9146
_journal_paper_doi               10.1021/acs.joc.6b01705
_journal_volume                  81
_journal_year                    2016
_chemical_absolute_configuration ad
_chemical_formula_moiety         'C10 H16 N4 O5'
_chemical_formula_sum            'C10 H16 N4 O5'
_chemical_formula_weight         272.27
_space_group_crystal_system      monoclinic
_space_group_IT_number           4
_space_group_name_Hall           'P 2yb'
_space_group_name_H-M_alt        'P 1 21 1'
_atom_sites_solution_hydrogens   mixed
_atom_sites_solution_primary     direct
_atom_sites_solution_secondary   difmap
_audit_creation_method           SHELXL-2014/7
_cell_angle_alpha                90
_cell_angle_beta                 96.4986(14)
_cell_angle_gamma                90
_cell_formula_units_Z            2
_cell_length_a                   9.44384(14)
_cell_length_b                   6.72231(9)
_cell_length_c                   10.34284(17)
_cell_measurement_reflns_used    6154
_cell_measurement_temperature    110(2)
_cell_measurement_theta_max      72.03
_cell_measurement_theta_min      4.27
_cell_volume                     652.390(17)
_computing_cell_refinement
;
CrysAlisPro, Agilent Technologies,
Version 1.171.37.33 (release 27-03-2014 CrysAlis171 .NET)
(compiled Mar 27 2014,17:12:48)
;
_computing_data_collection
;
CrysAlisPro, Agilent Technologies,
Version 1.171.37.33 (release 27-03-2014 CrysAlis171 .NET)
(compiled Mar 27 2014,17:12:48)
;
_computing_data_reduction
;
CrysAlisPro, Agilent Technologies,
Version 1.171.37.33 (release 27-03-2014 CrysAlis171 .NET)
(compiled Mar 27 2014,17:12:48)
;
_computing_molecular_graphics    'SHELXTL v6.10 (Sheldrick, 2008)'
_computing_publication_material  'SHELXTL v6.10 (Sheldrick, 2008)'
_computing_structure_refinement  'SHELXL-2014/7 (Sheldrick, 2014)'
_computing_structure_solution    'SHELXS-2014/7 (Sheldrick, 2014)'
_diffrn_ambient_temperature      110(2)
_diffrn_measured_fraction_theta_full 1.000
_diffrn_measured_fraction_theta_max 0.999
_diffrn_measurement_device_type  'SuperNova, Dual, Cu at zero, Atlas'
_diffrn_measurement_method       '\w scans'
_diffrn_radiation_monochromator  mirror
_diffrn_radiation_source         'SuperNova (Cu) X-ray Source'
_diffrn_radiation_type           CuK\a
_diffrn_radiation_wavelength     1.54178
_diffrn_reflns_av_R_equivalents  0.0258
_diffrn_reflns_av_unetI/netI     0.0251
_diffrn_reflns_Laue_measured_fraction_full 1.000
_diffrn_reflns_Laue_measured_fraction_max 0.999
_diffrn_reflns_limit_h_max       11
_diffrn_reflns_limit_h_min       -11
_diffrn_reflns_limit_k_max       8
_diffrn_reflns_limit_k_min       -8
_diffrn_reflns_limit_l_max       12
_diffrn_reflns_limit_l_min       -12
_diffrn_reflns_number            7685
_diffrn_reflns_point_group_measured_fraction_full 1.000
_diffrn_reflns_point_group_measured_fraction_max 0.998
_diffrn_reflns_theta_full        67.679
_diffrn_reflns_theta_max         71.875
_diffrn_reflns_theta_min         4.302
_exptl_absorpt_coefficient_mu    0.957
_exptl_absorpt_correction_T_max  0.956
_exptl_absorpt_correction_T_min  0.796
_exptl_absorpt_correction_type   analytical
_exptl_absorpt_process_details
;
CrysAlisPro, Agilent Technologies,
Version 1.171.36.32 (release 02-08-2013 CrysAlis171 .NET)
(compiled Aug  2 2013,16:46:58)
Analytical numeric absorption correction using a multifaceted crystal
			model based on expressions derived by R.C. Clark & J.S. Reid.
(Clark, R. C. & Reid, J. S. (1995). Acta Cryst. A51, 887-897)
;
_exptl_crystal_colour            colorless
_exptl_crystal_density_diffrn    1.386
_exptl_crystal_description       rod
_exptl_crystal_F_000             288
_exptl_crystal_size_max          0.46
_exptl_crystal_size_mid          0.08
_exptl_crystal_size_min          0.06
_refine_diff_density_max         0.192
_refine_diff_density_min         -0.145
_refine_diff_density_rms         0.032
_refine_ls_abs_structure_details
;
 Flack x determined using 1120 quotients [(I+)-(I-)]/[(I+)+(I-)]
 (Parsons, Flack and Wagner, Acta Cryst. B69 (2013) 249-259).
;
_refine_ls_abs_structure_Flack   0.04(9)
_refine_ls_extinction_coef       0.0067(10)
_refine_ls_extinction_expression Fc^*^=kFc[1+0.001xFc^2^\l^3^/sin(2\q)]^-1/4^
_refine_ls_extinction_method     'SHELXL-2014/7 (Sheldrick 2014'
_refine_ls_goodness_of_fit_ref   1.052
_refine_ls_hydrogen_treatment    mixed
_refine_ls_matrix_type           full
_refine_ls_number_parameters     182
_refine_ls_number_reflns         2562
_refine_ls_number_restraints     1
_refine_ls_restrained_S_all      1.052
_refine_ls_R_factor_all          0.0259
_refine_ls_R_factor_gt           0.0251
_refine_ls_shift/su_max          0.001
_refine_ls_shift/su_mean         0.000
_refine_ls_structure_factor_coef Fsqd
_refine_ls_weighting_details
'w=1/[\s^2^(Fo^2^)+(0.0341P)^2^+0.1137P] where P=(Fo^2^+2Fc^2^)/3'
_refine_ls_weighting_scheme      calc
_refine_ls_wR_factor_gt          0.0648
_refine_ls_wR_factor_ref         0.0657
_reflns_Friedel_coverage         0.833
_reflns_Friedel_fraction_full    0.999
_reflns_Friedel_fraction_max     0.997
_reflns_number_gt                2500
_reflns_number_total             2562
_reflns_threshold_expression     'I > 2\s(I)'
_cod_data_source_file            jo6b01705_si_004.cif
_cod_data_source_block           NHPY_1d
_cod_original_sg_symbol_H-M      'P 21'
_cod_database_code               4037203
_shelx_shelxl_version_number     2014/7
_shelx_space_group_comment
;
The symmetry employed for this shelxl refinement is uniquely defined
by the following loop, which should always be used as a source of
symmetry information in preference to the above space-group names.
They are only intended as comments.
;
_shelx_res_file
;

    xs0685a.res created by SHELXL-2014/7


TITL   xs0685a
CELL   1.54178     9.44384   6.72231  10.34284  90.0000  96.4986  90.0000
ZERR         2     0.00014   0.00009   0.00017   0.0000   0.0014   0.0000
LATT -1
SYMM -X,1/2+Y,-Z
SFAC C H N O
UNIT 20 32 8 10

TEMP -163

ACTA
HTAB
BOND
BOND $H
CONF
WPDB

L.S. 6
FMAP 2
PLAN 10
OMIT -2 143.8

EQIV $2 x, y+1, z
HTAB O3 N2_$2

WGHT    0.034100    0.113700
EXTI    0.006678
FVAR      16.92242
C1    1    0.266803    0.579681    0.747989    11.00000    0.02215    0.02662 =
         0.01355    0.00352    0.00183    0.00109
AFIX 137
H1A   2    0.222324    0.452666    0.720272    11.00000   -1.50000
H1B   2    0.245899    0.610668    0.836452    11.00000   -1.50000
H1C   2    0.370175    0.570105    0.746657    11.00000   -1.50000
AFIX   0
C2    1    0.199357    0.813719    0.451133    11.00000    0.01596    0.01569 =
         0.01470   -0.00245    0.00142   -0.00068
C3    1    0.108534    0.990056    0.472308    11.00000    0.02825    0.02209 =
         0.01944   -0.00098    0.00535    0.00907
AFIX 137
H3A   2    0.033570    0.951074    0.525476    11.00000   -1.50000
H3B   2    0.064960    1.040259    0.388115    11.00000   -1.50000
H3C   2    0.167487    1.094522    0.517224    11.00000   -1.50000
AFIX   0
C4    1    0.232687    0.758934    0.314879    11.00000    0.01511    0.01180 =
         0.01352    0.00030    0.00030    0.00038
C5    1    0.333637    0.583404    0.316002    11.00000    0.01729    0.01428 =
         0.01060    0.00077    0.00179    0.00273
C6    1    0.096287    0.665613    0.240668    11.00000    0.01659    0.01720 =
         0.01219    0.00015    0.00071   -0.00020
C7    1    0.488019    0.589411    0.365117    11.00000    0.01620    0.01792 =
         0.01688    0.00000   -0.00073    0.00184
AFIX 137
H7A   2    0.499060    0.601964    0.460125    11.00000   -1.50000
H7B   2    0.532659    0.703701    0.327071    11.00000   -1.50000
H7C   2    0.533931    0.466522    0.340477    11.00000   -1.50000
AFIX   0
C8    1    0.046505    0.334892    0.138730    11.00000    0.02215    0.02036 =
         0.02357   -0.00375   -0.00611   -0.00448
AFIX 137
H8A   2   -0.053394    0.377136    0.125195    11.00000   -1.50000
H8B   2    0.052122    0.199252    0.173659    11.00000   -1.50000
H8C   2    0.086996    0.338043    0.055597    11.00000   -1.50000
AFIX   0
C9    1    0.299267    0.907032    0.116756    11.00000    0.01577    0.01677 =
         0.01644    0.00251   -0.00068    0.00083
C10   1    0.386147    1.055268   -0.063630    11.00000    0.03973    0.04223 =
         0.01643    0.00323    0.00782   -0.01512
AFIX 137
H10A  2    0.429668    0.929066   -0.085417    11.00000   -1.50000
H10B  2    0.446671    1.165926   -0.085485    11.00000   -1.50000
H10C  2    0.291849    1.067728   -0.113297    11.00000   -1.50000
AFIX   0
N1    3    0.249443    0.688279    0.537046    11.00000    0.01752    0.01818 =
         0.01112   -0.00225    0.00172   -0.00168
N2    3    0.271393    0.426634    0.268198    11.00000    0.01660    0.01493 =
         0.01502    0.00077   -0.00170    0.00133
N3    3    0.126232    0.468652    0.230235    11.00000    0.01554    0.01534 =
         0.01824   -0.00018   -0.00271    0.00007
N4    3    0.275288    0.933118    0.245267    11.00000    0.01935    0.01096 =
         0.01257   -0.00039   -0.00143   -0.00104
O1    4    0.211058    0.734643    0.660806    11.00000    0.02420    0.02332 =
         0.01103   -0.00024    0.00405    0.00290
H1    2    0.343336    1.178650    0.303845    11.00000    0.03299
O2    4   -0.015686    0.748468    0.205489    11.00000    0.01575    0.02350 =
         0.02304    0.00105   -0.00144    0.00425
O3    4    0.374403    1.053216    0.322183    11.00000    0.02119    0.01277 =
         0.01612   -0.00158   -0.00385   -0.00179
O4    4    0.252115    0.766711    0.052482    11.00000    0.02359    0.02010 =
         0.01417   -0.00318    0.00057   -0.00171
O5    4    0.371713    1.059834    0.074542    11.00000    0.02919    0.02544 =
         0.01554    0.00205    0.00340   -0.00832
HKLF      4

REM    xs0685a
REM R1 =  0.0251 for    2500 Fo > 4sig(Fo)  and  0.0259 for all    2562 data
REM    182 parameters refined using      1 restraints

END

WGHT      0.0340      0.1136

REM Instructions for potential hydrogen bonds
EQIV $3 -x, y-1/2, -z+1
HTAB C1 O2_$3
EQIV $4 x, y, z+1
HTAB C1 O4_$4
EQIV $5 -x+1, y-1/2, -z+1
HTAB C1 O3_$5
HTAB C7 O3_$5
EQIV $6 -x, y-1/2, -z
HTAB C8 O4_$6
HTAB O3 N2_$2

REM Highest difference peak  0.192,  deepest hole -0.145,  1-sigma level  0.032
Q1    1   0.1641  0.7268  0.2742  11.00000  0.05    0.19
Q2    1   0.2890  0.6807  0.3100  11.00000  0.05    0.18
Q3    1   0.1124  0.5636  0.2126  11.00000  0.05    0.15
Q4    1   0.2604  0.8344  0.2832  11.00000  0.05    0.15
Q5    1   0.2157  0.7925  0.3835  11.00000  0.05    0.14
Q6    1   0.1461  0.8938  0.4504  11.00000  0.05    0.14
Q7    1   0.3997  0.5681  0.3419  11.00000  0.05    0.12
Q8    1   0.3964  0.9674  0.1071  11.00000  0.05    0.12
Q9    1   0.4980  0.6847  0.4278  11.00000  0.05    0.12
Q10   1   0.2167  1.0295  0.2272  11.00000  0.05    0.12
;
_shelx_res_checksum              4676
_shelx_hkl_file
;
   0  -8   0 28846.4 885.361   7
   0  -8   0 29301.8 1036.17  13
   0  -8  -1 7949.77 467.159  13
   0  -8   1 7951.43 493.860  13
   0  -8   1 8068.31 425.237   7
   0  -8   2 2841.57 283.900  13
   0  -8   2 2968.98 260.793   7
   0  -8  -2 2744.54 251.604  13
   0  -8  -3 43.9055 62.4178  13
   0  -8   3 115.327 79.6716  13
   0  -8   3 40.6261 75.8182   7
   0  -7   0 29.8625 157.633   7
   0  -7   0 96.4328 190.054  13
   0  -7  -1 49018.8 1806.65  13
   0  -7   1 47573.4 1761.44   7
   0  -7  -1 50986.4 1678.61   7
   0  -7   1 46407.1 1826.43  13
   0  -7   2 8329.72 696.637  13
   0  -7   2 8350.24 684.036   7
   0  -7  -2 8610.24 558.496   7
   0  -7  -2 8424.90 638.246  13
   0  -7  -3 1182.12 248.958  13
   0  -7   3 1037.68 285.909   7
   0  -7   4 5954.41 474.079  19
   0  -7   4 6126.61 578.437   7
   0  -7  -4 6837.09 477.775  13
   0  -7   5 6343.03 474.656  13
   0  -7   5 6776.01 565.735   7
   0  -7   5 6402.90 476.049  19
   0  -7  -5 7783.24 445.683  13
   0  -7   6-137.594 92.7019  13
   0  -7   6-22.6038 102.075  19
   0  -7   6 39.1582 110.108   7
   0  -6   0 126896. 3610.71   7
   0  -6  -1 11632.7 816.835   7
   0  -6   1 11449.1 874.944   7
   0  -6  -1 10600.6 830.639  13
   0  -6  -2 57328.0 2134.79  13
   0  -6   2 65471.6 2164.32  19
   0  -6  -2 67857.9 2136.28   7
   0  -6   2 59939.8 2309.44   7
   0  -6  -3 96362.9 2898.99  13
   0  -6   3 99242.4 3020.90  19
   0  -6   3 91307.6 3133.71   7
   0  -6  -4 26863.3 1198.54  13
   0  -6   4 24514.6 1325.77  19
   0  -6  -5 23722.7 1043.60  13
   0  -6   5 21977.3 1265.67  19
   0  -6   6 5102.58 581.804  19
   0  -6  -6 6830.93 478.474  13
   0  -6   7 14015.7 880.096  19
   0  -6   8 12103.5 707.166  19
   0  -6   8 12331.9 712.166   7
   0  -5   0 1174.99 298.979   3
   0  -5   1 1856.52 371.645   3
   0  -5  -1 1925.43 370.965   3
   0  -5   2 118954. 3425.56   3
   0  -5  -2 113139. 3503.76   3
   0  -5  -2 116721. 3231.14  13
   0  -5  -3 49570.5 1787.06  13
   0  -5   3 49631.1 1923.53   3
   0  -5   3 49221.6 1973.11  19
   0  -5  -3 44571.4 1971.70   3
   0  -5   4 8717.15 801.134  19
   0  -5  -4 8477.53 652.042  13
   0  -5  -4 6721.81 771.156   3
   0  -5   4 8488.80 709.217   3
   0  -5   5 736.638 333.188  19
   0  -5  -5 1056.88 265.857  13
   0  -5   6 6404.92 753.445  19
   0  -5  -6 7583.41 557.839  13
   0  -5   7 101736. 3386.75  19
   0  -5   8 7924.36 747.564  19
   0  -5   8 6677.94 566.234   6
   0  -5   9 360.234 190.178  19
   0  -5   9 768.210 186.301   6
   0  -5  10 11001.9 537.569   7
   0  -5  10 14039.3 691.139  19
   0  -4   0 105872. 3038.66   3
   0  -4   1 18100.6 989.995   3
   0  -4  -1 19211.7 1043.47   3
   0  -4  -2 64337.8 2204.95   3
   0  -4   2 61202.7 2065.21   3
   0  -4   3 82700.3 2505.02   3
   0  -4  -3 82307.8 2661.48   3
   0  -4  -4 100278. 3115.11   3
   0  -4   4 102693. 2929.28   3
   0  -4  -5 14196.9 1138.85   2
   0  -4   5 15219.0 916.153   3
   0  -4  -5 12733.9 951.256   3
   0  -4   6 31909.7 1420.75   3
   0  -4   6 30140.8 1503.55   6
   0  -4  -6 29618.5 1805.83   2
   0  -4   7 46807.4 2025.58   6
   0  -4   8 136138. 4042.34   6
   0  -4   8 133415. 4168.03  19
   0  -4   9 5977.90 636.054   6
   0  -4   9 6491.03 719.725  19
   0  -4  10 176.564 178.822   6
   0  -4  10 246.981 211.801  19
   0  -4  11 8691.57 530.263  19
   0  -4  11 9027.15 522.829   6
   0  -3   0 172.363 83.6721   2
   0  -3   0 46.1240 130.419   3
   0  -3  -1 86511.5 2462.06   3
   0  -3   1 92672.7 2452.55   3
   0  -3  -1 90241.6 2277.45   2
   0  -3   2 70220.6 2065.78   3
   0  -3  -2 74163.9 2177.72   2
   0  -3  -3 51884.3 1939.97   2
   0  -3   3 55159.8 1716.05   3
   0  -3   4 21357.8 968.410   3
   0  -3  -4 21922.0 1283.35   2
   0  -3  -5 137550. 4286.08   2
   0  -3   5 137422. 3531.52   3
   0  -3  -6 10978.7 1097.61   2
   0  -3   6 10869.0 746.529   3
   0  -3   7 13424.5 869.010   3
   0  -3  -7 14985.3 1344.59   2
   0  -3   7 14761.8 1088.23   6
   0  -3   8 11448.0 1009.64   6
   0  -3   8 11577.8 886.203  15
   0  -3   9 26931.2 1370.07  15
   0  -3   9 24818.7 1503.48   6
   0  -3  10 1131.55 371.156   6
   0  -3  10 1044.59 278.032  15
   0  -3  11 928.102 257.708  19
   0  -3  11 841.646 270.339   6
   0  -3  11 773.499 179.370  15
   0  -2   0 119723. 2609.05   2
   0  -2   0 123021. 2835.70   3
   0  -2  -1 56880.2 1582.07   2
   0  -2   1 54289.2 1565.66   3
   0  -2   2 34567.4 1094.96   3
   0  -2   3 149981. 3440.28   3
   0  -2   4 25023.6 944.414   3
   0  -2   5 47486.3 1539.73   3
   0  -2   6 101309. 2773.21   3
   0  -2   7 61733.2 2022.55   1
   0  -2   7 58945.1 2019.55   3
   0  -2   8 74215.7 2677.21  15
   0  -2   8 80405.1 2903.13   6
   0  -2   8 72772.1 2364.41   1
   0  -2   9 5410.46 735.366   6
   0  -2   9 5878.47 707.459  15
   0  -2  10 809.757 335.901  15
   0  -2  10 687.772 293.396   6
   0  -2  11 161.425 222.194   6
   0  -2  11 459.111 244.643  15
   0  -2  12 25738.8 979.514  15
   0  -2  12 25942.4 1084.17   6
   0  -1   0 108.943 62.4439   3
   0  -1   0 17.6335 49.3416   2
   0  -1   1 56422.7 1338.32   3
   0  -1   2 28202.5 803.532   3
   0  -1   3 44960.3 1193.00   3
   0  -1   3 43080.3 1280.28   4
   0  -1   4 208.363 113.268   3
   0  -1   4 326.685 190.961   4
   0  -1   5 109600. 2711.55   3
   0  -1   6 106187. 2811.46   3
   0  -1   6 106145. 2783.40   1
   0  -1   7 9685.37 676.206   1
   0  -1   8 16365.4 977.341   1
   0  -1   8 19762.4 1221.79  15
   0  -1   8 17777.9 1209.76   6
   0  -1   9 13097.9 1072.93   6
   0  -1   9 11529.5 999.239  15
   0  -1  10 6321.03 739.694  15
   0  -1  10 4989.22 693.122   6
   0  -1  11 6173.57 658.035  15
   0  -1  11 5911.24 669.756   6
   0  -1  12 2620.73 363.244   6
   0  -1  12 2679.18 362.299  15
   0   0   1 13295.4 348.708   3
   0   0   2 522304. 10164.0   1
   0   0   2 510429. 10160.4   3
   0   0   3 55933.7 1400.63   1
   0   0   3 56388.4 1402.28   3
   0   0   3 55817.5 1602.55   4
   0   0   4 160986. 3814.57   4
   0   0   4 155689. 3473.34   1
   0   0   4 153121. 3469.40   3
   0   0   5 320019. 6873.40   1
   0   0   5 330127. 7344.79   4
   0   0   6 32009.2 1496.14   4
   0   0   6 31066.8 1206.81   1
   0   0   7 145821. 3764.83   1
   0   0   7 142166. 4210.59   4
   0   0   8 19459.4 1219.29   6
   0   0   8 18501.6 1188.67  15
   0   0   9 46648.3 2089.82   6
   0   0   9 49134.0 2164.76  15
   0   0  10 108276. 3539.70   6
   0   0  10 110208. 3610.36  15
   0   0  11 11899.9 901.434   6
   0   0  11 12800.1 979.677  15
   0   0  12 957.204 230.318   6
   0   0  12 433.673 214.505  15
   0   1   0-23.0615 50.3246   4
   0   1   0 2526.19 202.432   1
   0   1   1 54436.9 1376.76   4
   0   1   1 56690.2 1377.18   1
   0   1   2 28194.5 864.929   1
   0   1   2 27100.9 936.421   4
   0   1  -3 46601.2 1293.50   5
   0   1   3 42916.5 1436.35   4
   0   1   3 42691.2 1282.83   1
   0   1  -4 209.917 127.742   5
   0   1   4 115.643 153.439   4
   0   1   4 97.7618 145.825   1
   0   1   5 113167. 3256.92   4
   0   1  -5 117310. 2972.59   5
   0   1   5 109220. 2941.01   1
   0   1  -6 110335. 3083.94   5
   0   1   6 108312. 3400.73   4
   0   1   6 111801. 3052.19   1
   0   1  -7 10467.2 801.476   5
   0   1   7 10504.1 788.856   1
   0   1   7 11303.0 968.785   4
   0   1   8 19655.3 1125.16  17
   0   1  -8 18465.7 1146.42  20
   0   1   8 17049.5 1155.75  15
   0   1  -8 17745.4 1167.25   5
   0   1   9 12738.6 1029.34  15
   0   1  -9 15163.5 1056.99  20
   0   1   9 13108.4 908.036  17
   0   1   9 13388.3 990.373   6
   0   1  10 4779.72 576.277   6
   0   1  10 4880.75 645.533  15
   0   1  11 5000.40 618.107  15
   0   1  11 5799.80 556.761   6
   0   1  12 2415.52 354.443  15
   0   2   0 123784. 2852.80   5
   0   2   0 127329. 3067.01   1
   0   2   0 125611. 2726.12   4
   0   2  -1 55878.0 1579.08   5
   0   2  -1 60900.9 1381.21   4
   0   2   1 56483.9 1575.31   4
   0   2   1 60970.9 1729.69   1
   0   2   1 61773.7 1552.10   5
   0   2   2 35200.7 1233.55   4
   0   2   2 36814.8 1254.33   1
   0   2  -2 37500.2 1198.32   5
   0   2  -3 157009. 3647.11   5
   0   2   3 152917. 3782.48   4
   0   2   3 146414. 3673.91   1
   0   2   4 25650.9 1234.48   4
   0   2  -4 26619.3 1134.96   5
   0   2   4 27830.0 1159.98   1
   0   2   5 51723.7 1997.54   4
   0   2  -5 46503.6 1769.79   5
   0   2   5 49340.4 1775.64   1
   0   2  -6 94841.9 3012.08   5
   0   2   6 103818. 3034.30   1
   0   2   6 99931.5 3318.42   4
   0   2   7 62079.9 2252.26   1
   0   2  -7 59949.3 2326.01   5
   0   2   7 61757.4 2590.28   4
   0   2   8 83595.2 3196.08   4
   0   2   8 77012.2 2793.92  17
   0   2  -8 81620.4 2895.97   5
   0   2   8 76544.5 2746.43  15
   0   2   9 6037.25 673.319  17
   0   2   9 5733.00 692.266  15
   0   2  10 291.186 271.431  15
   0   2  10 513.023 223.631  17
   0   2  11 545.705 175.729  17
   0   2  11 622.956 233.681  15
   0   2  12 25443.7 1004.26  15
   0   3   0 12.1537 116.899   5
   0   3  -1 84411.1 2373.78   5
   0   3   1 89838.7 2619.48   1
   0   3   1 91926.0 2270.63   4
   0   3   1 84660.1 2278.15   5
   0   3   2 72770.3 1999.93   5
   0   3   2 70410.3 2254.45   1
   0   3   2 71200.7 2083.84   4
   0   3  -2 70678.8 2113.00   5
   0   3   3 56109.7 1952.35   1
   0   3   3 49920.0 1806.74   4
   0   3  -3 53005.1 1812.52   5
   0   3   4 18442.2 1068.57   1
   0   3   4 18620.5 1101.98   4
   0   3  -4 19336.0 1057.58   5
   0   3   5 132259. 3844.10   1
   0   3  -5 139772. 3934.36   5
   0   3   5 140024. 4066.71   4
   0   3   6 10218.5 852.522   1
   0   3   6 10905.7 978.852   4
   0   3  -6 8605.65 808.530   5
   0   3   7 12187.8 1050.12  17
   0   3   7 14458.7 939.896  18
   0   3  -7 13676.4 1077.60   5
   0   3   7 13536.5 1156.30   4
   0   3   7 15310.2 860.150  11
   0   3   7 15137.0 955.075  14
   0   3   8 10072.2 966.958  17
   0   3   8 10491.3 848.898  15
   0   3   9 27768.8 1414.50  15
   0   3   9 26852.2 1529.70  17
   0   3  10 684.207 250.575  15
   0   3  10 884.262 303.651  17
   0   3  11 847.405 200.736  15
   0   3  11 1023.08 224.142  17
   0   4   0 99680.6 2788.93   5
   0   4  -1 18424.6 990.116   5
   0   4   1 18863.8 930.247   5
   0   4   2 63572.6 1998.13   5
   0   4  -2 63621.9 2173.29   5
   0   4  -3 84050.9 2689.32   5
   0   4   3 80978.1 2817.25   1
   0   4  -4 100302. 3185.97   5
   0   4   4 104914. 3336.04   1
   0   4   5 14471.3 1062.05  18
   0   4   5 13198.8 1028.39   4
   0   4   5 15383.2 1133.68  17
   0   4   5 13634.4 1019.49  14
   0   4   5 14658.4 1092.84   1
   0   4  -5 15777.3 1121.75   5
   0   4  -6 27496.5 1461.99   8
   0   4   6 31691.1 1650.31  18
   0   4   6 30427.6 1698.50  17
   0   4   6 28230.0 1614.09   4
   0   4  -6 27696.4 1616.57   5
   0   4   6 30060.3 1558.25  14
   0   4   7 50204.1 1791.94  11
   0   4  -7 45637.8 1925.56   8
   0   4   7 46515.4 2002.99  18
   0   4   7 47320.6 1978.39  14
   0   4   7 44334.9 2176.79  17
   0   4   8 150869. 3762.42  11
   0   4   8 141765. 3971.80  18
   0   4   8 142289. 4429.19  17
   0   4   8 147113. 3994.06  14
   0   4   9 6263.16 515.979  14
   0   4   9 6200.11 698.068  17
   0   4  10-44.5646 181.934  17
   0   4  11 9504.94 523.422  17
   0   5   0 26.7574 149.917   5
   0   5   1 2212.10 360.477   5
   0   5  -1 1771.71 343.323   5
   0   5   2 121791. 3802.00  14
   0   5  -2 114694. 3485.43   5
   0   5   2 124988. 3449.80   8
   0   5   2 120341. 3811.67  18
   0   5  -2 112132. 3498.60   8
   0   5   3 49855.8 1886.19   8
   0   5   3 49488.0 2228.53  18
   0   5  -3 47661.3 2001.57   5
   0   5   3 46278.4 2149.93  14
   0   5  -3 49478.2 2045.74   8
   0   5   4 8329.53 881.327  18
   0   5  -4 9000.62 838.402   8
   0   5   4 8921.82 859.224  17
   0   5   4 7913.95 843.582  14
   0   5   4 9563.09 754.623   8
   0   5  -4 7742.79 765.412   5
   0   5   5 748.490 291.765  14
   0   5   5 634.399 349.573  18
   0   5  -5 1857.80 443.713   8
   0   5   5 2569.78 520.879  17
   0   5   6 7423.19 814.856  18
   0   5  -6 7056.16 732.817   8
   0   5   6 6845.04 774.688  14
   0   5   6 7278.05 804.707  17
   0   5  -7 100531. 3061.58   8
   0   5   7 98371.1 2851.60  11
   0   5   7 97878.6 3150.23  14
   0   5   7 99937.2 3230.40  18
   0   5   7 99302.3 3405.17  17
   0   5   8 7116.74 736.112  17
   0   5   8 7643.20 646.554  14
   0   5   8 8131.53 658.247  18
   0   5   8 8475.46 566.542  11
   0   5   9 851.033 187.974  14
   0   5   9 637.489 152.815  18
   0   5   9 673.574 263.198  17
   0   5  10 15400.6 741.718  17
   0   6   0 124977. 3777.53   8
   0   6   0 126416. 3879.41  14
   0   6  -1 11640.7 941.181   8
   0   6   1 11095.0 986.668  14
   0   6  -1 11876.5 813.945  10
   0   6   1 12254.0 929.175   8
   0   6   1 11613.8 997.230  18
   0   6  -2 57817.0 2145.42  10
   0   6  -2 60121.6 2385.96   8
   0   6   2 62050.3 2546.85  14
   0   6   2 59952.8 2521.80  18
   0   6   2 64688.0 2316.21   8
   0   6   3 91948.0 3356.60  18
   0   6   3 101426. 3067.70   8
   0   6  -3 97570.6 3229.33   8
   0   6   3 92838.9 3338.71  14
   0   6   4 27650.1 1600.63  14
   0   6  -4 25316.0 1438.40   8
   0   6   4 27918.0 1439.44  17
   0   6   4 26112.7 1591.79  18
   0   6  -5 21738.8 1258.99   8
   0   6   5 22927.3 1302.72  17
   0   6   5 22219.1 1356.81  14
   0   6   5 23558.6 1429.94  18
   0   6  -6 5882.11 576.067   8
   0   6   6 5778.59 529.428  11
   0   6   6 5287.31 615.556  17
   0   6   6 7057.33 693.637  14
   0   6   6 6568.08 709.552  18
   0   6  -7 15670.9 801.678   8
   0   6   7 15477.1 940.171  18
   0   6   7 15046.5 908.883  14
   0   6   7 14834.2 937.393  17
   0   6   7 14866.4 769.142  11
   0   6   8 14553.7 719.629  18
   0   6   8 13423.6 781.830  17
   0   6   8 15072.0 726.712  14
   0   6   8 13399.4 565.682  11
   0   7   0-436.758 248.142  14
   0   7   0-245.049 249.676   8
   0   7   1 51691.6 1910.84   8
   0   7   1 44827.5 1818.47  18
   0   7  -1 48998.2 1928.81   8
   0   7   1 46039.7 1889.89  14
   0   7  -2 7407.87 574.528  10
   0   7   2 7715.19 721.922  14
   0   7   2 9242.37 726.918   8
   0   7  -2 8175.66 722.719   8
   0   7   2 8316.55 746.861  18
   0   7  -3 814.190 233.073  10
   0   7   3 1296.78 349.526  14
   0   7   3 1431.65 348.495  18
   0   7  -3 1789.07 364.054   8
   0   7  -4 7493.70 617.322   8
   0   7   4 6640.41 646.522  18
   0   7  -4 6703.63 562.728  10
   0   7   4 6159.52 619.613  14
   0   7  -5 7321.86 536.287   8
   0   7   5 7171.82 525.865  11
   0   7  -5 7569.56 573.030  10
   0   7   5 8312.18 654.723  14
   0   7   5 8202.85 663.501  18
   0   7  -6 292.382 128.531  10
   0   7   6 121.746 138.732  18
   0   7   6 206.570 130.047  11
   0   7  -6 468.894 137.745   8
   0   8   0 32570.2 1186.38   8
   0   8  -1 9098.08 563.030   8
   0   8  -2 2966.31 296.678   8
   0   8   2 2706.76 252.333  14
   0   8   3 162.831 84.8208  14
   0   8   3 333.259 109.994  18
   0   8   3 9.23855 106.342  11
   0   8  -3 108.558 83.2091   8
  -1  -8   3 14827.6 633.726  13
   1  -8  -3 16581.8 610.920  13
  -1  -8   2-71.8082 89.8415  13
  -1  -8   2 189.163 71.9927   7
   1  -8  -2-275.445 110.996  13
   1  -8  -2-5.17507 52.5449   7
   1  -8  -1 13438.9 621.458  13
  -1  -8   1 12039.3 612.808  13
   1  -8  -1 12816.4 536.919   7
   1  -8   0 15778.7 644.359   7
   1  -8   0 15933.5 700.931  13
  -1  -8   0 15543.5 688.855  13
   1  -8   1 26234.5 911.733   7
  -1  -8  -1 26184.8 897.169  13
   1  -8   1 26370.0 944.808  13
   1  -8   2 3108.46 269.605  13
  -1  -8  -2 3000.72 236.033  13
   1  -8   2 3529.49 293.053   7
   1  -8   3 4914.85 323.003   7
   1  -8   3 4444.56 267.398  13
  -1  -7   6 7188.85 512.958   7
   1  -7  -6 8349.91 412.523  13
   1  -7  -5 14770.8 690.321  13
  -1  -7   5 14168.6 817.188   7
   1  -7  -4 2172.13 255.226   7
   1  -7  -4 1744.56 261.972  13
   1  -7  -3 54552.3 1640.45   7
   1  -7  -3 51136.9 1704.79  13
   1  -7  -2 54424.4 1858.22  13
  -1  -7   2 51670.9 1825.03   7
   1  -7  -2 54742.0 1765.08   7
   1  -7  -1 23661.1 1151.75  13
  -1  -7   1 20711.1 1012.91   7
   1  -7  -1 23472.0 1092.42   7
  -1  -7   1 21144.7 1148.04  13
  -1  -7   0 22301.2 1163.50  13
  -1  -7   0 23247.3 1029.68   7
   1  -7   0 26388.0 1212.54   7
   1  -7   0 25990.2 1233.03  13
  -1  -7  -1 39268.2 1545.36  13
   1  -7   1 39993.0 1608.20  13
   1  -7   1 39945.3 1606.41   7
   1  -7   2 687.479 181.199  19
  -1  -7  -2 185.599 151.855  13
   1  -7   2 933.349 265.802  13
   1  -7   2 931.408 302.932   7
  -1  -7  -3 13077.3 704.763  13
   1  -7   3 12606.6 744.539  19
   1  -7   3 12168.2 835.468   7
   1  -7   3 10944.2 738.955  13
   1  -7   4 36718.2 1487.21   7
   1  -7   4 34068.8 1289.06  13
  -1  -7  -4 38316.0 1200.34  13
   1  -7   4 35333.6 1356.51  19
   1  -7   5 5417.52 486.404   7
   1  -7   5 5303.85 445.382  19
   1  -7   5 5581.33 375.556  13
   1  -7   6 9585.65 530.818  19
   1  -7   6 10458.3 592.384   7
  -1  -6   8 10067.5 616.166  19
  -1  -6   7 353.707 155.954  19
   1  -6  -7 828.991 163.551  13
   1  -6  -6 1761.60 259.493  13
  -1  -6   6 1607.42 324.062  19
   1  -6  -5 26847.6 1168.57  13
   1  -6  -5 28818.9 1160.21   7
  -1  -6   5 25198.8 1310.52  19
   1  -6  -4 45061.9 1675.98  13
   1  -6  -4 47888.4 1655.64   7
   1  -6  -3-15.6306 148.806   7
  -1  -6   3 217.684 232.203   7
   1  -6  -3 176.487 213.465  13
   1  -6  -2 2008.03 362.916  13
   1  -6  -2 1518.36 328.452   7
  -1  -6   2 2153.42 429.844   7
   1  -6  -1 31559.9 1467.66  13
  -1  -6   1 31494.2 1476.39   7
   1  -6  -1 33061.5 1485.72   7
  -1  -6   0 64096.4 2176.81   7
   1  -6   0 65947.8 2309.98   7
   1  -6   0 58978.7 2221.43  13
   1  -6   1 16476.7 1093.20   7
   1  -6   1 16711.7 993.792  19
  -1  -6  -1 18296.3 966.466   7
  -1  -6  -2 3909.84 483.563  13
   1  -6   2 3811.18 492.892  19
   1  -6   2 4185.40 582.325   7
  -1  -6  -3 4877.49 502.006  13
   1  -6   3 4187.78 589.157   7
   1  -6   3 3912.85 532.761  19
   1  -6   4 33122.3 1601.49  19
  -1  -6  -4 33775.9 1309.64  13
   1  -6   5 48791.0 2068.89   7
   1  -6   5 51188.4 2099.64  19
  -1  -6  -5 55834.2 1672.36  13
   1  -6   6 9827.55 800.906  19
   1  -6   6 8523.95 741.044   7
   1  -6   7 7620.71 645.251  19
   1  -6   7 5926.99 556.358   7
   1  -6   8 15124.0 781.934  19
   1  -6   8 13520.3 697.088   7
  -1  -5  10 638.910 172.929  19
  -1  -5   9 11435.9 790.777  19
  -1  -5   8 2676.61 457.989  19
  -1  -5   7 6860.22 738.060  19
   1  -5  -7 8018.37 572.797  13
   1  -5  -6 35296.5 1390.64  13
   1  -5  -6 37102.6 1417.12   7
  -1  -5   6 33633.4 1719.49  19
  -1  -5   5 7246.25 755.865  19
   1  -5  -5 7246.00 591.419  13
   1  -5  -5 6543.71 559.571   7
  -1  -5   4 18368.3 1079.24   3
   1  -5  -4 16331.4 928.266  13
   1  -5  -4 17862.5 945.639   7
  -1  -5   4 15767.7 1050.26  19
  -1  -5   3 4370.26 528.535   3
   1  -5  -3 5713.27 611.355   3
  -1  -5   3 6107.25 589.934  19
   1  -5  -3 5265.38 525.185  13
   1  -5  -3 5879.33 529.043   7
  -1  -5   2 16282.6 1052.73   3
   1  -5  -2 17870.3 959.621   7
   1  -5  -2 16521.5 942.216  13
   1  -5  -2 15761.3 1004.49   3
  -1  -5   1 4636.47 557.454   3
   1  -5  -1 4777.81 563.097   3
   1  -5   0 1270.29 322.525   3
  -1  -5   0 915.671 326.760   3
  -1  -5  -1 20606.1 1255.46   3
   1  -5   1 21480.7 1156.26   3
   1  -5   2 2438.80 409.381   3
   1  -5   2 3117.56 458.198  19
   1  -5   3 46675.6 1964.88  19
  -1  -5  -3 42854.4 2006.34   3
   1  -5   3 50602.2 1858.80   3
  -1  -5  -3 47417.8 1704.46  13
   1  -5   4 6988.01 756.131  19
  -1  -5  -4 7005.31 769.270   3
  -1  -5  -4 7020.68 561.012  13
   1  -5   5 12135.7 1033.03  19
   1  -5   6 7038.57 798.220  19
   1  -5   7 18694.9 1247.11  19
   1  -5   7 16482.8 1017.97   6
   1  -5   8 10227.7 737.352   6
   1  -5   8 11057.0 887.050  19
   1  -5   9 17780.3 961.949  19
   1  -5   9 15307.4 790.167   6
  -1  -4  11 7727.94 472.972   6
  -1  -4  11 8353.68 552.121  19
  -1  -4  10 830.280 298.569  19
  -1  -4  10 301.881 174.500   6
  -1  -4   9 25600.7 1334.92   6
  -1  -4   8 2523.22 471.232   6
  -1  -4   7 358704. 8531.69   6
   1  -4  -7 372753. 8041.93  13
  -1  -4   6 16020.6 938.913   3
   1  -4  -6 12565.0 1200.11   2
   1  -4  -6 13643.5 794.430  13
   1  -4  -6 16036.9 869.886   7
  -1  -4   5 80366.2 2475.87   3
   1  -4  -5 79434.8 3043.85   2
  -1  -4   4 10752.2 754.554   3
   1  -4  -4 9464.98 727.872   3
   1  -4  -4 10576.3 927.873   2
  -1  -4   3 58360.6 2012.06   3
   1  -4  -3 57999.7 2138.40   2
   1  -4  -3 57064.0 2017.62   3
  -1  -4   2 17266.8 979.646   3
   1  -4  -2 15941.2 923.167   3
   1  -4  -1 20600.3 1040.24   3
  -1  -4   1 21251.0 1111.04   3
  -1  -4   0 141621. 3818.57   3
   1  -4   0 137473. 3627.92   3
  -1  -4  -1 21171.8 1156.00   3
   1  -4   1 19285.4 989.524   3
   1  -4   2 102994. 2936.22   3
  -1  -4  -2 109806. 3221.97   3
   1  -4   3 350467. 7613.66   3
  -1  -4  -3 326804. 7897.94   3
   1  -4   4 28009.9 1256.90   3
   1  -4   5 48727.9 1957.12   6
   1  -4   5 49122.8 1841.61   3
   1  -4   5 52792.2 2160.78  19
   1  -4   6 15438.7 1154.46  19
   1  -4   6 15208.2 1091.94   6
   1  -4   6 15373.0 983.933   3
   1  -4   7 88663.8 3070.39   6
   1  -4   7 82988.2 3105.54  19
   1  -4   8 34177.7 1735.80   6
   1  -4   8 34542.9 1774.60  19
   1  -4   9 20932.4 1257.76  19
   1  -4   9 22141.0 1271.45   6
   1  -4  10 5887.38 550.627  19
   1  -4  10 5148.41 521.657   6
  -1  -3  11 7028.41 612.181  19
  -1  -3  11 7614.03 648.033   6
  -1  -3  10 11542.4 926.227   6
  -1  -3   9 12697.1 1061.53   6
  -1  -3   8 60469.2 2452.58   6
  -1  -3   7 11805.7 796.465   3
  -1  -3   7 13882.9 1022.51   6
   1  -3  -7 9962.64 1140.82   2
   1  -3  -7 15720.3 809.739  13
   1  -3  -7 14603.5 843.125   7
   1  -3  -6 21020.3 1558.51   2
  -1  -3   6 23449.4 1088.27   3
   1  -3  -5 47316.5 2189.41   2
  -1  -3   5 45526.8 1588.88   3
  -1  -3   4 32638.1 1246.24   3
   1  -3  -4 30184.8 1597.73   2
   1  -3  -3 194042. 4682.07   3
  -1  -3   3 203262. 4703.95   3
   1  -3  -3 211259. 5154.85   2
  -1  -3   2 27663.8 1121.47   3
   1  -3  -2 24921.6 1138.55   2
   1  -3  -2 27358.2 1084.32   3
   1  -3  -1 51022.0 1610.66   2
  -1  -3   1 50907.0 1676.04   3
   1  -3  -1 50050.9 1581.28   3
  -1  -3   0 272314. 6085.13   3
   1  -3   0 267036. 5898.96   3
   1  -3   0 269339. 5782.69   2
  -1  -3  -1 41173.5 1203.33   2
   1  -3   1 41355.4 1205.26   2
  -1  -3  -1 39606.5 1465.51   3
   1  -3   1 38887.0 1332.04   3
   1  -3   2 102398. 2685.60   3
  -1  -3  -2 106938. 2792.75   2
   1  -3   3 87327.0 2392.67   3
   1  -3   4 56739.9 1808.67   3
   1  -3   5 38020.1 1466.10   3
   1  -3   6 51258.7 1861.93   3
   1  -3   7 40451.8 1941.02   6
   1  -3   7 42526.2 1743.20   3
   1  -3   7 44112.3 1739.20   1
   1  -3   7 41571.6 1821.10  15
   1  -3   8 109506. 3667.83   6
   1  -3   8 105928. 3396.53  15
   1  -3   9 14215.5 1073.19  19
   1  -3   9 13177.4 974.144  15
   1  -3   9 12824.2 1064.87   6
   1  -3  10 5544.96 650.784   6
   1  -3  10 6350.53 614.958  15
   1  -3  10 5459.00 599.604  19
   1  -3  11 4055.28 386.675  15
   1  -3  11 4375.61 489.360   6
   1  -3  11 4224.91 404.026  19
  -1  -2  12 2232.10 290.460  19
  -1  -2  12 2976.80 306.871  15
  -1  -2  12 2688.23 370.472   6
  -1  -2  11 1501.32 315.993  15
  -1  -2  11 1296.64 347.380   6
  -1  -2  10 8703.98 786.209  15
  -1  -2  10 7680.71 827.915   6
  -1  -2   9 50281.6 2299.16   6
  -1  -2   9 52605.3 2140.79  15
   1  -2  -8 22811.6 1700.48   2
  -1  -2   8 25352.6 1478.22   6
   1  -2  -8 25832.2 1406.13  12
  -1  -2   8 21803.7 1100.27   3
   1  -2  -8 21753.7 1103.92   7
  -1  -2   8 24537.4 1321.79  15
  -1  -2   7 43334.6 1589.53   3
   1  -2  -7 47982.3 2406.59   2
  -1  -2   7 43936.5 1538.29   1
  -1  -2   6 17725.0 855.269   3
   1  -2  -6 17074.2 1312.52   2
  -1  -2   5 45081.1 1419.22   3
   1  -2  -5 40880.3 1960.80   2
  -1  -2   4 190023. 4236.73   3
   1  -2  -4 186882. 4935.29   2
   1  -2  -3 132215. 3452.98   2
  -1  -2   3 122423. 2955.07   3
   1  -2  -2 55822.3 1753.26   2
  -1  -2   2 53699.1 1534.49   3
   1  -2  -1 163282. 3693.50   2
   1  -2  -1 156872. 3531.39   3
  -1  -2   1 160665. 3631.89   3
   1  -2   0 665715. 13056.8   2
   1  -2   0 651067. 13021.6   3
  -1  -2   0 660826. 13152.5   3
  -1  -2   0 646175. 12719.8   2
   1  -2   1 459962. 9293.40   2
   1  -2   1 461337. 9348.69   3
   1  -2   2 268992. 5494.39   2
   1  -2   2 251043. 5520.14   3
   1  -2   3 29291.3 1014.60   3
   1  -2   4 40321.6 1325.81   3
   1  -2   5 231599. 5294.25   3
   1  -2   6 48462.2 1740.37   3
   1  -2   7 22610.3 1160.35   1
   1  -2   7 23869.8 1211.81   3
   1  -2   7 25206.0 1407.64   6
   1  -2   8 134324. 3772.62   1
   1  -2   8 133413. 4188.56   6
   1  -2   8 138936. 4116.91  15
   1  -2   9 68875.1 2792.76   6
   1  -2   9 74841.4 2758.16  15
   1  -2  10 745.815 344.137   6
   1  -2  10 8.19661 245.741  15
   1  -2  11 664.275 256.954   6
   1  -2  11 528.105 212.872  19
   1  -2  11 692.983 263.999  15
   1  -2  12 12073.2 673.614   6
   1  -2  12 11872.1 628.440  15
  -1  -1  12 3946.66 464.013   6
  -1  -1  12 3530.64 413.473  15
  -1  -1  11 13120.1 1001.89   6
  -1  -1  11 11439.7 887.856  15
   1  -1 -10 66293.1 2350.20  20
  -1  -1  10 58448.4 2407.68  15
  -1  -1  10 63044.0 2566.94   6
  -1  -1   9 70326.8 2648.12  15
  -1  -1   9 66257.8 2686.52   6
  -1  -1   8 20971.3 1256.43  15
   1  -1  -8 22247.2 1621.74   2
   1  -1  -8 23325.0 1365.51  12
  -1  -1   7 70542.1 2066.78   1
  -1  -1   6-50.2999 188.508   4
  -1  -1   6 212.012 111.710   3
  -1  -1   5 182214. 4451.34   4
  -1  -1   5 187152. 4126.88   3
  -1  -1   4 154932. 3646.12   4
  -1  -1   4 153414. 3391.14   3
  -1  -1   3 338619. 6856.68   3
  -1  -1   3 337718. 7008.60   4
  -1  -1   2 843954. 16639.6   3
  -1  -1   2 851801. 16616.2   4
   1  -1  -2 851634. 17015.0   2
  -1  -1   1 411078. 7946.43   3
  -1  -1   1 394004. 7732.83   4
   1  -1  -1 389666. 8115.20   2
   1  -1   0 955661. 18568.9   3
   1  -1   0 951266. 18704.2   2
   1  -1   1 54885.7 1258.60   3
   1  -1   1 50404.3 1310.59   2
   1  -1   2 79264.0 1839.31   3
   1  -1   3 57988.9 1521.28   3
   1  -1   4 123920. 2946.44   3
   1  -1   5 59369.7 1777.41   1
   1  -1   5 58244.9 1764.86   3
   1  -1   6 34293.1 1350.70   3
   1  -1   6 34507.4 1345.38   1
   1  -1   7 2949.20 413.527   1
   1  -1   8 44987.6 2004.87   6
   1  -1   8 40900.1 1732.63   1
   1  -1   8 42119.9 1936.06  15
   1  -1   9 6978.28 777.788   6
   1  -1   9 6893.19 806.684  15
   1  -1  10 39620.1 1923.96   6
   1  -1  10 41135.2 1951.23  15
   1  -1  11 1904.88 397.930  15
   1  -1  11 1999.79 409.685   6
   1  -1  12 2282.22 323.386  15
   1  -1  12 2353.27 316.470   6
  -1   0  12 43023.1 1659.71  15
  -1   0  12 43606.9 1600.48   6
  -1   0  11 3607.58 538.879   6
   1   0 -11 2327.20 369.531  20
  -1   0  11 2717.99 484.105  15
   1   0 -10 10286.8 879.676  20
  -1   0  10 9495.73 915.574  15
  -1   0  10 10548.7 957.594   6
  -1   0   9 4095.84 610.520  15
   1   0  -9 4252.71 572.008  20
  -1   0   8 28346.8 1480.24  15
  -1   0   8 29126.9 1635.30   4
   1   0  -8 29042.6 1438.81   5
  -1   0   7 1141.13 365.315   4
  -1   0   6 4671.19 389.672   1
  -1   0   6 4108.65 493.738   4
  -1   0   5 581932. 12148.3   4
  -1   0   5 567366. 11535.3   1
  -1   0   4 608090. 12114.2   3
  -1   0   4 607652. 12094.6   1
  -1   0   4 612513. 12611.6   4
  -1   0   3 817050. 16154.1   1
  -1   0   3 836217. 16184.8   3
  -1   0   3 830169. 16591.4   4
  -1   0   2 11388.3 529.731   4
  -1   0   2 12315.3 352.670   3
   1   0  -1 701879. 13809.4   2
   1   0   0 6571.04 264.073   2
   1   0   0 6863.83 177.809   5
   1   0   0 7101.36 207.750   1
   1   0   1 936837. 18841.0   3
   1   0   1 993658. 18863.8   1
   1   0   1 987877. 18940.7   2
   1   0   2 162905. 3520.35   1
   1   0   2 170242. 3519.70   3
   1   0   3 459704. 9308.58   3
   1   0   3 449807. 9303.48   1
   1   0   3 474880. 9534.86   4
   1   0   4 842.984 196.299   1
   1   0   4 1083.08 257.030   4
   1   0   5 80.5837 146.347   1
   1   0   6 16700.4 902.973   1
   1   0   7 5726.66 582.257   1
   1   0   8 10854.6 895.673   6
   1   0   8 10703.2 862.095   1
   1   0   8 13257.9 1007.56  15
   1   0   8 13163.0 1034.47  10
   1   0   9 24400.3 1475.86  15
   1   0   9 23975.7 1420.98   6
   1   0  10 16006.9 1109.71   6
   1   0  10 14454.0 1113.31  15
   1   0  11 3384.39 453.761   6
   1   0  11 2519.67 441.170  15
   1   0  12 4576.16 466.646  15
   1   0  12 4649.00 387.689   6
  -1   1  12 4247.49 469.164  15
  -1   1  11 11551.3 835.883   6
  -1   1  11 11910.4 934.987  15
   1   1 -10 61510.4 2422.52  20
  -1   1  10 61310.7 2496.25  15
  -1   1  10 63497.4 2406.94   6
   1   1  -9 75810.0 2536.49   8
   1   1  -9 70348.6 2659.12  20
  -1   1   8 22229.4 1313.97  15
   1   1  -8 25359.1 1576.29  21
  -1   1   8 24212.7 1543.71   4
   1   1  -8 21960.8 1306.67   5
   1   1  -8 24076.4 1358.52  20
   1   1  -7 71238.3 2456.55   5
  -1   1   7 76701.4 2829.78   4
   1   1  -6 376.369 175.177   5
  -1   1   6 27.1619 159.540   4
  -1   1   6 96.9538 157.137   1
   1   1  -5 191978. 4488.12   5
  -1   1   5 181720. 4820.14   4
  -1   1   5 192501. 4341.04   1
   1   1  -4 159874. 3673.39   5
  -1   1   4 155489. 3525.83   1
  -1   1   4 153622. 3985.38   4
   1   1  -3 342447. 7114.00   5
  -1   1   3 343411. 6991.12   1
  -1   1   3 338009. 7415.42   4
  -1   1   2 851349. 16596.9   1
   1   1  -2 838894. 16686.0   5
  -1   1   1 394434. 7944.77   5
   1   1  -1 393172. 7866.76   2
   1   1   0 979267. 19193.1   1
  -1   1   0 977287. 18983.2   5
   1   1   1 56754.7 1423.33   1
  -1   1  -1 55263.9 1272.23   5
   1   1   2 79558.1 1970.59   1
   1   1   2 74964.1 1960.54   4
  -1   1  -2 80390.5 1854.47   5
   1   1   3 61158.9 1756.90   4
   1   1   3 55524.2 1647.19   1
   1   1   4 109938. 2948.05   1
   1   1   4 119487. 3120.46   4
   1   1   5 59598.7 2097.83   4
   1   1   5 58087.3 1967.46   1
   1   1   6 36001.4 1520.96   1
  -1   1  -6 35230.2 1440.09   5
   1   1   6 33279.7 1627.66   4
   1   1   7 3109.94 470.754   1
  -1   1  -7 2349.84 398.986   5
   1   1   8 45055.4 1960.11  15
   1   1   8 50279.5 1956.52  17
  -1   1  -8 49095.4 2022.35   5
   1   1   8 41555.6 1912.69   1
   1   1   8 43626.0 1582.60  11
   1   1   9 7536.88 797.254  15
   1   1   9 8298.96 743.131  17
   1   1  10 42426.6 1664.41  17
   1   1  10 40376.8 1897.95  15
   1   1  11 2362.60 418.218  15
   1   1  12 2021.09 305.259  15
  -1   2  12 2655.79 324.358  15
  -1   2  11 999.997 313.544  15
  -1   2  10 8025.82 693.413  17
  -1   2  10 7164.95 750.299  15
  -1   2   9 50848.0 2212.07  15
  -1   2   9 53968.8 2174.72  17
   1   2  -9 54229.0 2107.30   8
   1   2  -8 23072.9 1314.84   8
   1   2  -8 22644.9 1400.32  20
  -1   2   8 24109.0 1391.60  15
  -1   2   8 25364.4 1645.33   4
  -1   2   8 22865.6 1361.02  17
   1   2  -8 25618.4 1469.13   5
  -1   2   7 46817.6 2215.28   4
   1   2  -7 45453.8 1956.71   5
   1   2  -6 17747.0 1073.47   5
  -1   2   6 17806.6 1218.68   4
  -1   2   5 46911.2 1959.72   4
  -1   2   5 45646.8 1585.70   1
   1   2  -5 46754.2 1739.61   5
  -1   2   4 192049. 4409.27   1
   1   2  -4 188595. 4537.20   5
  -1   2   4 183596. 4799.24   4
   1   2  -3 130761. 3224.52   5
  -1   2   3 133633. 3162.73   1
  -1   2   3 123476. 3420.00   4
  -1   2   2 52719.3 1713.83   4
  -1   2   2 54135.3 1593.48   1
   1   2  -2 55039.1 1602.84   5
  -1   2   1 153347. 3351.38   5
   1   2  -1 157109. 3540.69   5
  -1   2   1 157031. 3651.66   4
  -1   2   0 637860. 13027.0   5
   1   2   0 662247. 13172.9   5
  -1   2   0 662481. 13195.3   4
   1   2   0 672163. 13368.0   1
   1   2   1 456187. 9301.78   5
  -1   2  -1 457948. 9266.62   5
   1   2   1 456233. 9169.90   4
   1   2   1 456170. 9533.91   1
  -1   2  -2 250935. 5375.91   5
   1   2   2 246702. 5580.14   1
   1   2   2 248578. 5407.06   4
   1   2   3 28645.7 1137.22   4
  -1   2  -3 26783.9 1044.83   5
   1   2   3 27248.2 1159.07   1
   1   2   4 38181.6 1531.80   1
   1   2   4 39842.4 1547.64   4
  -1   2  -4 38327.9 1448.69   5
   1   2   5 225291. 5678.57   1
  -1   2  -5 238642. 5621.86   5
   1   2   5 228940. 5769.63   4
   1   2   6 48244.4 2085.11   4
  -1   2  -6 46458.1 1868.36   5
   1   2   6 51491.1 2051.37   1
   1   2   7 22677.0 1359.14   1
  -1   2  -7 23242.1 1319.93   5
   1   2   8 140455. 3628.53  11
   1   2   8 139082. 4120.64  17
   1   2   8 136790. 4011.84  15
   1   2   9 76250.2 2260.69  11
   1   2   9 69443.2 2595.35  15
   1   2   9 68500.9 2597.29  17
   1   2  10 735.526 254.162  15
   1   2  10 224.574 176.150  17
   1   2  11 780.826 240.608  15
   1   2  11 217.064 149.366  17
   1   2  12 9748.80 495.834  15
  -1   3  11 7894.69 552.345  17
  -1   3  11 7795.28 584.136  15
  -1   3  10 9239.14 768.429  17
  -1   3  10 9490.15 765.689  15
  -1   3   9 15187.8 1057.83  15
   1   3  -9 13125.2 948.811   8
  -1   3   9 13588.7 1065.25  17
   1   3  -8 59565.8 2295.86   8
  -1   3   8 57124.0 2459.46  17
  -1   3   8 60883.7 2330.79  15
   1   3  -7 12903.8 1042.63   5
   1   3  -7 12839.2 963.425   8
  -1   3   7 12348.5 1060.16  17
  -1   3   7 14155.6 1202.49   4
   1   3  -6 20811.9 1300.96   5
  -1   3   6 23244.3 1484.08   4
   1   3  -5 47482.9 1934.46   5
  -1   3   5 50520.5 1824.76   1
  -1   3   5 45834.1 2073.09   4
  -1   3   4 32894.0 1376.69   1
   1   3  -4 31566.0 1423.73   5
  -1   3   4 32546.4 1563.55   4
   1   3  -3 198494. 4921.30   5
  -1   3   3 211678. 4966.86   1
  -1   3   3 202408. 5134.28   4
  -1   3   2 28345.9 1233.39   4
  -1   3   2 26182.1 1185.96   1
  -1   3   2 25849.7 961.862   5
   1   3  -2 24937.8 1106.60   5
  -1   3   1 52280.9 1696.32   4
   1   3  -1 51113.3 1670.42   5
  -1   3   1 50598.3 1485.83   5
  -1   3   0 267508. 5779.02   5
   1   3   0 252595. 5891.35   5
   1   3   0 263263. 6229.59   1
  -1   3  -1 37421.9 1236.30   4
   1   3   1 36311.6 1277.86   5
   1   3   1 37147.2 1512.48   1
   1   3   1 36983.2 1062.33   4
  -1   3  -1 35751.2 1260.06   5
   1   3   2 99468.3 2606.77   5
  -1   3  -2 98332.6 2509.03   4
   1   3   2 101591. 2940.94   1
  -1   3  -2 94514.1 2612.67   5
   1   3   2 98076.9 2530.82   4
  -1   3  -3 82965.9 2431.33   5
   1   3   3 83086.6 2424.13   4
   1   3   3 81515.1 2645.51   1
  -1   3  -4 55315.3 1978.41   5
   1   3   4 57608.7 2035.35   4
   1   3   4 54594.7 2115.54   1
  -1   3  -5 40591.3 1760.38   5
   1   3   5 39720.3 1767.78   4
   1   3   5 35645.1 1744.93   1
   1   3   6 46826.4 2092.38   1
   1   3   6 49255.0 2167.16   4
  -1   3  -6 44769.4 2007.97   5
   1   3   7 40254.4 1936.13  17
  -1   3  -7 38409.1 1858.86   5
   1   3   7 40289.2 1681.04  18
   1   3   7 42333.0 1624.59  11
   1   3   7 42568.4 1729.29  14
   1   3   8 119358. 3310.41  14
   1   3   8 109864. 3143.87  11
   1   3   8 109812. 3673.32  17
   1   3   9 14349.9 823.375  11
   1   3   9 15256.4 1098.23  17
   1   3  10 6468.81 643.931  17
   1   3  11 4078.90 393.909  17
  -1   4  11 8598.04 498.798  17
  -1   4  10 621.877 228.329  17
  -1   4   9 28342.4 1524.47  17
   1   4  -9 27045.8 1300.39   8
  -1   4   8 2596.05 530.294  17
  -1   4   8 2941.76 446.865  18
   1   4  -8 1994.98 433.333   8
  -1   4   8 2791.47 400.368  14
  -1   4   7 352270. 8253.16  14
  -1   4   7 358142. 8815.96  17
  -1   4   7 347238. 8348.29  18
   1   4  -7 347033. 8400.99   8
  -1   4   6 14453.5 1106.11  18
  -1   4   6 12540.9 1104.64   4
   1   4  -6 13446.8 1085.00   5
  -1   4   6 13441.2 1158.11  17
   1   4  -6 13858.4 1056.80   8
  -1   4   6 11900.2 956.618  14
  -1   4   5 77884.2 2957.71  17
  -1   4   5 77936.3 2924.82   4
   1   4  -5 79531.3 2773.07   8
  -1   4   5 81402.4 2849.75  14
   1   4  -5 82348.9 2896.04   5
  -1   4   5 80272.5 2930.59  18
   1   4  -4 9223.54 803.074   5
  -1   4   4 9709.09 848.144   4
  -1   4   3 62882.4 2225.58   4
   1   4  -3 58088.9 2184.98   5
   1   4  -2 15282.2 954.000   5
  -1   4   1 19442.4 917.569   5
   1   4  -1 22485.0 1118.84   5
   1   4   0 144358. 3732.46   5
  -1   4   0 138309. 3530.47   5
   1   4   1 19819.3 998.256   5
  -1   4  -1 19716.3 981.980   5
   1   4   2 114458. 3064.83   5
  -1   4  -2 104930. 3045.39   5
   1   4   2 106453. 3434.21   1
   1   4   3 347720. 8298.10   1
  -1   4  -3 342433. 7865.64   5
  -1   4  -4 30077.1 1441.17   5
   1   4   4 24765.3 1477.99   1
  -1   4  -5 48060.4 2054.63   5
   1   4   5 50026.4 2106.45  18
   1   4   5 45314.6 2117.56   1
   1   4   5 48230.5 2095.01  17
   1   4   5 48707.5 2032.92  14
   1   4   6 15027.0 1149.96  17
   1   4   6 15710.3 1106.29  18
   1   4   6 14562.3 917.372  11
   1   4   6 14050.7 1046.14  14
   1   4   6 13609.8 1092.40   1
   1   4   7 88937.9 2948.44  14
   1   4   7 88326.8 2751.02  11
   1   4   7 86588.5 3189.15  17
   1   4   7 91138.1 2994.48  18
   1   4   8 37778.1 1492.93  11
   1   4   8 35190.3 1828.84  17
   1   4   8 35166.6 1550.35  18
   1   4   8 37317.7 1603.38  14
   1   4   9 21951.4 1292.13  17
   1   4   9 22315.7 979.271  11
   1   4  10 5612.67 539.494  17
  -1   5  10 590.656 167.767  17
  -1   5   9 12674.5 876.835  17
  -1   5   9 13050.9 634.324  14
  -1   5   8 4448.34 600.332  17
  -1   5   8 3212.74 410.096  14
  -1   5   8 4069.49 481.061  18
   1   5  -8 3242.33 452.412   8
  -1   5   7 7537.57 575.791  11
  -1   5   7 7382.50 770.467  18
  -1   5   7 7285.91 828.426  17
  -1   5   7 7475.92 731.085  14
   1   5  -7 7688.92 769.346   8
  -1   5   6 31866.8 1808.27  17
  -1   5   6 33974.3 1745.63  14
   1   5  -6 33536.7 1704.54   8
  -1   5   6 31394.5 1742.95  18
  -1   5   5 6271.34 768.213  18
   1   5  -5 6042.44 724.687   8
  -1   5   5 6520.67 786.291  17
  -1   5   5 6574.03 766.600  14
   1   5  -4 15210.7 1119.62   5
  -1   5   4 16638.0 1238.00  17
  -1   5   4 16559.6 1268.90  14
  -1   5   4 16881.6 1026.38   8
   1   5  -4 16097.0 1155.09   8
  -1   5   4 15367.5 1249.42  18
  -1   5   3 4664.87 526.145   8
  -1   5   3 4836.11 707.745  18
   1   5  -3 4525.54 619.668   8
  -1   5   3 5373.25 662.031  17
   1   5  -3 4499.75 609.934   5
  -1   5   3 4893.22 679.572  14
  -1   5   2 16282.9 1217.91  14
  -1   5   2 16292.6 1215.39  18
  -1   5   2 16374.5 992.795   8
   1   5  -2 15651.4 1067.70   8
   1   5  -2 16747.5 1092.70   5
  -1   5   1 4823.15 490.908   5
   1   5  -1 4859.18 566.062   5
   1   5   0 354.248 157.976   5
  -1   5   0 749.972 205.066   5
  -1   5  -1 21881.4 1140.62   5
   1   5   1 22645.0 1188.50   5
   1   5   2 1955.18 412.962  18
  -1   5  -2 2807.96 451.875   8
  -1   5  -2 1971.53 364.427   5
   1   5   2 3292.51 463.056   8
   1   5   2 1956.71 438.261  14
  -1   5  -3 42930.8 1837.48   5
   1   5   3 45716.6 2054.01  14
  -1   5  -3 45356.3 1884.63   8
   1   5   3 46357.2 1787.54   8
   1   5   3 44699.2 2070.29  18
   1   5   4 5662.81 662.653  17
   1   5   4 5928.02 732.262  18
   1   5   4 7044.86 638.679   8
   1   5   4 6444.65 750.549  14
  -1   5  -4 6053.57 651.659   8
   1   5   5 11627.7 1024.68  18
   1   5   5 11107.9 958.301  17
  -1   5  -5 13751.7 955.697   8
   1   5   5 10518.7 952.628  14
   1   5   6 7263.62 796.885  17
   1   5   6 7241.10 761.039  14
   1   5   6 8061.42 826.424  18
   1   5   6 6802.94 642.601  11
   1   5   7 19125.1 1268.55  17
   1   5   7 18712.4 1039.43  11
   1   5   7 17935.0 1136.50  14
   1   5   7 19513.4 1175.19  18
   1   5   8 12744.1 816.533  14
   1   5   8 11418.9 901.090  17
   1   5   8 11973.1 716.966  11
   1   5   8 12300.2 791.582  18
   1   5   9 16420.0 690.949  11
   1   5   9 16817.4 776.817   9
   1   5   9 18005.3 746.075  18
   1   5   9 17460.5 968.509  17
  -1   6   8 10200.6 689.382  17
  -1   6   8 10868.8 599.144  14
  -1   6   8 11457.7 624.291  18
   1   6  -8 10098.1 550.310   8
  -1   6   7 1033.83 277.839  18
  -1   6   7 927.030 279.032  17
  -1   6   7 834.642 201.046  11
   1   6  -7 535.445 187.213   8
  -1   6   7 1300.69 279.682  14
   1   6  -6 795.161 282.255   8
  -1   6   6 1919.73 449.487  18
  -1   6   6 1773.68 287.686  11
  -1   6   6 2478.23 451.283  14
  -1   6   6 1791.99 385.167  17
  -1   6   5 25010.4 1533.21  18
  -1   6   5 25697.7 1455.05  17
  -1   6   5 25986.2 1505.12  14
   1   6  -5 26703.2 1468.64   8
  -1   6   4 45539.6 2203.63  18
  -1   6   4 45272.1 1985.72  17
   1   6  -4 41591.3 1982.74   8
  -1   6   4 43187.1 2106.30  14
  -1   6   3 604.499 332.507  18
  -1   6   3-299.296 361.609  14
  -1   6   3 315.141 245.372   8
   1   6  -3 97.5570 183.854  10
   1   6  -3 696.159 330.553   8
   1   6  -2 1203.28 292.077  10
   1   6  -2 1947.98 413.610   8
  -1   6   2 1178.21 406.251  14
  -1   6   2 2038.88 390.427   8
  -1   6   2 1397.04 411.465  18
   1   6  -1 31200.8 1457.31  10
  -1   6   1 28637.3 1704.06  14
  -1   6   1 33520.9 1572.99   8
  -1   6   1 33574.8 1788.86  18
   1   6  -1 30793.5 1613.81   8
  -1   6   0 64391.4 2511.29  18
   1   6   0 64297.2 2433.79   8
   1   6   0 63544.9 2154.38  10
  -1   6   0 63316.2 2587.14  14
  -1   6   0 61346.9 2337.25   8
  -1   6  -1 16098.0 1076.23   8
   1   6   1 15145.5 1080.50  18
   1   6   1 15483.6 1104.88  14
  -1   6  -1 15362.7 1128.59  14
   1   6   1 17512.1 941.061  10
   1   6   1 15404.6 1061.26   8
   1   6   2 3438.71 481.591   8
  -1   6  -2 3885.76 527.728   8
   1   6   2 3603.26 578.702  18
   1   6   2 3603.96 548.155  14
   1   6   3 3773.40 492.314   8
   1   6   3 4087.58 599.321  18
  -1   6  -3 3760.85 533.832   8
   1   6   3 3971.56 582.409  14
   1   6   4 29003.1 1633.56  18
   1   6   4 30590.7 1654.08  14
  -1   6  -4 33023.3 1540.71   8
   1   6   5 52232.3 2212.86  18
   1   6   5 55296.6 2212.80  14
   1   6   5 51616.2 2013.12  17
  -1   6  -5 55784.4 1981.03   8
   1   6   6 10308.0 815.434  14
   1   6   6 10085.7 718.281  11
   1   6   6 10452.9 797.634  17
   1   6   6 9966.90 824.877  18
   1   6   7 7541.09 619.198  14
   1   6   7 7138.98 606.856  18
   1   6   7 7505.75 622.478  17
   1   6   7 6751.31 524.036  11
   1   6   8 16332.4 659.800  11
   1   6   8 16344.6 743.362  18
   1   6   8 16064.4 794.235  17
   1   6   8 17068.2 766.499  14
  -1   7   6 9100.78 473.572  11
  -1   7   6 8765.21 604.045  18
  -1   7   6 8724.52 487.211  17
  -1   7   6 8720.14 588.304  14
   1   7  -6 8283.29 546.294  10
   1   7  -6 9143.86 545.638   8
  -1   7   5 14031.6 722.919  11
  -1   7   5 13878.5 884.252  18
  -1   7   5 16165.7 926.803  14
   1   7  -5 15345.4 855.668   8
   1   7  -5 14386.8 816.347  10
   1   7  -4 1434.60 289.138  10
  -1   7   4 1258.07 319.558  18
  -1   7   4 2113.95 397.483  14
   1   7  -4 1351.93 312.950   8
  -1   7   3 44410.6 1924.21  14
  -1   7   3 47573.2 1989.53  18
   1   7  -3 50436.8 1955.36   8
   1   7  -3 48432.2 1749.89  10
  -1   7   2 53820.5 2180.96  14
   1   7  -2 53134.0 1857.47  10
   1   7  -2 54129.9 2092.99   8
  -1   7   2 53551.6 2143.30  18
  -1   7   2 57004.2 2000.49   8
  -1   7   1 25811.4 1258.25   8
  -1   7   1 22773.0 1278.95  18
   1   7  -1 22650.8 1254.10   8
   1   7  -1 22221.4 1059.99  10
  -1   7   1 20618.6 1257.92  14
   1   7   0 27770.1 1363.37   8
  -1   7   0 28013.1 1330.22   8
  -1   7   0 24055.3 1310.42  14
   1   7   0 25709.1 1103.41  10
   1   7   1 37258.8 1563.18  14
   1   7   1 38952.5 1565.15  18
  -1   7  -1 42707.4 1694.01   8
   1   7   1 42020.0 1696.24   8
   1   7   2 433.422 191.940  14
   1   7   2 507.427 207.159  18
   1   7   2 773.544 252.321   8
  -1   7  -2 769.680 244.562   8
  -1   7  -3 11404.1 691.142  10
   1   7   3 14403.4 934.090  14
  -1   7  -3 13122.8 812.047   8
   1   7   3 13166.7 896.054  18
   1   7   4 36355.9 1539.32  18
  -1   7  -4 32326.7 1296.48  10
  -1   7  -4 38067.3 1365.53   8
   1   7   4 36385.1 1507.63  14
   1   7   5 5867.14 537.300  18
   1   7   5 6036.96 484.420  11
   1   7   5 5767.48 515.631  14
  -1   7  -5 4611.85 413.187  10
   1   7   6 11181.5 628.975  14
   1   7   6 11399.4 573.552  11
   1   7   6 10834.8 627.194  18
  -1   8   3 15463.8 654.132  18
  -1   8   3 17032.6 708.986  14
   1   8  -3 17343.1 717.572   8
   1   8  -2-83.8528 127.611   8
  -1   8   2 33.4158 79.0483  18
  -1   8   2 109.157 93.9935  14
   1   8  -1 14899.3 721.000   8
  -1   8   1 11034.5 541.265  14
   1   8   0 17102.2 795.018   8
  -1   8  -1 29431.4 1045.12   8
   1   8   2 3582.14 311.452  11
  -1   8  -2 3922.59 301.134   8
   1   8   3 5151.42 347.246  11
   2  -8  -2 12548.0 550.036  13
  -2  -8   2 11332.7 560.825  13
   2  -8  -2 12560.5 503.757   7
  -2  -8   1 4545.70 338.535  13
   2  -8  -1 4895.80 342.832  13
   2  -8  -1 5004.18 326.260   7
  -2  -8   0 15259.5 628.401  13
   2  -8   0 16948.8 677.261   7
   2  -8   0 16646.6 668.744  13
   2  -8   1 11206.5 504.968  13
  -2  -8  -1 11078.7 466.824  13
   2  -8   1 11588.6 549.748   7
   2  -8   2 1056.84 167.070   7
   2  -8   2 1009.14 129.127  13
   2  -7  -6 6372.44 374.108  13
  -2  -7   6 5149.49 396.108   7
   2  -7  -5 29546.3 977.276   7
   2  -7  -5 29820.4 1059.48  13
   2  -7  -4 10247.2 620.306  13
   2  -7  -4 10091.4 580.734   7
   2  -7  -3 1710.51 295.324  13
  -2  -7   3 1804.20 281.863   7
   2  -7  -3 2118.01 295.352   7
   2  -7  -2 13136.1 784.176   7
   2  -7  -2 13146.8 787.299  13
  -2  -7   2 13296.8 729.004   7
   2  -7  -1 4976.90 502.605  13
   2  -7  -1 4524.81 471.193   7
   2  -7   0 15592.5 800.212  19
   2  -7   0 17055.9 933.138  13
  -2  -7   0 14802.9 884.139  13
   2  -7   0 15361.2 921.877   7
   2  -7   1 15444.9 824.572  19
   2  -7   1 14246.3 897.174   7
  -2  -7  -1 13911.4 810.086  13
   2  -7   1 14035.8 839.276  13
  -2  -7  -2 5644.81 461.772  13
   2  -7   2 5549.57 505.436  19
   2  -7   2 5743.26 567.747   7
   2  -7   2 5814.57 512.668  13
   2  -7   3 8804.60 581.163  13
   2  -7   3 8791.72 690.985   7
  -2  -7  -3 9914.77 539.561  13
   2  -7   3 8565.70 632.552  19
   2  -7   4 8287.80 600.726  19
   2  -7   4 8885.51 487.465  13
   2  -7   4 9197.98 654.930   7
   2  -7   5 207.838 148.213   7
   2  -7   5 227.339 113.187  19
   2  -7   6 9026.42 495.414  19
   2  -7   6 8919.38 479.684   7
  -2  -6   8 6680.68 447.295  19
   2  -6  -8 6944.98 366.215  13
   2  -6  -7 7519.27 474.453   7
   2  -6  -7 8182.75 513.708  13
  -2  -6   7 6658.11 527.589  19
   2  -6  -6 17629.7 861.882   7
   2  -6  -6 17283.2 870.115  13
  -2  -6   6 16355.8 922.743  19
   2  -6  -5 20212.0 1002.38  13
   2  -6  -5 20014.9 988.187   7
   2  -6  -4 4832.86 501.391  13
   2  -6  -4 5393.51 514.602   7
  -2  -6   3 16316.2 1029.81   7
   2  -6  -3 17638.8 998.714  13
   2  -6  -3 19132.1 1028.58   7
  -2  -6   2 29739.4 1403.39   7
   2  -6  -2 31342.6 1417.63  13
   2  -6  -2 31918.4 1427.80   7
   2  -6  -1 119814. 3487.07  13
   2  -6  -1 124503. 3421.29  19
   2  -6  -1 130164. 3587.68   7
  -2  -6   1 121768. 3400.96   7
   2  -6   0 58557.6 2136.65  13
   2  -6   0 61198.9 2124.73  19
   2  -6   0 58486.2 2193.75   7
   2  -6   1 55723.1 2055.67  19
   2  -6   1 49392.3 1935.73  13
   2  -6   1 52839.6 2096.17   7
   2  -6   2 28398.6 1434.97  19
   2  -6   2 28644.4 1366.68  13
  -2  -6  -2 28208.8 1288.37  13
   2  -6   2 28159.5 1487.38   7
   2  -6   3 18600.1 1170.18  19
   2  -6   3 18515.2 1190.06   7
   2  -6   3 16723.9 971.718  13
  -2  -6  -3 19568.0 971.653  13
   2  -6   4 8572.54 808.564  19
   2  -6   4 10256.9 857.892   7
   2  -6   4 9351.42 665.555  13
   2  -6   5 44772.8 1873.01   7
   2  -6   5 45206.7 1910.73  19
   2  -6   6 8213.82 723.381  19
   2  -6   6 6753.74 626.314   7
   2  -6   7 6115.75 555.438  19
   2  -6   7 6191.54 506.166   7
   2  -6   8 43972.1 1365.55  19
   2  -6   8 37627.0 1121.56   7
  -2  -5  10 2451.92 287.109  19
  -2  -5   9 9775.27 701.778  19
  -2  -5   8 12375.1 896.665  19
   2  -5  -8 14426.7 730.775  13
   2  -5  -8 13209.4 731.142   7
  -2  -5   7 39671.8 1809.11  19
   2  -5  -7 44948.3 1620.57   7
   2  -5  -7 43799.9 1571.98  13
  -2  -5   6 17014.3 1131.47  19
   2  -5  -6 18103.1 974.033  13
   2  -5  -6 18348.8 988.079   7
   2  -5  -5 9528.81 697.559   7
  -2  -5   5 8069.77 756.164  19
   2  -5  -5 8058.84 638.753  13
   2  -5  -4 3043.64 419.944   7
   2  -5  -4 2782.99 399.504  13
   2  -5  -3 41642.0 1608.96  13
   2  -5  -3 40679.7 1602.31   7
  -2  -5   3 40057.9 1732.62   3
  -2  -5   2 35455.5 1653.47   3
   2  -5  -2 35086.4 1478.01   7
   2  -5  -2 36708.3 1451.83  19
   2  -5  -2 35355.0 1459.23  13
  -2  -5   1 1117.08 332.921   3
   2  -5  -1 1583.61 323.159   3
   2  -5  -1 1560.89 325.765   7
   2  -5  -1 1077.79 266.347  13
  -2  -5   0 10500.8 895.263   3
   2  -5   0 10360.5 715.665   3
   2  -5   0 8947.42 703.057  19
   2  -5   0 9735.16 763.050   7
   2  -5   0 8671.53 666.163  13
  -2  -5  -1 15826.4 1116.59   3
   2  -5   1 15524.9 914.731   3
   2  -5   1 16580.3 1030.64   7
   2  -5   1 15871.5 1004.16  19
   2  -5   2 82837.8 2555.46   3
  -2  -5  -2 79426.0 2930.31   3
   2  -5   2 88727.3 2850.34   7
   2  -5   2 86092.8 2827.64  19
   2  -5   3 32418.1 1579.62   7
   2  -5   3 31953.5 1393.19   3
   2  -5   3 30992.5 1595.17  19
  -2  -5  -3 29922.5 1618.56   3
   2  -5   4 73810.9 2762.95  19
   2  -5   5 92822.1 3252.71  19
   2  -5   5 92469.9 2994.26   6
   2  -5   6 20091.1 1320.90  19
   2  -5   6 19725.6 1201.48   6
   2  -5   7 39824.6 1723.28   6
   2  -5   7 40044.8 1854.36  19
   2  -5   8 28185.7 1203.83   7
   2  -5   8 28031.8 1287.26   6
   2  -5   8 26854.7 1357.15  19
   2  -5   9 1240.66 252.090  19
   2  -5   9 1497.97 243.529   6
  -2  -4  11 27217.3 1070.34  19
  -2  -4  10 18253.1 922.722   6
  -2  -4  10 17392.8 1021.19  19
   2  -4  -9 9178.07 576.419  13
  -2  -4   9 7488.94 660.752   6
  -2  -4   8 66747.8 2391.87   6
   2  -4  -8 70219.0 2269.64   7
   2  -4  -8 72567.8 2182.88  13
   2  -4  -7 4008.94 472.985   7
   2  -4  -7 4458.39 477.032  13
  -2  -4   6 33073.1 1389.10   3
   2  -4  -6 31450.6 1888.98   2
   2  -4  -6 30887.3 1335.33  13
   2  -4  -6 36087.6 1431.88   7
   2  -4  -5 27046.3 1656.02   2
  -2  -4   5 26197.2 1228.35   3
   2  -4  -5 25968.2 1384.47  16
   2  -4  -5 29917.3 1219.22  13
   2  -4  -5 28389.2 1216.83   7
   2  -4  -4 42186.7 1977.08   2
  -2  -4   4 43580.6 1681.05   3
  -2  -4   3 73931.8 2360.47   3
   2  -4  -3 69430.8 2533.80   2
  -2  -4   2 10694.4 794.643   3
   2  -4  -2 10351.4 778.195   2
   2  -4  -2 10796.4 674.307   3
  -2  -4   1 47692.9 1841.06   3
   2  -4  -1 46687.4 1601.45   3
   2  -4  -1 47091.9 1688.75   2
   2  -4   0 40279.8 1476.51   3
  -2  -4   0 44309.0 1792.28   3
   2  -4   1 10835.4 677.865   3
  -2  -4  -1 9644.30 803.344   3
   2  -4   2 43729.5 1550.50   3
  -2  -4  -2 38973.9 1753.11   3
   2  -4   3 88153.7 2571.18   3
   2  -4   4 35681.8 1465.86   3
   2  -4   5 2818.83 395.348   3
   2  -4   5 3274.44 521.174   6
   2  -4   5 3246.71 525.722  19
   2  -4   6 3941.11 596.896  19
   2  -4   6 4140.53 548.050  15
   2  -4   6 3662.27 589.764   6
   2  -4   7 5855.45 735.314   6
   2  -4   7 6425.27 750.384  19
   2  -4   7 7020.29 689.761  15
   2  -4   8 8860.19 847.645  19
   2  -4   8 9773.61 895.078   6
   2  -4   8 10315.9 797.820  15
   2  -4   9 8258.12 756.505   6
   2  -4   9 8157.83 635.523  15
   2  -4   9 7962.80 721.522  19
   2  -4  10 13317.2 810.343   6
   2  -4  10 12998.2 721.761  19
  -2  -3  11 10011.9 721.592   6
  -2  -3  10 23128.8 1313.46   6
   2  -3  -9 51545.0 1738.37  13
  -2  -3   9 52938.5 2215.86   6
   2  -3  -8 166812. 4042.58  13
   2  -3  -8 153814. 4168.08   7
  -2  -3   8 156081. 4588.66   6
   2  -3  -7 10231.2 689.016  13
  -2  -3   7 9821.87 681.938   3
  -2  -3   7 10591.4 878.555   6
   2  -3  -7 8918.86 691.774   7
   2  -3  -7 9714.11 1117.05   2
   2  -3  -6 46292.3 2348.99   2
  -2  -3   6 45182.5 1581.48   3
   2  -3  -5 72516.6 2840.02   2
  -2  -3   5 65717.9 2017.58   3
  -2  -3   4 69308.7 2089.04   3
   2  -3  -4 73591.9 2679.06   2
   2  -3  -3 106543. 2698.76   3
  -2  -3   3 106194. 2838.07   3
   2  -3  -3 108123. 3254.84   2
   2  -3  -2 91986.6 2698.50   2
  -2  -3   2 91383.3 2503.45   3
   2  -3  -1 143905. 3707.49   2
  -2  -3   1 148086. 3710.50   3
   2  -3  -1 146988. 3427.60   3
   2  -3   0 7287.70 524.846   2
   2  -3   0 6181.69 438.607   3
  -2  -3   0 6836.89 562.610   3
   2  -3   1 33998.9 1235.48   2
   2  -3   1 32749.5 1157.12   3
   2  -3   2 12525.3 660.483   3
   2  -3   2 12111.6 682.169   2
   2  -3   3 17560.7 840.998   3
   2  -3   4 37113.7 1401.98   3
   2  -3   5 16054.3 922.276   3
   2  -3   6 9185.04 859.802   6
   2  -3   6 8057.46 677.171   3
   2  -3   6 8672.18 777.888  15
   2  -3   7 41579.2 1995.34   6
   2  -3   7 38749.1 1856.72  19
   2  -3   7 39115.3 1847.45  15
   2  -3   8 7540.88 779.933  15
   2  -3   8 6364.93 775.607   6
   2  -3   8 7773.39 778.995  19
   2  -3   9 9344.61 809.995  19
   2  -3   9 9344.96 852.753  15
   2  -3   9 8968.83 901.988   6
   2  -3  10 17784.4 1119.45   6
   2  -3  10 17412.3 1028.28  15
   2  -3  10 17343.7 953.218  19
   2  -3  11 1459.93 288.360   6
   2  -3  11 806.430 187.308  15
  -2  -2  12 3921.41 416.942   6
  -2  -2  12 3889.45 314.629  15
   2  -2 -11 3199.48 388.070  20
  -2  -2  11 3048.94 473.308   6
  -2  -2  11 3201.31 409.881  15
  -2  -2  10 23881.4 1457.50   6
  -2  -2  10 24748.4 1292.30  15
  -2  -2   9 18897.5 1331.97   6
  -2  -2   9 19211.0 1156.19  15
   2  -2  -9 18574.6 959.996  13
   2  -2  -9 18303.4 1239.72  12
   2  -2  -8 111903. 2961.23  13
   2  -2  -8 110651. 4101.70   2
  -2  -2   8 100767. 3173.14  15
   2  -2  -8 115007. 3564.44  12
   2  -2  -8 102674. 3104.34   7
   2  -2  -7 73492.7 3140.07   2
  -2  -2   7 74166.3 2164.24   3
  -2  -2   6 150303. 3586.32   3
   2  -2  -6 146199. 4669.48   2
   2  -2  -5 50406.1 2184.88   2
  -2  -2   5 48319.3 1466.39   3
  -2  -2   4 199250. 4477.12   3
   2  -2  -4 214154. 5359.35   2
  -2  -2   3 93461.1 2301.32   3
   2  -2  -3 94461.2 2801.68   2
   2  -2  -3 88084.2 2155.10   3
  -2  -2   2 412130. 8299.38   3
   2  -2  -2 423806. 8694.99   2
   2  -2  -1 179346. 4271.52   2
  -2  -2   1 175926. 4113.50   3
   2  -2  -1 187567. 3885.25   3
   2  -2   0 55373.4 1430.14   3
   2  -2   0 56688.3 1667.48   2
   2  -2   1 52257.7 1549.01   2
   2  -2   1 51714.6 1391.90   3
   2  -2   2 415763. 8503.04   3
   2  -2   2 412318. 8682.98   2
   2  -2   3 259619. 5631.05   3
   2  -2   4 40948.8 1400.10   3
   2  -2   5 78411.7 2329.68   3
   2  -2   6 56739.6 1991.59   3
   2  -2   6 55849.1 1986.58   1
   2  -2   7 32511.7 1688.28   6
   2  -2   7 33788.9 1673.14  15
   2  -2   7 35195.9 1550.65   1
   2  -2   7 32514.9 1517.37   3
   2  -2   8 25209.8 1531.67   6
   2  -2   8 23742.7 1448.15  15
   2  -2   9 20168.8 1199.75  19
   2  -2   9 21422.4 1375.19  15
   2  -2   9 20633.4 1380.83   6
   2  -2  10 3729.24 539.356  15
   2  -2  10 4115.64 608.114   6
   2  -2  11 7090.26 623.627  15
   2  -2  11 6683.79 618.974   6
  -2  -1  12 9492.35 713.080   6
  -2  -1  12 11018.7 686.962  15
  -2  -1  11 2203.28 425.363  15
  -2  -1  11 2051.16 427.841   6
   2  -1 -11 2376.02 388.201  20
  -2  -1  10 4752.11 683.427   6
   2  -1 -10 5113.05 621.727  20
  -2  -1  10 5186.11 651.024  15
   2  -1  -9 14071.6 842.630  13
  -2  -1   9 15069.9 1086.58  15
   2  -1  -8 18126.0 1438.20   2
   2  -1  -8 21210.2 1007.83  13
  -2  -1   8 19760.5 1184.68  15
   2  -1  -8 19405.6 1270.96  12
   2  -1  -7 15535.1 1318.50   2
  -2  -1   7 22228.2 1197.48   4
  -2  -1   6 96983.0 2438.84   3
  -2  -1   6 98308.7 2877.85   4
   2  -1  -6 96210.5 3341.92   2
  -2  -1   5 32021.6 1301.86   4
  -2  -1   5 34114.1 1041.06   3
   2  -1  -5 33746.8 1630.13   2
  -2  -1   4 101552. 2645.28   4
  -2  -1   4 102064. 2319.54   3
   2  -1  -4 100508. 3034.47   2
  -2  -1   3 281222. 5829.94   3
   2  -1  -3 291502. 6522.51   2
  -2  -1   3 293299. 6081.40   4
   2  -1  -2 238741. 5155.81   2
  -2  -1   2 230283. 4745.30   4
   2  -1  -2 219335. 4467.36   3
  -2  -1   2 233940. 4671.80   3
  -2  -1   1 142664. 3072.41   3
  -2  -1   1 138487. 3037.10   4
   2  -1  -1 142963. 2847.73   3
   2  -1  -1 145657. 3344.64   2
   2  -1   0 381486. 7566.78   3
   2  -1   0 390953. 7928.40   2
   2  -1   1 949257. 19193.0   2
   2  -1   1 979697. 18935.9   3
   2  -1   2 100718. 2454.86   2
   2  -1   2 96235.3 2266.08   3
   2  -1   3 87912.7 2188.96   3
   2  -1   4 75855.5 2083.45   1
   2  -1   4 75781.6 2071.49   3
   2  -1   5 19067.7 922.401   3
   2  -1   5 19877.5 943.232   1
   2  -1   6 41840.0 1619.90   1
   2  -1   7 90651.8 2862.15   1
   2  -1   8 102729. 3423.94   6
   2  -1   8 105045. 3451.22  15
   2  -1   8 101991. 3248.65   1
   2  -1   9 57525.9 2426.57  15
   2  -1   9 57099.0 2395.64   6
   2  -1  10 23154.9 1371.10   6
   2  -1  10 23978.4 1429.26  15
   2  -1  11 26364.9 1286.29   6
   2  -1  11 27291.3 1361.41  15
   2  -1  12 32373.4 1102.80   6
   2  -1  12 36913.3 1289.41  15
  -2   0  12 20246.4 1040.92   6
  -2   0  12 21597.0 1077.74  15
  -2   0  11 285.376 269.021   6
   2   0 -11-377.199 223.677  20
  -2   0  11 432.259 293.247  15
   2   0 -11 37.4233 161.450   8
   2   0 -10 25651.9 1475.28  20
  -2   0  10 26210.9 1513.65  15
   2   0  -9 29809.1 1590.20  20
   2   0  -9 28359.5 1675.88  21
  -2   0   9 27449.5 1538.79  15
  -2   0   8 6507.70 765.564   4
   2   0  -8 7146.54 679.144   5
   2   0  -8 7003.84 571.920  13
  -2   0   8 6465.94 689.740  15
   2   0  -8 6656.18 753.580  21
   2   0  -8 6101.63 714.357  12
   2   0  -8 6162.13 819.019   2
  -2   0   7 63650.9 2466.50   4
   2   0  -7 63557.9 2621.79   2
   2   0  -7 67488.2 2198.05   5
   2   0  -6 49680.4 2098.66   2
   2   0  -6 48872.2 1666.46   5
  -2   0   6 49929.3 1979.19   4
  -2   0   5 843071. 17383.5   4
   2   0  -5 806206. 17486.1   2
  -2   0   5 848115. 16557.2   1
  -2   0   4 959665. 18944.2   1
   2   0  -4 999999. 19805.9   2
  -2   0   4 989693. 19715.9   4
  -2   0   3 222983. 5083.26   4
  -2   0   3 223642. 4520.12   3
   2   0  -3 230468. 5152.18   2
  -2   0   3 226783. 4479.49   1
   2   0  -2 117801. 2966.69   2
  -2   0   2 125425. 2483.07   3
   2   0  -2 129316. 2654.66   5
  -2   0   2 119333. 2956.25   4
   2   0  -1 8882.14 251.087   1
   2   0  -1 8040.79 257.787   5
  -2   0   1 8372.79 441.800   4
  -2   0   1 7641.28 223.151   3
   2   0   0 835613. 16768.4   2
   2   0   0 857552. 16561.9   1
   2   0   1 112608. 2413.84   1
   2   0   1 105763. 2539.58   2
   2   0   2 22032.7 758.494   1
   2   0   3 86292.3 2199.07   1
   2   0   4 22800.2 964.384   1
   2   0   5 4195.16 441.486   1
   2   0   6 8397.04 685.933   1
   2   0   7-20.8547 243.896   1
   2   0   8 2484.91 368.575  11
   2   0   8 1765.12 458.497  10
   2   0   8 1385.68 356.733  15
   2   0   8 1974.04 443.071   1
   2   0   8 1676.51 375.255   6
   2   0   9 66309.9 2774.59  10
   2   0   9 64677.0 2225.85  11
   2   0   9 72739.2 2753.94  15
   2   0  10 64398.3 2344.68   6
   2   0  10 60901.0 2447.96  15
   2   0  11-103.107 237.471  15
   2   0  11 93.0555 157.022   6
   2   0  12 136.313 130.788  15
  -2   1  12 9710.46 608.003   6
  -2   1  12 10460.5 725.508  15
  -2   1  11 1887.00 374.085   6
  -2   1  11 1717.51 376.858  15
   2   1 -11 1995.73 350.363   8
   2   1 -10 4707.41 644.821  20
  -2   1  10 4160.80 619.555  15
   2   1 -10 4891.67 607.444   8
   2   1  -9 17586.6 1369.63  21
   2   1  -9 15731.2 1174.22  20
  -2   1   9 13761.6 1096.06  15
   2   1  -8 20027.6 1407.81  21
   2   1  -8 18637.5 1189.76   5
  -2   1   8 19958.1 1421.88   4
   2   1  -8 20853.4 1290.79  20
   2   1  -7 16230.4 1157.70   2
  -2   1   7 20006.8 1335.78   4
   2   1  -7 19416.8 1115.12   5
  -2   1   6 93753.8 3173.12   4
   2   1  -6 96761.0 3049.09   2
   2   1  -6 99326.5 2842.05   5
  -2   1   5 35217.5 1589.97   4
   2   1  -5 35573.0 1327.96   5
   2   1  -5 32762.9 1406.73   2
   2   1  -4 104768. 2842.96   2
  -2   1   4 111906. 2454.59   1
   2   1  -4 109627. 2754.32   5
  -2   1   4 103628. 3097.90   4
   2   1  -3 281292. 6403.93   5
   2   1  -3 302809. 6486.51   2
  -2   1   3 284966. 6786.26   4
   2   1  -2 234334. 4926.55   5
   2   1  -2 233816. 4864.13   2
  -2   1   2 225882. 5230.96   4
   2   1  -1 141301. 3130.55   1
   2   1  -1 140217. 3084.33   5
   2   1  -1 144607. 2994.80   2
   2   1   0 373576. 7624.95   5
  -2   1   0 376635. 7407.69   5
   2   1   0 387769. 7763.14   1
   2   1   0 384889. 7582.74   2
   2   1   1 980532. 18934.2   5
   2   1   1 951031. 19124.7   1
  -2   1  -1 961529. 18812.0   5
   2   1   2 97025.8 2456.94   1
   2   1   3 88014.3 2391.24   1
   2   1   4 70275.4 2219.28   1
   2   1   5 19645.6 1099.51   1
  -2   1  -6 42240.3 1616.24   5
   2   1   6 38762.6 1750.01   1
   2   1   7 89644.7 3042.06   1
  -2   1  -7 88765.0 2842.60   5
   2   1   8 106043. 3492.52  10
   2   1   8 101119. 3455.71   1
   2   1   8 102566. 3269.24  17
  -2   1  -8 108197. 3350.30   5
   2   1   8 102148. 3332.87  15
   2   1   8 106840. 3008.05  11
   2   1   9 58505.7 2027.92  11
   2   1   9 56341.2 2377.55  10
   2   1   9 61468.7 2266.27  17
   2   1   9 58516.9 2357.18  15
   2   1  10 25388.1 1229.63  17
   2   1  10 23805.3 1104.07  11
   2   1  10 23510.8 1368.47  15
   2   1  11 25467.3 1257.07  15
   2   1  12 34388.7 1168.68  15
  -2   2  12 4025.08 406.004  15
  -2   2  11 2911.44 448.408  15
   2   2 -11 3158.44 388.880   8
  -2   2  10 26022.7 1321.13   6
  -2   2  10 25459.5 1270.16  17
  -2   2  10 25401.7 1451.65  15
   2   2 -10 25406.0 1356.15   8
  -2   2   9 19080.5 1199.20  17
  -2   2   9 18990.5 1285.58  15
   2   2  -9 20220.7 1261.89   8
   2   2  -9 19033.4 1334.32  20
   2   2  -8 107509. 3557.09  20
  -2   2   8 111857. 3899.77   4
  -2   2   8 105987. 3422.45  17
   2   2  -8 105910. 3469.29   5
   2   2  -8 103273. 3751.89  21
   2   2  -8 106017. 3407.23   8
  -2   2   7 75964.3 3051.20   4
   2   2  -7 80247.4 2774.85   5
   2   2  -6 145156. 4000.10   5
  -2   2   6 141016. 4369.22   4
  -2   2   5 48481.4 2072.58   4
   2   2  -5 46220.8 1753.42   5
  -2   2   4 210171. 5479.85   4
   2   2  -4 205655. 5036.81   5
  -2   2   4 223170. 4752.81   1
   2   2  -3 95421.6 2632.43   5
  -2   2   3 104375. 2474.55   1
  -2   2   3 97353.5 2946.71   4
   2   2  -2 415174. 8800.53   5
  -2   2   2 428346. 9133.32   4
  -2   2   1 189301. 3849.88   5
  -2   2   1 181584. 4384.40   4
   2   2  -1 183986. 4175.91   5
   2   2  -1 178735. 4279.11   1
  -2   2   0 56821.8 1763.86   4
   2   2   0 58720.0 1782.41   1
   2   2   0 58337.9 1630.68   5
  -2   2   0 58678.1 1427.20   5
   2   2   1 49262.0 1632.49   1
  -2   2  -1 50626.4 1335.05   5
   2   2   1 49318.7 1438.76   5
  -2   2  -2 408943. 8442.60   5
   2   2   2 411221. 8840.58   1
  -2   2  -3 269494. 5846.22   5
   2   2   3 261954. 6176.64   1
  -2   2  -4 41407.5 1491.90   5
   2   2   4 38143.7 1642.23   1
   2   2   5 69326.6 2590.92   1
  -2   2  -5 74726.0 2367.14   5
  -2   2  -6 47730.7 1918.23   5
   2   2   6 52963.4 2245.70   1
   2   2   7 36033.5 1716.86  17
   2   2   7 37123.3 1466.59  11
   2   2   7 33922.9 1803.65   1
   2   2   7 38351.9 1668.06  10
   2   2   7 34599.2 1469.74  14
   2   2   8 23732.4 1416.83  17
   2   2   8 26125.2 1231.13  11
   2   2   8 25085.0 1405.05  10
   2   2   8 22922.9 1302.44  15
   2   2   9 19421.5 1047.51  11
   2   2   9 22205.3 1313.50  17
   2   2   9 20531.8 1219.76  15
   2   2  10 3844.93 411.144  11
   2   2  10 3158.69 446.178  15
   2   2  11 6098.82 473.247  17
   2   2  11 5411.83 462.314  15
  -2   3  11 10127.5 601.578  17
  -2   3  11 10029.6 683.538  15
  -2   3  10 25326.2 1287.31  17
   2   3 -10 23772.5 1238.93   8
  -2   3  10 23606.9 1281.66  15
   2   3  -9 47080.4 2040.82   8
  -2   3   9 49933.2 2153.27  17
  -2   3   9 49839.6 2107.72  15
   2   3  -8 152607. 4515.46   8
  -2   3   8 161640. 4766.45  17
   2   3  -7 7466.20 800.335   5
   2   3  -7 8349.36 893.182  21
  -2   3   7 8823.49 972.250   4
  -2   3   7 7490.27 831.175  17
   2   3  -7 8226.53 806.687   8
  -2   3   6 43469.3 2189.93   4
   2   3  -6 43984.1 1951.46   5
   2   3  -5 71660.5 2518.18   5
  -2   3   5 71993.2 2801.65   4
   2   3  -4 66863.8 2312.46   5
  -2   3   4 69959.9 2607.05   4
   2   3  -3 107530. 3043.28   5
  -2   3   3 107224. 3319.36   4
  -2   3   2 92388.8 2857.55   4
   2   3  -2 91732.7 2652.01   5
   2   3  -1 148006. 3672.17   5
  -2   3   1 142089. 3819.50   4
  -2   3   1 145553. 3279.84   5
   2   3   0 6544.41 518.396   5
   2   3   0 6573.35 611.649   1
  -2   3   0 6679.14 421.111   5
  -2   3   0 6667.13 564.848   4
  -2   3  -1 30233.8 1281.75   4
   2   3   1 31886.2 1209.90   5
   2   3   1 31494.6 1421.56   1
  -2   3  -1 33495.2 1130.79   5
   2   3   2 12369.8 875.717   1
   2   3   2 12882.9 723.416   5
  -2   3  -2 11873.8 662.028   5
   2   3   3 16651.0 1070.58   1
  -2   3  -3 16633.9 868.644   5
  -2   3  -4 38272.0 1519.19   5
   2   3   4 34106.2 1704.26   1
  -2   3  -5 13578.9 942.395   5
   2   3   5 12906.6 1066.68   1
   2   3   6 8906.97 692.175  11
   2   3   6 8320.48 728.671  18
   2   3   6 8850.16 932.119   1
   2   3   6 9108.86 753.636  14
  -2   3  -6 6650.95 704.378   5
   2   3   6 8151.02 784.456  17
   2   3   7 42851.3 1678.94  11
   2   3   7 38118.3 1688.87  14
   2   3   7 41350.3 1708.53  18
   2   3   7 37640.5 1886.16  17
   2   3   8 6960.30 640.643  14
   2   3   8 6297.36 755.218  17
   2   3   8 6623.82 613.022  11
   2   3   8 7268.92 624.430  18
   2   3   9 10276.8 706.265  11
   2   3   9 10444.8 681.973   9
   2   3   9 10234.7 889.396  17
   2   3  10 16263.0 993.680  17
   2   3  10 16167.9 786.428  11
   2   3  11 952.083 190.796  17
  -2   4  11 24832.2 883.735  17
  -2   4  10 17936.3 1003.64  17
  -2   4  10 16951.9 847.115  15
   2   4 -10 17620.6 894.349   8
  -2   4   9 9314.98 841.272  17
  -2   4   9 8610.05 694.965  15
   2   4  -9 7116.43 679.301   8
  -2   4   8 64478.1 2690.75  17
  -2   4   8 72078.4 2449.66  15
   2   4  -8 63838.6 2524.47   8
  -2   4   7 3757.50 634.956  17
  -2   4   7 3998.72 584.108  18
   2   4  -7 3132.00 546.065   8
  -2   4   7 3244.89 471.680  14
  -2   4   6 31757.1 1703.89  18
  -2   4   6 32751.3 1646.02  14
   2   4  -6 29910.3 1642.60   5
  -2   4   6 32100.7 1840.37  17
   2   4  -6 29220.4 1646.18   8
  -2   4   6 29623.5 1773.17   4
  -2   4   5 25721.1 1601.92  17
  -2   4   5 25821.8 1475.66  14
   2   4  -5 27123.4 1503.33   8
  -2   4   5 25666.7 1607.78   4
   2   4  -5 25173.5 1458.16   5
  -2   4   5 28538.0 1611.88  18
  -2   4   4 40989.8 1984.09   4
   2   4  -4 42273.8 1878.48   5
  -2   4   3 72020.9 2661.56   4
   2   4  -3 71056.9 2513.47   5
  -2   4   2 11297.4 877.183   4
   2   4  -2 12065.4 867.941   5
   2   4  -1 46399.3 1821.25   5
  -2   4   1 49448.7 1512.07   5
  -2   4   1 46327.6 1841.24   4
   2   4   0 41011.7 1616.22   5
  -2   4   0 41456.9 1398.49   5
   2   4   1 10992.1 744.225   5
  -2   4  -1 9731.39 631.621   5
   2   4   1 10578.5 906.444   1
  -2   4  -2 47587.1 1655.49   5
   2   4   2 39582.9 1926.42   1
  -2   4  -3 87390.6 2616.58   5
   2   4   3 79960.7 2995.60   1
  -2   4  -4 35077.3 1536.70   5
   2   4   4 33039.7 1802.85   1
   2   4   5 2535.08 451.747  18
   2   4   5 2944.34 471.505  17
  -2   4  -5 2627.47 378.182   5
   2   4   5 3643.23 531.938  14
   2   4   5 3801.65 649.412   1
   2   4   6 3864.85 557.193  18
   2   4   6 4088.71 621.023  17
   2   4   6 4413.20 580.558  14
   2   4   6 4234.71 511.287  11
   2   4   7 7698.12 822.803  17
   2   4   7 6771.89 695.112  18
   2   4   7 7260.68 667.064  11
   2   4   7 6795.68 704.231  14
   2   4   8 10441.4 914.657  17
   2   4   8 10731.7 803.218  14
   2   4   8 9842.55 747.298  18
   2   4   8 10129.1 738.482  11
   2   4   9 8884.03 572.181  18
   2   4   9 9082.27 605.125  11
   2   4   9 9153.66 794.818  17
   2   4   9 8956.77 605.100   9
   2   4  10 12830.3 574.845  11
   2   4  10 13088.8 776.615  17
  -2   5  10 2266.92 285.462  17
   2   5 -10 1722.80 184.653  10
  -2   5   9 11339.7 812.053  17
   2   5  -9 9777.21 654.546   8
  -2   5   8 14509.9 875.020  18
  -2   5   8 12564.9 995.870  17
   2   5  -8 13033.9 930.154   8
  -2   5   8 15454.1 868.616  14
  -2   5   7 41793.1 1906.66  18
  -2   5   7 44296.7 1852.98  14
   2   5  -7 41068.1 1928.36   8
  -2   5   7 43748.0 2097.57  17
  -2   5   6 18153.5 1303.11  18
  -2   5   6 17076.0 1320.58  17
   2   5  -6 18443.7 1289.40   8
  -2   5   6 17543.5 1236.04  14
   2   5  -5 7577.26 835.886   8
  -2   5   5 7800.49 880.977  17
  -2   5   5 7105.75 818.153  14
  -2   5   5 7784.75 897.423  18
  -2   5   4 2511.12 530.630  18
  -2   5   4 2850.05 576.753  17
  -2   5   4 2071.46 499.821  14
   2   5  -4 1754.40 423.287   8
   2   5  -3 38213.3 1818.43   5
  -2   5   3 35788.0 1888.46  17
  -2   5   3 40913.6 1663.27   8
   2   5  -3 34693.9 1779.46   8
  -2   5   3 38145.0 2044.84  18
  -2   5   3 39869.4 2049.84  14
   2   5  -2 35514.9 1688.49   5
  -2   5   2 36495.9 1962.09  18
  -2   5   2 35441.1 1939.79  14
  -2   5   2 37307.8 1565.76   8
   2   5  -2 33014.1 1670.90   8
   2   5  -1 973.511 276.012   5
   2   5  -1 580.921 203.323   8
   2   5  -1 476.011 126.872  10
  -2   5   1 809.486 308.552  14
  -2   5   1 1065.02 274.733   8
  -2   5   1 1491.49 393.848  18
  -2   5   0 9743.60 749.074   8
   2   5   0 9429.02 788.254   8
   2   5   0 10185.7 744.577  10
   2   5   0 10266.6 812.534   5
  -2   5   0 10490.7 994.931  14
   2   5   1 15147.1 902.677  10
  -2   5  -1 14938.1 936.404   8
   2   5   1 15013.3 982.534   5
   2   5   1 15951.6 1022.28  18
   2   5   1 14768.8 974.467   8
  -2   5  -1 15219.6 1186.37  14
   2   5   2 87590.7 2908.48  14
   2   5   2 86063.7 2592.75  10
   2   5   2 85770.0 2936.68  18
   2   5   2 88084.8 2739.58   8
  -2   5  -2 86932.0 2755.96   8
   2   5   3 32299.0 1349.45  10
   2   5   3 32884.4 1683.67  18
   2   5   3 31633.3 1837.70   1
   2   5   3 32809.1 1424.88   8
  -2   5  -3 30553.5 1435.03   8
   2   5   3 33514.9 1671.02  14
   2   5   4 73442.2 2781.74  18
   2   5   4 73211.9 2600.05  17
   2   5   4 79111.1 2416.50   8
   2   5   4 74446.1 2760.90  14
   2   5   5 92648.5 3185.74  18
   2   5   5 90607.1 2858.94  11
   2   5   5 90310.9 3067.63  17
   2   5   5 91155.4 3126.62  14
   2   5   6 22423.7 1194.68  11
   2   5   6 20902.2 1309.26  17
   2   5   6 21310.0 1304.95  18
   2   5   6 19731.4 1248.55  14
   2   5   7 38492.5 1699.17  18
   2   5   7 40038.7 1812.76  17
   2   5   7 37704.1 1559.10  11
   2   5   7 40764.7 1717.94  14
   2   5   8 28366.1 1179.42  11
   2   5   8 29893.1 1413.45  17
   2   5   8 28907.9 1244.10  18
   2   5   8 31395.8 1316.24  14
   2   5   9 1126.64 171.968  18
   2   5   9 1263.40 272.643  17
   2   5   9 1220.59 192.850  11
   2   5   9 851.117 171.839   9
  -2   6   8 7939.19 497.260  18
   2   6  -8 7010.08 507.077  10
  -2   6   8 8403.02 487.088  14
  -2   6   8 7319.41 579.309  17
   2   6  -8 7188.42 508.437   8
  -2   6   7 8140.72 677.816  18
  -2   6   7 7495.32 687.881  17
   2   6  -7 7533.26 615.961  10
  -2   6   7 7357.32 612.705  14
   2   6  -7 8396.97 686.649   8
   2   6  -6 16124.0 1001.96  10
  -2   6   6 13577.7 1029.19  18
  -2   6   6 15879.5 1097.66  17
  -2   6   6 17254.6 812.213  11
   2   6  -6 13588.8 999.939   8
  -2   6   6 17418.5 1099.94  14
   2   6  -5 20687.1 1212.52  10
  -2   6   5 20129.3 1372.07  18
  -2   6   5 20706.7 1331.54  17
   2   6  -5 21701.5 1350.93   8
  -2   6   5 21966.9 1367.51  14
  -2   6   4 3852.76 575.577  17
   2   6  -4 4785.49 577.157  10
  -2   6   4 3405.31 626.603  18
   2   6  -4 5400.47 686.400   8
  -2   6   4 3739.74 607.840  14
   2   6  -3 16698.2 1081.49  10
  -2   6   3 13802.6 1217.07  18
  -2   6   3 17782.9 1084.86   8
  -2   6   3 16562.3 1151.11  17
   2   6  -3 15467.8 1158.09   8
  -2   6   3 15311.0 1265.75  14
   2   6  -2 31833.1 1532.28  10
  -2   6   2 28773.9 1771.87  18
  -2   6   2 33870.7 1537.56   8
   2   6  -2 30307.3 1651.27   8
  -2   6   2 31565.8 1850.52  14
   2   6  -1 118187. 3722.66   8
  -2   6   1 113950. 3943.38  18
   2   6  -1 123535. 3525.63  10
  -2   6   1 111920. 3983.07  14
  -2   6   1 123940. 3543.22   8
   2   6   0 60322.5 2126.08  10
  -2   6   0 57615.0 2435.42  18
  -2   6   0 59596.9 2185.90   8
   2   6   0 53962.8 2212.22   8
  -2   6   0 54987.3 2500.05  14
   2   6   1 52818.3 2075.63  18
   2   6   1 54330.6 1945.19  10
  -2   6  -1 51939.8 2019.07   8
   2   6   1 51329.8 2061.27   8
   2   6   1 52377.3 2050.43  14
  -2   6  -1 49407.9 2291.37  14
   2   6   2 28227.5 1272.56  10
   2   6   2 27989.6 1515.01  18
   2   6   2 28768.6 1402.21   8
   2   6   2 28770.5 1492.87  14
  -2   6  -2 29312.1 1410.61   8
   2   6   3 17711.0 1191.29  18
  -2   6  -3 18940.8 1075.72   8
   2   6   3 16619.5 1008.49   8
   2   6   3 17662.2 1175.00  14
   2   6   4 10358.4 911.868  18
   2   6   4 9906.01 869.823  14
   2   6   5 44494.0 1716.22  17
   2   6   5 48846.5 2003.88  18
   2   6   5 44483.9 1755.07  11
   2   6   5 49207.0 1978.73  14
   2   6   6 8234.54 647.746  11
   2   6   6 8834.66 721.983  18
   2   6   6 7762.98 632.770  17
   2   6   6 8284.16 707.730  14
   2   6   7 6468.17 491.195  11
   2   6   7 5943.72 525.972  18
   2   6   7 5546.48 479.431  17
   2   6   7 6922.77 563.906  14
   2   6   8 42778.7 1237.36  11
   2   6   8 46296.3 1319.31  18
   2   6   8 44380.5 1336.69   9
   2   6   8 41371.7 1304.67  17
   2   7  -6 6018.82 445.261  10
  -2   7   6 6207.36 423.212  17
  -2   7   6 6511.98 509.128  18
   2   7  -6 6237.60 463.273   8
  -2   7   6 6664.47 500.508  14
  -2   7   5 28083.2 1099.32  17
   2   7  -5 29209.0 1262.27   8
   2   7  -5 27217.9 1154.93  10
  -2   7   5 30123.0 1312.69  14
  -2   7   5 27302.7 992.365  11
  -2   7   5 29431.0 1341.42  18
   2   7  -4 9756.52 694.313  10
  -2   7   4 10706.3 830.754  14
   2   7  -4 10300.3 787.462   8
  -2   7   4 10053.8 820.071  18
   2   7  -3 2016.60 346.408  10
  -2   7   3 1868.52 414.013  18
   2   7  -3 2091.20 413.847   8
  -2   7   3 1602.51 409.884  14
   2   7  -2 11806.7 863.944   8
   2   7  -2 12767.7 799.212  10
  -2   7   2 12001.4 948.014  18
   2   7  -1 4470.61 537.004   8
  -2   7   1 3749.17 518.479  18
   2   7  -1 3954.72 448.024  10
  -2   7   1 4428.52 494.046   8
  -2   7   1 3829.61 548.881  14
   2   7   0 14607.5 826.887  10
  -2   7   0 13346.4 898.657  18
  -2   7   0 15598.8 920.802   8
  -2   7   0 13142.8 978.444  14
   2   7   0 15384.2 974.936   8
   2   7   1 15388.3 797.340  10
   2   7   1 14096.3 890.270   8
  -2   7  -1 15381.4 890.625   8
  -2   7  -1 13934.4 935.356  14
   2   7   2 5697.27 537.446  18
   2   7   2 5893.48 536.769   8
  -2   7  -2 5918.68 513.079   8
   2   7   2 5527.13 528.851  14
   2   7   3 8252.89 658.071  18
   2   7   3 8645.39 660.141  14
  -2   7  -3 9093.79 584.037   8
   2   7   4 8788.00 653.081  18
   2   7   4 9239.57 661.705  14
   2   7   4 9440.71 640.812  11
   2   7   5 128.204 136.030  11
  -2   7  -5 73.5874 102.048  10
   2   7   5-16.0266 138.745  18
   2   7   5 9.22075 139.098  14
   2   7   6 9252.74 529.038  18
   2   7   6 9250.08 511.733   9
   2   7   6 9118.57 485.732  11
   2   7   6 10264.8 546.464  14
   2   8  -2 11069.1 478.445  10
  -2   8   2 10193.5 497.558  18
   2   8  -1 4791.75 382.280   8
  -2   8   1 4382.45 339.855  14
   2   8   0 17702.1 750.617   8
   2   8   0 15217.4 613.212  11
   2   8   1 11342.5 527.846  11
   2   8   2 1104.56 171.395  11
   3  -8  -1 14852.5 558.111  13
   3  -8  -1 15082.6 582.730   7
  -3  -8   1 13172.9 513.399  13
   3  -8   0 12121.5 476.488  13
   3  -8   0 12724.1 544.107   7
   3  -7  -6 3351.61 264.057  13
   3  -7  -6 3064.81 226.875   7
  -3  -7   6 2496.30 215.739   7
  -3  -7   5 2076.31 230.226   7
   3  -7  -5 2133.20 243.677   7
   3  -7  -5 2200.61 261.517  13
   3  -7  -4 250.791 130.816   7
  -3  -7   4 587.866 138.877   7
   3  -7  -4 650.578 193.784  13
   3  -7  -3 12011.3 695.893  13
   3  -7  -3 12350.0 705.659   7
   3  -7  -2 18656.3 831.176  19
   3  -7  -2 19721.0 936.730  13
   3  -7  -2 19336.3 945.103   7
   3  -7  -1 14304.5 758.846  19
   3  -7  -1 13420.1 778.634  13
   3  -7  -1 15616.8 863.483   7
   3  -7   0 4245.63 428.315  13
   3  -7   0 3987.66 404.870  19
  -3  -7   0 3389.67 384.905  13
   3  -7   0 4551.84 480.463   7
   3  -7   1 2447.64 375.132   7
   3  -7   1 2197.59 331.594  19
   3  -7   1 2670.69 325.099  13
  -3  -7  -1 2773.59 318.180  13
   3  -7   2 5744.63 516.089  19
   3  -7   2 6867.18 472.351  13
  -3  -7  -2 6410.39 423.769  13
   3  -7   2 6850.87 579.875   7
   3  -7   3 7739.29 591.828  19
   3  -7   3 7507.40 577.217   7
   3  -7   4 49.1984 129.591   7
   3  -7   4 83.5023 150.322  19
   3  -7   5 1794.43 230.013   7
   3  -7   5 2259.59 273.987  19
   3  -6  -8 9023.26 443.333  13
   3  -6  -7 2431.94 281.736   7
   3  -6  -7 2171.68 271.873  13
   3  -6  -6 6596.72 527.323   7
   3  -6  -6 7444.16 556.044  13
   3  -6  -5 40926.7 1529.73   7
   3  -6  -5 38935.5 1497.94  13
   3  -6  -4 30374.5 1258.28  19
   3  -6  -4 30568.9 1317.03  13
   3  -6  -4 30662.9 1340.50   7
   3  -6  -3 2367.37 365.574   7
  -3  -6   3 2499.38 356.135   7
   3  -6  -3 2295.52 350.332  19
   3  -6  -3 2295.09 344.090  13
   3  -6  -2 31482.1 1397.28  19
   3  -6  -2 32163.2 1396.02  13
   3  -6  -2 31157.4 1430.16   7
   3  -6  -1 30016.4 1373.49  19
   3  -6  -1 26434.9 1285.82  13
   3  -6  -1 28361.9 1388.71   7
   3  -6   0 61141.4 2223.76  19
   3  -6   0 63697.0 2145.06  13
   3  -6   0 62295.3 2252.94   7
   3  -6   1 51616.7 2038.52  19
   3  -6   1 52542.6 1885.25  13
   3  -6   1 53330.4 2064.83   7
   3  -6   2 8932.17 787.781  19
   3  -6   2 9051.32 663.114  13
  -3  -6  -2 8897.22 644.322  13
   3  -6   2 8528.77 757.075   7
   3  -6   3 13967.5 1015.97  19
   3  -6   3 13893.7 967.445   7
   3  -6   4 22542.8 1293.39  19
   3  -6   4 21036.3 1183.61   7
   3  -6   5 15138.1 1012.76  19
   3  -6   5 16269.3 960.293   7
   3  -6   6 23100.7 1167.78  19
   3  -6   6 23776.8 1050.95   7
   3  -6   7 14047.9 763.556  19
   3  -6   7 12491.4 577.031   7
   3  -5  -9 33129.0 1065.15  13
  -3  -5   9 31463.6 1238.64  19
  -3  -5   8 24851.0 1209.26  19
   3  -5  -8 26378.2 1124.36   7
   3  -5  -8 27041.2 1080.84  13
   3  -5  -7 45870.6 1670.22   7
   3  -5  -7 46083.8 1624.35  13
   3  -5  -6 6208.59 572.984  13
  -3  -5   6 6311.03 650.237  19
   3  -5  -6 7157.51 616.136   7
   3  -5  -5 3361.46 422.554  13
   3  -5  -5 3215.36 421.229   7
   3  -5  -5 3497.84 432.622  19
   3  -5  -4 19070.4 1059.21  19
   3  -5  -4 20902.4 1069.41  13
   3  -5  -4 19331.7 1057.60   7
   3  -5  -3 21655.9 1125.45  19
  -3  -5   3 21653.1 1214.54   3
   3  -5  -3 20750.5 1070.64  13
   3  -5  -3 20786.7 1102.00   7
  -3  -5   2 18355.3 1131.69   3
   3  -5  -2 18051.0 1029.57  19
   3  -5  -2 16915.1 958.820  13
   3  -5  -2 18157.3 1020.58   7
   3  -5  -1 60519.5 2139.30  19
  -3  -5   1 61792.9 2361.10   3
   3  -5  -1 60866.7 2127.44   7
   3  -5  -1 58350.3 1998.97  13
   3  -5   0 111392. 3372.36   9
  -3  -5   0 121331. 3746.68   3
   3  -5   0 123923. 3513.93  19
   3  -5   0 121203. 3295.77  13
   3  -5   0 125225. 3505.10   7
   3  -5   1 32956.7 1550.45  19
  -3  -5  -1 32123.0 1660.10   3
   3  -5   1 29549.3 1313.03  13
   3  -5   1 34761.3 1550.44   7
   3  -5   2 70584.1 2465.01   7
  -3  -5  -2 69685.2 2660.95   3
   3  -5   2 68118.5 2500.16  19
   3  -5   2 65648.1 2133.66  13
   3  -5   2 69438.8 2167.32   3
   3  -5   3 110954. 3417.30   7
   3  -5   3 112942. 3565.28  19
   3  -5   4 43643.9 1893.58   7
   3  -5   4 45613.0 2050.58  19
   3  -5   4 45439.9 1913.53   6
   3  -5   5 3112.48 474.531   6
   3  -5   5 3090.41 458.298   7
   3  -5   5 3601.71 563.404  19
   3  -5   6 32389.1 1468.44   7
   3  -5   6 32811.7 1601.02   6
   3  -5   6 31898.1 1648.07  19
   3  -5   7 28992.4 1248.16   7
   3  -5   7 31819.1 1518.50  19
   3  -5   7 31455.5 1473.94   6
   3  -5   8 6801.42 585.096  19
   3  -5   8 6674.43 576.364   6
   3  -5   9 994.107 184.568   6
   3  -5   9 912.975 175.121  19
  -3  -4  10 919.642 261.848  19
  -3  -4  10 1059.49 198.123   6
   3  -4 -10 812.268 155.001  13
   3  -4  -9 390.424 183.262   7
  -3  -4   9 333.498 119.980   6
   3  -4  -9 90.2226 132.608  13
   3  -4  -8 17690.2 1012.17   7
   3  -4  -8 18746.9 961.529  13
   3  -4  -7 83149.1 2645.42   7
   3  -4  -7 84757.8 2570.12  13
   3  -4  -6 15316.4 904.558  13
   3  -4  -6 15253.5 1098.67  16
   3  -4  -6 15427.3 931.253   7
   3  -4  -5 64674.2 2162.79  19
   3  -4  -5 62283.5 2341.00  16
   3  -4  -5 63910.8 2067.06  13
   3  -4  -5 65550.2 2122.12   7
  -3  -4   5 60546.2 2040.84   3
   3  -4  -5 66828.7 2784.47   2
   3  -4  -4 22978.7 1489.82   2
   3  -4  -4 25105.2 1097.94  13
  -3  -4   4 21383.0 1102.29   3
   3  -4  -4 23301.0 1100.32   7
   3  -4  -3 4859.98 666.081   2
  -3  -4   3 5129.82 533.438   3
  -3  -4   2 6689.58 646.900   3
   3  -4  -2 5825.04 637.849   2
  -3  -4   1 83209.1 2691.75   3
   3  -4  -1 78031.9 2586.89   2
  -3  -4   0 37441.5 1685.56   3
   3  -4   0 36289.3 1283.84   3
   3  -4   0 36346.4 1518.54   2
  -3  -4  -1 6071.60 655.647   3
   3  -4   1 7099.45 517.307   3
   3  -4   2 37367.9 1387.96   3
  -3  -4  -2 36617.7 1712.96   3
   3  -4   3 74911.8 2298.83   3
   3  -4   4 39343.8 1774.76  19
   3  -4   4 37666.2 1732.88   6
   3  -4   4 34553.1 1474.58   3
   3  -4   4 35664.0 1608.37  15
   3  -4   5 52505.9 2195.62   6
   3  -4   5 49219.8 2130.42  19
   3  -4   6 11016.8 996.093   6
   3  -4   6 12235.4 1010.24  19
   3  -4   6 12079.2 955.505  15
   3  -4   7 11815.8 983.745  19
   3  -4   7 12607.6 973.967  15
   3  -4   7 14230.1 1120.55   6
   3  -4   8 52575.8 2175.95   6
   3  -4   8 52419.4 2030.91  19
   3  -4   8 46664.4 1909.36  15
   3  -4   9 11359.6 738.401  15
   3  -4   9 10506.1 708.986  19
   3  -4   9 11650.1 857.103   6
   3  -4  10 2841.28 343.038   6
   3  -4  10 2168.73 232.242  15
  -3  -3  11-25.7041 123.768   6
   3  -3 -11 272.927 117.486  20
  -3  -3  10 23695.5 1255.87   6
   3  -3 -10 20124.4 927.222  13
   3  -3  -9 2610.53 444.635  12
   3  -3  -9 3550.82 414.081  13
   3  -3  -9 2690.74 398.268   7
  -3  -3   9 4117.11 597.554   6
   3  -3  -8 42559.3 1924.23  12
  -3  -3   8 44405.0 1933.07   6
   3  -3  -8 41847.6 1733.72   7
   3  -3  -8 41400.6 1599.31  13
   3  -3  -7 4359.98 578.794  12
  -3  -3   7 4383.63 552.989   6
   3  -3  -7 4464.89 481.891  13
   3  -3  -7 4910.30 663.770  16
   3  -3  -7 3669.33 679.325   2
   3  -3  -7 4291.72 492.062   7
   3  -3  -6 156616. 4381.31  16
   3  -3  -6 155198. 3917.96   7
   3  -3  -6 150404. 3833.49  13
  -3  -3   5 17510.3 845.150   3
   3  -3  -5 16910.4 1306.73   2
   3  -3  -4 48.4941 340.880   2
  -3  -3   4 275.272 162.714   3
  -3  -3   3 22785.8 1024.98   3
   3  -3  -3 20727.2 1270.89   2
  -3  -3   2 6873.43 561.900   3
   3  -3  -2 6406.88 645.184   2
   3  -3  -1 4550.79 513.641   2
  -3  -3   1 4990.13 509.717   3
   3  -3  -1 5609.11 354.957   3
   3  -3   0 74386.3 2374.40   2
  -3  -3   0 74519.8 2369.90   3
   3  -3   0 80065.0 1992.15   3
   3  -3   1 175082. 3964.89   3
   3  -3   1 173643. 4354.59   2
   3  -3   2 35356.5 1252.49   3
   3  -3   2 37658.4 1461.76   2
   3  -3   3 17290.4 866.717   3
   3  -3   4 2072.03 303.610   3
   3  -3   5 14324.3 894.728   3
   3  -3   6 2278.10 435.162   6
   3  -3   6 3205.49 511.014  19
   3  -3   6 2885.09 465.233  15
   3  -3   6 3426.49 491.633   1
   3  -3   6 2143.53 363.551   3
   3  -3   7 2250.56 501.025   6
   3  -3   7 2223.30 439.446  19
   3  -3   7 2053.28 453.660  15
   3  -3   8 5255.80 715.021   6
   3  -3   8 5993.91 713.182  15
   3  -3   8 5325.84 615.815  19
   3  -3   9 2399.35 382.495  19
   3  -3   9 2604.14 470.947  15
   3  -3   9 3323.42 548.919   6
   3  -3  10 8075.46 697.359   6
   3  -3  10 6546.09 601.924  15
  -3  -2  12 6041.22 487.251   6
   3  -2 -12 4929.49 332.002   8
   3  -2 -11 18918.8 1011.37  20
  -3  -2  11 16030.2 1032.14   6
  -3  -2  10 2708.28 496.294   6
   3  -2 -10 2589.91 353.427  13
  -3  -2  10 3091.52 419.576  15
   3  -2  -9 27496.4 1257.09  13
  -3  -2   9 27250.6 1599.83   6
   3  -2  -9 28031.4 1583.16  12
   3  -2  -8 129555. 3745.82   7
   3  -2  -8 136722. 3598.45  13
   3  -2  -8 136168. 4135.94  12
   3  -2  -7 60139.1 2091.97   7
   3  -2  -7 56818.8 2732.00   2
   3  -2  -7 63042.3 2007.51  13
   3  -2  -7 60475.6 2375.84  12
   3  -2  -6 22010.4 1504.13   2
  -3  -2   5 77557.8 2010.48   3
   3  -2  -5 76044.3 2879.89   2
  -3  -2   4 29032.8 983.578   3
   3  -2  -4 28100.3 1502.98   2
  -3  -2   3 239414. 5139.44   3
   3  -2  -3 229482. 5789.25   2
  -3  -2   2 15834.8 712.774   3
   3  -2  -2 12837.9 840.723   2
   3  -2  -1 220655. 5371.96   2
  -3  -2   1 235225. 5140.14   3
   3  -2  -1 230621. 4686.65   3
   3  -2   0 48950.1 1687.36   2
   3  -2   0 52976.7 1312.12   3
   3  -2   1 270872. 5702.41   3
   3  -2   1 278179. 6166.39   2
   3  -2   2 25025.7 1109.25   2
   3  -2   2 25554.3 918.405   3
   3  -2   3 137349. 3317.86   3
   3  -2   4 66996.0 2042.00   3
   3  -2   5 274592. 6459.10   3
   3  -2   5 284359. 6505.31   1
   3  -2   6 15327.8 965.164   3
   3  -2   6 15844.6 981.122   1
   3  -2   7 10733.1 833.999  19
   3  -2   7 9043.19 891.063   6
   3  -2   7 10850.5 953.796  15
   3  -2   7 10509.0 854.277   1
   3  -2   8 29861.6 1709.19   6
   3  -2   8 30968.1 1711.25  15
   3  -2   9 33351.3 1741.25   6
   3  -2   9 31678.1 1700.14  15
   3  -2  10 10761.4 868.366  15
   3  -2  10 10536.2 857.902   6
   3  -2  11 4743.32 458.296   6
   3  -2  11 4105.32 445.822  15
  -3  -1  12 2352.56 304.197  15
  -3  -1  12 2514.03 374.621   6
   3  -1 -12 2230.50 265.630   8
   3  -1 -12 1946.15 266.063  20
  -3  -1  11 20101.9 1107.96  15
  -3  -1  11 19580.9 1222.83   6
   3  -1 -11 19820.3 1137.49  20
   3  -1 -10 3613.29 566.378  20
  -3  -1  10 3387.93 529.944  15
   3  -1 -10 3261.61 407.842  13
   3  -1  -9 25617.0 1237.19  13
  -3  -1   9 25312.4 1411.54  15
   3  -1  -9 25265.5 1559.78  12
   3  -1  -8 102292. 3807.12   2
   3  -1  -8 98210.9 2889.52  13
  -3  -1   8 102571. 3187.48  15
   3  -1  -8 101405. 3419.80  12
   3  -1  -7 20033.7 1464.99   2
  -3  -1   6 99795.7 2957.26   4
   3  -1  -6 100465. 3486.19   2
  -3  -1   5 179412. 4386.64   4
   3  -1  -5 176168. 4906.36   2
  -3  -1   4 8835.47 600.150   4
  -3  -1   4 9018.07 382.977   3
   3  -1  -4 8204.72 737.284   2
  -3  -1   3 46667.6 1175.86   3
  -3  -1   3 48983.2 1508.28   4
   3  -1  -3 48641.4 1765.74   2
  -3  -1   2 117359. 2469.08   3
   3  -1  -2 120461. 3043.52   2
  -3  -1   2 114265. 2712.75   4
  -3  -1   1 212263. 4721.35   4
  -3  -1   1 222039. 4578.02   3
   3  -1  -1 212235. 4965.97   2
   3  -1   0 961409. 19153.4   2
   3  -1   0 951653. 18586.6   3
   3  -1   1 30592.1 1162.34   2
   3  -1   1 31687.9 907.780   3
   3  -1   2 62039.2 1631.65   3
   3  -1   2 60095.8 1648.77   1
   3  -1   2 62508.0 1882.49   2
   3  -1   3 91614.6 2346.12   3
   3  -1   3 89741.6 2368.50   1
   3  -1   4 16166.2 807.745   3
   3  -1   4 15417.4 813.470   1
   3  -1   5 68049.0 2196.81   1
   3  -1   6 37700.9 1623.49   1
   3  -1   7 38795.4 1598.37  11
   3  -1   7 40917.6 1815.78   1
   3  -1   7 41578.0 2048.86  10
   3  -1   7 40120.8 1872.53  15
   3  -1   7 42314.7 1884.28   6
   3  -1   8 93074.9 3242.48  15
   3  -1   8 95901.1 3219.13   6
   3  -1   9 28784.5 1577.53   6
   3  -1   9 26593.5 1565.19  15
   3  -1  10 39723.0 1819.02  15
   3  -1  10 37410.4 1693.81   6
   3  -1  11 17597.7 900.802   6
   3  -1  11 15868.5 947.191  15
  -3   0  12 869.654 252.387   6
  -3   0  12 717.589 237.826  15
   3   0 -12 426.767 124.629   8
   3   0 -11 17912.7 1129.75  20
  -3   0  11 18269.3 1177.66   6
   3   0 -11 18935.0 1090.05   8
  -3   0  11 19979.5 1189.16  15
   3   0 -10 20703.3 1352.48  20
   3   0 -10 24256.6 1467.64  21
  -3   0  10 21741.5 1342.06  15
   3   0  -9 9154.98 948.444  21
  -3   0   9 9701.43 892.198  15
   3   0  -9 10395.3 964.526  20
   3   0  -9 8996.00 723.287  13
   3   0  -8 152133. 4540.21  21
   3   0  -8 138935. 4598.19   2
   3   0  -8 140177. 3936.09   5
  -3   0   8 147953. 4247.54  15
  -3   0   8 155545. 4493.81   4
   3   0  -8 140719. 3826.52  13
   3   0  -8 148910. 4380.13  12
  -3   0   7 7411.93 766.757   4
   3   0  -7 7768.56 848.946   2
   3   0  -7 7169.19 610.522   5
   3   0  -6 51747.6 2194.66   2
   3   0  -6 54467.6 1759.53   5
  -3   0   6 50986.5 2074.33   4
   3   0  -5 138847. 3375.38   5
   3   0  -5 147574. 4005.15   2
  -3   0   5 139072. 3873.40   4
   3   0  -4 73093.1 1870.00   5
   3   0  -4 67240.1 2269.56   2
  -3   0   4 73510.5 2316.88   4
   3   0  -3 9941.85 441.447   5
   3   0  -3 9221.62 641.179   2
  -3   0   3 10010.6 672.825   4
   3   0  -2 312995. 6230.67   5
   3   0  -2 306489. 6759.50   2
  -3   0   2 310957. 6795.46   4
  -3   0   1 650422. 12676.6   4
   3   0  -1 645729. 12609.3   2
   3   0  -1 647995. 12140.7   1
   3   0   0 181655. 3853.24   1
   3   0   0 185255. 4121.57   2
   3   0   1 181556. 3932.08   1
   3   0   1 181924. 4139.38   2
   3   0   2 1356.46 248.985   2
   3   0   2 1157.27 189.768   1
   3   0   3 1058.91 203.024   1
   3   0   4 39308.2 1459.38   1
   3   0   5 886.496 262.761   1
   3   0   6-72.0310 184.471   1
   3   0   7 178.728 213.078  10
   3   0   7 333.450 178.580  11
   3   0   7 192.153 236.669  17
   3   0   7-31.6410 205.575  15
   3   0   7 220.437 250.011   1
   3   0   8 16577.4 1012.01  11
   3   0   8 17253.6 1120.81   6
   3   0   8 16405.9 1289.27  10
   3   0   8 16579.8 1058.31  17
   3   0   8 17050.2 1181.93  15
   3   0   9 26991.3 1341.97  11
   3   0   9 32791.8 1454.49  17
   3   0   9 29156.6 1747.28  10
   3   0   9 29991.2 1630.70  15
   3   0   9 31947.1 1565.81   6
   3   0  10 8560.36 697.681   6
   3   0  10 9390.02 842.112  15
   3   0  11 5349.39 544.304  15
  -3   1  12 1688.08 311.493  15
   3   1 -12 1329.45 207.636   8
   3   1 -11 17029.3 1125.71  20
  -3   1  11 20027.4 1188.79  15
   3   1 -11 20202.8 1107.86   8
  -3   1  11 19323.8 1144.06   6
   3   1 -10 2297.08 465.389  20
   3   1 -10 2844.30 496.575   8
  -3   1  10 2460.76 478.737  15
   3   1  -9 27640.9 1615.37  20
   3   1  -9 27726.6 1742.42  21
  -3   1   9 26451.6 1559.32  15
   3   1  -8 104653. 3482.47  20
   3   1  -8 102686. 3679.49  21
   3   1  -8 104947. 3273.90   5
  -3   1   8 112835. 3826.57   4
  -3   1   7 22982.8 1494.15   4
   3   1  -7 23920.8 1257.54   5
   3   1  -6 96043.2 2871.40   5
  -3   1   6 100845. 3383.81   4
   3   1  -6 105571. 3150.69   2
   3   1  -5 172163. 4232.19   5
  -3   1   5 173106. 4812.85   4
   3   1  -5 179696. 4449.30   2
  -3   1   4 8886.34 751.318   4
   3   1  -4 7955.20 531.904   5
   3   1  -4 8850.19 601.199   2
   3   1  -3 47055.3 1402.75   5
  -3   1   3 46154.9 1761.27   4
   3   1  -3 47255.1 1475.36   2
   3   1  -2 118987. 2759.22   2
   3   1  -2 113755. 2691.18   5
  -3   1   2 118241. 3159.11   4
  -3   1   1 214923. 4975.38   4
   3   1  -1 210778. 4493.71   5
   3   1  -1 203082. 4577.57   1
   3   1   0 941045. 19025.6   2
   3   1   0 982534. 18892.6   5
   3   1   0 955620. 19113.4   1
  -3   1  -1 31037.3 792.205   5
   3   1   1 31469.6 1118.36   1
   3   1   2 60503.1 1854.64   1
  -3   1  -2 62834.3 1541.95   5
   3   1   3 88840.0 2550.96   1
   3   1   4 15271.4 951.466   1
   3   1   5 71315.3 2504.28   1
   3   1   6 38937.6 1845.46   1
  -3   1  -6 38088.0 1542.32   5
   3   1   7 45782.2 1686.70  11
   3   1   7 40512.8 1972.65   1
   3   1   7 40805.9 1934.73  10
   3   1   7 41618.1 1772.95  15
  -3   1  -7 40127.6 1732.80   5
   3   1   7 41238.4 1819.12  17
   3   1   8 88455.0 2788.57  11
   3   1   8 97301.8 3099.47  17
   3   1   8 92754.1 3325.16  10
   3   1   8 88012.7 3020.58  15
   3   1   9 31313.3 1507.61  17
   3   1   9 28226.2 1349.90  11
   3   1   9 29221.7 1673.41  10
   3   1   9 27028.3 1487.69  15
   3   1  10 34599.5 1406.47  11
   3   1  10 36910.8 1514.42  17
   3   1  10 37990.6 1662.89  15
   3   1  11 15664.7 733.339  16
   3   1  11 17195.4 896.844  15
  -3   2  12 6978.84 511.065  15
  -3   2  11 15625.2 863.281   6
  -3   2  11 16122.6 1008.86  15
   3   2 -11 15360.1 910.563   8
  -3   2  10 2901.97 514.609  15
   3   2 -10 3069.57 503.201   8
   3   2  -9 27711.9 1758.34  21
   3   2  -9 25040.3 1565.03  20
  -3   2   9 29412.7 1475.18  17
  -3   2   9 27919.8 1581.50  15
   3   2  -9 23627.5 1458.68   8
   3   2  -8 138803. 4456.68  21
   3   2  -8 134318. 4208.05  20
   3   2  -8 131575. 4079.25   8
  -3   2   8 135001. 4053.71  17
   3   2  -7 59365.3 2328.37  20
   3   2  -7 58688.3 2488.14  21
  -3   2   7 54540.4 2275.66  17
   3   2  -7 55261.9 2200.88   5
   3   2  -7 58133.4 2275.14   8
  -3   2   7 53962.3 2557.31   4
  -3   2   6 21154.1 1430.51   4
   3   2  -6 19903.6 1152.18   5
   3   2  -5 73490.8 2379.74   5
  -3   2   5 73814.5 2821.86   4
   3   2  -4 27835.1 1222.59   5
  -3   2   4 29583.7 1550.33   4
   3   2  -3 235418. 5360.17   5
  -3   2   3 232084. 5864.18   4
   3   2  -2 14890.9 748.872   5
  -3   2   2 15182.0 958.701   4
  -3   2   1 233366. 5442.57   4
   3   2  -1 228847. 5008.99   5
   3   2  -1 214999. 5106.15   1
  -3   2   0 52427.4 1796.01   4
   3   2   0 51081.7 1494.26   5
   3   2   0 47003.9 1642.22   1
  -3   2   0 50668.7 1171.16   5
   3   2   1 259680. 6026.29   1
   3   2   1 269151. 5706.99   5
  -3   2  -1 261762. 5419.30   5
  -3   2  -2 26031.6 890.911   5
   3   2   2 25304.1 1200.64   1
  -3   2  -3 138271. 3290.90   5
   3   2   3 133600. 3743.80   1
  -3   2  -4 64225.7 1973.55   5
   3   2   4 61208.9 2329.51   1
   3   2   5 264573. 6971.95   1
  -3   2  -5 280282. 6412.50   5
  -3   2  -6 14815.4 960.224   5
   3   2   6 15688.9 1235.02   1
   3   2   7 9332.10 698.757  18
   3   2   7 11471.1 955.208  10
   3   2   7 10007.5 882.694  17
   3   2   7 10016.4 746.074  11
  -3   2  -7 8510.05 769.480   5
   3   2   7 7998.90 666.003   9
   3   2   7 9198.18 959.748   1
   3   2   8 26459.9 1549.05  10
   3   2   8 29362.2 1592.74  17
   3   2   8 30609.5 1397.13  11
   3   2   8 31763.5 1326.46   9
   3   2   9 33458.8 1611.64  17
   3   2   9 29885.9 1363.53  11
   3   2   9 29438.6 1572.84  10
   3   2   9 31845.3 1461.20  15
   3   2  10 10718.4 688.263  11
   3   2  10 10622.0 778.363  17
   3   2  11 3690.21 361.690  16
  -3   3  11 110.553 130.630  15
   3   3 -11 156.505 148.335   8
  -3   3  10 24251.2 1200.36  17
  -3   3  10 21855.8 1245.03  15
   3   3 -10 22417.7 1243.23   8
  -3   3   9 4289.85 606.493  17
   3   3  -9 3284.61 536.490   8
  -3   3   9 3812.38 568.801  15
   3   3  -8 37792.8 2045.15  21
  -3   3   8 40165.5 2011.71  17
   3   3  -8 38708.0 1905.48   8
  -3   3   7 4172.11 615.075  17
   3   3  -7 5043.79 741.645  21
   3   3  -7 3749.97 596.868   5
  -3   3   7 5075.11 821.836   4
   3   3  -7 5050.81 671.750   8
   3   3  -6 121649. 3962.46  20
   3   3  -6 138276. 4083.30   8
   3   3  -6 138161. 4135.26  21
   3   3  -6 137963. 4023.43   5
  -3   3   6 132510. 4243.99  17
  -3   3   6 139588. 4544.23   4
   3   3  -5 16197.9 1071.81   5
  -3   3   5 20062.2 1401.11   4
  -3   3   4 402.528 269.859   4
   3   3  -4 489.835 188.972   5
   3   3  -3 21700.0 1124.57   5
  -3   3   3 20016.7 1297.27   4
   3   3  -2 5834.15 533.778   5
  -3   3   2 4926.68 588.822   4
   3   3  -1 5028.03 477.393   5
  -3   3   1 4069.47 501.140   4
  -3   3   0 75419.7 2493.08   4
   3   3   0 75006.9 2458.26   1
   3   3   0 73177.9 2194.50   5
  -3   3  -1 161909. 4422.71   4
   3   3   1 168647. 4506.91   1
   3   3   1 175926. 4144.04   5
   3   3   2 34323.5 1622.98   1
  -3   3  -2 34264.6 1178.49   5
   3   3   3 16378.8 1129.02   1
  -3   3  -3 17693.4 867.054   5
  -3   3  -4 2338.28 341.283   5
   3   3   4 2102.60 443.642   1
   3   3   5 10243.9 1026.35   1
  -3   3  -5 14322.6 925.005   5
   3   3   6 3073.72 640.458   1
   3   3   6 2165.43 411.443  10
   3   3   6 2021.28 386.500  18
   3   3   6 1827.34 379.544  17
   3   3   6 2482.52 398.666  11
   3   3   6 3031.61 459.419  14
   3   3   7 1837.49 403.460  10
   3   3   7 1505.47 331.933  11
   3   3   7 2532.07 422.976  18
   3   3   7 1928.28 417.644  17
   3   3   7 2545.09 427.621  14
   3   3   8 5979.66 570.561  18
   3   3   8 5090.79 609.261  10
   3   3   8 6003.72 706.130  17
   3   3   8 6523.19 598.657   9
   3   3   8 5618.74 565.697  11
   3   3   9 2221.35 342.275  11
   3   3   9 2888.12 349.766   9
   3   3   9 3198.10 513.391  17
   3   3  10 7760.58 528.839  11
   3   3  10 9089.24 677.105  17
   3   4 -10 1190.14 252.124   8
  -3   4  10 911.793 239.950  17
  -3   4  10 983.610 234.602  15
  -3   4   9 103.521 189.437  17
  -3   4   9-145.738 184.299  15
   3   4  -9 303.448 232.140   8
  -3   4   8 17241.9 1286.41  17
   3   4  -8 17310.0 1210.33   8
  -3   4   7 77998.0 3169.81  17
  -3   4   7 87546.7 2957.94  18
   3   4  -7 76179.6 2997.74   8
  -3   4   7 88587.0 2795.71  14
  -3   4   6 16488.0 1336.42  17
   3   4  -6 14191.2 1088.94  21
   3   4  -6 13959.1 1148.12   8
  -3   4   6 16535.9 1130.30  14
  -3   4   6 15109.4 1167.01  18
   3   4  -5 60839.1 2511.44   8
  -3   4   5 59834.2 2669.99   4
  -3   4   5 61155.0 2591.71  18
  -3   4   5 60191.1 2679.92  17
   3   4  -5 62666.6 2455.23   5
  -3   4   5 60433.1 2463.23  14
  -3   4   4 22981.9 1522.76  17
   3   4  -4 21394.8 1304.20   8
  -3   4   4 20690.0 1450.02   4
   3   4  -4 22947.2 1337.58   5
   3   4  -3 5055.69 613.910   5
  -3   4   3 4870.54 672.412   4
   3   4  -2 6559.19 639.719   5
  -3   4   2 6849.85 753.707   4
   3   4  -1 80057.0 2598.53   5
  -3   4   1 80396.0 2807.65   4
   3   4   0 35314.6 1524.58   5
  -3   4   0 38435.2 1707.88   4
   3   4   1 6684.19 610.841   5
   3   4   1 6656.55 754.946   1
   3   4   2 31672.9 1720.01   1
   3   4   3 71075.5 2815.76   1
   3   4   4 35620.3 1684.36  18
   3   4   4 35865.1 1625.86  17
   3   4   4 38149.6 1542.05  10
   3   4   4 38561.2 1703.39  14
   3   4   4 34750.4 1941.94   1
   3   4   5 48929.5 1889.33  10
   3   4   5 48156.5 1873.59  11
   3   4   5 47356.4 2047.45  17
   3   4   5 50069.7 2068.92  18
   3   4   5 50845.9 2059.30  14
   3   4   6 12049.8 879.893  11
   3   4   6 11702.1 946.164  18
   3   4   6 10377.4 938.265  17
   3   4   6 12873.4 907.081  10
   3   4   6 12703.9 994.779  14
   3   4   7 12815.4 905.485  10
   3   4   7 13846.1 1058.39  17
   3   4   7 11938.9 897.321  18
   3   4   7 13110.6 899.600  11
   3   4   7 12447.2 940.268  14
   3   4   8 53100.4 1865.51  18
   3   4   8 56104.0 2178.93  17
   3   4   8 50428.9 1866.62   9
   3   4   8 52031.4 1848.42  11
   3   4   9 11351.8 675.890  11
   3   4   9 10897.2 634.610   9
   3   4   9 11878.5 830.680  17
   3   4  10 1863.08 208.301  11
   3   4  10 2920.86 330.666  17
   3   5  -9 31841.0 1137.09  10
  -3   5   9 33985.6 1412.97  17
   3   5  -9 31398.4 1308.97   8
  -3   5   8 26662.9 1195.14  18
  -3   5   8 26541.8 1455.48  17
   3   5  -8 25911.2 1362.67   8
  -3   5   8 26094.6 1100.78  14
  -3   5   7 40318.7 1833.61  18
   3   5  -7 38878.3 1887.84   8
  -3   5   7 43348.1 1764.29  14
  -3   5   7 44000.0 2089.18  17
  -3   5   6 5935.76 810.528  17
  -3   5   6 5540.13 745.984  18
   3   5  -6 5795.83 757.884   8
  -3   5   6 6692.52 738.047  14
  -3   5   5 2734.76 564.987  17
  -3   5   5 1473.14 451.627  18
   3   5  -5 3375.17 612.654   8
  -3   5   5 2718.84 542.252  14
  -3   5   4 18890.5 1446.21  18
  -3   5   4 17796.6 1385.32  17
   3   5  -4 19397.4 1344.17   8
  -3   5   4 17769.1 1359.17  14
  -3   5   3 21177.1 1466.49  17
   3   5  -3 20589.7 1209.78  10
  -3   5   3 20398.3 1501.50  18
   3   5  -3 18193.3 1258.38   8
  -3   5   3 20313.5 1482.06  14
   3   5  -2 16517.5 1061.47  10
  -3   5   2 17307.6 1379.38  18
   3   5  -2 15939.8 1104.64   5
  -3   5   2 15534.3 1232.11  17
  -3   5   2 18112.7 1023.61   8
   3   5  -2 16716.3 1148.59   8
  -3   5   2 16847.8 1352.16  14
   3   5  -1 64217.3 2230.16  10
  -3   5   1 56044.3 2593.00  18
   3   5  -1 58364.4 2232.67   5
  -3   5   1 58872.3 2064.01   8
   3   5  -1 54025.7 2216.24   8
  -3   5   1 61098.8 2708.46  14
  -3   5   0 121471. 4073.52  18
   3   5   0 117085. 3459.88  10
   3   5   0 121515. 3603.80   5
  -3   5   0 127870. 3421.19   8
   3   5   0 121930. 3594.76   8
  -3   5   0 121725. 4167.37  14
   3   5   1 33611.8 1488.54  10
   3   5   1 32305.5 1503.26  18
   3   5   1 32672.1 1501.13   8
  -3   5  -1 35489.4 1453.67   8
  -3   5  -1 32756.1 1797.74  18
   3   5   1 34417.5 1501.79  14
  -3   5  -1 32231.3 1879.22  14
   3   5   1 33721.5 1578.82   5
   3   5   2 69005.5 2503.59  18
   3   5   2 69620.3 2333.59  10
  -3   5  -2 65686.0 2833.20  14
   3   5   2 70864.1 2317.96   8
   3   5   2 73201.3 2496.74  14
   3   5   3 113726. 3212.62  10
   3   5   3 110854. 3497.34  18
   3   5   3 104764. 3379.43  14
  -3   5  -3 111132. 3745.84  14
   3   5   4 39761.7 1717.02  11
   3   5   4 43039.0 1714.31  10
   3   5   4 41682.7 1931.39  18
   3   5   4 43916.5 1921.76  14
   3   5   5 3397.42 527.230  18
   3   5   5 2856.59 419.603  10
   3   5   5 3229.90 475.482  11
   3   5   5 3040.18 480.422  17
   3   5   5 2667.55 476.472  14
   3   5   6 33014.9 1501.26  11
   3   5   6 34806.4 1635.11  18
   3   5   6 32446.6 1584.18  17
   3   5   6 34759.4 1616.12  14
   3   5   7 31024.5 1485.92  17
   3   5   7 31401.2 1349.74  11
   3   5   7 32196.6 1444.91  18
   3   5   7 33645.9 1479.37  14
   3   5   8 6823.77 597.826  17
   3   5   8 6658.43 539.253   9
   3   5   8 6956.50 524.650  18
   3   5   8 7018.42 520.149  11
   3   5   9 1344.77 179.597  11
   3   5   9 1405.63 230.764  17
   3   5   9 1273.20 186.241   9
   3   6  -8 9069.07 572.867   8
   3   6  -8 9507.63 527.354  10
  -3   6   8 8350.03 467.063  18
  -3   6   8 8848.00 616.769  17
  -3   6   8 7729.80 403.585  14
  -3   6   7 1636.70 356.175  17
  -3   6   7 2083.38 334.581  18
   3   6  -7 2297.09 321.340  10
  -3   6   7 2253.48 317.265  14
   3   6  -7 1850.28 336.514   8
   3   6  -6 6479.73 602.231  10
  -3   6   6 7181.42 720.482  18
  -3   6   6 6322.76 702.940  17
   3   6  -6 6281.31 681.489   8
  -3   6   6 6626.92 649.209  14
   3   6  -5 39299.6 1664.98  10
  -3   6   5 34806.1 1793.14  17
   3   6  -5 36823.2 1836.03   8
  -3   6   5 37683.9 1830.89  14
  -3   6   5 36564.9 1879.78  18
   3   6  -4 30129.8 1487.00  10
  -3   6   4 30875.2 1787.34  18
  -3   6   4 30132.7 1658.36  17
   3   6  -4 30416.0 1674.51   8
  -3   6   4 30451.9 1723.18  14
   3   6  -3 1821.01 387.148  10
  -3   6   3 1838.44 454.318  18
  -3   6   3 2379.68 469.746  17
   3   6  -3 2543.21 487.417   8
  -3   6   3 2240.55 532.493  14
  -3   6   2 30299.7 1833.33  18
   3   6  -2 32619.1 1545.50  10
  -3   6   2 33942.1 1507.57   8
   3   6  -2 29560.7 1624.46   8
  -3   6   2 29284.5 1809.29  14
  -3   6   1 26069.0 1674.21  18
   3   6  -1 28884.1 1435.46  10
  -3   6   1 29934.7 1383.08   8
   3   6  -1 28057.2 1511.82   8
  -3   6   1 28262.1 1780.62  14
  -3   6   0 58360.5 2559.37  18
   3   6   0 59791.6 2289.05   8
   3   6   0 62104.2 2230.13  10
  -3   6   0 64521.5 2172.72   8
  -3   6   0 56779.9 2643.26  14
   3   6   1 53322.1 1971.37  18
  -3   6  -1 49261.8 2167.44  18
   3   6   1 51819.3 1952.20  10
  -3   6  -1 55904.6 1945.85   8
   3   6   1 50617.4 1993.63   8
  -3   6  -1 46600.3 2347.56  14
   3   6   2 8704.91 773.636  18
   3   6   2 8651.42 701.542  10
   3   6   2 9392.16 725.298   8
   3   6   2 9284.83 761.402  14
  -3   6  -2 8815.50 898.704  14
   3   6   3 14221.2 1017.52  18
   3   6   3 15513.6 915.023  10
   3   6   3 14425.7 838.656   8
   3   6   3 14063.3 974.032  14
   3   6   4 22454.4 1259.79  18
   3   6   4 20376.4 1031.48  10
   3   6   4 21820.5 1151.66  11
   3   6   4 22644.4 1242.23  14
   3   6   5 16207.9 1015.00  18
   3   6   5 14129.6 887.750  11
   3   6   6 27107.7 1213.59  18
   3   6   6 24718.1 1099.28  11
   3   6   6 23172.6 1013.43  17
   3   6   6 26324.7 1197.94  14
   3   6   7 15166.8 763.369  18
   3   6   7 13909.9 686.866  11
   3   6   7 13942.2 728.648   9
   3   6   7 12746.6 633.224  17
   3   7  -6 3389.99 310.981  10
  -3   7   6 3289.42 291.703  17
   3   7  -6 3168.75 326.343   8
  -3   7   6 3393.34 323.972  14
  -3   7   6 3374.73 345.999  18
   3   7  -5 2321.47 306.327  10
  -3   7   5 1741.76 309.630  18
  -3   7   5 1871.99 264.495  17
   3   7  -5 2437.02 358.266   8
  -3   7   5 1415.41 277.605  14
   3   7  -4 643.907 223.546  10
  -3   7   4 377.916 263.423  18
   3   7  -4 440.098 234.046   8
  -3   7   4 496.033 223.240  14
   3   7  -3 11496.0 753.360  10
  -3   7   3 11225.8 900.524  18
   3   7  -3 12639.7 878.971   8
  -3   7   3 11717.7 905.349  14
   3   7  -2 18692.6 994.243  10
  -3   7   2 17202.9 1158.05  18
   3   7  -2 19304.9 1088.21   8
  -3   7   2 19020.8 1203.43  14
   3   7  -1 15158.5 875.231  10
   3   7  -1 14307.2 914.163   8
  -3   7   1 13211.2 1032.18  14
  -3   7   1 13439.9 976.217  18
   3   7   0 4697.72 506.018   8
  -3   7   0 3598.39 545.136  14
   3   7   0 3797.20 424.719  10
  -3   7   0 3584.81 444.474  18
   3   7   1 2338.87 327.319  10
  -3   7  -1 2797.63 328.741   8
   3   7   1 2527.28 342.131   8
  -3   7  -1 2493.65 424.307  14
   3   7   2 5805.82 501.184  11
   3   7   2 6531.13 510.501  18
   3   7   2 6591.99 507.942   8
   3   7   2 6254.07 483.443  14
   3   7   2 6176.98 478.717  10
   3   7   3 7234.10 503.778   9
   3   7   3 7892.56 566.790  11
   3   7   3 8232.21 585.462  18
   3   7   3 7500.93 538.721  14
   3   7   4-42.8238 133.969  11
   3   7   4-138.633 126.394  18
   3   7   4 42.4058 111.349   9
   3   7   4 156.919 133.481  14
   3   7   5 2109.14 252.804  11
   3   7   5 2187.98 273.968  18
   3   7   5 2155.60 254.093   9
   3   8  -1 14967.8 620.301   8
   3   8   0 12288.9 524.017   8
   4  -7  -5 4831.31 348.661   7
   4  -7  -5 4849.49 352.037  13
   4  -7  -4 807.397 166.354   7
   4  -7  -4 579.590 155.143  13
   4  -7  -3 20520.7 815.192  19
   4  -7  -3 20721.9 880.057  13
   4  -7  -3 20844.7 908.190   7
   4  -7  -2 1570.76 262.798   7
   4  -7  -2 1479.21 242.878  19
   4  -7  -2 1524.04 245.983  13
   4  -7  -1 1511.89 264.753   7
   4  -7  -1 1453.68 250.421  19
   4  -7  -1 1628.01 243.318  13
  -4  -7   1 1280.11 211.852  13
   4  -7   0 709.951 214.820   7
   4  -7   0 983.625 230.909  19
   4  -7   0 966.171 201.444  13
  -4  -7   0 737.448 178.198  13
   4  -7   1 5109.25 471.085  19
   4  -7   1 5670.99 382.143  13
   4  -7   1 5604.26 482.621   7
   4  -7   2 9302.89 633.798  19
   4  -7   2 10175.8 624.217   7
   4  -7   3 192.405 116.575   7
   4  -7   3 101.818 134.298  19
   4  -7   4 15380.1 737.658  19
   4  -7   4 15872.9 649.453   7
  -4  -6   8 9366.62 455.412   7
   4  -6  -8 11017.2 473.409  13
   4  -6  -7 7703.13 494.164   7
   4  -6  -7 8730.16 510.635  13
   4  -6  -6 16875.9 855.975   7
   4  -6  -6 17783.1 852.462  13
   4  -6  -5 5540.63 508.498   7
   4  -6  -5 4061.00 424.400  13
   4  -6  -4 42487.5 1599.06  19
   4  -6  -4 44654.1 1612.01  13
   4  -6  -4 44684.2 1652.26   7
   4  -6  -3 9250.37 698.648  19
   4  -6  -3 9315.20 673.514  13
   4  -6  -3 10636.5 747.857   7
   4  -6  -2 63511.8 2192.75  19
   4  -6  -2 64450.1 2077.32  13
   4  -6  -2 63937.7 2181.29   7
   4  -6  -1 4109.15 521.628  19
   4  -6  -1 3980.78 447.465  13
   4  -6  -1 3590.58 455.513   7
   4  -6   0 70980.2 2452.32  19
   4  -6   0 72732.2 2222.26  13
   4  -6   0 72158.0 2420.85   7
   4  -6   1 9639.32 812.236  19
   4  -6   1 10190.8 656.524  13
   4  -6   1 9822.35 762.529   7
   4  -6   2 20198.7 1188.63  19
   4  -6   2 21125.8 1140.52   7
   4  -6   3 44108.3 1849.62  19
   4  -6   3 44007.7 1719.89   7
   4  -6   4 3324.23 473.397  19
   4  -6   4 4505.78 469.896   7
   4  -6   5 13029.6 853.027  19
   4  -6   5 12652.4 706.164   7
   4  -6   6 1175.53 250.151  19
   4  -6   7 12840.1 612.497  19
  -4  -5   9 3368.43 300.182  19
   4  -5  -9 4262.32 328.252  13
  -4  -5   8 13600.2 742.740  19
   4  -5  -8 15568.3 768.005  13
   4  -5  -8 13339.4 762.886   7
   4  -5  -7 3654.82 425.790   7
   4  -5  -7 3591.03 420.376  13
   4  -5  -6 17327.3 991.979   7
   4  -5  -6 17329.0 962.934  13
   4  -5  -5 13639.9 948.891  16
   4  -5  -5 15219.4 954.272  19
   4  -5  -5 15739.9 925.624  13
   4  -5  -5 15940.5 957.881   7
   4  -5  -4 2478.73 370.162   7
   4  -5  -4 2358.13 392.813  12
   4  -5  -4 2600.09 389.030  19
   4  -5  -4 3105.01 434.740  16
   4  -5  -4 3050.77 405.668  13
   4  -5  -3 5243.00 577.243  12
   4  -5  -3 4232.35 507.470  19
   4  -5  -3 5624.04 533.650  13
   4  -5  -3 4648.74 510.171   7
   4  -5  -2-17.1188 178.963   7
   4  -5  -2 84.6206 170.283  19
   4  -5  -2 222.558 229.551   9
   4  -5  -2 164.046 171.977  13
   4  -5  -1 71037.9 2422.97  19
   4  -5  -1 64357.8 2424.13   9
   4  -5  -1 69074.5 2171.96  13
   4  -5  -1 68655.2 2308.71   7
   4  -5   0 3782.44 517.813  19
   4  -5   0 2505.54 411.667   9
   4  -5   0 3150.33 377.385  13
   4  -5   0 3017.77 442.803   7
   4  -5   1 86355.0 2863.35  19
   4  -5   1 91985.2 2780.40   7
   4  -5   2 35523.1 1701.04  19
   4  -5   2 35938.4 1642.52   6
   4  -5   2 37848.7 1638.98   7
   4  -5   3 37713.8 1777.55  19
   4  -5   3 35843.0 1682.14   6
   4  -5   3 34715.8 1578.42   7
   4  -5   4 6817.01 731.266  19
   4  -5   4 7282.63 749.066   6
   4  -5   4 7150.30 655.090   7
   4  -5   5 2761.95 392.637   7
   4  -5   5 2358.90 451.790  19
   4  -5   5 3144.20 518.017   6
   4  -5   6 14296.4 1009.14   6
   4  -5   6 17038.2 1073.52  19
   4  -5   7 14063.6 908.557   6
   4  -5   7 13517.0 856.190  19
   4  -5   8 12957.4 742.954   6
   4  -5   8 13558.7 686.599  19
  -4  -4  10 297.904 151.439  19
   4  -4 -10 399.822 119.886  13
   4  -4  -9 13676.8 803.858   7
   4  -4  -9 14942.3 775.543  13
   4  -4  -9 13129.8 763.878  12
   4  -4  -8 90494.4 2812.74   7
   4  -4  -8 97818.6 2749.98  13
   4  -4  -8 96431.9 2948.71  12
   4  -4  -7 7884.48 694.244   7
   4  -4  -7 10455.5 743.829  13
   4  -4  -7 9208.03 796.159  12
   4  -4  -6 14795.9 1092.51  16
   4  -4  -6 14955.6 947.847   7
   4  -4  -6 15534.8 929.190  13
   4  -4  -6 16251.6 1094.09  12
   4  -4  -5 8711.88 771.935  12
   4  -4  -5 7418.01 739.299  16
   4  -4  -5 7273.78 924.547   2
   4  -4  -5 8460.90 729.155  19
   4  -4  -5 8166.53 642.231  13
   4  -4  -5 7757.81 649.546   7
   4  -4  -4 3109.00 461.802  12
   4  -4  -4 2521.32 373.443  19
   4  -4  -4 2344.99 457.266   9
   4  -4  -4 2561.04 404.169  16
   4  -4  -4 3014.07 576.182   2
  -4  -4   4 2256.36 377.026   3
   4  -4  -4 2976.78 390.533   7
   4  -4  -4 2194.60 325.212  13
   4  -4  -3 28331.3 1627.11   2
   4  -4  -3 28811.4 1492.96   9
  -4  -4   3 31418.7 1398.57   3
   4  -4  -3 31190.3 1381.28  19
   4  -4  -3 33507.6 1286.79  13
   4  -4  -3 30165.1 1297.83   7
  -4  -4   2 27072.6 1338.23   3
   4  -4  -2 26372.2 1497.75   2
   4  -4  -1 21841.5 1277.28   2
  -4  -4   1 20972.3 1211.02   3
  -4  -4   0 53810.5 2161.67   3
   4  -4   0 56419.3 2150.35   2
   4  -4   1 51658.3 1994.01   2
  -4  -4  -1 48076.5 2039.58   3
  -4  -4  -2 14496.2 1076.48   3
   4  -4   2 16121.8 1010.72  19
   4  -4   2 14018.4 775.904   3
   4  -4   3 26150.6 1247.58   7
   4  -4   3 28155.4 1474.82   6
   4  -4   3 28027.4 1437.73  19
   4  -4   3 27039.2 1415.70  15
   4  -4   3 26537.4 1188.03   3
   4  -4   4 2176.00 440.275  19
   4  -4   4 3013.55 499.924   6
   4  -4   4 2340.31 461.036  15
   4  -4   4 3042.73 408.177   3
   4  -4   5 112472. 3609.73  19
   4  -4   5 117533. 3822.61   6
   4  -4   5 120133. 3738.39  15
   4  -4   6 1085.38 338.361  19
   4  -4   6 1639.69 394.778  15
   4  -4   7 15971.0 1092.27  15
   4  -4   7 14631.6 995.911  19
   4  -4   7 15318.7 1133.57   6
   4  -4   8 27152.6 1430.75   6
   4  -4   8 28605.2 1252.90  19
   4  -4   8 28120.7 1361.45  15
   4  -4   9 11526.5 568.525  19
   4  -4   9 11190.3 756.798   6
   4  -4   9 11863.5 697.122  15
   4  -3 -11 1879.02 275.178  20
  -4  -3  11 1413.91 219.133   6
  -4  -3  10 17901.4 1002.41   6
   4  -3 -10 18409.7 887.518  13
  -4  -3   9 13513.8 939.475   6
   4  -3  -9 12492.6 855.737   7
   4  -3  -9 13239.8 818.722  13
   4  -3  -9 12042.1 931.960  12
  -4  -3   8 22381.2 1288.95   6
   4  -3  -8 23858.6 1271.52   7
   4  -3  -8 24353.5 1184.46  13
   4  -3  -8 23487.9 1390.66  12
   4  -3  -7 56577.8 2383.74  16
   4  -3  -7 57316.0 1980.33  13
   4  -3  -7 53797.3 2045.18   7
   4  -3  -7 55274.0 2289.52  12
   4  -3  -6 38460.5 1838.06  16
   4  -3  -6 36892.0 1550.28   7
   4  -3  -6 36940.6 1506.32  13
   4  -3  -6 39128.6 2156.21   2
   4  -3  -6 40936.3 1821.30  12
   4  -3  -5 19428.0 1432.61   2
   4  -3  -4 11301.6 1035.59   2
  -4  -3   4 11493.4 672.983   3
   4  -3  -3 10393.7 925.349   2
  -4  -3   3 10474.8 664.271   3
   4  -3  -2 8061.82 767.703   2
  -4  -3   2 8183.67 615.621   3
   4  -3  -1 2203.24 401.255   2
  -4  -3   1 1737.02 325.217   3
  -4  -3   0 143581. 3797.01   3
   4  -3   0 135293. 3867.48   2
   4  -3   1 18926.8 1114.24   2
   4  -3   1 19571.6 801.329   3
   4  -3   2 103327. 3115.24   2
   4  -3   2 103245. 2674.15   3
   4  -3   3 86737.4 2475.66   3
   4  -3   4 262.104 174.240   3
   4  -3   4 488.857 188.505   1
   4  -3   5 77267.7 2769.54   6
   4  -3   5 68279.4 2337.49   3
   4  -3   5 68008.2 2448.29  19
   4  -3   5 70152.3 2649.27  15
   4  -3   5 72612.5 2426.93   1
   4  -3   6 7135.30 721.629  19
   4  -3   6 8061.68 852.749   6
   4  -3   6 8206.24 858.378  15
   4  -3   7 20103.6 1379.12   6
   4  -3   7 22168.0 1226.06  19
   4  -3   7 22658.4 1440.86  15
   4  -3   8 53493.2 1898.11  19
   4  -3   8 49355.0 2204.67   6
   4  -3   8 50455.3 2178.95  15
   4  -3   9 48482.9 1981.62   6
   4  -3   9 47008.3 1916.58  15
   4  -3  10 794.531 234.908   6
   4  -3  10 486.792 186.799  15
  -4  -2  12 18547.1 786.770   6
   4  -2 -12 15186.9 645.184   8
   4  -2 -11 48735.3 1760.11  20
  -4  -2  11 44931.1 1771.85   6
  -4  -2  10 706.201 282.251   6
   4  -2 -10 527.306 200.753  13
   4  -2 -10 625.329 298.261  12
   4  -2  -9 27565.5 1302.05  13
   4  -2  -9 27193.3 1552.43  12
   4  -2  -8 141831. 4161.02  16
   4  -2  -8 126632. 3754.10   7
   4  -2  -8 133144. 3636.63  13
   4  -2  -8 132457. 4149.46  12
   4  -2  -7 119213. 3654.57  16
   4  -2  -7 112738. 3291.05   7
   4  -2  -7 112373. 3157.42  13
   4  -2  -7 111180. 4042.90   2
   4  -2  -7 110720. 3580.08  12
   4  -2  -6 76187.7 3071.09   2
   4  -2  -5 150869. 4618.48   2
   4  -2  -4 8922.01 842.118   2
   4  -2  -3 23611.7 1352.26   2
  -4  -2   3 25970.3 916.667   3
   4  -2  -2 26357.9 1346.23   2
  -4  -2   2 27719.9 1022.48   3
   4  -2  -1 95473.0 2915.56   2
  -4  -2   1 100178. 2606.71   3
   4  -2   0 671568. 14124.9   2
   4  -2   0 671791. 13283.1   3
   4  -2   1 34629.4 1075.25   3
   4  -2   1 36587.6 1506.67   2
   4  -2   2 126319. 3546.35   2
   4  -2   2 130676. 3111.35   3
   4  -2   3 23257.2 1013.16   3
   4  -2   3 23847.7 1048.20   1
   4  -2   4 4228.75 463.712   3
   4  -2   4 5674.44 535.702   1
   4  -2   5 21652.3 1165.23   1
   4  -2   6 7726.61 796.610   6
   4  -2   6 8001.40 817.914  15
   4  -2   6 6998.93 802.583  10
   4  -2   6 6559.76 666.548   1
   4  -2   7 76820.9 2866.73   6
   4  -2   7 70378.7 2806.22  15
   4  -2   8 134968. 4207.62   6
   4  -2   8 137814. 4268.34  15
   4  -2   9 17689.3 1169.68   6
   4  -2   9 15400.9 1134.57  15
   4  -2  10 354.525 237.612  15
   4  -2  10 220.152 196.221   6
   4  -2  11 19679.2 850.688  15
   4  -2  11 18325.8 754.669   6
   4  -1 -12 4363.84 388.956  20
  -4  -1  12 5250.18 470.697   6
  -4  -1  12 4428.92 326.374  15
   4  -1 -12 5018.46 397.434   8
   4  -1 -11 15946.0 1011.83  20
  -4  -1  11 17469.3 1095.10   6
  -4  -1  11 16511.3 911.958  15
  -4  -1  10 10795.1 824.617  15
   4  -1 -10 8459.84 672.876  13
   4  -1  -9 15814.4 1130.46  21
  -4  -1   9 15431.5 1040.11  15
   4  -1  -9 13682.4 921.559  13
   4  -1  -9 16078.9 1209.72  12
   4  -1  -8 17489.7 1115.76  16
   4  -1  -8 16173.9 984.544  13
   4  -1  -8 15794.2 1150.97  21
  -4  -1   8 17942.3 1098.53  15
   4  -1  -8 15729.3 1182.42  12
   4  -1  -7 11463.3 823.138   7
   4  -1  -7 11519.9 759.221  13
   4  -1  -7 10783.0 1078.00   2
   4  -1  -7 11523.6 945.508  12
   4  -1  -6 164753. 4896.89   2
  -4  -1   5 39273.5 1560.99   4
   4  -1  -5 36161.3 1802.80   2
  -4  -1   4 15389.2 867.118   4
   4  -1  -4 13667.3 1000.72   2
  -4  -1   3 45223.5 1579.40   4
   4  -1  -3 46310.6 1835.67   2
   4  -1  -2 34988.1 1472.49   2
  -4  -1   2 36153.5 980.980   3
  -4  -1   2 33533.1 1286.75   4
  -4  -1   1 3098.31 348.527   4
  -4  -1   1 3551.92 272.715   3
   4  -1  -1 2479.45 348.897   2
   4  -1   0 67836.7 2110.60   2
   4  -1   0 66592.1 1623.42   1
   4  -1   1 100980. 2881.95   2
   4  -1   1 104678. 2477.72   1
   4  -1   2 88737.9 2646.19   2
   4  -1   2 89998.4 2340.76   1
   4  -1   3 127838. 3261.29   1
   4  -1   4 142161. 3712.40   1
   4  -1   5 66448.9 2288.89   1
   4  -1   6 12231.0 833.754  11
   4  -1   6 11728.1 1013.85  10
   4  -1   6 14308.8 1002.91   6
   4  -1   6 13805.4 1003.40  15
   4  -1   6 12369.7 942.091   1
   4  -1   7 40568.5 1897.84   6
   4  -1   7 38921.7 2081.70  10
   4  -1   8 12429.0 1015.35   6
   4  -1   8 12125.8 1045.34  15
   4  -1   8 10221.2 1054.31  10
   4  -1   9 49972.4 2046.59   6
   4  -1   9 46558.6 2103.01  15
   4  -1  10 30573.3 1364.13   6
   4  -1  10 31842.5 1513.10  15
   4  -1  11 1107.85 226.226  15
  -4   0  12 34554.3 1331.82   6
  -4   0  12 34316.6 1245.68  15
   4   0 -12 31384.6 1180.27   8
   4   0 -11 1953.53 403.212  20
  -4   0  11 2094.14 427.489   6
  -4   0  11 2353.99 397.630  15
   4   0 -11 1846.29 366.802   8
   4   0 -10 2795.53 533.064  20
   4   0 -10 3050.42 531.984  21
  -4   0  10 2664.12 465.801  15
   4   0  -9 3985.83 611.241  12
   4   0  -9 3893.04 657.313  21
  -4   0   9 4312.72 601.352  15
   4   0  -9 3916.26 502.473  13
   4   0  -8 8587.13 915.600  21
   4   0  -8 8831.45 732.424  13
   4   0  -8 10215.6 1024.02   2
   4   0  -8 8219.73 854.975  12
   4   0  -7 1138.45 348.361  12
  -4   0   7 856.752 302.645   4
   4   0  -7 2264.87 517.836   2
   4   0  -7 1825.78 353.488  13
  -4   0   6 824.484 350.258   4
   4   0  -6 87.5772 270.122   2
  -4   0   5 929.691 317.229   4
   4   0  -5 1011.97 305.936   2
  -4   0   4 137467. 3843.26   4
   4   0  -4 138662. 3791.16   2
   4   0  -3 4812.23 501.106   2
  -4   0   3 2881.02 396.663   4
  -4   0   2 13018.8 812.762   4
   4   0  -2 12613.2 761.689   2
  -4   0   1 82284.3 2397.26   4
   4   0  -1 79375.9 2300.97   2
   4   0  -1 80927.7 1849.21   1
   4   0   0 195293. 4684.63   2
   4   0   0 204628. 4348.11   1
   4   0   1 319505. 6884.99   1
   4   0   1 336819. 7221.70   2
   4   0   2 58771.9 1790.83   1
   4   0   2 61799.9 1966.19   2
   4   0   3 514.594 187.359   1
   4   0   4 41945.1 1653.29   1
   4   0   5 42983.8 1806.30   1
   4   0   6 13786.6 854.151  11
   4   0   6 12470.6 1004.96  10
   4   0   6 12083.9 965.480   1
   4   0   7 21955.3 1194.75  11
   4   0   7 22602.7 1437.94   1
   4   0   7 23315.4 1296.34  17
   4   0   7 22340.5 1496.04  10
   4   0   7 22700.8 1272.18   6
   4   0   7 22357.1 1333.97  15
   4   0   8 15341.8 1015.15  11
   4   0   8 17055.5 1094.74  17
   4   0   8 15810.6 1048.97   6
   4   0   8 15042.5 1276.52  10
   4   0   8 15922.5 1149.53  15
   4   0   9 13185.2 1154.58  10
   4   0   9 14326.0 930.899  16
   4   0   9 14819.6 1075.60  15
   4   0  10 40519.9 1718.39  15
   4   0  11 29151.7 1161.88  15
  -4   1  12 4886.06 411.347   6
  -4   1  12 5287.65 454.018  15
   4   1 -12 4599.71 378.300   8
   4   1 -11 14751.4 1014.81  20
  -4   1  11 18028.5 1070.81  15
   4   1 -11 15434.6 976.406   8
   4   1 -10 9617.68 968.319  21
  -4   1  10 8954.99 847.588  15
   4   1 -10 8846.06 841.311   8
   4   1 -10 8617.36 877.007  20
   4   1  -9 15228.8 1271.71  21
   4   1  -9 16641.3 1254.41  20
   4   1  -8 17649.7 1232.97  20
   4   1  -8 16580.0 1294.21  21
   4   1  -8 15171.1 1143.19  12
  -4   1   7 11507.4 1081.28   4
   4   1  -7 11329.4 804.743  13
   4   1  -7 12418.2 1043.61  21
   4   1  -7 10997.1 889.462  12
   4   1  -6 169328. 4261.42   5
  -4   1   6 168179. 4980.71   4
   4   1  -5 43954.6 1524.45   5
  -4   1   5 42670.2 1992.22   4
   4   1  -5 41339.8 1639.98   2
   4   1  -4 14849.3 843.169   2
   4   1  -4 14599.1 726.025   5
  -4   1   4 13758.2 1037.25   4
   4   1  -3 46434.4 1534.69   2
   4   1  -3 44948.8 1357.40   5
  -4   1   3 45357.8 1864.68   4
   4   1  -2 36467.4 1246.54   2
   4   1  -2 35755.9 1072.16   5
  -4   1   2 33662.3 1519.98   4
  -4   1   1 2789.29 416.584   4
   4   1  -1 3242.52 335.196   2
   4   1  -1 3318.21 302.629   1
   4   1   0 64772.4 1861.21   2
   4   1   0 64889.7 1850.94   1
   4   1   1 101886. 2713.34   1
   4   1   1 99309.0 2649.80   2
   4   1   2 90470.3 2627.18   1
   4   1   3 126435. 3525.35   1
  -4   1  -3 130275. 3019.64   5
   4   1   4 145506. 4155.69   1
  -4   1  -4 154356. 3636.33   5
   4   1   5 64947.2 2505.51   1
  -4   1  -5 68062.6 2087.69   5
   4   1   6 14010.9 862.846  11
   4   1   6 14930.5 1007.60  17
   4   1   6 13406.7 1021.92  10
   4   1   6 12349.1 1073.07   1
  -4   1  -6 14488.6 891.675   5
   4   1   7 41768.0 2052.24  10
   4   1   7 40804.1 1696.38  11
   4   1   7 40204.0 1571.66   9
   4   1   7 44876.4 1942.16  17
   4   1   7 42841.1 1825.55  15
   4   1   8 12575.5 906.738  11
   4   1   8 12242.7 1108.28  10
   4   1   8 12698.9 976.506  17
   4   1   8 10979.8 897.393  15
   4   1   9 45590.8 1810.01  11
   4   1   9 45864.0 2186.01  10
   4   1   9 49147.3 1963.27  15
   4   1   9 51764.6 2010.08  17
   4   1  10 32541.9 1355.44  16
   4   1  10 31548.9 1363.61  15
   4   1  11 775.177 156.397  15
  -4   2  12 17197.6 770.476  15
  -4   2  11 46079.7 1627.12   6
  -4   2  11 47629.0 1794.54  15
   4   2 -11 45471.4 1720.88   8
  -4   2  10 869.931 334.541  15
   4   2 -10 1064.19 310.623   8
   4   2  -9 25340.2 1652.73  21
   4   2  -9 26807.6 1599.69  20
   4   2  -9 27346.3 1566.43   8
   4   2  -8 128594. 4160.67  20
   4   2  -8 125679. 4334.12  21
   4   2  -8 143241. 4258.60   8
  -4   2   8 137001. 4060.45  17
   4   2  -7 105967. 3671.82  21
   4   2  -7 105136. 3494.13  20
  -4   2   7 104070. 3500.84  17
   4   2  -7 103371. 3252.58   5
   4   2  -7 113180. 3567.06   8
  -4   2   7 114362. 4004.54   4
   4   2  -6 77463.5 2564.86   5
  -4   2   6 76808.1 3127.40   4
   4   2  -5 156037. 4076.91   5
  -4   2   5 155497. 4794.79   4
   4   2  -4 8036.52 618.270   5
  -4   2   4 7671.35 821.984   4
   4   2  -3 26198.8 1109.20   5
  -4   2   3 25435.0 1443.88   4
   4   2  -2 25992.1 1035.63   5
  -4   2   2 24478.2 1361.12   4
  -4   2   1 97800.1 3031.33   4
   4   2  -1 92324.9 2608.11   1
   4   2  -1 96425.6 2469.30   5
  -4   2   0 650450. 13846.5   4
   4   2   0 642588. 13118.5   5
   4   2   0 649627. 13520.0   1
   4   2   1 33685.0 1439.11   1
   4   2   2 119187. 3437.79   1
   4   2   3 21337.4 1250.83   1
   4   2   4 3465.25 528.555   1
   4   2   5 19515.4 1356.37   1
   4   2   6 6519.62 615.771  11
   4   2   6 7435.38 647.430  18
   4   2   6 7278.01 734.038  10
   4   2   6 6494.16 615.726   9
   4   2   6 7566.56 763.758  17
   4   2   6 8312.31 926.424   1
   4   2   7 70283.2 2787.68  10
   4   2   7 75459.3 2425.92  18
   4   2   7 71979.9 2406.83   9
   4   2   7 77080.7 2498.66  11
   4   2   7 78215.8 2800.43  17
   4   2   8 141772. 3673.91   9
   4   2   8 139363. 3834.68  11
   4   2   8 131980. 4231.89  10
   4   2   8 137009. 4120.86  17
   4   2   9 14409.5 892.929  11
   4   2   9 12632.2 1000.44  10
   4   2  10 193.699 160.228  11
   4   2  10 250.599 210.017  16
   4   2  11 17412.1 683.868  16
  -4   3  11 1824.15 298.944  15
   4   3 -11 1257.04 260.267   8
  -4   3  10 19721.1 998.677  17
  -4   3  10 20006.8 1146.18  15
   4   3 -10 18886.6 1130.74   8
  -4   3   9 14535.6 1027.05  17
   4   3  -9 12376.7 1013.44   8
   4   3  -8 21347.1 1483.84  21
  -4   3   8 22060.6 1432.74  17
   4   3  -8 22129.1 1425.71   8
  -4   3   7 51392.7 2388.58  17
   4   3  -7 52716.6 2305.25   8
   4   3  -7 50453.7 2337.06  21
   4   3  -6 33849.3 1780.29  21
  -4   3   6 36558.7 1970.72  17
   4   3  -6 34560.8 1650.82   5
   4   3  -6 32531.9 1721.47  20
   4   3  -6 37658.1 1861.79   8
  -4   3   6 37516.0 2129.96   4
   4   3  -5 19036.7 1154.35   5
  -4   3   5 19228.3 1468.85   4
   4   3  -4 9542.76 763.241   5
  -4   3   4 10084.1 1006.79   4
   4   3  -3 10972.4 782.237   5
  -4   3   3 11617.3 1023.74   4
   4   3  -2 7913.51 636.531   5
  -4   3   2 8730.70 856.736   4
   4   3  -1 1847.43 361.424   1
  -4   3   1 2020.78 438.078   4
   4   3  -1 1822.22 308.906   5
  -4   3   0 130344. 3948.69   4
   4   3   0 131835. 3773.73   1
   4   3   0 133833. 3441.26   5
  -4   3  -1 16361.7 1136.28   4
   4   3   1 17255.3 1128.53   1
   4   3   1 19040.6 944.656   5
   4   3   2 93680.6 3141.88   1
   4   3   3 79262.5 2903.71   1
   4   3   4-824.550 303.567   1
   4   3   5 75839.5 2543.59  18
   4   3   5 75411.9 2628.83  17
   4   3   5 70293.8 2509.55  10
   4   3   5 77510.0 2447.61  11
   4   3   5 75150.3 2543.51  14
   4   3   6 8420.63 743.608  18
   4   3   6 7184.21 753.570  10
   4   3   6 8278.08 820.524  17
   4   3   6 7970.88 738.787   9
   4   3   6 8721.85 725.973  11
   4   3   6 8590.62 771.627  14
   4   3   7 20300.9 1295.01  10
   4   3   7 22309.3 1194.61  18
   4   3   7 21037.3 1332.84  17
   4   3   7 19746.8 1131.62  11
   4   3   7 21605.9 1182.53   9
   4   3   8 50346.7 2088.96  17
   4   3   8 48426.8 1819.35  11
   4   3   8 46607.0 2030.37  10
   4   3   8 48657.3 1778.29   9
   4   3   9 48339.8 1689.73  11
   4   3   9 46409.4 1800.28  10
   4   3   9 48993.0 1885.57  17
   4   3   9 49206.5 1553.37   9
   4   3  10 569.736 170.023  11
   4   3  10 480.426 189.921  17
   4   3  10 495.546 188.212  16
  -4   4  10 910.514 194.580  17
  -4   4  10 589.479 188.521  15
   4   4 -10 506.290 204.238   8
  -4   4   9 12759.3 922.061  17
  -4   4   9 14018.9 902.391  15
   4   4  -9 12144.3 912.240   8
   4   4  -8 89000.6 2613.90  10
  -4   4   8 93951.9 3261.78  17
   4   4  -8 93899.0 3186.62   8
   4   4  -7 8510.52 864.736  21
  -4   4   7 8484.74 810.766  18
  -4   4   7 8739.94 955.463  17
   4   4  -7 8892.85 898.392   8
  -4   4   6 15994.4 1194.22  18
  -4   4   6 11995.5 1198.62  17
   4   4  -6 13964.6 1071.90  21
   4   4  -6 14086.0 1185.41   8
  -4   4   6 14797.2 1065.44  14
  -4   4   5 7770.25 907.622  18
  -4   4   5 7309.10 921.737  17
   4   4  -5 9364.74 936.442   8
  -4   4   5 8811.99 871.471  14
  -4   4   5 7159.84 955.684   4
   4   4  -5 8379.13 834.368   5
  -4   4   4 2751.26 596.898   4
   4   4  -4 2889.89 410.731  10
  -4   4   4 3185.14 620.733  18
  -4   4   4 3082.73 650.003  17
   4   4  -4 2035.29 431.896   8
  -4   4   4 2422.79 501.431  14
   4   4  -4 2927.19 485.634   5
   4   4  -3 30912.8 1408.34  10
  -4   4   3 32254.2 1791.18  14
  -4   4   3 29475.0 1764.92  18
   4   4  -3 28441.6 1477.29   8
  -4   4   3 27844.1 1741.33   4
   4   4  -3 31071.3 1533.44   5
   4   4  -2 26986.2 1384.52   5
  -4   4   2 26590.4 1621.34   4
   4   4  -1 19019.1 1099.87   5
  -4   4   1 18450.4 1294.63   4
   4   4   0 51176.2 1917.69   5
  -4   4   0 50874.1 2244.10   4
   4   4   1 46008.0 2170.73   1
  -4   4  -1 53049.7 2234.30   4
   4   4   2 16258.9 945.363  10
   4   4   2 13967.6 916.800  18
   4   4   2 13543.0 1137.44   1
   4   4   3 27831.5 1269.22  11
   4   4   3 29285.8 1361.05  10
   4   4   3 28481.9 1427.55  18
   4   4   3 29068.6 1400.05  14
   4   4   3 24683.6 1606.49   1
   4   4   4 2991.92 453.893  10
   4   4   4 2617.00 449.879  18
   4   4   4 3287.32 459.711  11
   4   4   4 3174.85 469.535  17
   4   4   4 3097.47 467.164  14
   4   4   5 111628. 3495.30  10
   4   4   5 121946. 3648.93  18
   4   4   5 114496. 3579.91  17
   4   4   5 118067. 3456.66  11
   4   4   5 124236. 3657.64  14
   4   4   6 2070.70 402.055  10
   4   4   6 1657.31 379.587  18
   4   4   6 1293.75 388.841  17
   4   4   6 1542.72 370.912   9
   4   4   6 1983.80 402.990  14
   4   4   6 1493.63 344.438  11
   4   4   7 15874.4 1046.05  10
   4   4   7 16368.7 1012.16  18
   4   4   7 15680.4 960.407  11
   4   4   7 16093.1 1095.47  17
   4   4   7 15311.8 977.917   9
   4   4   8 28309.6 1371.79  17
   4   4   8 26219.8 1177.33  11
   4   4   8 24634.6 1204.71  10
   4   4   8 28827.4 1221.79   9
   4   4   9 10902.2 625.230  11
   4   4   9 12578.1 608.321   9
   4   4   9 11879.7 749.920  17
  -4   5   9 4025.85 432.858  17
   4   5  -9 4561.94 441.590   8
   4   5  -8 13383.2 732.051  10
  -4   5   8 15399.7 792.940  18
  -4   5   8 13801.1 979.731  17
   4   5  -8 12191.5 892.425   8
  -4   5   8 13922.0 774.056  15
   4   5  -7 2652.51 366.828  10
  -4   5   7 3822.25 501.377  18
  -4   5   7 3235.43 564.857  17
  -4   5   7 3058.15 407.952  14
   4   5  -7 3410.84 558.786   8
  -4   5   6 16928.2 1232.51  18
   4   5  -6 16904.2 1038.23  10
  -4   5   6 15608.7 1272.83  17
   4   5  -6 16026.4 1224.16   8
  -4   5   6 16693.7 1129.64  14
  -4   5   5 14928.3 1241.90  18
  -4   5   5 13477.3 1208.69  17
   4   5  -5 14444.7 1207.39   8
  -4   5   5 14898.9 1173.32  14
   4   5  -5 15443.8 1021.79  10
  -4   5   4 2343.20 560.461  18
   4   5  -4 1994.63 384.072  10
  -4   5   4 2026.97 516.759  17
   4   5  -4 1487.32 398.390   8
  -4   5   4 2997.10 598.364  14
  -4   5   3 4208.78 722.232  18
   4   5  -3 4621.76 571.091  10
  -4   5   3 4282.12 691.055  17
   4   5  -3 3910.95 591.748   8
  -4   5   3 4574.35 701.643  14
  -4   5   2 189.620 335.226  18
   4   5  -2 78.9529 166.224  10
  -4   5   2 12.3186 195.608  17
   4   5  -2 29.0423 216.420   8
  -4   5   2-407.078 337.178  14
   4   5  -1 74235.8 2503.42  10
  -4   5   1 63021.7 2917.92  18
  -4   5   1 74268.1 2307.19   8
   4   5  -1 64577.4 2458.35   8
  -4   5   1 68304.1 3008.95  14
  -4   5   0 4241.24 717.419  18
   4   5   0 3221.46 479.257  10
   4   5   0 3804.35 498.530   8
  -4   5   0 3193.47 645.505  14
   4   5   1 92254.4 2868.69  10
  -4   5  -1 83299.4 3304.42  18
   4   5   1 88065.3 2751.64  18
  -4   5  -1 86462.8 3498.12  14
   4   5   2 37171.8 1624.72  10
   4   5   2 35181.4 1626.91  18
   4   5   2 35123.8 1572.52  14
  -4   5  -2 34844.2 2084.83  14
   4   5   3 34147.5 1520.38  11
   4   5   3 36683.2 1614.79  10
   4   5   3 36220.3 1699.67  18
   4   5   3 38168.5 1689.61  14
  -4   5  -3 35335.3 2000.77  14
   4   5   4 7920.71 716.316  11
   4   5   4 7989.83 779.915  18
   4   5   4 8582.87 769.907  14
   4   5   4 8026.29 714.384  10
  -4   5  -4 8496.93 885.724  14
   4   5   5 2925.35 445.475  11
   4   5   5 2865.34 445.302  10
   4   5   5 2651.51 474.730  18
   4   5   5 3692.58 483.394  17
   4   5   5 4051.48 540.247  14
   4   5   6 15408.9 947.171  10
   4   5   6 17329.3 1046.37  18
   4   5   6 14344.5 931.740  17
   4   5   6 17466.7 991.614  11
   4   5   6 15555.3 990.430   9
   4   5   6 18161.0 1067.21  14
   4   5   7 12363.3 735.775  10
   4   5   7 14765.0 815.212  11
   4   5   7 14590.4 852.485  18
   4   5   7 14187.2 844.026   9
   4   5   7 13326.4 838.680  17
   4   5   8 13537.9 676.754  11
   4   5   8 12814.9 712.249  17
   4   5   8 14269.4 705.171   9
   4   5   8 13211.5 721.674  16
   4   6  -8 10985.6 477.528  10
  -4   6   8 11988.9 653.222  17
   4   6  -8 11639.0 621.108   8
   4   6  -7 8208.26 536.243  10
  -4   6   7 8373.15 597.471  18
  -4   6   7 7284.66 632.104  17
   4   6  -7 7241.78 603.640   8
  -4   6   7 8973.67 542.796  14
   4   6  -6 16265.0 887.136  10
  -4   6   6 15008.9 997.973  18
  -4   6   6 14839.1 1023.19  17
   4   6  -6 15034.4 988.576   8
  -4   6   6 15986.4 940.780  14
  -4   6   5 5524.99 681.912  18
   4   6  -5 5140.42 533.517  10
  -4   6   5 5016.11 648.906  17
   4   6  -5 5066.57 628.104   8
  -4   6   5 4330.74 590.396  14
   4   6  -4 44832.1 1785.43  10
  -4   6   4 40623.1 2058.15  18
  -4   6   4 41189.9 1999.75  17
   4   6  -4 43044.3 1960.12   8
  -4   6   4 44125.5 2058.94  14
   4   6  -3 9615.58 793.394  10
  -4   6   3 8202.63 859.273  17
   4   6  -3 9003.48 830.166   8
  -4   6   3 8553.55 925.914  14
  -4   6   3 9357.66 991.387  18
   4   6  -2 66627.5 2342.23  10
  -4   6   2 61541.4 2758.12  18
  -4   6   2 62875.2 2553.02  17
   4   6  -2 62832.1 2402.51   8
  -4   6   2 64724.1 2785.33  14
   4   6  -1 4015.04 520.575  10
  -4   6   1 3538.62 668.992  18
   4   6  -1 3638.10 519.130   8
  -4   6   1 5152.98 781.310  14
   4   6   0 74164.3 2466.29  10
  -4   6   0 66905.0 2841.47  18
   4   6   0 70283.6 2397.28   8
  -4   6   0 64912.7 2908.61  14
   4   6   1 10015.2 775.525  10
   4   6   1 10325.5 725.303  18
  -4   6  -1 10340.3 948.382  18
   4   6   1 10386.5 745.625   8
  -4   6  -1 10019.6 1062.86  14
   4   6   2 20620.1 1060.34  11
   4   6   2 21048.1 1139.36  10
   4   6   2 22601.2 1159.34  18
   4   6   2 19286.5 1017.83   9
   4   6   2 20772.7 1059.65  14
  -4   6  -2 18907.7 1369.37  14
   4   6   3 42517.2 1732.58  18
   4   6   3 41450.2 1621.80  11
   4   6   3 40555.9 1611.71   9
   4   6   3 44367.4 1696.01  14
  -4   6  -3 41354.6 1897.95  14
   4   6   3 41716.5 1654.58  10
   4   6   4 4772.84 539.496  18
   4   6   4 4686.01 489.109  10
   4   6   4 4491.27 499.644   9
   4   6   4 4198.20 471.692  11
   4   6   4 4114.57 487.905  14
   4   6   5 11943.2 716.513  10
   4   6   5 12584.0 813.577  18
   4   6   5 12067.7 778.615   9
   4   6   5 12689.8 763.151  11
   4   6   5 13300.6 813.544  14
   4   6   6 788.818 204.314  11
   4   6   6 1122.09 239.968  18
   4   6   6 892.697 212.001   9
   4   6   7 13046.0 586.038  11
   4   6   7 13305.5 619.856   9
   4   7  -5 4766.40 381.482  10
  -4   7   5 5289.16 469.305  18
  -4   7   5 4922.18 381.333  17
   4   7  -5 4680.01 422.782   8
  -4   7   5 4789.66 426.117  14
   4   7  -4 570.506 166.221  10
  -4   7   4 577.664 218.366  18
  -4   7   4 457.382 153.102  17
   4   7  -4 1117.80 267.819   8
  -4   7   4 450.301 220.703  14
   4   7  -3 21445.3 1006.97  10
  -4   7   3 21530.3 1203.23  18
   4   7  -3 22283.2 1086.60   8
  -4   7   3 21138.0 1169.34  14
   4   7  -2 1610.29 294.423  10
  -4   7   2 1526.11 374.403  18
   4   7  -2 1591.14 295.904   8
  -4   7   2 1649.32 363.438  14
  -4   7   1 1408.43 349.643  18
   4   7  -1 1817.38 310.281  10
   4   7  -1 1621.94 296.001   8
  -4   7   1 1345.56 346.635  14
   4   7   0 797.086 217.564  10
  -4   7   0 936.419 254.169  18
   4   7   0 1111.64 229.955   8
  -4   7   0 756.740 276.307  14
   4   7   1 4557.91 435.507  10
   4   7   1 5464.11 412.898  11
   4   7   1 5385.57 410.904   8
  -4   7  -1 3985.72 495.201  14
   4   7   2 9572.77 529.299  18
   4   7   2 9666.97 568.898  11
  -4   7  -2 9006.41 624.534  14
   4   7   2 9359.71 583.814  10
   4   7   3 168.866 97.3925  10
   4   7   3 184.351 120.463  18
   4   7   3 170.465 147.882  11
   4   7   4 16509.3 688.203  11
   4   7   4 15919.6 693.818  18
   4   7   4 14810.2 616.793   9
   5  -7  -4 10710.2 539.477   7
   5  -7  -4 10647.2 505.086  13
   5  -7  -3 29091.1 977.049  13
   5  -7  -3 28940.4 1035.72   7
   5  -7  -2 12623.3 581.631  13
   5  -7  -2 14433.4 687.546   7
   5  -7  -2 13250.8 653.838  19
   5  -7  -1 1965.04 269.698  19
   5  -7  -1 2162.81 219.028  13
   5  -7  -1 1762.74 254.366   7
   5  -7   0 1764.38 248.829   7
   5  -7   0 1718.57 262.840  19
   5  -7   1 9067.17 579.094  19
   5  -7   1 9030.06 527.362   7
   5  -7   2 15188.5 744.419  19
   5  -7   2 14880.8 641.914   7
   5  -7   3 5267.63 389.979  19
   5  -7   3 4925.02 287.269   7
   5  -6  -7 35839.2 1162.09   7
   5  -6  -7 37097.3 1141.37  13
   5  -6  -6 5967.38 458.120   7
   5  -6  -6 6547.32 459.952  13
   5  -6  -5 28711.4 1162.61   7
   5  -6  -5 27424.4 1107.28  13
   5  -6  -4 5912.00 528.611  19
   5  -6  -4 6071.28 505.372  13
   5  -6  -4 6412.81 541.435   7
   5  -6  -3 829.357 217.675  12
   5  -6  -3 798.898 226.536   7
   5  -6  -3 1471.29 304.728  19
   5  -6  -3 1353.75 268.774  13
   5  -6  -2 5110.08 535.016  19
   5  -6  -2 5266.09 466.894  13
   5  -6  -2 4422.84 475.024   7
   5  -6  -1 3916.20 489.619  19
   5  -6  -1 3643.54 380.824  13
   5  -6  -1 3977.77 456.265   7
   5  -6   0 21493.0 1176.38  19
   5  -6   0 22209.3 929.363  13
   5  -6   0 21683.9 1084.52   7
   5  -6   1 10618.2 804.318  19
   5  -6   1 10075.0 708.176   7
   5  -6   2 10285.1 794.716  19
   5  -6   2 11182.6 718.371   7
   5  -6   3 10673.3 791.833  19
   5  -6   3 10906.9 656.536   7
   5  -6   4 11592.1 684.843   6
   5  -6   4 12012.3 787.951  19
   5  -6   4 11308.6 592.898   7
   5  -6   5 10200.2 583.091   6
   5  -6   5 12338.0 708.841  19
   5  -6   6 4344.78 338.624  19
   5  -5  -9 9405.62 470.060  13
   5  -5  -8 10664.8 635.561   7
   5  -5  -8 11018.5 610.918  13
   5  -5  -7 149.286 174.765   7
   5  -5  -7 501.621 203.651  12
   5  -5  -7 60.4516 149.029  13
   5  -5  -6 13809.3 853.066   7
   5  -5  -6 14372.4 836.324  13
   5  -5  -6 11958.9 824.325  12
   5  -5  -5 35599.7 1561.08  12
   5  -5  -5 33628.2 1503.88  19
   5  -5  -5 31666.5 1496.03  16
   5  -5  -5 32809.0 1434.34   7
   5  -5  -5 34256.5 1403.54  13
   5  -5  -4 8477.94 754.467  12
   5  -5  -4 9011.97 749.131  19
   5  -5  -4 8175.89 706.908  16
   5  -5  -4 7958.01 643.809  13
   5  -5  -4 8838.64 700.939   7
   5  -5  -3 71772.7 2531.80  12
   5  -5  -3 75192.9 2498.86  19
   5  -5  -3 73262.2 2247.97  13
   5  -5  -3 71138.7 2324.25   7
   5  -5  -2 25228.0 1455.40   9
   5  -5  -2 27731.5 1388.03  19
   5  -5  -2 29266.9 1225.21  13
   5  -5  -2 27384.2 1298.05   7
   5  -5  -1 5524.01 669.632   9
   5  -5  -1 5237.50 603.935  19
   5  -5  -1 5213.16 481.684  13
   5  -5  -1 5070.42 529.250   7
   5  -5   0 67114.0 2332.18   6
   5  -5   0 64060.2 2321.30  19
   5  -5   0 55277.3 2263.61   9
   5  -5   0 58379.6 2074.61   7
   5  -5   1 42300.6 1845.27   6
   5  -5   1 41997.4 1838.09  19
   5  -5   1 38767.2 1710.63   9
   5  -5   1 43867.5 1681.08   7
   5  -5   2 8740.92 799.165   6
   5  -5   2 7978.89 749.226  19
   5  -5   2 8422.38 656.720   7
   5  -5   3 4411.77 581.579   6
   5  -5   3 5100.75 611.761  19
   5  -5   3 4652.65 474.452   7
   5  -5   4 17245.0 1152.54   6
   5  -5   4 17872.7 1121.01  19
   5  -5   5 7928.83 755.986   6
   5  -5   5 10240.2 789.915  19
   5  -5   6 17040.0 1033.51   6
   5  -5   6 16871.7 927.977  19
   5  -5   7 35862.9 1400.62   6
   5  -5   7 35270.0 1230.43  19
  -5  -4  10 5571.34 379.251  19
   5  -4 -10 5405.38 359.568  13
   5  -4  -9 13230.3 714.976  13
   5  -4  -9 12045.0 720.037  12
   5  -4  -8 3557.18 439.077   7
   5  -4  -8 3790.67 428.719  13
   5  -4  -8 3555.52 469.617  12
   5  -4  -7 5800.02 675.455  16
   5  -4  -7 5639.32 590.085   7
   5  -4  -7 7054.31 611.689  13
   5  -4  -7 6674.27 696.696  12
   5  -4  -6 21332.9 1147.35   7
   5  -4  -6 22760.9 1141.54  13
   5  -4  -6 22626.9 1321.65  12
   5  -4  -5 15634.2 1089.56  12
   5  -4  -5 14246.2 976.472  19
   5  -4  -5 12246.1 986.155  16
   5  -4  -5 15369.3 951.095   7
   5  -4  -5 14814.3 896.030  13
   5  -4  -4 2605.22 449.470  12
   5  -4  -4 3104.77 460.622  19
   5  -4  -4 3501.00 560.917   9
   5  -4  -4 2918.48 473.944  16
   5  -4  -4 3144.95 397.442  13
   5  -4  -4 3787.48 465.046   7
   5  -4  -3 46616.8 1829.09  19
   5  -4  -3 45147.0 1982.39   9
   5  -4  -3 43103.9 1825.94  16
   5  -4  -3 45802.2 2174.68   2
   5  -4  -3 45072.7 1608.61  13
   5  -4  -3 46951.2 1716.43   7
   5  -4  -2 32999.3 1492.64  19
   5  -4  -2 33103.6 1785.96   2
  -5  -4   2 32763.3 1482.84   3
   5  -4  -2 32435.6 1595.84   9
   5  -4  -2 30550.2 1439.50  16
   5  -4  -2 35880.8 1312.20  13
   5  -4  -2 33236.3 1373.21   7
   5  -4  -1 2876.90 417.349  19
   5  -4  -1 3009.40 454.966   6
   5  -4  -1 2242.86 414.495   9
  -5  -4   1 2873.26 498.290   3
   5  -4  -1 2166.68 433.908   2
   5  -4  -1 3453.16 407.561   7
  -5  -4   0 152654. 4317.40   3
   5  -4   0 158535. 4157.47  19
   5  -4   0 151485. 4421.27   2
   5  -4   0 163151. 4332.66   6
   5  -4   0 151737. 3871.41   7
   5  -4   1 33213.6 1613.25   6
  -5  -4  -1 33044.7 1638.69   3
   5  -4   1 32808.5 1521.62  19
   5  -4   1 30068.9 1501.97   9
   5  -4   1 31531.3 1620.57   2
   5  -4   1 34407.4 1368.35   7
   5  -4   2 37280.6 1759.30   6
   5  -4   2 38533.9 1664.21  19
  -5  -4  -2 31082.0 1634.43   3
   5  -4   2 31924.6 1480.17   9
   5  -4   3 59661.3 2419.92   6
   5  -4   3 60534.8 2262.39  19
   5  -4   3 59143.8 2391.37  15
   5  -4   4 117229. 3552.23  19
   5  -4   4 118476. 3828.46   6
   5  -4   4 117982. 3777.04  15
   5  -4   5 3418.95 481.288  19
   5  -4   5 4162.24 613.891   6
   5  -4   5 3882.21 588.361  15
   5  -4   6 29672.4 1407.90  19
   5  -4   6 31047.6 1665.54   6
   5  -4   6 29840.4 1598.64  15
   5  -4   7 25072.0 1138.74  19
   5  -4   7 25447.5 1413.53   6
   5  -4   7 24663.5 1344.16  15
   5  -4   8 6873.58 623.705   6
   5  -4   8 6216.81 570.331  15
   5  -4   9 18603.8 843.825   6
   5  -3 -11 24044.2 930.448  20
  -5  -3  10 10141.9 638.711   6
   5  -3 -10 9358.37 597.825  13
   5  -3 -10 8320.76 645.153  12
  -5  -3   9 23656.6 1169.14   6
   5  -3  -9 26653.4 1185.06  13
   5  -3  -9 22733.3 1282.83  12
   5  -3  -8 443.464 235.628   7
   5  -3  -8 234.101 236.716  12
  -5  -3   8 809.171 239.314   6
   5  -3  -8 370.654 252.306  16
   5  -3  -8 436.089 199.203  13
   5  -3  -7 17881.4 1247.23  16
   5  -3  -7 18068.8 1096.70   7
   5  -3  -7 17080.2 999.842  13
   5  -3  -7 20131.4 1297.98  12
   5  -3  -6 33855.4 1720.66  16
   5  -3  -6 30993.2 1439.85   7
   5  -3  -6 32253.5 1407.70  13
   5  -3  -6 31246.7 1644.62  12
   5  -3  -5 34349.4 1662.73  12
   5  -3  -5 32156.4 1923.85   2
   5  -3  -5 33802.2 1624.89   9
   5  -3  -5 33548.9 1671.70  16
   5  -3  -5 33309.8 1516.43  19
   5  -3  -5 33121.7 1424.86   7
   5  -3  -5 33887.3 1389.19  13
   5  -3  -4 3662.50 511.064  12
   5  -3  -4 4542.45 513.302  19
   5  -3  -4 3783.70 504.926  16
   5  -3  -4 2340.18 467.917   2
   5  -3  -4 3950.12 427.757   7
   5  -3  -3 15762.8 1209.74   2
  -5  -3   2 15874.2 874.769   3
   5  -3  -2 14370.7 1109.03   2
  -5  -3   1 66865.4 2196.98   3
   5  -3  -1 60278.6 2420.75   2
   5  -3   0 9122.25 850.836   2
  -5  -3   0 7227.59 659.146   3
   5  -3   1 21462.7 1297.85   2
   5  -3   2 23801.5 1372.48   2
   5  -3   2 24725.5 1076.07   1
   5  -3   3 76129.8 2708.53  15
   5  -3   3 72612.7 2335.13   1
   5  -3   4 15303.4 962.921  19
   5  -3   4 14079.4 1079.72   6
   5  -3   4 15382.3 1133.89  15
   5  -3   4 15289.3 959.733   1
   5  -3   5 29671.3 1687.01   6
   5  -3   5 30809.5 1436.54  19
   5  -3   5 31298.6 1701.20  15
   5  -3   6 7152.54 819.023   6
   5  -3   6 7463.89 654.773  19
   5  -3   6 6407.90 787.117  15
   5  -3   7 19245.4 1309.25   6
   5  -3   7 19983.8 1314.52  15
   5  -3   8 59751.4 2324.44   6
   5  -3   8 61814.0 2351.08  15
   5  -3   9 10530.7 761.371   6
   5  -3   9 10609.4 758.990  15
  -5  -2  11 391.541 181.051   6
   5  -2 -11 286.917 183.573  20
  -5  -2  10 3624.61 493.307   6
   5  -2 -10 3754.01 440.453  13
   5  -2 -10 3738.05 519.902  12
   5  -2  -9 9354.92 735.521  13
   5  -2  -9 9819.97 904.679  12
   5  -2  -8 10048.2 907.758  16
   5  -2  -8 8494.49 770.562   7
   5  -2  -8 10287.3 775.123  13
   5  -2  -8 9654.61 923.912  12
   5  -2  -7 8774.22 841.686  16
   5  -2  -7 7108.36 683.707   7
   5  -2  -7 8105.88 679.143  13
   5  -2  -7 7507.50 802.996  12
   5  -2  -6 23738.6 1627.76   2
   5  -2  -6 28487.2 1522.79  16
   5  -2  -6 26567.2 1289.13   7
   5  -2  -6 29860.8 1281.56  13
   5  -2  -6 27524.4 1497.60  12
   5  -2  -5 55747.9 2507.77   2
   5  -2  -4 150266. 4580.55   2
   5  -2  -3 2157.49 472.844   2
   5  -2  -2 11961.2 942.977   2
  -5  -2   1 25289.6 1059.65   3
   5  -2  -1 22920.9 1313.70   2
   5  -2   0 160427. 4406.32   2
   5  -2   1 367576. 8624.16   2
   5  -2   1 375663. 7850.57   1
   5  -2   2 78133.9 2743.87   2
   5  -2   2 83614.3 2314.06   1
   5  -2   3 31383.8 1309.75   1
   5  -2   4 31586.8 1427.39   1
   5  -2   5 3700.72 498.856   1
   5  -2   5 2289.25 486.756  10
   5  -2   5 3005.37 510.630   6
   5  -2   5 3606.39 570.023  15
   5  -2   6 35695.2 1822.34   6
   5  -2   6 38397.0 1897.61  15
   5  -2   7 12313.5 1047.89   6
   5  -2   7 14111.0 1144.85  15
   5  -2   8 1287.95 378.426   6
   5  -2   8 1096.89 351.065  15
   5  -2   9 41010.1 1706.51   6
   5  -2   9 40015.8 1751.82  15
   5  -2  10 16654.8 811.330   6
   5  -2  10 16522.4 876.658  15
  -5  -1  11 13719.7 893.177   6
   5  -1 -11 12387.4 851.004  20
   5  -1 -10 4614.28 612.929  20
   5  -1 -10 2899.46 425.221  21
  -5  -1  10 2890.57 394.435  15
   5  -1 -10 3055.72 417.408  13
   5  -1 -10 3703.68 564.112  12
   5  -1  -9 31885.4 1638.67  21
  -5  -1   9 32049.2 1464.30  15
   5  -1  -9 31200.5 1463.66  13
   5  -1  -9 28947.5 1647.18  12
   5  -1  -8 30081.2 1657.86  21
   5  -1  -8 31900.5 1561.33  16
   5  -1  -8 28764.9 1423.64  13
   5  -1  -8 30164.6 1678.74  12
   5  -1  -7 42699.6 2003.95  21
   5  -1  -7 39345.1 1704.50   7
   5  -1  -7 43656.0 1696.83  13
   5  -1  -7 42744.0 1866.52  16
   5  -1  -7 41719.0 2146.83   2
   5  -1  -7 40656.1 1940.45  12
   5  -1  -6 3239.89 601.207   2
   5  -1  -5 138295. 4284.86   2
   5  -1  -4 102849. 3414.28   2
  -5  -1   4 105884. 3100.63   4
   5  -1  -3 62242.3 2348.60   2
  -5  -1   3 62206.4 2122.60   4
   5  -1  -2 15864.4 1038.06   2
  -5  -1   2 17447.4 967.212   4
  -5  -1   1 58120.9 1996.83   4
   5  -1  -1 56791.2 2108.03   2
   5  -1   0 150929. 4084.74   2
   5  -1   1 66998.9 1871.54   1
   5  -1   1 69400.4 2356.18   2
   5  -1   2 156756. 3797.28   1
   5  -1   2 153326. 4228.65   2
   5  -1   3 28191.0 1244.07   1
   5  -1   4 39091.9 1626.87   1
   5  -1   5 11390.5 876.417   6
   5  -1   5 10699.1 793.193  11
   5  -1   5 9937.15 908.359  10
   5  -1   5 12319.9 942.103   1
   5  -1   5 11314.7 890.189  15
   5  -1   6 5699.39 664.355   1
   5  -1   6 6229.93 769.527  10
   5  -1   6 5888.44 616.252  16
   5  -1   6 5364.74 684.656  15
   5  -1   6 6240.32 687.087   6
   5  -1   7 2661.42 564.015  10
   5  -1   7 2467.07 447.190   6
   5  -1   7 3255.39 543.607  15
   5  -1   8 1356.72 432.155  10
   5  -1   8 1978.23 408.121   6
   5  -1   8 2319.14 476.513  15
   5  -1   9 8574.63 703.384   6
   5  -1   9 8228.96 774.819  15
   5  -1  10 26033.5 1017.31   6
   5  -1  10 27091.3 1225.48  15
  -5   0  12 1989.57 281.406   6
  -5   0  12 1347.06 176.984  15
   5   0 -12 1435.14 217.506   8
   5   0 -11 1180.11 317.558  20
  -5   0  11 637.840 198.730  15
   5   0 -11 1041.84 309.667   8
   5   0 -10 751.329 349.753  21
   5   0 -10 1002.49 359.216  20
  -5   0  10 674.626 249.581  15
   5   0  -9 13966.9 1137.67  21
  -5   0   9 13588.8 1022.04  15
   5   0  -9 13405.4 930.007  13
   5   0  -9 12881.2 1062.22  12
   5   0  -9 14398.7 1146.62  20
   5   0  -8 20988.8 1433.37  21
   5   0  -8 20296.1 1164.60  13
   5   0  -8 20047.9 1344.06  12
   5   0  -7 55566.2 2402.33  21
  -5   0   7 52913.7 2344.76   4
   5   0  -7 52941.2 1990.37  13
   5   0  -7 58921.8 2324.04  12
   5   0  -7 53939.9 2358.15   2
   5   0  -6 96042.0 3270.33   2
  -5   0   6 92212.4 3277.82   4
  -5   0   5 1096.60 355.549   4
   5   0  -5 911.154 308.662   2
   5   0  -4 17163.4 1098.03   2
  -5   0   4 17158.0 1144.79   4
   5   0  -3 38949.5 1613.35   2
  -5   0   3 34891.2 1647.49   4
  -5   0   2 145886. 4005.28   4
   5   0  -2 142731. 3840.60   2
  -5   0   1 10096.1 799.691   4
   5   0  -1 10842.4 750.234   2
   5   0   0 1171.03 296.429   2
   5   0   0 1060.96 196.128   1
   5   0   1 24757.1 1029.41   1
   5   0   1 25256.1 1222.49   2
   5   0   2 140.925 173.306   2
   5   0   2 418.138 189.260   1
   5   0   3 9277.46 722.283   1
   5   0   4 69617.4 2461.46   1
   5   0   5 654.965 225.633  17
   5   0   5 744.279 252.123   1
   5   0   6 23107.2 1229.37  11
   5   0   6 22184.1 1453.93  10
   5   0   6 23375.1 1435.63   1
   5   0   6 24082.5 1153.54   9
   5   0   6 24896.9 1377.90  16
   5   0   6 22117.7 1295.32  15
   5   0   7 1936.76 379.383  11
   5   0   7 3144.86 622.438  10
   5   0   7 2676.76 481.609  16
   5   0   7 2844.60 470.348  15
   5   0   8 389594. 9951.85  10
   5   0   8 400012. 9470.90  15
   5   0   9 2487.38 378.265  16
   5   0   9 2014.20 409.158  15
   5   0   9 1177.51 404.062  10
   5   0  10 8065.14 612.898  15
   5   1 -11 12617.9 876.324  20
  -5   1  11 13206.5 844.742  15
   5   1 -11 12385.5 836.511   8
   5   1 -10 3547.98 610.679  21
   5   1 -10 4313.57 599.688  20
  -5   1  10 3698.89 540.971  15
   5   1 -10 4033.98 569.229   8
   5   1  -9 31857.7 1751.73  20
   5   1  -9 32607.3 1853.88  21
   5   1  -9 36695.1 1829.08   8
   5   1  -8 31534.0 1854.66  21
   5   1  -8 32560.2 1739.18  20
   5   1  -8 28450.0 1587.51  12
   5   1  -7 47049.6 2031.86  20
   5   1  -7 40412.6 2057.76  21
  -5   1   7 44744.6 2228.77   4
   5   1  -7 37418.7 1664.73  13
   5   1  -7 40063.0 1851.15  12
   5   1  -6 2861.13 529.403  21
  -5   1   6 3185.29 597.143   4
  -5   1   5 136775. 4359.32   4
   5   1  -4 105872. 3010.25   2
  -5   1   4 106290. 3543.58   4
   5   1  -3 67556.2 2090.54   2
  -5   1   3 63013.0 2490.87   4
   5   1  -2 15953.4 858.725   2
  -5   1   2 17180.4 1126.22   4
  -5   1   1 49524.5 2066.16   4
   5   1  -1 56857.7 1803.47   2
   5   1   0 145129. 3637.38   1
   5   1   0 153547. 3781.08   2
   5   1   1 66001.0 2111.64   1
   5   1   2 148834. 3986.22   1
   5   1   3 29383.9 1466.62   1
   5   1   4 39974.9 1858.57   1
   5   1   5 12744.2 929.694  17
   5   1   5 10775.7 909.162  10
   5   1   5 11355.8 777.161  11
   5   1   5 12690.1 818.571   9
   5   1   5 10576.3 990.114   1
   5   1   6 6389.94 623.819  11
   5   1   6 5160.10 690.409  10
   5   1   6 6051.45 687.075  17
   5   1   6 7360.36 643.735   9
   5   1   6 6723.94 799.359   1
   5   1   7 3248.88 498.738  11
   5   1   7 2963.33 561.988  10
   5   1   7 2857.18 491.528  17
   5   1   7 3127.82 416.443   9
   5   1   7 3118.23 451.362  15
   5   1   8 2478.28 430.359  11
   5   1   8 2212.64 553.896  10
   5   1   8 2599.88 480.628  16
   5   1   8 1770.23 348.328  15
   5   1   9 8465.01 673.647  11
   5   1   9 6897.03 780.737  10
   5   1   9 8282.16 703.560  16
   5   1   9 7516.14 630.017  15
   5   1  10 25698.1 1052.87  16
  -5   2  11 231.386 166.903  15
   5   2 -11 280.567 187.082   8
   5   2 -10 3964.52 592.386  21
  -5   2  10 4465.41 574.980  15
   5   2 -10 3883.90 550.706   8
   5   2  -9 9013.79 959.638  21
   5   2  -9 10226.2 948.118  20
   5   2  -9 10280.3 937.948   8
   5   2  -8 10506.4 1031.69  21
  -5   2   8 9862.40 875.105  17
   5   2  -8 9615.22 937.127   8
   5   2  -8 10208.9 954.110  20
   5   2  -7 7190.29 773.852  20
  -5   2   7 8459.24 847.560  17
   5   2  -7 8606.72 862.940   8
   5   2  -7 7849.72 882.992  21
   5   2  -6 25229.5 1522.05  21
   5   2  -6 25041.9 1393.07  20
   5   2  -6 25252.6 1438.99   8
  -5   2   6 24494.8 1693.81   4
  -5   2   6 24171.2 1484.59  17
  -5   2   5 57630.8 2645.26   4
  -5   2   4 149100. 4706.05   4
  -5   2   3 1424.59 385.216   4
   5   2  -3 1484.44 261.450   5
   5   2  -2 12908.6 679.033   5
  -5   2   2 14228.3 1104.47   4
  -5   2   1 22859.4 1409.06   4
   5   2  -1 25029.6 951.344   5
   5   2  -1 23766.8 1096.57   1
  -5   2   0 164925. 4633.72   4
   5   2   0 155958. 4119.08   1
   5   2   1 349919. 8045.17   1
   5   2   2 76171.6 2654.33   1
   5   2   3 28433.3 1543.93   1
   5   2   4 31241.4 1713.09   1
   5   2   5 2882.72 398.199  11
   5   2   5 4193.24 559.387  17
   5   2   5 3646.30 539.346  10
   5   2   5 3875.77 477.596  18
   5   2   5 3332.02 617.153   1
   5   2   5 3438.80 458.913   9
   5   2   6 33718.4 1791.48  10
   5   2   6 35928.2 1569.59  11
   5   2   6 38996.7 1825.06  17
   5   2   6 37443.9 1618.05   9
   5   2   7 14443.2 956.727  11
   5   2   7 14020.0 1148.48  10
   5   2   7 14595.0 1080.56  17
   5   2   7 14305.6 920.021   9
   5   2   8 1717.02 471.811  10
   5   2   8 995.212 336.026  17
   5   2   8 1679.01 302.084   9
   5   2   8 1607.38 345.657  11
   5   2   9 39245.2 1500.80  11
   5   2   9 40321.3 1679.38  16
   5   2   9 36569.6 1716.66  10
   5   2  10 17613.4 844.545  16
  -5   3  11 22950.0 934.564  15
   5   3 -11 22868.4 940.095   8
  -5   3  10 9462.34 727.945  15
   5   3 -10 9270.53 738.478   8
   5   3  -9 28125.3 1569.22  21
  -5   3   9 26217.8 1334.30  17
   5   3  -9 27465.2 1498.04   8
   5   3  -8 364.310 352.792  21
   5   3  -8 239.984 283.469   8
  -5   3   8 388.503 226.840  17
  -5   3   7 18536.5 1373.65  17
   5   3  -7 16801.7 1238.05   8
   5   3  -7 17073.1 1279.02  21
   5   3  -6 28060.1 1641.04  21
  -5   3   6 30733.1 1833.42  17
   5   3  -6 30839.9 1683.56   8
   5   3  -5 32839.2 1661.61  21
  -5   3   5 32270.5 1766.75  18
  -5   3   5 31730.2 1889.26  17
   5   3  -5 31810.1 1656.66   8
  -5   3   5 35926.1 2104.77   4
  -5   3   4 3107.23 625.854   4
   5   3  -4 4032.06 500.313   5
   5   3  -3 17412.9 990.584   5
  -5   3   3 18035.1 1403.57   4
   5   3  -2 13900.0 842.004   5
  -5   3   2 15869.0 1245.77   4
   5   3  -1 62833.9 1994.04   5
  -5   3   1 59302.8 2580.29   4
  -5   3   0 8013.53 849.195   4
   5   3   0 8145.95 603.529   5
   5   3   0 7613.88 734.211   1
  -5   3  -1 19424.9 1368.70   4
   5   3   1 19730.3 1249.65   1
  -5   3  -2 22889.2 1498.30   4
   5   3   2 22212.6 1396.25   1
   5   3   3 77735.5 2381.50  11
   5   3   3 77271.8 2540.04  10
   5   3   3 80701.1 2567.32  18
   5   3   3 70193.4 2872.01   1
   5   3   3 77365.8 2490.79   9
   5   3   3 86520.3 2590.13  14
   5   3   4 15742.3 1038.30  10
   5   3   4 15785.7 935.907  11
   5   3   4 15597.6 1241.39   1
   5   3   4 16487.2 1036.72  18
   5   3   4 14399.0 995.352  17
   5   3   4 15701.4 999.825   9
   5   3   5 29500.7 1567.46  10
   5   3   5 33820.6 1566.71  18
   5   3   5 31683.1 1580.72  17
   5   3   5 30721.4 1424.33  11
   5   3   5 30666.9 1488.84   9
   5   3   6 6876.92 770.989  10
   5   3   6 7972.82 727.388  18
   5   3   6 7721.73 778.443  17
   5   3   6 7055.98 694.459   9
   5   3   6 6268.70 635.023  11
   5   3   7 19931.7 1095.79  11
   5   3   7 19677.6 1291.00  10
   5   3   7 20509.7 1265.31  17
   5   3   7 19447.7 1104.46   9
   5   3   8 56315.0 1978.53  11
   5   3   8 57074.1 2247.94  10
   5   3   8 63149.4 2237.68  17
   5   3   8 60755.0 1949.10   9
   5   3   9 9369.70 611.857  11
   5   3   9 8374.01 644.004  10
   5   3   9 10978.9 550.631   9
   5   3   9 9476.49 708.467  16
  -5   4  10 5857.91 386.009  17
  -5   4  10 5816.36 431.212  15
   5   4 -10 5860.76 483.525   8
  -5   4   9 13154.0 853.332  17
  -5   4   9 13405.4 849.423  15
   5   4  -9 13455.4 906.475   8
  -5   4   8 2018.99 434.743  17
   5   4  -8 3755.95 559.633   8
   5   4  -7 6247.17 695.945  21
   5   4  -7 6250.52 524.405  10
  -5   4   7 6231.79 662.409  18
  -5   4   7 5482.56 755.164  17
   5   4  -7 6451.40 763.288   8
   5   4  -6 19561.0 1243.20  21
   5   4  -6 20190.9 1066.63  10
  -5   4   6 19199.1 1336.47  18
  -5   4   6 20858.0 1511.48  17
   5   4  -6 19803.0 1374.39   8
   5   4  -5 14166.6 899.053  10
  -5   4   5 12638.4 1145.37  18
  -5   4   5 12947.8 1233.10  17
   5   4  -5 13284.8 1089.71   8
  -5   4   5 12339.5 1036.48  14
   5   4  -4 3490.67 443.535  10
  -5   4   4 3720.14 675.224  18
   5   4  -4 2785.02 501.334   8
  -5   4   4 3536.37 584.633  14
   5   4  -3 46266.5 1792.42  10
  -5   4   3 47853.9 2394.28  18
   5   4  -3 41361.6 1772.85   5
   5   4  -3 41418.3 1878.23   8
  -5   4   3 44112.9 2212.73  14
  -5   4   3 45080.0 2344.57   4
   5   4  -2 35842.9 1523.08  10
  -5   4   2 31928.7 1931.70  18
   5   4  -2 31665.2 1477.32   5
   5   4  -2 32824.0 1530.29   8
  -5   4   2 30270.6 1844.88  14
  -5   4   2 28909.6 1811.03   4
   5   4  -1 2838.84 411.102  10
   5   4  -1 2352.49 378.828   5
  -5   4   1 3380.72 661.052  14
  -5   4   1 2364.71 520.590   4
   5   4   0 157636. 4129.15  10
   5   4   0 154092. 4097.57   5
  -5   4   0 144020. 4694.43   4
   5   4   1 35773.8 1535.62  10
   5   4   1 33720.5 1436.39  18
   5   4   1 33649.5 1380.15   9
   5   4   1 29230.5 1698.54   1
  -5   4  -1 30305.6 1804.94   4
   5   4   2 36228.8 1442.24  11
   5   4   2 37255.7 1620.66  10
   5   4   2 39218.6 2015.06   1
   5   4   2 36342.6 1599.18  18
   5   4   2 33025.8 1491.22   9
   5   4   2 39464.0 1575.08  14
   5   4   3 65279.4 2325.58  10
   5   4   3 61413.1 2269.26  18
   5   4   3 58330.4 2176.31   9
   5   4   3 60248.4 2099.44  11
   5   4   3 63563.1 2238.73  14
   5   4   4 125851. 3476.40  11
   5   4   4 118350. 3635.73  10
   5   4   4 124356. 3652.44  18
   5   4   4 119305. 3505.44  17
   5   4   4 127524. 3645.94  14
   5   4   5 3381.15 501.213  18
   5   4   5 3550.37 534.658  10
   5   4   5 4498.11 564.037  17
   5   4   5 4110.86 547.023   9
   5   4   5 3981.01 509.973  11
   5   4   6 30593.4 1558.41  10
   5   4   6 30106.6 1459.65  18
   5   4   6 31980.7 1404.99  11
   5   4   6 32593.8 1557.72  17
   5   4   6 31212.3 1468.30   9
   5   4   7 21258.4 1214.80  10
   5   4   7 24823.3 1276.39  17
   5   4   7 25021.8 1192.62   9
   5   4   7 22834.4 1114.49  11
   5   4   8 5856.97 483.941  11
   5   4   8 6405.98 554.590  10
   5   4   8 5691.64 536.228  17
   5   4   8 6340.27 492.401   9
   5   4   8 5673.76 553.213  16
   5   4   9 18545.0 726.788  11
   5   4   9 16781.0 610.998   9
   5   4   9 19116.7 828.627  16
  -5   5   9 10405.7 591.660  17
   5   5  -9 10460.5 612.647   8
  -5   5   8 12118.6 837.619  17
   5   5  -8 10808.6 778.519   8
  -5   5   8 11103.9 653.211  15
   5   5  -7 32.9515 124.205  10
  -5   5   7 81.9995 168.958  18
  -5   5   7 98.5093 225.588  17
   5   5  -7 16.3880 221.153   8
   5   5  -6 12835.2 821.510  10
  -5   5   6 13016.6 1024.71  18
  -5   5   6 13264.5 1132.54  17
   5   5  -6 12176.1 1006.82   8
  -5   5   6 11634.1 865.759  14
   5   5  -5 34861.8 1510.18  10
  -5   5   5 30824.2 1784.95  18
  -5   5   5 33577.9 1925.11  17
   5   5  -5 30988.5 1682.48   8
  -5   5   5 33518.5 1729.67  14
   5   5  -4 8564.55 738.551  10
  -5   5   4 8177.45 946.551  18
  -5   5   4 8921.95 1021.48  17
   5   5  -4 7940.56 846.066   8
  -5   5   4 7731.54 893.589  14
   5   5  -3 71288.9 2467.45  10
  -5   5   3 66597.6 3024.61  18
   5   5  -3 71732.6 2635.43   8
  -5   5   3 65746.7 2910.59  14
  -5   5   3 68121.8 2994.27  17
   5   5  -2 31219.4 1493.56  10
  -5   5   2 29522.8 1905.18  18
   5   5  -2 29175.1 1502.68   8
  -5   5   2 26151.7 1774.29  14
   5   5  -1 5468.82 615.591  10
  -5   5   1 4818.50 780.523  18
   5   5  -1 5306.50 581.051   8
  -5   5   1 6133.03 907.224  14
   5   5   0 65487.0 2340.00  10
  -5   5   0 64216.6 2974.74  18
  -5   5   0 59193.9 2862.58  14
   5   5   1 42801.8 1823.55  10
   5   5   1 44347.4 1709.30  18
  -5   5  -1 42384.6 2308.21  18
  -5   5  -1 43208.2 2413.05  14
   5   5   2 9222.97 775.163  10
   5   5   2 8148.00 729.634  18
  -5   5  -2 7420.76 867.976  18
   5   5   2 8253.16 674.832   9
   5   5   2 8000.85 639.858  11
   5   5   2 8915.24 707.474  14
  -5   5  -2 7951.75 1024.97  14
   5   5   3 4231.26 476.818  11
   5   5   3 4901.99 577.668  18
   5   5   3 4592.11 562.045  10
   5   5   3 4218.02 535.872   9
   5   5   3 4539.12 537.925  14
  -5   5  -3 4145.36 717.911  14
   5   5   4 17791.4 1110.02  18
   5   5   4 17040.9 1044.07   9
   5   5   4 18643.5 1031.28  11
  -5   5  -4 17450.0 1274.28  14
   5   5   4 16942.6 1077.55  10
   5   5   5 9917.87 795.110  18
   5   5   5 8414.09 730.646  10
   5   5   5 8406.52 642.829  17
   5   5   5 10638.3 740.423  11
   5   5   5 10025.0 767.262   9
   5   5   6 15486.6 850.918  17
   5   5   6 15418.0 849.573  11
   5   5   6 13957.7 886.031  10
   5   5   6 17821.7 963.090  18
   5   5   6 16483.0 924.937   9
   5   5   6 15888.8 888.401  16
   5   5   7 34633.0 1226.95  11
   5   5   7 32350.8 1230.61  10
   5   5   7 36567.1 1296.28   9
   5   5   7 33261.3 1237.43  16
   5   6  -7 36148.1 1103.64  10
  -5   6   7 37963.2 1220.46  18
  -5   6   7 37704.4 1399.01  17
   5   6  -7 38939.0 1364.17   8
   5   6  -6 6169.57 467.369  10
  -5   6   6 6139.26 567.696  18
  -5   6   6 6170.80 608.147  17
   5   6  -6 6022.39 562.607   8
  -5   6   6 6257.78 499.939  14
   5   6  -5 28280.1 1192.74  10
  -5   6   5 25169.1 1393.15  18
  -5   6   5 25617.8 1394.33  17
   5   6  -5 27625.6 1355.76   8
  -5   6   5 25393.1 1294.80  14
   5   6  -4 5344.66 538.883  10
  -5   6   4 5735.98 727.358  18
  -5   6   4 5717.22 697.578  17
   5   6  -4 5612.78 608.895   8
  -5   6   4 6510.71 703.535  14
   5   6  -3 1110.01 276.361  10
  -5   6   3 633.959 305.649  18
  -5   6   3 985.004 348.220  17
   5   6  -3 1115.79 296.983   8
  -5   6   3 1169.83 400.529  14
   5   6  -2 4999.46 571.089  10
  -5   6   2 5218.73 747.878  18
  -5   6   2 5219.00 685.185  17
   5   6  -2 4720.64 532.977   8
  -5   6   2 4085.17 655.110  14
   5   6  -1 4762.72 541.441  10
  -5   6   1 3070.10 623.297  18
  -5   6   1 2969.69 520.664  17
   5   6  -1 3944.32 463.970   8
  -5   6   1 3470.74 616.630  14
  -5   6   0 20766.9 1467.75  18
   5   6   0 23817.6 1233.56  10
  -5   6   0 21623.1 1532.75  14
   5   6   1 9500.66 742.963  10
  -5   6  -1 8753.20 865.759  18
  -5   6  -1 9024.24 1000.03  14
   5   6   2 11210.9 794.791  10
   5   6   2 9952.84 694.598  18
   5   6   2 10692.2 667.845   9
   5   6   2 9965.73 646.808  11
   5   6   3 10309.4 712.677  18
   5   6   3 11416.7 707.242   9
   5   6   3 11368.4 687.629  11
   5   6   3 10491.3 763.081  10
   5   6   4 11734.8 759.169  10
   5   6   4 13216.3 787.819  18
   5   6   4 12328.8 732.410   9
   5   6   4 13413.4 725.768  11
   5   6   5 10569.6 638.894  10
   5   6   5 12064.0 692.019  18
   5   6   5 10911.1 610.169  11
   5   6   5 11140.5 650.159   9
   5   6   6 4399.49 322.500  11
   5   6   6 4711.85 363.910   9
   5   7  -4 10573.6 560.781  10
  -5   7   4 10055.5 659.132  18
   5   7  -4 9702.39 546.888   8
  -5   7   4 9987.03 624.655  14
   5   7  -3 30038.0 1104.00  10
  -5   7   3 27141.4 1247.67  18
   5   7  -3 27334.1 1035.96   8
  -5   7   3 27704.4 1231.56  14
   5   7  -2 13516.6 724.286  10
  -5   7   2 12901.5 856.660  18
   5   7  -2 12329.8 638.625   8
  -5   7   2 12128.1 841.852  14
   5   7  -1 1691.71 269.766  10
  -5   7   1 1932.66 337.798  18
   5   7  -1 1718.39 219.220   8
  -5   7   1 1741.98 345.845  14
   5   7   0 1278.29 249.872  10
  -5   7   0 1600.25 277.687  18
  -5   7   0 1902.54 371.378  14
  -5   7  -1 6489.13 582.633  14
   5   7   1 8981.78 567.976  10
   5   7   2 13415.8 671.814  10
  -5   7  -2 12592.7 665.903  14
   5   7   3 4400.63 328.337  10
   6  -7  -2 981.140 155.118   7
   6  -7  -2 877.193 148.499  19
   6  -7  -1 10358.9 534.144  19
   6  -7  -1 10714.0 493.561   7
   6  -7   0 10064.1 534.345  19
   6  -7   0 10034.9 453.478   7
   6  -7   1 13825.1 622.798  19
   6  -6  -6 4747.63 362.835   7
   6  -6  -6 5583.40 363.241  13
   6  -6  -5 6943.22 484.679   7
   6  -6  -5 6553.50 435.414  13
   6  -6  -4 2572.96 325.041   7
   6  -6  -4 2872.70 306.507  13
   6  -6  -4 2313.82 300.066  12
   6  -6  -3 17007.9 885.721  12
   6  -6  -3 16025.3 887.992  19
   6  -6  -3 15391.6 744.639  13
   6  -6  -3 16555.4 838.988   7
   6  -6  -2 1052.98 239.857   7
   6  -6  -2 1130.70 252.784  12
   6  -6  -2 1304.74 281.290  19
   6  -6  -2 934.741 179.374  13
   6  -6  -1 33638.0 1426.35  19
   6  -6  -1 34106.9 1290.05   7
   6  -6   0 3777.33 462.978  19
   6  -6   0 4170.47 406.116   7
   6  -6   1 1775.08 272.441   7
   6  -6   1 1372.08 291.171  19
   6  -6   2 5490.91 516.958  19
   6  -6   2 5444.02 394.667   7
   6  -6   3 12544.9 746.654  19
   6  -6   4 8575.65 547.437  19
   6  -6   5 3183.95 268.463  19
   6  -5  -8 8941.98 518.200   7
   6  -5  -8 9763.92 513.979  13
   6  -5  -7 35766.1 1310.40   7
   6  -5  -7 35403.7 1239.06  13
   6  -5  -7 34668.1 1280.78  12
   6  -5  -6 15412.3 856.667   7
   6  -5  -6 15755.0 810.004  13
   6  -5  -6 16479.3 930.068  12
   6  -5  -5 14835.5 862.700   7
   6  -5  -5 15398.7 833.593  13
   6  -5  -5 13628.5 914.357  12
   6  -5  -4 2378.94 359.303   7
   6  -5  -4 2691.94 435.749  12
   6  -5  -4 2311.36 374.435  19
   6  -5  -4 2128.30 374.616  16
   6  -5  -4 2787.63 362.967  13
   6  -5  -3 17075.9 1093.17  12
   6  -5  -3 16961.0 1045.26  19
   6  -5  -3 14817.4 1102.34   9
   6  -5  -3 15996.9 962.289  16
   6  -5  -3 16120.9 861.406  13
   6  -5  -3 17828.8 962.998   7
   6  -5  -2 4702.86 626.403   9
   6  -5  -2 4883.73 556.588  19
   6  -5  -2 4543.09 427.061  13
   6  -5  -2 5299.55 508.873   7
   6  -5  -1 13586.5 935.965  19
   6  -5  -1 12332.6 994.782   9
   6  -5  -1 15166.8 864.548   7
   6  -5   0 3656.46 499.412  19
   6  -5   0 2959.74 476.592   9
   6  -5   0 3462.16 412.543   7
   6  -5   1 6359.40 670.542   6
   6  -5   1 7075.87 683.364  19
   6  -5   1 5327.61 599.483   9
   6  -5   1 6990.06 547.379   7
   6  -5   2 13367.8 924.242  19
   6  -5   2 11439.6 798.307   9
   6  -5   2 13895.5 1006.90   6
   6  -5   3 40328.5 1681.47  19
   6  -5   3 40309.4 1816.08   6
   6  -5   4 5125.82 600.118   6
   6  -5   4 5091.46 535.538  19
   6  -5   5 2037.97 306.165  19
   6  -5   5 1413.00 335.426   6
   6  -5   6 5724.23 521.865   6
   6  -5   6 5367.50 394.727  19
   6  -4  -9 15397.0 721.436  13
   6  -4  -9 13844.2 721.123  12
   6  -4  -8 30741.2 1266.71   7
   6  -4  -8 30695.5 1210.75  13
   6  -4  -8 29758.3 1337.58  12
   6  -4  -7 3078.14 466.017  12
   6  -4  -7 2750.13 463.956  16
   6  -4  -7 3202.17 445.864   7
   6  -4  -7 3182.21 405.890  13
   6  -4  -6 30087.0 1547.41  16
   6  -4  -6 30259.3 1380.43   7
   6  -4  -6 30236.3 1312.44  13
   6  -4  -6 31429.8 1584.34  12
   6  -4  -5 12933.1 997.623  12
   6  -4  -5 11926.0 900.039  19
   6  -4  -5 13389.8 864.848   7
   6  -4  -5 13920.1 842.293  13
   6  -4  -4 39507.4 1838.36  12
   6  -4  -4 39778.7 1728.06  19
   6  -4  -4 43035.1 1947.03   9
   6  -4  -4 35334.5 1723.97  16
   6  -4  -4 39121.7 1514.50  13
   6  -4  -4 36486.2 1539.40   7
   6  -4  -3 19602.7 1141.87  19
   6  -4  -3 18193.5 1222.58   9
   6  -4  -3 17517.6 1133.36  16
   6  -4  -3 17998.8 937.501  13
   6  -4  -3 17718.9 984.319   7
   6  -4  -2 23128.4 1241.65  19
   6  -4  -2 22166.4 1345.80   9
   6  -4  -2 19060.5 1164.07  16
   6  -4  -2 21920.5 1004.48  13
   6  -4  -2 22459.1 1075.95   7
   6  -4  -1 30779.3 1604.71   6
   6  -4  -1 32722.7 1498.49  19
   6  -4  -1 30515.3 1590.32   9
   6  -4  -1 27179.5 1392.37  16
   6  -4  -1 32279.2 1309.28   7
   6  -4   0 37825.4 1663.58  19
   6  -4   0 38116.8 1839.27   6
   6  -4   0 36833.9 1772.02   9
   6  -4   0 41636.0 1488.80   7
   6  -4   1 238055. 5787.23  19
   6  -4   1 238526. 6116.91   6
   6  -4   2 19023.0 1130.77  19
   6  -4   2 18177.9 1129.48   9
   6  -4   2 21081.9 1353.58   6
   6  -4   3 31943.3 1486.56  19
   6  -4   3 28477.2 1638.06   6
   6  -4   4 2025.44 375.294  19
   6  -4   4 2096.60 474.030   6
   6  -4   5 37278.7 1848.02   6
   6  -4   5 39817.9 1550.28  19
   6  -4   5 35371.2 1782.59  15
   6  -4   6 12347.4 955.275   6
   6  -4   6 10876.5 667.817  19
   6  -4   6 11471.5 912.647  15
   6  -4   7 4555.63 519.069   6
   6  -4   8 10166.9 635.528   6
   6  -3 -10 6486.70 458.261  13
   6  -3 -10 7438.56 541.208  12
   6  -3  -9 7911.65 600.688  13
   6  -3  -9 8252.95 706.913  12
   6  -3  -8 1795.32 358.892   7
   6  -3  -8 2447.39 453.611  12
   6  -3  -8 2502.42 451.025  16
   6  -3  -8 2021.78 348.157  13
   6  -3  -7 20034.2 1285.81  16
   6  -3  -7 20951.9 1163.10   7
   6  -3  -7 21822.0 1119.88  13
   6  -3  -7 20490.6 1305.87  12
   6  -3  -6 367.408 226.760   7
   6  -3  -6 750.891 334.673  12
   6  -3  -6 333.961 323.869  16
   6  -3  -6 258.411 208.109  13
   6  -3  -5 57206.4 2337.39  12
   6  -3  -5 58699.9 2199.41  19
   6  -3  -5 61316.6 2323.79   9
   6  -3  -5 54524.6 2312.01  16
   6  -3  -5 56150.1 2027.80   7
   6  -3  -5 58552.4 1992.07  13
   6  -3  -4 31456.3 1609.16  12
   6  -3  -4 30184.0 1465.40  19
   6  -3  -4 31882.8 1596.49   9
   6  -3  -4 29980.3 1555.85  22
   6  -3  -4 31037.5 1826.46   2
   6  -3  -4 30883.5 1601.68  16
   6  -3  -4 32649.6 1323.89  13
   6  -3  -4 30757.7 1339.59   7
   6  -3  -3 55919.1 2163.46  21
   6  -3  -3 52388.3 2419.11   2
   6  -3  -3 55238.7 2171.87   9
   6  -3  -3 56643.1 2214.36  16
   6  -3  -3 52487.4 1988.68  19
   6  -3  -3 51467.6 1741.84  13
   6  -3  -3 56171.2 1839.55   7
   6  -3  -2 12162.7 921.807  21
   6  -3  -2 12262.6 832.927  19
   6  -3  -2 12196.5 1068.06   2
   6  -3  -2 10737.0 870.635   9
   6  -3  -2 11309.9 889.459  16
   6  -3  -1 45210.7 2144.23   2
   6  -3  -1 45031.9 1877.51   9
   6  -3  -1 44181.4 1926.47   6
   6  -3  -1 45567.4 1858.44  16
   6  -3  -1 46456.9 1746.89  19
   6  -3   0 116788. 3600.99   6
   6  -3   0 119650. 3311.70  19
   6  -3   0 117954. 3494.48   9
   6  -3   0 120517. 3877.84   2
   6  -3   0 114518. 3408.02  16
   6  -3   1 26439.7 1235.68  19
   6  -3   1 21728.4 1250.57   9
   6  -3   1 26056.7 1542.62   2
  -6  -3  -1 26192.2 1342.67   3
   6  -3   1 25585.4 1281.84  16
   6  -3   1 23960.3 1390.14   6
   6  -3   2 27018.3 1502.58   6
   6  -3   2 25023.1 1413.22  22
   6  -3   2 26361.5 1249.24  19
   6  -3   2 23415.9 1299.56   9
   6  -3   2 25483.0 1534.29   2
   6  -3   2 26828.7 1487.95  15
   6  -3   3 47351.9 2116.28   6
   6  -3   3 47312.3 1786.94  19
   6  -3   3 44051.3 1821.69   9
   6  -3   3 45862.4 2053.56  22
   6  -3   3 48276.2 2133.08  15
   6  -3   4 141004. 4335.33   6
   6  -3   4 140747. 4312.14  22
   6  -3   4 141901. 4366.17  15
   6  -3   5 22705.2 1466.85  15
   6  -3   5 24487.1 1494.39   6
   6  -3   6 4775.66 650.936   6
   6  -3   6 5126.66 696.053  15
   6  -3   7 8605.55 794.339   6
   6  -3   7 8398.82 786.329  15
   6  -3   8 13447.1 849.287  22
   6  -3   8 15498.0 946.602   6
   6  -3   8 15046.4 945.627  15
   6  -3   9 6041.69 445.537   6
   6  -3   9 6163.53 468.647  15
   6  -2 -11 20445.3 894.232  20
  -6  -2  11 19020.5 789.692   6
  -6  -2  10 3329.24 406.335   6
   6  -2 -10 2625.57 341.050  13
   6  -2 -10 2648.13 415.430  12
   6  -2  -9 18345.0 1022.43  13
   6  -2  -9 16135.9 1117.44  12
   6  -2  -8 19791.1 1233.70  16
   6  -2  -8 18089.4 1099.00   7
   6  -2  -8 19845.2 1103.93  13
   6  -2  -8 19354.3 1288.28  12
   6  -2  -7 19353.5 1221.33  21
   6  -2  -7 20638.6 1306.47  16
   6  -2  -7 18727.4 1117.23   7
   6  -2  -7 18409.5 1072.06  13
   6  -2  -7 20015.8 1326.32  12
   6  -2  -6 39878.3 1901.93  21
   6  -2  -6 41626.7 1950.04  16
   6  -2  -6 42696.9 1728.21   7
   6  -2  -6 43929.9 1679.84  13
   6  -2  -6 41672.0 1975.81  12
   6  -2  -5 86703.0 2954.01  12
   6  -2  -5 82259.5 3257.64   2
   6  -2  -5 81462.8 2909.49  21
   6  -2  -5 86011.1 2727.77   9
   6  -2  -5 86531.7 2958.14  16
   6  -2  -5 84911.3 2584.37   7
   6  -2  -5 80507.7 2473.71  13
   6  -2  -4 7166.47 695.552  12
   6  -2  -4 6407.48 746.799  22
   6  -2  -4 7336.82 860.643   2
   6  -2  -4 6594.03 615.276  19
   6  -2  -4 7839.96 766.320  16
   6  -2  -3 43666.3 2089.84   2
   6  -2  -2 7329.07 788.145   2
   6  -2  -1 25480.7 1485.54   2
   6  -2   0 10240.9 932.915   2
   6  -2   1 22217.7 1384.13   2
   6  -2   2 50716.4 2222.68   2
   6  -2   3 88556.2 2993.32   6
   6  -2   3 82945.9 2705.04   9
   6  -2   3 93132.4 2875.01  16
   6  -2   3 90390.3 3009.96  15
   6  -2   4 91747.9 2889.68   1
   6  -2   4 96810.5 3197.37   6
   6  -2   4 90771.4 2818.68   9
   6  -2   4 96125.0 2975.91  16
   6  -2   4 95741.3 3212.44  15
   6  -2   5 15049.1 1189.91  10
   6  -2   5 15931.7 1166.68   6
   6  -2   5 17001.4 1218.95  15
   6  -2   6 10524.7 936.171   6
   6  -2   6 10233.5 958.499  15
   6  -2   7 13381.8 1025.16   6
   6  -2   7 13665.9 1065.34  15
   6  -2   8 998.514 286.034   6
   6  -2   8 1121.17 344.427  15
   6  -2   9 14152.3 777.158   6
   6  -2   9 15236.9 878.838  15
   6  -1 -11 1672.54 298.338  20
  -6  -1  11 1456.20 281.681   6
   6  -1 -11 1193.66 265.387   8
   6  -1 -10 1897.94 337.846  21
   6  -1 -10 2475.41 445.337  20
   6  -1 -10 2323.46 407.755  12
   6  -1  -9 2645.52 528.818  12
   6  -1  -9 2567.29 496.726  21
   6  -1  -9 1710.74 350.878  13
   6  -1  -8 38986.5 1928.53  21
   6  -1  -8 40663.7 1767.17  16
   6  -1  -8 39457.1 1704.44  13
   6  -1  -8 41492.7 1988.02  12
   6  -1  -7 2882.14 515.128  12
   6  -1  -7 2774.94 520.128  21
   6  -1  -7 3785.00 544.729  16
   6  -1  -7 3381.24 468.321  13
   6  -1  -6 59289.4 2593.90   2
   6  -1  -6 59812.9 2486.13  21
   6  -1  -6 64792.2 2386.39  16
   6  -1  -6 57960.2 2099.12   7
   6  -1  -6 59321.3 2068.92  13
   6  -1  -6 62331.5 2435.64  12
   6  -1  -5 1319.52 312.487  12
   6  -1  -5 941.545 280.410  21
   6  -1  -5 2108.57 505.865  22
   6  -1  -5 866.936 280.500  16
   6  -1  -5 992.549 244.678   2
   6  -1  -5 1756.75 294.063  13
   6  -1  -4 55934.4 2384.58   2
   6  -1  -3 65339.7 2555.54   2
   6  -1  -2 82820.1 2933.44   2
  -6  -1   2 85678.8 2801.76   4
  -6  -1   1 142867. 3959.54   4
   6  -1  -1 130926. 4000.08   2
   6  -1   0 78270.5 2767.09   2
   6  -1   1 25892.7 1437.12   2
   6  -1   2 1967.74 408.932   2
   6  -1   3 56479.6 2039.22   1
   6  -1   4 47068.5 1970.11   6
   6  -1   4 45153.3 2038.62  10
   6  -1   4 49510.4 1990.86   1
   6  -1   4 51119.8 1877.80   9
   6  -1   4 50479.1 2034.05  16
   6  -1   4 48184.6 2024.17  15
   6  -1   5 6086.32 763.988  10
   6  -1   5 7967.03 777.409   6
   6  -1   5 7445.27 652.317   9
   6  -1   5 7973.09 762.973  16
   6  -1   5 6732.60 732.316  15
   6  -1   6 8536.81 948.549  10
   6  -1   6 7435.43 757.933   6
   6  -1   6 8504.57 786.622  16
   6  -1   6 8662.26 849.768  15
   6  -1   7 32741.1 1583.74   6
   6  -1   7 30191.0 1792.93  10
   6  -1   7 31473.0 1486.11  16
   6  -1   7 31367.1 1654.42  15
   6  -1   8 30075.8 1525.17  15
   6  -1   8 31855.9 1429.53   6
   6  -1   9 8989.92 691.205  15
   6  -1  10 5656.69 469.229  22
   6  -1  10 5173.81 380.457  15
   6   0 -11 29.5248 194.905  20
  -6   0  11-96.3586 148.489  15
   6   0 -11 192.636 159.193   8
   6   0 -10 35420.3 1659.17  21
   6   0 -10 37065.1 1697.67  20
  -6   0  10 38795.3 1539.59  15
   6   0 -10 38307.0 1706.12   8
   6   0  -9 5430.19 684.876  20
   6   0  -9 4669.31 649.906  21
  -6   0   9 5383.37 608.290  15
   6   0  -9 5167.47 667.084  12
   6   0  -8 2705.32 529.159  12
   6   0  -8 3468.23 598.689  21
   6   0  -8 3265.64 483.026  13
   6   0  -7 15556.3 1244.88  21
   6   0  -7 14740.0 987.586  13
   6   0  -7 16199.8 1158.92  12
   6   0  -6 336.314 279.417  12
   6   0  -6 142.906 250.756  21
   6   0  -6 565.252 198.878  13
  -6   0   5-970.992 333.568   4
   6   0  -5 111.317 299.544   2
   6   0  -4 32408.8 1625.73   2
  -6   0   4 32827.7 1744.50   4
   6   0  -3 55314.7 2180.33   2
  -6   0   3 56962.1 2345.81   4
   6   0  -2 6683.38 666.129   2
  -6   0   2 6505.59 700.231   4
  -6   0   1 74379.2 2749.99   4
   6   0  -1 78567.2 2637.75   2
   6   0   0 80781.8 2705.55   2
   6   0   1 19983.2 1198.54   2
   6   0   2-12.6989 174.428   1
   6   0   3 49216.1 1963.39   1
   6   0   4 137920. 3617.23  11
   6   0   4 126474. 3901.10  10
   6   0   4 126257. 3922.37   1
   6   0   4 138153. 3685.02   9
   6   0   4 132166. 3908.02  16
   6   0   5 59311.4 2140.08  11
   6   0   5 62927.3 2510.55   1
   6   0   5 57417.8 2093.40   9
   6   0   5 58690.0 2342.54  16
   6   0   5 57260.1 2461.25  10
   6   0   5 59581.7 2244.13  15
   6   0   6 101044. 3223.10  11
   6   0   6 105433. 3732.65  10
   6   0   6 107765. 3119.35   9
   6   0   6 110564. 3504.28  16
   6   0   6 106959. 3365.40  15
   6   0   7 35784.4 2000.35  10
   6   0   7 40287.6 1542.74   9
   6   0   7 40941.5 1847.48  16
   6   0   7 39306.9 1778.42  15
   6   0   8 23093.8 1476.36  10
   6   0   8 22667.3 1201.47  16
   6   0   8 19407.8 1135.97  15
   6   0   9 49748.7 1634.90  16
   6   0   9 50734.0 1747.83  15
  -6   1  11 1637.60 271.268  15
   6   1 -11 1268.17 253.095   8
   6   1 -10 2498.16 465.596  21
   6   1 -10 3158.31 489.679  20
  -6   1  10 2662.25 411.518  15
   6   1 -10 2015.72 392.326   8
   6   1  -9 1795.81 456.212  21
   6   1  -9 2169.59 468.218  20
   6   1  -9 2108.08 459.247   8
   6   1  -8 39992.1 2088.04  21
   6   1  -8 40019.1 1930.13  20
   6   1  -8 43607.7 2023.69   8
   6   1  -8 37729.7 1814.86  12
   6   1  -7 3681.68 556.812  12
   6   1  -7 2505.28 503.861  21
   6   1  -7 3866.64 577.272  20
   6   1  -6 59788.4 2573.20  21
   6   1  -6 62773.4 2320.19  20
  -6   1   6 65646.2 2814.21   4
   6   1  -6 59520.7 2214.67  12
   6   1  -5 1580.13 423.337  21
  -6   1   5 1475.78 446.872   4
   6   1  -5 1234.27 286.306  13
  -6   1   4 57824.1 2571.75   4
  -6   1   3 63560.1 2661.23   4
   6   1  -2 91752.0 2711.72   2
  -6   1   2 85697.4 3169.61   4
  -6   1   1 118374. 3940.20   4
   6   1  -1 133496. 3536.69   2
  -6   1   0 74213.5 2818.42   4
   6   1   0 73649.5 2412.84   2
   6   1   1 27770.4 1284.16   1
   6   1   2 1342.06 258.281   1
   6   1   3 50172.4 2115.27   1
   6   1   4 52845.2 1844.61  11
   6   1   4 49031.2 2067.94  10
   6   1   4 48632.1 2083.53  16
   6   1   4 47673.3 2179.73   1
   6   1   5 7300.16 650.058  11
   6   1   5 6919.39 789.988  10
   6   1   5 7365.01 676.965   9
   6   1   5 8085.97 805.296  16
   6   1   6 6709.05 675.919  11
   6   1   6 7299.60 851.367  10
   6   1   6 8115.68 707.275   9
   6   1   6 7470.23 807.152  16
   6   1   7 30590.7 1473.02  11
   6   1   7 32539.7 1827.23  10
   6   1   7 33359.9 1410.05   9
   6   1   7 30166.7 1625.90  16
   6   1   8 26275.9 1308.84  11
   6   1   8 29482.6 1655.11  10
   6   1   8 28972.6 1147.99   9
   6   1   8 30689.6 1490.17  16
   6   1   9 8026.23 736.829  10
   6   1   9 8154.20 613.758  16
   6   1  10 4622.83 361.192  22
  -6   2  11 19796.6 871.813  15
   6   2 -11 19507.6 891.628   8
   6   2 -10 2682.48 470.409  21
  -6   2  10 3562.96 459.851  15
   6   2 -10 3400.56 468.749   8
   6   2  -9 19128.7 1310.51  21
   6   2  -9 20188.5 1233.31  20
   6   2  -9 19874.4 1246.44   8
   6   2  -8 21150.0 1448.93  21
   6   2  -8 19214.2 1261.43  20
   6   2  -8 20486.9 1339.60   8
   6   2  -7 19643.8 1259.47  20
  -6   2   7 19071.7 1285.23  17
   6   2  -7 19907.4 1415.16  21
   6   2  -7 19561.3 1313.18   8
   6   2  -6 40055.3 2042.69  21
   6   2  -6 39271.9 1779.82  20
  -6   2   6 37660.1 1985.73  17
   6   2  -6 40293.2 1899.61   8
   6   2  -5 85431.0 2852.61   8
   6   2  -5 81583.0 3006.42  21
  -6   2   5 81604.6 3392.08   4
  -6   2   4 6048.45 801.269   4
  -6   2   3 45495.6 2292.70   4
  -6   2   2 6094.54 796.623   4
  -6   2   1 24628.3 1585.87   4
  -6   2   0 9498.64 969.191   4
  -6   2  -1 23273.1 1534.64   4
   6   2   1 19585.3 1177.87   1
   6   2   2 47765.7 2053.75   1
   6   2   3 81079.8 3035.39   1
   6   2   3 93125.1 2831.78  17
   6   2   3 85042.5 2803.54  10
   6   2   3 92726.3 2779.90   9
   6   2   3 87864.1 2519.37  11
   6   2   3 84916.3 2872.53  16
   6   2   4 100131. 2862.14  11
   6   2   4 100734. 3248.30  10
   6   2   4 99717.5 3144.12  17
   6   2   4 99986.2 3042.53   9
   6   2   4 95612.0 3223.09  16
   6   2   4 92423.2 3394.54   1
   6   2   5 17829.7 1028.84  11
   6   2   5 15644.1 1154.18  10
   6   2   5 17492.2 1164.70  17
   6   2   5 16747.1 1068.65   9
   6   2   5 16947.0 1201.07  16
   6   2   6 10632.4 812.411  11
   6   2   6 9837.64 958.350  10
   6   2   6 9631.14 872.187  17
   6   2   6 10800.4 836.779   9
   6   2   6 9434.93 896.564  16
   6   2   7 13155.1 889.381  11
   6   2   7 13154.2 1104.44  10
   6   2   7 14192.7 901.138   9
   6   2   7 14242.4 1065.95  16
   6   2   8 1179.89 289.913  11
   6   2   8 815.549 288.509  10
   6   2   8 814.887 211.370   9
   6   2   8 1183.39 335.360  16
   6   2   9 13902.6 889.738  10
   6   2   9 15053.9 846.451  16
  -6   3  10 8814.49 627.547  15
   6   3 -10 8036.44 624.735   8
   6   3  -9 8663.15 804.453  21
  -6   3   9 8759.10 644.101  17
   6   3  -9 8494.77 756.230   8
   6   3  -8 1289.94 401.940  21
  -6   3   8 2374.93 452.000  17
   6   3  -8 2258.96 437.184   8
   6   3  -7 18805.7 1325.40  21
  -6   3   7 20064.2 1392.18  17
   6   3  -7 20611.5 1343.14   8
   6   3  -6 171.075 235.709  21
  -6   3   6 770.872 362.095  17
   6   3  -6 262.391 241.110   8
   6   3  -5 55485.7 2327.88  21
  -6   3   5 58277.6 2498.94  18
   6   3  -5 56538.0 2307.12   8
  -6   3   4 29299.5 1769.28  18
   6   3  -4 31854.9 1552.69   8
  -6   3   4 30475.8 1640.21  14
  -6   3   4 30511.9 1971.44   4
  -6   3   3 54486.4 2370.00  14
  -6   3   3 53282.8 2632.24   4
   6   3  -2 11362.1 741.729  10
  -6   3   2 12661.0 1221.28   4
   6   3  -1 45941.7 1685.49  10
  -6   3   1 43141.5 2302.87   4
  -6   3   0 113484. 4164.19   4
   6   3   0 128398. 3422.92  10
   6   3   1 24389.0 1432.64   1
  -6   3  -1 24137.9 1648.80   4
   6   3   1 29570.8 1339.30  10
   6   3   1 28170.7 1265.05  18
   6   3   1 25249.6 1179.47   9
  -6   3  -2 28350.4 1795.93   4
   6   3   2 23837.9 1283.48  10
   6   3   2 27096.6 1306.24  18
   6   3   2 27536.8 1294.74   9
   6   3   2 26773.4 1350.41  16
   6   3   2 26625.7 1593.61   1
   6   3   3 49245.2 1996.63  10
   6   3   3 51894.8 1964.85  18
   6   3   3 47849.4 1868.81  17
   6   3   3 50027.1 1742.26  11
   6   3   3 45284.3 1855.82   9
   6   3   3 46928.0 1987.47  16
   6   3   4 148548. 3802.76  11
   6   3   4 137314. 4140.60  10
   6   3   4 148058. 4052.57  18
   6   3   4 141072. 4000.28  17
   6   3   4 140399. 3969.52   9
   6   3   5 25979.7 1263.63  11
   6   3   5 25480.6 1484.41  10
   6   3   5 26443.7 1413.66  17
   6   3   5 25314.2 1341.83   9
   6   3   5 23831.8 1426.39  16
   6   3   6 4172.35 608.362  10
   6   3   6 4488.25 579.205  17
   6   3   6 6094.24 631.271   9
   6   3   6 4906.71 535.340  11
   6   3   6 4732.59 637.896  16
   6   3   7 8032.57 645.806  11
   6   3   7 8043.68 774.839  10
   6   3   7 7516.78 627.092   9
   6   3   7 7127.82 713.103  16
   6   3   8 14888.2 807.696  11
   6   3   8 14417.4 947.859  10
   6   3   8 15577.2 772.001   9
   6   3   8 14878.4 932.678  16
   6   3   9 5837.92 448.026  10
   6   3   9 6527.62 476.671  16
  -6   4   9 17184.6 836.763  17
  -6   4   9 18170.3 901.059  15
   6   4  -9 16060.3 905.866   8
  -6   4   8 30496.6 1476.18  17
   6   4  -8 31689.7 1487.25   8
   6   4  -7 2480.69 434.581  21
  -6   4   7 2329.40 475.881  17
   6   4  -7 3210.40 529.399   8
  -6   4   6 29641.1 1604.75  18
  -6   4   6 29178.8 1779.29  17
   6   4  -6 31633.4 1647.14   8
   6   4  -5 14001.1 843.253  10
  -6   4   5 14535.6 1202.61  18
  -6   4   5 12177.0 1198.43  17
   6   4  -5 13663.0 1052.85   8
  -6   4   5 14321.1 1067.77  14
   6   4  -4 37611.0 1543.32  10
  -6   4   4 35656.3 2052.79  18
   6   4  -4 36200.7 1750.97   8
  -6   4   4 37841.8 1964.85  14
   6   4  -3 19398.9 1087.72  10
  -6   4   3 18364.6 1484.95  18
   6   4  -3 19704.0 1188.72   8
  -6   4   3 20384.5 1479.06  14
   6   4  -2 22039.7 1179.20  10
  -6   4   2 23459.4 1628.81  14
   6   4  -1 32970.0 1498.99  10
  -6   4   1 31662.7 1980.27  14
   6   4   0 41845.7 1753.16  10
   6   4   1 245659. 6059.68  10
   6   4   1 253150. 5888.82  18
   6   4   1 237136. 5764.92   9
   6   4   2 18818.8 1159.77  10
   6   4   2 18918.6 1106.71  18
   6   4   2 18454.5 1069.45   9
   6   4   3 31310.3 1326.41  11
   6   4   3 31003.6 1572.53  10
   6   4   3 30844.3 1490.47  18
   6   4   3 32065.4 1476.25   9
   6   4   4 2463.74 375.443  11
   6   4   4 1788.29 398.640  10
   6   4   4 2087.59 399.806  18
   6   4   4 1917.09 352.049  17
   6   4   4 1800.33 361.338   9
   6   4   4 1516.28 346.653  16
   6   4   5 37658.8 1507.67  11
   6   4   5 35283.7 1713.93  10
   6   4   5 39126.6 1632.10  17
   6   4   5 40080.4 1667.11   9
   6   4   5 37451.8 1689.18  16
   6   4   6 11847.4 757.806  11
   6   4   6 10920.7 870.835  10
   6   4   6 12572.2 829.007   9
   6   4   6 11775.8 863.473  16
   6   4   7 4652.68 433.742  11
   6   4   7 4468.80 508.961  10
   6   4   7 4264.74 436.009   9
   6   4   7 3743.44 463.478  16
   6   4   8 8879.19 510.299  11
   6   4   8 9317.99 570.928  10
   6   4   8 9817.18 509.696   9
   6   4   8 9459.45 579.058  16
  -6   5   8 9165.81 619.989  17
   6   5  -8 9442.26 617.115   8
  -6   5   8 9656.65 537.942  15
  -6   5   7 35634.6 1327.94  18
  -6   5   7 35613.4 1590.62  17
   6   5  -7 35741.3 1487.22   8
   6   5  -6 15845.4 789.359  10
  -6   5   6 15152.4 1005.32  18
  -6   5   6 15681.4 1132.77  17
   6   5  -6 15661.6 1020.24   8
  -6   5   6 16279.8 900.484  14
   6   5  -5 13262.6 801.275  10
  -6   5   5 15528.9 1170.13  18
  -6   5   5 15516.2 1217.13  17
   6   5  -5 14330.8 1004.49   8
  -6   5   5 15325.9 1034.91  14
   6   5  -4 2523.24 378.228  10
  -6   5   4 2611.87 549.363  18
  -6   5   4 2483.99 547.501  17
   6   5  -4 1912.19 392.654   8
  -6   5   4 2754.87 539.912  14
   6   5  -3 17268.4 1029.30  10
  -6   5   3 16944.6 1383.02  18
  -6   5   3 15741.4 1332.08  17
   6   5  -3 15999.1 1040.42   8
  -6   5   3 15501.2 1248.31  14
   6   5  -2 5116.10 569.535  10
  -6   5   2 4054.51 700.834  18
  -6   5   2 5005.04 780.700  14
   6   5  -1 14364.2 963.806  10
  -6   5   1 11999.6 1228.28  18
  -6   5   1 14931.8 1308.01  14
   6   5   0 4006.28 510.801  10
  -6   5   0 2524.86 628.773  18
  -6   5   0 2615.14 614.448  14
   6   5   1 6905.96 685.115  10
  -6   5  -1 5678.91 827.140  18
  -6   5  -1 6904.64 923.751  14
   6   5   2 13984.2 971.502  10
   6   5   2 13133.7 864.395  18
  -6   5  -2 12761.8 1119.85  18
   6   5   2 13653.0 842.844   9
  -6   5  -2 13069.3 1268.17  14
   6   5   3 38434.4 1722.31  10
   6   5   3 42792.1 1688.61  18
   6   5   3 42278.9 1492.95  11
   6   5   3 42681.5 1638.34   9
   6   5   4 4887.53 574.472  10
   6   5   4 6396.24 513.303  11
   6   5   4 5934.79 567.479   9
  -6   5  -4 4457.60 647.706  14
   6   5   5 1612.51 262.081  11
   6   5   5 1448.19 300.740  10
   6   5   5 1795.58 314.181   9
  -6   5  -5 1423.46 328.231  14
   6   5   6 5912.53 439.775  11
   6   5   6 5437.52 493.855  10
   6   5   6 5906.97 475.436   9
   6   6  -6 5151.13 325.697  10
  -6   6   6 5118.86 427.130  18
  -6   6   6 5363.22 484.107  17
   6   6  -6 4704.42 397.981   8
  -6   6   6 4517.43 320.205  14
   6   6  -5 7765.13 497.414  10
  -6   6   5 6443.49 596.264  18
  -6   6   5 6162.44 604.674  17
   6   6  -5 6843.81 531.254   8
  -6   6   5 5622.44 489.674  14
   6   6  -4 2922.16 350.565  10
  -6   6   4 2443.71 440.206  18
  -6   6   4 1999.34 403.426  17
   6   6  -4 2917.67 362.045   8
  -6   6   4 2587.69 414.007  14
   6   6  -3 16588.9 896.097  10
  -6   6   3 14859.5 1099.29  18
  -6   6   3 15343.7 1071.69  17
   6   6  -3 16434.6 868.532   8
  -6   6   3 15045.2 1072.14  14
   6   6  -2 1019.93 282.888  10
  -6   6   2 989.764 383.729  18
  -6   6   2 1390.81 392.645  17
  -6   6   2 1337.17 395.446  14
   6   6  -1 35649.5 1453.60  10
  -6   6   1 32420.7 1779.65  18
  -6   6   1 32067.9 1605.65  17
  -6   6   1 31283.6 1738.27  14
   6   6   0 3798.65 467.315  10
  -6   6   0 3025.07 559.025  18
  -6   6   0 2939.30 584.910  14
   6   6   1 1551.21 311.614  10
  -6   6  -1 1062.03 352.055  18
  -6   6  -1 433.757 294.863  14
   6   6   2 5458.12 525.699  10
  -6   6  -2 5149.35 639.861  14
   6   6   3 13693.5 810.140  10
   6   6   3 12803.5 644.856   9
  -6   6  -3 11122.8 807.802  14
   6   6   4 7603.11 414.128  11
   6   6   4 7128.86 536.676  10
   6   6   4 8203.88 486.661   9
   6   6   5 2689.46 217.208  11
   6   6   5 2963.18 278.964  10
   6   6   5 3559.51 285.554   9
   6   7  -2 663.079 152.639  10
  -6   7   2 856.228 203.872  18
  -6   7   2 809.198 203.376  14
  -6   7   1 9201.24 574.238  18
  -6   7   1 9484.66 642.222  14
   6   7   0 10741.7 570.514  10
  -6   7   0 8776.78 600.543  14
   6   7   1 14338.9 638.072  10
  -6   7  -1 11462.2 623.220  14
   7  -6  -5 10071.1 485.259   7
   7  -6  -5 9495.18 405.790  13
   7  -6  -4 14753.8 654.454   7
   7  -6  -4 14866.2 555.893  13
   7  -6  -4 14535.1 666.111  12
   7  -6  -3 45013.9 1466.35  12
   7  -6  -3 44956.8 1481.82  19
   7  -6  -3 43408.5 1341.62   7
   7  -6  -2 20490.9 949.389  12
   7  -6  -2 21123.4 956.393  19
   7  -6  -2 20025.1 806.460   7
   7  -6  -1 1266.23 188.873   7
   7  -6  -1 1118.89 238.920  12
   7  -6  -1 1106.54 226.488  19
   7  -6   0 7109.05 535.853  19
   7  -6   0 6943.42 391.965   7
   7  -6   1 9525.46 600.241  19
   7  -6   2 2752.38 304.357  19
   7  -6   3 16791.1 692.332  19
   7  -5  -7 1558.98 220.838  12
   7  -5  -7 1795.92 231.988   7
   7  -5  -7 1501.41 200.100  13
   7  -5  -6 5045.54 424.035   7
   7  -5  -6 4595.35 371.231  13
   7  -5  -6 4477.43 435.072  12
   7  -5  -5 4379.26 461.075  16
   7  -5  -5 4691.07 432.251   7
   7  -5  -5 4371.34 384.285  13
   7  -5  -5 4244.42 483.404  12
   7  -5  -4 1898.90 374.198  12
   7  -5  -4 2354.10 369.129  19
   7  -5  -4 2389.36 348.154  16
   7  -5  -4 2150.02 274.235  13
   7  -5  -4 2435.20 332.636   7
   7  -5  -3 1329.01 264.923   7
   7  -5  -3 750.621 256.293  12
   7  -5  -3 1179.74 291.138  19
   7  -5  -3 947.982 251.090  16
   7  -5  -3 1126.16 210.446  13
   7  -5  -2 6828.49 682.295  12
   7  -5  -2 7410.50 649.757  19
   7  -5  -2 7718.24 761.920   9
   7  -5  -2 7570.41 547.641   7
   7  -5  -1 3433.03 465.157  19
   7  -5  -1 2925.22 490.441   9
   7  -5  -1 3101.45 337.920   7
   7  -5   0 8082.07 675.227  19
   7  -5   0 8443.04 755.483   9
   7  -5   1 36283.2 1583.26   9
   7  -5   1 38640.9 1604.19  21
   7  -5   2 3638.54 506.801   6
   7  -5   2 2712.15 392.193  19
   7  -5   2 2951.36 363.525   9
   7  -5   3 2282.18 321.377  19
   7  -5   3 1978.72 378.414   6
   7  -5   4 1686.56 251.023  19
   7  -5   4 1245.33 282.822   6
   7  -5   5 6403.60 525.506   6
   7  -5   5 5550.88 333.691  19
   7  -4  -8 5069.94 410.346  13
   7  -4  -8 5489.90 483.947  12
   7  -4  -7 31327.2 1418.94  16
   7  -4  -7 32317.3 1285.38   7
   7  -4  -7 34175.4 1258.20  13
   7  -4  -7 32369.7 1436.05  12
   7  -4  -6 9848.84 803.313  16
   7  -4  -6 8709.15 646.190   7
   7  -4  -6 8051.91 587.474  13
   7  -4  -6 9871.56 801.539  12
   7  -4  -5 31390.5 1562.43  12
   7  -4  -5 30711.7 1529.51  16
   7  -4  -5 29659.4 1302.42   7
   7  -4  -5 31267.3 1254.96  13
   7  -4  -4 612.398 206.970   7
   7  -4  -4 940.667 293.953  12
   7  -4  -4 770.366 288.588  19
   7  -4  -4 899.984 334.417   9
   7  -4  -4 664.633 271.504  16
   7  -4  -4 604.507 190.772  13
   7  -4  -3 55485.5 2230.20  12
   7  -4  -3 52226.1 2026.99  19
   7  -4  -3 53579.7 2229.46   9
   7  -4  -3 47935.5 2067.34  16
   7  -4  -3 55877.6 1738.51  13
   7  -4  -3 54113.4 1831.10   7
   7  -4  -2 1857.87 297.981   7
   7  -4  -2 2013.01 365.518  21
   7  -4  -2 1228.29 299.892  19
   7  -4  -2 1330.40 373.137   9
   7  -4  -2 1896.52 425.905  16
   7  -4  -1 32217.0 1485.60  19
   7  -4  -1 30194.4 1631.31   9
   7  -4  -1 28603.4 1461.61  16
   7  -4   0 77586.9 2847.70   6
   7  -4   0 75525.3 2511.07  19
   7  -4   0 73381.5 2726.32   9
   7  -4   0 75307.7 2522.89  16
   7  -4   1 60830.7 2137.94  19
   7  -4   1 56943.6 2306.05   9
   7  -4   1 62284.9 2481.97   6
   7  -4   2 3534.68 451.097  19
   7  -4   2 3299.91 558.946   6
   7  -4   2 3503.38 492.870   9
   7  -4   3 12615.9 804.803  19
   7  -4   3 11250.9 797.989   9
   7  -4   3 12816.2 1022.56   6
   7  -4   4 11990.9 955.288   6
   7  -4   4 10133.5 662.706  19
   7  -4   5 14524.5 1005.41   6
   7  -4   6 1263.04 303.012   6
   7  -4   7 12394.1 698.581   6
   7  -3  -9 5311.18 439.966  13
   7  -3  -9 5165.65 494.618  12
   7  -3  -8 35302.5 1537.94  16
   7  -3  -8 33829.5 1346.42  13
   7  -3  -8 35860.1 1586.00  12
   7  -3  -7 3784.53 539.626  16
   7  -3  -7 5224.65 543.659   7
   7  -3  -7 4555.15 483.484  13
   7  -3  -7 4553.49 588.236  12
   7  -3  -6 27758.2 1518.96  16
   7  -3  -6 29290.7 1336.40   7
   7  -3  -6 28976.9 1269.31  13
   7  -3  -6 24891.4 1466.05  12
   7  -3  -5 17960.6 1213.69  12
   7  -3  -5 20286.3 1222.81   9
   7  -3  -5 20053.6 1219.17  21
   7  -3  -5 16381.6 1179.47  16
   7  -3  -5 17413.9 999.452   7
   7  -3  -5 18004.9 962.441  13
   7  -3  -4 11019.5 933.258  12
   7  -3  -4 10248.9 883.514  21
   7  -3  -4 10234.3 832.041  19
   7  -3  -4 10710.1 898.459   9
   7  -3  -4 10023.7 910.813  16
   7  -3  -4 10460.3 722.660   7
   7  -3  -4 10740.3 697.066  13
   7  -3  -3 5.31134 150.762   7
   7  -3  -3 451.619 244.635  21
   7  -3  -3 549.145 255.953  19
   7  -3  -3 339.595 265.647   9
   7  -3  -3 755.144 295.607  16
   7  -3  -2 14737.7 1078.77  22
   7  -3  -2 12980.6 1035.03  21
   7  -3  -2 13066.7 893.601  19
   7  -3  -2 12453.4 993.796   9
   7  -3  -2 12666.5 1013.50  16
   7  -3  -1 66126.9 2627.83   6
   7  -3  -1 71972.3 2649.87  22
   7  -3  -1 68863.4 2656.96  21
   7  -3  -1 71953.8 2352.39  19
   7  -3  -1 68476.8 2584.44   9
   7  -3  -1 66680.8 2546.66  16
   7  -3   0 127114. 4004.86   6
   7  -3   0 137054. 3618.64  19
   7  -3   0 125262. 3899.29   9
   7  -3   0 129054. 3859.59  16
   7  -3   0 127110. 3944.47  22
   7  -3   1 1549.95 382.378  22
   7  -3   1 2868.20 391.994  19
   7  -3   1 2597.71 527.890   6
   7  -3   1 2379.78 469.316   9
   7  -3   1 1618.37 365.664  16
   7  -3   2 32011.9 1705.63  22
   7  -3   2 30560.9 1683.98   6
   7  -3   2 34590.7 1402.02  19
   7  -3   2 30102.9 1564.64   9
   7  -3   2 31331.4 1530.44  16
   7  -3   3 56207.1 2383.55   6
   7  -3   3 54144.8 2121.35   9
   7  -3   3 54927.8 2350.88  22
   7  -3   4 15104.5 1150.28  22
   7  -3   4 15084.6 949.216   9
   7  -3   4 16067.3 1173.46   6
   7  -3   4 14816.6 1151.73  15
   7  -3   5 9086.68 859.459  22
   7  -3   5 9993.92 901.913   6
   7  -3   5 10861.3 936.760  15
   7  -3   6 5522.03 638.961  22
   7  -3   6 5549.10 653.108   6
   7  -3   6 5321.72 647.632  15
   7  -3   7 14720.0 882.055  22
   7  -3   7 14685.3 905.203   6
   7  -3   8 17976.9 756.433  22
   7  -3   8 20087.6 855.128   6
   7  -2 -10 7350.89 553.977  20
  -7  -2  10 6552.93 440.058   6
   7  -2 -10 6038.84 510.743  12
   7  -2  -9 580.776 255.617  12
   7  -2  -9 259.000 185.459  13
   7  -2  -8 34568.0 1538.29  21
   7  -2  -8 35895.3 1614.51  16
   7  -2  -8 35129.6 1482.74  13
   7  -2  -8 35513.9 1700.75  12
   7  -2  -7 19548.3 1229.57  21
   7  -2  -7 20697.2 1274.64  16
   7  -2  -7 17730.1 1054.26   7
   7  -2  -7 22101.1 1138.85  13
   7  -2  -7 21711.3 1350.38  12
   7  -2  -6 28328.2 1579.38  21
   7  -2  -6 30706.8 1618.19  16
   7  -2  -6 27589.9 1327.90   7
   7  -2  -6 26853.9 1287.31  13
   7  -2  -6 28953.6 1597.23  12
   7  -2  -5 39410.4 1889.79  12
   7  -2  -5 43828.6 1782.64   9
   7  -2  -5 41433.6 1954.20  16
   7  -2  -5 41662.9 1990.26  21
   7  -2  -5 40433.5 1619.28   7
   7  -2  -5 38860.1 1544.36  13
   7  -2  -4 59202.5 2324.74  12
   7  -2  -4 54563.6 2377.01  21
   7  -2  -4 55811.7 2171.04   9
   7  -2  -4 56433.1 2337.80  16
   7  -2  -4 55863.1 2433.02  22
   7  -2  -4 58884.7 1928.31   7
   7  -2  -4 57551.5 1882.14  13
   7  -2  -3 36151.2 1683.07  12
   7  -2  -3 33223.9 1760.45  22
   7  -2  -3 33785.6 1754.08  21
   7  -2  -3 33794.1 1483.77  19
   7  -2  -3 32055.3 1857.50   2
   7  -2  -3 33144.0 1588.57   9
   7  -2  -3 33260.5 1695.46  16
   7  -2  -2 2865.04 505.546  21
   7  -2  -2 3413.24 438.988  19
   7  -2  -2 2658.88 478.206  22
   7  -2  -2 1519.11 323.980   9
   7  -2  -2 2487.11 479.995  16
   7  -2  -2 2151.86 441.189   2
   7  -2  -1 4304.76 602.346   6
   7  -2  -1 4168.87 586.773  22
   7  -2  -1 4554.02 580.467   9
   7  -2  -1 4370.42 582.416  16
   7  -2  -1 3754.20 571.102   2
   7  -2   0 86294.6 2965.85   6
   7  -2   0 86256.1 3068.69  22
   7  -2   0 84740.3 2849.99   9
   7  -2   0 91222.5 3273.02   2
   7  -2   0 84993.3 2924.02  16
   7  -2   1 17387.6 1233.98  22
   7  -2   1 17214.5 1176.08   6
   7  -2   1 18531.2 1147.40   9
   7  -2   1 18341.0 1335.55   2
   7  -2   1 17259.0 1146.10  16
   7  -2   2 80307.6 2870.47   6
   7  -2   2 81463.5 3030.43  22
   7  -2   2 77302.2 2724.76   9
   7  -2   2 80704.4 2819.08  16
   7  -2   2 81750.2 3110.70   2
   7  -2   3 3016.56 584.011  22
   7  -2   3 2230.45 453.512   6
   7  -2   3 2636.03 431.533   9
   7  -2   3 2580.67 460.219  16
   7  -2   3 2835.15 520.088  15
   7  -2   4 4611.59 689.034  22
   7  -2   4 4815.83 652.958   6
   7  -2   4 5526.11 603.726   9
   7  -2   4 5060.27 604.359  16
   7  -2   4 5493.38 694.256  15
   7  -2   5 889.707 342.582  22
   7  -2   5 924.606 312.525   6
   7  -2   5 996.649 256.461   9
   7  -2   5 1032.25 301.430  16
   7  -2   5 1112.08 397.769  15
   7  -2   6 40750.7 2000.69  22
   7  -2   6 40352.2 1825.20   6
   7  -2   6 37134.5 1814.25  15
   7  -2   7 4401.89 594.841  22
   7  -2   7 5375.59 580.614   6
   7  -2   7 5233.93 601.391  15
   7  -2   8 3591.91 378.189   6
   7  -2   8 3209.03 432.952  22
   7  -2   8 4195.60 462.480  15
   7  -1 -10 1865.29 273.955  21
   7  -1 -10 2172.25 354.910  20
   7  -1 -10 1784.95 328.740   8
   7  -1  -9 5480.03 602.380  21
   7  -1  -9 4298.33 555.456  20
   7  -1  -9 4071.10 476.339  13
   7  -1  -9 4343.23 572.431  12
   7  -1  -8 22088.5 1361.65  21
   7  -1  -8 23950.6 1226.06  16
   7  -1  -8 22146.8 1187.92  13
   7  -1  -8 22455.6 1355.26  12
   7  -1  -7 28202.6 1635.13  21
   7  -1  -7 28204.1 1455.87  16
   7  -1  -7 25256.0 1297.77  13
   7  -1  -7 26578.0 1516.46  12
   7  -1  -6 18955.7 1361.83  21
   7  -1  -6 20012.7 1248.99  16
   7  -1  -6 18763.0 1075.97  13
   7  -1  -6 18282.5 1249.51  12
   7  -1  -5 33660.5 1860.74  22
   7  -1  -5 32580.1 1785.50  21
   7  -1  -5 31340.7 1625.69  16
   7  -1  -5 31597.2 1357.55   7
   7  -1  -5 31206.7 1364.21  13
   7  -1  -5 33126.6 1652.10  12
   7  -1  -4 57425.8 2218.41  12
   7  -1  -4 57900.1 2488.62  22
   7  -1  -4 56160.4 2419.03  21
   7  -1  -4 56813.1 2464.97   2
   7  -1  -4 61560.5 2332.96  16
   7  -1  -4 52315.3 1829.71  13
   7  -1  -3 23852.5 1267.68  12
   7  -1  -3 23528.4 1441.99  21
   7  -1  -3 25019.5 1506.23  22
   7  -1  -3 22106.9 1450.78   2
   7  -1  -3 22856.5 1191.50   9
   7  -1  -3 23511.5 1340.52  16
   7  -1  -2 28450.2 1584.61  22
   7  -1  -2 29432.4 1576.78  21
   7  -1  -2 28436.6 1622.04   2
   7  -1  -2 24795.8 1381.87  16
   7  -1  -1 20617.8 1378.69   2
  -7  -1   0 49518.1 2159.05   4
   7  -1   0 47534.7 2106.03  22
   7  -1   0 44794.4 2128.96   2
   7  -1   0 48987.8 1999.91  16
   7  -1   1 860.421 336.080  22
   7  -1   1 1279.70 335.453   6
   7  -1   1 1189.35 323.020   9
   7  -1   1 605.122 250.635  16
   7  -1   1 1465.95 448.325   2
   7  -1   2 26781.7 1590.88  22
   7  -1   2 27596.4 1398.51   9
   7  -1   2 29219.3 1487.78   6
   7  -1   2 25131.4 1422.08  16
   7  -1   2 27212.9 1424.33  15
   7  -1   3 24107.1 1559.81  22
   7  -1   3 25570.0 1401.19   6
   7  -1   3 26450.6 1373.21   9
   7  -1   3 28041.3 1510.86  16
   7  -1   3 23903.0 1367.55  15
   7  -1   4 12207.1 969.240   6
   7  -1   4 12056.2 1013.49  10
   7  -1   4 12128.1 919.655   9
   7  -1   4 11404.7 959.859  16
   7  -1   4 11401.0 953.027  15
   7  -1   5 20788.9 1258.40   6
   7  -1   5 20990.0 1419.77  10
   7  -1   5 20465.2 1165.73   9
   7  -1   5 21317.4 1311.08  16
   7  -1   5 22681.0 1348.90  15
   7  -1   6 18343.4 1126.73   6
   7  -1   6 18982.1 1342.26  10
   7  -1   6 19778.3 1050.99   9
   7  -1   6 19394.4 1167.89  16
   7  -1   6 18004.3 1184.71  15
   7  -1   7 2327.18 360.865   6
   7  -1   7 3079.11 405.438  16
   7  -1   7 2142.59 412.651  15
   7  -1   8 22112.8 1252.09  22
   7  -1   8 20311.3 1047.26  15
   7  -1   9 17863.9 901.205  22
   7   0 -11 2107.22 261.813  20
  -7   0  11 1853.68 248.304   6
   7   0 -11 1546.07 234.177   8
   7   0 -10 54.3024 159.166  20
   7   0 -10 55.0791 195.717  21
  -7   0  10 211.920 117.982  15
   7   0 -10 73.8421 160.242   8
   7   0  -9-63.5209 238.299  12
   7   0  -9 205.392 240.975  21
   7   0  -9-150.695 195.958  20
   7   0  -9 59.0654 196.644   8
   7   0  -8 72163.6 2787.70  21
   7   0  -8 72287.6 2609.34  20
   7   0  -8 64492.0 2502.87  12
   7   0  -7 2586.79 455.461  12
   7   0  -7 2355.30 522.724  21
   7   0  -7 2229.95 417.516  13
   7   0  -6 179221. 5280.28  21
   7   0  -6 187676. 4741.36  16
   7   0  -6 175711. 4847.86  12
   7   0  -5 97.5939 218.307  12
   7   0  -5 135.672 239.212  21
   7   0  -5 520.040 305.202  22
   7   0  -5 467.017 191.290  16
   7   0  -5 101.583 128.670  13
   7   0  -4 19914.1 1371.73  21
   7   0  -4 21716.1 1334.21   2
   7   0  -4 20585.3 1408.80  22
   7   0  -4 22402.2 1255.51  16
  -7   0   4 20871.3 1434.02   4
   7   0  -3 11418.4 1002.07  22
   7   0  -3 10949.3 947.648  21
   7   0  -3 9427.66 867.551   2
  -7   0   3 10017.6 998.924   4
   7   0  -2 44439.5 1978.81   2
  -7   0   2 43759.2 2141.11   4
  -7   0   1-83.2791 248.189   4
   7   0  -1-498.042 236.559   2
  -7   0   0 14130.0 1153.37   4
   7   0   0 15180.8 1067.89   2
   7   0   1 119532. 3774.01  22
   7   0   1 122877. 3388.28   9
   7   0   1 117243. 3545.63  16
   7   0   1 108815. 3652.49   2
   7   0   2 21218.4 1382.08  22
   7   0   2 21513.9 1169.15   9
   7   0   2 18050.0 1189.86  16
   7   0   3 188240. 4860.21  11
   7   0   3 208243. 5741.07  22
   7   0   3 201082. 5354.52  10
   7   0   3 199789. 5444.93  16
   7   0   4 128603. 3687.11  11
   7   0   4 132770. 4159.22  10
   7   0   4 141781. 3924.35   9
   7   0   4 135996. 4139.52  16
   7   0   4 141105. 3902.50  15
   7   0   5 73098.0 2918.06  10
   7   0   5 76923.0 2597.89   9
   7   0   5 78273.1 2878.21  16
   7   0   5 80187.7 2671.41  15
   7   0   6 2377.88 528.971  10
   7   0   6 3207.28 429.862   9
   7   0   6 2764.54 503.697  16
   7   0   6 2577.11 439.946  15
   7   0   7 850.485 362.556  10
   7   0   7 1097.80 239.235   9
   7   0   7 742.022 262.662  16
   7   0   7 995.096 263.409  15
   7   0   8 20498.1 1248.99  10
   7   0   8 22747.8 1065.56  16
   7   0   8 20939.4 972.565  15
   7   0   9 11323.8 716.349  22
   7   1 -10 1752.60 350.379  21
   7   1 -10 2015.91 327.989  20
  -7   1  10 1973.60 293.792  15
   7   1 -10 1664.86 306.748   8
   7   1  -9 4264.65 602.426  21
   7   1  -9 4060.93 536.094  20
   7   1  -9 4443.83 562.951   8
   7   1  -8 21880.1 1452.77  21
   7   1  -8 25507.3 1383.21  20
   7   1  -8 23516.6 1367.41   8
   7   1  -7 29855.1 1743.36  21
   7   1  -7 29499.1 1510.23  20
   7   1  -7 29101.2 1556.87   8
   7   1  -7 28137.7 1439.34  12
   7   1  -6 19268.2 1427.33  21
   7   1  -6 20236.0 1237.39   8
   7   1  -5 31793.4 1808.67  21
   7   1  -4 59340.8 2481.99  22
   7   1  -4 61588.9 2537.75  21
  -7   1   4 53582.0 2617.19   4
   7   1  -3 23465.7 1438.31  22
   7   1  -3 23316.2 1431.71  21
  -7   1   3 23427.2 1612.21   4
  -7   1   2 26608.3 1708.52   4
  -7   1   1 21174.7 1501.44   4
  -7   1   0 41343.0 2176.74   4
  -7   1  -1 2120.72 536.063   4
   7   1   1 1884.90 440.339  22
   7   1   1 574.154 219.073   9
   7   1   1 919.766 306.368  16
   7   1   2 27784.3 1568.39  22
   7   1   2 26314.8 1346.64  10
   7   1   2 27346.5 1342.06   9
   7   1   2 27510.1 1465.75  16
   7   1   3 23328.0 1484.09  22
   7   1   3 24063.3 1361.96  10
   7   1   3 26538.9 1340.16   9
   7   1   3 24689.5 1424.06  16
   7   1   4 12630.6 837.424  11
   7   1   4 11078.2 1018.48  22
   7   1   4 10171.7 937.505  10
   7   1   4 12166.0 896.053   9
   7   1   4 11511.7 976.490  16
   7   1   5 20777.7 1140.36  11
   7   1   5 19849.6 1372.19  10
   7   1   5 22747.6 1245.93   9
   7   1   5 19799.5 1317.23  16
   7   1   6 18647.5 1080.61  11
   7   1   6 17741.3 1295.02  10
   7   1   6 19528.1 1096.38   9
   7   1   6 17795.8 1220.90  16
   7   1   7 1997.70 445.813  10
   7   1   7 1941.96 316.527   9
   7   1   7 2078.15 404.777  16
   7   1   8 20606.5 1127.12  22
   7   1   8 20414.9 828.446   9
   7   1   8 19100.6 1185.58  10
   7   1   8 20912.8 1071.06  16
   7   1   9 14854.6 715.517  22
   7   1   9 15911.9 697.297  16
   7   2 -10 6900.98 605.145  21
  -7   2  10 7757.54 564.304  15
   7   2 -10 6889.27 550.157   8
   7   2  -9 316.059 271.369  21
   7   2  -9 194.713 213.740   8
   7   2  -8 35078.2 1818.92  21
   7   2  -8 37439.6 1733.87   8
   7   2  -7 21270.8 1436.35  21
   7   2  -7 21404.0 1220.66  20
  -7   2   7 23190.7 1341.72  17
   7   2  -7 22377.8 1341.99   8
   7   2  -6 26357.3 1633.03  21
  -7   2   6 29279.6 1670.54  17
   7   2  -6 26802.0 1469.63   8
   7   2  -5 41576.7 2053.38  21
   7   2  -5 42384.6 1831.73   8
   7   2  -4 56434.3 2393.28  21
   7   2  -3 33417.3 1690.67  21
  -7   2   3 33935.4 2038.82   4
  -7   2   2 2096.95 523.090   4
  -7   2   1 6069.36 888.330   4
  -7   2   0 82233.7 3383.00   4
   7   2   0 88266.4 2586.36  10
   7   2   0 82546.3 2535.09   9
   7   2   0 85863.1 2743.16  16
  -7   2  -1 18099.7 1455.18   4
   7   2   1 18988.2 1063.10  10
   7   2   1 19591.9 1062.28   9
   7   2   1 17460.0 1107.42  16
  -7   2  -2 82679.0 3394.27   4
   7   2   2 79022.0 2675.55  10
   7   2   2 78217.2 2581.50   9
   7   2   2 80702.3 2788.88  16
   7   2   3 2492.58 436.814  10
   7   2   3 2620.37 426.749   9
   7   2   3 2536.09 461.505  16
   7   2   4 5385.25 532.045  11
   7   2   4 4748.41 596.282  22
   7   2   4 4320.24 608.707  10
   7   2   4 5162.75 627.068   9
   7   2   4 4623.71 623.699  16
   7   2   5 1217.22 364.738  22
   7   2   5 1411.01 336.388  11
   7   2   5 864.576 350.077  10
   7   2   5 1078.00 328.597   9
   7   2   5 1314.29 428.135  16
   7   2   6 35734.0 1528.82  11
   7   2   6 42479.8 1811.12  22
   7   2   6 37485.0 1880.16  10
   7   2   6 41170.6 1661.24   9
   7   2   6 37770.1 1808.32  16
   7   2   7 4448.67 485.456  11
   7   2   7 4996.77 489.534   9
   7   2   7 4892.66 639.671  10
   7   2   7 4531.70 562.991  16
   7   2   8 3456.34 472.547  10
   7   2   8 4040.76 342.426   9
   7   2   8 3577.63 430.399  16
   7   3  -9 5355.02 545.135  21
   7   3  -9 5351.30 514.125   8
   7   3  -8 33935.1 1618.93  21
  -7   3   8 38370.4 1552.18  17
   7   3  -8 35554.1 1593.73   8
   7   3  -7 4984.66 644.238  21
  -7   3   7 4282.74 598.420  17
   7   3  -7 4308.35 568.322   8
   7   3  -6 26423.9 1514.70  21
  -7   3   6 27767.7 1667.40  17
   7   3  -6 28125.4 1489.05   8
   7   3  -5 19852.6 1263.34  21
  -7   3   5 17583.0 1279.00  18
   7   3  -5 19210.3 1183.03   8
  -7   3   4 9740.59 1009.49  18
  -7   3   3 584.730 305.976  14
   7   3  -2 14286.6 855.198  10
   7   3  -1 69940.7 2279.92  10
   7   3   0 135809. 3717.19  10
   7   3   0 132602. 3532.22   9
   7   3   1 2013.84 367.098  10
   7   3   1 2272.87 347.373   9
   7   3   2 32417.9 1560.41  10
   7   3   2 30005.2 1419.90   9
   7   3   2 29057.6 1479.48  16
   7   3   3 59048.5 2316.91  10
   7   3   3 56724.9 2130.44   9
   7   3   3 58847.8 2286.65  16
   7   3   4 15452.5 871.326  11
   7   3   4 13766.7 1061.55  10
   7   3   4 14593.9 980.968   9
   7   3   4 15237.2 1077.43  16
   7   3   5 11611.3 755.856  11
   7   3   5 9458.79 883.633  10
   7   3   5 11328.3 839.071   9
   7   3   5 10419.3 879.456  16
   7   3   6 6079.80 537.652  11
   7   3   6 4767.67 607.979  10
   7   3   6 5757.20 562.248   9
   7   3   6 4612.32 564.602  16
   7   3   7 14412.6 769.262  11
   7   3   7 14242.9 966.047  10
   7   3   7 14962.3 793.300   9
   7   3   7 15727.7 935.877  16
   7   3   8 20507.6 965.158  10
   7   3   8 20790.8 757.164   9
   7   3   8 20926.6 916.204  16
  -7   4   8 5220.66 470.558  17
   7   4  -8 5453.93 497.742   8
  -7   4   7 32854.7 1586.91  17
   7   4  -7 35433.1 1501.84   8
  -7   4   6 9227.31 776.188  18
  -7   4   6 8856.01 886.078  17
   7   4  -6 10657.2 822.297   8
  -7   4   5 31306.5 1702.18  18
  -7   4   5 30971.1 1827.54  17
   7   4  -5 32158.9 1515.28   8
   7   4  -4 1319.66 244.780  10
  -7   4   4 327.373 320.503  18
  -7   4   4 629.274 266.242  14
   7   4  -3 55017.0 1911.43  10
  -7   4   3 53296.4 2617.87  18
  -7   4   3 53972.0 2448.52  14
   7   4  -2 2218.57 365.082  10
  -7   4   2 2040.00 622.155  18
  -7   4   2 1484.28 502.559  14
   7   4  -1 32570.4 1461.69  10
  -7   4   1 29246.4 1905.55  14
   7   4   0 80696.1 2657.03  10
   7   4   1 62649.9 2297.16  10
   7   4   1 63161.2 2084.00   9
   7   4   2 3662.53 530.637  10
   7   4   2 3594.30 458.854   9
   7   4   3 11184.5 901.612  10
   7   4   3 12487.1 851.126   9
   7   4   4 11559.7 689.138  11
   7   4   4 11649.3 922.990  10
   7   4   4 12091.0 832.567   9
   7   4   4 11343.9 813.154  16
   7   4   5 13008.5 725.506  11
   7   4   5 13018.1 946.183  10
   7   4   5 14811.9 875.503   9
   7   4   5 13070.3 848.975  16
   7   4   6 1933.19 272.814  11
   7   4   6 1610.02 319.741  10
   7   4   6 1726.65 290.655   9
   7   4   6 1908.67 319.927  16
  -7   4  -6 1274.60 296.030  14
   7   4   7 12728.8 579.440  11
   7   4   7 12224.8 713.852  10
   7   4   7 13227.3 627.799   9
   7   4   7 13183.2 655.248  16
  -7   5   7 1717.61 297.314  17
   7   5  -7 1561.15 226.239   8
  -7   5   6 5486.00 502.061  18
  -7   5   6 5496.66 595.373  17
   7   5  -6 5314.05 465.774   8
   7   5  -5 4734.39 388.825  10
  -7   5   5 5433.86 617.687  18
  -7   5   5 5101.21 649.612  17
   7   5  -5 4868.28 477.004   8
  -7   5   5 4844.22 482.667  14
   7   5  -4 1876.82 291.445  10
  -7   5   4 2329.95 500.238  18
  -7   5   4 1909.18 436.957  17
   7   5  -4 2248.81 328.129   8
  -7   5   4 2588.87 431.659  14
   7   5  -3 854.595 269.611  10
  -7   5   3 1429.96 475.119  18
  -7   5   3 1052.76 415.226  17
  -7   5   3 1313.66 405.951  14
   7   5  -2 8142.49 653.358  10
  -7   5   2 6560.58 854.341  18
  -7   5   2 7241.06 858.847  14
   7   5  -1 2655.83 406.012  10
  -7   5   1 3326.43 648.890  18
  -7   5   1 2835.51 605.699  14
   7   5   0 10474.3 785.708  10
  -7   5   0 9143.78 1006.43  18
  -7   5   0 8491.12 968.211  14
   7   5   1 43038.9 1718.10  10
  -7   5  -1 40164.6 2144.88  14
   7   5   2 3017.98 457.076  10
  -7   5  -2 2168.99 491.752  18
   7   5   2 3096.01 364.451   9
  -7   5  -2 2927.44 614.168  14
   7   5   3 1749.36 352.089  10
  -7   5  -3 2146.44 397.980  18
   7   5   3 2054.76 309.258   9
  -7   5  -3 972.397 329.225  14
   7   5   4 1686.94 333.062  10
   7   5   4 2112.37 303.852   9
  -7   5  -4 1301.35 308.944  14
   7   5   5 5358.28 339.172  11
   7   5   5 6458.38 534.603  10
   7   5   5 5557.47 430.322   9
  -7   6   5 10671.1 601.032  18
  -7   6   5 9762.25 618.799  17
   7   6  -4 15060.8 652.442  10
  -7   6   4 15171.9 878.760  18
  -7   6   4 14277.2 849.583  17
  -7   6   4 15545.8 789.259  14
   7   6  -3 45264.4 1432.86  10
  -7   6   3 45718.4 1800.45  18
  -7   6   3 43562.0 1704.65  17
  -7   6   3 42662.4 1655.30  14
   7   6  -2 21220.7 943.906  10
  -7   6   2 20069.7 1182.77  18
  -7   6   2 18771.2 1067.01  17
  -7   6   2 20977.9 1168.26  14
   7   6  -1 1147.47 242.726  10
  -7   6   1 1337.37 350.150  18
  -7   6   1 1319.17 276.467  17
  -7   6   1 507.119 259.377  14
   7   6   0 6680.38 541.335  10
  -7   6   0 6557.79 650.750  18
  -7   6   0 6423.27 533.380  17
  -7   6   0 6348.55 682.398  14
   7   6   1 9016.88 623.818  10
  -7   6  -1 7000.69 592.347  18
  -7   6  -1 8998.62 765.872  14
   7   6   2 2533.79 329.619  10
  -7   6  -2 2529.83 381.672  14
   7   6   3 17811.6 812.875  10
  -7   6  -3 15043.5 769.499  14
   8  -6  -2 3716.85 304.538  12
   8  -6  -1 5208.12 381.833  12
   8  -6  -1 5766.55 379.034  19
   8  -6   0 15285.1 686.644  12
   8  -6   0 15106.3 628.427  19
   8  -5  -6 23858.4 791.967   7
   8  -5  -6 27814.8 956.351  12
   8  -5  -5 2121.61 226.307   7
   8  -5  -5 2621.67 214.924  13
   8  -5  -5 2816.91 341.707  12
   8  -5  -4 7731.91 599.749  12
   8  -5  -4 6694.45 489.398  16
   8  -5  -4 7788.28 452.486   7
   8  -5  -3 28017.3 1258.78  12
   8  -5  -3 27873.1 1162.86  19
   8  -5  -3 26109.5 1060.74  16
   8  -5  -3 27459.2 957.485   7
   8  -5  -2 4037.92 481.560  12
   8  -5  -2 4374.48 444.140  19
   8  -5  -2 5006.30 538.331   9
   8  -5  -1 10768.1 788.454  12
   8  -5  -1 10114.6 675.391  19
   8  -5  -1 10822.1 798.505   9
   8  -5   0 5412.78 481.708  19
   8  -5   0 5438.69 541.473   9
   8  -5   1 2740.93 359.725  21
   8  -5   1 2595.90 315.795  19
   8  -5   1 2886.89 367.376   9
   8  -5   2 380.709 180.923  21
   8  -5   2 567.552 146.731  19
   8  -5   2 286.271 113.458   9
   8  -5   3 12454.2 698.705  21
   8  -5   3 12981.9 554.936  19
   8  -5   4 2264.18 259.209  21
   8  -4  -7 10273.2 534.173  13
   8  -4  -7 10243.6 656.783  12
   8  -4  -6 3883.05 457.121  16
   8  -4  -6 3814.66 366.110   7
   8  -4  -6 4555.75 377.267  13
   8  -4  -6 3879.62 458.833  12
   8  -4  -5 14893.3 945.341  16
   8  -4  -5 14062.7 747.689   7
   8  -4  -5 14269.7 701.507  13
   8  -4  -5 14913.2 960.261  12
   8  -4  -4 54742.7 2096.51  12
   8  -4  -4 55936.9 2107.26   9
   8  -4  -4 53381.7 2038.73  16
   8  -4  -4 53273.1 1694.01   7
   8  -4  -3 37198.7 1685.84  12
   8  -4  -3 33294.0 1493.01  21
   8  -4  -3 34921.6 1492.03  19
   8  -4  -3 37346.6 1716.99   9
   8  -4  -3 34398.0 1577.23  16
   8  -4  -2 14117.7 1010.82  12
   8  -4  -2 13952.6 960.854  21
   8  -4  -2 13808.9 884.885  19
   8  -4  -2 16201.8 1104.33   9
   8  -4  -2 13173.7 935.601  16
   8  -4  -1 5240.09 612.544  21
   8  -4  -1 5084.36 533.558  19
   8  -4  -1 4549.32 610.805   9
   8  -4  -1 4506.27 524.295  16
   8  -4   0 27262.8 1468.31  21
   8  -4   0 28039.5 1259.44  19
   8  -4   0 29075.6 1509.77   9
   8  -4   0 26087.3 1283.02  16
   8  -4   1 70562.9 2606.41   6
   8  -4   1 71271.4 2608.85  21
   8  -4   1 73101.3 2209.33  19
   8  -4   1 66623.0 2455.88   9
   8  -4   2 8154.12 788.304   6
   8  -4   2 8976.00 598.313  19
   8  -4   2 9342.18 749.365   9
   8  -4   3 16026.4 1058.53   6
   8  -4   3 16533.9 893.234   9
   8  -4   4 1262.19 317.248   6
   8  -4   5 147.797 178.631   6
   8  -3  -9 1183.66 189.655  20
   8  -3  -8 433.654 178.590  12
   8  -3  -8 172.966 111.889  13
   8  -3  -7 449.399 244.123  12
   8  -3  -7 434.045 229.031  16
   8  -3  -7 660.212 184.183  13
   8  -3  -6 937.486 232.808   7
   8  -3  -6 1576.67 385.609  12
   8  -3  -6 1140.64 244.969  21
   8  -3  -6 1551.68 399.624  16
   8  -3  -6 1093.19 246.511  13
   8  -3  -5 2031.19 434.368  12
   8  -3  -5 2392.73 410.743  21
   8  -3  -5 2219.23 384.391   9
   8  -3  -5 2609.60 500.533  16
   8  -3  -5 2872.46 364.430   7
   8  -3  -5 2847.80 346.049  13
   8  -3  -4 37320.4 1785.36  12
   8  -3  -4 37099.6 1775.24  21
   8  -3  -4 40862.5 1805.86   9
   8  -3  -4 40421.6 1877.80  16
   8  -3  -3 13220.3 1003.42  12
   8  -3  -3 11947.4 986.922  22
   8  -3  -3 13721.2 1055.88  21
   8  -3  -3 13265.4 905.266  19
   8  -3  -3 13491.7 1028.52   9
   8  -3  -3 12931.5 1030.50  16
   8  -3  -2 11580.1 970.642  22
   8  -3  -2 11941.8 1008.02  21
   8  -3  -2 12611.5 850.000  19
   8  -3  -2 12999.1 1030.57   9
   8  -3  -1 62028.8 2506.90  22
   8  -3  -1 65967.4 2611.38  21
   8  -3  -1 63827.7 2149.58  19
   8  -3  -1 61354.2 2472.58   9
   8  -3  -1 61557.9 2447.23  16
   8  -3   0 12431.2 1034.37   6
   8  -3   0 9581.33 866.527  21
   8  -3   0 11860.7 1013.99  22
   8  -3   0 13855.5 838.934  19
   8  -3   0 13385.9 1054.28   9
   8  -3   0 13064.8 1007.74  16
   8  -3   1 41187.1 1992.60   6
   8  -3   1 45642.1 2074.87  22
   8  -3   1 42403.0 1953.27   9
   8  -3   1 45563.6 1950.05  16
   8  -3   2 23479.4 1421.29   6
   8  -3   2 23682.2 1357.63   9
   8  -3   2 24255.4 1442.48  22
   8  -3   2 22084.6 1245.49  16
   8  -3   3 683.569 293.415  22
   8  -3   3 951.928 340.065   6
   8  -3   3 743.018 237.690   9
   8  -3   3 200.578 150.996  16
   8  -3   4 18458.6 1167.38   6
   8  -3   4 19100.4 1017.55   9
   8  -3   4 18735.6 1196.52  22
   8  -3   5 1038.45 280.097  22
   8  -3   5 1491.04 334.874   6
   8  -3   6 291.615 157.853  22
   8  -3   6 215.461 193.119   6
   8  -3   7 13298.1 635.256   6
   8  -2  -9 1608.01 289.437  12
   8  -2  -9 1459.39 253.151  20
   8  -2  -9 968.763 190.610   8
   8  -2  -8 6698.28 560.107  21
   8  -2  -8 6875.24 582.799  16
   8  -2  -8 6120.86 503.426  13
   8  -2  -8 6860.63 650.090  12
   8  -2  -7 24287.4 1284.05  21
   8  -2  -7 23815.1 1262.98  16
   8  -2  -7 21923.3 1073.36  13
   8  -2  -7 22503.9 1296.12  12
   8  -2  -6 2420.04 466.752  12
   8  -2  -6 3217.00 495.941  21
   8  -2  -6 2464.46 461.452  16
   8  -2  -6 2603.42 361.135  13
   8  -2  -5 18540.7 1229.36  12
   8  -2  -5 22020.1 1171.86   9
   8  -2  -5 19457.6 1277.57  16
   8  -2  -5 19648.9 1316.79  21
   8  -2  -5 18700.4 969.968  13
   8  -2  -4 30719.9 1581.76  12
   8  -2  -4 24678.0 1576.84  22
   8  -2  -4 25750.7 1573.22  21
   8  -2  -4 30124.6 1485.68   9
   8  -2  -4 29479.9 1620.19  16
   8  -2  -3 17379.7 1146.68  12
   8  -2  -3 17711.4 1303.88  22
   8  -2  -3 14709.1 1180.05  21
   8  -2  -3 17035.8 1143.67   9
   8  -2  -3 17135.6 1221.48  16
   8  -2  -2 3595.50 596.886  22
   8  -2  -2 4045.98 653.867  21
   8  -2  -2 3621.03 436.278  19
   8  -2  -2 3553.86 532.315   9
   8  -2  -2 3640.31 581.593  16
   8  -2  -1 58678.6 2520.68  22
   8  -2  -1 60571.4 2544.61  21
   8  -2  -1 55390.6 2277.84   9
   8  -2  -1 56154.5 2366.46  16
   8  -2   0 52675.6 2271.50   6
   8  -2   0 53917.3 2410.80  22
   8  -2   0 52673.2 2225.13   9
   8  -2   0 54274.5 2292.24  16
   8  -2   1 59291.4 2440.38   6
   8  -2   1 59608.7 2399.27   9
   8  -2   1 61347.3 2624.84  22
   8  -2   1 63938.2 2503.42  16
   8  -2   2 29326.0 1593.43   6
   8  -2   2 28918.9 1715.62  22
   8  -2   2 27720.0 1522.52   9
   8  -2   2 27771.1 1550.05  16
   8  -2   3 44645.6 2186.88  22
   8  -2   3 48798.8 2030.09   9
   8  -2   3 49008.0 2051.03  16
   8  -2   3 43209.3 2000.33   6
   8  -2   4 6558.79 701.270   6
   8  -2   4 6622.40 790.802  22
   8  -2   4 5976.86 617.102   9
   8  -2   4 7185.40 702.267  16
   8  -2   5 12523.6 922.574   6
   8  -2   5 15382.8 1137.75  22
   8  -2   5 15680.9 907.982   9
   8  -2   5 15743.6 924.573  16
   8  -2   6 1956.35 421.930  22
   8  -2   6 1944.38 329.817   6
   8  -2   7 18011.1 820.749   6
   8  -2   7 18372.6 998.777  22
   8  -1 -10 683.043 151.670  20
  -8  -1  10 769.964 153.701   6
   8  -1 -10 831.444 166.945   8
   8  -1  -9 10805.5 720.638  21
   8  -1  -9 12031.7 737.659  20
   8  -1  -9 11271.7 698.051   8
   8  -1  -9 10105.0 710.971  12
   8  -1  -8 289.378 233.606  12
   8  -1  -8 378.293 244.720  21
   8  -1  -8 269.434 153.321  20
   8  -1  -8 612.218 181.004  16
   8  -1  -8 407.289 167.808  13
   8  -1  -7 29698.3 1619.58  21
   8  -1  -7 31633.0 1456.11  16
   8  -1  -7 28740.3 1315.85  13
   8  -1  -7 29790.1 1522.35  12
   8  -1  -6 85063.7 3153.37  21
   8  -1  -6 87560.1 2909.44  16
   8  -1  -6 80269.1 2574.32  13
   8  -1  -6 90379.7 2986.86  12
   8  -1  -5 9030.43 940.520  21
   8  -1  -5 9106.63 839.272  16
   8  -1  -5 7487.37 613.843  13
   8  -1  -5 8592.67 814.387  12
   8  -1  -4 29317.5 1501.39  12
   8  -1  -4 27230.2 1692.30  21
   8  -1  -4 29687.8 1395.01   9
   8  -1  -4 24484.7 1461.03  16
   8  -1  -4 27330.0 1702.20  22
   8  -1  -3 1850.18 390.699  12
   8  -1  -3 1723.86 456.374  22
   8  -1  -3 1336.89 391.026  21
   8  -1  -3 1821.26 383.223   9
   8  -1  -3 1847.29 436.027  16
   8  -1  -2 3971.17 514.600  12
   8  -1  -2 3050.14 558.490  22
   8  -1  -2 2250.35 518.903  21
   8  -1  -2 3821.79 518.807   9
   8  -1  -2 2888.01 503.563  16
   8  -1  -1 966.091 337.584  22
   8  -1  -1 608.912 346.937  21
   8  -1  -1 599.250 213.908   9
   8  -1  -1 899.625 315.001  16
   8  -1   0 62164.2 2607.70  21
   8  -1   0 60975.6 2334.76   9
   8  -1   0 59374.2 2423.52  16
   8  -1   0 60297.0 2604.06  22
   8  -1   1 22945.5 1358.43   6
   8  -1   1 23417.7 1558.70  22
   8  -1   1 24328.8 1381.28   9
   8  -1   1 24009.8 1442.91  16
   8  -1   2 37656.0 1780.54   6
   8  -1   2 37826.1 2024.73  22
   8  -1   2 40207.3 1840.88   9
   8  -1   2 40289.0 1934.94  16
   8  -1   3 8428.46 776.383   6
   8  -1   3 7600.55 891.856  22
   8  -1   3 8058.99 764.459   9
   8  -1   3 8681.82 855.618  16
   8  -1   4 8758.23 770.716   6
   8  -1   4 6694.34 829.981  22
   8  -1   4 8303.93 756.834   9
   8  -1   4 7564.59 790.244  16
   8  -1   5 5601.17 579.237   6
   8  -1   5 5129.58 718.540  22
   8  -1   5 4599.41 605.021  10
   8  -1   5 5130.98 563.921   9
   8  -1   5 5631.79 646.491  16
   8  -1   6 12843.3 1038.16  22
   8  -1   6 12668.8 766.386   9
   8  -1   6 14602.4 899.246  16
   8  -1   7 5009.93 583.027  22
   8  -1   7 5176.83 423.185  16
   8  -1   8 11898.8 707.339  22
   8   0 -10 2829.90 321.195  21
   8   0 -10 2920.10 285.187  20
   8   0 -10 3420.07 323.084   8
   8   0  -9-1.56522 193.091  21
   8   0  -9-19.9006 142.363  20
   8   0  -9 170.579 144.975   8
   8   0  -8-66.3534 169.710  12
   8   0  -8 287.565 277.403  21
   8   0  -8 90.2165 168.744  20
   8   0  -8 450.720 221.107   8
   8   0  -7 110081. 3769.71  21
   8   0  -7 118671. 3377.15  20
   8   0  -7 122582. 3446.18   8
   8   0  -7 112762. 3448.60  12
   8   0  -6 25672.1 1598.33  21
   8   0  -6 23717.4 1255.95  16
   8   0  -6 23019.1 1296.22  12
   8   0  -5 13318.4 1177.42  21
   8   0  -5 12292.7 931.127  16
   8   0  -5 13969.1 961.101  12
   8   0  -4 71918.2 2951.98  22
   8   0  -4 73474.6 2959.13  21
   8   0  -4 68923.2 2572.77  16
   8   0  -3 8996.64 959.406  22
   8   0  -3 8151.17 908.744  21
   8   0  -3 9669.46 856.356  16
   8   0  -2 132.241 233.396  22
   8   0  -2 139.431 220.286  21
   8   0  -2 491.619 214.998   9
   8   0  -2 63.5551 213.103  16
  -8   0   1 453.329 273.996   4
   8   0  -1 404.661 274.375  22
   8   0  -1 750.826 332.516  21
   8   0  -1 1107.54 301.654   9
   8   0  -1 735.713 314.016  16
   8   0  -1 365.686 231.381   2
   8   0   0 186743. 5452.90  22
   8   0   0 197302. 5419.04  21
   8   0   0 186075. 4933.21   9
   8   0   0 192665. 5204.88  16
   8   0   0 181282. 5209.81   2
   8   0   1 1791.47 428.457  22
   8   0   1 2216.57 491.272  21
   8   0   1 2451.45 459.939   9
   8   0   1 2267.20 460.898  16
   8   0   2 17453.5 1316.75  22
   8   0   2 15214.4 1058.98   9
   8   0   2 15964.3 1164.99  16
   8   0   3 8148.74 906.735  22
   8   0   3 7707.04 738.824  10
   8   0   3 8738.14 797.728   9
   8   0   3 7575.83 818.309  16
   8   0   4 26599.2 1639.25  22
   8   0   4 24609.6 1455.22  10
   8   0   4 24199.2 1339.52   9
   8   0   4 25991.2 1506.85  16
   8   0   5 6135.95 773.034  22
   8   0   5 4687.68 633.838  10
   8   0   5 5969.04 617.648   9
   8   0   5 5081.21 662.733  16
   8   0   6 1525.72 428.115  22
   8   0   6 1322.88 357.178  10
   8   0   6 1245.94 279.219   9
   8   0   6 1354.10 386.996  16
   8   0   7 10430.5 834.294  22
   8   0   7 8855.76 772.643  10
   8   0   7 10481.7 590.537   9
   8   0   7 9407.72 681.962  16
   8   0   8 24451.1 1068.60  22
   8   0   8 23136.7 840.184  16
   8   1 -10 737.213 196.268  21
   8   1 -10 387.038 140.352   8
   8   1  -9 11541.2 835.159  21
  -8   1   9 11509.0 679.598  15
   8   1  -9 11741.4 736.291   8
   8   1  -8 428.431 343.323  21
   8   1  -8 401.236 157.570  20
   8   1  -8 468.755 210.554   8
   8   1  -7 32302.3 1768.35  21
   8   1  -7 34068.8 1517.58   8
   8   1  -6 90018.4 3317.53  21
   8   1  -5 9525.17 968.087  21
   8   1  -4 25430.3 1617.22  21
   8   1  -4 27984.0 1683.76  22
   8   1  -3 1532.29 404.391  22
   8   1  -3 942.914 351.729  21
   8   1  -3 1820.39 394.907  16
   8   1  -2 3447.08 585.671  22
   8   1  -2 3368.48 591.493  21
   8   1  -2 2700.42 458.258  16
   8   1  -1 694.373 320.106  22
   8   1  -1 1107.64 340.212  21
   8   1  -1 684.295 236.886   9
   8   1  -1 578.360 244.160  16
   8   1   0 60721.0 2553.17  22
   8   1   0 59540.1 2395.78  21
   8   1   0 58449.7 2130.28   9
   8   1   0 58086.5 2308.74  16
   8   1   1 25419.5 1435.82  21
   8   1   1 25308.0 1316.53   9
   8   1   1 23648.3 1393.54  16
   8   1   1 24438.7 1537.31  22
   8   1   2 39314.3 2000.86  22
   8   1   2 38066.6 1726.85  10
   8   1   2 40101.4 1748.82   9
   8   1   2 39652.5 1887.47  16
   8   1   3 7711.79 839.217  22
   8   1   3 8555.14 801.385  10
   8   1   3 8629.97 774.903   9
   8   1   3 7489.49 808.974  16
   8   1   4 7963.29 883.452  22
   8   1   4 6507.55 750.967  10
   8   1   4 8558.29 766.062   9
   8   1   4 9682.93 903.226  16
   8   1   5 5607.43 708.393  22
   8   1   5 5250.34 663.064  10
   8   1   5 6095.67 629.463   9
   8   1   5 6080.95 710.719  16
   8   1   6 13159.5 981.903  22
   8   1   6 10336.4 906.237  10
   8   1   6 12457.1 798.314   9
   8   1   6 13614.1 965.440  16
   8   1   7 4830.29 516.278  22
   8   1   7 4933.38 571.781  10
   8   1   7 5592.24 446.959   9
   8   1   7 5461.42 546.507  16
   8   1   8 9193.92 520.899  22
   8   1   8 10062.3 554.341  16
   8   2  -9 1633.17 322.863  21
  -8   2   9 1871.52 290.351  15
   8   2  -9 1187.13 221.926   8
   8   2  -8 7471.66 723.334  21
   8   2  -8 6974.86 603.939   8
   8   2  -7 22935.2 1395.16  21
   8   2  -7 22979.1 1182.24   8
   8   2  -6 2719.76 532.392  21
  -8   2   6 2625.53 448.306  17
   8   2  -5 19494.3 1347.30  21
   8   2  -4 30651.6 1681.47  21
   8   2  -3 19681.8 1277.15  22
   8   2  -3 15663.0 1159.85  21
   8   2  -2 3925.10 568.015  22
   8   2  -2 3975.17 589.334  21
   8   2  -1 58951.4 2372.10  22
   8   2  -1 57039.6 1959.93   9
   8   2  -1 55949.8 2142.83  16
   8   2   0 52455.6 1911.89   9
   8   2   0 51005.3 2067.41  16
   8   2   1 60929.3 2189.40  10
   8   2   1 56370.2 2102.55   9
   8   2   1 59108.0 2295.61  16
   8   2   2 30800.3 1601.38  22
   8   2   2 26468.2 1417.57  10
   8   2   2 28178.0 1407.63   9
   8   2   2 28507.5 1531.88  16
   8   2   3 48122.4 2045.89  22
   8   2   3 42387.3 1941.35  10
   8   2   3 45336.6 1865.68   9
   8   2   3 45486.9 2013.80  16
   8   2   4 6395.75 532.082  11
   8   2   4 6456.63 683.782  22
   8   2   4 6109.90 709.572  10
   8   2   4 7292.13 680.936   9
   8   2   4 6929.69 751.370  16
   8   2   5 14469.0 812.395  11
   8   2   5 13999.7 1046.20  10
   8   2   5 15447.5 960.689   9
   8   2   5 15938.5 1078.00  16
   8   2   6 2281.39 413.328  10
   8   2   6 1890.93 318.598   9
   8   2   6 2212.64 398.258  16
   8   2   7 16790.1 980.951  10
   8   2   7 17365.9 788.998   9
   8   2   7 18264.1 945.690  16
  -8   3   9 811.850 168.821  15
   8   3  -9 1036.37 158.694   8
   8   3  -8 136.050 169.764  21
   8   3  -8 545.026 179.687   8
   8   3  -7 341.931 186.065  21
  -8   3   7 496.124 221.217  17
   8   3  -7 630.757 212.433   8
   8   3  -6 776.573 257.537  21
  -8   3   6 1128.89 356.720  17
   8   3  -6 1099.35 255.331   8
   8   3  -5 2575.10 454.178  21
  -8   3   5 1934.01 423.324  18
  -8   3   5 2241.23 532.799  17
  -8   3   4 38103.0 1988.89  18
  -8   3   3 13167.6 1059.00  14
  -8   3   2 12264.1 1116.31  14
   8   3  -1 65055.6 2151.07  10
   8   3   0 13663.6 895.097  10
   8   3   0 13145.2 816.568   9
   8   3   1 40989.8 1756.65  10
   8   3   1 41698.7 1667.45   9
   8   3   1 45525.8 1805.08  16
   8   3   2 20979.5 1242.13  10
   8   3   2 21785.0 1166.51   9
   8   3   2 24839.6 1299.34  16
   8   3   3 504.866 247.821  10
   8   3   3 699.248 258.199   9
   8   3   3 758.054 249.374  16
   8   3   4 17005.6 1116.45  10
   8   3   4 19412.1 1062.25   9
   8   3   4 18266.9 1108.83  16
   8   3   5 1216.61 214.539  11
   8   3   5 1334.42 331.889  10
   8   3   5 1060.37 283.631   9
   8   3   5 1076.33 278.514  16
   8   3   6 387.878 220.961  10
   8   3   6 65.3507 142.464   9
   8   3   6 282.052 187.905  16
   8   3   7 11685.3 688.938  10
   8   3   7 12770.4 576.308   9
   8   3   7 12863.7 649.426  16
  -8   4   7 10742.8 692.653  17
   8   4  -7 10385.3 557.402   8
  -8   4   6 4193.92 414.788  18
  -8   4   6 3900.79 531.823  17
  -8   4   5 13552.1 958.743  18
  -8   4   5 13802.1 1080.32  17
  -8   4   4 52908.5 2282.00  18
  -8   4   4 50054.5 2324.70  17
  -8   4   4 53232.8 1995.89  14
  -8   4   3 35446.0 1944.25  18
  -8   4   3 33494.3 1700.05  14
   8   4  -2 13760.3 811.423  10
  -8   4   2 13559.6 1229.95  18
  -8   4   2 12757.4 1111.48  14
   8   4  -1 5079.76 520.430  10
  -8   4   1 4774.70 766.538  14
   8   4   0 29054.3 1353.62  10
  -8   4   0 28489.0 1793.56  14
   8   4   1 73858.0 2478.80  10
   8   4   1 73450.1 2203.91   9
  -8   4  -1 72971.9 3079.79  14
   8   4   2 6900.14 661.542  10
   8   4   2 8683.85 638.062   9
   8   4   3 15471.1 988.783  10
   8   4   3 15893.9 877.823   9
   8   4   4 734.434 245.291  10
  -8   4  -4 386.384 168.282  18
   8   4   4 1293.08 265.708   9
   8   4   4 938.718 219.163  16
   8   4   5-169.298 214.198  10
   8   4   5 35.3761 127.999   9
   8   4   5-88.1431 109.050  16
  -8   4  -5 293.003 223.400  14
  -8   5   6 29591.5 1156.02  17
  -8   5   5 2250.68 327.918  18
  -8   5   5 2421.10 370.561  17
  -8   5   4 6968.58 654.955  18
  -8   5   4 7312.29 691.914  17
  -8   5   4 7797.02 563.855  14
   8   5  -3 27707.4 1030.02  10
  -8   5   3 29085.6 1496.80  18
  -8   5   3 27445.6 1482.16  17
  -8   5   3 25187.9 1274.90  14
   8   5  -2 4090.92 401.887  10
  -8   5   2 4706.71 643.478  18
  -8   5   2 4556.03 624.712  17
  -8   5   2 4049.33 570.839  14
   8   5  -1 10480.7 678.594  10
  -8   5   1 9632.69 923.553  18
  -8   5   1 10938.4 933.787  14
   8   5   0 5371.69 513.412  10
  -8   5   0 5615.20 701.532  18
  -8   5   0 5228.85 684.364  14
   8   5   1 3076.01 392.136  10
  -8   5  -1 2892.62 504.693  18
  -8   5  -1 2532.08 514.287  14
   8   5   2 470.291 199.811  10
  -8   5  -2 294.224 178.880  18
  -8   5  -2 217.706 285.826  14
   8   5   3 13436.1 781.988  10
   8   5   3 13637.6 613.361   9
  -8   5  -3 12264.2 864.951  14
   8   5   4 3167.74 346.918  10
   8   5   4 2968.39 255.156   9
  -8   5  -4 2569.53 329.625  14
  -8   6   2 3750.55 393.617  18
  -8   6   2 3649.86 353.382  14
   8   6  -1 4824.60 351.258  10
  -8   6   1 5389.95 468.432  18
  -8   6   1 5302.43 455.685  14
   8   6   0 15209.0 671.099  10
  -8   6   0 13946.8 713.119  18
  -8   6   0 16309.2 830.742  14
   9  -5  -3 5400.26 421.102  12
   9  -5  -2 12303.8 672.814  12
   9  -5  -1 167.513 117.260  12
   9  -5   0 2012.69 278.575  12
   9  -5   1 10910.7 604.352  12
   9  -4  -6 1959.02 250.997  16
   9  -4  -6 2386.94 291.564  12
   9  -4  -5 3374.78 364.656  16
   9  -4  -5 3598.19 408.833  12
   9  -4  -4 23122.3 1081.94  16
   9  -4  -4 23953.3 1126.60  12
   9  -4  -3 7585.86 642.771  12
   9  -4  -3 8230.02 586.291  21
   9  -4  -3 8746.09 697.223   9
   9  -4  -3 8142.72 637.178  16
   9  -4  -2 2363.23 391.021  12
   9  -4  -2 2020.07 320.369  21
   9  -4  -2 2197.53 377.711   9
   9  -4  -2 2112.54 344.790  16
   9  -4  -1 253.949 195.911  12
   9  -4  -1 191.565 152.509  21
   9  -4  -1 158.732 139.803  19
   9  -4  -1-49.1613 202.202   9
   9  -4  -1 166.479 169.786  16
   9  -4   0 25210.6 1258.61  21
   9  -4   0 25382.6 984.460  19
   9  -4   0 27267.0 1305.57   9
   9  -4   0 25722.1 1091.98  16
   9  -4   1 17479.2 1024.09  21
   9  -4   1 17556.5 978.853   9
   9  -4   2 7426.57 631.832  21
   9  -4   2 7186.26 552.043   9
   9  -4   3 8680.88 642.051  21
   9  -4   3 8609.67 485.491   9
   9  -4   4 6766.49 496.059  21
   9  -3  -7 6982.83 513.462  16
   9  -3  -7 6769.29 523.178  12
   9  -3  -6 18246.7 857.245  21
   9  -3  -6 19241.7 1002.93  16
   9  -3  -6 18681.8 994.827  12
   9  -3  -5 35930.5 1482.40  21
   9  -3  -5 33349.1 1512.51  16
   9  -3  -5 35484.4 1536.48  12
   9  -3  -4 10132.0 800.162  12
   9  -3  -4 9696.66 786.425  21
   9  -3  -4 11939.5 835.750   9
   9  -3  -4 10314.5 825.570  16
   9  -3  -3 2156.28 415.272  12
   9  -3  -3 1781.08 368.628  22
   9  -3  -3 1888.77 362.178  21
   9  -3  -3 1794.07 386.403   9
   9  -3  -3 2440.98 458.171  16
   9  -3  -2 12280.0 882.562  12
   9  -3  -2 9209.87 811.967  22
   9  -3  -2 12643.4 982.603  21
   9  -3  -2 12861.5 968.915   9
   9  -3  -2 10911.6 891.396  16
   9  -3  -1 12278.8 886.117  12
   9  -3  -1 11201.2 914.125  22
   9  -3  -1 12175.9 978.774  21
   9  -3  -1 12885.7 982.815   9
   9  -3  -1 10803.4 879.187  16
   9  -3   0 8979.95 804.431  22
   9  -3   0 10352.9 911.395  21
   9  -3   0 11544.3 933.991   9
   9  -3   0 10628.4 862.142  16
   9  -3   1 24870.0 1370.43  22
   9  -3   1 22941.2 1365.66  21
   9  -3   1 21560.5 1261.68   9
   9  -3   1 23919.9 1261.51  16
   9  -3   2 27002.8 1413.86  22
   9  -3   2 28423.0 1508.04  21
   9  -3   2 30547.2 1432.61   9
   9  -3   2 28004.2 1286.67  16
   9  -3   3 4326.53 523.879   6
   9  -3   3 4690.48 541.512  22
   9  -3   3 4291.45 478.997   9
   9  -3   3 4826.48 438.288  16
   9  -3   4 16006.4 919.416   6
   9  -3   4 15911.7 909.137  22
   9  -3   4 17080.5 797.850   9
   9  -3   5 14080.8 721.336  22
   9  -3   5 15383.7 833.265  21
   9  -2  -8 3186.40 298.261  21
   9  -2  -8 2905.35 331.703  12
   9  -2  -7 14244.5 837.897  21
   9  -2  -7 14213.1 824.107  16
   9  -2  -7 14102.9 853.051  12
   9  -2  -6 1113.65 296.996  12
   9  -2  -6 1291.32 323.440  21
   9  -2  -6 1268.52 309.741  16
   9  -2  -6 1056.07 195.188  13
   9  -2  -5 33324.0 1655.07  21
   9  -2  -5 36413.8 1432.00   9
   9  -2  -5 36074.7 1645.57  16
   9  -2  -5 32974.9 1547.34  12
   9  -2  -4 28500.7 1441.72  12
   9  -2  -4 28261.2 1608.39  22
   9  -2  -4 27623.6 1567.97  21
   9  -2  -4 31227.6 1423.24   9
   9  -2  -4 28902.1 1529.06  16
   9  -2  -3 39559.9 1746.77  12
   9  -2  -3 41024.4 1999.54  22
   9  -2  -3 42572.7 2020.83  21
   9  -2  -3 41615.3 1809.73   9
   9  -2  -3 40364.2 1893.47  16
   9  -2  -2 28139.1 1394.77  12
   9  -2  -2 25762.0 1571.28  21
   9  -2  -2 25119.3 1541.75  22
   9  -2  -2 25886.5 1424.97   9
   9  -2  -2 26542.9 1506.46  16
   9  -2  -1 5728.37 599.424  12
   9  -2  -1 5428.51 719.391  22
   9  -2  -1 4741.71 680.200  21
   9  -2  -1 5888.23 692.388   9
   9  -2  -1 4863.01 636.271  16
   9  -2   0 37850.3 1955.54  22
   9  -2   0 37573.0 1940.24  21
   9  -2   0 40795.4 1879.68   9
   9  -2   0 39310.6 1884.99  16
   9  -2   1 7205.66 827.469  22
   9  -2   1 7220.36 816.037  21
   9  -2   1 7950.19 792.463   9
   9  -2   1 7935.43 790.899  16
   9  -2   2 25161.8 1400.41   6
   9  -2   2 24527.6 1518.57  22
   9  -2   2 25377.6 1505.51  21
   9  -2   2 27564.2 1451.61   9
   9  -2   2 28627.4 1486.56  16
   9  -2   3 23619.8 1283.04   6
   9  -2   3 22938.1 1402.08  22
   9  -2   3 26295.8 1340.92   9
   9  -2   3 24103.1 1290.46  16
   9  -2   4 14176.2 902.224   6
   9  -2   4 14403.9 1047.57  22
   9  -2   4 14491.9 880.710   9
   9  -2   4 15604.2 902.452  16
   9  -2   5 5977.11 493.468   6
   9  -2   5 5609.62 591.693  22
   9  -2   5 5332.06 431.827   9
   9  -2   5 6139.72 445.881  16
   9  -2   6 505.475 173.444  22
   9  -2   6 239.593 124.616  21
   9  -1  -9 6998.01 425.602  21
   9  -1  -8 23168.8 1092.64  21
   9  -1  -8 21753.3 985.950  12
   9  -1  -7 10995.9 845.546  21
   9  -1  -7 9528.39 668.375  16
   9  -1  -7 9784.77 714.756  12
   9  -1  -6 8568.78 717.025  16
   9  -1  -6 8470.49 705.065  12
   9  -1  -5 3924.50 628.495  21
   9  -1  -5 4491.06 554.948  16
   9  -1  -5 4454.04 528.100  12
   9  -1  -4 2959.49 440.669  12
   9  -1  -4 4053.69 670.775  22
   9  -1  -4 3343.87 593.756  21
   9  -1  -4 3192.46 426.553   9
   9  -1  -4 3232.26 494.059  16
   9  -1  -3 25400.2 1285.51  12
   9  -1  -3 21913.3 1490.65  22
   9  -1  -3 24182.4 1545.83  21
   9  -1  -3 24653.5 1296.72   9
   9  -1  -3 24830.8 1443.54  16
   9  -1  -2 6832.62 832.929  22
   9  -1  -2 7296.65 841.430  21
   9  -1  -2 6585.65 695.637   9
   9  -1  -2 7215.93 781.171  16
   9  -1  -1 34145.4 1896.38  22
   9  -1  -1 34566.0 1863.08  21
   9  -1  -1 32631.2 1622.16   9
   9  -1  -1 30094.5 1662.50  16
   9  -1   0 10785.2 1040.48  22
   9  -1   0 10964.9 1023.53  21
   9  -1   0 9881.03 880.304   9
   9  -1   0 11756.1 988.554  16
   9  -1   1 13640.2 1155.48  22
   9  -1   1 13174.4 1099.62  21
   9  -1   1 13082.6 999.344   9
   9  -1   1 13035.1 1049.63  16
   9  -1   2 18776.0 1355.89  22
   9  -1   2 20510.3 1345.10  21
   9  -1   2 21714.1 1286.81   9
   9  -1   2 19266.4 1277.30  16
   9  -1   3 46673.0 2203.61  22
   9  -1   3 48096.1 2122.20  21
   9  -1   3 49533.7 2005.66   9
   9  -1   3 50381.0 2096.19  16
   9  -1   4 3209.11 551.063  22
   9  -1   4 3813.11 535.054  21
   9  -1   4 3690.10 495.024   9
   9  -1   4 4125.37 538.852  16
   9  -1   5 3280.36 508.441  22
   9  -1   5 3154.69 416.927  21
   9  -1   5 3544.73 405.471   9
   9  -1   5 3110.96 420.831  16
   9  -1   6 3432.29 447.355  22
   9  -1   6 3399.67 341.110  21
   9  -1   6 3160.39 297.859   9
   9  -1   6 2824.76 313.459  16
   9   0  -9 5672.64 452.469  21
   9   0  -8 3587.83 455.381  21
   9   0  -7-118.109 136.585  12
   9   0  -7-26.8561 248.543  21
   9   0  -6 85326.9 3042.95  21
   9   0  -6 82227.9 2509.14  16
   9   0  -5 5152.98 709.845  21
   9   0  -5 5490.26 576.737  16
   9   0  -4 104685. 3686.59  22
   9   0  -4 108738. 3707.46  21
   9   0  -4 103297. 3281.05  16
   9   0  -3-140.896 285.836  22
   9   0  -3-872.210 357.597  21
   9   0  -3-61.3023 151.627   9
   9   0  -3-25.2487 267.111  16
   9   0  -2 2777.04 559.184  22
   9   0  -2 2545.52 539.149  21
   9   0  -2 2549.14 426.745   9
   9   0  -2 2759.44 469.408  16
   9   0  -1 7154.57 851.126  22
   9   0  -1 7251.04 844.900  21
   9   0  -1 6189.97 649.243   9
   9   0  -1 7153.43 760.896  16
   9   0   0 1351.51 405.747  22
   9   0   0 1319.58 376.893  21
   9   0   0 908.035 294.938   9
   9   0   0 2080.98 448.818  16
   9   0   1 31803.3 1828.28  22
   9   0   1 34494.9 1794.07  21
   9   0   1 33928.2 1637.92   9
   9   0   1 32872.2 1724.44  16
   9   0   2 273.085 298.576  22
   9   0   2 769.289 292.138  21
   9   0   2 933.815 329.007   9
   9   0   2 537.474 321.088  16
   9   0   3 1018.92 374.946  22
   9   0   3 1500.96 354.753  21
   9   0   3 1189.22 358.506   9
   9   0   3 962.182 344.054  16
   9   0   4 39290.1 1908.12  22
   9   0   4 40044.6 1647.44  21
   9   0   4 41740.0 1705.62   9
   9   0   4 38400.5 1758.21  16
   9   0   5 16943.1 1131.85  22
   9   0   5 16821.3 990.055  10
   9   0   5 17685.3 970.328   9
   9   0   5 18495.4 1068.19  16
   9   0   6 941.624 264.170  22
   9   0   6 1015.37 198.561   9
   9   0   6 687.020 225.637  16
   9   1  -9 8251.78 554.324  21
   9   1  -8 24030.0 1222.50  21
  -9   1   8 27555.2 997.263  15
   9   1  -7 10730.6 884.333  21
   9   1  -6 6634.13 747.096  21
   9   1  -5 4896.47 671.856  21
   9   1  -4 4242.70 645.118  21
   9   1  -3 23551.9 1511.78  22
   9   1  -3 23209.5 1481.18  21
   9   1  -3 24419.4 1298.29  16
   9   1  -2 7291.64 854.470  22
   9   1  -2 6903.91 786.246  21
   9   1  -2 6654.45 595.427   9
   9   1  -2 7139.60 722.245  16
   9   1  -1 34605.7 1873.43  22
   9   1  -1 34329.4 1785.53  21
   9   1  -1 35364.0 1530.49   9
   9   1  -1 34477.3 1680.85  16
   9   1   0 10556.5 998.926  22
   9   1   0 11844.0 972.491  21
   9   1   0 10487.4 826.252   9
   9   1   0 10328.3 907.226  16
   9   1   1 14135.4 1141.96  22
   9   1   1 16596.5 1095.37  21
   9   1   1 13604.4 967.255   9
   9   1   1 13869.9 1055.24  16
   9   1   2 19365.7 1310.68  22
   9   1   2 19833.3 1169.81   9
   9   1   2 17698.7 1206.46  16
   9   1   3 50303.5 2179.57  22
   9   1   3 45227.3 1885.58  10
   9   1   3 48994.9 1925.22   9
   9   1   3 49807.4 2085.79  16
   9   1   4 2775.27 488.077  22
   9   1   4 3614.50 483.763  10
   9   1   4 3822.34 500.939   9
   9   1   4 3894.76 561.992  16
   9   1   5 3983.53 506.317  22
   9   1   5 3668.60 468.056  10
   9   1   5 3453.89 423.778   9
   9   1   5 3772.91 493.536  16
   9   1   6 3009.40 375.563  22
   9   1   6 2657.67 360.920  10
   9   1   6 3673.35 362.189   9
   9   1   6 3096.76 383.611  16
   9   2  -8 3809.39 412.470  21
   9   2  -7 14569.6 933.237  21
   9   2  -6 1446.42 355.173  21
   9   2  -5 31099.6 1585.21  21
  -9   2   5 34008.0 1636.14  17
   9   2  -4 29452.5 1537.19  21
  -9   2   4 27635.2 1525.01  18
   9   2  -3 39499.7 1805.50  21
   9   2  -2 26379.2 1436.71  22
   9   2  -1 5764.22 643.375  22
   9   2  -1 5568.62 524.803   9
   9   2  -1 4954.29 553.774  16
   9   2   0 39415.0 1813.63  22
   9   2   0 38998.1 1583.66   9
   9   2   0 41203.7 1756.38  16
   9   2   1 7365.55 734.801  22
   9   2   1 7490.81 673.186   9
   9   2   1 7671.20 734.210  16
   9   2   2 24471.1 1329.90  22
   9   2   2 25099.5 1285.82  10
   9   2   2 26679.2 1305.82   9
   9   2   2 28855.2 1450.11  16
   9   2   3 24598.1 1280.18  10
   9   2   3 23605.8 1200.46   9
   9   2   3 24509.7 1307.61  16
   9   2   4 13220.1 915.947  10
   9   2   4 14309.6 870.498   9
   9   2   4 13587.9 919.135  16
   9   2   5 5344.34 542.016  10
   9   2   5 6106.55 515.563   9
   9   2   5 6225.35 575.909  16
   9   2   6 498.002 186.454  10
   9   2   6 220.210 126.154   9
   9   2   6 396.057 156.421  16
   9   3  -7 6320.17 454.150  21
   9   3  -6 17343.3 875.725  21
  -9   3   6 17770.3 964.370  17
  -9   3   5 34632.5 1444.97  18
  -9   3   5 34474.3 1633.07  17
  -9   3   4 10992.8 896.604  18
  -9   3   3 1788.02 454.320  18
  -9   3   2 10047.1 886.355  14
  -9   3   1 10730.8 1011.87  14
   9   3   0 9629.68 676.495  10
   9   3   0 9507.05 640.296   9
   9   3   1 21720.8 1123.16  10
   9   3   1 22622.2 1069.76   9
   9   3   2 27428.6 1304.64  10
   9   3   2 28599.8 1248.57   9
   9   3   2 28653.5 1278.69  16
   9   3   3 3964.23 477.038  10
   9   3   3 4593.43 461.416   9
   9   3   3 5005.03 509.012  16
   9   3   4 15584.7 919.249  10
   9   3   4 16545.6 845.361   9
   9   3   4 15562.4 852.142  16
   9   3   5 14068.2 793.403  10
   9   3   5 15999.5 745.526   9
   9   3   5 15390.4 749.764  16
  -9   4   6 1993.36 269.911  17
  -9   4   5 2693.78 323.947  18
  -9   4   5 3013.96 416.912  17
  -9   4   4 22410.6 1171.71  18
  -9   4   4 22484.1 1267.98  17
  -9   4   3 7520.86 748.681  18
  -9   4   3 7831.58 622.107  14
  -9   4   2 1870.89 453.025  18
  -9   4   2 2901.11 443.394  14
   9   4  -1 188.548 149.134  10
  -9   4   1 150.976 265.616  18
  -9   4   1 568.976 292.413  14
   9   4   0 25672.9 1108.38  10
  -9   4   0 26923.8 1590.82  18
  -9   4   0 26145.1 1500.34  14
   9   4   1 16254.4 876.756  10
  -9   4  -1 17179.3 1202.65  18
  -9   4  -1 17994.7 1222.86  14
   9   4   2 6982.26 564.544  10
  -9   4  -2 7537.12 733.476  18
   9   4   2 7359.16 481.558   9
  -9   4  -2 7577.14 777.595  14
   9   4   3 8261.58 596.052  10
  -9   4  -3 8899.16 668.769  18
   9   4   3 9348.19 529.395   9
  -9   4  -3 8328.27 751.139  14
   9   4   4 6264.16 471.017  10
   9   4   4 7120.36 419.534   9
  -9   4  -4 6190.77 549.437  14
  -9   5   3 5281.93 473.982  18
  -9   5   3 5101.58 491.166  17
  -9   5   2 12096.8 792.628  18
  -9   5   2 12497.5 800.326  17
  -9   5   2 11443.9 668.136  14
   9   5  -1 117.262 80.8496  10
  -9   5   1 203.110 204.200  18
  -9   5   1 494.486 234.087  17
  -9   5   1 157.401 159.692  14
   9   5   0 2086.74 236.053  10
  -9   5   0 1782.30 315.947  18
  -9   5   0 2565.09 348.483  17
  -9   5   0 2363.15 358.331  14
   9   5   1 10448.0 551.862  10
  -9   5  -1 10390.9 662.271  18
  -9   5  -1 10355.7 616.306  17
  -9   5  -1 10769.1 711.461  14
  10  -4  -3 15948.9 682.482  16
  10  -4  -3 15840.8 717.647  12
  10  -4  -2 8346.99 516.441  12
  10  -4  -2 8061.20 459.617  21
  10  -4  -2 9843.17 600.325   9
  10  -4  -2 9016.91 492.171  16
  10  -4  -1 3192.52 316.124  12
  10  -4  -1 2792.57 287.203  21
  10  -4  -1 3207.30 355.388   9
  10  -4  -1 2696.05 244.579  16
  10  -4   0 1836.18 237.136  12
  10  -4   0 1358.73 222.723  21
  10  -4   0 1502.06 246.846   9
  10  -4   1 25617.1 951.053  21
  10  -4   1 26370.5 929.135   9
  10  -3  -5 8820.77 506.482  21
  10  -3  -5 8560.13 563.045  16
  10  -3  -5 8358.87 539.009  12
  10  -3  -4 18906.8 903.468  21
  10  -3  -4 18889.8 856.310   9
  10  -3  -4 17907.3 922.273  16
  10  -3  -4 17003.8 854.100  12
  10  -3  -3 3836.40 441.984  21
  10  -3  -3 4257.03 453.162   9
  10  -3  -3 4384.96 467.618  16
  10  -3  -3 3593.89 391.213  12
  10  -3  -2 8802.51 619.875  12
  10  -3  -2 8825.47 704.378  21
  10  -3  -2 10399.5 739.189   9
  10  -3  -2 9232.72 693.173  16
  10  -3  -1 2131.22 309.034  12
  10  -3  -1 1843.05 329.788  22
  10  -3  -1 1667.77 332.606  21
  10  -3  -1 2009.44 353.739   9
  10  -3  -1 1709.00 320.007  16
  10  -3   0 5035.92 436.338  12
  10  -3   0 5932.97 539.197  22
  10  -3   0 4503.90 518.735  21
  10  -3   0 5496.52 553.465   9
  10  -3   0 5234.22 491.177  16
  10  -3   1 20971.8 880.000  12
  10  -3   1 22758.6 1063.98  22
  10  -3   1 20411.6 1095.69  21
  10  -3   1 21610.5 1061.90   9
  10  -3   1 20150.4 944.115  16
  10  -3   2 2846.35 335.965  22
  10  -3   2 3701.67 436.593  21
  10  -3   2 3437.68 383.913   9
  10  -3   2 3253.86 306.822  16
  10  -3   3 8633.80 515.344  22
  10  -3   3 8566.12 595.930  21
  10  -3   3 9091.99 499.709   9
  10  -2  -6 7489.83 551.867  21
  10  -2  -6 8427.54 556.514  16
  10  -2  -6 7362.40 499.258  12
  10  -2  -5 21609.5 1097.99  21
  10  -2  -5 20269.9 1015.74  16
  10  -2  -5 19710.6 935.655  12
  10  -2  -4 16529.2 1024.85  21
  10  -2  -4 16925.0 857.638   9
  10  -2  -4 15496.8 952.167  16
  10  -2  -4 14808.8 836.259  12
  10  -2  -3 2540.81 351.504  12
  10  -2  -3 2564.63 456.593  22
  10  -2  -3 2637.81 451.098  21
  10  -2  -3 2615.74 379.968   9
  10  -2  -3 2375.21 395.783  16
  10  -2  -2 32501.7 1313.51  12
  10  -2  -2 31491.3 1590.13  22
  10  -2  -2 31932.3 1595.03  21
  10  -2  -2 34258.4 1503.48   9
  10  -2  -2 34057.7 1567.34  16
  10  -2  -1 7063.57 547.801  12
  10  -2  -1 6723.74 709.421  22
  10  -2  -1 6394.69 704.924  21
  10  -2  -1 7241.85 679.261   9
  10  -2  -1 7140.95 698.542  16
  10  -2   0 1554.20 374.021  22
  10  -2   0 1514.93 401.823  21
  10  -2   0 1254.72 343.046   9
  10  -2   0 1411.89 331.500  16
  10  -2   1 639.765 295.259  22
  10  -2   1 1226.05 347.757  21
  10  -2   1 1200.46 318.311   9
  10  -2   1 697.461 228.104  16
  10  -2   2 9128.29 766.531  22
  10  -2   2 10298.8 801.521  21
  10  -2   2 10592.6 762.439   9
  10  -2   2 9815.97 716.425  16
  10  -2   3 16463.1 982.233  22
  10  -2   3 17005.3 970.060  21
  10  -2   3 18077.3 913.405   9
  10  -2   3 17203.4 858.180  16
  10  -2   4 7389.04 555.160  22
  10  -2   4 6310.38 496.330  21
  10  -2   4 6574.58 438.003   9
  10  -2   4 5778.46 379.852  16
  10  -1  -7 9662.85 622.678  21
  10  -1  -7 8092.32 425.625  16
  10  -1  -6 37377.0 1524.64  21
  10  -1  -6 36369.0 1292.86  16
  10  -1  -5 49947.1 2001.69  21
  10  -1  -5 50790.1 1796.69  16
  10  -1  -4 15372.8 1083.02  21
  10  -1  -4 14674.1 952.590  16
  10  -1  -3 19671.4 1282.95  22
  10  -1  -3 17103.0 1179.24  21
  10  -1  -3 20088.5 1038.88   9
  10  -1  -3 17798.2 1111.09  16
  10  -1  -2 665.108 348.633  22
  10  -1  -2 675.787 294.410  21
  10  -1  -2 327.486 210.935   9
  10  -1  -2 867.071 296.571  16
  10  -1  -1 18672.5 1283.03  22
  10  -1  -1 17731.7 1218.47  21
  10  -1  -1 18685.5 1103.14   9
  10  -1  -1 19329.7 1198.42  16
  10  -1   0 10594.4 950.515  22
  10  -1   0 10559.6 910.953  21
  10  -1   0 12070.1 884.420   9
  10  -1   0 11319.3 891.251  16
  10  -1   1 4765.73 644.592  22
  10  -1   1 4185.91 573.805  21
  10  -1   1 4563.68 571.749   9
  10  -1   1 3989.25 545.313  16
  10  -1   2 7366.09 767.101  22
  10  -1   2 8071.23 734.590  21
  10  -1   2 9064.58 732.064   9
  10  -1   2 7613.28 699.559  16
  10  -1   3 17267.4 1094.98  22
  10  -1   3 17601.0 1003.42  21
  10  -1   3 17668.7 976.913   9
  10  -1   3 17349.8 996.982  16
  10  -1   4 51188.3 1869.06  22
  10  -1   4 46200.4 1587.76  21
  10  -1   4 50576.1 1643.01   9
  10  -1   4 49261.4 1663.03  16
  10  -1   5 3679.09 385.254  22
  10  -1   5 3682.19 289.663   9
  10  -1   5 3888.03 310.814  16
  10   0  -7 1095.98 251.747  21
  10   0  -6 6152.01 620.745  21
  10   0  -5 3170.46 518.089  21
  10   0  -5 2262.48 320.714  16
  10   0  -4 3249.13 536.176  21
  10   0  -4 3073.39 423.744  16
  10   0  -3 2002.85 457.179  22
  10   0  -3 2271.55 439.880  21
  10   0  -3 1356.43 322.034  16
  10   0  -2-128.567 272.659  22
  10   0  -2 342.114 244.874  21
  10   0  -2 597.447 272.223   9
  10   0  -2 187.521 252.994  16
  10   0  -1 22256.8 1418.63  22
  10   0  -1 24192.8 1413.24  21
  10   0  -1 22970.5 1194.18   9
  10   0  -1 22875.4 1308.77  16
  10   0   0 1938.88 441.871  22
  10   0   0 1644.43 381.145  21
  10   0   0 2667.93 448.112   9
  10   0   0 2615.32 476.388  16
  10   0   1 560.409 303.191  22
  10   0   1 1149.41 340.831  21
  10   0   1 782.035 297.047   9
  10   0   1 565.751 260.052  16
  10   0   2 1227.47 364.918  22
  10   0   2 808.903 253.320  21
  10   0   2 841.020 273.280   9
  10   0   2 865.242 333.763  16
  10   0   3 823.144 277.577  22
  10   0   3 1271.73 266.285  21
  10   0   3 1380.55 300.699   9
  10   0   3 1163.93 307.279  16
  10   0   4 119.950 192.577  22
  10   0   4-40.6722 146.727   9
  10   0   4 141.538 170.740  16
  10   0   5 3153.24 358.731  22
  10   0   5 2855.47 285.511   9
  10   0   5 3601.90 347.431  16
  10   1  -7 9835.59 661.545  21
  10   1  -6 38471.2 1588.31  21
  10   1  -5 50667.7 1995.32  21
  10   1  -4 15646.5 1063.55  21
  10   1  -3 19710.0 1239.43  22
  10   1  -3 18496.4 1178.10  21
  10   1  -3 19413.0 1018.97  16
  10   1  -2 379.135 214.828  22
  10   1  -2 290.775 190.914  21
  10   1  -2 384.026 229.621  16
  10   1  -1 17016.9 1152.48  22
  10   1  -1 16687.4 1065.10  21
  10   1  -1 16676.1 931.254   9
  10   1  -1 16043.2 1013.95  16
  10   1   0 11813.0 943.715  22
  10   1   0 11283.4 819.044  21
  10   1   0 11513.0 787.596   9
  10   1   0 9394.46 793.161  16
  10   1   1 4049.27 552.068  22
  10   1   1 4451.69 510.156   9
  10   1   1 4105.13 528.364  16
  10   1   2 9017.46 779.620  22
  10   1   2 8360.29 673.877   9
  10   1   2 9246.28 768.501  16
  10   1   3 17757.6 1019.00  22
  10   1   3 17424.3 945.899   9
  10   1   3 17509.9 1007.77  16
  10   1   4 48171.4 1662.55  22
  10   1   4 49529.7 1633.99   9
  10   1   4 48565.1 1706.68  16
  10   1   5 3504.14 312.934   9
  10   1   5 3939.04 361.546  16
  10   2  -7 6372.82 421.491  21
  10   2  -6 7619.03 548.154  21
  10   2  -5 20186.7 1008.60  21
  10   2  -4 16520.7 930.451  21
  10   2  -3 2418.67 366.940  21
  10   2  -1 6864.84 559.033  16
 -10   2   1 7543.81 716.901  14
  10   2   0 1378.13 265.732   9
  10   2   0 1811.14 317.862  16
  10   2   1 1032.05 255.185   9
  10   2   1 635.106 199.719  16
  10   2   2 9687.85 660.605   9
  10   2   2 9130.00 675.381  16
  10   2   3 16352.3 845.890   9
  10   2   3 18456.1 926.335  16
  10   2   4 6495.39 465.715   9
  10   2   4 5724.62 455.472  16
 -10   3   5 9606.01 585.865  17
 -10   3   4 16448.1 843.908  18
 -10   3   4 18158.0 991.349  17
 -10   3   3 3823.10 483.660  18
 -10   3   2 9968.90 849.444  18
 -10   3   1 1239.77 280.157  14
 -10   3   0 4124.65 527.759  14
  10   3   1 21348.4 857.040   9
 -10   3  -1 21311.5 1233.59  14
  10   3   2 3679.24 333.422   9
 -10   3  -2 2943.87 463.305  14
  10   3   3 8508.32 485.907   9
 -10   3  -3 8673.58 698.123  14
 -10   4   3 14367.6 752.702  18
 -10   4   3 16859.9 872.826  17
 -10   4   2 8860.57 656.236  18
 -10   4   2 8710.15 669.217  17
 -10   4   1 3345.44 424.769  18
 -10   4   1 3540.48 362.125  14
 -10   4   0 1704.44 338.249  18
 -10   4   0 1629.22 282.528  14
 -10   4  -1 26727.2 1156.05  18
 -10   4  -1 25255.8 1103.94  14
  11  -2  -4 2990.05 321.536  21
  11  -2  -4 2862.29 296.071  16
  11  -2  -3 4663.31 436.430  21
  11  -2  -3 4378.45 330.924   9
  11  -2  -3 4127.49 388.889  16
  11  -2  -2 1766.76 296.959  21
  11  -2  -2 1686.80 250.975   9
  11  -2  -2 1436.47 246.767  16
  11  -2  -1 15095.0 843.573  22
  11  -2  -1 14894.1 842.961  21
  11  -2  -1 16299.4 800.938   9
  11  -2  -1 15257.0 799.886  16
  11  -2   0 5757.03 496.708  22
  11  -2   0 5658.08 495.661  21
  11  -2   0 5544.30 461.597   9
  11  -2   0 5617.18 456.793  16
  11  -2   1 27213.3 1099.15  22
  11  -2   1 26665.2 1087.90  21
  11  -2   1 29513.6 1080.77   9
  11  -2   1 25515.7 991.203  16
  11  -1  -5 19713.1 890.306  21
  11  -1  -5 18419.1 711.451  16
  11  -1  -4 878.775 230.544  21
  11  -1  -4 818.310 202.300  16
  11  -1  -3 531.965 210.768  21
  11  -1  -3 434.507 173.771  16
  11  -1  -2 8699.86 694.930  22
  11  -1  -2 8075.03 666.227  21
  11  -1  -2 7914.57 534.205   9
  11  -1  -2 7792.19 600.947  16
  11  -1  -1 16464.4 969.726  22
  11  -1  -1 15675.1 932.592  21
  11  -1  -1 15768.7 829.141   9
  11  -1  -1 15683.6 886.799  16
  11  -1   0 16570.1 979.945  22
  11  -1   0 18797.6 983.702  21
  11  -1   0 17147.0 882.541   9
  11  -1   0 18106.8 942.943  16
  11  -1   1 10727.5 736.004  22
  11  -1   1 9958.17 660.944  21
  11  -1   1 11050.5 673.508   9
  11  -1   1 10132.8 664.850  16
  11  -1   2 5511.17 487.014  22
  11  -1   2 5085.83 404.079  21
  11  -1   2 5273.70 432.696   9
  11  -1   2 4714.55 413.870  16
  11   0  -5 7472.79 546.508  21
  11   0  -4 1435.08 281.499  21
  11   0  -4 1402.10 195.636  16
  11   0  -3 344.012 199.849  21
  11   0  -3 471.664 175.367  16
  11   0  -2 6511.76 617.376  22
  11   0  -2 6455.84 582.090  21
  11   0  -2 6724.30 449.024   9
  11   0  -2 5555.37 496.283  16
  11   0  -1 1887.16 360.489  22
  11   0  -1 1736.72 318.986  21
  11   0  -1 2315.25 354.128  16
  11   0  -1 1802.30 273.604   9
  11   0   0 5850.75 574.812  22
  11   0   0 5276.26 491.267  21
  11   0   0 5066.80 457.554   9
  11   0   0 4815.35 480.439  16
  11   0   1 104.202 149.023  22
  11   0   1 253.312 162.460  21
  11   0   1 14.7777 140.738   9
  11   0   1-28.1776 148.761  16
  11   0   2 838.079 226.164  22
  11   0   2 371.241 174.746   9
  11   0   2 665.155 206.448  16
  11   1  -5 19218.2 830.594  21
  11   1  -4 842.729 199.079  21
  11   1  -3 140.919 138.869  21
  11   1  -2 7440.30 543.353  21
  11   1  -2 8298.64 513.319  16
  11   1  -1 16996.0 902.123  22
  11   1  -1 15385.5 690.065   9
  11   1  -1 15573.0 789.357  16
  11   1   0 17910.1 910.998  22
  11   1   0 17790.4 797.257   9
  11   1   0 16849.1 844.221  16
  11   1   1 9670.47 621.856  22
  11   1   1 9952.17 586.792   9
  11   1   1 10141.0 629.159  16
  11   1   2 4569.11 367.395  22
  11   1   2 5474.91 407.922   9
  11   1   2 4941.61 404.010  16
 -11   2   3 4235.30 369.774  17
 -11   2   2 1949.21 317.537  18
  11   2   1 24143.6 803.559   9
 -11   2  -1 23293.2 960.450  14
   0   0   0    0.00    0.00   0
;
_shelx_hkl_checksum              14727
loop_
_space_group_symop_operation_xyz
'x, y, z'
'-x, y+1/2, -z'
loop_
_atom_site_label
_atom_site_type_symbol
_atom_site_fract_x
_atom_site_fract_y
_atom_site_fract_z
_atom_site_U_iso_or_equiv
_atom_site_adp_type
_atom_site_occupancy
_atom_site_site_symmetry_order
_atom_site_calc_flag
_atom_site_refinement_flags_posn
_atom_site_refinement_flags_adp
C1 C 0.2668(2) 0.5797(3) 0.74799(17) 0.0208(4) Uani 1 1 d . .
H1A H 0.2223 0.4527 0.7203 0.031 Uiso 1 1 calc R U
H1B H 0.2459 0.6107 0.8365 0.031 Uiso 1 1 calc R U
H1C H 0.3702 0.5701 0.7467 0.031 Uiso 1 1 calc R U
C2 C 0.19936(19) 0.8137(3) 0.45113(17) 0.0155(4) Uani 1 1 d . .
C3 C 0.1085(2) 0.9901(3) 0.47231(19) 0.0231(4) Uani 1 1 d . .
H3A H 0.0336 0.9511 0.5255 0.035 Uiso 1 1 calc R U
H3B H 0.0650 1.0403 0.3881 0.035 Uiso 1 1 calc R U
H3C H 0.1675 1.0945 0.5172 0.035 Uiso 1 1 calc R U
C4 C 0.23269(18) 0.7589(3) 0.31488(16) 0.0136(3) Uani 1 1 d . .
C5 C 0.33364(19) 0.5834(3) 0.31600(16) 0.0140(3) Uani 1 1 d . .
C6 C 0.09629(19) 0.6656(3) 0.24067(17) 0.0154(4) Uani 1 1 d . .
C7 C 0.48802(19) 0.5894(3) 0.36512(18) 0.0172(4) Uani 1 1 d . .
H7A H 0.4991 0.6020 0.4601 0.026 Uiso 1 1 calc R U
H7B H 0.5327 0.7037 0.3271 0.026 Uiso 1 1 calc R U
H7C H 0.5339 0.4665 0.3405 0.026 Uiso 1 1 calc R U
C8 C 0.0465(2) 0.3349(3) 0.1387(2) 0.0227(4) Uani 1 1 d . .
H8A H -0.0534 0.3771 0.1252 0.034 Uiso 1 1 calc R U
H8B H 0.0521 0.1993 0.1737 0.034 Uiso 1 1 calc R U
H8C H 0.0870 0.3380 0.0556 0.034 Uiso 1 1 calc R U
C9 C 0.29927(19) 0.9070(3) 0.11676(17) 0.0165(4) Uani 1 1 d . .
C10 C 0.3861(3) 1.0553(4) -0.0636(2) 0.0324(5) Uani 1 1 d . .
H10A H 0.4297 0.9291 -0.0854 0.049 Uiso 1 1 calc R U
H10B H 0.4467 1.1659 -0.0855 0.049 Uiso 1 1 calc R U
H10C H 0.2918 1.0677 -0.1133 0.049 Uiso 1 1 calc R U
N1 N 0.24944(15) 0.6883(2) 0.53705(14) 0.0156(3) Uani 1 1 d . .
N2 N 0.27139(16) 0.4266(2) 0.26820(14) 0.0158(3) Uani 1 1 d . .
N3 N 0.12623(16) 0.4687(2) 0.23023(15) 0.0167(3) Uani 1 1 d . .
N4 N 0.27529(16) 0.9331(2) 0.24527(14) 0.0145(3) Uani 1 1 d . .
O1 O 0.21106(14) 0.7346(2) 0.66081(12) 0.0194(3) Uani 1 1 d . .
H1 H 0.343(3) 1.179(5) 0.304(3) 0.033(7) Uiso 1 1 d . .
O2 O -0.01569(14) 0.7485(2) 0.20549(13) 0.0210(3) Uani 1 1 d . .
O3 O 0.37440(14) 1.05322(19) 0.32218(12) 0.0171(3) Uani 1 1 d . .
O4 O 0.25212(14) 0.7667(2) 0.05248(12) 0.0194(3) Uani 1 1 d . .
O5 O 0.37171(15) 1.0598(2) 0.07454(13) 0.0233(3) Uani 1 1 d . .
loop_
_atom_site_aniso_label
_atom_site_aniso_U_11
_atom_site_aniso_U_22
_atom_site_aniso_U_33
_atom_site_aniso_U_23
_atom_site_aniso_U_13
_atom_site_aniso_U_12
C1 0.0221(9) 0.0266(10) 0.0136(8) 0.0035(8) 0.0018(7) 0.0011(8)
C2 0.0160(8) 0.0157(8) 0.0147(8) -0.0024(7) 0.0014(6) -0.0007(7)
C3 0.0282(10) 0.0221(10) 0.0194(9) -0.0010(7) 0.0053(7) 0.0091(8)
C4 0.0151(7) 0.0118(7) 0.0135(8) 0.0003(7) 0.0003(6) 0.0004(7)
C5 0.0173(8) 0.0143(8) 0.0106(8) 0.0008(6) 0.0018(6) 0.0027(6)
C6 0.0166(8) 0.0172(8) 0.0122(8) 0.0002(7) 0.0007(6) -0.0002(7)
C7 0.0162(8) 0.0179(9) 0.0169(8) 0.0000(7) -0.0007(6) 0.0018(7)
C8 0.0221(9) 0.0204(9) 0.0236(10) -0.0037(8) -0.0061(8) -0.0045(7)
C9 0.0158(8) 0.0168(8) 0.0164(8) 0.0025(7) -0.0007(6) 0.0008(7)
C10 0.0397(12) 0.0422(12) 0.0164(10) 0.0032(9) 0.0078(8) -0.0151(10)
N1 0.0175(7) 0.0182(7) 0.0111(7) -0.0023(6) 0.0017(5) -0.0017(6)
N2 0.0166(7) 0.0149(7) 0.0150(7) 0.0008(6) -0.0017(5) 0.0013(6)
N3 0.0155(7) 0.0153(7) 0.0182(7) -0.0002(6) -0.0027(6) 0.0001(6)
N4 0.0194(7) 0.0110(6) 0.0126(7) -0.0004(6) -0.0014(5) -0.0010(6)
O1 0.0242(6) 0.0233(7) 0.0110(6) -0.0002(5) 0.0041(5) 0.0029(5)
O2 0.0158(6) 0.0235(6) 0.0230(7) 0.0010(6) -0.0014(5) 0.0042(5)
O3 0.0212(6) 0.0128(6) 0.0161(6) -0.0016(5) -0.0039(5) -0.0018(5)
O4 0.0236(6) 0.0201(6) 0.0142(6) -0.0032(5) 0.0006(5) -0.0017(5)
O5 0.0292(7) 0.0254(7) 0.0155(6) 0.0021(6) 0.0034(5) -0.0083(6)
loop_
_atom_type_symbol
_atom_type_description
_atom_type_scat_dispersion_real
_atom_type_scat_dispersion_imag
_atom_type_scat_source
C C 0.0181 0.0091 'International Tables Vol C Tables 4.2.6.8 and 6.1.1.4'
H H 0.0000 0.0000 'International Tables Vol C Tables 4.2.6.8 and 6.1.1.4'
N N 0.0311 0.0180 'International Tables Vol C Tables 4.2.6.8 and 6.1.1.4'
O O 0.0492 0.0322 'International Tables Vol C Tables 4.2.6.8 and 6.1.1.4'
loop_
_geom_angle_atom_site_label_1
_geom_angle_atom_site_label_2
_geom_angle_atom_site_label_3
_geom_angle
O1 C1 H1A 109.5
O1 C1 H1B 109.5
H1A C1 H1B 109.5
O1 C1 H1C 109.5
H1A C1 H1C 109.5
H1B C1 H1C 109.5
N1 C2 C3 126.58(16)
N1 C2 C4 112.65(15)
C3 C2 C4 120.64(15)
C2 C3 H3A 109.5
C2 C3 H3B 109.5
H3A C3 H3B 109.5
C2 C3 H3C 109.5
H3A C3 H3C 109.5
H3B C3 H3C 109.5
N4 C4 C5 114.91(14)
N4 C4 C2 111.15(14)
C5 C4 C2 112.12(14)
N4 C4 C6 109.90(13)
C5 C4 C6 100.07(14)
C2 C4 C6 107.92(14)
N2 C5 C7 122.94(16)
N2 C5 C4 112.17(15)
C7 C5 C4 124.89(15)
O2 C6 N3 127.19(18)
O2 C6 C4 127.42(17)
N3 C6 C4 105.29(15)
C5 C7 H7A 109.5
C5 C7 H7B 109.5
H7A C7 H7B 109.5
C5 C7 H7C 109.5
H7A C7 H7C 109.5
H7B C7 H7C 109.5
N3 C8 H8A 109.5
N3 C8 H8B 109.5
H8A C8 H8B 109.5
N3 C8 H8C 109.5
H8A C8 H8C 109.5
H8B C8 H8C 109.5
O4 C9 O5 126.22(16)
O4 C9 N4 122.44(16)
O5 C9 N4 111.23(15)
O5 C10 H10A 109.5
O5 C10 H10B 109.5
H10A C10 H10B 109.5
O5 C10 H10C 109.5
H10A C10 H10C 109.5
H10B C10 H10C 109.5
C2 N1 O1 111.99(14)
C5 N2 N3 109.40(15)
C6 N3 N2 112.13(15)
C6 N3 C8 123.85(16)
N2 N3 C8 118.23(15)
C9 N4 O3 116.32(14)
C9 N4 C4 117.23(14)
O3 N4 C4 112.60(12)
N1 O1 C1 107.27(13)
N4 O3 H1 103.7(18)
C9 O5 C10 114.50(15)
loop_
_geom_bond_atom_site_label_1
_geom_bond_atom_site_label_2
_geom_bond_distance
C1 O1 1.438(2)
C1 H1A 0.9800
C1 H1B 0.9800
C1 H1C 0.9800
C2 N1 1.276(2)
C2 C3 1.494(2)
C2 C4 1.524(2)
C3 H3A 0.9800
C3 H3B 0.9800
C3 H3C 0.9800
C4 N4 1.455(2)
C4 C5 1.516(2)
C4 C6 1.555(2)
C5 N2 1.279(2)
C5 C7 1.489(2)
C6 O2 1.214(2)
C6 N3 1.361(2)
C7 H7A 0.9800
C7 H7B 0.9800
C7 H7C 0.9800
C8 N3 1.453(2)
C8 H8A 0.9800
C8 H8B 0.9800
C8 H8C 0.9800
C9 O4 1.210(2)
C9 O5 1.335(2)
C9 N4 1.385(2)
C10 O5 1.451(2)
C10 H10A 0.9800
C10 H10B 0.9800
C10 H10C 0.9800
N1 O1 1.4043(18)
N2 N3 1.411(2)
N4 O3 1.4115(18)
O3 H1 0.91(3)
loop_
_geom_hbond_atom_site_label_D
_geom_hbond_atom_site_label_H
_geom_hbond_atom_site_label_A
_geom_hbond_distance_DH
_geom_hbond_distance_HA
_geom_hbond_distance_DA
_geom_hbond_angle_DHA
_geom_hbond_site_symmetry_A
O3 H1 N2 0.91(3) 1.82(3) 2.727(2) 177(3) 1_565
loop_
_geom_torsion_atom_site_label_1
_geom_torsion_atom_site_label_2
_geom_torsion_atom_site_label_3
_geom_torsion_atom_site_label_4
_geom_torsion
N1 C2 C4 N4 -137.62(15)
C3 C2 C4 N4 46.3(2)
N1 C2 C4 C5 -7.5(2)
C3 C2 C4 C5 176.45(17)
N1 C2 C4 C6 101.80(17)
C3 C2 C4 C6 -74.3(2)
N4 C4 C5 N2 -122.70(16)
C2 C4 C5 N2 109.10(16)
C6 C4 C5 N2 -5.08(18)
N4 C4 C5 C7 56.7(2)
C2 C4 C5 C7 -71.5(2)
C6 C4 C5 C7 174.29(16)
N4 C4 C6 O2 -53.5(2)
C5 C4 C6 O2 -174.79(18)
C2 C4 C6 O2 67.9(2)
N4 C4 C6 N3 129.96(15)
C5 C4 C6 N3 8.67(17)
C2 C4 C6 N3 -108.68(16)
C3 C2 N1 O1 -0.8(3)
C4 C2 N1 O1 -176.64(13)
C7 C5 N2 N3 -179.82(15)
C4 C5 N2 N3 -0.44(19)
O2 C6 N3 N2 173.58(18)
C4 C6 N3 N2 -9.87(19)
O2 C6 N3 C8 21.0(3)
C4 C6 N3 C8 -162.44(17)
C5 N2 N3 C6 7.0(2)
C5 N2 N3 C8 161.22(16)
O4 C9 N4 O3 157.21(16)
O5 C9 N4 O3 -26.4(2)
O4 C9 N4 C4 19.7(2)
O5 C9 N4 C4 -163.88(14)
C5 C4 N4 C9 55.7(2)
C2 C4 N4 C9 -175.67(14)
C6 C4 N4 C9 -56.26(19)
C5 C4 N4 O3 -83.32(17)
C2 C4 N4 O3 45.36(18)
C6 C4 N4 O3 164.77(13)
C2 N1 O1 C1 177.27(15)
O4 C9 O5 C10 3.3(3)
N4 C9 O5 C10 -172.91(17)
