#------------------------------------------------------------------------------
#$Date: 2019-11-24 01:20:42 +0200 (Sun, 24 Nov 2019) $
#$Revision: 235961 $
#$URL: file:///home/coder/svn-repositories/cod/cif/4/03/73/4037328.cif $
#------------------------------------------------------------------------------
#
# This file is available in the Crystallography Open Database (COD),
# http://www.crystallography.net/
#
# All data on this site have been placed in the public domain by the
# contributors.
#
data_4037328
loop_
_publ_author_name
'Saint-Louis, Carl Jacky'
'Magill, Lacey L.'
'Wilson, Julie A.'
'Schroeder, Andrew R.'
'Harrell, Sarah E.'
'Jackson, Nicolle S.'
'Trindell, Jamie A.'
'Kim, Saraphina'
'Fisch, Alexander R.'
'Munro, Lyndsay'
'Catalano, Vincent J.'
'Webster, Charles Edwin'
'Vaughan, Pamela P.'
'Molek, Karen S.'
'Schrock, Alan K.'
'Huggins, Michael T.'
_publ_section_title
;
 The Synthesis and Characterization of Highly Fluorescent Polycyclic
 Azaborine Chromophores.
;
_journal_issue                   22
_journal_name_full               'The Journal of organic chemistry'
_journal_page_first              10955
_journal_page_last               10963
_journal_paper_doi               10.1021/acs.joc.6b01998
_journal_volume                  81
_journal_year                    2016
_chemical_formula_sum            'C14 H14 B N O2'
_chemical_formula_weight         239.07
_space_group_crystal_system      triclinic
_space_group_IT_number           2
_space_group_name_Hall           '-P 1'
_space_group_name_H-M_alt        'P -1'
_atom_sites_solution_hydrogens   geom
_audit_creation_method           SHELXL-2014/7
_cell_angle_alpha                73.1530(10)
_cell_angle_beta                 83.8130(10)
_cell_angle_gamma                82.0180(10)
_cell_formula_units_Z            2
_cell_length_a                   7.4434(5)
_cell_length_b                   8.1430(5)
_cell_length_c                   10.3466(6)
_cell_measurement_reflns_used    4260
_cell_measurement_temperature    100(2)
_cell_measurement_theta_max      32.12
_cell_measurement_theta_min      2.63
_cell_volume                     592.88(6)
_computing_cell_refinement       'Bruker SAINT'
_computing_data_collection       'Bruker APEX2'
_computing_data_reduction        'Bruker SAINT'
_computing_molecular_graphics    'Bruker SHELXTL'
_computing_publication_material  'Bruker SHELXTL'
_computing_structure_refinement  'SHELXL-2014/7 (Sheldrick, 2014)'
_computing_structure_solution    'SHELXS-97 (Sheldrick 2008)'
_diffrn_ambient_temperature      100(2)
_diffrn_measured_fraction_theta_full 1.000
_diffrn_measured_fraction_theta_max 0.999
_diffrn_measurement_device_type  'Bruker APEX-II CCD'
_diffrn_measurement_method       '\f and \w scans'
_diffrn_radiation_type           MoK\a
_diffrn_radiation_wavelength     0.71073
_diffrn_reflns_av_R_equivalents  0.0298
_diffrn_reflns_av_unetI/netI     0.0276
_diffrn_reflns_Laue_measured_fraction_full 1.000
_diffrn_reflns_Laue_measured_fraction_max 0.999
_diffrn_reflns_limit_h_max       10
_diffrn_reflns_limit_h_min       -10
_diffrn_reflns_limit_k_max       11
_diffrn_reflns_limit_k_min       -11
_diffrn_reflns_limit_l_max       14
_diffrn_reflns_limit_l_min       -14
_diffrn_reflns_number            14626
_diffrn_reflns_point_group_measured_fraction_full 1.000
_diffrn_reflns_point_group_measured_fraction_max 0.999
_diffrn_reflns_theta_full        25.242
_diffrn_reflns_theta_max         29.996
_diffrn_reflns_theta_min         2.062
_exptl_absorpt_coefficient_mu    0.088
_exptl_absorpt_correction_T_max  0.7464
_exptl_absorpt_correction_T_min  0.6687
_exptl_absorpt_correction_type   multi-scan
_exptl_absorpt_process_details
;
Krause. L., Herbst-Irmer, R., Sheldrick, G. M., Stalke, D.
(2015). J. Appl. Cryst. 48, 3-10.
;
_exptl_crystal_colour            colourless
_exptl_crystal_density_diffrn    1.339
_exptl_crystal_description       rod
_exptl_crystal_F_000             252
_exptl_crystal_size_max          0.480
_exptl_crystal_size_mid          0.082
_exptl_crystal_size_min          0.044
_refine_diff_density_max         0.691
_refine_diff_density_min         -0.755
_refine_diff_density_rms         0.074
_refine_ls_extinction_method     none
_refine_ls_goodness_of_fit_ref   1.424
_refine_ls_hydrogen_treatment    constr
_refine_ls_matrix_type           full
_refine_ls_number_parameters     163
_refine_ls_number_reflns         3458
_refine_ls_number_restraints     0
_refine_ls_restrained_S_all      1.424
_refine_ls_R_factor_all          0.0736
_refine_ls_R_factor_gt           0.0579
_refine_ls_shift/su_max          0.000
_refine_ls_shift/su_mean         0.000
_refine_ls_structure_factor_coef Fsqd
_refine_ls_weighting_details
'w=1/[\s^2^(Fo^2^)+(0.1000P)^2^] where P=(Fo^2^+2Fc^2^)/3'
_refine_ls_weighting_scheme      calc
_refine_ls_wR_factor_gt          0.1851
_refine_ls_wR_factor_ref         0.1953
_reflns_Friedel_coverage         0.000
_reflns_number_gt                2753
_reflns_number_total             3458
_reflns_threshold_expression     'I > 2\s(I)'
_cod_data_source_file            jo6b01998_si_002.cif
_cod_data_source_block           uwl010_0m
_cod_database_code               4037328
_shelx_shelxl_version_number     2014/7
_shelx_space_group_comment
; 
The symmetry employed for this shelxl refinement is uniquely defined 
by the following loop, which should always be used as a source of 
symmetry information in preference to the above space-group names. 
They are only intended as comments. 
;
_shelx_estimated_absorpt_t_min   0.959
_shelx_estimated_absorpt_t_max   0.996
_shelx_res_file
; 
  
    uwl010_0m.res created by SHELXL-2014/7 
  
TITL uwl010_0m in P-1 
CELL 0.71073 7.4434 8.1430 10.3466 73.153 83.813 82.018 
ZERR 2.00 0.0005 0.0005 0.0006 0.001 0.001 0.001 
LATT 1 
SFAC C H N O B 
UNIT 28 28 2 4 2 
TEMP -173 
omit 0 60 
L.S. 48 
conf 
size 0.480 0.082 0.044 
FMAP 2 
acta 
PLAN 5 
  
BOND $H 
CONF 
EQIV $1 -x+2, -y+1, -z+2 
HTAB O1 O2 
HTAB O1 O2_$1 
HTAB 
WGHT    0.100000 
FVAR       0.27274 
O1    4    0.808889    0.695562    1.116247    11.00000    0.01229    0.02321 = 
         0.02424   -0.00795   -0.00405   -0.00004 
AFIX  83 
H1A   2    0.883842    0.654226    1.063957    11.00000   -1.50000 
AFIX   0 
N1    3    0.606509    0.694838    0.943117    11.00000    0.00804    0.01231 = 
         0.01656   -0.00348   -0.00019   -0.00038 
C1    1    0.728319    0.628086    0.853029    11.00000    0.01198    0.00931 = 
         0.01752   -0.00102    0.00306   -0.00148 
B1    5    0.642763    0.731836    1.065606    11.00000    0.01252    0.01122 = 
         0.01698   -0.00173    0.00006   -0.00300 
O2    4    0.891040    0.586700    0.868375    11.00000    0.01063    0.01913 = 
         0.02652   -0.00253    0.00154    0.00264 
C2    1    0.623710    0.620422    0.741602    11.00000    0.01442    0.01177 = 
         0.01724   -0.00428    0.00383   -0.00295 
C3    1    0.447777    0.677859    0.768015    11.00000    0.01382    0.01112 = 
         0.01485   -0.00238    0.00076   -0.00267 
C4    1    0.432125    0.725027    0.894837    11.00000    0.00972    0.00920 = 
         0.01477   -0.00075   -0.00009   -0.00225 
C5    1    0.286201    0.787313    0.962985    11.00000    0.01113    0.01171 = 
         0.01369   -0.00296   -0.00070   -0.00126 
AFIX  43 
H5A   2    0.169623    0.801429    0.929230    11.00000   -1.20000 
AFIX   0 
C6    1    0.302482    0.833525    1.086921    11.00000    0.01363    0.00888 = 
         0.01526   -0.00194    0.00166   -0.00207 
C7    1    0.149150    0.899302    1.155594    11.00000    0.01587    0.01177 = 
         0.01903   -0.00245    0.00189   -0.00024 
AFIX  43 
H7A   2    0.032364    0.910729    1.122771    11.00000   -1.20000 
AFIX   0 
C8    1    0.167122    0.947586    1.270797    11.00000    0.02491    0.01279 = 
         0.02011   -0.00518    0.00664   -0.00153 
AFIX  43 
H8A   2    0.062921    0.993533    1.315956    11.00000   -1.20000 
AFIX   0 
C9    1    0.337876    0.929049    1.320989    11.00000    0.03056    0.01424 = 
         0.01497   -0.00433    0.00266   -0.00511 
AFIX  43 
H9A   2    0.350085    0.963141    1.399697    11.00000   -1.20000 
AFIX   0 
C10   1    0.488996    0.860891    1.255644    11.00000    0.02231    0.01385 = 
         0.01566   -0.00254   -0.00216   -0.00367 
AFIX  43 
H10A  2    0.604479    0.847004    1.291023    11.00000   -1.20000 
AFIX   0 
C11   1    0.475311    0.811889    1.138330    11.00000    0.01552    0.01021 = 
         0.01416   -0.00146   -0.00081   -0.00291 
C12   1    0.712130    0.560306    0.624064    11.00000    0.02070    0.01731 = 
         0.02098   -0.00849    0.00655   -0.00250 
AFIX  23 
H12A  2    0.616565    0.540674    0.572420    11.00000   -1.20000 
H12B  2    0.787099    0.448563    0.658459    11.00000   -1.20000 
AFIX   0 
C13   1    0.832248    0.688610    0.528847    11.00000    0.02022    0.02288 = 
         0.01654   -0.00460    0.00175   -0.00301 
AFIX  33 
H13A  2    0.886413    0.642650    0.454041    11.00000   -1.50000 
H13B  2    0.758377    0.798816    0.492672    11.00000   -1.50000 
H13C  2    0.928999    0.706658    0.578755    11.00000   -1.50000 
AFIX   0 
C14   1    0.289372    0.697938    0.685341    11.00000    0.01616    0.02452 = 
         0.01681   -0.00587   -0.00113   -0.00406 
AFIX  33 
H14A  2    0.179430    0.742553    0.731194    11.00000   -1.50000 
H14B  2    0.312160    0.778907    0.596105    11.00000   -1.50000 
H14C  2    0.272605    0.585528    0.674486    11.00000   -1.50000 
  
AFIX   0 
HKLF 4 1 1 0 0 0 1 0 0 0 1 
  
REM  uwl010_0m in P-1 
REM R1 =  0.0579 for    2753 Fo > 4sig(Fo)  and  0.0736 for all    3458 data 
REM    163 parameters refined using      0 restraints 
  
END 
  
WGHT      0.1047      0.2584 
  
REM Instructions for potential hydrogen bonds 
HTAB O1 O2 
HTAB O1 O2_$1 
  
REM Highest difference peak  0.691,  deepest hole -0.755,  1-sigma level  0.074 
Q1    1   0.3250  0.6625  0.6077  11.00000  0.05    0.69 
Q2    1   0.2385  0.8204  0.6530  11.00000  0.05    0.66 
Q3    1   0.1916  0.6373  0.7429  11.00000  0.05    0.61 
Q4    1   0.5598  0.7737  1.0990  11.00000  0.05    0.55 
Q5    1   0.2943  0.8015  1.0318  11.00000  0.05    0.48 
;
_shelx_res_checksum              26668
_shelx_hkl_file
; 
  -1   0   0  152.85    1.89 
  -1   0   0  154.40    1.90 
   1   0   0  153.83    1.75 
   1   0   0  154.71    1.97 
   1   0   0  154.35    1.75 
  -2   0   0   87.47    1.16 
  -2   0   0   86.45    1.17 
  -2   0   0   89.17    1.17 
   2   0   0   87.66    1.05 
   2   0   0   86.63    1.20 
   2   0   0   87.26    1.19 
   2   0   0   86.76    1.04 
  -3   0   0    9.45    0.26 
  -3   0   0    8.95    0.27 
   3   0   0    8.98    0.28 
   3   0   0    9.28    0.21 
   3   0   0    9.39    0.20 
   3   0   0    9.03    0.26 
  -4   0   0   10.46    0.32 
   4   0   0    9.88    0.24 
   4   0   0   10.14    0.26 
   4   0   0   10.27    0.35 
   4   0   0   10.20    0.32 
  -5   0   0    5.89    0.29 
  -5   0   0    5.44    0.29 
   5   0   0    5.94    0.27 
   5   0   0    6.19    0.31 
   5   0   0    5.40    0.22 
   5   0   0    6.37    0.33 
  -6   0   0    4.32    0.31 
  -6   0   0    4.43    0.31 
   6   0   0    4.37    0.34 
   6   0   0    4.47    0.35 
  -7   0   0    8.52    0.42 
  -7   0   0    7.80    0.39 
   7   0   0    8.20    0.32 
   7   0   0    7.68    0.43 
   7   0   0    7.82    0.43 
  -8   0   0    0.06    0.18 
  -8   0   0    0.46    0.20 
   8   0   0    0.13    0.23 
   8   0   0    0.38    0.16 
   8   0   0    0.42    0.23 
  -9   0   0    6.69    0.44 
  -9   0   0    7.41    0.49 
   9   0   0    6.73    0.38 
   9   0   0    6.60    0.53 
 -10   0   0    1.51    0.32 
  10   0   0    0.90    0.33 
  10   0   0    1.31    0.25 
  10  -1   0    4.20    0.47 
  10  -1   0    4.44    0.36 
 -10   1   0    4.36    0.44 
   9  -1   0    0.20    0.20 
   9  -1   0   -0.32    0.27 
  -9   1   0    0.25    0.22 
  -9   1   0    0.22    0.22 
   8  -1   0    1.09    0.20 
   8  -1   0    0.49    0.25 
   8  -1   0    0.34    0.25 
  -8   1   0    0.76    0.23 
  -8   1   0    0.70    0.22 
   7  -1   0   14.03    0.52 
   7  -1   0   12.55    0.52 
   7  -1   0   14.20    0.43 
  -7   1   0   13.30    0.51 
  -7   1   0   13.49    0.52 
   6  -1   0   93.39    1.53 
   6  -1   0   94.73    1.51 
   6  -1   0   92.50    1.30 
  -6   1   0   90.93    1.50 
  -6   1   0   91.27    1.52 
   5  -1   0   20.32    0.43 
   5  -1   0   20.65    0.54 
   5  -1   0   20.57    0.52 
  -5   1   0   21.09    0.54 
   4  -1   0    0.12    0.11 
   4  -1   0   -0.05    0.10 
   4  -1   0    0.07    0.09 
  -4   1   0    0.00    0.09 
  -4   1   0   -0.04    0.10 
   3  -1   0   -0.03    0.07 
   3  -1   0    0.00    0.09 
   3  -1   0    0.08    0.09 
  -3   1   0   -0.07    0.08 
  -3   1   0   -0.05    0.08 
   2  -1   0   58.52    0.76 
   2  -1   0   58.88    0.85 
   2  -1   0   59.34    0.84 
  -2   1   0   58.76    0.83 
  -2   1   0   58.46    0.78 
  -2   1   0   57.33    0.85 
  -2   1   0   59.00    0.83 
   1  -1   0    1.21    0.10 
   1  -1   0    1.29    0.11 
   1  -1   0    1.51    0.10 
  -1   1   0    1.25    0.10 
  -1   1   0    1.07    0.09 
  -1   1   0    1.25    0.11 
  -1   1   0    1.40    0.10 
   0  -1   0   18.84    0.24 
   0  -1   0   18.62    0.27 
   0  -1   0   18.18    0.29 
   0   1   0   18.72    0.25 
   0   1   0   18.50    0.27 
  -1  -1   0    4.51    0.12 
  -1  -1   0    4.55    0.16 
  -1  -1   0    4.61    0.11 
  -1  -1   0    4.53    0.15 
  -2  -1   0    9.02    0.20 
  -2  -1   0    8.99    0.23 
  -2  -1   0    8.94    0.23 
  -2  -1   0    9.19    0.24 
   2   1   0    8.73    0.25 
  -3  -1   0   13.51    0.33 
  -3  -1   0   14.09    0.30 
  -3  -1   0   13.55    0.33 
   3   1   0   13.69    0.19 
   3   1   0   13.93    0.35 
  -4  -1   0    7.82    0.26 
  -4  -1   0    7.93    0.29 
  -4  -1   0    8.25    0.29 
   4   1   0    8.23    0.23 
   4   1   0    7.68    0.19 
   4   1   0    8.05    0.18 
   4   1   0    7.46    0.28 
  -5  -1   0   18.51    0.50 
  -5  -1   0   19.50    0.46 
   5   1   0   19.98    0.52 
   5   1   0   19.66    0.37 
   5   1   0   19.16    0.35 
   5   1   0   20.18    0.38 
   5   1   0   19.28    0.53 
  -6  -1   0    6.72    0.33 
  -6  -1   0    6.67    0.35 
   6   1   0    6.86    0.39 
   6   1   0    6.58    0.37 
   6   1   0    6.04    0.24 
  -7  -1   0    7.48    0.40 
  -7  -1   0    6.59    0.34 
   7   1   0    6.57    0.40 
   7   1   0    7.23    0.42 
   7   1   0    6.80    0.27 
  -8  -1   0    0.04    0.18 
  -8  -1   0    0.03    0.16 
   8   1   0    0.29    0.22 
   8   1   0   -0.04    0.22 
  -9  -1   0    0.23    0.23 
   9   1   0   -0.01    0.15 
   9   1   0    0.07    0.24 
 -10  -1   0    0.43    0.27 
  10   1   0    0.14    0.19 
  10   1   0   -0.03    0.27 
   9  -2   0    0.00    0.20 
   9  -2   0   -0.36    0.26 
  -9   2   0    0.09    0.21 
  -9   2   0    0.43    0.25 
   8  -2   0   -0.14    0.21 
   8  -2   0    0.11    0.17 
  -8   2   0    0.31    0.21 
  -8   2   0   -0.11    0.17 
   7  -2   0    0.66    0.17 
   7  -2   0    0.50    0.21 
   7  -2   0    0.22    0.20 
  -7   2   0    0.76    0.22 
  -7   2   0    0.40    0.18 
   6  -2   0    1.23    0.22 
   6  -2   0    1.24    0.23 
   6  -2   0    1.29    0.18 
  -6   2   0    1.69    0.22 
  -6   2   0    1.14    0.22 
   5  -2   0    3.62    0.30 
   5  -2   0    3.93    0.29 
   5  -2   0    3.59    0.25 
  -5   2   0    3.85    0.30 
  -5   2   0    3.12    0.25 
   4  -2   0    5.57    0.28 
   4  -2   0    5.59    0.23 
   4  -2   0    5.44    0.26 
  -4   2   0    5.43    0.25 
  -4   2   0    5.84    0.29 
  -4   2   0    5.54    0.17 
  -4   2   0    5.57    0.26 
   3  -2   0    0.17    0.11 
   3  -2   0    0.14    0.10 
   3  -2   0    0.24    0.09 
  -3   2   0    0.27    0.08 
  -3   2   0    0.26    0.09 
  -3   2   0    0.16    0.10 
  -3   2   0    0.34    0.11 
   2  -2   0    3.94    0.16 
   2  -2   0    4.29    0.16 
   2  -2   0    4.27    0.19 
  -2   2   0    4.15    0.19 
  -2   2   0    4.07    0.19 
  -2   2   0    4.01    0.17 
  -2   2   0    4.09    0.16 
   1  -2   0   86.79    1.04 
   1  -2   0   85.02    1.14 
   1  -2   0   85.86    1.19 
  -1   2   0   87.04    1.28 
  -1   2   0   87.93    1.10 
  -1   2   0   87.13    1.10 
  -1   2   0   84.68    1.16 
   0  -2   0  169.91    2.26 
   0  -2   0  171.37    2.16 
   0   2   0  175.09    2.01 
   0   2   0  175.76    2.15 
   0   2   0  173.51    2.43 
  -1  -2   0  834.87   10.05 
  -1  -2   0  830.20   10.71 
  -1  -2   0  795.88   10.29 
   1   2   0  840.26   10.18 
  -2  -2   0    6.52    0.19 
  -2  -2   0    6.85    0.17 
  -2  -2   0    6.50    0.23 
  -3  -2   0    7.03    0.26 
  -3  -2   0    6.91    0.20 
  -3  -2   0    6.73    0.24 
  -3  -2   0    6.46    0.23 
  -4  -2   0    0.93    0.13 
  -4  -2   0    1.18    0.12 
  -4  -2   0    1.05    0.14 
   4   2   0    0.95    0.14 
   4   2   0    1.00    0.16 
  -5  -2   0   30.59    0.65 
  -5  -2   0   29.53    0.66 
  -5  -2   0   30.63    0.58 
   5   2   0   29.96    0.43 
   5   2   0   30.20    0.44 
   5   2   0   30.26    0.61 
   5   2   0   31.08    0.68 
  -6  -2   0    0.72    0.18 
  -6  -2   0    0.62    0.15 
   6   2   0    0.55    0.10 
   6   2   0    0.50    0.20 
  -7  -2   0    0.56    0.15 
  -7  -2   0    0.70    0.20 
   7   2   0    0.78    0.22 
   7   2   0    0.97    0.13 
   7   2   0    0.98    0.23 
  -8  -2   0    7.04    0.39 
  -8  -2   0    6.77    0.43 
   8   2   0    6.41    0.29 
   8   2   0    6.97    0.47 
   8   2   0    6.38    0.45 
  -9  -2   0    2.55    0.34 
   9   2   0    2.43    0.23 
   9   2   0    2.16    0.35 
 -10  -2   0    7.23    0.52 
  10   2   0    8.21    0.40 
  10   2   0    7.62    0.57 
   9  -3   0    1.34    0.34 
   9  -3   0    1.50    0.26 
  -9   3   0    1.43    0.33 
  -9   3   0    1.80    0.31 
   8  -3   0    0.22    0.18 
   8  -3   0    0.09    0.23 
  -8   3   0    0.33    0.20 
  -8   3   0   -0.04    0.22 
   7  -3   0    3.52    0.31 
   7  -3   0    3.69    0.29 
   7  -3   0    3.54    0.32 
  -7   3   0    3.67    0.33 
  -7   3   0    3.41    0.35 
   6  -3   0   24.55    0.56 
   6  -3   0   24.90    0.64 
   6  -3   0   26.38    0.65 
  -6   3   0   24.16    0.63 
  -6   3   0   24.22    0.70 
   5  -3   0   83.62    1.20 
   5  -3   0   84.25    1.36 
   5  -3   0   84.52    1.33 
  -5   3   0   82.54    1.43 
  -5   3   0   81.48    1.32 
   4  -3   0    0.43    0.15 
   4  -3   0    0.65    0.15 
   4  -3   0    0.71    0.13 
  -4   3   0    0.25    0.14 
  -4   3   0    0.62    0.16 
  -4   3   0    0.99    0.13 
  -4   3   0    0.68    0.13 
   3  -3   0    0.32    0.10 
   3  -3   0    0.49    0.12 
   3  -3   0    0.10    0.11 
  -3   3   0    0.37    0.11 
  -3   3   0    0.42    0.13 
  -3   3   0    0.22    0.12 
  -3   3   0    0.36    0.09 
   2  -3   0   23.08    0.39 
   2  -3   0   23.94    0.44 
   2  -3   0   23.73    0.48 
  -2   3   0   23.58    0.49 
  -2   3   0   23.74    0.51 
  -2   3   0   24.07    0.41 
  -2   3   0   24.25    0.48 
   1  -3   0    2.30    0.17 
   1  -3   0    2.19    0.12 
   1  -3   0    2.07    0.14 
  -1   3   0    2.42    0.20 
  -1   3   0    2.03    0.14 
  -1   3   0    2.14    0.15 
  -1   3   0    2.30    0.09 
   0  -3   0   62.66    0.95 
   0  -3   0   63.23    0.88 
   0   3   0   63.55    0.89 
   0   3   0   62.21    0.84 
   0   3   0   63.71    1.07 
  -1  -3   0    0.46    0.10 
  -1  -3   0    0.30    0.06 
  -1  -3   0    0.49    0.05 
   1   3   0    0.53    0.05 
   1   3   0    0.47    0.07 
   1   3   0    0.45    0.12 
   1   3   0    0.41    0.06 
  -2  -3   0    0.04    0.06 
  -2  -3   0    0.06    0.10 
  -2  -3   0    0.15    0.07 
   2   3   0    0.07    0.06 
   2   3   0    0.03    0.12 
  -3  -3   0    0.50    0.10 
  -3  -3   0    0.51    0.09 
  -3  -3   0    0.58    0.10 
  -3  -3   0    0.38    0.12 
   3   3   0    0.46    0.14 
  -4  -3   0   72.91    1.03 
  -4  -3   0   70.36    1.10 
  -4  -3   0   70.39    1.13 
   4   3   0   71.35    1.23 
  -5  -3   0    0.09    0.14 
  -5  -3   0    0.28    0.11 
  -5  -3   0    0.26    0.14 
   5   3   0    0.18    0.17 
   5   3   0    0.23    0.15 
  -6  -3   0   11.35    0.43 
  -6  -3   0   11.62    0.36 
  -6  -3   0   11.45    0.46 
   6   3   0   11.58    0.24 
   6   3   0   11.68    0.25 
   6   3   0   12.20    0.43 
   6   3   0   11.82    0.48 
  -7  -3   0    9.40    0.36 
  -7  -3   0    8.50    0.42 
   7   3   0    9.65    0.48 
   7   3   0    9.54    0.26 
  -8  -3   0    2.84    0.31 
   8   3   0    2.42    0.33 
   8   3   0    2.41    0.19 
   8   3   0    2.84    0.35 
  -9  -3   0    1.00    0.26 
   9   3   0    0.73    0.16 
   9   3   0    0.62    0.25 
   9   3   0    0.74    0.29 
 -10  -3   0    0.59    0.26 
  10   3   0    0.75    0.29 
  10   3   0    0.40    0.19 
   9  -4   0    0.19    0.29 
   9  -4   0   -0.13    0.22 
  -9   4   0   -0.22    0.26 
  -9   4   0    0.24    0.23 
   8  -4   0    1.74    0.33 
   8  -4   0    2.27    0.29 
  -8   4   0    2.11    0.35 
  -8   4   0    2.56    0.32 
   7  -4   0    0.36    0.18 
   7  -4   0    0.73    0.22 
   7  -4   0    0.31    0.22 
  -7   4   0    0.20    0.16 
  -7   4   0    0.59    0.24 
   6  -4   0    4.55    0.37 
   6  -4   0    4.49    0.31 
   6  -4   0    4.49    0.35 
  -6   4   0    4.98    0.42 
  -6   4   0    4.41    0.31 
   5  -4   0    3.90    0.31 
   5  -4   0    3.66    0.26 
   5  -4   0    3.94    0.32 
  -5   4   0    3.91    0.27 
  -5   4   0    4.04    0.35 
   4  -4   0    1.50    0.21 
   4  -4   0    2.58    0.19 
   4  -4   0    2.76    0.23 
  -4   4   0    2.38    0.27 
  -4   4   0    2.53    0.21 
  -4   4   0    2.45    0.26 
  -4   4   0    2.59    0.23 
   3  -4   0    0.36    0.14 
   3  -4   0    0.51    0.14 
   3  -4   0    0.29    0.10 
  -3   4   0    0.45    0.15 
  -3   4   0    0.57    0.10 
  -3   4   0    0.40    0.14 
  -3   4   0    0.48    0.15 
   2  -4   0    0.45    0.12 
   2  -4   0    0.51    0.09 
   2  -4   0    0.44    0.13 
  -2   4   0    0.52    0.15 
  -2   4   0    0.35    0.13 
  -2   4   0    0.68    0.08 
  -2   4   0    0.23    0.12 
   1  -4   0    0.50    0.12 
   1  -4   0    0.49    0.11 
   1  -4   0    0.51    0.08 
  -1   4   0    0.56    0.05 
  -1   4   0    0.26    0.10 
  -1   4   0    0.74    0.16 
  -1   4   0    0.49    0.12 
   0  -4   0   15.38    0.40 
   0  -4   0   16.07    0.34 
   0   4   0   15.34    0.34 
   0   4   0   15.75    0.35 
   0   4   0   15.35    0.46 
  -1  -4   0   -0.03    0.10 
  -1  -4   0    0.13    0.07 
   1   4   0    0.03    0.07 
   1   4   0    0.01    0.05 
   1   4   0    0.06    0.13 
   1   4   0    0.13    0.07 
  -2  -4   0   -0.15    0.10 
  -2  -4   0   -0.01    0.05 
  -2  -4   0   -0.01    0.06 
   2   4   0   -0.05    0.04 
   2   4   0    0.04    0.14 
   2   4   0    0.00    0.03 
   2   4   0    0.01    0.06 
  -3  -4   0   12.73    0.31 
  -3  -4   0   12.68    0.33 
  -3  -4   0   12.22    0.41 
   3   4   0   12.53    0.46 
   3   4   0   13.16    0.30 
  -4  -4   0    4.01    0.25 
  -4  -4   0    4.11    0.30 
  -4  -4   0    4.31    0.24 
   4   4   0    4.37    0.32 
  -5  -4   0    6.74    0.27 
  -5  -4   0    6.39    0.32 
  -5  -4   0    6.50    0.33 
   5   4   0    6.42    0.39 
   5   4   0    6.35    0.41 
  -6  -4   0   10.26    0.44 
  -6  -4   0   10.33    0.42 
  -6  -4   0   11.32    0.35 
   6   4   0   10.93    0.50 
   6   4   0   11.10    0.46 
  -7  -4   0    0.43    0.21 
  -7  -4   0    0.22    0.17 
   7   4   0    0.42    0.09 
   7   4   0    0.20    0.21 
  -8  -4   0    4.90    0.39 
   8   4   0    4.60    0.23 
   8   4   0    4.70    0.43 
  -9  -4   0    0.92    0.26 
   9   4   0    1.15    0.29 
   9   4   0    1.09    0.17 
   9   4   0    1.15    0.32 
 -10  -4   0    1.92    0.34 
  10   4   0    2.46    0.24 
  10   4   0    2.07    0.35 
   8  -5   0    0.18    0.28 
  -8   5   0   -0.09    0.26 
   7  -5   0   -0.27    0.22 
  -7   5   0    0.18    0.24 
   6  -5   0    8.74    0.44 
   6  -5   0    8.55    0.44 
  -6   5   0    8.27    0.48 
  -6   5   0    8.70    0.38 
   5  -5   0    9.63    0.42 
   5  -5   0    9.60    0.37 
   5  -5   0   10.17    0.44 
  -5   5   0    9.48    0.36 
  -5   5   0    9.42    0.48 
   4  -5   0   11.50    0.42 
   4  -5   0   12.20    0.44 
   4  -5   0   11.85    0.36 
  -4   5   0   11.74    0.44 
  -4   5   0   11.86    0.35 
  -4   5   0   11.60    0.47 
   3  -5   0    4.94    0.25 
   3  -5   0    5.48    0.32 
   3  -5   0    5.56    0.34 
  -3   5   0    5.58    0.36 
  -3   5   0    5.65    0.22 
  -3   5   0    5.41    0.34 
  -3   5   0    4.88    0.33 
   2  -5   0    0.69    0.17 
   2  -5   0    0.65    0.15 
   2  -5   0    0.49    0.11 
  -2   5   0    0.71    0.19 
  -2   5   0    0.69    0.08 
  -2   5   0    0.61    0.16 
  -2   5   0    0.43    0.17 
   1  -5   0   -0.09    0.11 
   1  -5   0    0.14    0.08 
   1  -5   0   -0.06    0.12 
  -1   5   0   -0.04    0.10 
  -1   5   0   -0.03    0.12 
  -1   5   0    0.22    0.17 
   0  -5   0    9.37    0.28 
   0  -5   0    8.78    0.34 
   0   5   0    9.06    0.42 
   0   5   0    9.56    0.30 
   0   5   0    9.25    0.30 
  -1  -5   0    5.95    0.30 
  -1  -5   0    5.73    0.22 
   1   5   0    6.05    0.37 
   1   5   0    5.92    0.18 
   1   5   0    6.29    0.23 
   1   5   0    6.14    0.23 
  -2  -5   0    0.36    0.16 
  -2  -5   0    0.47    0.10 
  -2  -5   0    0.62    0.06 
   2   5   0    0.60    0.08 
   2   5   0    0.58    0.20 
   2   5   0    0.51    0.10 
   2   5   0    0.50    0.09 
  -3  -5   0    5.06    0.24 
  -3  -5   0    5.13    0.20 
  -3  -5   0    6.03    0.34 
   3   5   0    5.06    0.16 
   3   5   0    5.10    0.21 
   3   5   0    5.29    0.13 
   3   5   0    5.41    0.37 
  -4  -5   0    0.18    0.13 
  -4  -5   0    0.31    0.11 
  -4  -5   0    0.01    0.18 
   4   5   0    0.26    0.11 
   4   5   0    0.37    0.21 
  -5  -5   0   30.74    0.71 
  -5  -5   0   31.57    0.81 
  -5  -5   0   31.54    0.66 
   5   5   0   32.05    0.60 
   5   5   0   32.08    0.83 
  -6  -5   0   -0.02    0.14 
  -6  -5   0   -0.06    0.15 
   6   5   0   -0.07    0.18 
   6   5   0   -0.13    0.18 
  -7  -5   0    0.94    0.21 
  -7  -5   0    1.05    0.25 
   7   5   0    1.08    0.11 
   7   5   0    1.21    0.28 
  -8  -5   0   11.08    0.51 
  -8  -5   0   11.27    0.58 
   8   5   0   11.15    0.60 
   8   5   0   11.50    0.30 
  -9  -5   0    0.22    0.22 
   9   5   0    0.17    0.22 
   9   5   0   -0.10    0.13 
   9   5   0    0.02    0.27 
   8  -6   0    1.90    0.35 
  -8   6   0    1.21    0.35 
   7  -6   0    1.74    0.32 
  -7   6   0    2.11    0.36 
   6  -6   0    0.96    0.25 
   6  -6   0    1.26    0.25 
  -6   6   0    0.85    0.27 
   5  -6   0    4.35    0.38 
   5  -6   0    4.19    0.34 
  -5   6   0    4.33    0.40 
   4  -6   0   11.73    0.49 
   4  -6   0   11.52    0.45 
  -4   6   0   10.35    0.49 
   3  -6   0    0.11    0.17 
   3  -6   0   -0.06    0.15 
  -3   6   0    0.20    0.18 
  -3   6   0    0.07    0.16 
  -3   6   0   -0.20    0.17 
   2  -6   0   -0.21    0.16 
   2  -6   0    0.15    0.16 
  -2   6   0    0.09    0.15 
  -2   6   0    0.01    0.18 
  -2   6   0   -0.07    0.18 
   1  -6   0   17.65    0.45 
   1  -6   0   18.69    0.54 
  -1   6   0   17.92    0.62 
  -1   6   0   17.85    0.50 
  -1   6   0   17.95    0.52 
   0  -6   0    0.26    0.12 
   0  -6   0    0.00    0.16 
   0   6   0   -0.04    0.13 
   0   6   0   -0.02    0.11 
   0   6   0    0.05    0.19 
  -1  -6   0    0.07    0.16 
  -1  -6   0    0.02    0.10 
   1   6   0    0.02    0.10 
   1   6   0    0.07    0.20 
   1   6   0    0.04    0.12 
  -2  -6   0    3.14    0.21 
  -2  -6   0    2.92    0.27 
   2   6   0    2.90    0.22 
   2   6   0    3.35    0.37 
   2   6   0    3.13    0.21 
  -3  -6   0    5.93    0.39 
  -3  -6   0    5.61    0.27 
   3   6   0    5.31    0.43 
   3   6   0    5.43    0.23 
   3   6   0    5.97    0.26 
  -4  -6   0    7.06    0.33 
  -4  -6   0    6.77    0.42 
   4   6   0    6.78    0.47 
   4   6   0    6.41    0.21 
   4   6   0    7.10    0.27 
  -5  -6   0    3.67    0.36 
  -5  -6   0    3.85    0.31 
  -5  -6   0    3.28    0.27 
   5   6   0    3.12    0.37 
   5   6   0    3.13    0.15 
  -6  -6   0    3.28    0.27 
  -6  -6   0    3.33    0.32 
   6   6   0    3.61    0.38 
  -7  -6   0    2.36    0.32 
  -7  -6   0    2.50    0.27 
   7   6   0    2.73    0.37 
   7   6   0    2.08    0.16 
  -8  -6   0    1.25    0.31 
  -8  -6   0    0.72    0.23 
   8   6   0    1.13    0.14 
   8   6   0    0.60    0.29 
   9   6   0    3.11    0.45 
   9   6   0    3.54    0.24 
   7  -7   0    0.24    0.26 
  -7   7   0    0.25    0.28 
   6  -7   0    1.65    0.33 
   6  -7   0    1.61    0.29 
  -6   7   0    0.83    0.29 
   5  -7   0    0.65    0.23 
   5  -7   0    1.08    0.26 
  -5   7   0    0.81    0.26 
   4  -7   0    4.73    0.38 
   4  -7   0    6.02    0.43 
  -4   7   0    5.67    0.44 
   3  -7   0    1.33    0.25 
   3  -7   0    1.11    0.22 
  -3   7   0    1.43    0.26 
  -3   7   0    1.10    0.27 
  -3   7   0    1.48    0.25 
   2  -7   0   10.58    0.48 
   2  -7   0   10.47    0.40 
  -2   7   0    9.93    0.44 
  -2   7   0   10.51    0.48 
  -2   7   0   10.36    0.52 
   1  -7   0    4.24    0.28 
   1  -7   0    4.27    0.37 
  -1   7   0    4.33    0.41 
  -1   7   0    3.85    0.30 
  -1   7   0    4.38    0.34 
   0  -7   0    4.39    0.35 
   0  -7   0    4.24    0.26 
   0   7   0    4.37    0.32 
   0   7   0    3.84    0.40 
   0   7   0    4.12    0.28 
  -1  -7   0    0.12    0.18 
  -1  -7   0    0.11    0.12 
   1   7   0   -0.01    0.12 
   1   7   0    0.21    0.14 
   1   7   0    0.08    0.22 
  -2  -7   0    0.52    0.20 
  -2  -7   0    1.05    0.16 
   2   7   0    0.67    0.15 
   2   7   0    0.96    0.27 
   2   7   0    1.06    0.16 
  -3  -7   0    0.75    0.23 
  -3  -7   0    0.51    0.14 
   3   7   0    0.60    0.14 
   3   7   0    0.68    0.14 
   3   7   0    0.43    0.26 
  -4  -7   0    2.42    0.32 
  -4  -7   0    2.43    0.24 
   4   7   0    2.14    0.35 
   4   7   0    2.52    0.18 
  -5  -7   0    1.03    0.28 
  -5  -7   0    1.61    0.23 
   5   7   0    1.31    0.15 
   5   7   0    1.59    0.33 
  -6  -7   0    4.55    0.44 
  -6  -7   0    5.05    0.40 
   6   7   0    4.72    0.22 
   6   7   0    4.67    0.47 
  -7  -7   0    0.15    0.21 
   7   7   0    0.01    0.11 
   7   7   0    0.16    0.27 
   7   7   0   -0.07    0.26 
  -8  -7   0    3.92    0.43 
   8   7   0    3.80    0.47 
   8   7   0    3.73    0.24 
   6  -8   0    0.74    0.27 
  -6   8   0    0.22    0.28 
   5  -8   0    1.22    0.27 
   5  -8   0    1.26    0.31 
  -5   8   0    1.52    0.33 
   4  -8   0   -0.07    0.22 
   4  -8   0   -0.01    0.20 
  -4   8   0    0.31    0.24 
   3  -8   0    3.14    0.34 
   3  -8   0    4.44    0.34 
  -3   8   0    4.13    0.44 
  -3   8   0    3.57    0.36 
   2  -8   0    3.62    0.30 
   2  -8   0    3.71    0.36 
  -2   8   0    3.34    0.41 
  -2   8   0    2.70    0.33 
  -2   8   0    3.47    0.33 
   1  -8   0    2.24    0.23 
   1  -8   0    2.25    0.31 
  -1   8   0    1.82    0.34 
  -1   8   0    1.96    0.26 
  -1   8   0    2.56    0.30 
   0  -8   0   14.23    0.58 
   0  -8   0   14.49    0.45 
   0   8   0   15.13    0.51 
   0   8   0   14.87    0.68 
   0   8   0   14.69    0.54 
  -1  -8   0    1.22    0.19 
  -1  -8   0    1.24    0.26 
   1   8   0    1.10    0.23 
   1   8   0    1.21    0.19 
   1   8   0    0.99    0.30 
  -2  -8   0    0.37    0.14 
  -2  -8   0   -0.06    0.20 
   2   8   0    0.20    0.17 
   2   8   0    0.46    0.27 
   2   8   0    0.18    0.14 
  -3  -8   0    0.09    0.13 
  -3  -8   0   -0.39    0.20 
   3   8   0   -0.01    0.15 
   3   8   0   -0.18    0.12 
   3   8   0    0.30    0.27 
  -4  -8   0    0.11    0.25 
  -4  -8   0   -0.06    0.14 
   4   8   0   -0.22    0.24 
   4   8   0    0.07    0.15 
  -5  -8   0    3.35    0.40 
  -5  -8   0    3.47    0.32 
   5   8   0    3.58    0.46 
   5   8   0    3.38    0.26 
  -6  -8   0    3.77    0.37 
  -6  -8   0    3.06    0.41 
   6   8   0    3.23    0.45 
   6   8   0    2.98    0.23 
  -7  -8   0    0.19    0.22 
   7   8   0    0.39    0.30 
   7   8   0    0.36    0.15 
   7   8   0    0.30    0.33 
   4  -9   0    4.93    0.42 
   4  -9   0    5.63    0.49 
  -4   9   0    5.97    0.54 
   3  -9   0    3.69    0.42 
   3  -9   0    3.31    0.31 
  -3   9   0    3.66    0.42 
  -3   9   0    3.33    0.46 
   2  -9   0    4.10    0.33 
   2  -9   0    3.50    0.40 
  -2   9   0    2.86    0.43 
  -2   9   0    4.15    0.43 
  -2   9   0    4.38    0.41 
   1  -9   0    3.43    0.40 
   1  -9   0    3.22    0.29 
  -1   9   0    3.06    0.35 
  -1   9   0    4.33    0.50 
  -1   9   0    2.95    0.33 
   0  -9   0    3.83    0.41 
   0  -9   0    3.79    0.30 
   0   9   0    4.09    0.34 
   0   9   0    3.81    0.35 
   0   9   0    4.29    0.50 
  -1  -9   0    0.37    0.16 
  -1  -9   0    0.68    0.28 
   1   9   0    0.77    0.23 
   1   9   0    0.93    0.33 
   1   9   0    0.69    0.19 
  -2  -9   0    5.36    0.48 
  -2  -9   0    5.26    0.33 
   2   9   0    4.92    0.39 
   2   9   0    5.38    0.53 
   2   9   0    4.93    0.36 
  -3  -9   0    0.57    0.29 
  -3  -9   0    0.17    0.15 
   3   9   0    0.10    0.18 
   3   9   0    0.20    0.31 
  -4  -9   0    0.31    0.18 
  -4  -9   0    0.15    0.28 
   4   9   0    0.33    0.18 
   4   9   0   -0.35    0.30 
  -5  -9   0    1.60    0.38 
  -5  -9   0    2.31    0.31 
   5   9   0    1.78    0.23 
   5   9   0    1.93    0.42 
  -6  -9   0    0.93    0.35 
  -6  -9   0    0.76    0.27 
   6   9   0    1.21    0.40 
   6   9   0    0.50    0.19 
   3 -10   0    0.22    0.31 
  -3  10   0    0.58    0.27 
   2 -10   0    0.28    0.32 
  -2  10   0    0.86    0.37 
  -2  10   0    0.75    0.27 
   1 -10   0    0.10    0.28 
  -1  10   0    0.11    0.29 
  -1  10   0    0.05    0.32 
  -1  10   0    0.58    0.24 
   0 -10   0    2.71    0.43 
   0  10   0    3.19    0.39 
   0  10   0    3.11    0.51 
   0  10   0    3.28    0.36 
  -1 -10   0   -0.19    0.27 
   1  10   0   -0.25    0.30 
   1  10   0    0.18    0.25 
  -2 -10   0    0.80    0.32 
   2  10   0    0.41    0.36 
   2  10   0    0.55    0.25 
  -3 -10   0    1.84    0.40 
   3  10   0    1.49    0.46 
   3  10   0    2.04    0.30 
  -4 -10   0    0.86    0.37 
   4  10   0    0.34    0.22 
   4  10   0    0.06    0.35 
  -5 -10   0    1.45    0.40 
   5  10   0    1.80    0.47 
   5  10   0    1.00    0.24 
   4  10  -1   -0.08    0.35 
   4  10  -1   -0.50    0.21 
  -4 -10   1    0.12    0.33 
  -4 -10   1    0.15    0.21 
   3  10  -1    0.30    0.38 
   3  10  -1    0.14    0.24 
  -3 -10   1    0.20    0.18 
  -3 -10   1    0.27    0.32 
   2  10  -1   -0.56    0.33 
   2  10  -1    0.08    0.25 
  -2 -10   1    0.04    0.17 
  -2 -10   1    0.66    0.33 
   1  10  -1    0.03    0.27 
   1  10  -1    0.50    0.39 
  -1 -10   1    0.26    0.19 
  -1 -10   1    0.29    0.32 
   0  10  -1    4.92    0.47 
   0  10  -1    4.43    0.56 
   0 -10   1    4.84    0.52 
   0 -10   1    4.96    0.38 
  -1  10  -1    0.11    0.24 
  -1  10  -1   -0.01    0.28 
  -1  10  -1   -0.04    0.34 
   1 -10   1    0.74    0.32 
   1 -10   1   -0.09    0.18 
  -2  10  -1    0.21    0.34 
  -2  10  -1    0.03    0.24 
   2 -10   1    0.27    0.31 
   6   9  -1    1.86    0.44 
   6   9  -1    1.80    0.25 
  -6  -9   1    2.15    0.34 
  -6  -9   1    2.55    0.46 
   5   9  -1    0.62    0.37 
   5   9  -1    0.79    0.22 
  -5  -9   1    0.92    0.35 
  -5  -9   1    1.31    0.28 
   4   9  -1    0.37    0.35 
   4   9  -1    0.42    0.21 
  -4  -9   1    0.28    0.20 
  -4  -9   1    0.26    0.30 
   3   9  -1   -0.24    0.30 
   3   9  -1    0.03    0.20 
  -3  -9   1    0.24    0.17 
  -3  -9   1    0.10    0.27 
   2   9  -1   -0.07    0.19 
   2   9  -1    0.12    0.31 
  -2  -9   1    0.36    0.30 
  -2  -9   1    0.26    0.16 
   1   9  -1    0.23    0.22 
   1   9  -1    0.03    0.29 
  -1  -9   1   -0.06    0.25 
  -1  -9   1    0.05    0.15 
   0   9  -1    2.87    0.32 
   0   9  -1    2.53    0.42 
   0   9  -1    2.68    0.33 
   0  -9   1    2.11    0.36 
   0  -9   1    2.17    0.26 
  -1   9  -1    4.84    0.43 
  -1   9  -1    4.69    0.53 
  -1   9  -1    4.52    0.40 
   1  -9   1    4.83    0.45 
   1  -9   1    4.23    0.36 
  -2   9  -1    1.20    0.34 
  -2   9  -1    1.21    0.29 
  -2   9  -1    1.73    0.40 
   2  -9   1    2.10    0.36 
   2  -9   1    2.17    0.28 
  -3   9  -1    1.17    0.38 
  -3   9  -1    0.74    0.27 
   3  -9   1    0.97    0.31 
   3  -9   1    1.38    0.26 
  -4   9  -1    0.11    0.27 
   4  -9   1    0.34    0.23 
   4  -9   1    0.48    0.31 
   7   8  -1    1.46    0.40 
   7   8  -1    1.34    0.20 
  -7  -8   1    1.20    0.31 
   6   8  -1    0.41    0.33 
   6   8  -1   -0.15    0.15 
  -6  -8   1    0.03    0.20 
   5   8  -1    2.59    0.24 
   5   8  -1    2.39    0.41 
  -5  -8   1    2.28    0.38 
  -5  -8   1    3.41    0.34 
   4   8  -1    5.93    0.35 
   4   8  -1    4.88    0.51 
  -4  -8   1    5.38    0.49 
  -4  -8   1    5.53    0.36 
   3   8  -1   -0.19    0.24 
   3   8  -1    0.18    0.16 
  -3  -8   1    0.19    0.25 
  -3  -8   1    0.24    0.15 
   2   8  -1    4.02    0.45 
   2   8  -1    4.46    0.34 
  -2  -8   1    5.26    0.31 
  -2  -8   1    4.24    0.42 
   1   8  -1    0.10    0.14 
   1   8  -1    0.18    0.19 
   1   8  -1    0.26    0.27 
  -1  -8   1    0.19    0.14 
  -1  -8   1    0.12    0.21 
   0   8  -1    0.18    0.16 
   0   8  -1    0.00    0.24 
   0   8  -1    0.14    0.19 
   0  -8   1    0.29    0.15 
   0  -8   1    0.12    0.23 
  -1   8  -1    6.15    0.45 
  -1   8  -1    6.00    0.39 
  -1   8  -1    6.27    0.51 
   1  -8   1    5.61    0.44 
   1  -8   1    5.93    0.35 
  -2   8  -1    0.08    0.19 
  -2   8  -1   -0.22    0.21 
  -2   8  -1    0.21    0.25 
   2  -8   1    0.02    0.21 
   2  -8   1   -0.06    0.16 
  -3   8  -1    1.51    0.34 
  -3   8  -1    1.39    0.28 
   3  -8   1    1.34    0.29 
   3  -8   1    1.13    0.23 
  -4   8  -1    0.34    0.24 
   4  -8   1    0.32    0.23 
   4  -8   1    0.19    0.25 
  -5   8  -1    2.76    0.39 
   5  -8   1    3.60    0.38 
  -6   8  -1    0.09    0.26 
   6  -8   1    0.22    0.26 
   8   7  -1    1.57    0.38 
   8   7  -1    1.68    0.20 
  -8  -7   1    2.21    0.37 
   7   7  -1    0.18    0.14 
   7   7  -1    0.46    0.31 
  -7  -7   1    0.16    0.24 
   6   7  -1    5.54    0.51 
   6   7  -1    5.31    0.28 
  -6  -7   1    5.22    0.42 
   5   7  -1    5.56    0.51 
   5   7  -1    5.94    0.29 
  -5  -7   1    5.82    0.39 
  -5  -7   1    5.21    0.46 
   4   7  -1   -0.02    0.24 
   4   7  -1    0.04    0.13 
  -4  -7   1    0.10    0.15 
  -4  -7   1    0.01    0.21 
   3   7  -1    0.00    0.13 
   3   7  -1   -0.37    0.21 
  -3  -7   1   -0.18    0.11 
  -3  -7   1    0.50    0.22 
   2   7  -1    6.79    0.29 
   2   7  -1    7.04    0.34 
   2   7  -1    6.34    0.49 
  -2  -7   1    6.37    0.31 
  -2  -7   1    6.04    0.43 
   1   7  -1    3.62    0.25 
   1   7  -1    3.24    0.38 
   1   7  -1    3.06    0.27 
  -1  -7   1    3.27    0.26 
  -1  -7   1    3.45    0.34 
   0   7  -1   -0.09    0.22 
   0   7  -1    0.21    0.17 
   0   7  -1    0.00    0.13 
   0  -7   1    0.24    0.20 
   0  -7   1    0.11    0.13 
  -1   7  -1    0.18    0.22 
  -1   7  -1    0.16    0.18 
  -1   7  -1    0.01    0.15 
   1  -7   1    0.10    0.14 
   1  -7   1    0.02    0.18 
  -2   7  -1    0.55    0.26 
  -2   7  -1    0.73    0.23 
  -2   7  -1    0.69    0.20 
   2  -7   1    0.42    0.21 
   2  -7   1    0.56    0.17 
  -3   7  -1    0.13    0.22 
  -3   7  -1    0.16    0.19 
  -3   7  -1    0.76    0.25 
   3  -7   1    0.27    0.20 
   3  -7   1    0.12    0.17 
  -4   7  -1   16.04    0.65 
   4  -7   1   16.57    0.57 
   4  -7   1   17.20    0.60 
  -5   7  -1    0.64    0.25 
   5  -7   1    0.53    0.24 
   5  -7   1    0.67    0.24 
  -6   7  -1    1.71    0.35 
   6  -7   1    2.64    0.35 
  -7   7  -1    0.47    0.28 
   7  -7   1    0.18    0.26 
   9   6  -1    1.91    0.20 
   9   6  -1    1.49    0.39 
  -9  -6   1    2.12    0.37 
   8   6  -1    0.19    0.29 
   8   6  -1    0.49    0.15 
  -8  -6   1    0.01    0.24 
   7   6  -1    3.60    0.23 
   7   6  -1    3.88    0.44 
  -7  -6   1    4.10    0.39 
   6   6  -1    4.96    0.45 
   6   6  -1    4.82    0.44 
   6   6  -1    4.68    0.24 
  -6  -6   1    5.11    0.38 
   5   6  -1    0.75    0.13 
   5   6  -1    0.91    0.26 
  -5  -6   1    0.71    0.25 
  -5  -6   1    0.74    0.20 
   4   6  -1    3.39    0.37 
   4   6  -1    3.57    0.21 
  -4  -6   1    3.76    0.27 
  -4  -6   1    3.54    0.36 
   3   6  -1    0.03    0.22 
   3   6  -1    0.31    0.12 
   3   6  -1    0.20    0.10 
  -3  -6   1    0.24    0.19 
  -3  -6   1    0.20    0.12 
   2   6  -1   15.68    0.63 
   2   6  -1   16.08    0.40 
   2   6  -1   15.23    0.42 
  -2  -6   1   14.88    0.56 
  -2  -6   1   16.06    0.43 
   1   6  -1    8.78    0.32 
   1   6  -1    8.16    0.35 
   1   6  -1    7.89    0.48 
  -1  -6   1    7.99    0.31 
  -1  -6   1    8.16    0.41 
   0   6  -1   -0.19    0.15 
   0   6  -1    0.13    0.13 
   0   6  -1   -0.12    0.19 
   0  -6   1    0.02    0.12 
   0  -6   1    0.06    0.17 
  -1   6  -1    0.12    0.14 
  -1   6  -1    0.24    0.21 
  -1   6  -1    0.05    0.17 
   1  -6   1   -0.01    0.17 
   1  -6   1    0.28    0.14 
  -2   6  -1    3.52    0.31 
  -2   6  -1    2.96    0.33 
  -2   6  -1    2.67    0.26 
   2  -6   1    2.54    0.26 
   2  -6   1    2.71    0.25 
  -3   6  -1    2.89    0.29 
  -3   6  -1    2.94    0.33 
  -3   6  -1    3.01    0.31 
   3  -6   1    2.70    0.26 
   3  -6   1    2.45    0.26 
  -4   6  -1    1.14    0.25 
  -4   6  -1    1.23    0.24 
   4  -6   1    1.34    0.24 
   4  -6   1    1.14    0.22 
  -5   6  -1    0.47    0.22 
   5  -6   1    0.16    0.22 
   5  -6   1    0.45    0.20 
  -6   6  -1    0.83    0.28 
   6  -6   1    1.36    0.27 
  -7   6  -1    0.84    0.30 
   7  -6   1    1.12    0.30 
   9   5  -1    1.73    0.38 
   9   5  -1    2.14    0.22 
  -9  -5   1    1.59    0.30 
   8   5  -1    0.60    0.14 
   8   5  -1    0.69    0.28 
  -8  -5   1    0.38    0.21 
  -8  -5   1    0.49    0.25 
   7   5  -1    0.06    0.23 
   7   5  -1    0.13    0.11 
  -7  -5   1    0.44    0.20 
  -7  -5   1    0.34    0.19 
   6   5  -1    3.20    0.34 
   6   5  -1    3.22    0.36 
   6   5  -1    3.22    0.19 
  -6  -5   1    3.83    0.34 
  -6  -5   1    3.28    0.28 
   5   5  -1    4.95    0.39 
   5   5  -1    4.92    0.19 
  -5  -5   1    5.01    0.33 
  -5  -5   1    4.74    0.29 
   4   5  -1    8.86    0.26 
   4   5  -1    8.69    0.24 
   4   5  -1    8.94    0.47 
  -4  -5   1    8.95    0.45 
  -4  -5   1    8.51    0.35 
  -4  -5   1    8.67    0.32 
   3   5  -1    1.14    0.13 
   3   5  -1    1.25    0.12 
   3   5  -1    1.63    0.27 
   3   5  -1    1.26    0.10 
  -3  -5   1    1.64    0.14 
  -3  -5   1    1.49    0.24 
  -3  -5   1    1.42    0.16 
   2   5  -1    0.99    0.13 
   2   5  -1    1.01    0.21 
   2   5  -1    1.13    0.11 
   2   5  -1    1.30    0.12 
  -2  -5   1    1.04    0.09 
  -2  -5   1    1.12    0.19 
  -2  -5   1    1.19    0.14 
   1   5  -1   11.51    0.34 
   1   5  -1   11.14    0.47 
   1   5  -1   11.53    0.30 
  -1  -5   1   11.41    0.33 
  -1  -5   1    9.76    0.39 
   0   5  -1    0.03    0.10 
   0   5  -1    0.25    0.13 
   0   5  -1    0.16    0.16 
   0  -5   1   -0.09    0.13 
   0  -5   1    0.10    0.10 
  -1   5  -1    3.25    0.23 
  -1   5  -1    3.42    0.25 
  -1   5  -1    3.85    0.32 
   1  -5   1    3.40    0.26 
   1  -5   1    3.20    0.23 
  -2   5  -1    4.78    0.29 
  -2   5  -1    5.50    0.34 
  -2   5  -1    5.36    0.35 
   2  -5   1    4.75    0.28 
   2  -5   1    4.67    0.29 
  -3   5  -1    0.25    0.19 
  -3   5  -1    0.04    0.18 
  -3   5  -1    0.06    0.16 
  -3   5  -1    0.12    0.08 
   3  -5   1    0.06    0.16 
   3  -5   1   -0.34    0.15 
  -4   5  -1   14.74    0.37 
  -4   5  -1   13.29    0.49 
  -4   5  -1   15.55    0.54 
   4  -5   1   14.47    0.48 
   4  -5   1   13.64    0.46 
  -5   5  -1   77.33    1.23 
  -5   5  -1   75.50    1.45 
   5  -5   1   77.05    1.33 
   5  -5   1   75.42    1.31 
  -6   5  -1    2.45    0.32 
   6  -5   1    2.50    0.29 
   6  -5   1    2.31    0.27 
  -7   5  -1    1.73    0.34 
   7  -5   1    1.58    0.30 
  -8   5  -1   -0.05    0.26 
   8  -5   1   -0.04    0.28 
   9   4  -1    0.42    0.24 
   9   4  -1    0.05    0.28 
   9   4  -1    0.12    0.15 
  -9  -4   1    0.21    0.23 
   8   4  -1    3.47    0.41 
   8   4  -1    3.79    0.25 
  -8  -4   1    3.42    0.36 
  -8  -4   1    3.96    0.40 
   7   4  -1   -0.01    0.10 
   7   4  -1   -0.05    0.20 
  -7  -4   1   -0.31    0.16 
  -7  -4   1   -0.26    0.15 
   6   4  -1    0.58    0.10 
   6   4  -1    0.12    0.18 
   6   4  -1    0.24    0.21 
  -6  -4   1    0.25    0.16 
  -6  -4   1    0.33    0.17 
   5   4  -1    1.31    0.11 
   5   4  -1    1.22    0.09 
   5   4  -1    1.32    0.23 
   5   4  -1    1.18    0.24 
  -5  -4   1    1.13    0.19 
  -5  -4   1    1.15    0.18 
   4   4  -1    0.01    0.07 
   4   4  -1    0.15    0.17 
   4   4  -1    0.08    0.07 
   4   4  -1    0.06    0.05 
  -4  -4   1    0.00    0.11 
  -4  -4   1    0.17    0.12 
  -4  -4   1    0.01    0.16 
   3   4  -1    8.77    0.17 
   3   4  -1    8.50    0.21 
   3   4  -1    9.04    0.23 
   3   4  -1    8.09    0.39 
  -3  -4   1    8.30    0.26 
  -3  -4   1    9.02    0.38 
  -3  -4   1    8.88    0.29 
   2   4  -1  152.55    1.94 
   2   4  -1  150.13    1.83 
   2   4  -1  151.54    1.77 
   2   4  -1  150.26    2.36 
  -2  -4   1  152.99    2.03 
  -2  -4   1  150.95    1.93 
  -2  -4   1  149.81    2.20 
   1   4  -1  328.88    4.03 
   1   4  -1  326.50    3.74 
   1   4  -1  317.66    3.81 
   1   4  -1  323.46    4.63 
  -1  -4   1  326.60    4.33 
  -1  -4   1  329.38    3.92 
  -1  -4   1  327.60    4.11 
   0   4  -1    1.84    0.15 
   0   4  -1    1.82    0.16 
   0   4  -1    1.92    0.22 
   0  -4   1    1.67    0.14 
   0  -4   1    1.71    0.17 
  -1   4  -1    0.94    0.13 
  -1   4  -1    0.66    0.16 
  -1   4  -1    0.79    0.14 
   1  -4   1    0.92    0.06 
   1  -4   1    0.78    0.13 
   1  -4   1    0.80    0.09 
   1  -4   1    0.91    0.14 
  -2   4  -1    2.74    0.12 
  -2   4  -1    2.79    0.22 
  -2   4  -1    2.52    0.21 
  -2   4  -1    2.82    0.24 
   2  -4   1    2.58    0.16 
   2  -4   1    2.89    0.22 
   2  -4   1    2.50    0.19 
  -3   4  -1    0.19    0.15 
  -3   4  -1    0.47    0.17 
  -3   4  -1    0.05    0.14 
  -3   4  -1    0.19    0.08 
   3  -4   1    0.13    0.14 
   3  -4   1    0.01    0.13 
   3  -4   1    0.06    0.10 
  -4   4  -1   19.97    0.59 
  -4   4  -1   20.95    0.55 
  -4   4  -1   20.53    0.46 
   4  -4   1   20.32    0.46 
   4  -4   1   20.81    0.53 
   4  -4   1   19.51    0.52 
  -5   4  -1    0.58    0.14 
  -5   4  -1    0.63    0.20 
   5  -4   1    0.56    0.15 
   5  -4   1    0.35    0.17 
   5  -4   1    0.19    0.16 
  -6   4  -1    3.05    0.26 
  -6   4  -1    3.12    0.34 
   6  -4   1    3.65    0.28 
   6  -4   1    3.05    0.27 
   6  -4   1    3.75    0.32 
  -7   4  -1    0.20    0.22 
  -7   4  -1   -0.03    0.15 
   7  -4   1    0.01    0.16 
   7  -4   1    0.18    0.22 
  -8   4  -1    0.20    0.19 
  -8   4  -1   -0.04    0.23 
   8  -4   1    0.37    0.27 
   8  -4   1   -0.16    0.18 
  -9   4  -1   -0.20    0.19 
  -9   4  -1    0.00    0.26 
   9  -4   1    0.44    0.31 
  10   3  -1    0.14    0.19 
  10   3  -1    0.37    0.27 
 -10  -3   1   -0.09    0.23 
   9   3  -1    1.92    0.23 
   9   3  -1    2.09    0.37 
   9   3  -1    2.21    0.37 
  -9  -3   1    1.83    0.31 
   8   3  -1   10.57    0.57 
   8   3  -1   10.16    0.34 
  -8  -3   1   10.26    0.52 
   7   3  -1   21.08    0.44 
   7   3  -1   22.81    0.73 
  -7  -3   1   21.64    0.65 
  -7  -3   1   21.41    0.67 
   6   3  -1    1.45    0.13 
   6   3  -1    1.99    0.23 
   6   3  -1    1.44    0.25 
  -6  -3   1    1.55    0.22 
  -6  -3   1    1.61    0.23 
  -6  -3   1    1.98    0.19 
   5   3  -1    1.67    0.12 
   5   3  -1    1.77    0.22 
   5   3  -1    1.48    0.11 
   5   3  -1    1.57    0.25 
  -5  -3   1    1.11    0.18 
  -5  -3   1    1.54    0.20 
  -5  -3   1    1.68    0.14 
   4   3  -1    0.12    0.16 
   4   3  -1   -0.01    0.05 
   4   3  -1   -0.14    0.12 
   4   3  -1    0.02    0.04 
  -4  -3   1   -0.04    0.09 
  -4  -3   1   -0.06    0.07 
  -4  -3   1   -0.02    0.10 
   3   3  -1    1.11    0.08 
   3   3  -1    0.86    0.08 
   3   3  -1    1.03    0.17 
   3   3  -1    0.92    0.06 
  -3  -3   1    1.10    0.12 
  -3  -3   1    0.97    0.17 
  -3  -3   1    1.07    0.13 
   2   3  -1    0.87    0.06 
   2   3  -1    0.85    0.08 
   2   3  -1    0.98    0.08 
   2   3  -1    0.95    0.16 
  -2  -3   1    0.67    0.09 
  -2  -3   1    0.70    0.09 
  -2  -3   1    1.02    0.16 
   1   3  -1    6.22    0.15 
   1   3  -1    6.27    0.17 
   1   3  -1    5.98    0.30 
   1   3  -1    6.59    0.19 
  -1  -3   1    5.97    0.14 
  -1  -3   1    6.17    0.20 
  -1  -3   1    6.13    0.25 
   0   3  -1    3.75    0.15 
   0   3  -1    4.09    0.19 
   0   3  -1    3.45    0.23 
   0  -3   1    3.67    0.19 
   0  -3   1    3.74    0.16 
  -1   3  -1    4.60    0.25 
  -1   3  -1    5.22    0.21 
  -1   3  -1    4.80    0.22 
   1  -3   1    4.40    0.20 
   1  -3   1    4.83    0.12 
   1  -3   1    4.94    0.16 
   1  -3   1    4.70    0.21 
  -2   3  -1    0.94    0.14 
  -2   3  -1    0.92    0.09 
  -2   3  -1    0.80    0.14 
  -2   3  -1    1.09    0.16 
   2  -3   1    0.78    0.12 
   2  -3   1    0.90    0.12 
   2  -3   1    0.87    0.10 
  -3   3  -1    3.61    0.22 
  -3   3  -1    3.36    0.25 
  -3   3  -1    4.02    0.26 
  -3   3  -1    4.06    0.18 
   3  -3   1    3.77    0.19 
   3  -3   1    3.75    0.22 
   3  -3   1    3.53    0.21 
  -4   3  -1    5.77    0.27 
  -4   3  -1    5.55    0.30 
  -4   3  -1    5.86    0.25 
  -4   3  -1    5.60    0.32 
   4  -3   1    4.99    0.24 
   4  -3   1    5.21    0.27 
   4  -3   1    5.33    0.29 
  -5   3  -1   31.48    0.66 
  -5   3  -1   30.83    0.77 
   5  -3   1   32.36    0.68 
   5  -3   1   30.57    0.68 
   5  -3   1   32.10    0.61 
  -6   3  -1   55.90    1.16 
  -6   3  -1   56.07    1.04 
   6  -3   1   57.86    1.03 
   6  -3   1   57.23    1.06 
   6  -3   1   57.79    0.93 
  -7   3  -1    0.01    0.20 
  -7   3  -1    0.11    0.15 
   7  -3   1    0.00    0.16 
   7  -3   1    0.24    0.20 
  -8   3  -1    0.27    0.19 
  -8   3  -1    0.31    0.24 
   8  -3   1    0.51    0.26 
   8  -3   1    0.22    0.18 
  -9   3  -1    0.03    0.25 
  -9   3  -1    0.33    0.22 
   9  -3   1   -0.38    0.26 
   9  -3   1    0.42    0.22 
  10   2  -1    1.32    0.35 
 -10  -2   1    1.26    0.32 
   9   2  -1    0.43    0.18 
   9   2  -1    0.65    0.27 
   9   2  -1    0.35    0.28 
  -9  -2   1    0.34    0.24 
   8   2  -1    0.32    0.24 
   8   2  -1    0.23    0.15 
   8   2  -1    0.52    0.23 
  -8  -2   1    0.41    0.20 
   7   2  -1    2.41    0.30 
   7   2  -1    2.07    0.17 
  -7  -2   1    2.26    0.27 
   6   2  -1    8.17    0.26 
   6   2  -1    8.64    0.44 
  -6  -2   1    7.13    0.39 
  -6  -2   1    8.57    0.31 
  -6  -2   1    8.02    0.39 
   5   2  -1    3.44    0.23 
   5   2  -1    3.19    0.28 
   5   2  -1    3.14    0.15 
   5   2  -1    3.24    0.16 
  -5  -2   1    3.16    0.19 
  -5  -2   1    3.53    0.26 
  -5  -2   1    3.23    0.26 
   4   2  -1    1.61    0.10 
   4   2  -1    1.65    0.16 
   4   2  -1    1.52    0.10 
   4   2  -1    1.54    0.19 
  -4  -2   1    1.41    0.12 
  -4  -2   1    1.48    0.16 
  -4  -2   1    1.56    0.16 
   3   2  -1    5.12    0.12 
   3   2  -1    5.22    0.24 
   3   2  -1    5.25    0.11 
   3   2  -1    4.97    0.26 
  -3  -2   1    5.38    0.22 
  -3  -2   1    5.15    0.21 
  -3  -2   1    5.62    0.16 
   2   2  -1    2.74    0.18 
   2   2  -1    2.87    0.09 
   2   2  -1    2.80    0.07 
  -2  -2   1    2.90    0.19 
  -2  -2   1    2.85    0.14 
  -2  -2   1    2.78    0.13 
   1   2  -1  964.02   13.15 
   1   2  -1  979.29   11.17 
   1   2  -1 1000.00   11.92 
   1   2  -1  978.68   11.14 
  -1  -2   1  987.03   11.94 
  -1  -2   1  963.39   12.35 
  -1  -2   1  988.95   12.76 
   0   2  -1  965.24   13.16 
   0   2  -1  945.50   10.88 
   0   2  -1  967.01   11.68 
   0  -2   1  958.22   10.88 
   0  -2   1  933.09   11.99 
   0  -2   1  938.99   12.16 
  -1   2  -1    2.79    0.15 
  -1   2  -1    2.83    0.16 
  -1   2  -1    2.85    0.09 
  -1   2  -1    2.90    0.18 
   1  -2   1    2.70    0.14 
   1  -2   1    2.68    0.14 
   1  -2   1    2.61    0.11 
  -2   2  -1   -0.06    0.09 
  -2   2  -1    0.01    0.06 
  -2   2  -1   -0.11    0.09 
  -2   2  -1   -0.05    0.08 
   2  -2   1   -0.06    0.07 
   2  -2   1   -0.02    0.06 
   2  -2   1   -0.05    0.07 
  -3   2  -1    6.80    0.23 
  -3   2  -1    6.66    0.23 
  -3   2  -1    6.83    0.26 
  -3   2  -1    6.35    0.27 
   3  -2   1    6.69    0.24 
   3  -2   1    6.48    0.23 
   3  -2   1    6.69    0.21 
  -4   2  -1    0.75    0.14 
  -4   2  -1    0.62    0.11 
  -4   2  -1    0.60    0.12 
  -4   2  -1    0.56    0.15 
   4  -2   1    0.64    0.14 
   4  -2   1    0.47    0.11 
   4  -2   1    0.72    0.13 
  -5   2  -1    8.46    0.34 
  -5   2  -1    7.90    0.39 
   5  -2   1    7.71    0.32 
   5  -2   1    8.22    0.36 
   5  -2   1    8.49    0.30 
  -6   2  -1    2.00    0.26 
  -6   2  -1    1.88    0.22 
   6  -2   1    1.64    0.23 
   6  -2   1    2.19    0.23 
   6  -2   1    2.33    0.21 
  -7   2  -1    2.84    0.28 
  -7   2  -1    2.16    0.30 
   7  -2   1    2.58    0.29 
   7  -2   1    2.93    0.31 
   7  -2   1    2.31    0.22 
  -8   2  -1    2.50    0.33 
  -8   2  -1    1.38    0.25 
   8  -2   1    1.25    0.28 
   8  -2   1    1.58    0.22 
  -9   2  -1    5.63    0.44 
  -9   2  -1    4.97    0.47 
   9  -2   1    5.20    0.39 
   9  -2   1    4.88    0.44 
  10   1  -1    0.11    0.19 
  10   1  -1   -0.07    0.29 
 -10  -1   1    0.13    0.26 
   9   1  -1    0.73    0.29 
   9   1  -1    0.58    0.29 
  -9  -1   1    0.72    0.27 
   8   1  -1   -0.22    0.23 
   8   1  -1    0.12    0.22 
   8   1  -1   -0.23    0.12 
  -8  -1   1    0.18    0.19 
   7   1  -1   82.71    1.50 
   7   1  -1   83.28    1.52 
   7   1  -1   82.03    1.19 
  -7  -1   1   84.55    1.35 
  -7  -1   1   81.77    1.46 
   6   1  -1   46.32    0.97 
   6   1  -1   46.19    0.73 
   6   1  -1   45.84    0.96 
  -6  -1   1   44.83    0.83 
  -6  -1   1   47.94    0.94 
   5   1  -1    0.05    0.09 
   5   1  -1    0.10    0.15 
   5   1  -1    0.13    0.09 
   5   1  -1    0.03    0.09 
  -5  -1   1    0.12    0.11 
  -5  -1   1    0.02    0.13 
  -5  -1   1    0.21    0.13 
   4   1  -1    3.55    0.24 
   4   1  -1    3.35    0.17 
   4   1  -1    3.69    0.15 
   4   1  -1    3.56    0.15 
  -4  -1   1    3.63    0.22 
  -4  -1   1    3.54    0.18 
  -4  -1   1    3.40    0.21 
   3   1  -1   15.98    0.26 
   3   1  -1   16.83    0.35 
   3   1  -1   15.82    0.26 
   3   1  -1   15.87    0.40 
  -3  -1   1   16.44    0.31 
  -3  -1   1   16.43    0.37 
  -3  -1   1   16.00    0.37 
   2   1  -1    0.29    0.04 
   2   1  -1    0.18    0.05 
   2   1  -1    0.16    0.08 
   2   1  -1    0.31    0.10 
  -2  -1   1    0.18    0.06 
  -2  -1   1    0.19    0.07 
  -2  -1   1    0.19    0.05 
   1   1  -1    0.07    0.03 
   1   1  -1    0.09    0.04 
   1   1  -1    0.05    0.10 
   1   1  -1    0.12    0.06 
  -1  -1   1    0.14    0.06 
  -1  -1   1   -0.11    0.09 
  -1  -1   1    0.07    0.06 
   0   1  -1    6.92    0.17 
   0   1  -1    7.27    0.22 
   0   1  -1    7.02    0.15 
   0  -1   1    7.10    0.16 
   0  -1   1    7.08    0.14 
   0  -1   1    7.11    0.13 
   0  -1   1    6.75    0.17 
  -1   1  -1   22.65    0.40 
  -1   1  -1   23.27    0.34 
  -1   1  -1   22.61    0.43 
  -1   1  -1   23.67    0.38 
   1  -1   1   22.90    0.37 
   1  -1   1   23.38    0.33 
   1  -1   1   22.95    0.36 
  -2   1  -1   27.21    0.49 
  -2   1  -1   27.95    0.45 
  -2   1  -1   27.95    0.44 
  -2   1  -1   27.47    0.47 
   2  -1   1   27.56    0.40 
   2  -1   1   27.97    0.44 
   2  -1   1   27.20    0.46 
  -3   1  -1   34.69    0.64 
  -3   1  -1   35.87    0.58 
  -3   1  -1   35.09    0.60 
   3  -1   1   35.14    0.52 
   3  -1   1   35.80    0.58 
   3  -1   1   34.21    0.61 
  -4   1  -1   15.20    0.42 
  -4   1  -1   15.81    0.31 
  -4   1  -1   15.75    0.40 
   4  -1   1   15.59    0.37 
   4  -1   1   14.93    0.33 
   4  -1   1   15.28    0.41 
  -5   1  -1    4.19    0.26 
  -5   1  -1    4.76    0.30 
   5  -1   1    4.34    0.22 
   5  -1   1    4.45    0.26 
   5  -1   1    3.64    0.29 
  -6   1  -1    0.81    0.18 
  -6   1  -1    1.01    0.21 
   6  -1   1    1.04    0.16 
   6  -1   1    0.86    0.20 
   6  -1   1    0.83    0.20 
  -7   1  -1    2.11    0.28 
  -7   1  -1    2.24    0.26 
   7  -1   1    2.32    0.21 
   7  -1   1    2.00    0.26 
   7  -1   1    1.99    0.25 
  -8   1  -1    2.95    0.31 
  -8   1  -1    2.75    0.33 
   8  -1   1    3.12    0.26 
   8  -1   1    2.59    0.32 
  -9   1  -1    0.18    0.22 
  -9   1  -1    0.20    0.23 
   9  -1   1    0.29    0.19 
   9  -1   1    0.29    0.26 
 -10   1  -1    0.32    0.26 
 -10   1  -1    0.57    0.26 
  10  -1   1    0.20    0.28 
  10  -1   1    0.46    0.22 
  10   0  -1    0.61    0.35 
  10   0  -1    0.16    0.21 
 -10   0   1    0.23    0.27 
   9   0  -1    2.64    0.39 
   9   0  -1    3.15    0.28 
   9   0  -1    2.57    0.38 
  -9   0   1    2.99    0.37 
   8   0  -1    0.54    0.17 
   8   0  -1    0.65    0.26 
   8   0  -1    0.48    0.25 
  -8   0   1    0.89    0.24 
  -8   0   1    0.52    0.20 
   7   0  -1    0.02    0.21 
   7   0  -1   -0.15    0.20 
   7   0  -1    0.06    0.12 
  -7   0   1    0.12    0.16 
  -7   0   1    0.13    0.17 
   6   0  -1    5.26    0.27 
   6   0  -1    6.22    0.41 
   6   0  -1    5.02    0.38 
  -6   0   1    5.28    0.34 
  -6   0   1    4.83    0.31 
   5   0  -1   11.12    0.41 
   5   0  -1    9.95    0.40 
   5   0  -1   10.03    0.29 
  -5   0   1    9.77    0.37 
  -5   0   1   10.52    0.35 
   4   0  -1    1.70    0.12 
   4   0  -1    2.24    0.20 
   4   0  -1    1.60    0.13 
  -4   0   1    1.72    0.15 
  -4   0   1    1.32    0.15 
   3   0  -1    2.61    0.13 
   3   0  -1    2.62    0.13 
   3   0  -1    2.40    0.18 
  -3   0   1    2.71    0.17 
  -3   0   1    2.67    0.17 
  -3   0   1    2.61    0.15 
   2   0  -1    8.37    0.25 
   2   0  -1    8.27    0.18 
   2   0  -1    7.67    0.17 
   2   0  -1    8.38    0.17 
  -2   0   1    8.06    0.19 
  -2   0   1    8.00    0.22 
   1   0  -1   18.44    0.27 
   1   0  -1   18.84    0.30 
   1   0  -1   18.12    0.33 
  -1   0   1   18.71    0.26 
  -1   0   1   18.57    0.26 
   0   0  -1  230.66    2.84 
   0   0  -1  232.14    2.67 
   0   0  -1  231.78    3.17 
   0   0  -1  233.85    2.98 
   0   0   1  233.79    2.66 
   0   0   1  227.21    2.90 
   0   0   1  228.34    2.90 
  -1   0  -1  206.66    2.55 
  -1   0  -1  214.01    2.85 
  -1   0  -1  204.95    2.53 
   1   0   1  206.69    2.55 
   1   0   1  207.65    2.36 
   1   0   1  206.43    2.35 
   1   0   1  207.78    2.62 
  -2   0  -1    0.33    0.08 
  -2   0  -1    0.39    0.09 
  -2   0  -1    0.26    0.08 
   2   0   1    0.33    0.07 
   2   0   1    0.37    0.07 
   2   0   1    0.23    0.09 
   2   0   1    0.23    0.06 
  -3   0  -1   17.20    0.37 
  -3   0  -1   17.02    0.32 
  -3   0  -1   16.29    0.37 
   3   0   1   16.51    0.30 
   3   0   1   15.93    0.37 
   3   0   1   16.57    0.34 
   3   0   1   16.26    0.28 
  -4   0  -1   23.94    0.51 
  -4   0  -1   24.13    0.42 
  -4   0  -1   22.97    0.51 
   4   0   1   23.56    0.48 
   4   0   1   24.13    0.43 
   4   0   1   23.99    0.52 
   4   0   1   23.51    0.40 
  -5   0  -1    9.22    0.35 
  -5   0  -1    9.82    0.36 
   5   0   1    9.53    0.33 
   5   0   1    9.67    0.34 
   5   0   1    9.29    0.26 
  -6   0  -1   -0.01    0.16 
  -6   0  -1    0.20    0.15 
   6   0   1   -0.10    0.18 
   6   0   1    0.15    0.12 
   6   0   1    0.01    0.17 
  -7   0  -1    3.00    0.29 
  -7   0  -1    2.83    0.27 
   7   0   1    3.37    0.24 
   7   0   1    3.03    0.28 
   7   0   1    2.97    0.30 
  -8   0  -1    0.03    0.17 
  -8   0  -1    0.08    0.17 
   8   0   1   -0.10    0.14 
   8   0   1    0.01    0.21 
  -9   0  -1    3.89    0.38 
  -9   0  -1    4.19    0.40 
   9   0   1    3.37    0.28 
   9   0   1    4.13    0.42 
 -10   0  -1    5.37    0.48 
 -10   0  -1    6.07    0.49 
  10   0   1    5.31    0.39 
  10   0   1    5.06    0.47 
  10  -1  -1    0.25    0.23 
  10  -1  -1   -0.04    0.32 
 -10   1   1    0.09    0.26 
   9  -1  -1    0.25    0.20 
   9  -1  -1    0.02    0.29 
  -9   1   1    0.44    0.24 
  -9   1   1    0.49    0.26 
   8  -1  -1    3.90    0.29 
   8  -1  -1    4.15    0.39 
   8  -1  -1    2.73    0.36 
  -8   1   1    3.45    0.34 
  -8   1   1    3.94    0.37 
   7  -1  -1   -0.37    0.13 
   7  -1  -1   -0.22    0.18 
   7  -1  -1   -0.12    0.19 
  -7   1   1    0.08    0.17 
  -7   1   1    0.21    0.18 
   6  -1  -1   69.49    1.26 
   6  -1  -1   69.67    1.25 
   6  -1  -1   68.91    1.05 
  -6   1   1   67.83    1.22 
  -6   1   1   67.86    1.20 
   5  -1  -1   10.90    0.42 
   5  -1  -1   10.32    0.41 
  -5   1   1   10.25    0.38 
  -5   1   1   11.21    0.38 
   4  -1  -1   -0.07    0.08 
   4  -1  -1    0.01    0.12 
   4  -1  -1    0.08    0.12 
  -4   1   1    0.12    0.10 
  -4   1   1   -0.02    0.10 
   3  -1  -1    7.42    0.22 
   3  -1  -1    6.94    0.26 
   3  -1  -1    7.47    0.27 
  -3   1   1    7.49    0.25 
  -3   1   1    7.65    0.25 
  -3   1   1    7.85    0.23 
   2  -1  -1    0.01    0.07 
   2  -1  -1   -0.08    0.08 
   2  -1  -1    0.01    0.06 
   2  -1  -1   -0.03    0.05 
  -2   1   1    0.05    0.07 
  -2   1   1   -0.16    0.06 
  -2   1   1    0.01    0.06 
   1  -1  -1   11.65    0.22 
   1  -1  -1   12.06    0.25 
   1  -1  -1   11.89    0.23 
   1  -1  -1   11.53    0.27 
  -1   1   1   11.73    0.23 
  -1   1   1   11.86    0.23 
  -1   1   1   11.76    0.22 
   0  -1  -1   10.00    0.13 
   0  -1  -1    9.74    0.18 
   0  -1  -1    9.88    0.15 
   0   1   1    9.82    0.15 
   0   1   1   10.07    0.16 
   0   1   1    9.58    0.17 
  -1  -1  -1    0.11    0.08 
  -1  -1  -1   -0.05    0.05 
  -1  -1  -1   -0.06    0.05 
  -1  -1  -1    0.00    0.04 
  -1  -1  -1    0.05    0.04 
  -2  -1  -1    0.60    0.10 
  -2  -1  -1    0.66    0.09 
  -2  -1  -1    0.61    0.09 
  -2  -1  -1    0.76    0.09 
  -2  -1  -1    0.65    0.09 
  -3  -1  -1   36.80    0.61 
  -3  -1  -1   37.49    0.63 
  -3  -1  -1   36.90    0.62 
   3   1   1   37.07    0.64 
   3   1   1   37.90    0.62 
  -4  -1  -1   38.76    0.66 
  -4  -1  -1   38.30    0.69 
  -4  -1  -1   37.55    0.67 
   4   1   1   38.15    0.71 
   4   1   1   38.77    0.51 
   4   1   1   37.81    0.68 
   4   1   1   38.28    0.52 
  -5  -1  -1    6.34    0.30 
  -5  -1  -1    6.45    0.23 
  -5  -1  -1    6.17    0.28 
   5   1   1    5.82    0.19 
   5   1   1    6.39    0.28 
   5   1   1    6.38    0.32 
   5   1   1    6.01    0.21 
  -6  -1  -1    3.58    0.28 
  -6  -1  -1    4.17    0.30 
   6   1   1    4.36    0.21 
   6   1   1    4.62    0.31 
   6   1   1    4.15    0.34 
  -7  -1  -1    7.56    0.39 
  -7  -1  -1    8.23    0.39 
   7   1   1    7.69    0.42 
   7   1   1    8.10    0.40 
  -8  -1  -1    0.73    0.21 
  -8  -1  -1    1.03    0.22 
   8   1   1    0.93    0.24 
   8   1   1    0.73    0.16 
  -9  -1  -1    2.53    0.32 
  -9  -1  -1    3.12    0.33 
   9   1   1    2.85    0.36 
   9   1   1    3.07    0.25 
 -10  -1  -1    0.00    0.23 
  10   1   1   -0.16    0.23 
  10   1   1   -0.08    0.17 
   9  -2  -1    0.89    0.33 
   9  -2  -1    0.65    0.24 
  -9   2   1    0.52    0.26 
  -9   2   1    0.96    0.28 
   8  -2  -1    3.44    0.36 
   8  -2  -1    3.98    0.31 
   8  -2  -1    3.05    0.37 
  -8   2   1    3.32    0.36 
  -8   2   1    3.72    0.36 
   7  -2  -1    7.30    0.45 
   7  -2  -1    8.13    0.46 
   7  -2  -1    7.81    0.37 
  -7   2   1    7.83    0.44 
  -7   2   1    7.53    0.42 
   6  -2  -1    1.24    0.23 
   6  -2  -1    1.03    0.18 
   6  -2  -1    0.90    0.23 
  -6   2   1    1.00    0.21 
  -6   2   1    0.72    0.18 
   5  -2  -1   21.17    0.56 
   5  -2  -1   22.09    0.49 
   5  -2  -1   22.03    0.58 
  -5   2   1   20.82    0.55 
  -5   2   1   21.55    0.57 
   4  -2  -1    7.98    0.32 
   4  -2  -1    7.76    0.27 
   4  -2  -1    7.82    0.33 
  -4   2   1    8.14    0.28 
  -4   2   1    7.33    0.30 
  -4   2   1    7.77    0.31 
   3  -2  -1    9.80    0.32 
   3  -2  -1    9.52    0.26 
   3  -2  -1    9.85    0.30 
  -3   2   1   10.11    0.29 
  -3   2   1   10.10    0.23 
  -3   2   1   10.10    0.31 
  -3   2   1    9.81    0.29 
   2  -2  -1    6.52    0.20 
   2  -2  -1    6.02    0.20 
   2  -2  -1    5.95    0.19 
   2  -2  -1    5.93    0.23 
  -2   2   1    6.24    0.19 
  -2   2   1    6.48    0.21 
  -2   2   1    5.92    0.21 
   1  -2  -1   22.96    0.35 
   1  -2  -1   22.64    0.42 
   1  -2  -1   22.63    0.35 
   1  -2  -1   22.18    0.44 
  -1   2   1   22.64    0.39 
  -1   2   1   22.37    0.37 
  -1   2   1   22.23    0.35 
   0  -2  -1  131.36    1.88 
   0  -2  -1  131.70    1.63 
   0  -2  -1  130.99    1.74 
   0   2   1  126.85    1.65 
   0   2   1  132.01    1.52 
   0   2   1  132.72    1.59 
  -1  -2  -1    5.70    0.13 
  -1  -2  -1    5.41    0.23 
  -1  -2  -1    5.70    0.18 
   1   2   1    5.74    0.16 
  -2  -2  -1    6.06    0.18 
  -2  -2  -1    6.22    0.18 
  -2  -2  -1    5.63    0.24 
  -2  -2  -1    5.98    0.18 
  -2  -2  -1    6.03    0.20 
  -3  -2  -1   13.47    0.30 
  -3  -2  -1   13.20    0.32 
  -3  -2  -1   13.48    0.32 
  -3  -2  -1   12.68    0.36 
  -3  -2  -1   13.35    0.34 
  -4  -2  -1    0.19    0.11 
  -4  -2  -1    0.31    0.10 
  -4  -2  -1    0.20    0.11 
  -4  -2  -1    0.30    0.09 
   4   2   1    0.50    0.12 
  -5  -2  -1   14.14    0.39 
  -5  -2  -1   14.24    0.40 
  -5  -2  -1   13.52    0.42 
   5   2   1   14.50    0.42 
   5   2   1   13.96    0.22 
  -6  -2  -1    0.27    0.14 
  -6  -2  -1    0.51    0.17 
   6   2   1    0.62    0.19 
   6   2   1    0.34    0.20 
   6   2   1    0.38    0.09 
  -7  -2  -1    0.14    0.14 
  -7  -2  -1    0.31    0.17 
   7   2   1    0.22    0.18 
   7   2   1    0.24    0.19 
   7   2   1    0.33    0.10 
  -8  -2  -1    2.61    0.30 
  -8  -2  -1    3.05    0.29 
   8   2   1    2.12    0.28 
   8   2   1    2.49    0.31 
   8   2   1    2.62    0.19 
  -9  -2  -1    0.01    0.20 
   9   2   1    0.15    0.14 
   9   2   1    0.41    0.22 
 -10  -2  -1    1.40    0.32 
  10   2   1    1.55    0.23 
  10   2   1    1.20    0.31 
   9  -3  -1    0.12    0.28 
   9  -3  -1    0.07    0.22 
  -9   3   1    0.34    0.25 
  -9   3   1   -0.01    0.22 
   8  -3  -1    0.17    0.24 
   8  -3  -1   -0.03    0.18 
   8  -3  -1   -0.40    0.23 
  -8   3   1   -0.23    0.20 
  -8   3   1   -0.15    0.19 
   7  -3  -1    4.85    0.40 
   7  -3  -1    4.42    0.36 
   7  -3  -1    4.62    0.35 
  -7   3   1    5.25    0.36 
  -7   3   1    4.27    0.38 
   6  -3  -1    0.15    0.18 
   6  -3  -1   -0.08    0.15 
   6  -3  -1   -0.01    0.17 
  -6   3   1   -0.04    0.14 
  -6   3   1    0.05    0.17 
   5  -3  -1   10.26    0.43 
   5  -3  -1    9.85    0.36 
   5  -3  -1   10.18    0.41 
  -5   3   1    9.69    0.43 
  -5   3   1    9.40    0.38 
   4  -3  -1    1.24    0.16 
   4  -3  -1    1.06    0.17 
   4  -3  -1    1.15    0.19 
  -4   3   1    1.17    0.15 
  -4   3   1    1.36    0.18 
  -4   3   1    1.20    0.13 
  -4   3   1    1.03    0.18 
   3  -3  -1    0.13    0.09 
   3  -3  -1    0.31    0.11 
   3  -3  -1    0.35    0.13 
  -3   3   1    0.33    0.12 
  -3   3   1    0.16    0.09 
  -3   3   1    0.31    0.10 
  -3   3   1    0.16    0.11 
   2  -3  -1   11.99    0.27 
   2  -3  -1   11.76    0.33 
   2  -3  -1   12.04    0.28 
  -2   3   1   11.95    0.33 
  -2   3   1   12.22    0.28 
  -2   3   1   12.15    0.32 
  -2   3   1   11.65    0.32 
   1  -3  -1   13.40    0.25 
   1  -3  -1   13.22    0.38 
   1  -3  -1   13.23    0.27 
   1  -3  -1   13.36    0.33 
  -1   3   1   13.65    0.30 
  -1   3   1   13.32    0.30 
  -1   3   1   13.37    0.24 
   0  -3  -1    1.63    0.10 
   0  -3  -1    1.54    0.13 
   0  -3  -1    1.66    0.18 
   0   3   1    1.57    0.11 
   0   3   1    1.58    0.11 
   0   3   1    1.63    0.06 
  -1  -3  -1    3.82    0.12 
  -1  -3  -1    3.75    0.18 
  -1  -3  -1    3.53    0.22 
   1   3   1    3.72    0.09 
   1   3   1    3.52    0.14 
   1   3   1    3.70    0.10 
   1   3   1    3.77    0.08 
  -2  -3  -1    0.26    0.14 
  -2  -3  -1    0.34    0.07 
  -2  -3  -1    0.30    0.10 
  -2  -3  -1    0.27    0.06 
  -3  -3  -1    7.25    0.23 
  -3  -3  -1    6.88    0.24 
  -3  -3  -1    6.93    0.32 
  -3  -3  -1    7.08    0.27 
  -3  -3  -1    7.05    0.22 
  -4  -3  -1   13.54    0.43 
  -4  -3  -1   13.39    0.38 
  -4  -3  -1   14.06    0.41 
  -4  -3  -1   13.48    0.37 
  -4  -3  -1   14.13    0.35 
  -5  -3  -1   22.76    0.54 
  -5  -3  -1   24.33    0.51 
  -5  -3  -1   24.03    0.60 
  -5  -3  -1   23.32    0.58 
   5   3   1   23.04    0.59 
  -6  -3  -1    0.13    0.16 
  -6  -3  -1    0.24    0.13 
  -6  -3  -1    0.34    0.16 
   6   3   1    0.44    0.17 
   6   3   1    0.52    0.19 
  -7  -3  -1    8.99    0.36 
  -7  -3  -1    9.19    0.42 
   7   3   1    8.91    0.45 
   7   3   1    9.30    0.44 
   7   3   1    8.91    0.24 
  -8  -3  -1    1.65    0.25 
  -8  -3  -1    1.97    0.23 
   8   3   1    1.86    0.29 
   8   3   1    1.62    0.29 
   8   3   1    2.39    0.17 
  -9  -3  -1    0.22    0.21 
   9   3   1   -0.06    0.13 
   9   3   1   -0.13    0.20 
 -10  -3  -1    1.55    0.31 
  10   3   1    1.74    0.21 
  10   3   1    1.21    0.31 
   9  -4  -1    1.52    0.29 
   9  -4  -1    1.73    0.36 
  -9   4   1    1.33    0.35 
  -9   4   1    1.70    0.32 
   8  -4  -1   -0.18    0.24 
   8  -4  -1   -0.17    0.19 
  -8   4   1    0.29    0.25 
  -8   4   1    0.10    0.21 
   7  -4  -1   -0.11    0.20 
   7  -4  -1    0.09    0.22 
   7  -4  -1   -0.03    0.17 
  -7   4   1    0.24    0.17 
  -7   4   1    0.09    0.20 
   6  -4  -1    5.88    0.38 
   6  -4  -1    5.83    0.34 
   6  -4  -1    6.14    0.41 
  -6   4   1    5.84    0.35 
  -6   4   1    6.64    0.42 
   5  -4  -1    8.57    0.42 
   5  -4  -1    8.54    0.38 
   5  -4  -1    9.32    0.35 
  -5   4   1    8.64    0.36 
  -5   4   1    8.76    0.42 
   4  -4  -1    4.50    0.26 
   4  -4  -1    4.26    0.27 
   4  -4  -1    4.11    0.32 
  -4   4   1    4.05    0.25 
  -4   4   1    3.91    0.25 
  -4   4   1    3.61    0.29 
  -4   4   1    4.18    0.29 
   3  -4  -1    8.55    0.27 
   3  -4  -1    8.64    0.29 
   3  -4  -1    8.24    0.34 
  -3   4   1    8.83    0.33 
  -3   4   1    8.12    0.34 
  -3   4   1    9.09    0.28 
  -3   4   1    8.41    0.34 
   2  -4  -1   60.31    0.83 
   2  -4  -1   59.08    1.00 
   2  -4  -1   59.64    0.90 
  -2   4   1   59.30    0.92 
  -2   4   1   59.24    1.06 
  -2   4   1   60.36    0.97 
  -2   4   1   60.20    0.87 
   1  -4  -1   15.01    0.28 
   1  -4  -1   14.96    0.33 
   1  -4  -1   14.38    0.39 
  -1   4   1   14.82    0.26 
  -1   4   1   14.33    0.35 
  -1   4   1   14.89    0.35 
   0  -4  -1    2.23    0.19 
   0  -4  -1    2.32    0.13 
   0  -4  -1    2.61    0.24 
   0   4   1    2.43    0.16 
   0   4   1    2.57    0.15 
  -1  -4  -1    7.63    0.20 
  -1  -4  -1    7.03    0.35 
  -1  -4  -1    7.48    0.28 
   1   4   1    7.95    0.15 
   1   4   1    7.83    0.23 
   1   4   1    7.78    0.16 
   1   4   1    7.39    0.18 
  -2  -4  -1    0.39    0.17 
  -2  -4  -1    0.44    0.06 
  -2  -4  -1    0.37    0.12 
  -2  -4  -1    0.48    0.08 
   2   4   1    0.41    0.09 
  -3  -4  -1   18.35    0.48 
  -3  -4  -1   19.16    0.38 
  -3  -4  -1   18.57    0.41 
  -3  -4  -1   18.76    0.55 
   3   4   1   18.59    0.39 
  -4  -4  -1   26.05    0.51 
  -4  -4  -1   26.57    0.53 
  -4  -4  -1   25.54    0.68 
  -4  -4  -1   25.82    0.56 
  -4  -4  -1   25.94    0.62 
  -5  -4  -1    3.23    0.23 
  -5  -4  -1    3.19    0.24 
  -5  -4  -1    3.30    0.26 
  -6  -4  -1    0.47    0.14 
  -6  -4  -1    0.30    0.17 
  -6  -4  -1    0.38    0.15 
   6   4   1    0.39    0.19 
   6   4   1    0.45    0.19 
  -7  -4  -1    8.19    0.41 
  -7  -4  -1    7.56    0.42 
  -7  -4  -1    8.11    0.35 
   7   4   1    8.29    0.45 
  -8  -4  -1    0.33    0.20 
   8   4   1    0.28    0.10 
   8   4   1    0.11    0.20 
   8   4   1   -0.08    0.20 
  -9  -4  -1    2.68    0.33 
   9   4   1    2.47    0.35 
   9   4   1    3.12    0.21 
 -10  -4  -1   -0.15    0.21 
  10   4   1   -0.04    0.14 
  10   4   1    0.14    0.24 
   8  -5  -1    3.09    0.38 
  -8   5   1    3.13    0.42 
   7  -5  -1    2.26    0.31 
   7  -5  -1    2.08    0.30 
  -7   5   1    2.43    0.35 
  -7   5   1    2.50    0.28 
   6  -5  -1   -0.03    0.19 
   6  -5  -1    0.04    0.19 
  -6   5   1    0.15    0.20 
  -6   5   1   -0.11    0.13 
   5  -5  -1    4.19    0.35 
   5  -5  -1    3.13    0.24 
   5  -5  -1    3.61    0.28 
  -5   5   1    3.86    0.27 
  -5   5   1    3.89    0.35 
   4  -5  -1   -0.01    0.16 
   4  -5  -1   -0.20    0.17 
   4  -5  -1    0.01    0.13 
  -4   5   1   -0.09    0.10 
  -4   5   1    0.11    0.15 
  -4   5   1   -0.02    0.15 
   3  -5  -1    6.62    0.27 
   3  -5  -1    6.69    0.35 
   3  -5  -1    7.49    0.32 
  -3   5   1    7.16    0.26 
  -3   5   1    7.30    0.36 
  -3   5   1    7.09    0.36 
  -3   5   1    7.38    0.38 
   2  -5  -1   13.76    0.32 
   2  -5  -1   13.52    0.44 
   2  -5  -1   13.98    0.38 
  -2   5   1   14.15    0.30 
  -2   5   1   13.19    0.42 
  -2   5   1   13.29    0.41 
  -2   5   1   13.36    0.47 
   1  -5  -1   25.96    0.50 
   1  -5  -1   26.44    0.43 
   1  -5  -1   25.88    0.59 
  -1   5   1   26.53    0.39 
  -1   5   1   25.88    0.54 
  -1   5   1   25.90    0.55 
  -1   5   1   25.60    0.67 
   0  -5  -1    2.39    0.20 
   0  -5  -1    2.59    0.16 
   0   5   1    2.41    0.18 
   0   5   1    2.45    0.18 
   0   5   1    2.61    0.27 
  -1  -5  -1    3.45    0.16 
  -1  -5  -1    3.53    0.25 
   1   5   1    3.91    0.18 
   1   5   1    3.51    0.19 
   1   5   1    3.61    0.14 
  -2  -5  -1    5.12    0.20 
  -2  -5  -1    5.20    0.29 
   2   5   1    5.43    0.22 
   2   5   1    5.23    0.14 
   2   5   1    5.23    0.15 
   2   5   1    5.32    0.15 
  -3  -5  -1    0.08    0.09 
  -3  -5  -1    0.09    0.07 
  -3  -5  -1    0.11    0.14 
   3   5   1    0.09    0.09 
  -4  -5  -1    0.26    0.17 
  -4  -5  -1    0.34    0.13 
  -4  -5  -1    0.24    0.10 
   4   5   1    0.23    0.20 
   4   5   1    0.10    0.10 
  -5  -5  -1    4.36    0.26 
  -5  -5  -1    4.23    0.30 
  -5  -5  -1    4.38    0.36 
   5   5   1    4.43    0.38 
  -6  -5  -1    2.78    0.28 
  -6  -5  -1    2.90    0.24 
  -6  -5  -1    2.61    0.24 
   6   5   1    2.79    0.31 
   6   5   1    2.99    0.32 
  -7  -5  -1    0.19    0.15 
  -7  -5  -1   -0.08    0.18 
   7   5   1    0.10    0.20 
  -8  -5  -1    3.92    0.34 
   8   5   1    4.11    0.40 
   8   5   1    3.80    0.17 
  -9  -5  -1    0.27    0.20 
   9   5   1    0.03    0.12 
   9   5   1    0.08    0.23 
   8  -6  -1    2.76    0.39 
  -8   6   1    2.38    0.39 
   7  -6  -1    1.75    0.31 
   7  -6  -1    1.77    0.31 
  -7   6   1    1.56    0.33 
   6  -6  -1    0.08    0.21 
   6  -6  -1    0.26    0.21 
  -6   6   1    0.10    0.22 
   5  -6  -1    0.23    0.19 
   5  -6  -1    0.28    0.22 
  -5   6   1    0.70    0.22 
   4  -6  -1    3.35    0.27 
   4  -6  -1    2.68    0.29 
  -4   6   1    2.52    0.29 
   3  -6  -1    0.81    0.22 
   3  -6  -1    0.83    0.18 
  -3   6   1    0.69    0.19 
  -3   6   1    0.67    0.20 
  -3   6   1    0.60    0.20 
   2  -6  -1    0.19    0.14 
   2  -6  -1    0.16    0.18 
  -2   6   1    0.20    0.17 
  -2   6   1   -0.11    0.14 
  -2   6   1    0.08    0.19 
   1  -6  -1   28.88    0.69 
   1  -6  -1   29.07    0.57 
  -1   6   1   29.20    0.79 
  -1   6   1   30.62    0.64 
  -1   6   1   28.48    0.64 
   0  -6  -1   -0.12    0.14 
   0  -6  -1   -0.10    0.09 
   0   6   1    0.02    0.11 
   0   6   1   -0.03    0.18 
   0   6   1    0.15    0.13 
  -1  -6  -1    0.73    0.12 
  -1  -6  -1    0.83    0.19 
   1   6   1    0.51    0.23 
   1   6   1    0.66    0.13 
   1   6   1    0.62    0.13 
  -2  -6  -1   -0.01    0.09 
  -2  -6  -1    0.09    0.16 
   2   6   1   -0.18    0.09 
   2   6   1   -0.21    0.18 
   2   6   1   -0.07    0.09 
  -3  -6  -1    4.43    0.35 
  -3  -6  -1    4.35    0.24 
   3   6   1    4.37    0.40 
   3   6   1    4.53    0.15 
   3   6   1    4.53    0.18 
   3   6   1    4.40    0.17 
   3   6   1    4.05    0.24 
  -4  -6  -1    3.40    0.19 
  -4  -6  -1    3.23    0.25 
  -4  -6  -1    3.69    0.34 
   4   6   1    2.49    0.33 
   4   6   1    3.16    0.22 
  -5  -6  -1    3.72    0.24 
  -5  -6  -1    4.22    0.37 
  -5  -6  -1    3.57    0.30 
   5   6   1    4.27    0.25 
   5   6   1    4.03    0.39 
  -6  -6  -1    0.30    0.21 
  -6  -6  -1    0.36    0.14 
  -6  -6  -1    0.25    0.17 
   6   6   1    0.41    0.23 
  -7  -6  -1    1.60    0.23 
  -7  -6  -1    1.78    0.29 
   7   6   1    1.28    0.28 
  -8  -6  -1    6.59    0.50 
  -8  -6  -1    7.31    0.42 
   8   6   1    8.34    0.56 
  -9  -6  -1    0.18    0.21 
   9   6   1   -0.09    0.21 
   9   6   1    0.12    0.11 
   7  -7  -1    9.85    0.55 
  -7   7   1    9.50    0.64 
   6  -7  -1    0.50    0.25 
   6  -7  -1    0.78    0.28 
  -6   7   1    0.53    0.27 
   5  -7  -1    4.88    0.40 
   5  -7  -1    5.06    0.39 
  -5   7   1    4.30    0.41 
   4  -7  -1    8.76    0.47 
   4  -7  -1    8.78    0.42 
  -4   7   1    9.20    0.48 
   3  -7  -1    0.32    0.21 
   3  -7  -1    0.10    0.16 
  -3   7   1    0.04    0.16 
  -3   7   1    0.22    0.21 
  -3   7   1    0.24    0.21 
   2  -7  -1    3.28    0.31 
   2  -7  -1    3.68    0.27 
  -2   7   1    3.73    0.36 
  -2   7   1    3.06    0.29 
  -2   7   1    4.00    0.34 
   1  -7  -1    8.21    0.41 
   1  -7  -1    8.39    0.32 
  -1   7   1    7.94    0.39 
  -1   7   1    7.53    0.35 
  -1   7   1    7.56    0.46 
   0  -7  -1    4.36    0.25 
   0  -7  -1    3.88    0.32 
   0   7   1    4.40    0.31 
   0   7   1    4.20    0.40 
   0   7   1    4.57    0.28 
  -1  -7  -1    5.46    0.37 
  -1  -7  -1    5.71    0.26 
   1   7   1    4.88    0.29 
   1   7   1    5.40    0.29 
   1   7   1    5.43    0.45 
  -2  -7  -1    0.30    0.11 
  -2  -7  -1    0.45    0.20 
   2   7   1    0.04    0.12 
   2   7   1    0.58    0.23 
   2   7   1    0.37    0.13 
  -3  -7  -1    1.30    0.16 
  -3  -7  -1    1.15    0.25 
   3   7   1    1.59    0.18 
   3   7   1    0.91    0.27 
   3   7   1    1.32    0.15 
  -4  -7  -1    3.82    0.28 
  -4  -7  -1    4.11    0.37 
   4   7   1    3.49    0.18 
   4   7   1    3.94    0.25 
   4   7   1    3.35    0.39 
  -5  -7  -1    1.88    0.30 
  -5  -7  -1    1.57    0.23 
   5   7   1    1.91    0.14 
   5   7   1    1.28    0.31 
  -6  -7  -1    0.59    0.20 
  -6  -7  -1    0.54    0.25 
   6   7   1    0.06    0.23 
  -7  -7  -1    0.92    0.26 
   7   7   1    1.45    0.32 
   7   7   1    0.62    0.30 
  -8  -7  -1   -0.26    0.23 
   8   7   1    0.26    0.28 
   6  -8  -1    1.66    0.31 
   6  -8  -1    1.36    0.33 
  -6   8   1    1.30    0.33 
   5  -8  -1    0.68    0.29 
   5  -8  -1    0.76    0.26 
  -5   8   1    0.27    0.26 
   4  -8  -1    1.66    0.26 
   4  -8  -1    1.96    0.32 
  -4   8   1    2.04    0.32 
   3  -8  -1    0.18    0.24 
   3  -8  -1    0.29    0.18 
  -3   8   1    0.39    0.25 
  -3   8   1    0.21    0.20 
  -3   8   1    0.38    0.25 
   2  -8  -1    0.61    0.25 
   2  -8  -1    0.94    0.18 
  -2   8   1    0.69    0.21 
  -2   8   1    0.72    0.28 
  -2   8   1    0.76    0.25 
   1  -8  -1    1.76    0.28 
   1  -8  -1    1.27    0.18 
  -1   8   1    1.26    0.30 
  -1   8   1    1.14    0.22 
  -1   8   1    1.67    0.27 
   0  -8  -1   -0.16    0.11 
   0  -8  -1    0.24    0.20 
   0   8   1    0.06    0.17 
   0   8   1    0.11    0.15 
   0   8   1    0.17    0.24 
  -1  -8  -1    3.24    0.33 
  -1  -8  -1    3.00    0.24 
   1   8   1    2.63    0.26 
   1   8   1    3.34    0.27 
   1   8   1    2.72    0.38 
  -2  -8  -1    5.04    0.41 
  -2  -8  -1    4.06    0.26 
   2   8   1    3.69    0.29 
   2   8   1    4.66    0.30 
   2   8   1    4.43    0.46 
  -3  -8  -1    0.68    0.25 
  -3  -8  -1    0.51    0.14 
   3   8   1    0.87    0.30 
   3   8   1    0.77    0.17 
   3   8   1    0.63    0.15 
  -4  -8  -1    3.24    0.28 
  -4  -8  -1    2.98    0.37 
   4   8   1    2.94    0.42 
   4   8   1    3.08    0.24 
   4   8   1    3.27    0.26 
  -5  -8  -1    1.11    0.29 
  -5  -8  -1    0.50    0.19 
   5   8   1    0.46    0.30 
   5   8   1    0.75    0.14 
  -6  -8  -1    1.06    0.25 
  -6  -8  -1    1.28    0.31 
   6   8   1    0.95    0.14 
   6   8   1    0.72    0.33 
  -7  -8  -1    1.91    0.32 
   7   8   1    1.54    0.15 
   7   8   1    2.30    0.43 
  -8  -8  -1    1.25    0.32 
   8   8   1    0.91    0.33 
   8   8   1    0.97    0.14 
   5  -9  -1    0.03    0.27 
  -5   9   1    0.06    0.26 
   4  -9  -1    0.29    0.29 
  -4   9   1    0.15    0.24 
   3  -9  -1    3.10    0.38 
  -3   9   1    3.13    0.37 
   2  -9  -1    3.66    0.40 
  -2   9   1    2.46    0.32 
  -2   9   1    3.06    0.36 
  -2   9   1    3.08    0.43 
   1  -9  -1   -0.37    0.22 
  -1   9   1   -0.19    0.22 
  -1   9   1    0.27    0.28 
  -1   9   1    0.15    0.18 
   0  -9  -1    1.09    0.28 
   0   9   1    1.48    0.27 
   0   9   1    1.52    0.24 
   0   9   1    1.15    0.34 
  -1  -9  -1    3.10    0.37 
   1   9   1    2.78    0.43 
   1   9   1    3.11    0.30 
   1   9   1    2.82    0.30 
  -2  -9  -1    0.01    0.22 
   2   9   1    0.22    0.28 
   2   9   1   -0.09    0.15 
   2   9   1   -0.01    0.17 
  -3  -9  -1    0.09    0.24 
   3   9   1    0.18    0.29 
   3   9   1   -0.06    0.14 
   3   9   1   -0.22    0.15 
  -4  -9  -1    0.18    0.26 
   4   9   1   -0.01    0.16 
   4   9   1   -0.05    0.28 
  -5  -9  -1    1.49    0.35 
   5   9   1    1.56    0.21 
   5   9   1    1.55    0.40 
  -6  -9  -1    0.52    0.32 
   6   9   1    0.92    0.36 
   6   9   1    0.23    0.16 
   7   9   1    0.39    0.16 
   7   9   1   -0.28    0.29 
   3 -10  -1    3.38    0.45 
  -3  10   1    4.15    0.45 
   2 -10  -1    0.02    0.27 
  -2  10   1    0.71    0.30 
  -2  10   1    0.28    0.32 
  -2  10   1    0.36    0.24 
   1 -10  -1    3.15    0.42 
  -1  10   1    2.52    0.46 
  -1  10   1    3.20    0.40 
  -1  10   1    3.03    0.37 
   0 -10  -1    0.58    0.32 
   0  10   1    0.33    0.34 
   0  10   1    0.30    0.27 
   0  10   1    1.01    0.24 
  -1 -10  -1    1.82    0.36 
   1  10   1    1.86    0.27 
   1  10   1    1.51    0.43 
   1  10   1    0.98    0.28 
  -2 -10  -1    0.13    0.27 
   2  10   1    0.32    0.19 
   2  10   1    0.48    0.23 
   2  10   1   -0.44    0.31 
  -3 -10  -1   12.81    0.69 
   3  10   1   11.23    0.79 
   3  10   1   10.55    0.51 
  -4 -10  -1    1.96    0.41 
   4  10   1    1.29    0.42 
   4  10   1    1.83    0.27 
  -5 -10  -1    1.43    0.39 
   5  10   1    0.89    0.22 
   5  10   1    0.98    0.40 
   0 -11  -1    0.20    0.30 
   0  11   1    0.08    0.37 
   0  11   1    0.36    0.29 
   0  11   1   -0.37    0.20 
  -1 -11  -1    0.76    0.34 
   1  11   1    0.64    0.40 
   1  11   1    0.62    0.30 
  -2 -11  -1    3.96    0.53 
   2  11   1    4.37    0.43 
   2  11   1    4.05    0.61 
  -3 -11  -1    0.46    0.35 
   3  11   1    0.60    0.42 
   3  11   1    0.74    0.26 
   3  10  -2    0.85    0.42 
   3  10  -2    0.75    0.28 
  -3 -10   2    0.62    0.23 
  -3 -10   2    0.42    0.35 
   2  10  -2    1.11    0.45 
   2  10  -2    0.90    0.30 
  -2 -10   2    1.01    0.24 
  -2 -10   2    0.73    0.37 
   1  10  -2    0.39    0.40 
   1  10  -2   -0.28    0.26 
  -1 -10   2   -0.18    0.18 
  -1 -10   2    0.47    0.35 
   0  10  -2    0.76    0.33 
   0  10  -2    0.46    0.39 
   0 -10   2    0.62    0.35 
   0 -10   2    1.36    0.26 
  -1  10  -2    0.30    0.30 
  -1  10  -2    0.42    0.37 
   1 -10   2    0.46    0.22 
   1 -10   2    0.16    0.30 
   5   9  -2    2.33    0.48 
   5   9  -2    2.47    0.32 
  -5  -9   2    2.87    0.35 
  -5  -9   2    1.99    0.43 
   4   9  -2    0.88    0.25 
   4   9  -2    0.69    0.38 
  -4  -9   2    0.37    0.21 
  -4  -9   2    0.45    0.33 
   3   9  -2    2.06    0.45 
   3   9  -2    1.88    0.30 
  -3  -9   2    1.23    0.24 
  -3  -9   2    1.89    0.38 
   2   9  -2    4.27    0.54 
   2   9  -2    4.87    0.40 
  -2  -9   2    4.78    0.50 
  -2  -9   2    4.82    0.36 
   1   9  -2    0.75    0.36 
   1   9  -2    1.11    0.29 
  -1  -9   2    1.56    0.24 
  -1  -9   2    0.99    0.34 
   0   9  -2    1.96    0.33 
   0   9  -2    2.23    0.44 
   0  -9   2    2.49    0.38 
   0  -9   2    2.05    0.27 
  -1   9  -2    0.51    0.22 
  -1   9  -2   -0.04    0.26 
  -1   9  -2   -0.28    0.30 
   1  -9   2    0.55    0.21 
   1  -9   2   -0.32    0.26 
  -2   9  -2    1.34    0.31 
  -2   9  -2    1.32    0.38 
   2  -9   2    1.71    0.36 
   2  -9   2    1.99    0.29 
  -3   9  -2   10.61    0.70 
  -3   9  -2    9.72    0.59 
   3  -9   2    9.78    0.52 
   3  -9   2   10.27    0.63 
  -4   9  -2   12.24    0.68 
   4  -9   2   12.00    0.58 
   7   8  -2    2.38    0.46 
   7   8  -2    2.66    0.27 
  -7  -8   2    2.91    0.39 
   6   8  -2    0.44    0.20 
   6   8  -2    0.42    0.35 
   6   8  -2    0.59    0.35 
  -6  -8   2    0.69    0.27 
   5   8  -2    0.05    0.31 
   5   8  -2   -0.16    0.18 
  -5  -8   2   -0.17    0.26 
  -5  -8   2    0.02    0.19 
   4   8  -2    0.87    0.22 
   4   8  -2    1.80    0.39 
  -4  -8   2    1.40    0.33 
  -4  -8   2    1.37    0.24 
   3   8  -2    9.91    0.45 
   3   8  -2   10.61    0.66 
  -3  -8   2    9.90    0.44 
  -3  -8   2    9.90    0.58 
   2   8  -2    7.21    0.58 
   2   8  -2    7.66    0.43 
  -2  -8   2    8.32    0.39 
  -2  -8   2    8.15    0.53 
   1   8  -2    2.45    0.40 
   1   8  -2    2.87    0.31 
  -1  -8   2    3.02    0.38 
  -1  -8   2    3.75    0.31 
   0   8  -2    0.22    0.17 
   0   8  -2    0.09    0.27 
   0   8  -2    0.38    0.23 
   0  -8   2    0.16    0.24 
   0  -8   2    0.10    0.16 
  -1   8  -2    0.56    0.20 
  -1   8  -2   -0.04    0.22 
  -1   8  -2    0.00    0.26 
   1  -8   2    0.11    0.17 
   1  -8   2    0.49    0.24 
  -2   8  -2    0.09    0.28 
  -2   8  -2   -0.19    0.21 
  -2   8  -2    0.07    0.19 
   2  -8   2    0.58    0.25 
   2  -8   2    0.26    0.20 
  -3   8  -2    0.50    0.24 
  -3   8  -2   -0.06    0.27 
   3  -8   2    0.64    0.27 
   3  -8   2    1.10    0.24 
  -4   8  -2    0.39    0.26 
   4  -8   2    0.20    0.27 
   4  -8   2    0.35    0.24 
  -5   8  -2   -0.22    0.23 
   5  -8   2    0.24    0.25 
   8   7  -2   -0.25    0.31 
   8   7  -2    0.23    0.17 
  -8  -7   2    0.29    0.27 
   7   7  -2    3.95    0.50 
   7   7  -2    3.01    0.26 
  -7  -7   2    2.67    0.37 
   6   7  -2    0.22    0.16 
   6   7  -2    0.80    0.32 
   6   7  -2    0.26    0.27 
  -6  -7   2    0.50    0.23 
   5   7  -2    6.49    0.34 
   5   7  -2    6.65    0.54 
  -5  -7   2    5.83    0.40 
  -5  -7   2    6.30    0.51 
   4   7  -2    0.67    0.18 
   4   7  -2    0.75    0.29 
  -4  -7   2    0.93    0.27 
  -4  -7   2    0.80    0.19 
   3   7  -2   -0.48    0.23 
   3   7  -2    0.11    0.16 
  -3  -7   2   -0.02    0.21 
  -3  -7   2    0.23    0.15 
   2   7  -2    0.85    0.28 
   2   7  -2    0.75    0.20 
  -2  -7   2    1.00    0.18 
  -2  -7   2    1.23    0.27 
   1   7  -2    2.22    0.35 
   1   7  -2    2.75    0.28 
   1   7  -2    2.76    0.23 
  -1  -7   2    2.54    0.32 
  -1  -7   2    2.81    0.25 
   0   7  -2    1.54    0.25 
   0   7  -2    1.04    0.28 
   0   7  -2    1.02    0.19 
   0  -7   2    0.97    0.24 
   0  -7   2    1.22    0.19 
  -1   7  -2    4.92    0.46 
  -1   7  -2    4.48    0.37 
  -1   7  -2    4.81    0.34 
   1  -7   2    5.10    0.38 
   1  -7   2    4.80    0.33 
  -2   7  -2    0.33    0.21 
  -2   7  -2    0.16    0.24 
  -2   7  -2    0.21    0.18 
   2  -7   2    0.19    0.16 
   2  -7   2    0.34    0.22 
  -3   7  -2    1.56    0.27 
  -3   7  -2    2.08    0.35 
   3  -7   2    2.20    0.29 
   3  -7   2    1.94    0.26 
  -4   7  -2   48.68    1.14 
   4  -7   2   47.35    1.05 
   4  -7   2   46.17    1.03 
  -5   7  -2   18.69    0.75 
   5  -7   2   18.75    0.66 
  -6   7  -2    0.45    0.28 
   6  -7   2    0.97    0.29 
   8   6  -2    0.73    0.34 
   8   6  -2    0.83    0.17 
  -8  -6   2    1.57    0.32 
   7   6  -2    2.10    0.39 
   7   6  -2    1.90    0.20 
  -7  -6   2    1.55    0.31 
   6   6  -2    1.39    0.31 
   6   6  -2    1.08    0.32 
   6   6  -2    1.42    0.18 
  -6  -6   2    1.45    0.26 
   5   6  -2    0.21    0.13 
   5   6  -2    0.12    0.23 
  -5  -6   2    0.04    0.15 
   4   6  -2    0.57    0.26 
   4   6  -2    0.35    0.15 
  -4  -6   2    0.53    0.22 
  -4  -6   2    0.71    0.17 
   3   6  -2    0.46    0.24 
   3   6  -2    0.35    0.15 
  -3  -6   2    0.31    0.20 
  -3  -6   2    0.40    0.14 
   2   6  -2  179.51    2.35 
   2   6  -2  175.77    2.93 
   2   6  -2  176.27    2.31 
  -2  -6   2  176.96    2.71 
  -2  -6   2  179.55    2.46 
   1   6  -2   54.97    0.96 
   1   6  -2   55.86    0.93 
   1   6  -2   53.74    1.25 
  -1  -6   2   56.17    1.13 
  -1  -6   2   56.23    0.97 
   0   6  -2   10.57    0.44 
   0   6  -2   10.51    0.54 
   0   6  -2   10.76    0.38 
   0  -6   2   10.78    0.48 
   0  -6   2   10.74    0.39 
  -1   6  -2    0.13    0.14 
  -1   6  -2    0.32    0.21 
  -1   6  -2   -0.37    0.17 
   1  -6   2   -0.15    0.13 
   1  -6   2    0.01    0.18 
  -2   6  -2    0.77    0.19 
  -2   6  -2    0.98    0.22 
  -2   6  -2    0.77    0.24 
   2  -6   2    0.38    0.18 
   2  -6   2    0.60    0.18 
  -3   6  -2    2.24    0.29 
  -3   6  -2    1.70    0.25 
  -3   6  -2    2.09    0.31 
   3  -6   2    2.03    0.25 
   3  -6   2    2.02    0.25 
  -4   6  -2    6.64    0.43 
  -4   6  -2    6.84    0.44 
   4  -6   2    7.42    0.42 
   4  -6   2    7.66    0.41 
  -5   6  -2    1.74    0.29 
   5  -6   2    1.51    0.26 
  -6   6  -2    4.04    0.44 
   6  -6   2    3.73    0.37 
  -7   6  -2    0.44    0.27 
   7  -6   2    0.39    0.27 
   9   5  -2    1.53    0.39 
   9   5  -2    1.77    0.23 
  -9  -5   2    1.23    0.33 
  -9  -5   2    1.87    0.31 
   8   5  -2   19.27    0.49 
   8   5  -2   17.66    0.80 
  -8  -5   2   20.30    0.69 
  -8  -5   2   21.72    0.77 
   7   5  -2    8.00    0.56 
   7   5  -2    7.86    0.31 
  -7  -5   2    7.51    0.43 
  -7  -5   2    8.35    0.50 
   6   5  -2    1.30    0.28 
   6   5  -2    0.94    0.15 
   6   5  -2    0.86    0.28 
  -6  -5   2    1.15    0.20 
  -6  -5   2    1.07    0.23 
   5   5  -2    0.01    0.11 
   5   5  -2   -0.20    0.22 
   5   5  -2   -0.09    0.18 
  -5  -5   2    0.05    0.13 
  -5  -5   2    0.11    0.15 
   4   5  -2    0.64    0.14 
   4   5  -2    0.31    0.22 
  -4  -5   2    0.83    0.23 
  -4  -5   2    0.62    0.16 
  -4  -5   2    1.02    0.16 
   3   5  -2    0.19    0.13 
   3   5  -2    0.20    0.09 
   3   5  -2   -0.04    0.20 
  -3  -5   2    0.18    0.10 
  -3  -5   2    0.17    0.12 
  -3  -5   2   -0.22    0.17 
   2   5  -2    1.31    0.26 
   2   5  -2    1.70    0.18 
   2   5  -2    2.01    0.15 
  -2  -5   2    1.08    0.22 
  -2  -5   2    1.86    0.14 
  -2  -5   2    1.83    0.18 
   1   5  -2   -0.20    0.17 
   1   5  -2    0.13    0.10 
   1   5  -2    0.18    0.13 
  -1  -5   2    0.12    0.10 
  -1  -5   2    0.16    0.16 
   0   5  -2    3.36    0.25 
   0   5  -2    3.06    0.22 
   0   5  -2    2.48    0.28 
   0  -5   2    3.15    0.26 
   0  -5   2    2.83    0.22 
  -1   5  -2    0.41    0.18 
  -1   5  -2    0.56    0.15 
  -1   5  -2    0.31    0.20 
   1  -5   2    0.47    0.17 
   1  -5   2    0.46    0.15 
  -2   5  -2    1.79    0.27 
  -2   5  -2    2.42    0.27 
  -2   5  -2    1.81    0.23 
   2  -5   2    2.07    0.24 
   2  -5   2    1.53    0.21 
  -3   5  -2    5.89    0.39 
  -3   5  -2    5.40    0.36 
  -3   5  -2    4.78    0.37 
   3  -5   2    4.79    0.31 
   3  -5   2    4.69    0.34 
  -4   5  -2   13.41    0.53 
  -4   5  -2   12.10    0.50 
   4  -5   2   13.53    0.46 
   4  -5   2   12.80    0.48 
  -5   5  -2   25.45    0.76 
   5  -5   2   26.00    0.66 
   5  -5   2   25.61    0.69 
  -6   5  -2    4.94    0.43 
   6  -5   2    3.76    0.33 
  -7   5  -2    0.13    0.24 
   7  -5   2    0.18    0.26 
  -8   5  -2    0.15    0.27 
   8  -5   2    0.06    0.27 
   9   4  -2    0.61    0.33 
   9   4  -2   -0.03    0.17 
  -9  -4   2   -0.31    0.20 
   8   4  -2    1.97    0.37 
   8   4  -2    2.55    0.23 
  -8  -4   2    1.93    0.29 
  -8  -4   2    1.93    0.33 
   7   4  -2    1.13    0.15 
   7   4  -2    1.00    0.28 
  -7  -4   2    1.41    0.24 
  -7  -4   2    1.56    0.28 
   6   4  -2    6.77    0.42 
   6   4  -2    7.36    0.49 
   6   4  -2    6.09    0.26 
  -6  -4   2    6.27    0.38 
  -6  -4   2    6.59    0.37 
   5   4  -2    0.75    0.12 
   5   4  -2    0.37    0.22 
   5   4  -2    0.77    0.22 
  -5  -4   2    0.80    0.18 
  -5  -4   2    0.51    0.16 
   4   4  -2    1.86    0.15 
   4   4  -2    2.12    0.28 
  -4  -4   2    1.69    0.19 
  -4  -4   2    1.95    0.21 
   3   4  -2    4.08    0.21 
   3   4  -2    4.23    0.14 
   3   4  -2    4.21    0.15 
   3   4  -2    4.04    0.33 
  -3  -4   2    3.88    0.31 
  -3  -4   2    4.12    0.23 
  -3  -4   2    3.95    0.21 
   2   4  -2   11.43    0.31 
   2   4  -2   11.49    0.46 
   2   4  -2   11.68    0.25 
   2   4  -2   11.57    0.25 
  -2  -4   2   11.12    0.32 
  -2  -4   2   11.71    0.27 
  -2  -4   2   11.17    0.41 
   1   4  -2  453.74    5.25 
   1   4  -2  453.61    6.31 
   1   4  -2  450.36    5.51 
  -1  -4   2  450.17    5.92 
  -1  -4   2  454.10    5.44 
  -1  -4   2  443.43    5.64 
   0   4  -2   30.99    0.59 
   0   4  -2   30.83    0.75 
   0   4  -2   31.91    0.57 
   0  -4   2   31.69    0.42 
   0  -4   2   31.12    0.64 
   0  -4   2   30.81    0.58 
  -1   4  -2    2.97    0.23 
  -1   4  -2    2.69    0.20 
  -1   4  -2    2.62    0.26 
   1  -4   2    2.97    0.22 
   1  -4   2    2.74    0.11 
   1  -4   2    2.44    0.20 
   1  -4   2    2.64    0.16 
  -2   4  -2    3.75    0.29 
  -2   4  -2    4.71    0.32 
  -2   4  -2    4.17    0.26 
   2  -4   2    4.21    0.27 
   2  -4   2    4.16    0.25 
   2  -4   2    4.33    0.16 
   2  -4   2    4.06    0.20 
  -3   4  -2   17.25    0.51 
  -3   4  -2   17.18    0.52 
  -3   4  -2   17.64    0.54 
   3  -4   2   17.64    0.40 
   3  -4   2   17.53    0.46 
   3  -4   2   17.21    0.48 
  -4   4  -2    0.26    0.11 
  -4   4  -2    0.13    0.18 
  -4   4  -2    0.16    0.18 
   4  -4   2    0.19    0.13 
   4  -4   2    0.08    0.17 
   4  -4   2   -0.02    0.15 
  -5   4  -2    3.17    0.23 
  -5   4  -2    3.41    0.32 
   5  -4   2    3.79    0.29 
   5  -4   2    3.47    0.26 
   5  -4   2    3.77    0.30 
  -6   4  -2    5.53    0.42 
  -6   4  -2    5.03    0.30 
   6  -4   2    4.54    0.36 
   6  -4   2    5.48    0.31 
  -7   4  -2    0.20    0.16 
  -7   4  -2   -0.04    0.22 
   7  -4   2    0.07    0.16 
   7  -4   2    0.27    0.22 
  -8   4  -2    8.70    0.45 
  -8   4  -2    7.98    0.55 
   8  -4   2    7.61    0.54 
   8  -4   2    8.47    0.43 
  -9   4  -2    1.10    0.34 
  -9   4  -2    1.88    0.31 
   9  -4   2    1.18    0.34 
   9   3  -2    0.84    0.21 
   9   3  -2    0.42    0.31 
   9   3  -2    0.82    0.30 
  -9  -3   2    0.54    0.25 
   8   3  -2    9.56    0.37 
   8   3  -2    9.32    0.59 
  -8  -3   2    9.88    0.51 
  -8  -3   2    8.63    0.51 
   7   3  -2   62.82    1.34 
   7   3  -2   62.30    0.95 
  -7  -3   2   62.45    1.21 
  -7  -3   2   61.38    1.25 
   6   3  -2    9.34    0.48 
   6   3  -2    9.52    0.29 
  -6  -3   2    9.67    0.44 
  -6  -3   2    9.43    0.41 
   5   3  -2    0.30    0.18 
   5   3  -2    0.11    0.10 
   5   3  -2    0.43    0.21 
  -5  -3   2    0.22    0.15 
  -5  -3   2    0.00    0.14 
   4   3  -2    2.22    0.26 
   4   3  -2    1.97    0.14 
   4   3  -2    2.18    0.24 
   4   3  -2    2.08    0.12 
  -4  -3   2    1.94    0.19 
  -4  -3   2    2.00    0.19 
   3   3  -2   10.51    0.26 
   3   3  -2   11.21    0.22 
   3   3  -2   10.84    0.40 
   3   3  -2   11.27    0.21 
  -3  -3   2   10.88    0.32 
  -3  -3   2   10.05    0.39 
  -3  -3   2   11.14    0.31 
   2   3  -2    7.96    0.18 
   2   3  -2    7.54    0.34 
   2   3  -2    8.01    0.17 
   2   3  -2    7.45    0.23 
  -2  -3   2    7.76    0.22 
  -2  -3   2    7.74    0.25 
  -2  -3   2    7.70    0.31 
   1   3  -2    0.40    0.07 
   1   3  -2    0.24    0.14 
   1   3  -2    0.34    0.10 
  -1  -3   2    0.46    0.06 
  -1  -3   2    0.29    0.08 
  -1  -3   2    0.32    0.12 
   0   3  -2    2.69    0.20 
   0   3  -2    2.79    0.24 
   0   3  -2    3.04    0.16 
   0  -3   2    2.87    0.09 
   0  -3   2    3.04    0.13 
   0  -3   2    2.91    0.17 
   0  -3   2    3.07    0.21 
  -1   3  -2   14.11    0.45 
  -1   3  -2   14.32    0.36 
  -1   3  -2   14.80    0.38 
   1  -3   2   14.39    0.36 
   1  -3   2   14.40    0.36 
   1  -3   2   15.06    0.26 
   1  -3   2   14.84    0.29 
  -2   3  -2   29.09    0.60 
  -2   3  -2   28.58    0.57 
  -2   3  -2   28.96    0.65 
   2  -3   2   29.76    0.54 
   2  -3   2   28.85    0.56 
   2  -3   2   29.36    0.46 
   2  -3   2   29.37    0.48 
  -3   3  -2    9.41    0.25 
  -3   3  -2    8.80    0.35 
  -3   3  -2    9.03    0.35 
  -3   3  -2    8.65    0.34 
   3  -3   2    9.31    0.29 
   3  -3   2    9.41    0.32 
   3  -3   2    9.37    0.27 
  -4   3  -2   21.02    0.54 
  -4   3  -2   21.95    0.47 
  -4   3  -2   21.59    0.59 
   4  -3   2   21.47    0.52 
   4  -3   2   22.07    0.49 
   4  -3   2   21.86    0.45 
  -5   3  -2    0.47    0.19 
  -5   3  -2    0.73    0.15 
   5  -3   2    0.55    0.18 
   5  -3   2    0.43    0.15 
   5  -3   2    0.43    0.15 
  -6   3  -2    0.20    0.13 
  -6   3  -2    0.34    0.20 
   6  -3   2    0.51    0.19 
   6  -3   2    0.21    0.14 
  -7   3  -2   -0.09    0.19 
  -7   3  -2    0.07    0.14 
   7  -3   2    0.03    0.15 
   7  -3   2   -0.18    0.18 
  -8   3  -2    0.80    0.27 
  -8   3  -2    0.65    0.21 
   8  -3   2    0.61    0.20 
   8  -3   2    0.42    0.25 
  -9   3  -2    0.23    0.21 
  -9   3  -2   -0.05    0.27 
   9  -3   2    0.11    0.27 
   9  -3   2    0.12    0.20 
  10   2  -2    0.45    0.23 
  10   2  -2    0.77    0.32 
  10   2  -2    1.35    0.42 
 -10  -2   2    0.39    0.27 
   9   2  -2    0.58    0.31 
   9   2  -2    0.55    0.20 
   9   2  -2    0.36    0.27 
  -9  -2   2    0.50    0.26 
   8   2  -2    1.85    0.31 
   8   2  -2    1.74    0.21 
   8   2  -2    1.37    0.31 
  -8  -2   2    1.51    0.28 
   7   2  -2    1.57    0.29 
   7   2  -2    2.20    0.19 
  -7  -2   2    1.19    0.24 
  -7  -2   2    2.07    0.28 
   6   2  -2    0.05    0.21 
   6   2  -2    0.15    0.12 
  -6  -2   2    0.20    0.16 
  -6  -2   2    0.31    0.17 
   5   2  -2    2.53    0.18 
   5   2  -2    2.39    0.27 
   5   2  -2    3.25    0.26 
  -5  -2   2    2.50    0.17 
  -5  -2   2    2.50    0.24 
  -5  -2   2    2.17    0.22 
   4   2  -2    0.01    0.06 
   4   2  -2   -0.16    0.13 
   4   2  -2    0.16    0.13 
   4   2  -2   -0.03    0.07 
  -4  -2   2   -0.03    0.10 
  -4  -2   2   -0.04    0.06 
  -4  -2   2   -0.02    0.10 
   3   2  -2   11.62    0.25 
   3   2  -2   12.46    0.37 
   3   2  -2   12.11    0.22 
   3   2  -2   10.87    0.38 
  -3  -2   2   11.69    0.32 
  -3  -2   2   11.39    0.32 
  -3  -2   2   12.14    0.21 
   2   2  -2   21.10    0.32 
   2   2  -2   20.98    0.36 
   2   2  -2   21.49    0.50 
  -2  -2   2   20.18    0.40 
  -2  -2   2   21.50    0.49 
  -2  -2   2   21.05    0.39 
   1   2  -2    0.13    0.04 
   1   2  -2    0.00    0.11 
   1   2  -2    0.20    0.08 
  -1  -2   2    0.10    0.09 
  -1  -2   2    0.05    0.05 
  -1  -2   2    0.07    0.04 
   0   2  -2  133.03    1.64 
   0   2  -2  132.91    1.98 
   0   2  -2  134.59    1.69 
   0  -2   2  132.26    1.64 
   0  -2   2  133.68    1.57 
   0  -2   2  131.22    1.81 
   0  -2   2  129.33    1.73 
  -1   2  -2    6.72    0.24 
  -1   2  -2    6.99    0.23 
  -1   2  -2    7.19    0.28 
   1  -2   2    7.28    0.18 
   1  -2   2    6.61    0.22 
   1  -2   2    6.70    0.16 
   1  -2   2    6.96    0.21 
  -2   2  -2   17.43    0.43 
  -2   2  -2   17.37    0.41 
  -2   2  -2   17.37    0.39 
  -2   2  -2   17.50    0.32 
   2  -2   2   16.94    0.37 
   2  -2   2   17.25    0.32 
   2  -2   2   16.97    0.34 
  -3   2  -2   -0.02    0.10 
  -3   2  -2    0.00    0.11 
  -3   2  -2    0.10    0.11 
  -3   2  -2    0.03    0.07 
   3  -2   2    0.06    0.08 
   3  -2   2    0.14    0.10 
   3  -2   2    0.07    0.08 
  -4   2  -2   43.48    0.75 
  -4   2  -2   44.25    0.79 
  -4   2  -2   44.66    0.73 
  -4   2  -2   44.28    0.87 
   4  -2   2   44.16    0.68 
   4  -2   2   43.75    0.78 
   4  -2   2   44.57    0.73 
  -5   2  -2    0.38    0.18 
  -5   2  -2    0.15    0.12 
   5  -2   2    0.22    0.13 
   5  -2   2    0.04    0.14 
   5  -2   2    0.33    0.13 
  -6   2  -2    0.46    0.20 
  -6   2  -2    0.37    0.15 
   6  -2   2    0.51    0.19 
   6  -2   2    0.67    0.15 
   6  -2   2    0.74    0.16 
  -7   2  -2    4.28    0.32 
  -7   2  -2    3.77    0.36 
   7  -2   2    4.04    0.28 
   7  -2   2    4.18    0.34 
  -8   2  -2    2.35    0.28 
  -8   2  -2    2.61    0.36 
   8  -2   2    2.24    0.24 
   8  -2   2    2.08    0.31 
  -9   2  -2    5.17    0.43 
  -9   2  -2    5.30    0.48 
   9  -2   2    5.51    0.47 
   9  -2   2    5.59    0.40 
  10   1  -2   -0.61    0.30 
 -10  -1   2   -0.48    0.22 
   9   1  -2    0.26    0.29 
   9   1  -2    0.68    0.30 
   9   1  -2    0.32    0.20 
  -9  -1   2    0.89    0.29 
   8   1  -2    4.41    0.31 
   8   1  -2    4.05    0.41 
   8   1  -2    5.33    0.45 
  -8  -1   2    4.44    0.40 
   7   1  -2    4.51    0.28 
   7   1  -2    4.18    0.36 
   7   1  -2    4.72    0.41 
  -7  -1   2    4.69    0.36 
   6   1  -2   35.81    0.64 
   6   1  -2   37.08    0.88 
  -6  -1   2   36.75    0.83 
  -6  -1   2   37.21    0.82 
  -6  -1   2   37.99    0.70 
   5   1  -2    1.19    0.14 
   5   1  -2    1.34    0.15 
   5   1  -2    1.31    0.22 
  -5  -1   2    1.32    0.19 
  -5  -1   2    1.53    0.16 
  -5  -1   2    1.39    0.20 
   4   1  -2    0.11    0.10 
   4   1  -2    0.29    0.15 
   4   1  -2    0.17    0.07 
   4   1  -2    0.26    0.09 
  -4  -1   2    0.16    0.11 
  -4  -1   2   -0.03    0.09 
  -4  -1   2    0.14    0.08 
   3   1  -2    0.23    0.06 
   3   1  -2    0.14    0.10 
   3   1  -2    0.27    0.13 
   3   1  -2    0.15    0.07 
  -3  -1   2    0.13    0.09 
  -3  -1   2    0.02    0.09 
  -3  -1   2    0.12    0.06 
   2   1  -2    3.11    0.11 
   2   1  -2    2.82    0.18 
   2   1  -2    3.20    0.18 
   2   1  -2    3.06    0.14 
  -2  -1   2    3.00    0.14 
  -2  -1   2    3.03    0.14 
   1   1  -2   52.15    0.81 
   1   1  -2   50.86    0.69 
   1   1  -2   51.51    0.85 
  -1  -1   2   50.74    0.73 
  -1  -1   2   52.55    0.70 
   0   1  -2   54.54    0.88 
   0   1  -2   54.38    0.73 
   0   1  -2   53.21    0.72 
   0  -1   2   54.16    0.75 
   0  -1   2   53.96    0.71 
   0  -1   2   54.29    0.68 
   0  -1   2   53.69    0.79 
  -1   1  -2    0.75    0.10 
  -1   1  -2    0.72    0.12 
  -1   1  -2    0.88    0.10 
   1  -1   2    0.68    0.07 
   1  -1   2    0.83    0.08 
   1  -1   2    0.90    0.08 
   1  -1   2    0.96    0.10 
  -2   1  -2   21.80    0.44 
  -2   1  -2   21.99    0.45 
  -2   1  -2   22.05    0.37 
  -2   1  -2   22.01    0.39 
   2  -1   2   21.75    0.35 
   2  -1   2   22.01    0.40 
   2  -1   2   22.51    0.35 
  -3   1  -2  101.98    1.41 
  -3   1  -2  102.64    1.50 
  -3   1  -2  105.19    1.54 
  -3   1  -2  104.02    1.32 
   3  -1   2  104.04    1.44 
   3  -1   2  105.39    1.39 
   3  -1   2  103.46    1.29 
  -4   1  -2    4.77    0.23 
  -4   1  -2    5.06    0.22 
   4  -1   2    5.21    0.20 
   4  -1   2    4.93    0.19 
   4  -1   2    5.16    0.25 
  -5   1  -2    2.06    0.17 
  -5   1  -2    1.88    0.19 
  -5   1  -2    1.54    0.21 
   5  -1   2    2.05    0.21 
   5  -1   2    2.24    0.17 
   5  -1   2    1.91    0.17 
  -6   1  -2   29.37    0.75 
  -6   1  -2   29.51    0.68 
   6  -1   2   29.91    0.71 
   6  -1   2   30.94    0.63 
   6  -1   2   30.08    0.57 
  -7   1  -2    0.87    0.20 
  -7   1  -2    1.19    0.24 
   7  -1   2    1.09    0.16 
   7  -1   2    0.86    0.21 
  -8   1  -2    0.22    0.21 
  -8   1  -2    0.16    0.18 
   8  -1   2    0.17    0.20 
   8  -1   2    0.38    0.16 
  -9   1  -2    5.17    0.41 
  -9   1  -2    5.54    0.48 
   9  -1   2    4.27    0.32 
   9  -1   2    4.09    0.39 
 -10   1  -2   -0.12    0.22 
 -10   1  -2    0.29    0.25 
  10  -1   2    0.18    0.27 
  10  -1   2   -0.21    0.19 
  10   0  -2    0.82    0.25 
  10   0  -2    0.11    0.37 
 -10   0   2   -0.01    0.26 
   9   0  -2    0.36    0.31 
   9   0  -2   -0.05    0.28 
   9   0  -2    0.64    0.21 
  -9   0   2    0.53    0.27 
   8   0  -2   -0.17    0.14 
   8   0  -2    0.21    0.24 
   8   0  -2   -0.02    0.24 
  -8   0   2    0.17    0.20 
   7   0  -2    3.94    0.37 
   7   0  -2    4.15    0.37 
   7   0  -2    3.34    0.25 
  -7   0   2    3.74    0.30 
  -7   0   2    4.02    0.35 
   6   0  -2   20.11    0.47 
   6   0  -2   18.95    0.62 
   6   0  -2   20.25    0.63 
  -6   0   2   20.31    0.52 
  -6   0   2   19.52    0.58 
   5   0  -2    3.34    0.22 
   5   0  -2    3.60    0.31 
  -5   0   2    3.66    0.23 
  -5   0   2    3.45    0.26 
   4   0  -2    3.80    0.26 
   4   0  -2    3.94    0.19 
   4   0  -2    4.43    0.16 
  -4   0   2    4.10    0.20 
  -4   0   2    4.25    0.23 
  -4   0   2    3.71    0.23 
   3   0  -2   24.12    0.41 
   3   0  -2   24.69    0.54 
   3   0  -2   25.36    0.43 
  -3   0   2   24.41    0.43 
  -3   0   2   24.71    0.49 
  -3   0   2   24.31    0.49 
   2   0  -2    1.21    0.13 
   2   0  -2    1.05    0.09 
   2   0  -2    1.38    0.12 
  -2   0   2    1.23    0.10 
  -2   0   2    1.20    0.09 
  -2   0   2    1.11    0.10 
   1   0  -2   10.02    0.26 
   1   0  -2    9.70    0.22 
  -1   0   2    9.63    0.20 
  -1   0   2    9.81    0.19 
  -1   0   2   10.22    0.16 
   0   0  -2   24.65    0.36 
   0   0  -2   23.99    0.35 
   0   0  -2   24.51    0.45 
   0   0  -2   24.68    0.39 
   0   0   2   24.78    0.34 
   0   0   2   24.01    0.37 
   0   0   2   24.01    0.36 
  -1   0  -2   24.46    0.36 
  -1   0  -2   24.59    0.47 
  -1   0  -2   23.90    0.41 
   1   0   2   23.96    0.37 
   1   0   2   24.00    0.38 
   1   0   2   24.15    0.34 
  -2   0  -2   45.75    0.72 
  -2   0  -2   45.75    0.67 
  -2   0  -2   46.54    0.75 
   2   0   2   45.44    0.67 
   2   0   2   46.60    0.59 
   2   0   2   46.86    0.61 
  -3   0  -2    2.79    0.17 
  -3   0  -2    2.61    0.19 
  -3   0  -2    3.13    0.17 
   3   0   2    2.69    0.12 
   3   0   2    2.91    0.13 
   3   0   2    2.89    0.18 
   3   0   2    2.77    0.15 
  -4   0  -2   26.60    0.58 
  -4   0  -2   27.17    0.54 
  -4   0  -2   27.95    0.53 
   4   0   2   27.66    0.48 
   4   0   2   26.75    0.44 
   4   0   2   27.46    0.48 
   4   0   2   26.37    0.55 
  -5   0  -2    0.39    0.12 
  -5   0  -2    0.28    0.12 
  -5   0  -2    0.31    0.15 
   5   0   2    0.34    0.13 
   5   0   2    0.52    0.16 
   5   0   2    0.34    0.10 
  -6   0  -2    5.90    0.35 
  -6   0  -2    5.33    0.32 
   6   0   2    5.72    0.31 
   6   0   2    5.47    0.25 
   6   0   2    5.61    0.35 
  -7   0  -2    9.70    0.46 
  -7   0  -2    9.83    0.42 
   7   0   2    9.86    0.33 
   7   0   2    9.50    0.44 
  -8   0  -2    1.59    0.26 
  -8   0  -2    1.21    0.24 
   8   0   2    0.85    0.24 
   8   0   2    1.46    0.19 
  -9   0  -2    2.48    0.34 
  -9   0  -2    2.58    0.32 
   9   0   2    2.20    0.32 
   9   0   2    2.18    0.24 
 -10   0  -2    1.81    0.31 
 -10   0  -2    1.95    0.34 
  10   0   2    1.47    0.24 
  10   0   2    0.94    0.29 
  10  -1  -2    0.14    0.23 
  10  -1  -2   -0.46    0.34 
 -10   1   2   -0.29    0.24 
   9  -1  -2    0.20    0.29 
   9  -1  -2   -0.03    0.30 
   9  -1  -2   -0.08    0.20 
  -9   1   2    0.11    0.23 
   8  -1  -2   -0.18    0.23 
   8  -1  -2    0.23    0.18 
   8  -1  -2   -0.07    0.22 
  -8   1   2   -0.06    0.17 
  -8   1   2    0.17    0.20 
   7  -1  -2    4.93    0.40 
   7  -1  -2    5.27    0.42 
  -7   1   2    5.20    0.35 
  -7   1   2    4.95    0.38 
   6  -1  -2    5.11    0.28 
   6  -1  -2    4.63    0.36 
   6  -1  -2    4.29    0.36 
  -6   1   2    4.89    0.32 
  -6   1   2    4.49    0.33 
   5  -1  -2    1.29    0.21 
   5  -1  -2    1.43    0.23 
   5  -1  -2    1.24    0.16 
  -5   1   2    1.40    0.18 
  -5   1   2    1.31    0.19 
   4  -1  -2    8.49    0.27 
   4  -1  -2    8.80    0.33 
   4  -1  -2    8.50    0.35 
  -4   1   2    8.41    0.29 
  -4   1   2    8.72    0.31 
   3  -1  -2    6.39    0.21 
   3  -1  -2    5.53    0.24 
   3  -1  -2    6.39    0.17 
  -3   1   2    6.23    0.21 
  -3   1   2    5.96    0.22 
  -3   1   2    5.87    0.23 
   2  -1  -2   18.59    0.34 
   2  -1  -2   17.36    0.40 
   2  -1  -2   17.32    0.32 
  -2   1   2   18.17    0.33 
  -2   1   2   17.50    0.34 
  -2   1   2   16.81    0.34 
  -2   1   2   18.10    0.32 
   1  -1  -2   25.71    0.46 
   1  -1  -2   25.18    0.46 
   1  -1  -2   25.15    0.39 
  -1   1   2   25.90    0.37 
  -1   1   2   24.67    0.38 
  -1   1   2   25.53    0.39 
  -1   1   2   24.41    0.39 
   0  -1  -2    0.38    0.07 
   0  -1  -2    0.26    0.11 
   0  -1  -2    0.38    0.08 
   0   1   2    0.43    0.06 
   0   1   2    0.42    0.06 
   0   1   2    0.32    0.03 
   0   1   2    0.44    0.07 
  -1  -1  -2   20.33    0.31 
  -1  -1  -2   20.36    0.43 
  -1  -1  -2   20.50    0.35 
   1   1   2   20.07    0.33 
   1   1   2   20.13    0.27 
   1   1   2   20.79    0.28 
   1   1   2   20.59    0.30 
  -2  -1  -2   46.32    0.70 
  -2  -1  -2   46.87    0.67 
  -2  -1  -2   47.19    0.65 
  -2  -1  -2   45.99    0.77 
   2   1   2   45.47    0.68 
   2   1   2   46.57    0.55 
   2   1   2   46.82    0.55 
  -3  -1  -2    0.29    0.09 
  -3  -1  -2    0.13    0.09 
  -3  -1  -2    0.28    0.10 
   3   1   2    0.23    0.05 
   3   1   2    0.19    0.07 
   3   1   2    0.12    0.09 
  -4  -1  -2  103.61    1.48 
  -4  -1  -2  105.73    1.57 
  -4  -1  -2  102.38    1.50 
   4   1   2  104.93    1.46 
   4   1   2  104.88    1.51 
   4   1   2  103.04    1.27 
  -5  -1  -2    0.27    0.12 
  -5  -1  -2    0.16    0.12 
  -5  -1  -2    0.01    0.12 
   5   1   2    0.18    0.09 
   5   1   2    0.08    0.13 
   5   1   2    0.21    0.11 
   5   1   2    0.30    0.08 
  -6  -1  -2    2.45    0.25 
  -6  -1  -2    1.79    0.21 
   6   1   2    2.37    0.16 
   6   1   2    2.59    0.23 
   6   1   2    2.04    0.24 
  -7  -1  -2   16.18    0.53 
  -7  -1  -2   16.39    0.54 
   7   1   2   17.51    0.53 
   7   1   2   16.15    0.39 
   7   1   2   16.46    0.56 
  -8  -1  -2    1.98    0.27 
  -8  -1  -2    1.73    0.26 
   8   1   2    1.69    0.18 
   8   1   2    1.42    0.27 
  -9  -1  -2    1.42    0.26 
  -9  -1  -2    1.43    0.27 
   9   1   2    0.92    0.19 
   9   1   2    0.87    0.26 
 -10  -1  -2    1.58    0.31 
 -10  -1  -2    1.55    0.31 
  10   1   2    0.84    0.29 
  10   1   2    1.61    0.23 
   9  -2  -2    6.37    0.44 
   9  -2  -2    6.36    0.52 
   9  -2  -2    7.28    0.55 
  -9   2   2    6.56    0.50 
   8  -2  -2    0.00    0.18 
   8  -2  -2    0.02    0.25 
   8  -2  -2   -0.03    0.24 
  -8   2   2   -0.25    0.18 
  -8   2   2    0.37    0.21 
   7  -2  -2    0.41    0.18 
   7  -2  -2    0.53    0.24 
   7  -2  -2    0.90    0.26 
  -7   2   2    0.61    0.20 
  -7   2   2    0.80    0.22 
   6  -2  -2    1.12    0.23 
   6  -2  -2    0.45    0.23 
   6  -2  -2    0.94    0.18 
  -6   2   2    0.63    0.19 
  -6   2   2    1.28    0.22 
   5  -2  -2   27.91    0.65 
   5  -2  -2   27.37    0.70 
   5  -2  -2   26.94    0.57 
  -5   2   2   27.61    0.64 
  -5   2   2   25.36    0.63 
   4  -2  -2    2.07    0.22 
   4  -2  -2    2.16    0.18 
   4  -2  -2    2.41    0.21 
  -4   2   2    2.57    0.21 
  -4   2   2    2.80    0.22 
  -4   2   2    2.52    0.19 
   3  -2  -2   -0.04    0.08 
   3  -2  -2   -0.02    0.10 
   3  -2  -2    0.13    0.13 
   3  -2  -2    0.04    0.10 
  -3   2   2    0.05    0.09 
  -3   2   2    0.12    0.09 
  -3   2   2    0.00    0.09 
   2  -2  -2  177.62    2.44 
   2  -2  -2  180.52    2.50 
   2  -2  -2  179.86    2.31 
   2  -2  -2  179.81    2.16 
  -2   2   2  181.14    2.30 
  -2   2   2  179.89    2.30 
  -2   2   2  180.81    2.17 
   1  -2  -2    4.27    0.20 
   1  -2  -2    4.37    0.13 
   1  -2  -2    4.52    0.16 
  -1   2   2    4.24    0.13 
  -1   2   2    4.27    0.15 
  -1   2   2    4.31    0.15 
   0  -2  -2   14.78    0.38 
   0  -2  -2   15.33    0.21 
   0  -2  -2   15.20    0.31 
   0   2   2   15.16    0.29 
   0   2   2   15.61    0.25 
   0   2   2   15.49    0.26 
  -1  -2  -2   -0.11    0.11 
  -1  -2  -2   -0.07    0.07 
  -1  -2  -2   -0.11    0.04 
  -1  -2  -2    0.00    0.07 
   1   2   2   -0.05    0.03 
   1   2   2   -0.07    0.03 
   1   2   2   -0.06    0.06 
  -2  -2  -2    5.19    0.24 
  -2  -2  -2    4.70    0.16 
  -2  -2  -2    4.66    0.15 
  -2  -2  -2    4.75    0.16 
  -3  -2  -2   37.19    0.62 
  -3  -2  -2   38.22    0.63 
  -3  -2  -2   37.14    0.73 
  -3  -2  -2   37.65    0.62 
  -4  -2  -2   35.63    0.65 
  -4  -2  -2   37.27    0.66 
  -4  -2  -2   36.07    0.72 
   4   2   2   35.54    0.68 
   4   2   2   37.14    0.66 
  -5  -2  -2    3.53    0.26 
  -5  -2  -2    3.41    0.24 
  -5  -2  -2    3.35    0.23 
   5   2   2    2.66    0.23 
   5   2   2    3.39    0.12 
   5   2   2    3.46    0.11 
   5   2   2    3.46    0.22 
  -6  -2  -2   25.31    0.61 
  -6  -2  -2   24.13    0.60 
   6   2   2   25.20    0.60 
   6   2   2   23.87    0.40 
   6   2   2   24.85    0.64 
  -7  -2  -2    1.95    0.24 
  -7  -2  -2    2.75    0.27 
   7   2   2    2.29    0.25 
   7   2   2    1.94    0.26 
  -8  -2  -2    8.40    0.42 
  -8  -2  -2    8.25    0.43 
   8   2   2    8.65    0.30 
   8   2   2    8.26    0.46 
  -9  -2  -2    0.37    0.21 
  -9  -2  -2    0.67    0.23 
   9   2   2    0.11    0.21 
   9   2   2    0.46    0.15 
 -10  -2  -2    0.36    0.24 
  10   2   2    0.01    0.16 
  10   2   2    0.47    0.26 
   9  -3  -2    2.57    0.32 
   9  -3  -2    1.74    0.37 
  -9   3   2    2.13    0.35 
  -9   3   2    2.30    0.36 
   8  -3  -2    4.85    0.42 
   8  -3  -2    4.45    0.34 
   8  -3  -2    4.93    0.44 
  -8   3   2    4.94    0.43 
  -8   3   2    4.73    0.41 
   7  -3  -2    0.75    0.25 
   7  -3  -2    0.53    0.19 
   7  -3  -2    0.63    0.25 
  -7   3   2    0.84    0.22 
  -7   3   2    0.89    0.23 
   6  -3  -2    2.89    0.30 
   6  -3  -2    3.04    0.25 
   6  -3  -2    3.24    0.30 
  -6   3   2    3.11    0.31 
  -6   3   2    2.80    0.28 
   5  -3  -2   12.48    0.41 
   5  -3  -2   11.78    0.49 
   5  -3  -2   11.74    0.44 
  -5   3   2   11.86    0.45 
  -5   3   2   12.02    0.44 
   4  -3  -2    7.13    0.29 
   4  -3  -2    7.69    0.32 
   4  -3  -2    7.22    0.35 
  -4   3   2    7.55    0.33 
  -4   3   2    7.10    0.23 
  -4   3   2    7.08    0.32 
  -4   3   2    6.48    0.29 
   3  -3  -2   25.01    0.50 
   3  -3  -2   24.40    0.56 
   3  -3  -2   24.33    0.49 
   3  -3  -2   24.66    0.47 
  -3   3   2   24.47    0.50 
  -3   3   2   25.26    0.51 
  -3   3   2   24.44    0.53 
   2  -3  -2   26.49    0.55 
   2  -3  -2   27.80    0.57 
   2  -3  -2   27.66    0.47 
   2  -3  -2   27.43    0.47 
  -2   3   2   27.81    0.50 
  -2   3   2   27.19    0.52 
  -2   3   2   27.88    0.48 
   1  -3  -2   13.11    0.26 
   1  -3  -2   12.94    0.24 
   1  -3  -2   12.39    0.33 
   1  -3  -2   12.89    0.38 
  -1   3   2   12.99    0.28 
  -1   3   2   12.54    0.29 
  -1   3   2   12.98    0.25 
   0  -3  -2   28.83    0.61 
   0  -3  -2   28.95    0.52 
   0  -3  -2   29.51    0.41 
   0   3   2   29.42    0.42 
   0   3   2   28.75    0.42 
   0   3   2   28.63    0.49 
  -1  -3  -2   -0.05    0.07 
  -1  -3  -2   -0.05    0.03 
  -1  -3  -2    0.02    0.12 
   1   3   2    0.10    0.06 
   1   3   2   -0.01    0.03 
   1   3   2   -0.01    0.03 
   1   3   2    0.17    0.06 
  -2  -3  -2   20.62    0.41 
  -2  -3  -2   19.95    0.52 
  -2  -3  -2   20.44    0.36 
  -2  -3  -2   20.91    0.42 
   2   3   2   20.64    0.36 
  -3  -3  -2    0.67    0.12 
  -3  -3  -2    0.57    0.09 
  -3  -3  -2    0.44    0.15 
  -3  -3  -2    0.50    0.10 
  -3  -3  -2    0.66    0.11 
  -4  -3  -2   13.43    0.35 
  -4  -3  -2   12.81    0.44 
  -4  -3  -2   13.79    0.38 
  -4  -3  -2   13.08    0.35 
  -4  -3  -2   13.44    0.37 
  -5  -3  -2    4.99    0.32 
  -5  -3  -2    5.08    0.27 
  -5  -3  -2    5.26    0.27 
   5   3   2    4.62    0.28 
  -6  -3  -2    3.79    0.27 
  -6  -3  -2    4.23    0.34 
  -6  -3  -2    4.70    0.32 
   6   3   2    4.37    0.32 
   6   3   2    4.28    0.33 
  -7  -3  -2    5.20    0.31 
  -7  -3  -2    5.41    0.34 
   7   3   2    5.03    0.35 
   7   3   2    5.19    0.18 
   7   3   2    5.11    0.36 
  -8  -3  -2    2.25    0.27 
  -8  -3  -2    2.13    0.26 
   8   3   2    2.48    0.32 
   8   3   2    2.49    0.17 
  -9  -3  -2    1.22    0.25 
  -9  -3  -2    0.98    0.23 
   9   3   2    0.97    0.17 
   9   3   2    1.08    0.27 
 -10  -3  -2    0.24    0.23 
  10   3   2    0.02    0.15 
  10   3   2    0.05    0.23 
   9  -4  -2    0.92    0.33 
  -9   4   2    0.82    0.31 
  -9   4   2    0.72    0.27 
   8  -4  -2    6.36    0.44 
   8  -4  -2    6.91    0.52 
   8  -4  -2    5.62    0.47 
  -8   4   2    6.07    0.46 
  -8   4   2    6.04    0.48 
   7  -4  -2    0.26    0.20 
   7  -4  -2    0.40    0.23 
   7  -4  -2   -0.06    0.20 
  -7   4   2   -0.11    0.17 
  -7   4   2    0.42    0.23 
   6  -4  -2    2.45    0.25 
   6  -4  -2    1.80    0.28 
   6  -4  -2    2.05    0.26 
  -6   4   2    2.68    0.28 
  -6   4   2    2.38    0.30 
   5  -4  -2    0.83    0.19 
   5  -4  -2    0.56    0.20 
   5  -4  -2    0.27    0.15 
  -5   4   2    0.59    0.19 
  -5   4   2    0.70    0.17 
   4  -4  -2    8.82    0.33 
   4  -4  -2    8.35    0.33 
   4  -4  -2    7.42    0.40 
  -4   4   2    8.66    0.31 
  -4   4   2    8.05    0.38 
  -4   4   2    8.74    0.39 
  -4   4   2    8.30    0.34 
   3  -4  -2    7.23    0.27 
   3  -4  -2    6.91    0.26 
   3  -4  -2    7.30    0.34 
  -3   4   2    7.27    0.30 
  -3   4   2    6.88    0.31 
  -3   4   2    7.17    0.26 
  -3   4   2    7.08    0.32 
   2  -4  -2   12.43    0.29 
   2  -4  -2   11.85    0.29 
   2  -4  -2   11.85    0.37 
   2  -4  -2   11.51    0.40 
  -2   4   2   11.37    0.34 
  -2   4   2   11.68    0.35 
  -2   4   2   11.65    0.29 
   1  -4  -2   29.33    0.48 
   1  -4  -2   29.02    0.66 
   1  -4  -2   29.27    0.44 
   1  -4  -2   29.02    0.58 
  -1   4   2   29.66    0.45 
  -1   4   2   28.47    0.51 
  -1   4   2   28.20    0.54 
   0  -4  -2   29.41    0.69 
   0  -4  -2   28.90    0.58 
   0  -4  -2   29.02    0.45 
   0   4   2   29.87    0.47 
   0   4   2   30.09    0.42 
   0   4   2   28.77    0.53 
  -1  -4  -2    2.31    0.18 
  -1  -4  -2    2.52    0.11 
  -1  -4  -2    2.53    0.26 
   1   4   2    2.36    0.15 
   1   4   2    2.19    0.11 
   1   4   2    1.95    0.10 
   1   4   2    2.40    0.09 
  -2  -4  -2    0.18    0.10 
  -2  -4  -2    0.17    0.16 
  -2  -4  -2    0.08    0.06 
   2   4   2    0.20    0.06 
   2   4   2    0.06    0.08 
  -3  -4  -2   14.04    0.35 
  -3  -4  -2   13.31    0.33 
  -3  -4  -2   13.32    0.30 
  -3  -4  -2   12.14    0.47 
  -3  -4  -2   13.06    0.39 
  -4  -4  -2    1.57    0.17 
  -4  -4  -2    1.51    0.19 
  -4  -4  -2    1.39    0.16 
  -4  -4  -2    1.31    0.23 
  -4  -4  -2    1.38    0.14 
  -5  -4  -2    6.51    0.40 
  -5  -4  -2    6.92    0.30 
  -5  -4  -2    6.81    0.33 
  -5  -4  -2    6.95    0.30 
  -5  -4  -2    6.54    0.34 
  -6  -4  -2    0.02    0.13 
  -6  -4  -2    0.07    0.12 
  -6  -4  -2    0.08    0.14 
  -6  -4  -2    0.13    0.19 
   6   4   2    0.22    0.16 
  -7  -4  -2    6.90    0.35 
  -7  -4  -2    6.51    0.37 
   7   4   2    5.47    0.38 
   7   4   2    7.39    0.42 
  -8  -4  -2    0.27    0.18 
  -8  -4  -2    0.28    0.17 
   8   4   2    0.30    0.09 
   8   4   2    0.20    0.19 
  -9  -4  -2    0.31    0.21 
   9   4   2    0.19    0.12 
   9   4   2   -0.03    0.21 
 -10  -4  -2    1.57    0.30 
  10   4   2    1.00    0.29 
  10   4   2    1.19    0.18 
   8  -5  -2    5.16    0.44 
   8  -5  -2    4.25    0.42 
  -8   5   2    4.17    0.39 
  -8   5   2    4.63    0.48 
   7  -5  -2    5.70    0.41 
   7  -5  -2    4.85    0.41 
  -7   5   2    6.10    0.50 
  -7   5   2    5.11    0.39 
   6  -5  -2    0.05    0.20 
   6  -5  -2    0.07    0.19 
  -6   5   2   -0.11    0.18 
  -6   5   2    0.15    0.16 
   5  -5  -2   15.42    0.47 
   5  -5  -2   15.10    0.45 
   5  -5  -2   15.25    0.55 
  -5   5   2   14.99    0.56 
  -5   5   2   15.61    0.48 
   4  -5  -2   10.44    0.36 
   4  -5  -2   10.52    0.36 
   4  -5  -2    9.66    0.44 
  -4   5   2    9.84    0.44 
  -4   5   2   10.33    0.36 
   3  -5  -2    2.63    0.19 
   3  -5  -2    2.56    0.21 
   3  -5  -2    2.31    0.25 
  -3   5   2    2.89    0.26 
  -3   5   2    2.78    0.26 
  -3   5   2    2.15    0.23 
  -3   5   2    2.56    0.19 
   2  -5  -2    1.21    0.19 
   2  -5  -2    1.13    0.15 
   2  -5  -2    1.16    0.12 
  -2   5   2    0.99    0.16 
  -2   5   2    1.34    0.13 
  -2   5   2    1.11    0.18 
   1  -5  -2   16.28    0.53 
   1  -5  -2   15.55    0.30 
   1  -5  -2   15.35    0.45 
   1  -5  -2   16.03    0.35 
  -1   5   2   16.43    0.30 
  -1   5   2   15.61    0.40 
  -1   5   2   14.84    0.41 
   0  -5  -2    3.83    0.32 
   0  -5  -2    3.73    0.24 
   0  -5  -2    4.05    0.16 
   0   5   2    3.81    0.20 
   0   5   2    4.10    0.21 
   0   5   2    4.26    0.11 
  -1  -5  -2   20.45    0.63 
  -1  -5  -2   20.63    0.38 
  -1  -5  -2   20.14    0.50 
   1   5   2   20.78    0.45 
   1   5   2   20.58    0.32 
   1   5   2   21.04    0.34 
   1   5   2   20.72    0.36 
  -2  -5  -2    5.04    0.18 
  -2  -5  -2    4.85    0.27 
  -2  -5  -2    5.09    0.37 
   2   5   2    4.68    0.22 
   2   5   2    4.80    0.13 
   2   5   2    5.11    0.16 
   2   5   2    5.10    0.12 
  -3  -5  -2    0.92    0.12 
  -3  -5  -2    0.68    0.24 
  -3  -5  -2    0.87    0.17 
   3   5   2    0.94    0.11 
   3   5   2    0.94    0.14 
  -4  -5  -2   17.51    0.46 
  -4  -5  -2   17.85    0.40 
  -4  -5  -2   17.90    0.53 
  -4  -5  -2   18.33    0.63 
   4   5   2   17.79    0.44 
  -5  -5  -2    2.04    0.25 
  -5  -5  -2    1.84    0.18 
  -5  -5  -2    2.04    0.31 
  -5  -5  -2    1.41    0.19 
  -5  -5  -2    1.41    0.20 
  -6  -5  -2    2.67    0.23 
  -6  -5  -2    2.69    0.24 
  -6  -5  -2    2.82    0.28 
  -7  -5  -2    0.21    0.16 
  -7  -5  -2    0.35    0.16 
   7   5   2    0.41    0.21 
  -8  -5  -2    4.59    0.35 
   8   5   2    3.98    0.38 
   8   5   2    3.84    0.37 
  -9  -5  -2   -0.03    0.19 
   9   5   2    0.16    0.22 
   9   5   2   -0.12    0.10 
   8  -6  -2   -0.40    0.27 
  -8   6   2   -0.04    0.26 
   7  -6  -2    1.36    0.30 
   7  -6  -2    1.16    0.29 
  -7   6   2    0.83    0.29 
   6  -6  -2    0.48    0.23 
   6  -6  -2    0.34    0.21 
  -6   6   2    0.43    0.23 
   5  -6  -2    6.43    0.42 
   5  -6  -2    6.39    0.37 
  -5   6   2    6.49    0.43 
   4  -6  -2    0.96    0.23 
   4  -6  -2    1.07    0.19 
  -4   6   2    0.83    0.21 
   3  -6  -2    3.43    0.30 
   3  -6  -2    3.19    0.27 
  -3   6   2    3.54    0.32 
  -3   6   2    3.19    0.28 
  -3   6   2    3.52    0.30 
   2  -6  -2    0.32    0.19 
   2  -6  -2   -0.08    0.13 
  -2   6   2    0.15    0.19 
  -2   6   2    0.05    0.16 
  -2   6   2    0.19    0.15 
   1  -6  -2    4.94    0.24 
   1  -6  -2    4.83    0.33 
  -1   6   2    4.76    0.37 
  -1   6   2    5.10    0.29 
  -1   6   2    5.05    0.30 
   0  -6  -2    9.57    0.39 
   0  -6  -2    9.19    0.48 
   0  -6  -2    9.32    0.27 
   0   6   2    8.59    0.31 
   0   6   2    8.51    0.32 
  -1  -6  -2    1.71    0.21 
  -1  -6  -2    1.33    0.13 
  -1  -6  -2    1.30    0.27 
   1   6   2    1.29    0.14 
   1   6   2    1.48    0.17 
  -2  -6  -2   38.94    0.64 
  -2  -6  -2   38.26    0.81 
  -2  -6  -2   35.75    0.95 
   2   6   2   37.49    0.57 
   2   6   2   38.47    0.56 
   2   6   2   38.07    0.71 
  -3  -6  -2    1.66    0.30 
  -3  -6  -2    1.48    0.23 
  -3  -6  -2    1.41    0.15 
   3   6   2    1.10    0.16 
   3   6   2    1.53    0.13 
   3   6   2    1.53    0.10 
   3   6   2    1.55    0.10 
  -4  -6  -2   12.53    0.40 
  -4  -6  -2   13.26    0.50 
  -4  -6  -2   11.95    0.59 
   4   6   2   12.88    0.39 
   4   6   2   12.65    0.33 
  -5  -6  -2    1.15    0.15 
  -5  -6  -2    1.25    0.24 
  -5  -6  -2    1.23    0.19 
   5   6   2    1.35    0.18 
  -6  -6  -2    0.18    0.16 
  -6  -6  -2   -0.22    0.11 
  -6  -6  -2   -0.14    0.18 
   6   6   2    0.04    0.12 
   6   6   2    0.01    0.21 
  -7  -6  -2    5.06    0.40 
  -7  -6  -2    4.75    0.32 
   7   6   2    4.98    0.44 
   7   6   2    5.34    0.44 
  -8  -6  -2    0.96    0.22 
   8   6   2    1.13    0.29 
  -9  -6  -2    1.17    0.25 
   9   6   2    1.17    0.12 
   9   6   2    0.89    0.27 
   7  -7  -2    0.27    0.28 
   7  -7  -2    0.26    0.25 
  -7   7   2    0.22    0.28 
   6  -7  -2   -0.11    0.21 
   6  -7  -2    0.00    0.25 
  -6   7   2    0.16    0.25 
   5  -7  -2    0.80    0.22 
   5  -7  -2    0.79    0.26 
  -5   7   2    0.49    0.23 
   4  -7  -2    0.28    0.22 
   4  -7  -2    0.19    0.18 
  -4   7   2    0.56    0.22 
   3  -7  -2    3.68    0.30 
   3  -7  -2    4.56    0.39 
  -3   7   2    4.50    0.37 
  -3   7   2    4.05    0.38 
  -3   7   2    4.55    0.35 
   2  -7  -2    3.77    0.33 
   2  -7  -2    4.08    0.27 
  -2   7   2    3.73    0.30 
  -2   7   2    3.93    0.32 
  -2   7   2    4.20    0.37 
   1  -7  -2    1.08    0.15 
   1  -7  -2    0.71    0.20 
  -1   7   2    0.92    0.19 
  -1   7   2    0.88    0.18 
  -1   7   2    1.47    0.29 
   0  -7  -2   13.82    0.51 
   0  -7  -2   14.30    0.37 
   0   7   2   14.84    0.45 
   0   7   2   14.61    0.62 
   0   7   2   14.78    0.46 
  -1  -7  -2    4.46    0.22 
  -1  -7  -2    3.94    0.34 
   1   7   2    4.14    0.40 
   1   7   2    4.64    0.28 
   1   7   2    3.40    0.25 
  -2  -7  -2    1.17    0.14 
  -2  -7  -2    1.40    0.24 
   2   7   2    1.30    0.15 
   2   7   2    1.08    0.17 
  -3  -7  -2    3.55    0.33 
  -3  -7  -2    3.37    0.23 
   3   7   2    3.75    0.25 
   3   7   2    3.30    0.18 
  -4  -7  -2    0.29    0.20 
  -4  -7  -2    0.38    0.13 
   4   7   2    0.14    0.07 
   4   7   2    0.19    0.12 
   4   7   2   -0.01    0.22 
  -5  -7  -2    1.98    0.30 
  -5  -7  -2    1.96    0.23 
   5   7   2    1.63    0.20 
   5   7   2    2.07    0.35 
  -6  -7  -2   -0.18    0.16 
  -6  -7  -2    0.27    0.22 
   6   7   2    0.14    0.23 
   6   7   2    0.11    0.14 
  -7  -7  -2    1.12    0.26 
   7   7   2    1.02    0.31 
  -8  -7  -2    2.24    0.34 
   8   7   2    2.80    0.39 
   9   7   2    0.51    0.25 
   6  -8  -2    1.32    0.32 
  -6   8   2    1.47    0.36 
   5  -8  -2    1.31    0.32 
  -5   8   2    1.17    0.30 
   4  -8  -2    4.69    0.42 
  -4   8   2    4.22    0.40 
   3  -8  -2    1.12    0.27 
  -3   8   2    0.76    0.23 
  -3   8   2    0.82    0.27 
  -3   8   2    0.95    0.25 
   2  -8  -2    0.33    0.15 
   2  -8  -2    0.57    0.24 
  -2   8   2    0.46    0.21 
  -2   8   2    0.41    0.25 
  -2   8   2    0.27    0.17 
   1  -8  -2    2.10    0.20 
   1  -8  -2    2.62    0.31 
  -1   8   2    2.22    0.26 
  -1   8   2    2.93    0.29 
  -1   8   2    2.12    0.33 
   0  -8  -2    0.67    0.22 
   0  -8  -2    1.02    0.16 
   0   8   2    1.08    0.20 
   0   8   2    1.08    0.21 
   0   8   2    1.04    0.29 
  -1  -8  -2    6.47    0.41 
  -1  -8  -2    6.04    0.27 
   1   8   2    7.12    0.52 
   1   8   2    6.41    0.34 
   1   8   2    6.70    0.35 
  -2  -8  -2    9.65    0.48 
  -2  -8  -2    9.05    0.33 
   2   8   2    9.19    0.38 
   2   8   2    8.67    0.34 
   2   8   2    9.58    0.59 
  -3  -8  -2   24.77    0.57 
  -3  -8  -2   26.17    0.78 
   3   8   2   24.80    0.52 
   3   8   2   25.09    0.89 
   3   8   2   25.90    0.62 
  -4  -8  -2    1.69    0.21 
  -4  -8  -2    1.90    0.32 
   4   8   2    1.34    0.15 
   4   8   2    1.52    0.34 
   4   8   2    1.65    0.21 
  -5  -8  -2    0.41    0.25 
  -5  -8  -2    0.29    0.17 
   5   8   2    0.19    0.14 
   5   8   2    0.26    0.27 
   5   8   2    0.45    0.10 
  -6  -8  -2    0.54    0.21 
  -6  -8  -2    0.71    0.27 
   6   8   2    0.62    0.30 
   6   8   2    0.80    0.10 
  -7  -8  -2    0.52    0.28 
   7   8   2    0.54    0.32 
   8   8   2    8.77    0.63 
   5  -9  -2    0.42    0.31 
  -5   9   2    0.63    0.29 
   4  -9  -2    9.82    0.58 
  -4   9   2    8.40    0.55 
   3  -9  -2    6.48    0.51 
  -3   9   2    6.59    0.49 
   2  -9  -2    1.17    0.28 
  -2   9   2    0.40    0.21 
  -2   9   2    0.92    0.27 
  -2   9   2    0.52    0.29 
   1  -9  -2    2.05    0.32 
  -1   9   2    1.97    0.38 
  -1   9   2    1.75    0.29 
  -1   9   2    1.41    0.25 
   0  -9  -2    0.01    0.22 
   0   9   2    0.06    0.17 
   0   9   2    0.12    0.19 
   0   9   2   -0.10    0.25 
  -1  -9  -2    6.10    0.46 
   1   9   2    5.55    0.38 
   1   9   2    6.15    0.55 
   1   9   2    6.14    0.37 
  -2  -9  -2    1.67    0.30 
   2   9   2    1.80    0.23 
   2   9   2    2.15    0.25 
   2   9   2    1.88    0.39 
  -3  -9  -2    0.19    0.23 
   3   9   2    0.27    0.16 
   3   9   2    0.46    0.32 
   3   9   2    0.41    0.16 
  -4  -9  -2    2.09    0.36 
   4   9   2    1.68    0.40 
   4   9   2    1.61    0.22 
   4   9   2    1.76    0.21 
  -5  -9  -2    1.53    0.34 
   5   9   2    1.85    0.19 
   5   9   2    1.17    0.38 
  -6  -9  -2    2.84    0.43 
   6   9   2    3.06    0.48 
   6   9   2    2.64    0.20 
  -7  -9  -2    1.22    0.35 
   7   9   2    0.62    0.15 
   7   9   2    0.64    0.37 
   3 -10  -2    1.57    0.35 
  -3  10   2    1.47    0.32 
   2 -10  -2    1.74    0.36 
  -2  10   2    1.79    0.35 
  -2  10   2    1.87    0.41 
  -2  10   2    1.94    0.33 
   1 -10  -2    1.15    0.32 
  -1  10   2    1.72    0.34 
  -1  10   2    1.10    0.27 
  -1  10   2    1.00    0.36 
   0 -10  -2    1.15    0.33 
   0  10   2    1.01    0.25 
   0  10   2    1.26    0.37 
   0  10   2    1.01    0.28 
  -1 -10  -2    1.67    0.35 
   1  10   2    2.06    0.29 
   1  10   2    2.75    0.33 
   1  10   2    1.68    0.42 
  -2 -10  -2    0.19    0.29 
   2  10   2   -0.14    0.16 
   2  10   2   -0.33    0.29 
   2  10   2    0.07    0.20 
  -3 -10  -2    9.02    0.61 
   3  10   2    8.51    0.44 
   3  10   2    7.91    0.44 
   3  10   2    8.12    0.68 
  -4 -10  -2    2.32    0.40 
   4  10   2    2.60    0.28 
   4  10   2    2.73    0.49 
  -5 -10  -2    0.65    0.33 
   5  10   2   -0.03    0.33 
   5  10   2    0.33    0.18 
  -6 -10  -2    0.61    0.34 
   6  10   2    0.99    0.20 
   6  10   2    1.20    0.40 
   1 -11  -2    0.21    0.30 
  -1  11   2   -0.03    0.32 
  -1  11   2    0.08    0.23 
  -1  11   2    0.71    0.32 
   0 -11  -2    0.65    0.32 
   0  11   2   -0.01    0.36 
   0  11   2    0.19    0.22 
   0  11   2    0.40    0.30 
  -1 -11  -2   -0.34    0.28 
   1  11   2    0.50    0.39 
   1  11   2    0.23    0.27 
   1  11   2    0.28    0.22 
  -2 -11  -2   -0.21    0.29 
   2  11   2    0.01    0.24 
   2  11   2   -0.87    0.32 
  -3 -11  -2    0.34    0.34 
   3  11   2    1.19    0.28 
   3  11   2   -0.27    0.36 
   1  10  -3    0.34    0.32 
   1  10  -3    0.41    0.42 
  -1 -10   3    0.81    0.38 
  -1 -10   3    0.87    0.24 
   0  10  -3   -0.01    0.31 
   0  10  -3    0.53    0.41 
   0 -10   3   -0.16    0.31 
   0 -10   3    0.31    0.22 
   5   9  -3    0.74    0.26 
   5   9  -3    0.82    0.42 
  -5  -9   3    1.12    0.28 
   4   9  -3    0.87    0.27 
   4   9  -3    0.69    0.42 
  -4  -9   3    1.11    0.36 
  -4  -9   3    1.35    0.28 
   3   9  -3    0.47    0.26 
   3   9  -3    0.54    0.38 
  -3  -9   3    0.49    0.21 
  -3  -9   3    0.83    0.35 
   2   9  -3    0.35    0.27 
   2   9  -3    0.95    0.40 
  -2  -9   3    0.49    0.34 
  -2  -9   3    0.44    0.20 
   1   9  -3    0.63    0.29 
   1   9  -3    0.71    0.37 
  -1  -9   3    0.77    0.34 
  -1  -9   3    0.64    0.22 
   0   9  -3   -0.12    0.28 
   0   9  -3    0.05    0.33 
   0  -9   3    0.28    0.30 
   0  -9   3   -0.29    0.18 
  -1   9  -3    1.22    0.34 
  -1   9  -3    0.85    0.38 
   1  -9   3    1.37    0.36 
   1  -9   3    0.93    0.24 
  -2   9  -3    2.51    0.35 
  -2   9  -3    2.92    0.49 
   2  -9   3    2.34    0.40 
   2  -9   3    2.05    0.30 
  -3   9  -3    7.79    0.57 
  -3   9  -3    8.34    0.66 
   3  -9   3    7.62    0.51 
   6   8  -3    0.02    0.20 
   6   8  -3   -0.26    0.36 
   6   8  -3    0.18    0.36 
  -6  -8   3   -0.25    0.21 
   5   8  -3    0.06    0.21 
   5   8  -3   -0.20    0.33 
  -5  -8   3    0.28    0.21 
   4   8  -3    1.15    0.38 
   4   8  -3    1.36    0.25 
  -4  -8   3    1.02    0.33 
  -4  -8   3    1.16    0.25 
   3   8  -3   35.12    0.84 
   3   8  -3   32.95    1.13 
  -3  -8   3   34.29    1.03 
  -3  -8   3   35.73    0.84 
   2   8  -3   73.19    1.73 
   2   8  -3   72.03    1.31 
  -2  -8   3   72.27    1.55 
  -2  -8   3   72.04    1.30 
   1   8  -3    1.19    0.35 
   1   8  -3    1.16    0.26 
  -1  -8   3    1.28    0.23 
  -1  -8   3    0.96    0.32 
   0   8  -3   -0.10    0.21 
   0   8  -3    0.24    0.30 
   0  -8   3    0.42    0.18 
   0  -8   3    0.47    0.28 
  -1   8  -3    0.89    0.35 
  -1   8  -3    1.13    0.24 
  -1   8  -3    0.91    0.27 
   1  -8   3    0.98    0.27 
   1  -8   3    1.07    0.23 
  -2   8  -3    0.17    0.21 
  -2   8  -3    0.47    0.31 
  -2   8  -3   -0.44    0.23 
   2  -8   3    0.18    0.25 
   2  -8   3    0.17    0.21 
  -3   8  -3    6.34    0.51 
  -3   8  -3    7.38    0.60 
   3  -8   3    7.40    0.45 
   3  -8   3    7.57    0.52 
  -4   8  -3    0.09    0.24 
   4  -8   3   -0.03    0.23 
  -5   8  -3    4.28    0.48 
   5  -8   3    3.60    0.41 
   7   7  -3   -0.01    0.33 
   7   7  -3    0.00    0.19 
  -7  -7   3    0.34    0.26 
   6   7  -3   -0.54    0.29 
   6   7  -3    0.01    0.31 
   6   7  -3   -0.05    0.18 
  -6  -7   3   -0.05    0.21 
   5   7  -3    2.31    0.26 
   5   7  -3    2.47    0.41 
  -5  -7   3    2.37    0.31 
   4   7  -3    0.12    0.17 
   4   7  -3   -0.42    0.24 
  -4  -7   3   -0.19    0.24 
  -4  -7   3    0.11    0.16 
   3   7  -3    0.05    0.19 
   3   7  -3    0.44    0.27 
  -3  -7   3    0.23    0.16 
  -3  -7   3    0.48    0.25 
   2   7  -3    0.30    0.20 
   2   7  -3    0.50    0.28 
  -2  -7   3    0.22    0.24 
  -2  -7   3    0.62    0.17 
   1   7  -3    4.50    0.47 
   1   7  -3    4.91    0.36 
  -1  -7   3    4.77    0.42 
  -1  -7   3    4.75    0.32 
   0   7  -3    0.84    0.24 
   0   7  -3    0.36    0.27 
   0   7  -3    0.97    0.20 
   0  -7   3    1.04    0.20 
   0  -7   3    1.05    0.26 
  -1   7  -3    5.46    0.43 
  -1   7  -3    4.94    0.48 
  -1   7  -3    6.05    0.38 
   1  -7   3    4.89    0.40 
   1  -7   3    6.00    0.35 
  -2   7  -3    3.30    0.33 
  -2   7  -3    2.80    0.39 
  -2   7  -3    3.78    0.37 
   2  -7   3    3.21    0.33 
   2  -7   3    3.80    0.33 
  -3   7  -3    4.60    0.41 
  -3   7  -3    5.12    0.49 
   3  -7   3    5.61    0.40 
   3  -7   3    4.71    0.40 
  -4   7  -3    2.97    0.37 
   4  -7   3    2.47    0.31 
  -5   7  -3   12.33    0.65 
   5  -7   3   12.17    0.58 
  -6   7  -3   -0.23    0.23 
   6  -7   3    0.53    0.28 
   8   6  -3    0.57    0.36 
   8   6  -3    1.64    0.23 
  -8  -6   3    1.09    0.32 
   7   6  -3    1.44    0.22 
   7   6  -3    1.72    0.40 
  -7  -6   3    1.59    0.32 
   6   6  -3    3.09    0.43 
   6   6  -3    2.66    0.25 
   6   6  -3    3.09    0.43 
  -6  -6   3    3.02    0.34 
   5   6  -3   -0.22    0.24 
   5   6  -3    0.12    0.24 
   5   6  -3    0.20    0.15 
  -5  -6   3    0.34    0.18 
   4   6  -3   -0.02    0.24 
   4   6  -3    0.06    0.14 
  -4  -6   3   -0.15    0.13 
  -4  -6   3    0.32    0.24 
   3   6  -3   -0.04    0.23 
   3   6  -3    0.08    0.16 
  -3  -6   3   -0.01    0.20 
  -3  -6   3    0.08    0.13 
   2   6  -3   38.28    0.77 
   2   6  -3   35.94    1.01 
  -2  -6   3   39.63    0.79 
  -2  -6   3   38.03    0.93 
   1   6  -3   56.43    0.95 
   1   6  -3   56.17    1.01 
   1   6  -3   54.92    1.29 
  -1  -6   3   55.75    1.14 
  -1  -6   3   56.05    1.00 
   0   6  -3    1.20    0.28 
   0   6  -3    1.42    0.24 
   0   6  -3    1.60    0.19 
   0  -6   3    1.15    0.24 
   0  -6   3    1.60    0.20 
  -1   6  -3    0.51    0.21 
  -1   6  -3    0.60    0.26 
  -1   6  -3    0.57    0.17 
   1  -6   3    0.89    0.22 
   1  -6   3    0.63    0.17 
  -2   6  -3    3.20    0.30 
  -2   6  -3    3.19    0.37 
  -2   6  -3    4.46    0.36 
   2  -6   3    3.95    0.31 
   2  -6   3    3.33    0.31 
  -3   6  -3    2.07    0.33 
  -3   6  -3    2.34    0.30 
   3  -6   3    2.13    0.26 
   3  -6   3    2.11    0.27 
  -4   6  -3    1.69    0.31 
  -4   6  -3    1.21    0.25 
   4  -6   3    0.91    0.23 
   4  -6   3    1.28    0.23 
  -5   6  -3    0.71    0.25 
   5  -6   3    0.85    0.26 
  -6   6  -3    0.66    0.29 
   6  -6   3    0.54    0.27 
  -7   6  -3    1.70    0.36 
   7  -6   3    1.17    0.33 
   8   5  -3   27.72    0.65 
   8   5  -3   27.30    1.00 
  -8  -5   3   27.85    0.83 
  -8  -5   3   27.90    0.90 
   7   5  -3   19.72    0.51 
   7   5  -3   19.98    0.81 
  -7  -5   3   19.98    0.64 
  -7  -5   3   19.49    0.71 
   6   5  -3   -0.08    0.13 
   6   5  -3    0.17    0.23 
   6   5  -3    0.10    0.27 
  -6  -5   3   -0.06    0.17 
  -6  -5   3   -0.15    0.16 
   5   5  -3    0.37    0.25 
   5   5  -3    1.17    0.17 
   5   5  -3    1.13    0.29 
  -5  -5   3    1.62    0.21 
  -5  -5   3    1.43    0.23 
   4   5  -3    0.70    0.24 
   4   5  -3    0.80    0.16 
  -4  -5   3    1.16    0.17 
  -4  -5   3    0.91    0.18 
   3   5  -3    2.22    0.33 
   3   5  -3    1.58    0.20 
  -3  -5   3    1.78    0.17 
  -3  -5   3    2.08    0.29 
  -3  -5   3    2.22    0.22 
   2   5  -3    0.11    0.21 
   2   5  -3    0.30    0.16 
   2   5  -3    0.51    0.11 
  -2  -5   3    0.28    0.19 
  -2  -5   3   -0.03    0.11 
   1   5  -3    3.45    0.37 
   1   5  -3    3.39    0.22 
   1   5  -3    3.37    0.26 
  -1  -5   3    3.28    0.31 
  -1  -5   3    3.59    0.24 
   0   5  -3    6.90    0.37 
   0   5  -3    7.48    0.46 
   0   5  -3    6.34    0.29 
   0  -5   3    6.09    0.29 
   0  -5   3    5.34    0.34 
  -1   5  -3    2.27    0.26 
  -1   5  -3    1.88    0.21 
  -1   5  -3    1.65    0.29 
   1  -5   3    1.89    0.20 
   1  -5   3    1.71    0.23 
  -2   5  -3   13.74    0.56 
  -2   5  -3   13.92    0.48 
  -2   5  -3   14.08    0.51 
   2  -5   3   13.19    0.45 
   2  -5   3   13.70    0.46 
  -3   5  -3    5.02    0.40 
  -3   5  -3    5.27    0.38 
  -3   5  -3    4.52    0.34 
   3  -5   3    5.04    0.32 
   3  -5   3    5.06    0.34 
  -4   5  -3    0.52    0.20 
  -4   5  -3    0.30    0.21 
   4  -5   3    0.33    0.20 
   4  -5   3    0.34    0.17 
  -5   5  -3    5.22    0.44 
   5  -5   3    3.75    0.33 
  -6   5  -3    0.54    0.25 
   6  -5   3    1.00    0.27 
  -7   5  -3    2.91    0.40 
   7  -5   3    1.51    0.30 
  -8   5  -3    0.05    0.26 
   8  -5   3    0.35    0.28 
   9   4  -3    1.30    0.39 
   9   4  -3    1.29    0.23 
  -9  -4   3    1.48    0.34 
  -9  -4   3    1.69    0.32 
   8   4  -3   -0.18    0.27 
   8   4  -3    0.15    0.17 
  -8  -4   3   -0.02    0.24 
  -8  -4   3   -0.02    0.20 
   7   4  -3   11.09    0.39 
   7   4  -3   11.54    0.62 
  -7  -4   3   10.84    0.51 
  -7  -4   3   12.18    0.55 
   6   4  -3    2.46    0.30 
   6   4  -3    2.31    0.20 
   6   4  -3    3.43    0.39 
  -6  -4   3    2.79    0.30 
  -6  -4   3    2.81    0.28 
   5   4  -3    1.21    0.28 
   5   4  -3    1.78    0.28 
   5   4  -3    1.53    0.17 
  -5  -4   3    1.52    0.21 
  -5  -4   3    1.80    0.22 
   4   4  -3    1.68    0.18 
   4   4  -3    1.66    0.29 
   4   4  -3    1.77    0.28 
  -4  -4   3    1.63    0.20 
  -4  -4   3    1.90    0.20 
   3   4  -3    2.19    0.19 
   3   4  -3    2.13    0.28 
  -3  -4   3    2.41    0.27 
  -3  -4   3    2.06    0.17 
  -3  -4   3    2.21    0.20 
   2   4  -3    5.56    0.38 
   2   4  -3    5.36    0.18 
   2   4  -3    4.60    0.26 
  -2  -4   3    4.67    0.23 
  -2  -4   3    4.76    0.32 
  -2  -4   3    4.63    0.20 
   1   4  -3    0.13    0.08 
   1   4  -3    0.37    0.14 
   1   4  -3    0.05    0.17 
  -1  -4   3    0.03    0.15 
  -1  -4   3   -0.06    0.08 
  -1  -4   3    0.09    0.05 
   0   4  -3    6.37    0.39 
   0   4  -3    6.01    0.25 
   0   4  -3    5.84    0.30 
   0  -4   3    5.77    0.31 
   0  -4   3    6.19    0.26 
   0  -4   3    5.86    0.15 
  -1   4  -3    0.42    0.13 
  -1   4  -3    0.27    0.16 
  -1   4  -3    0.20    0.19 
   1  -4   3    0.40    0.10 
   1  -4   3    0.42    0.08 
   1  -4   3    0.46    0.15 
   1  -4   3    0.40    0.13 
  -2   4  -3    0.00    0.13 
  -2   4  -3   -0.23    0.15 
  -2   4  -3    0.18    0.16 
   2  -4   3    0.01    0.13 
   2  -4   3   -0.05    0.10 
   2  -4   3    0.04    0.14 
   2  -4   3   -0.08    0.08 
  -3   4  -3    6.65    0.39 
  -3   4  -3    7.14    0.39 
  -3   4  -3    7.54    0.38 
   3  -4   3    7.05    0.25 
   3  -4   3    6.23    0.28 
   3  -4   3    6.81    0.32 
   3  -4   3    6.57    0.35 
  -4   4  -3    1.04    0.23 
  -4   4  -3    1.15    0.22 
   4  -4   3    1.04    0.22 
   4  -4   3    1.37    0.17 
   4  -4   3    1.22    0.15 
   4  -4   3    1.56    0.19 
  -5   4  -3    0.36    0.20 
   5  -4   3    0.12    0.18 
   5  -4   3    0.47    0.16 
  -6   4  -3    2.11    0.21 
  -6   4  -3    1.86    0.31 
   6  -4   3    2.04    0.28 
   6  -4   3    2.27    0.23 
  -7   4  -3   -0.05    0.13 
  -7   4  -3    0.32    0.23 
   7  -4   3    0.47    0.24 
   7  -4   3    0.09    0.17 
  -8   4  -3    1.89    0.37 
  -8   4  -3    1.26    0.23 
   8  -4   3    1.32    0.25 
   8  -4   3    1.02    0.31 
   9   3  -3    2.18    0.28 
   9   3  -3    1.66    0.40 
  -9  -3   3    1.74    0.32 
   8   3  -3   -0.07    0.27 
   8   3  -3    0.39    0.18 
  -8  -3   3    0.33    0.23 
  -8  -3   3    0.38    0.23 
   7   3  -3   12.47    0.40 
   7   3  -3   12.45    0.64 
  -7  -3   3   12.51    0.54 
  -7  -3   3   11.97    0.53 
   6   3  -3    2.89    0.21 
   6   3  -3    3.19    0.36 
  -6  -3   3    3.20    0.30 
  -6  -3   3    3.13    0.30 
   5   3  -3    0.51    0.20 
   5   3  -3    0.32    0.13 
   5   3  -3    0.31    0.23 
  -5  -3   3    0.58    0.17 
  -5  -3   3    0.57    0.17 
   4   3  -3    0.19    0.12 
   4   3  -3   -0.08    0.19 
   4   3  -3   -0.05    0.17 
  -4  -3   3    0.15    0.12 
  -4  -3   3    0.18    0.13 
   3   3  -3   11.25    0.32 
   3   3  -3   11.96    0.26 
   3   3  -3   11.12    0.46 
   3   3  -3   11.40    0.46 
  -3  -3   3   11.72    0.34 
  -3  -3   3   12.04    0.34 
   2   3  -3    1.60    0.15 
   2   3  -3    1.28    0.20 
  -2  -3   3    1.36    0.14 
  -2  -3   3    1.27    0.19 
  -2  -3   3    1.31    0.12 
   1   3  -3    4.82    0.16 
   1   3  -3    4.40    0.23 
   1   3  -3    4.27    0.30 
  -1  -3   3    3.99    0.19 
  -1  -3   3    4.29    0.14 
  -1  -3   3    4.65    0.27 
   0   3  -3    3.28    0.28 
   0   3  -3    3.23    0.23 
   0   3  -3    3.40    0.18 
   0  -3   3    3.39    0.12 
   0  -3   3    3.33    0.20 
   0  -3   3    3.28    0.15 
   0  -3   3    3.17    0.21 
  -1   3  -3    2.75    0.19 
  -1   3  -3    2.32    0.24 
  -1   3  -3    3.20    0.24 
   1  -3   3    2.75    0.14 
   1  -3   3    2.56    0.19 
   1  -3   3    2.81    0.15 
   1  -3   3    2.56    0.19 
  -2   3  -3    8.01    0.31 
  -2   3  -3    7.81    0.36 
  -2   3  -3    7.49    0.32 
   2  -3   3    7.51    0.30 
   2  -3   3    7.85    0.25 
   2  -3   3    8.08    0.23 
   2  -3   3    8.00    0.27 
  -3   3  -3   18.72    0.48 
  -3   3  -3   17.66    0.53 
  -3   3  -3   17.37    0.50 
   3  -3   3   17.87    0.39 
   3  -3   3   18.49    0.41 
   3  -3   3   18.13    0.38 
   3  -3   3   16.81    0.47 
  -4   3  -3   -0.17    0.16 
  -4   3  -3   -0.05    0.16 
  -4   3  -3    0.02    0.10 
   4  -3   3   -0.01    0.16 
   4  -3   3    0.16    0.12 
   4  -3   3   -0.03    0.12 
  -5   3  -3   14.86    0.55 
  -5   3  -3   15.34    0.53 
  -5   3  -3   15.66    0.41 
   5  -3   3   14.94    0.41 
   5  -3   3   15.05    0.49 
  -6   3  -3    5.20    0.40 
  -6   3  -3    5.23    0.29 
   6  -3   3    5.27    0.30 
   6  -3   3    5.38    0.36 
  -7   3  -3    0.23    0.22 
  -7   3  -3    0.21    0.14 
   7  -3   3    0.12    0.15 
   7  -3   3    0.00    0.19 
  -8   3  -3    5.76    0.38 
  -8   3  -3    6.06    0.52 
   8  -3   3    5.74    0.47 
   8  -3   3    6.38    0.38 
  -9   3  -3    0.16    0.19 
  -9   3  -3   -0.11    0.26 
   9  -3   3    0.58    0.29 
   9  -3   3    0.54    0.22 
   9   2  -3    0.62    0.21 
   9   2  -3    0.56    0.33 
   9   2  -3    0.10    0.30 
  -9  -2   3    0.03    0.23 
   8   2  -3    4.28    0.44 
   8   2  -3    4.50    0.33 
  -8  -2   3    4.15    0.40 
   7   2  -3    7.02    0.52 
   7   2  -3    8.22    0.34 
  -7  -2   3    7.39    0.44 
  -7  -2   3    7.69    0.46 
   6   2  -3   22.37    0.74 
   6   2  -3   22.83    0.50 
  -6  -2   3   24.28    0.67 
  -6  -2   3   22.90    0.65 
   5   2  -3   11.91    0.52 
   5   2  -3   12.10    0.35 
   5   2  -3   13.07    0.44 
  -5  -2   3   12.15    0.43 
  -5  -2   3   12.24    0.44 
   4   2  -3    8.89    0.28 
   4   2  -3    9.08    0.42 
   4   2  -3    8.94    0.36 
  -4  -2   3    8.42    0.32 
  -4  -2   3    9.38    0.34 
   3   2  -3   34.04    0.56 
   3   2  -3   33.62    0.75 
   3   2  -3   35.36    0.52 
   3   2  -3   35.52    0.74 
  -3  -2   3   35.27    0.63 
  -3  -2   3   34.16    0.64 
   2   2  -3   13.96    0.32 
   2   2  -3   14.57    0.43 
   2   2  -3   14.50    0.43 
  -2  -2   3   14.10    0.34 
  -2  -2   3   14.13    0.31 
   1   2  -3   23.66    0.44 
   1   2  -3   23.93    0.57 
   1   2  -3   24.92    0.36 
  -1  -2   3   24.06    0.52 
  -1  -2   3   24.59    0.40 
  -1  -2   3   22.84    0.44 
   0   2  -3    9.22    0.35 
   0   2  -3    9.98    0.24 
   0   2  -3    9.81    0.29 
   0  -2   3    8.94    0.26 
   0  -2   3    9.86    0.21 
   0  -2   3    9.28    0.28 
   0  -2   3    9.57    0.21 
  -1   2  -3    1.64    0.15 
  -1   2  -3    1.41    0.17 
  -1   2  -3    1.67    0.15 
   1  -2   3    1.64    0.15 
   1  -2   3    1.53    0.11 
   1  -2   3    1.45    0.12 
   1  -2   3    1.53    0.13 
  -2   2  -3   49.96    0.94 
  -2   2  -3   49.77    0.85 
  -2   2  -3   49.66    0.79 
   2  -2   3   51.36    0.72 
   2  -2   3   50.11    0.81 
   2  -2   3   50.75    0.77 
   2  -2   3   50.48    0.74 
  -3   2  -3   21.29    0.53 
  -3   2  -3   21.59    0.46 
  -3   2  -3   20.58    0.52 
   3  -2   3   20.38    0.40 
   3  -2   3   20.91    0.40 
   3  -2   3   20.33    0.46 
  -4   2  -3    0.09    0.14 
  -4   2  -3   -0.05    0.09 
  -4   2  -3    0.06    0.14 
   4  -2   3   -0.06    0.12 
   4  -2   3    0.00    0.09 
   4  -2   3    0.05    0.10 
  -5   2  -3    6.86    0.34 
  -5   2  -3    7.13    0.30 
   5  -2   3    7.73    0.35 
   5  -2   3    7.09    0.28 
   5  -2   3    7.62    0.27 
  -6   2  -3    1.27    0.24 
  -6   2  -3    1.02    0.18 
   6  -2   3    1.00    0.16 
   6  -2   3    1.10    0.21 
  -7   2  -3    4.74    0.32 
  -7   2  -3    5.17    0.44 
   7  -2   3    4.26    0.28 
   7  -2   3    4.51    0.37 
  -8   2  -3    0.20    0.22 
  -8   2  -3    0.05    0.16 
   8  -2   3    0.09    0.20 
   8  -2   3    0.05    0.16 
  -9   2  -3    0.71    0.30 
  -9   2  -3    0.99    0.25 
   9  -2   3    0.87    0.22 
   9  -2   3    0.79    0.28 
   9   1  -3    1.30    0.37 
   9   1  -3    1.69    0.27 
   9   1  -3    1.81    0.39 
  -9  -1   3    2.22    0.36 
   8   1  -3    0.88    0.31 
   8   1  -3    1.46    0.32 
   8   1  -3    1.09    0.20 
  -8  -1   3    1.19    0.26 
   7   1  -3    1.37    0.20 
   7   1  -3    1.27    0.29 
  -7  -1   3    1.73    0.28 
   6   1  -3    0.87    0.16 
   6   1  -3    1.03    0.24 
  -6  -1   3    0.95    0.21 
  -6  -1   3    0.94    0.21 
   5   1  -3    3.76    0.25 
   5   1  -3    3.78    0.24 
   5   1  -3    3.60    0.32 
  -5  -1   3    4.33    0.30 
  -5  -1   3    3.83    0.20 
  -5  -1   3    3.80    0.29 
   4   1  -3    1.92    0.23 
   4   1  -3    1.83    0.15 
   4   1  -3    2.06    0.19 
  -4  -1   3    1.78    0.13 
  -4  -1   3    2.05    0.19 
  -4  -1   3    1.69    0.18 
   3   1  -3   41.90    0.76 
   3   1  -3   40.00    0.80 
   3   1  -3   40.28    0.63 
  -3  -1   3   40.16    0.70 
  -3  -1   3   39.69    0.69 
  -3  -1   3   41.41    0.55 
   2   1  -3    6.39    0.26 
   2   1  -3    5.94    0.28 
   2   1  -3    6.38    0.21 
  -2  -1   3    6.38    0.20 
  -2  -1   3    6.15    0.20 
   1   1  -3   22.53    0.48 
   1   1  -3   23.59    0.41 
   1   1  -3   23.16    0.51 
  -1  -1   3   23.49    0.35 
  -1  -1   3   23.76    0.38 
  -1  -1   3   22.89    0.41 
   0   1  -3   12.72    0.25 
   0   1  -3   12.26    0.35 
   0   1  -3   12.43    0.29 
   0  -1   3   12.53    0.29 
   0  -1   3   12.46    0.27 
   0  -1   3   12.73    0.24 
   0  -1   3   12.70    0.25 
  -1   1  -3    4.27    0.18 
  -1   1  -3    4.37    0.23 
  -1   1  -3    4.15    0.19 
   1  -1   3    4.45    0.15 
   1  -1   3    4.38    0.18 
   1  -1   3    4.44    0.15 
   1  -1   3    4.42    0.15 
  -2   1  -3    0.11    0.09 
  -2   1  -3   -0.04    0.09 
  -2   1  -3    0.05    0.11 
   2  -1   3   -0.01    0.08 
   2  -1   3    0.00    0.07 
   2  -1   3    0.06    0.06 
   2  -1   3    0.02    0.06 
  -3   1  -3   22.36    0.52 
  -3   1  -3   22.92    0.52 
  -3   1  -3   23.56    0.43 
  -3   1  -3   22.47    0.43 
   3  -1   3   22.64    0.37 
   3  -1   3   22.34    0.39 
   3  -1   3   22.55    0.46 
  -4   1  -3   16.93    0.45 
  -4   1  -3   16.89    0.49 
  -4   1  -3   16.96    0.40 
   4  -1   3   16.80    0.34 
   4  -1   3   16.96    0.32 
   4  -1   3   17.09    0.42 
  -5   1  -3    0.13    0.16 
  -5   1  -3   -0.09    0.11 
  -5   1  -3    0.04    0.14 
   5  -1   3    0.10    0.15 
   5  -1   3   -0.06    0.10 
   5  -1   3   -0.14    0.10 
  -6   1  -3    7.75    0.35 
  -6   1  -3    8.69    0.44 
   6  -1   3    8.97    0.39 
   6  -1   3    8.34    0.30 
  -7   1  -3    0.45    0.17 
  -7   1  -3    0.59    0.22 
   7  -1   3    0.37    0.19 
   7  -1   3    0.57    0.15 
  -8   1  -3   -0.14    0.16 
  -8   1  -3    0.24    0.22 
   8  -1   3    0.01    0.15 
   8  -1   3   -0.11    0.19 
  -9   1  -3    1.24    0.30 
  -9   1  -3    1.05    0.25 
   9  -1   3    0.89    0.27 
   9  -1   3    1.35    0.23 
 -10   1  -3    2.00    0.37 
 -10   1  -3    2.13    0.32 
  10  -1   3    1.69    0.25 
  10  -1   3    1.53    0.32 
   9   0  -3    2.31    0.42 
   9   0  -3    2.42    0.41 
  -9   0   3    2.13    0.36 
   8   0  -3    0.36    0.18 
   8   0  -3    0.36    0.28 
   8   0  -3    0.39    0.27 
  -8   0   3    0.37    0.24 
   7   0  -3    2.12    0.32 
   7   0  -3    2.07    0.22 
   7   0  -3    2.00    0.33 
  -7   0   3    2.06    0.29 
   6   0  -3   11.14    0.37 
   6   0  -3   10.89    0.52 
  -6   0   3   11.04    0.45 
  -6   0   3   12.09    0.38 
   5   0  -3    1.59    0.25 
   5   0  -3    1.96    0.18 
  -5   0   3    2.22    0.22 
  -5   0   3    2.20    0.22 
  -5   0   3    2.27    0.18 
   4   0  -3   11.27    0.42 
   4   0  -3   10.95    0.31 
   4   0  -3   11.56    0.31 
  -4   0   3   11.76    0.37 
  -4   0   3   11.88    0.30 
  -4   0   3   11.01    0.36 
   3   0  -3  107.25    1.39 
   3   0  -3  108.20    1.65 
   3   0  -3  110.37    1.60 
  -3   0   3  108.25    1.54 
  -3   0   3  108.49    1.52 
  -3   0   3  109.77    1.42 
   2   0  -3   22.57    0.40 
   2   0  -3   23.29    0.47 
   2   0  -3   21.45    0.49 
  -2   0   3   22.86    0.34 
  -2   0   3   22.35    0.42 
  -2   0   3   22.61    0.41 
  -2   0   3   23.08    0.36 
   1   0  -3   22.39    0.47 
   1   0  -3   22.44    0.39 
   1   0  -3   22.75    0.45 
  -1   0   3   22.62    0.37 
  -1   0   3   22.56    0.32 
  -1   0   3   22.53    0.38 
  -1   0   3   22.76    0.35 
   0   0  -3    8.31    0.22 
   0   0  -3    8.00    0.27 
   0   0  -3    8.17    0.22 
   0   0  -3    7.71    0.18 
   0   0   3    7.70    0.18 
   0   0   3    8.14    0.20 
   0   0   3    8.12    0.18 
  -1   0  -3   31.14    0.51 
  -1   0  -3   31.91    0.46 
  -1   0  -3   31.81    0.61 
  -1   0  -3   31.99    0.48 
   1   0   3   31.13    0.50 
   1   0   3   32.28    0.45 
   1   0   3   32.15    0.49 
  -2   0  -3    9.99    0.28 
  -2   0  -3   10.21    0.32 
   2   0   3    9.74    0.24 
   2   0   3    9.65    0.24 
   2   0   3   10.17    0.20 
  -3   0  -3   91.33    1.35 
  -3   0  -3   90.55    1.27 
  -3   0  -3   92.69    1.43 
   3   0   3   92.38    1.28 
   3   0   3   92.57    1.13 
  -4   0  -3    6.65    0.25 
  -4   0  -3    6.66    0.28 
  -4   0  -3    7.12    0.31 
   4   0   3    6.80    0.27 
   4   0   3    6.69    0.18 
   4   0   3    6.64    0.20 
  -5   0  -3    7.30    0.35 
  -5   0  -3    6.59    0.29 
  -5   0  -3    7.46    0.31 
   5   0   3    6.85    0.23 
   5   0   3    7.44    0.24 
   5   0   3    7.91    0.34 
  -6   0  -3    9.50    0.38 
  -6   0  -3    8.36    0.42 
   6   0   3    8.67    0.29 
   6   0   3    9.18    0.40 
  -7   0  -3    0.59    0.18 
  -7   0  -3    0.12    0.18 
   7   0   3    0.53    0.13 
   7   0   3    0.54    0.20 
  -8   0  -3    0.62    0.20 
  -8   0  -3    0.35    0.21 
   8   0   3    0.83    0.16 
   8   0   3    0.35    0.21 
  -9   0  -3    0.14    0.20 
  -9   0  -3    0.20    0.22 
   9   0   3    0.51    0.17 
   9   0   3    0.05    0.22 
 -10   0  -3    0.27    0.26 
 -10   0  -3   -0.16    0.22 
  10   0   3   -0.23    0.23 
  10   0   3    0.32    0.19 
   9  -1  -3    9.00    0.49 
   9  -1  -3    9.73    0.65 
   9  -1  -3    8.61    0.68 
  -9   1   3   10.63    0.60 
   8  -1  -3    7.17    0.53 
   8  -1  -3    5.87    0.51 
  -8   1   3    6.40    0.45 
   7  -1  -3    3.94    0.37 
   7  -1  -3    4.15    0.31 
   7  -1  -3    4.01    0.39 
  -7   1   3    4.33    0.36 
  -7   1   3    4.33    0.32 
   6  -1  -3   15.62    0.59 
   6  -1  -3   14.75    0.54 
   6  -1  -3   15.14    0.44 
  -6   1   3   14.90    0.52 
  -6   1   3   15.11    0.46 
   5  -1  -3   -0.10    0.19 
   5  -1  -3    0.03    0.13 
   5  -1  -3    0.06    0.18 
  -5   1   3    0.02    0.12 
  -5   1   3   -0.06    0.13 
   4  -1  -3    8.12    0.23 
   4  -1  -3    8.54    0.38 
   4  -1  -3    7.85    0.28 
  -4   1   3    8.39    0.28 
  -4   1   3    7.42    0.31 
   3  -1  -3   33.14    0.56 
   3  -1  -3   33.66    0.59 
   3  -1  -3   32.78    0.69 
  -3   1   3   33.51    0.61 
  -3   1   3   33.20    0.61 
  -3   1   3   33.23    0.56 
  -3   1   3   34.20    0.54 
   2  -1  -3   79.65    1.05 
   2  -1  -3   77.11    1.21 
   2  -1  -3   78.64    1.20 
  -2   1   3   80.18    1.05 
  -2   1   3   79.24    1.10 
  -2   1   3   77.64    1.10 
  -2   1   3   79.45    1.02 
   1  -1  -3   73.98    0.95 
   1  -1  -3   73.14    1.08 
   1  -1  -3   72.36    1.13 
  -1   1   3   72.70    0.96 
  -1   1   3   71.03    0.98 
  -1   1   3   72.79    0.97 
  -1   1   3   73.34    0.92 
   0  -1  -3   10.56    0.23 
   0  -1  -3   10.55    0.25 
   0  -1  -3   10.12    0.30 
   0  -1  -3   10.82    0.23 
   0   1   3   10.69    0.18 
   0   1   3   10.77    0.21 
  -1  -1  -3  153.13    2.22 
  -1  -1  -3  154.61    1.97 
  -1  -1  -3  154.41    1.96 
   1   1   3  152.09    1.95 
   1   1   3  153.88    1.79 
   1   1   3  155.19    1.91 
  -2  -1  -3   14.24    0.38 
  -2  -1  -3   14.57    0.22 
  -2  -1  -3   14.11    0.33 
   2   1   3   14.36    0.25 
   2   1   3   14.73    0.30 
   2   1   3   14.25    0.28 
   2   1   3   14.63    0.23 
  -3  -1  -3   26.62    0.53 
  -3  -1  -3   26.49    0.48 
  -3  -1  -3   26.78    0.57 
   3   1   3   27.54    0.41 
   3   1   3   26.81    0.49 
   3   1   3   27.47    0.41 
   3   1   3   26.64    0.38 
  -4  -1  -3    1.48    0.14 
  -4  -1  -3    1.93    0.19 
  -4  -1  -3    1.58    0.17 
   4   1   3    1.65    0.16 
   4   1   3    1.56    0.11 
   4   1   3    1.57    0.11 
   4   1   3    1.76    0.13 
  -5  -1  -3   -0.08    0.12 
  -5  -1  -3    0.02    0.13 
  -5  -1  -3    0.02    0.11 
   5   1   3    0.10    0.10 
   5   1   3    0.04    0.10 
   5   1   3    0.07    0.08 
   5   1   3    0.04    0.14 
  -6  -1  -3    1.03    0.18 
  -6  -1  -3    1.03    0.21 
   6   1   3    1.02    0.13 
   6   1   3    1.00    0.20 
   6   1   3    1.28    0.17 
  -7  -1  -3    4.08    0.34 
  -7  -1  -3    3.54    0.29 
   7   1   3    3.80    0.32 
   7   1   3    3.74    0.22 
  -8  -1  -3    0.19    0.18 
  -8  -1  -3    0.30    0.18 
   8   1   3    0.45    0.14 
   8   1   3    0.40    0.21 
  -9  -1  -3    0.15    0.20 
  -9  -1  -3    0.25    0.22 
   9   1   3    0.18    0.22 
   9   1   3    0.15    0.14 
 -10  -1  -3    2.04    0.34 
 -10  -1  -3    2.65    0.35 
  10   1   3    2.11    0.33 
  10   1   3    2.52    0.25 
   9  -2  -3    0.92    0.37 
   9  -2  -3    0.45    0.32 
   9  -2  -3    0.72    0.26 
  -9   2   3    0.72    0.29 
   8  -2  -3    2.82    0.29 
   8  -2  -3    2.65    0.38 
   8  -2  -3    2.36    0.35 
  -8   2   3    2.04    0.29 
  -8   2   3    2.56    0.33 
   7  -2  -3    0.65    0.19 
   7  -2  -3    0.35    0.26 
   7  -2  -3    0.38    0.24 
  -7   2   3    0.49    0.21 
  -7   2   3    0.69    0.20 
   6  -2  -3    2.60    0.24 
   6  -2  -3    2.62    0.31 
   6  -2  -3    3.12    0.30 
  -6   2   3    2.86    0.28 
  -6   2   3    3.20    0.28 
   5  -2  -3    0.47    0.15 
   5  -2  -3    0.39    0.19 
   5  -2  -3    0.69    0.23 
  -5   2   3    0.26    0.15 
  -5   2   3    0.38    0.16 
   4  -2  -3    0.05    0.14 
   4  -2  -3    0.19    0.17 
   4  -2  -3    0.11    0.09 
   4  -2  -3    0.02    0.11 
  -4   2   3    0.00    0.11 
  -4   2   3    0.04    0.11 
  -4   2   3    0.08    0.12 
   3  -2  -3    1.61    0.16 
   3  -2  -3    1.17    0.18 
   3  -2  -3    1.48    0.14 
   3  -2  -3    1.84    0.16 
  -3   2   3    1.84    0.15 
  -3   2   3    1.74    0.15 
  -3   2   3    1.54    0.15 
   2  -2  -3   34.47    0.64 
   2  -2  -3   35.07    0.56 
   2  -2  -3   34.07    0.57 
   2  -2  -3   33.96    0.66 
  -2   2   3   35.50    0.57 
  -2   2   3   34.82    0.55 
  -2   2   3   33.53    0.56 
   1  -2  -3   54.33    0.74 
   1  -2  -3   53.83    0.74 
   1  -2  -3   54.88    0.92 
  -1   2   3   52.76    0.76 
  -1   2   3   54.21    0.73 
  -1   2   3   54.28    0.78 
   0  -2  -3    1.70    0.14 
   0  -2  -3    1.53    0.16 
   0   2   3    1.69    0.11 
   0   2   3    1.67    0.11 
   0   2   3    1.92    0.11 
  -1  -2  -3   18.08    0.33 
  -1  -2  -3   18.35    0.36 
   1   2   3   18.49    0.29 
   1   2   3   18.37    0.34 
   1   2   3   18.12    0.25 
   1   2   3   18.15    0.27 
  -2  -2  -3   66.53    0.93 
  -2  -2  -3   65.66    1.13 
   2   2   3   67.37    0.91 
   2   2   3   66.96    0.77 
   2   2   3   65.96    0.93 
   2   2   3   67.35    0.79 
  -3  -2  -3    0.79    0.12 
  -3  -2  -3    0.89    0.10 
  -3  -2  -3    0.86    0.10 
  -3  -2  -3    0.70    0.15 
   3   2   3    1.00    0.12 
  -4  -2  -3    1.21    0.18 
  -4  -2  -3    0.99    0.14 
  -4  -2  -3    1.19    0.13 
   4   2   3    1.23    0.15 
   4   2   3    1.29    0.13 
   4   2   3    1.16    0.07 
  -5  -2  -3    0.05    0.11 
  -5  -2  -3    0.05    0.15 
  -5  -2  -3   -0.08    0.11 
   5   2   3    0.03    0.13 
   5   2   3    0.03    0.10 
   5   2   3    0.09    0.06 
   5   2   3    0.06    0.06 
  -6  -2  -3    2.14    0.24 
  -6  -2  -3    1.79    0.21 
  -6  -2  -3    2.02    0.23 
   6   2   3    1.88    0.13 
   6   2   3    1.71    0.23 
   6   2   3    1.94    0.20 
  -7  -2  -3    1.78    0.23 
  -7  -2  -3    1.37    0.23 
   7   2   3    1.65    0.15 
   7   2   3    2.03    0.26 
  -8  -2  -3    1.49    0.25 
  -8  -2  -3    1.43    0.23 
   8   2   3    1.45    0.26 
   8   2   3    1.95    0.18 
  -9  -2  -3    0.45    0.22 
  -9  -2  -3    0.52    0.22 
   9   2   3    0.33    0.23 
   9   2   3    0.67    0.16 
 -10  -2  -3   -0.07    0.21 
 -10  -2  -3    0.11    0.22 
  10   2   3    0.22    0.17 
  10   2   3    0.11    0.24 
   9  -3  -3    0.09    0.30 
   9  -3  -3   -0.07    0.30 
   9  -3  -3    0.23    0.25 
  -9   3   3    0.00    0.23 
   8  -3  -3   10.97    0.62 
   8  -3  -3   10.21    0.59 
   8  -3  -3    9.72    0.49 
  -8   3   3    9.79    0.54 
  -8   3   3   10.93    0.56 
   7  -3  -3    0.00    0.22 
   7  -3  -3    0.37    0.19 
   7  -3  -3    0.24    0.24 
  -7   3   3    0.00    0.18 
  -7   3   3    0.19    0.18 
   6  -3  -3    3.69    0.35 
   6  -3  -3    4.48    0.34 
   6  -3  -3    4.29    0.33 
  -6   3   3    4.11    0.34 
  -6   3   3    4.42    0.34 
   5  -3  -3    8.72    0.46 
   5  -3  -3    8.32    0.40 
   5  -3  -3    9.00    0.38 
  -5   3   3    8.62    0.40 
  -5   3   3    9.29    0.39 
   4  -3  -3    5.76    0.36 
   4  -3  -3    6.27    0.30 
   4  -3  -3    6.26    0.32 
   4  -3  -3    6.43    0.25 
  -4   3   3    6.43    0.31 
  -4   3   3    5.92    0.29 
  -4   3   3    6.06    0.31 
   3  -3  -3    1.50    0.16 
   3  -3  -3    1.51    0.20 
   3  -3  -3    1.47    0.15 
   3  -3  -3    1.34    0.17 
  -3   3   3    1.73    0.17 
  -3   3   3    1.30    0.15 
  -3   3   3    1.52    0.15 
   2  -3  -3   29.05    0.50 
   2  -3  -3   29.32    0.50 
   2  -3  -3   29.02    0.60 
   2  -3  -3   29.17    0.61 
  -2   3   3   29.42    0.51 
  -2   3   3   29.57    0.52 
  -2   3   3   28.24    0.53 
   1  -3  -3   33.60    0.63 
   1  -3  -3   35.54    0.50 
   1  -3  -3   35.04    0.53 
   1  -3  -3   34.99    0.71 
  -1   3   3   34.86    0.53 
  -1   3   3   34.79    0.54 
  -1   3   3   33.92    0.58 
   0  -3  -3   18.69    0.49 
   0  -3  -3   19.19    0.26 
   0  -3  -3   19.20    0.40 
   0   3   3   18.94    0.32 
   0   3   3   19.22    0.33 
   0   3   3   18.86    0.38 
  -1  -3  -3    2.84    0.16 
  -1  -3  -3    3.04    0.09 
  -1  -3  -3    3.11    0.23 
   1   3   3    3.12    0.10 
   1   3   3    2.97    0.16 
   1   3   3    3.10    0.14 
   1   3   3    2.94    0.11 
  -2  -3  -3   15.95    0.30 
  -2  -3  -3   15.50    0.47 
  -2  -3  -3   15.74    0.34 
  -2  -3  -3   15.73    0.36 
   2   3   3   15.49    0.32 
  -3  -3  -3   42.41    0.87 
  -3  -3  -3   41.76    0.72 
  -3  -3  -3   42.58    0.71 
  -4  -3  -3    0.79    0.11 
  -4  -3  -3    0.65    0.12 
  -4  -3  -3    0.75    0.14 
  -4  -3  -3    0.93    0.19 
   4   3   3    0.99    0.15 
  -5  -3  -3   -0.13    0.10 
  -5  -3  -3    0.10    0.13 
  -5  -3  -3    0.07    0.17 
   5   3   3    0.06    0.12 
   5   3   3    0.05    0.13 
  -6  -3  -3   -0.09    0.13 
  -6  -3  -3    0.30    0.14 
  -6  -3  -3   -0.14    0.18 
   6   3   3    0.06    0.14 
   6   3   3    0.11    0.17 
  -7  -3  -3    0.05    0.15 
  -7  -3  -3   -0.03    0.14 
   7   3   3    0.02    0.17 
  -8  -3  -3    2.61    0.28 
  -8  -3  -3    2.67    0.28 
   8   3   3    3.06    0.20 
   8   3   3    2.95    0.32 
  -9  -3  -3    0.07    0.19 
  -9  -3  -3    0.31    0.20 
   9   3   3    0.04    0.21 
   9   3   3   -0.16    0.12 
 -10  -3  -3    1.05    0.26 
  10   3   3    0.97    0.17 
  10   3   3    0.84    0.28 
   9  -4  -3    0.85    0.33 
   9  -4  -3    0.99    0.34 
  -9   4   3    1.07    0.30 
  -9   4   3    0.81    0.31 
   8  -4  -3    0.41    0.24 
   8  -4  -3    0.71    0.29 
   8  -4  -3   -0.03    0.27 
  -8   4   3    0.46    0.24 
  -8   4   3    0.32    0.25 
   7  -4  -3    3.22    0.30 
   7  -4  -3    3.50    0.35 
   7  -4  -3    3.21    0.37 
  -7   4   3    3.50    0.36 
  -7   4   3    3.49    0.34 
   6  -4  -3    0.35    0.20 
   6  -4  -3    0.17    0.18 
   6  -4  -3    0.54    0.25 
  -6   4   3    0.70    0.19 
  -6   4   3    0.59    0.21 
   5  -4  -3    9.27    0.45 
   5  -4  -3   10.02    0.39 
   5  -4  -3    9.03    0.38 
  -5   4   3    9.71    0.41 
  -5   4   3    9.45    0.43 
   4  -4  -3    1.87    0.20 
   4  -4  -3    1.22    0.19 
   4  -4  -3    1.46    0.24 
  -4   4   3    1.32    0.18 
  -4   4   3    1.45    0.21 
   3  -4  -3    6.07    0.32 
   3  -4  -3    5.83    0.25 
   3  -4  -3    5.88    0.27 
   3  -4  -3    5.27    0.32 
  -3   4   3    5.65    0.29 
  -3   4   3    5.73    0.26 
  -3   4   3    5.60    0.28 
   2  -4  -3    9.16    0.35 
   2  -4  -3    9.06    0.37 
   2  -4  -3    9.12    0.24 
   2  -4  -3    9.18    0.27 
  -2   4   3    8.93    0.30 
  -2   4   3    9.47    0.27 
  -2   4   3    8.96    0.30 
   1  -4  -3    3.46    0.14 
   1  -4  -3    2.75    0.22 
   1  -4  -3    3.48    0.27 
   1  -4  -3    3.26    0.15 
  -1   4   3    3.08    0.19 
  -1   4   3    3.34    0.18 
  -1   4   3    3.37    0.13 
   0  -4  -3   30.65    0.60 
   0  -4  -3   31.93    0.45 
   0  -4  -3   31.04    0.72 
   0   4   3   31.58    0.48 
   0   4   3   30.98    0.57 
   0   4   3   30.67    0.48 
  -1  -4  -3   79.91    1.21 
  -1  -4  -3   79.04    1.40 
  -1  -4  -3   80.84    1.03 
   1   4   3   78.92    1.16 
   1   4   3   80.16    1.00 
   1   4   3   80.32    0.99 
   1   4   3   81.12    1.08 
  -2  -4  -3   11.68    0.25 
  -2  -4  -3   11.51    0.33 
  -2  -4  -3   11.39    0.45 
   2   4   3   11.91    0.27 
   2   4   3   11.79    0.17 
   2   4   3   11.66    0.17 
   2   4   3   11.41    0.31 
  -3  -4  -3   22.54    0.63 
  -3  -4  -3   21.88    0.49 
  -3  -4  -3   21.68    0.48 
  -3  -4  -3   21.79    0.43 
   3   4   3   21.45    0.42 
  -4  -4  -3    2.06    0.28 
  -4  -4  -3    2.62    0.21 
  -4  -4  -3    2.72    0.21 
  -4  -4  -3    2.82    0.21 
  -4  -4  -3    2.48    0.19 
  -5  -4  -3   13.25    0.38 
  -5  -4  -3   12.58    0.42 
  -5  -4  -3   12.53    0.41 
  -5  -4  -3   13.16    0.53 
  -6  -4  -3    4.29    0.27 
  -6  -4  -3    4.62    0.39 
  -6  -4  -3    3.50    0.28 
   6   4   3    4.33    0.33 
   6   4   3    4.24    0.30 
  -7  -4  -3   20.40    0.57 
  -7  -4  -3   20.57    0.58 
   7   4   3   19.82    0.62 
   7   4   3   19.48    0.60 
  -8  -4  -3    0.64    0.19 
  -8  -4  -3    0.76    0.20 
   8   4   3    0.46    0.21 
   8   4   3    1.04    0.11 
  -9  -4  -3    0.57    0.22 
  -9  -4  -3    1.03    0.24 
   9   4   3    1.09    0.14 
   9   4   3    0.77    0.26 
 -10  -4  -3    0.35    0.23 
  10   4   3    0.35    0.15 
  10   4   3    0.05    0.25 
   8  -5  -3    0.59    0.32 
   8  -5  -3    0.06    0.27 
  -8   5   3   -0.02    0.25 
  -8   5   3    0.12    0.22 
   7  -5  -3    0.38    0.26 
   7  -5  -3   -0.09    0.22 
  -7   5   3    0.54    0.24 
  -7   5   3   -0.10    0.18 
   6  -5  -3    0.44    0.21 
   6  -5  -3    0.63    0.26 
  -6   5   3    0.40    0.17 
  -6   5   3    0.14    0.21 
   5  -5  -3    9.84    0.40 
   5  -5  -3    9.53    0.49 
  -5   5   3   10.10    0.47 
  -5   5   3   10.58    0.42 
   4  -5  -3    0.43    0.15 
   4  -5  -3    0.80    0.21 
   4  -5  -3    0.63    0.16 
  -4   5   3    0.58    0.15 
  -4   5   3    0.68    0.18 
   3  -5  -3   19.26    0.44 
   3  -5  -3   19.73    0.57 
   3  -5  -3   20.52    0.59 
   3  -5  -3   19.74    0.45 
  -3   5   3   19.92    0.54 
  -3   5   3   20.44    0.55 
  -3   5   3   19.98    0.48 
   2  -5  -3    5.36    0.37 
   2  -5  -3    4.97    0.31 
   2  -5  -3    4.85    0.22 
   2  -5  -3    5.16    0.22 
  -2   5   3    5.77    0.30 
  -2   5   3    5.05    0.21 
  -2   5   3    4.56    0.26 
   1  -5  -3    6.62    0.38 
   1  -5  -3    6.37    0.20 
   1  -5  -3    6.37    0.31 
   1  -5  -3    6.49    0.21 
  -1   5   3    6.44    0.28 
  -1   5   3    6.67    0.27 
  -1   5   3    6.72    0.19 
   0  -5  -3   20.43    0.35 
   0  -5  -3   20.11    0.51 
   0  -5  -3   20.20    0.62 
   0   5   3   20.75    0.40 
   0   5   3   20.85    0.35 
   0   5   3   20.92    0.46 
  -1  -5  -3    2.52    0.21 
  -1  -5  -3    2.78    0.29 
  -1  -5  -3    2.55    0.12 
   1   5   3    2.23    0.12 
   1   5   3    2.55    0.13 
   1   5   3    2.80    0.18 
   1   5   3    2.68    0.14 
  -2  -5  -3    3.54    0.25 
  -2  -5  -3    3.62    0.34 
  -2  -5  -3    3.36    0.15 
   2   5   3    3.17    0.16 
   2   5   3    3.07    0.11 
   2   5   3    3.36    0.11 
   2   5   3    3.49    0.20 
  -3  -5  -3    0.19    0.13 
  -3  -5  -3    0.15    0.21 
  -3  -5  -3    0.17    0.09 
   3   5   3    0.00    0.10 
   3   5   3    0.08    0.08 
  -4  -5  -3   -0.01    0.11 
  -4  -5  -3   -0.04    0.14 
  -4  -5  -3   -0.01    0.21 
  -4  -5  -3    0.25    0.13 
   4   5   3    0.05    0.10 
  -5  -5  -3    2.21    0.19 
  -5  -5  -3    2.26    0.32 
  -5  -5  -3    2.51    0.23 
  -5  -5  -3    1.95    0.24 
  -5  -5  -3    2.27    0.22 
  -6  -5  -3    7.85    0.33 
  -6  -5  -3    7.09    0.35 
  -6  -5  -3    6.97    0.47 
  -7  -5  -3    4.22    0.30 
  -7  -5  -3    4.18    0.31 
   7   5   3    4.93    0.37 
   7   5   3    5.05    0.38 
  -8  -5  -3    0.88    0.21 
  -8  -5  -3    1.02    0.21 
   8   5   3    0.85    0.23 
  -9  -5  -3   -0.08    0.19 
   9   5   3    0.03    0.10 
   9   5   3    0.05    0.21 
   8  -6  -3    0.98    0.32 
   8  -6  -3    0.47    0.31 
  -8   6   3    1.51    0.35 
   7  -6  -3    4.95    0.41 
   7  -6  -3    4.54    0.43 
  -7   6   3    4.08    0.44 
   6  -6  -3    1.44    0.25 
   6  -6  -3    1.38    0.30 
  -6   6   3    1.19    0.28 
   5  -6  -3    0.11    0.17 
   5  -6  -3   -0.03    0.21 
  -5   6   3    0.07    0.15 
  -5   6   3   -0.21    0.18 
   4  -6  -3   11.99    0.41 
   4  -6  -3   12.03    0.51 
  -4   6   3   12.67    0.41 
  -4   6   3   12.18    0.49 
   3  -6  -3    1.05    0.23 
   3  -6  -3    0.85    0.16 
  -3   6   3    0.86    0.14 
  -3   6   3    0.72    0.18 
  -3   6   3    1.04    0.22 
  -3   6   3    1.41    0.23 
   2  -6  -3    3.56    0.36 
   2  -6  -3    3.08    0.29 
   2  -6  -3    3.17    0.23 
  -2   6   3    3.23    0.20 
  -2   6   3    3.13    0.27 
  -2   6   3    3.44    0.28 
   1  -6  -3    2.39    0.33 
   1  -6  -3    3.02    0.19 
   1  -6  -3    2.20    0.25 
  -1   6   3    2.80    0.23 
  -1   6   3    2.69    0.16 
  -1   6   3    2.51    0.22 
   0  -6  -3    0.15    0.24 
   0  -6  -3    0.21    0.15 
   0  -6  -3    0.11    0.08 
   0   6   3    0.10    0.06 
   0   6   3    0.08    0.11 
   0   6   3    0.12    0.11 
  -1  -6  -3    0.90    0.27 
  -1  -6  -3    1.26    0.19 
  -1  -6  -3    1.32    0.11 
   1   6   3    1.16    0.13 
   1   6   3    1.08    0.16 
   1   6   3    1.35    0.10 
  -2  -6  -3   48.15    1.13 
  -2  -6  -3   49.04    0.94 
  -2  -6  -3   49.17    0.75 
   2   6   3   49.27    0.72 
   2   6   3   47.61    0.67 
   2   6   3   47.59    0.85 
  -3  -6  -3    1.85    0.17 
  -3  -6  -3    2.00    0.34 
  -3  -6  -3    1.91    0.23 
   3   6   3    1.88    0.10 
   3   6   3    1.85    0.10 
   3   6   3    1.51    0.18 
   3   6   3    2.08    0.16 
  -4  -6  -3    0.28    0.17 
  -4  -6  -3   -0.05    0.11 
  -4  -6  -3   -0.19    0.24 
   4   6   3   -0.18    0.09 
   4   6   3    0.08    0.12 
  -5  -6  -3   -0.09    0.23 
  -5  -6  -3   -0.02    0.13 
  -5  -6  -3    0.05    0.16 
   5   6   3    0.05    0.11 
   5   6   3    0.09    0.12 
  -6  -6  -3    8.94    0.36 
  -6  -6  -3    8.70    0.39 
  -6  -6  -3    8.75    0.41 
  -6  -6  -3    8.65    0.45 
  -6  -6  -3    8.71    0.55 
  -7  -6  -3    4.32    0.34 
  -7  -6  -3    3.92    0.31 
   7   6   3    4.98    0.42 
  -8  -6  -3    8.60    0.41 
   8   6   3    9.22    0.51 
  -9  -6  -3   -0.34    0.18 
   9   6   3    0.31    0.23 
   7  -7  -3    0.18    0.29 
  -7   7   3    0.50    0.29 
   6  -7  -3    5.27    0.45 
  -6   7   3    5.04    0.49 
   5  -7  -3    1.56    0.29 
  -5   7   3    1.65    0.30 
   4  -7  -3   34.36    0.89 
   4  -7  -3   32.39    0.72 
  -4   7   3   32.65    0.86 
   3  -7  -3    0.07    0.15 
   3  -7  -3    0.29    0.22 
  -3   7   3    0.01    0.19 
  -3   7   3   -0.03    0.18 
  -3   7   3    0.14    0.16 
   2  -7  -3    0.77    0.15 
   2  -7  -3    0.89    0.22 
  -2   7   3    0.46    0.17 
  -2   7   3    0.74    0.24 
  -2   7   3    0.92    0.21 
   1  -7  -3    0.45    0.11 
   1  -7  -3    0.03    0.18 
  -1   7   3    0.42    0.16 
  -1   7   3    0.38    0.16 
   0  -7  -3    0.00    0.09 
   0  -7  -3   -0.08    0.16 
   0  -7  -3   -0.06    0.24 
   0   7   3   -0.03    0.13 
   0   7   3    0.00    0.13 
  -1  -7  -3    4.35    0.34 
  -1  -7  -3    4.68    0.45 
  -1  -7  -3    4.47    0.20 
   1   7   3    4.59    0.29 
   1   7   3    4.23    0.25 
  -2  -7  -3    6.08    0.50 
  -2  -7  -3    5.66    0.38 
  -2  -7  -3    6.65    0.24 
   2   7   3    6.57    0.31 
   2   7   3    6.32    0.24 
  -3  -7  -3    1.25    0.22 
  -3  -7  -3    1.05    0.14 
  -3  -7  -3    0.93    0.30 
   3   7   3    1.02    0.17 
   3   7   3    1.15    0.11 
  -4  -7  -3    1.83    0.27 
  -4  -7  -3    1.36    0.18 
  -4  -7  -3    1.34    0.33 
   4   7   3    1.66    0.20 
   4   7   3    1.51    0.10 
  -5  -7  -3   11.95    0.52 
  -5  -7  -3   12.41    0.44 
  -5  -7  -3   11.31    0.62 
   5   7   3   12.39    0.43 
  -6  -7  -3    0.14    0.20 
  -6  -7  -3    0.10    0.18 
   6   7   3    0.10    0.13 
  -7  -7  -3   10.90    0.51 
   7   7   3   10.43    0.61 
   7   7   3   10.60    0.48 
   8   7   3    2.02    0.31 
   6  -8  -3    5.44    0.49 
  -6   8   3    5.01    0.49 
   5  -8  -3    0.79    0.32 
  -5   8   3    0.38    0.25 
   4  -8  -3    0.43    0.26 
  -4   8   3    0.62    0.24 
   3  -8  -3    5.68    0.45 
  -3   8   3    6.47    0.47 
  -3   8   3    5.54    0.45 
  -3   8   3    6.22    0.41 
   2  -8  -3    0.31    0.23 
  -2   8   3    0.45    0.18 
  -2   8   3    0.16    0.20 
  -2   8   3    0.30    0.23 
   1  -8  -3    0.93    0.24 
  -1   8   3    1.46    0.22 
  -1   8   3    0.98    0.23 
  -1   8   3    1.28    0.31 
   0  -8  -3    1.85    0.27 
   0   8   3    2.36    0.25 
   0   8   3    2.39    0.37 
   0   8   3    2.28    0.25 
  -1  -8  -3    4.23    0.37 
   1   8   3    4.58    0.29 
   1   8   3    4.15    0.30 
  -2  -8  -3    1.82    0.28 
   2   8   3    1.70    0.21 
   2   8   3    1.92    0.19 
  -3  -8  -3    8.01    0.48 
   3   8   3    7.97    0.37 
   3   8   3    7.50    0.28 
  -4  -8  -3    0.07    0.21 
   4   8   3    0.16    0.14 
   4   8   3    0.15    0.09 
  -5  -8  -3    0.40    0.23 
   5   8   3    0.14    0.07 
   5   8   3    0.17    0.27 
   5   8   3   -0.03    0.14 
  -6  -8  -3    0.36    0.24 
   6   8   3    0.67    0.32 
   6   8   3    0.13    0.16 
  -7  -8  -3    5.07    0.48 
   7   8   3    4.91    0.54 
   5  -9  -3    3.36    0.44 
  -5   9   3    3.00    0.41 
   4  -9  -3    3.60    0.43 
  -4   9   3    2.35    0.36 
   3  -9  -3   15.70    0.67 
  -3   9   3   14.71    0.63 
   2  -9  -3    1.41    0.30 
  -2   9   3    0.96    0.32 
  -2   9   3    1.01    0.24 
  -2   9   3    1.00    0.28 
   1  -9  -3    3.82    0.39 
  -1   9   3    4.31    0.36 
  -1   9   3    4.13    0.36 
  -1   9   3    4.10    0.46 
   0  -9  -3    0.30    0.23 
   0   9   3    0.12    0.16 
   0   9   3    0.17    0.19 
   0   9   3    0.19    0.27 
  -1  -9  -3    4.33    0.40 
   1   9   3    4.50    0.33 
   1   9   3    4.06    0.32 
   1   9   3    3.72    0.46 
  -2  -9  -3    0.64    0.25 
   2   9   3    0.92    0.20 
   2   9   3    0.61    0.18 
   2   9   3    0.43    0.30 
  -3  -9  -3    1.72    0.32 
   3   9   3    1.21    0.18 
   3   9   3    1.35    0.21 
   3   9   3    1.86    0.39 
  -4  -9  -3    0.35    0.26 
   4   9   3    0.15    0.13 
   4   9   3    0.24    0.16 
   4   9   3    0.43    0.31 
  -5  -9  -3    2.65    0.38 
   5   9   3    2.01    0.18 
   5   9   3    2.24    0.43 
   5   9   3    2.44    0.27 
  -6  -9  -3   10.17    0.62 
   6   9   3   10.36    0.71 
   6   9   3    9.34    0.28 
  -7  -9  -3    0.23    0.29 
   7   9   3   -0.30    0.30 
   3 -10  -3    1.48    0.35 
  -3  10   3    1.67    0.32 
   2 -10  -3   -0.04    0.27 
  -2  10   3   -0.10    0.20 
  -2  10   3    0.52    0.32 
  -2  10   3    0.00    0.28 
   1 -10  -3   -0.09    0.26 
  -1  10   3    0.36    0.31 
  -1  10   3   -0.30    0.18 
  -1  10   3   -0.19    0.23 
   0 -10  -3    7.74    0.54 
   0  10   3    7.69    0.63 
   0  10   3    7.96    0.50 
   0  10   3    8.59    0.48 
  -1 -10  -3    0.80    0.30 
   1  10   3    0.12    0.22 
   1  10   3    0.55    0.21 
   1  10   3    0.18    0.32 
  -2 -10  -3    1.09    0.31 
   2  10   3    0.38    0.35 
   2  10   3    0.92    0.24 
   2  10   3    0.96    0.23 
  -3 -10  -3    0.03    0.27 
   3  10   3   -0.16    0.31 
   3  10   3   -0.16    0.17 
   3  10   3   -0.06    0.18 
  -4 -10  -3    2.79    0.43 
   4  10   3    2.39    0.26 
   4  10   3    2.51    0.50 
   4  10   3    2.49    0.29 
  -5 -10  -3    2.15    0.40 
   5  10   3    1.85    0.23 
   5  10   3    1.91    0.46 
  -6 -10  -3    7.36    0.59 
   6  10   3    8.21    0.73 
   6  10   3    6.55    0.33 
   1 -11  -3    0.64    0.32 
  -1  11   3    0.51    0.36 
  -1  11   3    0.37    0.32 
  -1  11   3    0.71    0.26 
   0 -11  -3    0.28    0.33 
   0  11   3    0.74    0.39 
   0  11   3    0.68    0.30 
   0  11   3    0.36    0.23 
  -1 -11  -3    2.46    0.43 
   1  11   3    2.81    0.53 
   1  11   3    2.56    0.36 
   1  11   3    2.19    0.32 
  -2 -11  -3    1.83    0.39 
   2  11   3    1.95    0.31 
   2  11   3    2.06    0.49 
   2  11   3    1.10    0.26 
  -3 -11  -3   -0.02    0.31 
   3  11   3   -0.18    0.19 
   3  11   3    0.09    0.40 
   3  11   3   -0.21    0.20 
  -4 -11  -3    0.72    0.37 
   4  11   3    0.76    0.41 
   4  11   3    0.91    0.25 
   4   9  -4    0.40    0.40 
   4   9  -4    0.23    0.26 
  -4  -9   4    0.55    0.25 
  -4  -9   4    0.49    0.34 
   3   9  -4    0.21    0.27 
   3   9  -4   -0.49    0.37 
  -3  -9   4   -0.15    0.31 
  -3  -9   4   -0.20    0.18 
   2   9  -4    0.76    0.41 
   2   9  -4   -0.19    0.27 
  -2  -9   4    0.14    0.30 
  -2  -9   4   -0.02    0.20 
   1   9  -4    1.89    0.37 
   1   9  -4    1.48    0.47 
  -1  -9   4    2.35    0.31 
  -1  -9   4    3.17    0.45 
   0   9  -4   -0.03    0.30 
   0   9  -4    0.06    0.34 
   0  -9   4    0.17    0.22 
   0  -9   4    0.27    0.31 
  -1   9  -4   -0.05    0.36 
   1  -9   4    0.60    0.24 
   1  -9   4    0.56    0.32 
  -2   9  -4    2.81    0.49 
   2  -9   4    2.49    0.34 
   5   8  -4    0.84    0.39 
   5   8  -4    0.86    0.40 
   5   8  -4    0.64    0.25 
  -5  -8   4    1.21    0.29 
   4   8  -4   -0.12    0.23 
   4   8  -4    0.01    0.36 
  -4  -8   4   -0.16    0.30 
  -4  -8   4    0.01    0.19 
   3   8  -4    0.03    0.33 
   3   8  -4    0.06    0.23 
  -3  -8   4    0.30    0.20 
  -3  -8   4   -0.03    0.27 
   2   8  -4   24.26    1.03 
   2   8  -4   26.10    0.77 
  -2  -8   4   25.47    0.88 
  -2  -8   4   24.51    0.71 
   1   8  -4    7.52    0.68 
   1   8  -4    6.61    0.47 
  -1  -8   4    6.87    0.43 
  -1  -8   4    6.72    0.56 
   0   8  -4    0.14    0.31 
   0   8  -4    0.06    0.26 
   0  -8   4    0.06    0.18 
   0  -8   4    0.01    0.26 
  -1   8  -4   -0.10    0.27 
  -1   8  -4    0.31    0.33 
   1  -8   4    0.27    0.20 
   1  -8   4    0.09    0.27 
  -2   8  -4    3.55    0.39 
  -2   8  -4    3.58    0.50 
   2  -8   4    3.62    0.42 
   2  -8   4    4.17    0.37 
  -3   8  -4    0.61    0.33 
  -3   8  -4    0.37    0.25 
   3  -8   4    0.49    0.25 
  -4   8  -4    0.82    0.30 
   4  -8   4    0.79    0.28 
   7   7  -4    5.13    0.37 
   7   7  -4    4.56    0.58 
  -7  -7   4    5.81    0.52 
   6   7  -4   -0.12    0.31 
   6   7  -4   -0.23    0.20 
   6   7  -4   -0.13    0.35 
  -6  -7   4   -0.11    0.22 
   5   7  -4   -0.16    0.30 
   5   7  -4    0.25    0.34 
   5   7  -4   -0.07    0.20 
  -5  -7   4   -0.02    0.19 
   4   7  -4    0.10    0.19 
   4   7  -4   -0.01    0.30 
  -4  -7   4   -0.19    0.16 
  -4  -7   4   -0.29    0.24 
   3   7  -4    0.73    0.34 
   3   7  -4    0.44    0.21 
  -3  -7   4    0.32    0.25 
  -3  -7   4    0.78    0.20 
   2   7  -4    1.47    0.37 
   2   7  -4    1.39    0.26 
  -2  -7   4    2.01    0.25 
  -2  -7   4    2.27    0.33 
   1   7  -4    1.41    0.28 
   1   7  -4    1.68    0.36 
  -1  -7   4    2.09    0.34 
  -1  -7   4    1.92    0.25 
   0   7  -4    2.82    0.40 
   0   7  -4    3.87    0.38 
   0  -7   4    3.64    0.31 
   0  -7   4    3.19    0.36 
  -1   7  -4    3.22    0.36 
  -1   7  -4    2.64    0.40 
  -1   7  -4    2.53    0.29 
   1  -7   4    3.19    0.37 
   1  -7   4    3.82    0.34 
  -2   7  -4    2.24    0.34 
  -2   7  -4    2.04    0.37 
  -2   7  -4    2.83    0.33 
   2  -7   4    2.54    0.32 
   2  -7   4    2.46    0.30 
  -3   7  -4    0.34    0.22 
  -3   7  -4    0.29    0.29 
   3  -7   4    0.97    0.24 
  -4   7  -4    5.89    0.55 
  -4   7  -4    6.07    0.50 
   4  -7   4    6.38    0.46 
  -5   7  -4    0.69    0.29 
   5  -7   4    0.75    0.29 
  -6   7  -4   -0.37    0.23 
   6  -7   4    0.13    0.27 
   7   6  -4    0.35    0.35 
   7   6  -4    0.58    0.21 
  -7  -6   4    0.79    0.29 
   6   6  -4    1.94    0.42 
   6   6  -4    1.64    0.24 
   6   6  -4    1.94    0.38 
  -6  -6   4    1.80    0.30 
   5   6  -4    0.01    0.17 
   5   6  -4    0.45    0.30 
   5   6  -4    0.06    0.25 
  -5  -6   4    0.67    0.21 
   4   6  -4    0.25    0.18 
   4   6  -4    0.30    0.27 
  -4  -6   4    0.30    0.17 
   3   6  -4    0.73    0.31 
   3   6  -4    0.99    0.21 
  -3  -6   4    0.91    0.19 
  -3  -6   4    0.96    0.28 
   2   6  -4    3.25    0.29 
   2   6  -4    2.66    0.39 
  -2  -6   4    3.25    0.27 
  -2  -6   4    3.53    0.37 
   1   6  -4    2.12    0.28 
   1   6  -4    1.87    0.35 
  -1  -6   4    2.47    0.25 
  -1  -6   4    2.72    0.32 
   0   6  -4    1.36    0.26 
   0   6  -4    1.12    0.18 
   0   6  -4    0.87    0.28 
   0  -6   4    1.30    0.25 
   0  -6   4    1.35    0.21 
  -1   6  -4    1.37    0.26 
  -1   6  -4    0.81    0.28 
  -1   6  -4    0.94    0.19 
   1  -6   4    0.86    0.19 
   1  -6   4    1.02    0.24 
  -2   6  -4    0.87    0.26 
  -2   6  -4    1.11    0.30 
  -2   6  -4    0.96    0.22 
   2  -6   4    0.97    0.23 
   2  -6   4    0.93    0.20 
  -3   6  -4    2.86    0.32 
  -3   6  -4    2.44    0.36 
   3  -6   4    2.39    0.29 
   3  -6   4    3.21    0.31 
  -4   6  -4    0.61    0.24 
  -4   6  -4    0.64    0.29 
   4  -6   4    1.21    0.26 
  -5   6  -4    0.60    0.26 
   5  -6   4    0.47    0.25 
  -6   6  -4    2.42    0.39 
   6  -6   4    2.55    0.38 
  -7   6  -4    0.99    0.32 
   7  -6   4    0.71    0.31 
   8   5  -4    0.11    0.20 
   8   5  -4    0.84    0.38 
  -8  -5   4   -0.20    0.25 
   7   5  -4    5.31    0.54 
   7   5  -4    4.54    0.35 
  -7  -5   4    5.86    0.49 
  -7  -5   4    6.09    0.48 
   6   5  -4    1.13    0.30 
   6   5  -4    0.70    0.30 
   6   5  -4    0.78    0.19 
  -6  -5   4    1.14    0.24 
  -6  -5   4    1.09    0.25 
   5   5  -4    1.61    0.21 
   5   5  -4    1.59    0.32 
   5   5  -4    1.73    0.35 
  -5  -5   4    1.88    0.26 
  -5  -5   4    1.62    0.25 
   4   5  -4    3.81    0.40 
   4   5  -4    3.10    0.25 
   4   5  -4    2.91    0.37 
  -4  -5   4    3.56    0.30 
   3   5  -4    0.54    0.25 
   3   5  -4    0.23    0.16 
  -3  -5   4    0.28    0.21 
  -3  -5   4    0.30    0.14 
   2   5  -4    0.54    0.18 
   2   5  -4    0.20    0.25 
  -2  -5   4    0.57    0.15 
  -2  -5   4    0.40    0.22 
   1   5  -4    5.42    0.26 
   1   5  -4    5.23    0.45 
   1   5  -4    5.36    0.35 
  -1  -5   4    5.61    0.38 
  -1  -5   4    5.22    0.30 
   0   5  -4    1.01    0.21 
   0   5  -4    1.18    0.29 
   0   5  -4    0.80    0.16 
   0  -5   4    0.70    0.21 
   0  -5   4    0.91    0.17 
  -1   5  -4    2.43    0.24 
  -1   5  -4    2.44    0.33 
  -1   5  -4    2.69    0.28 
   1  -5   4    3.09    0.26 
   1  -5   4    2.07    0.26 
  -2   5  -4   16.18    0.52 
  -2   5  -4   15.41    0.54 
  -2   5  -4   15.30    0.63 
   2  -5   4   14.82    0.48 
   2  -5   4   15.35    0.50 
  -3   5  -4    2.88    0.34 
  -3   5  -4    1.90    0.26 
   3  -5   4    1.24    0.23 
   3  -5   4    2.20    0.25 
  -4   5  -4   -0.05    0.22 
  -4   5  -4    0.21    0.20 
   4  -5   4    0.02    0.20 
  -5   5  -4   15.88    0.65 
   5  -5   4   15.93    0.60 
  -6   5  -4    0.35    0.24 
   6  -5   4    0.17    0.24 
  -7   5  -4   -0.06    0.24 
   7  -5   4   -0.08    0.28 
   9   4  -4   -0.01    0.21 
   9   4  -4   -0.45    0.33 
  -9  -4   4   -0.28    0.21 
  -9  -4   4   -0.08    0.26 
   8   4  -4    0.24    0.32 
   8   4  -4    0.40    0.21 
  -8  -4   4   -0.18    0.21 
  -8  -4   4    0.08    0.24 
   7   4  -4   15.03    0.74 
   7   4  -4   14.66    0.48 
  -7  -4   4   15.93    0.65 
  -7  -4   4   15.74    0.61 
   6   4  -4    0.88    0.18 
   6   4  -4    1.34    0.32 
  -6  -4   4    1.67    0.27 
  -6  -4   4    1.22    0.23 
   5   4  -4    0.88    0.18 
   5   4  -4    0.99    0.26 
   5   4  -4    1.31    0.29 
  -5  -4   4    1.20    0.22 
  -5  -4   4    1.02    0.20 
   4   4  -4   13.70    0.58 
   4   4  -4   14.70    0.58 
   4   4  -4   13.27    0.42 
  -4  -4   4   13.23    0.42 
  -4  -4   4   12.72    0.44 
   3   4  -4    0.60    0.23 
   3   4  -4    0.79    0.18 
   3   4  -4    1.08    0.27 
  -3  -4   4    1.02    0.16 
  -3  -4   4    0.87    0.15 
   2   4  -4    0.07    0.16 
   2   4  -4   -0.11    0.19 
  -2  -4   4    0.17    0.11 
  -2  -4   4    0.29    0.19 
  -2  -4   4    0.09    0.09 
   1   4  -4    2.11    0.17 
   1   4  -4    2.45    0.31 
   1   4  -4    2.33    0.23 
  -1  -4   4    1.99    0.14 
  -1  -4   4    1.73    0.18 
  -1  -4   4    2.18    0.25 
   0   4  -4    0.17    0.20 
   0   4  -4    0.12    0.16 
   0   4  -4    0.42    0.13 
   0  -4   4    0.24    0.07 
   0  -4   4    0.24    0.17 
   0  -4   4    0.24    0.12 
  -1   4  -4   15.21    0.57 
  -1   4  -4   15.74    0.48 
  -1   4  -4   16.12    0.45 
   1  -4   4   15.90    0.32 
   1  -4   4   15.11    0.47 
   1  -4   4   16.00    0.44 
  -2   4  -4   18.51    0.53 
  -2   4  -4   19.09    0.65 
  -2   4  -4   18.45    0.55 
   2  -4   4   18.90    0.44 
   2  -4   4   19.15    0.40 
   2  -4   4   19.69    0.51 
   2  -4   4   17.94    0.51 
  -3   4  -4    5.94    0.42 
  -3   4  -4    6.07    0.35 
  -3   4  -4    5.36    0.37 
   3  -4   4    5.47    0.30 
   3  -4   4    5.35    0.28 
   3  -4   4    5.52    0.36 
   3  -4   4    5.98    0.26 
  -4   4  -4    6.71    0.42 
  -4   4  -4    6.57    0.42 
   4  -4   4    7.18    0.29 
   4  -4   4    7.48    0.40 
   4  -4   4    7.54    0.32 
  -5   4  -4    5.10    0.43 
   5  -4   4    5.66    0.39 
   5  -4   4    5.82    0.31 
   5  -4   4    5.26    0.29 
  -6   4  -4    7.76    0.50 
   6  -4   4    7.99    0.37 
   6  -4   4    8.43    0.38 
   6  -4   4    7.65    0.46 
  -7   4  -4    0.47    0.26 
   7  -4   4    1.11    0.28 
   7  -4   4    0.74    0.21 
  -8   4  -4    0.84    0.32 
   8  -4   4    1.15    0.31 
   9   3  -4    0.43    0.23 
   9   3  -4    0.61    0.35 
  -9  -3   4    0.45    0.26 
  -9  -3   4    0.17    0.27 
   8   3  -4   -0.03    0.30 
   8   3  -4   -0.05    0.19 
  -8  -3   4    0.02    0.22 
  -8  -3   4    0.10    0.23 
   7   3  -4    2.92    0.26 
   7   3  -4    2.25    0.37 
  -7  -3   4    2.72    0.32 
  -7  -3   4    2.40    0.32 
   6   3  -4    0.31    0.25 
   6   3  -4   -0.02    0.14 
  -6  -3   4   -0.23    0.15 
  -6  -3   4    0.04    0.17 
   5   3  -4    7.21    0.43 
   5   3  -4    7.93    0.33 
   5   3  -4    6.92    0.47 
  -5  -3   4    7.51    0.37 
  -5  -3   4    7.32    0.36 
   4   3  -4   16.16    0.56 
   4   3  -4   15.25    0.43 
   4   3  -4   15.97    0.61 
  -4  -3   4   16.27    0.46 
  -4  -3   4   14.93    0.46 
   3   3  -4    2.53    0.28 
   3   3  -4    2.63    0.29 
   3   3  -4    2.90    0.22 
  -3  -3   4    3.07    0.21 
  -3  -3   4    2.88    0.22 
   2   3  -4    5.18    0.27 
   2   3  -4    5.71    0.38 
  -2  -3   4    5.18    0.21 
  -2  -3   4    5.36    0.24 
   1   3  -4    1.37    0.11 
   1   3  -4    1.39    0.16 
   1   3  -4    1.26    0.23 
  -1  -3   4    1.19    0.19 
  -1  -3   4    1.32    0.11 
  -1  -3   4    1.37    0.15 
   0   3  -4    2.12    0.20 
   0   3  -4    2.21    0.26 
   0   3  -4    2.53    0.17 
   0  -3   4    2.29    0.15 
   0  -3   4    2.45    0.21 
   0  -3   4    1.86    0.16 
   0  -3   4    2.43    0.13 
  -1   3  -4   -0.03    0.16 
  -1   3  -4    0.17    0.14 
  -1   3  -4    0.03    0.10 
   1  -3   4    0.04    0.11 
   1  -3   4    0.13    0.09 
   1  -3   4    0.12    0.08 
   1  -3   4   -0.06    0.11 
  -2   3  -4    2.93    0.24 
  -2   3  -4    2.60    0.23 
  -2   3  -4    2.65    0.29 
   2  -3   4    2.84    0.21 
   2  -3   4    2.98    0.18 
   2  -3   4    2.92    0.24 
   2  -3   4    3.05    0.20 
  -3   3  -4   21.77    0.59 
  -3   3  -4   21.33    0.64 
  -3   3  -4   23.43    0.56 
   3  -3   4   21.03    0.55 
   3  -3   4   21.92    0.46 
   3  -3   4   22.37    0.46 
   3  -3   4   21.99    0.48 
  -4   3  -4    1.23    0.24 
  -4   3  -4    1.29    0.23 
   4  -3   4    0.87    0.15 
   4  -3   4    0.96    0.16 
   4  -3   4    1.13    0.21 
   4  -3   4    1.40    0.17 
  -5   3  -4    0.19    0.18 
  -5   3  -4   -0.13    0.17 
   5  -3   4    0.01    0.13 
   5  -3   4   -0.10    0.13 
   5  -3   4    0.20    0.18 
  -6   3  -4    8.01    0.47 
   6  -3   4    8.22    0.42 
   6  -3   4    8.77    0.36 
  -7   3  -4    0.74    0.25 
   7  -3   4    0.59    0.18 
   7  -3   4    0.70    0.24 
  -8   3  -4    0.42    0.18 
  -8   3  -4    0.30    0.26 
   8  -3   4    0.70    0.26 
   8  -3   4    0.62    0.21 
  -9   3  -4   -0.08    0.25 
   9  -3   4    0.15    0.21 
   9  -3   4   -0.52    0.24 
   9   2  -4    0.69    0.37 
   9   2  -4    1.02    0.25 
   9   2  -4    0.99    0.36 
  -9  -2   4    0.46    0.27 
   8   2  -4   -0.17    0.26 
   8   2  -4    0.17    0.18 
  -8  -2   4   -0.11    0.20 
  -8  -2   4   -0.36    0.20 
   7   2  -4    0.96    0.32 
   7   2  -4    0.76    0.19 
  -7  -2   4    0.78    0.24 
  -7  -2   4    0.59    0.22 
   6   2  -4    9.13    0.36 
   6   2  -4    9.21    0.54 
  -6  -2   4    8.90    0.44 
  -6  -2   4    8.75    0.43 
   5   2  -4    0.15    0.18 
   5   2  -4   -0.09    0.12 
   5   2  -4   -0.27    0.21 
  -5  -2   4   -0.08    0.14 
  -5  -2   4   -0.01    0.14 
   4   2  -4    1.08    0.21 
   4   2  -4    1.03    0.23 
   4   2  -4    1.28    0.16 
  -4  -2   4    1.32    0.18 
  -4  -2   4    1.26    0.17 
   3   2  -4   33.55    0.61 
   3   2  -4   34.95    0.79 
   3   2  -4   34.28    0.77 
  -3  -2   4   32.83    0.64 
  -3  -2   4   34.40    0.64 
   2   2  -4    2.18    0.23 
   2   2  -4    2.26    0.18 
   2   2  -4    2.35    0.24 
  -2  -2   4    2.06    0.14 
  -2  -2   4    2.02    0.17 
   1   2  -4    1.55    0.19 
   1   2  -4    1.35    0.15 
   1   2  -4    1.31    0.19 
   1   2  -4    1.56    0.09 
  -1  -2   4    1.56    0.14 
  -1  -2   4    1.69    0.12 
  -1  -2   4    1.62    0.12 
   0   2  -4    0.33    0.16 
   0   2  -4    0.35    0.12 
   0   2  -4    0.25    0.08 
   0  -2   4    0.29    0.12 
   0  -2   4    0.27    0.07 
   0  -2   4    0.24    0.09 
   0  -2   4    0.34    0.08 
  -1   2  -4    3.62    0.28 
  -1   2  -4    3.30    0.19 
  -1   2  -4    3.34    0.23 
   1  -2   4    3.36    0.19 
   1  -2   4    3.53    0.17 
   1  -2   4    3.57    0.17 
   1  -2   4    3.24    0.19 
  -2   2  -4    9.14    0.38 
  -2   2  -4   10.37    0.33 
   2  -2   4    9.46    0.27 
   2  -2   4    9.84    0.27 
   2  -2   4    9.37    0.26 
   2  -2   4    9.46    0.31 
  -3   2  -4   18.82    0.54 
  -3   2  -4   20.01    0.47 
  -3   2  -4   18.60    0.51 
   3  -2   4   18.65    0.37 
   3  -2   4   19.15    0.40 
   3  -2   4   18.46    0.47 
   3  -2   4   19.15    0.41 
  -4   2  -4    1.44    0.21 
  -4   2  -4    1.75    0.24 
   4  -2   4    1.43    0.16 
   4  -2   4    1.42    0.13 
   4  -2   4    1.01    0.15 
   4  -2   4    2.28    0.23 
  -5   2  -4   11.66    0.50 
  -5   2  -4   11.95    0.46 
   5  -2   4   12.16    0.36 
   5  -2   4   12.52    0.44 
  -6   2  -4    1.63    0.20 
  -6   2  -4    1.21    0.25 
   6  -2   4    1.32    0.22 
   6  -2   4    1.39    0.18 
  -7   2  -4    1.98    0.23 
  -7   2  -4    2.17    0.32 
   7  -2   4    1.90    0.21 
   7  -2   4    1.68    0.26 
  -8   2  -4    1.03    0.28 
  -8   2  -4    1.37    0.22 
   8  -2   4    0.58    0.25 
   8  -2   4    1.07    0.21 
  -9   2  -4   -0.25    0.17 
  -9   2  -4    0.33    0.26 
   9  -2   4    0.20    0.25 
   9  -2   4    0.08    0.19 
   9   1  -4    7.36    0.61 
   9   1  -4    5.77    0.56 
   9   1  -4    7.79    0.47 
  -9  -1   4    6.59    0.53 
   8   1  -4    0.25    0.26 
   8   1  -4    0.02    0.18 
   8   1  -4   -0.05    0.29 
  -8  -1   4    0.06    0.23 
   7   1  -4    7.81    0.53 
   7   1  -4    7.33    0.37 
  -7  -1   4    7.89    0.45 
  -7  -1   4    8.01    0.47 
   6   1  -4   12.28    0.41 
   6   1  -4   12.64    0.58 
  -6  -1   4   12.85    0.49 
  -6  -1   4   12.64    0.49 
   5   1  -4    1.60    0.29 
   5   1  -4    2.00    0.23 
   5   1  -4    1.78    0.20 
  -5  -1   4    1.67    0.22 
  -5  -1   4    1.69    0.22 
   4   1  -4   14.64    0.44 
   4   1  -4   13.83    0.38 
   4   1  -4   13.78    0.52 
  -4  -1   4   13.19    0.41 
  -4  -1   4   14.10    0.42 
   3   1  -4   24.69    0.62 
   3   1  -4   25.86    0.59 
   3   1  -4   24.13    0.48 
  -3  -1   4   24.38    0.52 
  -3  -1   4   24.81    0.51 
   2   1  -4    1.65    0.15 
   2   1  -4    1.68    0.19 
   2   1  -4    1.55    0.19 
  -2  -1   4    1.48    0.13 
  -2  -1   4    1.41    0.12 
   1   1  -4   22.55    0.55 
   1   1  -4   22.51    0.44 
   1   1  -4   22.94    0.33 
   1   1  -4   21.78    0.50 
  -1  -1   4   22.70    0.43 
  -1  -1   4   22.59    0.41 
  -1  -1   4   23.17    0.38 
   0   1  -4   14.11    0.35 
   0   1  -4   13.61    0.34 
   0   1  -4   13.89    0.29 
   0  -1   4   14.18    0.31 
   0  -1   4   14.53    0.30 
   0  -1   4   13.94    0.28 
  -1   1  -4   12.45    0.32 
  -1   1  -4   12.61    0.41 
  -1   1  -4   12.67    0.32 
   1  -1   4   13.21    0.31 
   1  -1   4   12.91    0.28 
   1  -1   4   12.94    0.30 
  -2   1  -4   18.25    0.44 
  -2   1  -4   17.41    0.49 
  -2   1  -4   18.89    0.40 
   2  -1   4   18.69    0.33 
   2  -1   4   19.17    0.38 
   2  -1   4   18.34    0.41 
   2  -1   4   18.64    0.35 
  -3   1  -4    6.65    0.30 
  -3   1  -4    6.61    0.32 
  -3   1  -4    6.61    0.25 
   3  -1   4    6.36    0.26 
   3  -1   4    6.03    0.21 
   3  -1   4    6.43    0.16 
   3  -1   4    6.05    0.23 
  -4   1  -4    0.36    0.16 
  -4   1  -4    0.45    0.16 
   4  -1   4    0.28    0.11 
   4  -1   4    0.56    0.07 
   4  -1   4    0.27    0.10 
   4  -1   4    0.51    0.14 
  -5   1  -4    6.00    0.28 
  -5   1  -4    6.04    0.35 
  -5   1  -4    5.05    0.35 
   5  -1   4    5.52    0.31 
   5  -1   4    5.74    0.25 
  -6   1  -4    1.59    0.26 
  -6   1  -4    1.92    0.20 
   6  -1   4    2.06    0.18 
   6  -1   4    1.58    0.21 
  -7   1  -4    1.46    0.27 
  -7   1  -4    1.64    0.21 
   7  -1   4    1.52    0.23 
   7  -1   4    1.83    0.19 
  -8   1  -4    1.22    0.22 
  -8   1  -4    1.06    0.26 
   8  -1   4    0.80    0.18 
   8  -1   4    0.50    0.21 
  -9   1  -4   -0.13    0.22 
  -9   1  -4    0.05    0.19 
   9  -1   4   -0.19    0.16 
   9  -1   4   -0.13    0.21 
   9   0  -4    3.25    0.34 
   9   0  -4    3.03    0.46 
   9   0  -4    3.79    0.49 
  -9   0   4    3.47    0.43 
   8   0  -4    0.32    0.28 
   8   0  -4   -0.04    0.29 
   8   0  -4    0.12    0.19 
  -8   0   4   -0.12    0.22 
   7   0  -4    2.94    0.36 
   7   0  -4    2.57    0.25 
   7   0  -4    2.59    0.36 
  -7   0   4    3.18    0.34 
   6   0  -4    8.82    0.37 
   6   0  -4    8.56    0.50 
  -6   0   4    9.11    0.43 
  -6   0   4    9.02    0.42 
   5   0  -4    4.26    0.36 
   5   0  -4    4.48    0.28 
  -5   0   4    4.20    0.31 
  -5   0   4    5.20    0.33 
  -5   0   4    4.34    0.23 
   4   0  -4    0.47    0.14 
   4   0  -4    0.43    0.15 
   4   0  -4    0.41    0.19 
  -4   0   4    0.40    0.13 
  -4   0   4    0.28    0.12 
  -4   0   4    0.48    0.10 
   3   0  -4    4.49    0.23 
   3   0  -4    4.45    0.29 
   3   0  -4    4.73    0.26 
  -3   0   4    4.56    0.15 
  -3   0   4    4.20    0.21 
  -3   0   4    4.32    0.21 
   2   0  -4    0.01    0.12 
   2   0  -4    0.21    0.14 
   2   0  -4    0.05    0.10 
  -2   0   4    0.32    0.08 
  -2   0   4    0.02    0.04 
  -2   0   4    0.07    0.07 
  -2   0   4    0.00    0.07 
   1   0  -4   43.58    0.66 
   1   0  -4   43.32    0.76 
   1   0  -4   44.21    0.81 
  -1   0   4   42.70    0.65 
  -1   0   4   43.40    0.66 
  -1   0   4   43.81    0.59 
  -1   0   4   44.30    0.61 
   0   0  -4   39.12    0.59 
   0   0  -4   39.16    0.76 
   0   0  -4   40.17    0.61 
   0   0  -4   40.57    0.66 
   0   0   4   40.04    0.57 
   0   0   4   40.64    0.60 
   0   0   4   39.77    0.61 
  -1   0  -4   -0.07    0.08 
  -1   0  -4    0.02    0.12 
  -1   0  -4   -0.04    0.07 
  -1   0  -4    0.06    0.07 
   1   0   4    0.04    0.06 
   1   0   4    0.07    0.07 
   1   0   4    0.03    0.07 
  -2   0  -4   45.50    0.87 
  -2   0  -4   46.85    0.67 
  -2   0  -4   46.35    0.77 
   2   0   4   45.70    0.71 
   2   0   4   45.59    0.71 
   2   0   4   45.95    0.64 
  -3   0  -4    5.41    0.29 
  -3   0  -4    5.70    0.27 
   3   0   4    5.80    0.18 
   3   0   4    6.04    0.23 
   3   0   4    5.84    0.23 
  -4   0  -4    0.39    0.14 
  -4   0  -4    0.36    0.15 
   4   0   4    0.26    0.12 
   4   0   4    0.19    0.08 
  -5   0  -4    6.83    0.36 
  -5   0  -4    7.24    0.35 
  -5   0  -4    6.78    0.29 
   5   0   4    6.54    0.31 
   5   0   4    6.95    0.24 
  -6   0  -4    0.59    0.19 
  -6   0  -4    0.20    0.13 
   6   0   4    0.59    0.12 
   6   0   4    0.67    0.19 
  -7   0  -4    0.53    0.21 
  -7   0  -4    0.50    0.17 
   7   0   4    0.66    0.21 
   7   0   4    0.89    0.15 
  -8   0  -4    2.75    0.35 
  -8   0  -4    2.43    0.27 
   8   0   4    2.52    0.29 
   8   0   4    2.94    0.23 
  -9   0  -4    0.56    0.25 
  -9   0  -4    0.53    0.21 
   9   0   4    0.46    0.24 
   9   0   4    0.36    0.17 
 -10   0  -4    3.67    0.44 
 -10   0  -4    3.62    0.37 
  10   0   4    3.84    0.40 
  10   0   4    3.68    0.29 
   9  -1  -4    1.11    0.41 
   9  -1  -4    1.18    0.28 
   9  -1  -4    0.95    0.36 
  -9   1   4    1.38    0.33 
   8  -1  -4    0.28    0.19 
   8  -1  -4    0.50    0.31 
   8  -1  -4    0.01    0.29 
  -8   1   4    0.13    0.23 
   7  -1  -4    0.10    0.17 
   7  -1  -4    0.18    0.24 
   7  -1  -4   -0.27    0.25 
  -7   1   4    0.23    0.20 
   6  -1  -4    1.68    0.28 
   6  -1  -4    2.30    0.23 
   6  -1  -4    1.45    0.29 
  -6   1   4    2.26    0.26 
  -6   1   4    1.82    0.21 
   5  -1  -4   14.41    0.42 
   5  -1  -4   13.53    0.56 
  -5   1   4   13.61    0.47 
  -5   1   4   14.06    0.41 
   4  -1  -4    4.52    0.36 
   4  -1  -4    4.32    0.26 
   4  -1  -4    4.75    0.24 
  -4   1   4    4.05    0.22 
  -4   1   4    4.06    0.25 
  -4   1   4    4.13    0.26 
   3  -1  -4    0.67    0.13 
   3  -1  -4    0.63    0.14 
   3  -1  -4    0.68    0.17 
  -3   1   4    0.76    0.10 
  -3   1   4    0.57    0.11 
  -3   1   4    0.66    0.11 
  -3   1   4    0.63    0.10 
   2  -1  -4   47.45    0.86 
   2  -1  -4   47.33    0.73 
   2  -1  -4   49.40    0.86 
  -2   1   4   48.51    0.69 
  -2   1   4   48.44    0.75 
  -2   1   4   49.08    0.69 
  -2   1   4   47.50    0.75 
   1  -1  -4   29.45    0.49 
   1  -1  -4   28.89    0.57 
   1  -1  -4   29.40    0.61 
  -1   1   4   29.66    0.50 
  -1   1   4   29.65    0.46 
  -1   1   4   30.18    0.46 
  -1   1   4   29.67    0.46 
   0  -1  -4   10.95    0.36 
   0  -1  -4   11.63    0.26 
   0  -1  -4   11.35    0.25 
   0  -1  -4   11.48    0.29 
   0   1   4   11.42    0.26 
   0   1   4   11.62    0.21 
   0   1   4   11.68    0.24 
  -1  -1  -4   10.91    0.27 
  -1  -1  -4   11.09    0.24 
  -1  -1  -4   10.99    0.23 
  -1  -1  -4   10.89    0.36 
   1   1   4   10.68    0.22 
   1   1   4   10.85    0.22 
   1   1   4   10.66    0.26 
  -2  -1  -4    0.29    0.14 
  -2  -1  -4    0.56    0.10 
   2   1   4    0.42    0.09 
   2   1   4    0.37    0.07 
   2   1   4    0.50    0.08 
  -3  -1  -4   12.37    0.41 
  -3  -1  -4   12.46    0.36 
   3   1   4   12.16    0.32 
   3   1   4   12.82    0.28 
   3   1   4   12.11    0.29 
   3   1   4   12.14    0.24 
  -4  -1  -4    0.59    0.14 
  -4  -1  -4    0.41    0.16 
   4   1   4    0.50    0.10 
   4   1   4    0.42    0.08 
   4   1   4    0.55    0.12 
  -5  -1  -4    0.72    0.17 
  -5  -1  -4    0.79    0.19 
  -5  -1  -4    0.73    0.14 
   5   1   4    0.71    0.16 
   5   1   4    0.73    0.10 
  -6  -1  -4    0.89    0.20 
  -6  -1  -4    0.83    0.16 
  -6  -1  -4    0.82    0.20 
   6   1   4    1.19    0.13 
   6   1   4    1.24    0.21 
  -7  -1  -4    2.95    0.31 
  -7  -1  -4    2.75    0.25 
   7   1   4    2.32    0.26 
   7   1   4    3.28    0.21 
  -8  -1  -4    0.23    0.16 
  -8  -1  -4    0.77    0.23 
   8   1   4    0.42    0.14 
   8   1   4    0.46    0.20 
  -9  -1  -4    0.28    0.23 
  -9  -1  -4    0.46    0.22 
   9   1   4    0.28    0.23 
   9   1   4    0.43    0.15 
 -10  -1  -4    0.49    0.23 
 -10  -1  -4   -0.15    0.22 
  10   1   4    0.29    0.25 
  10   1   4    0.25    0.17 
   9  -2  -4   -0.10    0.23 
   9  -2  -4   -0.19    0.31 
   9  -2  -4   -0.06    0.31 
  -9   2   4   -0.55    0.23 
   8  -2  -4    2.99    0.41 
   8  -2  -4    2.84    0.31 
   8  -2  -4    2.68    0.40 
  -8   2   4    3.65    0.40 
   7  -2  -4    0.04    0.25 
   7  -2  -4    0.15    0.18 
   7  -2  -4   -0.05    0.24 
  -7   2   4   -0.12    0.18 
  -7   2   4    0.17    0.17 
   6  -2  -4    6.72    0.47 
   6  -2  -4    7.13    0.42 
   6  -2  -4    7.41    0.36 
  -6   2   4    6.72    0.36 
  -6   2   4    6.97    0.39 
   5  -2  -4   10.66    0.51 
   5  -2  -4    9.44    0.38 
   5  -2  -4   10.27    0.43 
  -5   2   4   10.19    0.38 
  -5   2   4    9.89    0.41 
   4  -2  -4    1.70    0.18 
   4  -2  -4    2.05    0.18 
   4  -2  -4    1.97    0.26 
   4  -2  -4    1.56    0.21 
  -4   2   4    1.96    0.19 
  -4   2   4    1.94    0.20 
   3  -2  -4    1.31    0.16 
   3  -2  -4    1.01    0.15 
   3  -2  -4    1.32    0.17 
   3  -2  -4    0.93    0.19 
  -3   2   4    1.16    0.13 
  -3   2   4    1.12    0.14 
  -3   2   4    0.95    0.13 
   2  -2  -4   12.15    0.39 
   2  -2  -4   13.05    0.32 
   2  -2  -4   12.61    0.38 
  -2   2   4   12.37    0.29 
  -2   2   4   12.70    0.29 
  -2   2   4   12.56    0.30 
  -2   2   4   12.44    0.29 
   1  -2  -4   28.37    0.61 
   1  -2  -4   28.62    0.56 
   1  -2  -4   28.14    0.48 
  -1   2   4   27.90    0.45 
  -1   2   4   28.24    0.44 
  -1   2   4   28.38    0.48 
  -1   2   4   27.98    0.48 
   0  -2  -4    0.03    0.12 
   0  -2  -4    0.16    0.09 
   0  -2  -4    0.07    0.07 
   0   2   4    0.04    0.03 
   0   2   4    0.15    0.07 
   0   2   4    0.11    0.06 
   0   2   4    0.07    0.07 
  -1  -2  -4  204.96    3.05 
  -1  -2  -4  214.11    2.74 
  -1  -2  -4  212.68    2.70 
   1   2   4  215.75    2.59 
   1   2   4  210.47    2.68 
   1   2   4  212.15    2.45 
  -2  -2  -4    7.20    0.18 
  -2  -2  -4    6.77    0.24 
  -2  -2  -4    6.89    0.32 
   2   2   4    6.83    0.18 
   2   2   4    6.72    0.16 
   2   2   4    6.73    0.17 
   2   2   4    6.21    0.22 
  -3  -2  -4   22.24    0.58 
  -3  -2  -4   22.79    0.38 
   3   2   4   21.84    0.45 
   3   2   4   22.29    0.35 
   3   2   4   22.56    0.32 
   3   2   4   22.38    0.42 
  -4  -2  -4    5.56    0.33 
  -4  -2  -4    5.46    0.27 
   4   2   4    5.34    0.16 
   4   2   4    5.45    0.18 
   4   2   4    5.36    0.24 
   4   2   4    5.14    0.14 
  -5  -2  -4    2.55    0.23 
  -5  -2  -4    3.26    0.30 
  -5  -2  -4    3.32    0.23 
   5   2   4    2.76    0.22 
   5   2   4    3.00    0.18 
   5   2   4    3.03    0.14 
   5   2   4    3.45    0.17 
  -6  -2  -4   14.50    0.44 
  -6  -2  -4   14.84    0.50 
  -6  -2  -4   15.44    0.52 
   6   2   4   15.63    0.48 
   6   2   4   15.02    0.31 
  -7  -2  -4    8.59    0.38 
  -7  -2  -4    8.63    0.43 
   7   2   4    8.50    0.27 
   7   2   4    9.05    0.42 
  -8  -2  -4    0.68    0.19 
  -8  -2  -4    0.54    0.21 
   8   2   4    0.48    0.21 
   8   2   4    0.51    0.12 
  -9  -2  -4    0.17    0.19 
  -9  -2  -4    0.23    0.21 
   9   2   4    0.00    0.20 
   9   2   4    0.29    0.13 
 -10  -2  -4    2.33    0.35 
 -10  -2  -4    2.13    0.32 
  10   2   4    2.55    0.35 
  10   2   4    2.57    0.24 
   9  -3  -4    0.38    0.33 
   9  -3  -4    0.40    0.27 
   9  -3  -4    0.56    0.36 
  -9   3   4    0.54    0.29 
   8  -3  -4    0.84    0.26 
   8  -3  -4    0.98    0.33 
   8  -3  -4    0.71    0.30 
  -8   3   4    0.90    0.28 
   7  -3  -4    1.40    0.25 
   7  -3  -4    1.91    0.32 
   7  -3  -4    1.76    0.33 
  -7   3   4    1.87    0.29 
  -7   3   4    2.06    0.28 
   6  -3  -4    8.94    0.51 
   6  -3  -4    8.90    0.46 
   6  -3  -4    8.43    0.41 
  -6   3   4    8.07    0.42 
  -6   3   4    9.25    0.43 
   5  -3  -4    5.13    0.33 
   5  -3  -4    4.03    0.36 
   5  -3  -4    4.87    0.34 
  -5   3   4    5.00    0.32 
  -5   3   4    4.87    0.34 
   4  -3  -4    5.49    0.28 
   4  -3  -4    5.29    0.31 
   4  -3  -4    5.06    0.31 
   4  -3  -4    5.92    0.40 
  -4   3   4    4.82    0.29 
  -4   3   4    5.23    0.29 
   3  -3  -4   13.38    0.46 
   3  -3  -4   14.12    0.37 
   3  -3  -4   13.61    0.37 
   3  -3  -4   13.24    0.41 
  -3   3   4   13.03    0.37 
  -3   3   4   13.71    0.37 
  -3   3   4   14.25    0.37 
   2  -3  -4    7.07    0.26 
   2  -3  -4    6.90    0.31 
   2  -3  -4    7.13    0.23 
   2  -3  -4    7.18    0.33 
  -2   3   4    6.76    0.24 
  -2   3   4    7.47    0.25 
  -2   3   4    6.84    0.23 
   1  -3  -4   43.45    0.65 
   1  -3  -4   43.67    0.61 
   1  -3  -4   43.63    0.86 
   1  -3  -4   42.44    0.77 
  -1   3   4   42.82    0.66 
  -1   3   4   43.22    0.70 
  -1   3   4   43.66    0.64 
   0  -3  -4   38.33    0.79 
   0  -3  -4   36.94    0.66 
   0  -3  -4   38.12    0.55 
   0   3   4   37.67    0.63 
   0   3   4   37.77    0.55 
   0   3   4   36.88    0.59 
  -1  -3  -4    0.94    0.18 
  -1  -3  -4    0.85    0.11 
   1   3   4    1.01    0.08 
   1   3   4    0.80    0.09 
   1   3   4    0.78    0.10 
   1   3   4    1.00    0.12 
  -2  -3  -4    9.65    0.40 
  -2  -3  -4    9.55    0.26 
  -2  -3  -4    9.31    0.30 
   2   3   4    9.54    0.19 
   2   3   4    9.44    0.26 
   2   3   4    9.40    0.18 
   2   3   4    9.46    0.20 
  -3  -3  -4    0.36    0.09 
  -3  -3  -4    0.13    0.15 
  -3  -3  -4    0.40    0.11 
   3   3   4    0.27    0.09 
   3   3   4    0.39    0.05 
   3   3   4    0.26    0.04 
   3   3   4    0.10    0.09 
  -4  -3  -4    1.80    0.18 
  -4  -3  -4    2.18    0.17 
  -4  -3  -4    2.54    0.26 
   4   3   4    2.23    0.18 
   4   3   4    2.37    0.18 
  -5  -3  -4   -0.09    0.19 
  -5  -3  -4    0.12    0.12 
  -5  -3  -4    0.10    0.15 
   5   3   4    0.08    0.11 
   5   3   4    0.31    0.14 
   5   3   4    0.09    0.05 
   5   3   4    0.12    0.05 
  -6  -3  -4   19.71    0.55 
  -6  -3  -4   18.90    0.51 
  -6  -3  -4   18.86    0.62 
   6   3   4   18.45    0.54 
   6   3   4   18.52    0.32 
  -7  -3  -4    5.05    0.34 
  -7  -3  -4    5.29    0.32 
   7   3   4    5.38    0.35 
   7   3   4    5.74    0.20 
  -8  -3  -4    0.26    0.18 
  -8  -3  -4    0.25    0.17 
   8   3   4   -0.06    0.10 
   8   3   4    0.21    0.19 
  -9  -3  -4    1.87    0.29 
  -9  -3  -4    2.16    0.28 
   9   3   4    2.01    0.18 
   9   3   4    1.67    0.29 
 -10  -3  -4    0.11    0.23 
 -10  -3  -4    0.12    0.21 
  10   3   4    0.36    0.25 
  10   3   4    0.16    0.14 
   8  -4  -4    1.96    0.37 
   8  -4  -4    1.99    0.35 
  -8   4   4    1.82    0.32 
  -8   4   4    2.30    0.35 
   7  -4  -4    3.90    0.41 
   7  -4  -4    4.38    0.35 
   7  -4  -4    3.89    0.37 
  -7   4   4    5.10    0.41 
  -7   4   4    4.67    0.41 
   6  -4  -4   -0.44    0.18 
   6  -4  -4   -0.09    0.23 
   6  -4  -4   -0.03    0.18 
  -6   4   4    0.11    0.18 
  -6   4   4    0.03    0.16 
   5  -4  -4    4.53    0.32 
   5  -4  -4    4.61    0.33 
   5  -4  -4    5.29    0.41 
  -5   4   4    4.42    0.32 
  -5   4   4    3.92    0.32 
   4  -4  -4    5.57    0.32 
   4  -4  -4    5.21    0.30 
   4  -4  -4    6.24    0.41 
  -4   4   4    5.76    0.32 
  -4   4   4    5.93    0.31 
   3  -4  -4    0.08    0.17 
   3  -4  -4    0.23    0.18 
   3  -4  -4    0.16    0.12 
   3  -4  -4    0.11    0.13 
  -3   4   4    0.08    0.14 
  -3   4   4    0.24    0.12 
  -3   4   4    0.39    0.14 
   2  -4  -4    0.09    0.10 
   2  -4  -4    0.40    0.10 
   2  -4  -4    0.37    0.19 
   2  -4  -4    0.33    0.16 
  -2   4   4    0.33    0.12 
  -2   4   4    0.33    0.12 
  -2   4   4    0.33    0.09 
   1  -4  -4   19.55    0.37 
   1  -4  -4   18.78    0.55 
   1  -4  -4   19.37    0.31 
   1  -4  -4   18.85    0.47 
  -1   4   4   19.12    0.39 
  -1   4   4   19.68    0.37 
  -1   4   4   18.67    0.43 
   0  -4  -4    0.11    0.11 
   0  -4  -4    0.32    0.18 
   0   4   4    0.07    0.06 
   0   4   4    0.08    0.08 
   0   4   4    0.18    0.07 
  -1  -4  -4   45.68    0.96 
  -1  -4  -4   44.33    0.77 
   1   4   4   43.20    0.74 
   1   4   4   45.15    0.63 
   1   4   4   43.79    0.61 
   1   4   4   45.27    0.69 
  -2  -4  -4   57.95    1.16 
  -2  -4  -4   56.98    0.92 
   2   4   4   58.00    0.73 
   2   4   4   58.35    0.74 
   2   4   4   58.98    0.88 
  -3  -4  -4    3.65    0.22 
  -3  -4  -4    3.35    0.20 
  -3  -4  -4    3.87    0.34 
   3   4   4    3.43    0.19 
   3   4   4    3.36    0.18 
  -4  -4  -4    3.86    0.26 
  -4  -4  -4    3.95    0.23 
  -4  -4  -4    3.97    0.35 
   4   4   4    3.60    0.22 
   4   4   4    4.16    0.23 
  -5  -4  -4    1.77    0.22 
  -5  -4  -4    2.03    0.20 
  -5  -4  -4    2.34    0.32 
   5   4   4    2.03    0.22 
  -6  -4  -4    9.31    0.39 
  -6  -4  -4    9.56    0.37 
  -6  -4  -4    9.18    0.48 
   6   4   4   10.44    0.39 
   6   4   4    8.84    0.40 
  -7  -4  -4   10.97    0.45 
  -7  -4  -4   12.26    0.45 
   7   4   4   10.95    0.47 
  -8  -4  -4    5.12    0.36 
  -8  -4  -4    4.58    0.36 
   8   4   4    5.51    0.40 
   8   4   4    4.63    0.20 
  -9  -4  -4    0.14    0.20 
  -9  -4  -4   -0.08    0.18 
   9   4   4    0.53    0.12 
   9   4   4    0.13    0.22 
 -10  -4  -4    5.31    0.44 
 -10  -4  -4    5.51    0.49 
  10   4   4    4.71    0.28 
  10   4   4    6.21    0.51 
   8  -5  -4    0.10    0.30 
   8  -5  -4   -0.43    0.26 
  -8   5   4   -0.11    0.24 
  -8   5   4    0.09    0.23 
   7  -5  -4    0.04    0.24 
   7  -5  -4    0.00    0.25 
  -7   5   4    0.09    0.24 
  -7   5   4    0.50    0.23 
   6  -5  -4    1.61    0.25 
   6  -5  -4    1.53    0.31 
  -6   5   4    1.84    0.29 
  -6   5   4    1.94    0.27 
   5  -5  -4   16.30    0.49 
   5  -5  -4   17.05    0.64 
  -5   5   4   17.36    0.59 
  -5   5   4   17.10    0.54 
   4  -5  -4   14.69    0.41 
   4  -5  -4   14.84    0.55 
  -4   5   4   14.85    0.51 
  -4   5   4   14.80    0.46 
   3  -5  -4    0.90    0.24 
   3  -5  -4    0.58    0.21 
   3  -5  -4    1.02    0.15 
  -3   5   4    1.04    0.19 
  -3   5   4    0.69    0.17 
  -3   5   4    1.07    0.16 
   2  -5  -4    0.40    0.22 
   2  -5  -4    0.34    0.10 
   2  -5  -4    0.11    0.17 
  -2   5   4    0.58    0.15 
  -2   5   4    0.52    0.15 
  -2   5   4    0.38    0.10 
   1  -5  -4    0.69    0.17 
   1  -5  -4    0.82    0.10 
   1  -5  -4    0.28    0.22 
  -1   5   4    0.91    0.14 
  -1   5   4    0.63    0.09 
  -1   5   4    0.57    0.13 
   0  -5  -4    0.44    0.20 
   0  -5  -4    0.53    0.06 
   0  -5  -4    0.46    0.15 
   0   5   4    0.50    0.10 
   0   5   4    0.49    0.13 
   0   5   4    0.49    0.08 
  -1  -5  -4    7.06    0.15 
  -1  -5  -4    7.45    0.30 
  -1  -5  -4    7.59    0.43 
   1   5   4    6.56    0.21 
   1   5   4    6.65    0.27 
   1   5   4    7.01    0.21 
   1   5   4    6.52    0.20 
  -2  -5  -4   11.23    0.36 
  -2  -5  -4   11.92    0.26 
  -2  -5  -4   12.07    0.52 
   2   5   4   12.01    0.24 
   2   5   4   11.51    0.36 
   2   5   4   12.32    0.31 
   2   5   4   11.98    0.23 
  -3  -5  -4    3.87    0.35 
  -3  -5  -4    4.12    0.26 
  -3  -5  -4    4.12    0.20 
   3   5   4    4.08    0.10 
   3   5   4    3.86    0.24 
   3   5   4    4.48    0.22 
   3   5   4    4.18    0.10 
  -4  -5  -4    2.64    0.35 
  -4  -5  -4    2.70    0.23 
  -4  -5  -4    2.26    0.23 
   4   5   4    2.75    0.21 
  -5  -5  -4   12.16    0.42 
  -5  -5  -4   11.29    0.42 
  -5  -5  -4   11.86    0.56 
   5   5   4   11.09    0.40 
   5   5   4   11.11    0.37 
  -6  -5  -4    2.78    0.26 
  -6  -5  -4    3.60    0.38 
  -6  -5  -4    2.53    0.26 
   6   5   4    3.29    0.29 
  -7  -5  -4   12.28    0.45 
  -7  -5  -4   11.81    0.61 
  -7  -5  -4   11.73    0.47 
   7   5   4   11.93    0.49 
  -8  -5  -4    0.26    0.18 
  -8  -5  -4    0.23    0.18 
   8   5   4    0.36    0.20 
  -9  -5  -4    0.08    0.19 
  -9  -5  -4    0.19    0.20 
   9   5   4    0.10    0.10 
   9   5   4    0.03    0.21 
   7  -6  -4    3.84    0.42 
  -7   6   4    4.86    0.48 
   6  -6  -4    0.73    0.28 
   6  -6  -4    0.27    0.22 
  -6   6   4    0.84    0.22 
  -6   6   4    0.43    0.24 
   5  -6  -4   -0.11    0.23 
   5  -6  -4    0.22    0.17 
  -5   6   4    0.26    0.20 
  -5   6   4    0.13    0.15 
   4  -6  -4    3.08    0.24 
   4  -6  -4    3.03    0.33 
  -4   6   4    2.97    0.25 
  -4   6   4    3.49    0.32 
   3  -6  -4    0.65    0.25 
   3  -6  -4    1.03    0.16 
   3  -6  -4    0.94    0.23 
  -3   6   4    1.12    0.20 
  -3   6   4    0.87    0.15 
  -3   6   4    1.11    0.21 
   2  -6  -4    2.03    0.17 
   2  -6  -4    1.87    0.25 
   2  -6  -4    2.31    0.33 
  -2   6   4    2.38    0.24 
  -2   6   4    2.12    0.18 
  -2   6   4    2.39    0.24 
   1  -6  -4    0.02    0.18 
   1  -6  -4    0.15    0.25 
   1  -6  -4    0.06    0.09 
  -1   6   4   -0.02    0.13 
  -1   6   4   -0.08    0.13 
  -1   6   4    0.05    0.08 
   0  -6  -4   11.78    0.25 
   0  -6  -4   12.04    0.56 
   0  -6  -4   12.09    0.44 
   0   6   4   11.99    0.38 
   0   6   4   12.05    0.34 
   0   6   4   12.48    0.27 
  -1  -6  -4    0.07    0.15 
  -1  -6  -4    0.14    0.24 
  -1  -6  -4    0.25    0.06 
   1   6   4    0.31    0.13 
   1   6   4    0.43    0.10 
   1   6   4    0.17    0.08 
  -2  -6  -4   13.52    0.30 
  -2  -6  -4   13.41    0.61 
  -2  -6  -4   13.37    0.44 
   2   6   4   14.12    0.33 
   2   6   4   13.28    0.42 
   2   6   4   13.51    0.29 
  -3  -6  -4    5.83    0.34 
  -3  -6  -4    5.75    0.24 
  -3  -6  -4    5.55    0.48 
   3   6   4    5.75    0.16 
   3   6   4    6.36    0.26 
   3   6   4    5.91    0.30 
   3   6   4    5.91    0.16 
  -4  -6  -4    2.48    0.36 
  -4  -6  -4    2.46    0.25 
  -4  -6  -4    2.19    0.19 
   4   6   4    2.32    0.22 
   4   6   4    2.37    0.19 
  -5  -6  -4    0.97    0.29 
  -5  -6  -4    1.15    0.21 
  -5  -6  -4    0.65    0.16 
   5   6   4    0.75    0.15 
  -6  -6  -4    6.57    0.40 
  -6  -6  -4    5.97    0.49 
  -6  -6  -4    7.05    0.38 
   6   6   4    6.26    0.32 
   6   6   4    7.62    0.37 
  -7  -6  -4    4.53    0.35 
  -7  -6  -4    4.29    0.45 
   7   6   4    4.59    0.35 
   7   6   4    4.19    0.32 
  -8  -6  -4    3.92    0.35 
   8   6   4    3.08    0.33 
   9   6   4    0.04    0.22 
   7  -7  -4    2.47    0.39 
  -7   7   4    1.80    0.35 
   6  -7  -4    0.03    0.27 
  -6   7   4   -0.04    0.24 
   5  -7  -4    2.18    0.33 
  -5   7   4    1.72    0.30 
   4  -7  -4    8.08    0.51 
  -4   7   4    7.23    0.43 
   3  -7  -4   10.05    0.49 
  -3   7   4    9.69    0.47 
  -3   7   4    9.52    0.49 
  -3   7   4    9.84    0.44 
   2  -7  -4    3.08    0.37 
   2  -7  -4    2.91    0.31 
  -2   7   4    3.04    0.29 
  -2   7   4    3.17    0.29 
   1  -7  -4    1.15    0.23 
   1  -7  -4    1.24    0.31 
  -1   7   4    1.18    0.19 
  -1   7   4    1.21    0.19 
   0  -7  -4    3.00    0.38 
   0  -7  -4    3.85    0.33 
   0   7   4    3.73    0.28 
   0   7   4    3.53    0.25 
  -1  -7  -4    2.29    0.36 
  -1  -7  -4    2.77    0.27 
   1   7   4    2.83    0.22 
   1   7   4    2.41    0.23 
  -2  -7  -4    0.68    0.30 
  -2  -7  -4    0.77    0.19 
   2   7   4    1.14    0.18 
   2   7   4    0.67    0.11 
  -3  -7  -4    1.11    0.22 
  -3  -7  -4    1.11    0.32 
   3   7   4    0.87    0.17 
   3   7   4    1.11    0.11 
  -4  -7  -4    0.80    0.21 
  -4  -7  -4    0.86    0.32 
   4   7   4    0.37    0.15 
   4   7   4    0.75    0.08 
  -5  -7  -4    4.76    0.37 
  -5  -7  -4    4.87    0.49 
   5   7   4    4.88    0.27 
   5   7   4    4.57    0.31 
  -6  -7  -4   13.41    0.71 
  -6  -7  -4   12.73    0.54 
   6   7   4   12.87    0.43 
   6   7   4   12.81    0.47 
  -7  -7  -4    1.34    0.35 
   7   7   4    1.44    0.22 
   7   7   4    1.00    0.21 
   8   7   4    0.07    0.18 
   6  -8  -4    0.53    0.31 
  -6   8   4    0.92    0.31 
   5  -8  -4   -0.06    0.27 
  -5   8   4   -0.04    0.21 
   4  -8  -4   -0.17    0.24 
  -4   8   4    0.01    0.20 
   3  -8  -4    0.80    0.26 
  -3   8   4    1.02    0.22 
  -3   8   4    0.60    0.23 
   2  -8  -4    3.73    0.36 
  -2   8   4    3.17    0.39 
  -2   8   4    3.55    0.34 
  -2   8   4    3.24    0.31 
   1  -8  -4    2.55    0.40 
   1  -8  -4    2.47    0.31 
  -1   8   4    2.49    0.27 
  -1   8   4    2.05    0.25 
   0  -8  -4    4.85    0.48 
   0  -8  -4    4.97    0.38 
   0   8   4    5.71    0.35 
   0   8   4    5.41    0.35 
  -1  -8  -4    0.43    0.20 
  -1  -8  -4    0.75    0.32 
   1   8   4    0.63    0.16 
   1   8   4    0.80    0.18 
  -2  -8  -4    0.11    0.19 
  -2  -8  -4   -0.09    0.28 
   2   8   4    0.19    0.15 
   2   8   4    0.26    0.12 
  -3  -8  -4    3.46    0.34 
  -3  -8  -4    3.84    0.46 
   3   8   4    3.39    0.28 
   3   8   4    3.32    0.21 
  -4  -8  -4   -0.14    0.28 
  -4  -8  -4    0.18    0.21 
   4   8   4    0.04    0.14 
   4   8   4    0.09    0.08 
  -5  -8  -4   17.29    0.79 
  -5  -8  -4   16.09    0.62 
   5   8   4   15.82    0.29 
   5   8   4   16.34    0.53 
  -6  -8  -4    8.46    0.66 
  -6  -8  -4    9.61    0.54 
   6   8   4    8.93    0.42 
  -7  -8  -4    5.98    0.50 
   7   8   4    5.56    0.57 
   7   8   4    5.28    0.38 
   5  -9  -4    0.35    0.29 
  -5   9   4    0.17    0.26 
   4  -9  -4    1.08    0.32 
  -4   9   4    0.57    0.26 
   3  -9  -4    3.75    0.42 
  -3   9   4    3.65    0.38 
   2  -9  -4    0.12    0.25 
  -2   9   4   -0.14    0.22 
  -2   9   4    0.16    0.25 
  -2   9   4   -0.03    0.16 
   1  -9  -4    7.08    0.49 
  -1   9   4    7.22    0.46 
  -1   9   4    7.57    0.56 
  -1   9   4    7.62    0.44 
   0  -9  -4    3.90    0.39 
   0   9   4    4.13    0.34 
   0   9   4    4.19    0.33 
   0   9   4    3.64    0.45 
  -1  -9  -4    1.98    0.31 
   1   9   4    1.73    0.25 
   1   9   4    2.19    0.25 
  -2  -9  -4    0.64    0.26 
   2   9   4    0.90    0.20 
   2   9   4    0.66    0.17 
  -3  -9  -4    0.22    0.31 
  -3  -9  -4    0.59    0.25 
   3   9   4    0.42    0.14 
   3   9   4    0.65    0.19 
  -4  -9  -4    4.58    0.43 
   4   9   4    4.01    0.33 
   4   9   4    3.98    0.24 
  -5  -9  -4    3.89    0.42 
   5   9   4    3.47    0.32 
   5   9   4    4.10    0.21 
  -6  -9  -4    6.14    0.51 
   6   9   4    6.67    0.42 
   6   9   4    7.16    0.67 
   6   9   4    7.03    0.22 
  -7  -9  -4    5.99    0.53 
   7   9   4    5.74    0.60 
   3 -10  -4   -0.14    0.29 
  -3  10   4   -0.07    0.22 
   2 -10  -4    1.02    0.34 
  -2  10   4    1.05    0.35 
  -2  10   4    1.00    0.27 
  -2  10   4    0.97    0.31 
   1 -10  -4    8.40    0.55 
  -1  10   4    7.77    0.49 
  -1  10   4    7.39    0.53 
  -1  10   4    7.74    0.64 
   0 -10  -4    5.11    0.45 
   0  10   4    4.32    0.52 
   0  10   4    4.83    0.40 
   0  10   4    5.14    0.42 
  -1 -10  -4    5.85    0.50 
   1  10   4    5.95    0.62 
   1  10   4    5.88    0.43 
   1  10   4    6.18    0.42 
  -2 -10  -4    0.02    0.25 
   2  10   4   -0.05    0.32 
   2  10   4    0.23    0.20 
   2  10   4    0.17    0.18 
  -3 -10  -4    0.79    0.31 
   3  10   4    1.00    0.21 
   3  10   4    0.82    0.22 
   3  10   4    1.11    0.39 
  -4 -10  -4    0.24    0.26 
   4  10   4    0.16    0.34 
   4  10   4    0.02    0.16 
   4  10   4    0.11    0.17 
  -5 -10  -4    2.02    0.38 
   5  10   4    1.70    0.27 
   5  10   4    1.36    0.43 
   5  10   4    1.90    0.21 
  -6 -10  -4   17.45    0.78 
   6  10   4   16.31    0.43 
   6  10   4   16.35    0.91 
   1 -11  -4    6.15    0.55 
  -1  11   4    6.10    0.53 
  -1  11   4    5.89    0.47 
  -1  11   4    7.07    0.69 
   0 -11  -4   23.89    0.89 
   0  11   4   25.11    0.82 
   0  11   4   24.03    0.81 
   0  11   4   24.47    1.04 
  -1 -11  -4   10.23    0.65 
   1  11   4    8.16    0.50 
   1  11   4    8.37    0.54 
   1  11   4    7.69    0.71 
  -2 -11  -4    0.45    0.31 
   2  11   4    0.26    0.37 
   2  11   4   -0.09    0.21 
   2  11   4    0.00    0.20 
  -3 -11  -4    0.22    0.32 
   3  11   4    0.24    0.23 
   3  11   4   -0.15    0.33 
   3  11   4    0.15    0.20 
  -4 -11  -4    0.82    0.38 
   4  11   4    1.60    0.29 
   4  11   4    2.18    0.52 
   4  11   4    1.09    0.25 
   2   9  -5    3.03    0.42 
   2   9  -5    2.85    0.56 
  -2  -9   5    3.00    0.46 
  -2  -9   5    3.95    0.39 
   1   9  -5   -0.05    0.30 
   1   9  -5    0.82    0.43 
  -1  -9   5    0.83    0.36 
  -1  -9   5    1.04    0.26 
   0   9  -5    0.11    0.31 
   0   9  -5   -0.28    0.36 
   0  -9   5    0.01    0.20 
   0  -9   5    0.25    0.30 
  -1   9  -5    2.52    0.49 
   1  -9   5    2.17    0.33 
   5   8  -5    1.64    0.46 
   5   8  -5    1.94    0.33 
   5   8  -5    2.35    0.48 
  -5  -8   5    2.12    0.33 
   4   8  -5    0.29    0.35 
   4   8  -5    0.41    0.26 
   4   8  -5    0.37    0.37 
  -4  -8   5    0.32    0.23 
   3   8  -5    1.34    0.31 
   3   8  -5    0.96    0.41 
  -3  -8   5    1.96    0.40 
  -3  -8   5    1.30    0.27 
   2   8  -5    1.07    0.42 
   2   8  -5    1.13    0.31 
  -2  -8   5    1.13    0.25 
  -2  -8   5    1.34    0.37 
   1   8  -5    0.59    0.37 
   1   8  -5    1.05    0.31 
  -1  -8   5    0.52    0.22 
  -1  -8   5    0.38    0.31 
   0   8  -5    1.87    0.36 
   0   8  -5    1.68    0.43 
   0  -8   5    1.24    0.26 
   0  -8   5    1.66    0.34 
  -1   8  -5    4.64    0.58 
  -1   8  -5    4.71    0.50 
   1  -8   5    4.84    0.49 
   1  -8   5    4.44    0.39 
  -2   8  -5    0.66    0.38 
   2  -8   5    0.35    0.23 
  -3   8  -5    1.01    0.40 
   3  -8   5    1.49    0.31 
   6   7  -5    0.46    0.24 
   6   7  -5   -0.11    0.38 
   6   7  -5   -0.03    0.33 
  -6  -7   5   -0.01    0.23 
   5   7  -5    1.68    0.43 
   5   7  -5    1.37    0.41 
   5   7  -5    2.69    0.33 
  -5  -7   5    2.48    0.34 
   4   7  -5    1.59    0.30 
   4   7  -5    1.61    0.40 
   4   7  -5    1.41    0.40 
  -4  -7   5    1.29    0.26 
   3   7  -5    0.17    0.23 
   3   7  -5    0.03    0.31 
  -3  -7   5    0.39    0.19 
  -3  -7   5   -0.19    0.25 
   2   7  -5   -0.11    0.28 
   2   7  -5    0.23    0.24 
  -2  -7   5    0.75    0.28 
  -2  -7   5    0.41    0.19 
   1   7  -5    0.35    0.31 
   1   7  -5    0.47    0.25 
  -1  -7   5    0.65    0.21 
  -1  -7   5    0.31    0.25 
   0   7  -5   -0.01    0.28 
   0   7  -5   -0.11    0.24 
   0  -7   5    0.07    0.23 
   0  -7   5   -0.16    0.17 
  -1   7  -5    2.46    0.42 
  -1   7  -5    3.22    0.38 
   1  -7   5    2.35    0.34 
   1  -7   5    1.86    0.27 
  -2   7  -5    2.81    0.32 
  -2   7  -5    2.91    0.44 
   2  -7   5    3.11    0.33 
  -3   7  -5   -0.15    0.30 
  -3   7  -5   -0.15    0.20 
   3  -7   5    0.03    0.20 
  -4   7  -5    5.45    0.49 
  -4   7  -5    4.80    0.53 
   4  -7   5    5.42    0.44 
  -5   7  -5    1.98    0.38 
   5  -7   5    2.26    0.36 
   7   6  -5    8.66    0.48 
   7   6  -5    9.18    0.74 
  -7  -6   5   10.25    0.62 
   6   6  -5    1.91    0.40 
   6   6  -5    1.94    0.44 
   6   6  -5    2.27    0.29 
  -6  -6   5    1.92    0.32 
   5   6  -5    2.56    0.29 
   5   6  -5    3.05    0.47 
   5   6  -5    2.19    0.41 
  -5  -6   5    2.96    0.32 
   4   6  -5    6.66    0.42 
   4   6  -5    7.52    0.57 
   4   6  -5    6.02    0.53 
  -4  -6   5    6.89    0.40 
   3   6  -5    0.87    0.32 
   3   6  -5    1.90    0.26 
  -3  -6   5    1.83    0.24 
   2   6  -5    1.51    0.36 
   2   6  -5    1.72    0.27 
  -2  -6   5    2.81    0.36 
  -2  -6   5    2.09    0.25 
   1   6  -5    0.35    0.22 
   1   6  -5   -0.01    0.24 
  -1  -6   5    0.19    0.23 
  -1  -6   5    0.18    0.15 
   0   6  -5    0.04    0.22 
   0   6  -5    0.07    0.27 
   0  -6   5    0.34    0.16 
   0  -6   5    0.12    0.21 
  -1   6  -5   20.66    0.67 
  -1   6  -5   20.36    0.60 
  -1   6  -5   20.09    0.80 
   1  -6   5   20.46    0.66 
   1  -6   5   20.78    0.60 
  -2   6  -5    9.65    0.46 
  -2   6  -5    8.42    0.57 
   2  -6   5    9.72    0.45 
   2  -6   5    9.08    0.47 
  -3   6  -5    2.35    0.39 
  -3   6  -5    2.58    0.32 
   3  -6   5    2.81    0.31 
  -4   6  -5    6.00    0.51 
  -4   6  -5    5.91    0.48 
   4  -6   5    5.96    0.44 
  -5   6  -5    0.58    0.28 
   5  -6   5    0.37    0.27 
  -6   6  -5    0.75    0.30 
   6  -6   5    1.08    0.31 
   8   5  -5    4.70    0.38 
   8   5  -5    3.02    0.54 
  -8  -5   5    3.78    0.44 
   7   5  -5    0.29    0.36 
   7   5  -5    0.64    0.22 
  -7  -5   5    0.08    0.24 
   6   5  -5    2.66    0.43 
   6   5  -5    1.92    0.25 
  -6  -5   5    2.12    0.31 
   5   5  -5    5.07    0.49 
   5   5  -5    5.45    0.50 
   5   5  -5    3.91    0.31 
  -5  -5   5    4.62    0.36 
   4   5  -5   12.79    0.66 
   4   5  -5   12.20    0.47 
   4   5  -5   12.51    0.63 
  -4  -5   5   12.06    0.46 
   3   5  -5    0.63    0.27 
   3   5  -5    1.45    0.30 
   3   5  -5    1.33    0.23 
  -3  -5   5    1.03    0.19 
   2   5  -5    4.53    0.44 
   2   5  -5    5.69    0.37 
  -2  -5   5    5.38    0.41 
  -2  -5   5    5.66    0.32 
   1   5  -5    9.61    0.44 
   1   5  -5   10.08    0.56 
  -1  -5   5   10.33    0.48 
  -1  -5   5   10.55    0.39 
   0   5  -5    0.62    0.21 
   0   5  -5    0.38    0.15 
   0   5  -5    0.21    0.23 
   0  -5   5    0.40    0.20 
   0  -5   5    0.50    0.16 
  -1   5  -5    3.87    0.29 
  -1   5  -5    3.60    0.39 
  -1   5  -5    3.89    0.33 
   1  -5   5    3.90    0.30 
   1  -5   5    3.95    0.34 
  -2   5  -5    2.20    0.25 
  -2   5  -5    2.30    0.36 
  -2   5  -5    2.95    0.32 
   2  -5   5    2.88    0.27 
   2  -5   5    2.53    0.27 
  -3   5  -5    0.69    0.21 
  -3   5  -5    0.75    0.27 
   3  -5   5    0.42    0.20 
  -4   5  -5    0.54    0.27 
  -4   5  -5    1.25    0.26 
   4  -5   5    0.51    0.22 
  -5   5  -5    0.87    0.28 
   5  -5   5    1.35    0.27 
  -6   5  -5    0.50    0.26 
   6  -5   5    0.33    0.26 
  -7   5  -5    0.37    0.28 
   7  -5   5    0.32    0.30 
   8   4  -5    1.07    0.42 
   8   4  -5    1.50    0.28 
  -8  -4   5    1.78    0.33 
  -8  -4   5    1.76    0.35 
   7   4  -5    1.07    0.24 
   7   4  -5    0.62    0.36 
  -7  -4   5    0.80    0.26 
  -7  -4   5    1.05    0.29 
   6   4  -5    1.41    0.22 
   6   4  -5    1.91    0.38 
  -6  -4   5    1.71    0.27 
  -6  -4   5    1.35    0.25 
   5   4  -5   -0.46    0.21 
   5   4  -5    0.56    0.28 
   5   4  -5    0.12    0.16 
  -5  -4   5    0.12    0.17 
  -5  -4   5    0.03    0.15 
   4   4  -5   13.69    0.63 
   4   4  -5   13.54    0.60 
   4   4  -5   12.68    0.45 
  -4  -4   5   13.55    0.45 
  -4  -4   5   14.18    0.48 
   3   4  -5    0.47    0.24 
   3   4  -5    0.46    0.24 
   3   4  -5    0.10    0.17 
  -3  -4   5    0.24    0.13 
  -3  -4   5    0.41    0.14 
   2   4  -5    4.56    0.35 
   2   4  -5    3.97    0.38 
  -2  -4   5    4.47    0.27 
  -2  -4   5    4.61    0.23 
   1   4  -5    4.26    0.30 
   1   4  -5    4.17    0.40 
  -1  -4   5    4.07    0.26 
  -1  -4   5    3.79    0.33 
  -1  -4   5    4.15    0.19 
   0   4  -5    7.85    0.49 
   0   4  -5    8.22    0.40 
   0   4  -5    8.25    0.32 
   0  -4   5    7.65    0.33 
   0  -4   5    7.92    0.39 
   0  -4   5    7.35    0.23 
  -1   4  -5    0.10    0.18 
  -1   4  -5    0.08    0.23 
  -1   4  -5    0.45    0.15 
   1  -4   5    0.38    0.11 
   1  -4   5    0.05    0.15 
   1  -4   5    0.44    0.18 
  -2   4  -5   10.85    0.54 
  -2   4  -5   11.15    0.46 
  -2   4  -5   10.35    0.42 
   2  -4   5   10.67    0.31 
   2  -4   5    9.42    0.40 
   2  -4   5   10.30    0.39 
  -3   4  -5    1.56    0.23 
  -3   4  -5    0.81    0.25 
   3  -4   5    0.61    0.14 
   3  -4   5    1.01    0.20 
   3  -4   5    0.42    0.19 
  -4   4  -5    0.26    0.22 
  -4   4  -5    0.05    0.18 
   4  -4   5    0.23    0.14 
   4  -4   5    0.24    0.19 
  -5   4  -5    0.91    0.25 
  -5   4  -5    0.50    0.25 
   5  -4   5    0.65    0.23 
  -6   4  -5    0.49    0.24 
   6  -4   5    0.75    0.26 
  -7   4  -5    0.63    0.29 
   7  -4   5    0.64    0.30 
  -8   4  -5   -0.07    0.25 
   8  -4   5    0.22    0.30 
   8   3  -5    3.53    0.34 
   8   3  -5    2.99    0.48 
  -8  -3   5    2.26    0.35 
  -8  -3   5    2.61    0.38 
   7   3  -5    8.10    0.63 
   7   3  -5    8.61    0.44 
  -7  -3   5    7.81    0.48 
  -7  -3   5    8.41    0.51 
   6   3  -5    0.70    0.31 
   6   3  -5    0.82    0.20 
  -6  -3   5    0.78    0.21 
  -6  -3   5    0.68    0.21 
   5   3  -5   -0.17    0.21 
   5   3  -5    0.17    0.16 
   5   3  -5    0.22    0.26 
  -5  -3   5    0.07    0.15 
  -5  -3   5    0.28    0.16 
   4   3  -5    7.47    0.48 
   4   3  -5    8.03    0.47 
   4   3  -5    7.77    0.35 
  -4  -3   5    8.16    0.35 
  -4  -3   5    8.33    0.36 
   3   3  -5   25.01    0.76 
   3   3  -5   25.25    0.75 
   3   3  -5   24.97    0.58 
  -3  -3   5   26.28    0.56 
  -3  -3   5   24.22    0.57 
   2   3  -5    9.41    0.48 
   2   3  -5    9.06    0.37 
   2   3  -5    9.16    0.45 
  -2  -3   5   10.19    0.34 
  -2  -3   5    9.82    0.30 
   1   3  -5    1.06    0.11 
   1   3  -5    0.96    0.19 
   1   3  -5    1.56    0.27 
  -1  -3   5    0.81    0.14 
  -1  -3   5    1.12    0.12 
   0   3  -5   25.16    0.74 
   0   3  -5   27.02    0.60 
   0   3  -5   27.13    0.52 
   0  -3   5   26.40    0.62 
   0  -3   5   25.83    0.47 
   0  -3   5   25.48    0.56 
  -1   3  -5    5.80    0.34 
  -1   3  -5    6.31    0.29 
  -1   3  -5    5.86    0.41 
   1  -3   5    5.38    0.28 
   1  -3   5    5.75    0.23 
   1  -3   5    5.70    0.24 
   1  -3   5    5.72    0.29 
  -2   3  -5    2.88    0.33 
  -2   3  -5    2.42    0.23 
  -2   3  -5    2.55    0.25 
   2  -3   5    2.54    0.19 
   2  -3   5    2.38    0.21 
   2  -3   5    2.23    0.18 
   2  -3   5    2.27    0.23 
  -3   3  -5    0.25    0.18 
  -3   3  -5    0.05    0.21 
   3  -3   5    0.30    0.14 
   3  -3   5    0.05    0.13 
   3  -3   5    0.02    0.13 
   3  -3   5    0.17    0.18 
  -4   3  -5    0.46    0.19 
  -4   3  -5    0.78    0.23 
   4  -3   5    0.21    0.17 
   4  -3   5    0.62    0.15 
   4  -3   5    0.42    0.15 
  -5   3  -5    0.28    0.20 
  -5   3  -5    0.22    0.21 
   5  -3   5    0.24    0.14 
   5  -3   5    0.18    0.15 
   5  -3   5    0.19    0.20 
  -6   3  -5    0.36    0.23 
   6  -3   5    0.48    0.21 
   6  -3   5    0.87    0.18 
   6  -3   5    0.94    0.19 
  -7   3  -5    0.20    0.24 
   7  -3   5    0.00    0.20 
   7  -3   5    0.11    0.18 
   7  -3   5    0.07    0.17 
  -8   3  -5    0.62    0.29 
   8  -3   5    0.07    0.24 
   8  -3   5   -0.09    0.20 
   8  -3   5    0.31    0.20 
   9   2  -5    1.11    0.27 
   9   2  -5    1.13    0.41 
  -9  -2   5    1.45    0.35 
   8   2  -5    0.13    0.33 
   8   2  -5    0.12    0.20 
  -8  -2   5    0.31    0.25 
  -8  -2   5    0.32    0.24 
   7   2  -5    4.58    0.48 
   7   2  -5    5.25    0.37 
  -7  -2   5    5.10    0.41 
  -7  -2   5    5.82    0.44 
   6   2  -5    1.97    0.35 
   6   2  -5    1.63    0.22 
  -6  -2   5    1.83    0.26 
  -6  -2   5    1.88    0.27 
   5   2  -5    0.69    0.22 
   5   2  -5    0.66    0.17 
   5   2  -5    0.86    0.26 
  -5  -2   5    0.71    0.19 
  -5  -2   5    0.76    0.18 
   4   2  -5    3.20    0.32 
   4   2  -5    2.52    0.32 
   4   2  -5    3.36    0.25 
  -4  -2   5    3.26    0.26 
  -4  -2   5    3.27    0.26 
   3   2  -5    0.02    0.19 
   3   2  -5    0.22    0.15 
   3   2  -5    0.12    0.19 
  -3  -2   5    0.26    0.12 
  -3  -2   5    0.34    0.12 
   2   2  -5   29.59    0.71 
   2   2  -5   28.53    0.59 
   2   2  -5   29.33    0.75 
  -2  -2   5   29.99    0.54 
  -2  -2   5   28.90    0.58 
   1   2  -5   10.04    0.34 
   1   2  -5    9.80    0.43 
   1   2  -5   10.24    0.38 
   1   2  -5    9.94    0.21 
  -1  -2   5    9.96    0.27 
  -1  -2   5   10.24    0.31 
  -1  -2   5   10.22    0.25 
   0   2  -5   15.35    0.52 
   0   2  -5   15.61    0.34 
   0   2  -5   14.59    0.41 
   0   2  -5   14.92    0.43 
   0  -2   5   15.09    0.33 
   0  -2   5   15.42    0.38 
   0  -2   5   15.22    0.33 
  -1   2  -5   29.89    0.75 
  -1   2  -5   29.50    0.61 
  -1   2  -5   29.99    0.58 
   1  -2   5   29.41    0.58 
   1  -2   5   29.64    0.51 
   1  -2   5   29.57    0.53 
   1  -2   5   29.42    0.58 
  -2   2  -5    2.10    0.20 
  -2   2  -5    2.33    0.28 
  -2   2  -5    2.40    0.21 
   2  -2   5    2.04    0.17 
   2  -2   5    2.08    0.16 
   2  -2   5    2.13    0.17 
   2  -2   5    2.10    0.20 
  -3   2  -5    4.58    0.31 
  -3   2  -5    4.76    0.38 
  -3   2  -5    5.54    0.35 
   3  -2   5    4.96    0.24 
   3  -2   5    4.96    0.20 
   3  -2   5    4.83    0.29 
   3  -2   5    5.17    0.26 
  -4   2  -5   -0.10    0.16 
  -4   2  -5    0.20    0.20 
   4  -2   5   -0.27    0.16 
   4  -2   5    0.17    0.13 
   4  -2   5   -0.21    0.13 
  -5   2  -5   20.71    0.64 
  -5   2  -5   21.21    0.65 
   5  -2   5   20.87    0.58 
   5  -2   5   20.59    0.48 
   5  -2   5   21.16    0.53 
  -6   2  -5   -0.14    0.18 
   6  -2   5    0.10    0.15 
   6  -2   5   -0.03    0.14 
   6  -2   5    0.32    0.19 
  -7   2  -5    5.20    0.46 
   7  -2   5    3.92    0.33 
   7  -2   5    4.85    0.36 
   7  -2   5    5.19    0.32 
  -8   2  -5    0.20    0.24 
   8  -2   5   -0.05    0.20 
   8  -2   5    0.07    0.18 
   8  -2   5    0.21    0.21 
  -9   2  -5    1.34    0.32 
   9  -2   5    1.34    0.25 
   9  -2   5    1.02    0.29 
   9  -2   5    1.27    0.28 
   9   1  -5    0.71    0.25 
   9   1  -5    0.62    0.37 
   9   1  -5    0.24    0.37 
  -9  -1   5    0.28    0.28 
   8   1  -5   -0.35    0.18 
   8   1  -5   -0.02    0.32 
  -8  -1   5    0.11    0.24 
   7   1  -5    0.16    0.18 
   7   1  -5    0.17    0.29 
  -7  -1   5    0.73    0.24 
  -7  -1   5    0.68    0.23 
   6   1  -5    0.41    0.16 
   6   1  -5    0.04    0.25 
  -6  -1   5    0.20    0.18 
  -6  -1   5    0.12    0.17 
   5   1  -5   13.52    0.59 
   5   1  -5   13.75    0.48 
   5   1  -5   13.00    0.43 
  -5  -1   5   13.36    0.48 
  -5  -1   5   13.33    0.48 
   4   1  -5   12.15    0.46 
   4   1  -5   11.75    0.53 
   4   1  -5   12.20    0.39 
  -4  -1   5   11.70    0.40 
  -4  -1   5   11.96    0.41 
   3   1  -5   15.46    0.41 
   3   1  -5   15.10    0.49 
   3   1  -5   13.88    0.51 
  -3  -1   5   14.74    0.39 
  -3  -1   5   14.56    0.40 
   2   1  -5   36.84    0.81 
   2   1  -5   36.40    0.65 
   2   1  -5   36.53    0.78 
  -2  -1   5   35.89    0.64 
  -2  -1   5   36.94    0.63 
  -2  -1   5   37.83    0.56 
   1   1  -5    1.55    0.09 
   1   1  -5    1.68    0.23 
   1   1  -5    1.31    0.15 
   1   1  -5    1.33    0.17 
  -1  -1   5    1.49    0.13 
  -1  -1   5    1.53    0.12 
  -1  -1   5    1.66    0.14 
   0   1  -5    5.86    0.19 
   0   1  -5    5.93    0.34 
   0   1  -5    5.86    0.26 
   0   1  -5    5.78    0.26 
   0  -1   5    5.93    0.21 
   0  -1   5    5.83    0.22 
   0  -1   5    5.99    0.20 
  -1   1  -5    2.05    0.16 
  -1   1  -5    1.63    0.15 
  -1   1  -5    1.78    0.23 
  -1   1  -5    2.30    0.18 
   1  -1   5    1.82    0.15 
   1  -1   5    1.90    0.14 
   1  -1   5    2.01    0.16 
  -2   1  -5   13.30    0.47 
  -2   1  -5   14.15    0.30 
  -2   1  -5   13.58    0.38 
  -2   1  -5   14.44    0.38 
   2  -1   5   13.57    0.37 
   2  -1   5   13.62    0.35 
   2  -1   5   13.33    0.32 
  -3   1  -5    8.03    0.30 
  -3   1  -5    7.67    0.35 
  -3   1  -5    7.32    0.38 
   3  -1   5    8.23    0.31 
   3  -1   5    7.74    0.26 
   3  -1   5    7.79    0.28 
  -4   1  -5    1.21    0.21 
  -4   1  -5    1.16    0.23 
   4  -1   5    1.42    0.15 
   4  -1   5    1.23    0.19 
   4  -1   5    1.13    0.16 
  -5   1  -5   12.66    0.50 
  -5   1  -5   12.01    0.49 
   5  -1   5   12.84    0.42 
   5  -1   5   12.25    0.44 
   5  -1   5   12.38    0.36 
  -6   1  -5   -0.24    0.17 
   6  -1   5   -0.07    0.12 
   6  -1   5    0.23    0.17 
   6  -1   5    0.06    0.15 
  -7   1  -5    0.94    0.26 
   7  -1   5    0.58    0.16 
   7  -1   5    0.67    0.21 
  -8   1  -5    0.71    0.26 
   8  -1   5    0.63    0.18 
   8  -1   5    0.80    0.23 
  -9   1  -5    0.93    0.30 
   9  -1   5    0.71    0.21 
   9  -1   5    0.74    0.26 
   9   0  -5    1.74    0.43 
   9   0  -5    1.46    0.29 
   9   0  -5    2.21    0.43 
  -9   0   5    2.13    0.38 
   8   0  -5    4.63    0.50 
   8   0  -5    4.37    0.36 
   8   0  -5    5.43    0.50 
  -8   0   5    4.25    0.43 
   7   0  -5    0.13    0.30 
   7   0  -5    0.07    0.18 
  -7   0   5   -0.03    0.19 
   6   0  -5    7.51    0.38 
   6   0  -5    7.92    0.52 
  -6   0   5    7.62    0.43 
  -6   0   5    7.46    0.40 
   5   0  -5    5.71    0.45 
   5   0  -5    6.14    0.32 
  -5   0   5    5.55    0.34 
  -5   0   5    5.40    0.33 
   4   0  -5    1.90    0.21 
   4   0  -5    1.79    0.28 
   4   0  -5    1.96    0.24 
  -4   0   5    1.95    0.21 
  -4   0   5    1.30    0.18 
   3   0  -5    3.99    0.32 
   3   0  -5    3.83    0.26 
   3   0  -5    3.83    0.29 
  -3   0   5    3.28    0.21 
  -3   0   5    3.84    0.22 
  -3   0   5    3.69    0.14 
   2   0  -5    1.08    0.18 
   2   0  -5    1.08    0.19 
   2   0  -5    1.10    0.15 
  -2   0   5    0.88    0.11 
  -2   0   5    1.12    0.12 
  -2   0   5    0.86    0.11 
  -2   0   5    0.96    0.08 
   1   0  -5    2.83    0.25 
   1   0  -5    3.08    0.24 
   1   0  -5    3.01    0.21 
  -1   0   5    2.64    0.14 
  -1   0   5    2.67    0.15 
  -1   0   5    3.06    0.17 
  -1   0   5    2.89    0.11 
   0   0  -5  117.77    1.86 
   0   0  -5  117.51    1.52 
   0   0  -5  116.17    1.53 
   0   0  -5  117.51    1.66 
   0   0   5  117.19    1.56 
   0   0   5  115.61    1.46 
   0   0   5  117.14    1.57 
  -1   0  -5    6.09    0.33 
  -1   0  -5    6.44    0.21 
  -1   0  -5    6.45    0.23 
  -1   0  -5    6.72    0.24 
   1   0   5    6.58    0.21 
   1   0   5    6.34    0.21 
   1   0   5    6.30    0.23 
  -2   0  -5   11.17    0.42 
  -2   0  -5   10.77    0.33 
  -2   0  -5   11.68    0.30 
  -2   0  -5   11.41    0.21 
   2   0   5   11.32    0.30 
   2   0   5   11.42    0.28 
   2   0   5   10.94    0.31 
  -3   0  -5    1.08    0.20 
  -3   0  -5    1.38    0.18 
   3   0   5    1.03    0.14 
   3   0   5    1.22    0.12 
   3   0   5    1.36    0.15 
  -4   0  -5   26.32    0.69 
  -4   0  -5   26.60    0.64 
   4   0   5   26.26    0.47 
   4   0   5   26.44    0.55 
   4   0   5   27.02    0.56 
  -5   0  -5    0.44    0.20 
  -5   0  -5    0.39    0.18 
   5   0   5    0.57    0.17 
   5   0   5    0.44    0.16 
   5   0   5    0.29    0.11 
   6   0   5   29.13    0.55 
   6   0   5   29.83    0.68 
  -7   0  -5    0.15    0.19 
   7   0   5   -0.13    0.16 
   7   0   5   -0.01    0.12 
  -8   0  -5    0.11    0.21 
  -8   0  -5   -0.01    0.16 
   8   0   5   -0.09    0.18 
   8   0   5   -0.02    0.13 
  -9   0  -5    2.37    0.30 
  -9   0  -5    2.93    0.38 
   9   0   5    2.96    0.26 
   9   0   5    2.71    0.34 
   9  -1  -5   -0.11    0.35 
   9  -1  -5    0.03    0.34 
  -9   1   5   -0.20    0.26 
   8  -1  -5    3.33    0.43 
   8  -1  -5    2.44    0.30 
   8  -1  -5    2.61    0.42 
  -8   1   5    2.89    0.38 
   7  -1  -5    0.35    0.19 
   7  -1  -5    0.15    0.28 
   7  -1  -5    0.23    0.25 
  -7   1   5    0.14    0.20 
   6  -1  -5   25.46    0.63 
   6  -1  -5   28.32    0.77 
   6  -1  -5   25.32    0.82 
  -6   1   5   26.12    0.72 
   5  -1  -5    0.29    0.24 
   5  -1  -5    0.48    0.17 
  -5   1   5    0.88    0.15 
  -5   1   5    0.69    0.17 
  -5   1   5    0.63    0.17 
   4  -1  -5   11.43    0.51 
   4  -1  -5   10.81    0.38 
   4  -1  -5   11.09    0.40 
  -4   1   5   10.57    0.38 
  -4   1   5   10.36    0.38 
  -4   1   5   10.90    0.31 
   3  -1  -5    2.02    0.22 
   3  -1  -5    2.37    0.26 
   3  -1  -5    2.40    0.20 
  -3   1   5    2.34    0.17 
  -3   1   5    1.99    0.17 
  -3   1   5    2.23    0.19 
  -3   1   5    1.99    0.15 
   2  -1  -5    1.52    0.19 
   2  -1  -5    1.79    0.20 
   2  -1  -5    1.43    0.15 
  -2   1   5    1.40    0.13 
  -2   1   5    1.53    0.13 
  -2   1   5    1.71    0.13 
  -2   1   5    1.68    0.11 
   1  -1  -5   13.23    0.38 
   1  -1  -5   12.98    0.33 
   1  -1  -5   12.85    0.42 
  -1   1   5   12.75    0.29 
  -1   1   5   12.73    0.27 
  -1   1   5   12.83    0.31 
  -1   1   5   12.80    0.27 
   0  -1  -5   29.00    0.67 
   0  -1  -5   29.94    0.56 
   0  -1  -5   29.20    0.50 
   0  -1  -5   29.77    0.50 
   0   1   5   29.20    0.52 
   0   1   5   29.72    0.46 
   0   1   5   28.91    0.47 
  -1  -1  -5   18.86    0.36 
  -1  -1  -5   18.75    0.36 
  -1  -1  -5   16.81    0.50 
  -1  -1  -5   17.77    0.38 
   1   1   5   18.43    0.33 
   1   1   5   17.59    0.39 
   1   1   5   18.38    0.34 
  -2  -1  -5    0.15    0.05 
  -2  -1  -5    0.03    0.15 
  -2  -1  -5    0.18    0.10 
   2   1   5    0.26    0.10 
   2   1   5    0.12    0.08 
   2   1   5    0.09    0.07 
  -3  -1  -5    3.83    0.29 
  -3  -1  -5    4.37    0.25 
   3   1   5    3.82    0.21 
   3   1   5    3.85    0.16 
   3   1   5    4.00    0.19 
  -4  -1  -5    8.66    0.36 
  -4  -1  -5    8.85    0.41 
   4   1   5    8.99    0.32 
   4   1   5    8.34    0.30 
   4   1   5    8.54    0.23 
  -5  -1  -5   33.91    0.76 
  -5  -1  -5   35.73    0.83 
   5   1   5   34.30    0.55 
   5   1   5   33.74    0.68 
   5   1   5   32.29    0.68 
  -6  -1  -5    8.13    0.43 
  -6  -1  -5    8.55    0.41 
   6   1   5    7.35    0.36 
   6   1   5    8.22    0.26 
  -7  -1  -5    0.08    0.15 
  -7  -1  -5    0.09    0.17 
   7   1   5   -0.01    0.17 
   7   1   5    0.37    0.11 
  -8  -1  -5    0.69    0.20 
  -8  -1  -5    0.79    0.24 
   8   1   5    0.87    0.23 
   8   1   5    0.79    0.14 
  -9  -1  -5    3.80    0.36 
  -9  -1  -5    3.63    0.41 
   9   1   5    3.60    0.36 
   9   1   5    3.84    0.29 
 -10  -1  -5    0.61    0.28 
  10   1   5    0.56    0.26 
  10   1   5    0.43    0.18 
   9  -2  -5   -0.10    0.35 
   9  -2  -5    0.05    0.25 
   9  -2  -5   -0.15    0.32 
  -9   2   5    0.23    0.26 
   8  -2  -5   11.41    0.71 
   8  -2  -5   10.95    0.54 
   8  -2  -5   13.61    0.70 
  -8   2   5   11.94    0.63 
   7  -2  -5    0.66    0.20 
   7  -2  -5    0.47    0.26 
   7  -2  -5    0.24    0.27 
  -7   2   5    0.58    0.23 
   6  -2  -5    1.04    0.26 
   6  -2  -5    0.84    0.20 
   6  -2  -5    0.94    0.28 
  -6   2   5    0.84    0.21 
  -6   2   5    0.96    0.19 
   5  -2  -5   14.13    0.50 
   5  -2  -5   13.66    0.58 
   5  -2  -5   13.77    0.45 
  -5   2   5   14.22    0.43 
  -5   2   5   14.07    0.48 
   4  -2  -5    1.51    0.21 
   4  -2  -5    1.47    0.20 
   4  -2  -5    1.15    0.27 
  -4   2   5    1.51    0.20 
  -4   2   5    1.28    0.17 
   3  -2  -5    0.09    0.13 
   3  -2  -5    0.26    0.19 
   3  -2  -5    0.27    0.16 
  -3   2   5    0.09    0.10 
  -3   2   5    0.07    0.09 
  -3   2   5    0.26    0.10 
  -3   2   5    0.19    0.11 
   2  -2  -5    0.31    0.16 
   2  -2  -5    0.30    0.16 
   2  -2  -5    0.45    0.13 
  -2   2   5    0.33    0.08 
  -2   2   5    0.47    0.10 
  -2   2   5    0.46    0.10 
  -2   2   5    0.44    0.10 
   1  -2  -5   22.25    0.57 
   1  -2  -5   21.41    0.50 
   1  -2  -5   22.68    0.44 
  -1   2   5   22.28    0.41 
  -1   2   5   23.01    0.44 
  -1   2   5   23.16    0.39 
  -1   2   5   22.15    0.41 
   0  -2  -5   21.57    0.45 
   0  -2  -5   20.97    0.56 
   0  -2  -5   21.84    0.40 
   0   2   5   21.10    0.38 
   0   2   5   22.02    0.33 
   0   2   5   20.56    0.42 
   0   2   5   21.38    0.41 
  -1  -2  -5   62.14    0.91 
  -1  -2  -5   60.49    1.13 
  -1  -2  -5   60.33    0.93 
   1   2   5   61.67    0.92 
   1   2   5   61.52    0.81 
   1   2   5   62.09    0.82 
  -2  -2  -5    0.53    0.11 
  -2  -2  -5    0.68    0.08 
  -2  -2  -5    0.77    0.19 
   2   2   5    0.67    0.08 
   2   2   5    0.58    0.08 
   2   2   5    1.00    0.13 
  -3  -2  -5    9.34    0.20 
  -3  -2  -5    9.16    0.32 
  -3  -2  -5    9.53    0.42 
   3   2   5    9.39    0.25 
   3   2   5    8.97    0.29 
   3   2   5    9.49    0.22 
   3   2   5    9.55    0.25 
  -4  -2  -5    1.27    0.18 
  -4  -2  -5    1.33    0.23 
   4   2   5    0.91    0.15 
   4   2   5    1.07    0.12 
   4   2   5    1.35    0.15 
   4   2   5    1.25    0.10 
  -5  -2  -5   35.38    0.84 
  -5  -2  -5   34.00    0.75 
   5   2   5   33.27    0.51 
   5   2   5   34.45    0.68 
   5   2   5   33.98    0.69 
  -6  -2  -5    1.21    0.21 
  -6  -2  -5    1.93    0.28 
   6   2   5    1.20    0.12 
   6   2   5    1.56    0.21 
  -7  -2  -5    8.12    0.42 
  -7  -2  -5    7.97    0.38 
   7   2   5    8.13    0.40 
   7   2   5    7.99    0.26 
  -8  -2  -5    0.02    0.16 
  -8  -2  -5   -0.29    0.18 
   8   2   5    0.08    0.11 
   8   2   5   -0.01    0.18 
  -9  -2  -5    6.02    0.41 
  -9  -2  -5    6.39    0.47 
   9   2   5    6.15    0.29 
   9   2   5    5.92    0.45 
 -10  -2  -5    3.31    0.42 
 -10  -2  -5    3.39    0.37 
  10   2   5    3.59    0.26 
  10   2   5    2.92    0.36 
   8  -3  -5    1.73    0.40 
   8  -3  -5    2.48    0.33 
   8  -3  -5    2.32    0.39 
  -8   3   5    1.88    0.34 
   7  -3  -5    5.44    0.44 
   7  -3  -5    4.86    0.37 
   7  -3  -5    4.24    0.44 
  -7   3   5    5.35    0.43 
   6  -3  -5    0.48    0.20 
   6  -3  -5    0.80    0.24 
   6  -3  -5    0.50    0.28 
  -6   3   5    0.66    0.21 
  -6   3   5    0.56    0.19 
   5  -3  -5   32.32    0.75 
   5  -3  -5   32.68    0.87 
  -5   3   5   32.92    0.78 
  -5   3   5   33.32    0.72 
   4  -3  -5    1.25    0.20 
   4  -3  -5    1.57    0.21 
   4  -3  -5    1.27    0.28 
   4  -3  -5    1.52    0.23 
  -4   3   5    1.33    0.19 
  -4   3   5    1.55    0.21 
   3  -3  -5    9.39    0.43 
   3  -3  -5    9.32    0.34 
   3  -3  -5    9.57    0.33 
   3  -3  -5    9.43    0.39 
  -3   3   5   10.06    0.33 
  -3   3   5    9.29    0.31 
  -3   3   5    9.77    0.33 
   2  -3  -5    3.87    0.23 
   2  -3  -5    3.40    0.28 
   2  -3  -5    3.42    0.28 
   2  -3  -5    3.22    0.18 
  -2   3   5    3.30    0.18 
  -2   3   5    3.51    0.19 
  -2   3   5    3.56    0.20 
   1  -3  -5   18.89    0.39 
   1  -3  -5   18.35    0.54 
   1  -3  -5   18.75    0.47 
   1  -3  -5   19.24    0.33 
  -1   3   5   18.65    0.40 
  -1   3   5   18.45    0.38 
  -1   3   5   18.95    0.39 
   0  -3  -5    0.83    0.11 
   0  -3  -5    0.53    0.18 
   0  -3  -5    0.49    0.12 
   0   3   5    0.69    0.10 
   0   3   5    0.78    0.11 
   0   3   5    0.66    0.11 
  -1  -3  -5   43.37    0.71 
  -1  -3  -5   42.66    0.91 
   1   3   5   42.31    0.70 
   1   3   5   43.05    0.61 
  -2  -3  -5    6.30    0.37 
  -2  -3  -5    6.35    0.26 
  -2  -3  -5    6.42    0.21 
   2   3   5    6.55    0.20 
   2   3   5    6.22    0.24 
   2   3   5    6.73    0.15 
   2   3   5    6.31    0.17 
  -3  -3  -5   -0.07    0.11 
  -3  -3  -5    0.11    0.17 
  -3  -3  -5   -0.06    0.07 
   3   3   5    0.06    0.06 
   3   3   5    0.03    0.10 
   3   3   5   -0.04    0.05 
   3   3   5   -0.03    0.07 
  -4  -3  -5   23.68    0.56 
  -4  -3  -5   24.00    0.45 
  -4  -3  -5   22.88    0.67 
   4   3   5   23.38    0.39 
   4   3   5   22.96    0.48 
   4   3   5   23.46    0.35 
   4   3   5   23.76    0.52 
  -5  -3  -5    0.03    0.16 
  -5  -3  -5    0.54    0.22 
   5   3   5    0.53    0.15 
   5   3   5    0.41    0.15 
   5   3   5    0.43    0.07 
  -6  -3  -5   15.99    0.60 
  -6  -3  -5   16.14    0.53 
   6   3   5   16.29    0.31 
   6   3   5   16.89    0.49 
   6   3   5   15.94    0.48 
  -7  -3  -5    0.32    0.19 
   7   3   5    0.11    0.09 
   7   3   5    0.21    0.17 
  -8  -3  -5    1.78    0.25 
  -8  -3  -5    1.22    0.24 
   8   3   5    1.56    0.25 
   8   3   5    1.92    0.15 
  -9  -3  -5    0.19    0.20 
  -9  -3  -5    0.13    0.21 
   9   3   5    0.13    0.12 
   9   3   5   -0.19    0.18 
 -10  -3  -5   12.33    0.61 
  10   3   5   10.87    0.37 
  10   3   5   11.06    0.58 
   8  -4  -5    2.44    0.42 
   8  -4  -5    2.31    0.39 
  -8   4   5    2.62    0.37 
   7  -4  -5    5.18    0.42 
   7  -4  -5    4.21    0.37 
   7  -4  -5    4.84    0.45 
  -7   4   5    5.12    0.43 
  -7   4   5    5.20    0.42 
   6  -4  -5    2.65    0.28 
   6  -4  -5    2.02    0.33 
   6  -4  -5    2.53    0.30 
  -6   4   5    2.02    0.28 
  -6   4   5    2.22    0.28 
   5  -4  -5    1.44    0.28 
   5  -4  -5    1.97    0.24 
   5  -4  -5    1.47    0.22 
  -5   4   5    2.30    0.25 
  -5   4   5    1.99    0.25 
   4  -4  -5    7.44    0.44 
   4  -4  -5    7.13    0.35 
   4  -4  -5    7.77    0.34 
  -4   4   5    7.38    0.35 
  -4   4   5    6.79    0.33 
   3  -4  -5    5.81    0.30 
   3  -4  -5    5.92    0.37 
   3  -4  -5    5.73    0.27 
   3  -4  -5    5.55    0.40 
  -3   4   5    5.27    0.26 
  -3   4   5    4.91    0.29 
  -3   4   5    5.25    0.29 
   2  -4  -5    6.35    0.38 
   2  -4  -5    6.23    0.21 
   2  -4  -5    6.17    0.35 
   2  -4  -5    6.20    0.27 
  -2   4   5    6.07    0.24 
  -2   4   5    6.11    0.27 
  -2   4   5    6.36    0.27 
   1  -4  -5    0.26    0.06 
   1  -4  -5    0.35    0.15 
   1  -4  -5    0.10    0.18 
   1  -4  -5    0.21    0.09 
  -1   4   5    0.37    0.11 
  -1   4   5    0.30    0.10 
  -1   4   5    0.18    0.08 
   0  -4  -5   20.52    0.48 
   0  -4  -5   20.23    0.61 
   0   4   5   19.94    0.45 
   0   4   5   20.21    0.39 
   0   4   5   21.05    0.41 
  -1  -4  -5    0.13    0.10 
  -1  -4  -5   -0.09    0.16 
   1   4   5    0.21    0.07 
   1   4   5    0.20    0.09 
   1   4   5    0.17    0.10 
  -2  -4  -5   14.25    0.36 
  -2  -4  -5   14.36    0.54 
   2   4   5   14.41    0.23 
   2   4   5   13.92    0.27 
   2   4   5   14.19    0.29 
   2   4   5   14.19    0.36 
  -3  -4  -5    1.08    0.25 
  -3  -4  -5    0.90    0.17 
  -3  -4  -5    0.96    0.13 
   3   4   5    0.85    0.08 
   3   4   5    1.00    0.11 
   3   4   5    0.86    0.14 
   3   4   5    0.99    0.09 
  -4  -4  -5    1.67    0.21 
  -4  -4  -5    1.76    0.17 
  -4  -4  -5    2.15    0.30 
   4   4   5    1.74    0.16 
   4   4   5    1.46    0.18 
   4   4   5    1.67    0.11 
   4   4   5    1.69    0.09 
  -5  -4  -5    8.92    0.52 
  -5  -4  -5    8.65    0.32 
  -5  -4  -5    9.59    0.40 
   5   4   5    9.03    0.35 
   5   4   5    9.22    0.35 
   5   4   5    9.07    0.17 
   5   4   5    9.21    0.19 
  -6  -4  -5    7.53    0.47 
  -6  -4  -5    6.28    0.35 
   6   4   5    6.71    0.34 
   6   4   5    6.39    0.35 
   6   4   5    6.50    0.16 
  -7  -4  -5    1.51    0.24 
   7   4   5    1.20    0.10 
   7   4   5    0.89    0.21 
  -8  -4  -5    0.17    0.18 
   8   4   5   -0.15    0.08 
   8   4   5    0.00    0.18 
  -9  -4  -5    0.48    0.24 
   9   4   5    0.32    0.12 
   9   4   5    0.31    0.22 
 -10  -4  -5    1.39    0.30 
  10   4   5    1.48    0.17 
  10   4   5    1.03    0.29 
   8  -5  -5    3.22    0.44 
  -8   5   5    2.53    0.37 
   7  -5  -5    1.86    0.35 
  -7   5   5    2.29    0.34 
  -7   5   5    2.66    0.34 
   6  -5  -5    3.52    0.31 
   6  -5  -5    3.25    0.37 
  -6   5   5    2.81    0.34 
  -6   5   5    3.90    0.35 
   5  -5  -5    1.46    0.22 
   5  -5  -5    1.78    0.29 
  -5   5   5    2.13    0.26 
  -5   5   5    1.91    0.27 
   4  -5  -5    9.35    0.34 
   4  -5  -5    8.84    0.49 
  -4   5   5    9.31    0.39 
  -4   5   5    9.45    0.41 
   3  -5  -5    0.40    0.24 
   3  -5  -5    0.53    0.21 
   3  -5  -5    0.50    0.13 
  -3   5   5    0.60    0.14 
  -3   5   5    0.54    0.17 
  -3   5   5    0.54    0.18 
   2  -5  -5    9.08    0.42 
   2  -5  -5    9.08    0.48 
   2  -5  -5    8.76    0.25 
  -2   5   5    9.06    0.30 
  -2   5   5    8.26    0.34 
  -2   5   5    8.32    0.34 
   1  -5  -5    2.89    0.33 
   1  -5  -5    3.05    0.14 
   1  -5  -5    2.88    0.25 
  -1   5   5    2.62    0.20 
  -1   5   5    3.14    0.22 
  -1   5   5    3.12    0.18 
   0  -5  -5   15.84    0.46 
   0  -5  -5   16.63    0.60 
   0   5   5   16.55    0.43 
   0   5   5   16.33    0.37 
   0   5   5   16.53    0.36 
  -1  -5  -5    0.82    0.26 
  -1  -5  -5    1.11    0.17 
   1   5   5    0.95    0.12 
   1   5   5    1.13    0.12 
   1   5   5    1.06    0.15 
  -2  -5  -5    0.51    0.22 
  -2  -5  -5    0.80    0.15 
   2   5   5    0.68    0.14 
   2   5   5    0.53    0.12 
   2   5   5    0.51    0.08 
  -3  -5  -5    4.63    0.41 
  -3  -5  -5    4.81    0.26 
   3   5   5    4.73    0.16 
   3   5   5    4.58    0.25 
   3   5   5    4.37    0.14 
   3   5   5    4.53    0.20 
  -4  -5  -5    0.52    0.15 
  -4  -5  -5    0.66    0.28 
  -4  -5  -5    0.27    0.16 
   4   5   5    0.45    0.06 
   4   5   5    0.34    0.14 
   4   5   5    0.51    0.06 
   4   5   5    0.31    0.13 
  -5  -5  -5   23.16    0.78 
  -5  -5  -5   22.69    0.60 
  -5  -5  -5   22.18    0.57 
   5   5   5   22.63    0.54 
   5   5   5   22.67    0.54 
  -6  -5  -5    0.43    0.27 
  -6  -5  -5    0.40    0.18 
   6   5   5    0.34    0.16 
   6   5   5    0.51    0.16 
  -7  -5  -5    0.08    0.25 
  -7  -5  -5    0.44    0.19 
   7   5   5    0.05    0.16 
   7   5   5    0.19    0.17 
  -8  -5  -5    0.72    0.23 
   8   5   5    0.88    0.23 
   8   5   5    1.21    0.11 
   8   5   5    0.66    0.22 
  -9  -5  -5    1.88    0.30 
   9   5   5    2.33    0.33 
   9   5   5    2.43    0.31 
   9   5   5    1.98    0.15 
   7  -6  -5    0.89    0.34 
  -7   6   5    1.00    0.30 
  -7   6   5    1.46    0.30 
   6  -6  -5    0.20    0.27 
  -6   6   5    0.19    0.23 
  -6   6   5    0.00    0.18 
   5  -6  -5    0.83    0.28 
  -5   6   5    1.10    0.24 
  -5   6   5    0.97    0.20 
   4  -6  -5    7.96    0.47 
  -4   6   5    8.06    0.37 
  -4   6   5    7.89    0.42 
   3  -6  -5    3.16    0.31 
   3  -6  -5    3.39    0.35 
  -3   6   5    3.56    0.29 
  -3   6   5    3.59    0.30 
  -3   6   5    3.16    0.25 
   2  -6  -5    9.98    0.53 
   2  -6  -5   10.32    0.45 
  -2   6   5   10.44    0.32 
  -2   6   5   10.05    0.39 
  -2   6   5    9.92    0.40 
   1  -6  -5   30.59    0.74 
   1  -6  -5   31.11    0.87 
  -1   6   5   30.40    0.62 
  -1   6   5   30.19    0.67 
  -1   6   5   30.53    0.55 
   0  -6  -5   -0.10    0.25 
   0  -6  -5    0.03    0.17 
   0   6   5    0.00    0.11 
   0   6   5    0.07    0.08 
   0   6   5   -0.03    0.13 
  -1  -6  -5    0.63    0.18 
  -1  -6  -5    0.62    0.27 
   1   6   5    0.71    0.12 
   1   6   5    0.83    0.12 
   1   6   5    0.60    0.15 
  -2  -6  -5    3.83    0.29 
  -2  -6  -5    3.51    0.40 
   2   6   5    4.00    0.22 
   2   6   5    3.54    0.18 
   2   6   5    4.10    0.28 
  -3  -6  -5    7.17    0.52 
  -3  -6  -5    6.39    0.32 
   3   6   5    6.09    0.32 
   3   6   5    6.28    0.28 
   3   6   5    6.39    0.19 
  -4  -6  -5    6.20    0.34 
  -4  -6  -5    6.04    0.50 
   4   6   5    6.25    0.29 
   4   6   5    6.70    0.34 
   4   6   5    6.62    0.15 
  -5  -6  -5   50.62    1.01 
  -5  -6  -5   51.71    1.27 
  -5  -6  -5   51.86    1.02 
   5   6   5   53.74    0.93 
  -6  -6  -5   10.99    0.46 
  -6  -6  -5   10.72    0.63 
   6   6   5   10.85    0.40 
  -7  -6  -5   -0.09    0.26 
  -7  -6  -5    0.06    0.18 
   7   6   5   -0.04    0.15 
  -8  -6  -5   -0.26    0.18 
   8   6   5    0.17    0.18 
  -9  -6  -5    2.24    0.32 
   9   6   5    2.22    0.31 
   9   6   5    2.22    0.16 
   6  -7  -5    0.12    0.28 
  -6   7   5    0.62    0.28 
   5  -7  -5    0.19    0.27 
  -5   7   5    0.10    0.22 
   4  -7  -5    1.61    0.31 
  -4   7   5    1.47    0.26 
   3  -7  -5    0.13    0.22 
   3  -7  -5   -0.15    0.25 
  -3   7   5    0.07    0.18 
  -3   7   5   -0.29    0.14 
   2  -7  -5    8.49    0.52 
   2  -7  -5    7.51    0.44 
  -2   7   5    6.94    0.37 
  -2   7   5    7.62    0.40 
   1  -7  -5   16.32    0.57 
   1  -7  -5   17.63    0.72 
  -1   7   5   17.18    0.50 
  -1   7   5   17.12    0.52 
   0  -7  -5   13.66    0.51 
   0  -7  -5   15.44    0.70 
   0   7   5   14.59    0.42 
   0   7   5   14.09    0.45 
  -1  -7  -5    0.37    0.28 
  -1  -7  -5    0.20    0.17 
   1   7   5    0.15    0.14 
   1   7   5    0.16    0.10 
  -2  -7  -5    0.17    0.26 
  -2  -7  -5   -0.10    0.15 
   2   7   5   -0.04    0.09 
   2   7   5    0.06    0.13 
   2   7   5    0.11    0.09 
  -3  -7  -5   11.76    0.64 
  -3  -7  -5   11.85    0.46 
   3   7   5   11.80    0.44 
   3   7   5   12.09    0.28 
   3   7   5   12.48    0.35 
  -4  -7  -5    8.47    0.41 
  -4  -7  -5    8.33    0.58 
   4   7   5    7.86    0.38 
   4   7   5    7.68    0.20 
   4   7   5    8.26    0.33 
  -5  -7  -5    1.00    0.34 
  -5  -7  -5    1.05    0.23 
   5   7   5    0.91    0.19 
   5   7   5    0.76    0.17 
  -6  -7  -5   12.80    0.71 
  -6  -7  -5   10.68    0.50 
   6   7   5   10.49    0.41 
   6   7   5   11.71    0.47 
  -7  -7  -5    0.80    0.35 
   7   7   5    0.33    0.18 
  -8  -7  -5    0.06    0.22 
   8   7   5    0.25    0.19 
   9   7   5    0.23    0.22 
   6  -8  -5    0.11    0.29 
  -6   8   5   -0.29    0.23 
   5  -8  -5   -0.08    0.27 
  -5   8   5    0.46    0.25 
   4  -8  -5    0.10    0.26 
  -4   8   5    0.50    0.22 
   3  -8  -5    0.50    0.27 
  -3   8   5    0.37    0.20 
   2  -8  -5   13.82    0.66 
   2  -8  -5   13.77    0.59 
  -2   8   5   14.70    0.55 
  -2   8   5   12.97    0.51 
   1  -8  -5   -0.14    0.28 
   1  -8  -5    0.23    0.21 
  -1   8   5   -0.23    0.14 
  -1   8   5    0.02    0.17 
   0  -8  -5   23.22    0.69 
   0  -8  -5   21.34    0.85 
   0   8   5   22.70    0.58 
   0   8   5   23.06    0.63 
  -1  -8  -5    1.42    0.36 
  -1  -8  -5    1.35    0.24 
   1   8   5    1.39    0.18 
   1   8   5    1.38    0.21 
  -2  -8  -5    0.63    0.21 
  -2  -8  -5    0.80    0.34 
   2   8   5    0.62    0.13 
   2   8   5    0.81    0.19 
  -3  -8  -5    5.32    0.51 
  -3  -8  -5    4.81    0.40 
   3   8   5    5.36    0.33 
   3   8   5    5.13    0.23 
  -4  -8  -5    1.15    0.24 
  -4  -8  -5    0.68    0.33 
   4   8   5    1.05    0.21 
   4   8   5    0.83    0.11 
  -5  -8  -5   15.95    0.80 
  -5  -8  -5   16.81    0.63 
   5   8   5   16.39    0.55 
   5   8   5   16.15    0.30 
  -6  -8  -5   24.45    0.99 
  -6  -8  -5   23.60    0.76 
   6   8   5   24.68    0.69 
  -7  -8  -5    0.85    0.37 
   7   8   5    0.47    0.20 
   5  -9  -5    0.92    0.34 
  -5   9   5    0.67    0.29 
   4  -9  -5   -0.26    0.25 
  -4   9   5    0.17    0.24 
   3  -9  -5    0.42    0.30 
  -3   9   5   -0.16    0.19 
   2  -9  -5    0.58    0.28 
  -2   9   5    0.67    0.25 
  -2   9   5    0.78    0.29 
  -2   9   5    0.82    0.23 
   1  -9  -5   18.33    0.69 
  -1   9   5   19.14    0.62 
  -1   9   5   16.92    0.61 
   0  -9  -5   46.29    1.08 
   0  -9  -5   46.14    1.29 
   0   9   5   44.98    0.99 
   0   9   5   45.07    0.93 
  -1  -9  -5    5.00    0.54 
  -1  -9  -5    5.48    0.43 
   1   9   5    5.05    0.36 
   1   9   5    5.38    0.35 
  -2  -9  -5    3.71    0.50 
  -2  -9  -5    4.32    0.39 
   2   9   5    3.83    0.29 
   2   9   5    3.77    0.33 
  -3  -9  -5    0.94    0.37 
  -3  -9  -5    0.82    0.26 
   3   9   5    1.04    0.21 
   3   9   5    0.82    0.16 
  -4  -9  -5    3.51    0.51 
  -4  -9  -5    3.59    0.39 
   4   9   5    3.17    0.22 
   4   9   5    3.62    0.32 
  -5  -9  -5    0.25    0.35 
  -5  -9  -5    0.14    0.25 
   5   9   5    0.07    0.17 
   5   9   5    0.11    0.10 
  -6  -9  -5   -0.31    0.23 
  -6  -9  -5    0.36    0.36 
   6   9   5    0.11    0.19 
   6   9   5   -0.07    0.09 
   7   9   5    2.05    0.32 
   3 -10  -5    1.33    0.33 
  -3  10   5    0.78    0.28 
   2 -10  -5    0.20    0.30 
  -2  10   5   -0.26    0.25 
  -2  10   5    0.01    0.30 
  -2  10   5    0.21    0.22 
   1 -10  -5    1.37    0.32 
  -1  10   5    1.00    0.36 
  -1  10   5    1.51    0.31 
  -1  10   5    0.83    0.25 
   0 -10  -5    0.72    0.29 
   0  10   5    1.53    0.29 
   0  10   5    1.38    0.26 
   0  10   5    1.37    0.40 
  -1 -10  -5    0.72    0.28 
   1  10   5    0.77    0.23 
   1  10   5    0.77    0.23 
  -2 -10  -5    6.65    0.54 
   2  10   5    6.28    0.43 
   2  10   5    5.61    0.38 
  -3 -10  -5    1.09    0.32 
   3  10   5    0.59    0.22 
   3  10   5    0.71    0.20 
  -4 -10  -5    1.99    0.37 
   4  10   5    2.32    0.23 
   4  10   5    2.66    0.31 
  -5 -10  -5    0.48    0.29 
   5  10   5    0.34    0.21 
   5  10   5    0.01    0.13 
  -6 -10  -5    3.67    0.46 
   6  10   5    3.49    0.54 
   6  10   5    3.07    0.33 
   6  10   5    2.52    0.20 
   1 -11  -5    0.65    0.33 
  -1  11   5    0.73    0.31 
  -1  11   5    0.31    0.23 
  -1  11   5    0.74    0.36 
   0 -11  -5    5.78    0.53 
   0  11   5    5.90    0.47 
   0  11   5    5.90    0.48 
   0  11   5    4.44    0.57 
  -1 -11  -5   20.18    0.82 
   1  11   5   19.11    0.71 
   1  11   5   20.17    0.98 
   1  11   5   22.19    0.74 
  -2 -11  -5    1.01    0.33 
   2  11   5    0.36    0.40 
   2  11   5    0.54    0.24 
   2  11   5    0.78    0.25 
  -3 -11  -5    2.56    0.42 
   3  11   5    1.36    0.44 
   3  11   5    1.78    0.30 
   3  11   5    1.97    0.29 
  -4 -11  -5    0.48    0.32 
   4  11   5    0.14    0.21 
   4  11   5    0.00    0.19 
   4  11   5   -0.16    0.35 
   3   8  -6    0.06    0.29 
   3   8  -6    0.12    0.34 
   3   8  -6    0.10    0.37 
  -3  -8   6    0.08    0.21 
   2   8  -6   -0.25    0.35 
   2   8  -6   -0.24    0.27 
  -2  -8   6    0.48    0.32 
  -2  -8   6   -0.15    0.21 
   1   8  -6   -0.07    0.35 
   1   8  -6   -0.67    0.27 
  -1  -8   6   -0.05    0.28 
  -1  -8   6    0.42    0.23 
   0   8  -6    4.35    0.45 
   0   8  -6    3.54    0.55 
   0  -8   6    4.10    0.40 
   0  -8   6    4.23    0.48 
  -1   8  -6    4.99    0.62 
   1  -8   6    6.02    0.48 
  -2   8  -6   -0.09    0.36 
   2  -8   6    0.89    0.28 
   5   7  -6    9.34    0.55 
   5   7  -6    9.07    0.75 
   5   7  -6    8.22    0.71 
  -5  -7   6    8.26    0.52 
   4   7  -6   -0.27    0.32 
   4   7  -6   -0.09    0.25 
   4   7  -6   -0.25    0.34 
  -4  -7   6    0.11    0.22 
   3   7  -6    3.98    0.55 
   3   7  -6    4.47    0.52 
   3   7  -6    3.28    0.38 
  -3  -7   6    3.64    0.36 
   2   7  -6    1.71    0.43 
   2   7  -6    1.56    0.31 
  -2  -7   6    1.58    0.27 
  -2  -7   6    1.77    0.37 
   1   7  -6    0.92    0.37 
   1   7  -6    1.97    0.33 
  -1  -7   6    1.62    0.35 
  -1  -7   6    1.99    0.28 
   0   7  -6    0.22    0.27 
   0   7  -6   -0.11    0.30 
   0  -7   6   -0.09    0.19 
   0  -7   6    0.27    0.27 
  -1   7  -6   -0.07    0.31 
   1  -7   6    0.41    0.22 
   1  -7   6    0.85    0.29 
  -2   7  -6    3.03    0.49 
   2  -7   6    2.73    0.34 
  -3   7  -6    0.68    0.35 
   3  -7   6    1.05    0.29 
  -4   7  -6    0.34    0.36 
  -4   7  -6    0.66    0.29 
   4  -7   6    0.49    0.26 
   6   6  -6    1.94    0.31 
   6   6  -6    1.94    0.47 
  -6  -6   6    1.56    0.31 
   5   6  -6    0.67    0.26 
   5   6  -6    0.22    0.34 
   5   6  -6    0.84    0.39 
  -5  -6   6    0.97    0.25 
   4   6  -6    0.21    0.33 
   4   6  -6    0.31    0.32 
   4   6  -6    0.13    0.22 
  -4  -6   6    0.31    0.21 
   3   6  -6    1.89    0.30 
   3   6  -6    2.30    0.41 
   3   6  -6    1.57    0.38 
  -3  -6   6    1.75    0.25 
   2   6  -6    0.18    0.23 
   2   6  -6   -0.30    0.28 
  -2  -6   6    0.02    0.16 
   1   6  -6   -0.01    0.22 
   1   6  -6    0.05    0.27 
  -1  -6   6   -0.26    0.22 
  -1  -6   6    0.19    0.17 
   0   6  -6    1.23    0.28 
   0   6  -6    0.86    0.32 
   0  -6   6    1.73    0.25 
   0  -6   6    1.37    0.29 
  -1   6  -6    0.02    0.24 
  -1   6  -6   -0.45    0.25 
   1  -6   6    0.03    0.18 
   1  -6   6    0.15    0.21 
  -2   6  -6    0.36    0.30 
  -2   6  -6    0.52    0.21 
   2  -6   6    0.47    0.21 
  -3   6  -6    3.00    0.34 
  -3   6  -6    2.57    0.41 
   3  -6   6    2.64    0.31 
  -4   6  -6    0.06    0.30 
  -4   6  -6    0.41    0.25 
   4  -6   6    0.32    0.24 
  -5   6  -6    0.34    0.27 
   5  -6   6    1.01    0.30 
  -6   6  -6    0.19    0.28 
   6  -6   6    0.26    0.29 
   7   5  -6    4.65    0.38 
   7   5  -6    5.67    0.61 
  -7  -5   6    4.77    0.48 
   6   5  -6    2.05    0.43 
   6   5  -6    1.08    0.25 
  -6  -5   6    1.45    0.29 
   5   5  -6    0.93    0.36 
   5   5  -6    1.11    0.24 
   5   5  -6    1.02    0.33 
  -5  -5   6    1.31    0.25 
   4   5  -6    8.75    0.59 
   4   5  -6    8.88    0.46 
   4   5  -6    8.85    0.61 
  -4  -5   6    9.39    0.45 
   3   5  -6    1.86    0.37 
   3   5  -6    1.36    0.26 
   3   5  -6    1.66    0.34 
  -3  -5   6    1.68    0.23 
   2   5  -6    1.50    0.31 
   2   5  -6    0.83    0.31 
   2   5  -6    1.17    0.25 
  -2  -5   6    0.92    0.18 
   1   5  -6    1.11    0.30 
   1   5  -6    1.69    0.27 
  -1  -5   6    1.75    0.22 
  -1  -5   6    1.74    0.29 
   0   5  -6    0.39    0.27 
   0   5  -6    0.47    0.23 
   0  -5   6    0.18    0.15 
   0  -5   6    0.38    0.21 
  -1   5  -6   -0.01    0.25 
  -1   5  -6    0.16    0.21 
  -1   5  -6    0.25    0.17 
   1  -5   6    0.37    0.20 
   1  -5   6    0.42    0.17 
  -2   5  -6    0.07    0.27 
  -2   5  -6   -0.33    0.16 
   2  -5   6   -0.08    0.16 
  -3   5  -6    0.52    0.28 
  -3   5  -6    1.14    0.24 
   3  -5   6    0.89    0.22 
  -4   5  -6    0.21    0.27 
  -4   5  -6    0.06    0.19 
   4  -5   6   -0.02    0.21 
  -5   5  -6    0.91    0.28 
   5  -5   6    0.61    0.26 
  -6   5  -6   -0.13    0.24 
   6  -5   6    0.51    0.29 
  -7   5  -6    0.91    0.32 
   7  -5   6    1.54    0.35 
   8   4  -6    0.34    0.41 
   8   4  -6    0.85    0.28 
  -8  -4   6    1.05    0.31 
  -8  -4   6    0.92    0.30 
   7   4  -6    9.94    0.50 
   7   4  -6    9.64    0.78 
  -7  -4   6    9.29    0.55 
  -7  -4   6   11.31    0.62 
   6   4  -6    0.17    0.33 
   6   4  -6    0.05    0.18 
  -6  -4   6    0.21    0.21 
  -6  -4   6    0.17    0.19 
   5   4  -6    0.88    0.21 
   5   4  -6    0.85    0.31 
   5   4  -6    0.74    0.30 
  -5  -4   6    0.48    0.19 
  -5  -4   6    0.93    0.22 
   4   4  -6   -0.01    0.26 
   4   4  -6    0.14    0.27 
   4   4  -6    0.18    0.19 
  -4  -4   6    0.22    0.16 
  -4  -4   6   -0.01    0.14 
   3   4  -6    0.79    0.28 
   3   4  -6    1.05    0.30 
   3   4  -6    1.27    0.23 
  -3  -4   6    0.82    0.17 
  -3  -4   6    0.97    0.17 
   2   4  -6    1.01    0.26 
   2   4  -6    0.43    0.27 
   2   4  -6    0.73    0.21 
  -2  -4   6    0.76    0.13 
  -2  -4   6    1.01    0.18 
   1   4  -6    9.53    0.55 
   1   4  -6    9.55    0.46 
  -1  -4   6    9.36    0.28 
  -1  -4   6    9.45    0.37 
   0   4  -6    0.34    0.24 
   0   4  -6    0.39    0.20 
   0  -4   6    0.18    0.09 
   0  -4   6    0.02    0.13 
   0  -4   6    0.03    0.17 
  -1   4  -6    5.65    0.40 
  -1   4  -6    5.12    0.46 
  -1   4  -6    5.46    0.31 
   1  -4   6    5.00    0.25 
   1  -4   6    5.43    0.32 
   1  -4   6    5.28    0.34 
  -2   4  -6    5.21    0.48 
  -2   4  -6    4.52    0.34 
  -2   4  -6    6.04    0.35 
   2  -4   6    4.44    0.31 
   2  -4   6    4.74    0.32 
  -3   4  -6    1.65    0.25 
  -3   4  -6    1.27    0.31 
   3  -4   6    1.82    0.26 
  -4   4  -6   10.23    0.50 
  -4   4  -6    9.52    0.56 
   4  -4   6    9.25    0.48 
  -5   4  -6    4.95    0.44 
  -5   4  -6    4.59    0.46 
   5  -4   6    5.33    0.42 
  -6   4  -6    0.44    0.26 
   6  -4   6    0.03    0.25 
  -7   4  -6    0.54    0.30 
   7  -4   6    1.10    0.33 
   8   3  -6    1.93    0.47 
   8   3  -6    1.88    0.30 
  -8  -3   6    1.21    0.31 
  -8  -3   6    2.20    0.36 
   7   3  -6    0.63    0.38 
   7   3  -6    1.39    0.27 
  -7  -3   6    1.54    0.29 
  -7  -3   6    1.85    0.32 
   6   3  -6    5.97    0.54 
   6   3  -6    5.11    0.39 
  -6  -3   6    5.80    0.43 
  -6  -3   6    5.62    0.41 
   5   3  -6    5.19    0.46 
   5   3  -6    3.96    0.44 
   5   3  -6    3.99    0.31 
  -5  -3   6    4.76    0.36 
  -5  -3   6    4.80    0.34 
   4   3  -6    0.72    0.26 
   4   3  -6    1.12    0.28 
   4   3  -6    0.32    0.19 
  -4  -3   6    0.62    0.17 
  -4  -3   6    0.78    0.18 
   3   3  -6    7.98    0.48 
   3   3  -6    8.32    0.39 
   3   3  -6    8.93    0.52 
  -3  -3   6    8.29    0.35 
  -3  -3   6    8.58    0.33 
   2   3  -6   11.12    0.52 
   2   3  -6   10.84    0.44 
   2   3  -6   11.71    0.56 
  -2  -3   6   11.53    0.34 
  -2  -3   6   10.98    0.38 
   1   3  -6   -0.01    0.19 
   1   3  -6    0.47    0.25 
   1   3  -6    0.10    0.18 
  -1  -3   6    0.13    0.12 
  -1  -3   6    0.22    0.10 
   0   3  -6    0.76    0.14 
   0   3  -6    1.05    0.22 
   0   3  -6    0.91    0.29 
   0   3  -6    0.80    0.21 
   0  -3   6    0.61    0.15 
   0  -3   6    1.12    0.13 
  -1   3  -6    0.02    0.18 
  -1   3  -6    0.24    0.24 
  -1   3  -6    0.36    0.15 
   1  -3   6    0.21    0.12 
   1  -3   6    0.21    0.16 
   1  -3   6    0.31    0.16 
  -2   3  -6    0.37    0.17 
  -2   3  -6    0.43    0.26 
  -2   3  -6    0.53    0.21 
   2  -3   6    0.29    0.13 
   2  -3   6    0.16    0.16 
   2  -3   6    0.32    0.13 
   2  -3   6    0.49    0.16 
  -3   3  -6    0.22    0.17 
  -3   3  -6    0.07    0.22 
   3  -3   6    0.49    0.18 
   3  -3   6    0.33    0.14 
   3  -3   6    0.15    0.14 
  -4   3  -6    7.62    0.44 
  -4   3  -6    6.69    0.46 
   4  -3   6    8.05    0.41 
   4  -3   6    7.69    0.35 
   4  -3   6    8.11    0.35 
  -5   3  -6    3.29    0.38 
  -5   3  -6    3.91    0.38 
   5  -3   6    3.66    0.30 
   5  -3   6    3.68    0.35 
   5  -3   6    3.66    0.27 
  -6   3  -6    2.45    0.35 
   6  -3   6    2.23    0.24 
   6  -3   6    1.86    0.30 
   6  -3   6    2.89    0.28 
  -7   3  -6    0.18    0.26 
   7  -3   6    0.00    0.17 
   7  -3   6    0.43    0.21 
   7  -3   6    0.59    0.27 
  -8   3  -6    1.09    0.33 
   8  -3   6    0.91    0.29 
   8  -3   6    1.23    0.28 
   8  -3   6    0.89    0.23 
   8   2  -6   -0.13    0.36 
   8   2  -6    0.16    0.23 
  -8  -2   6    0.33    0.25 
  -8  -2   6   -0.24    0.23 
   7   2  -6    1.65    0.26 
   7   2  -6    1.00    0.38 
  -7  -2   6    2.41    0.33 
  -7  -2   6    2.30    0.33 
   6   2  -6    5.31    0.50 
   6   2  -6    5.43    0.38 
  -6  -2   6    5.57    0.40 
  -6  -2   6    5.18    0.39 
   5   2  -6   -0.14    0.24 
   5   2  -6   -0.22    0.16 
   5   2  -6    0.09    0.21 
  -5  -2   6   -0.01    0.15 
  -5  -2   6    0.25    0.17 
   4   2  -6    0.55    0.26 
   4   2  -6    0.87    0.25 
   4   2  -6    0.89    0.19 
  -4  -2   6    0.79    0.17 
  -4  -2   6    1.03    0.18 
   3   2  -6    1.64    0.22 
   3   2  -6    1.60    0.29 
   3   2  -6    1.34    0.28 
  -3  -2   6    1.79    0.20 
  -3  -2   6    1.70    0.18 
   2   2  -6    0.55    0.18 
   2   2  -6    0.50    0.22 
   2   2  -6    0.59    0.25 
  -2  -2   6    0.42    0.12 
  -2  -2   6    0.40    0.11 
   1   2  -6    3.21    0.34 
   1   2  -6    3.28    0.29 
   1   2  -6    3.73    0.15 
   1   2  -6    3.73    0.27 
  -1  -2   6    3.37    0.22 
  -1  -2   6    3.43    0.20 
   0   2  -6   39.10    0.80 
   0   2  -6   40.74    0.77 
   0   2  -6   39.28    0.94 
   0   2  -6   40.36    0.66 
   0  -2   6   39.53    0.67 
   0  -2   6   38.05    0.72 
   0  -2   6   40.23    0.64 
  -1   2  -6    0.03    0.14 
  -1   2  -6   -0.21    0.15 
  -1   2  -6   -0.05    0.21 
  -1   2  -6    0.04    0.11 
   1  -2   6   -0.02    0.10 
   1  -2   6    0.17    0.11 
   1  -2   6    0.06    0.12 
  -2   2  -6   -0.10    0.23 
  -2   2  -6   -0.11    0.13 
  -2   2  -6   -0.02    0.16 
   2  -2   6    0.08    0.13 
   2  -2   6    0.01    0.14 
   2  -2   6   -0.10    0.11 
  -3   2  -6    1.93    0.24 
  -3   2  -6    1.88    0.30 
   3  -2   6    1.88    0.23 
   3  -2   6    1.82    0.19 
   3  -2   6    1.55    0.20 
  -4   2  -6    6.62    0.45 
  -4   2  -6    6.78    0.39 
   4  -2   6    6.85    0.31 
   4  -2   6    6.69    0.36 
   4  -2   6    6.84    0.33 
  -5   2  -6    7.14    0.46 
  -5   2  -6    7.03    0.44 
   5  -2   6    6.55    0.40 
   5  -2   6    6.73    0.35 
   5  -2   6    6.42    0.32 
  -6   2  -6    7.72    0.48 
   6  -2   6    8.07    0.43 
   6  -2   6    7.46    0.35 
   6  -2   6    7.28    0.39 
  -7   2  -6    0.32    0.24 
   7  -2   6    0.24    0.20 
   7  -2   6    0.56    0.21 
   7  -2   6    0.25    0.17 
  -8   2  -6    1.42    0.32 
   8  -2   6    0.85    0.27 
   8  -2   6    1.18    0.22 
   8  -2   6    1.35    0.26 
   8   1  -6    1.95    0.30 
   8   1  -6    1.48    0.43 
  -8  -1   6    2.22    0.35 
  -8  -1   6    2.48    0.37 
   7   1  -6    9.27    0.45 
   7   1  -6    9.42    0.68 
  -7  -1   6    9.11    0.50 
  -7  -1   6    9.54    0.51 
   6   1  -6    7.13    0.40 
   6   1  -6    6.97    0.54 
  -6  -1   6    6.63    0.44 
  -6  -1   6    7.78    0.44 
   5   1  -6    0.32    0.18 
   5   1  -6    0.14    0.25 
  -5  -1   6   -0.01    0.16 
  -5  -1   6   -0.07    0.14 
   4   1  -6    0.74    0.26 
   4   1  -6    0.31    0.21 
   4   1  -6    0.42    0.17 
  -4  -1   6    0.32    0.14 
  -4  -1   6    0.28    0.15 
   3   1  -6    3.96    0.36 
   3   1  -6    3.76    0.34 
   3   1  -6    3.90    0.30 
  -3  -1   6    3.62    0.24 
  -3  -1   6    4.04    0.25 
   2   1  -6    0.71    0.21 
   2   1  -6    0.53    0.17 
   2   1  -6    0.92    0.23 
  -2  -1   6    0.98    0.14 
  -2  -1   6    0.71    0.12 
   1   1  -6   13.28    0.40 
   1   1  -6   13.81    0.52 
   1   1  -6   13.01    0.43 
   1   1  -6   12.86    0.26 
  -1  -1   6   12.79    0.31 
  -1  -1   6   12.84    0.34 
  -1  -1   6   13.08    0.34 
   0   1  -6    9.97    0.35 
   0   1  -6    9.85    0.46 
   0   1  -6   10.14    0.35 
   0   1  -6    9.82    0.27 
   0  -1   6   10.88    0.28 
   0  -1   6    9.84    0.29 
   0  -1   6    9.72    0.29 
  -1   1  -6    4.13    0.27 
  -1   1  -6    4.41    0.23 
  -1   1  -6    4.13    0.23 
  -1   1  -6    4.74    0.36 
   1  -1   6    4.39    0.21 
   1  -1   6    4.42    0.22 
   1  -1   6    4.14    0.21 
  -2   1  -6    0.55    0.15 
  -2   1  -6    0.63    0.15 
  -2   1  -6    0.23    0.20 
  -2   1  -6    0.31    0.11 
   2  -1   6    0.34    0.13 
   2  -1   6    0.09    0.10 
   2  -1   6    0.50    0.13 
  -3   1  -6    4.09    0.29 
  -3   1  -6    3.83    0.35 
   3  -1   6    4.32    0.26 
   3  -1   6    3.76    0.27 
   3  -1   6    3.86    0.24 
  -4   1  -6    3.11    0.29 
  -4   1  -6    3.31    0.34 
   4  -1   6    2.93    0.21 
   4  -1   6    3.03    0.26 
   4  -1   6    3.22    0.26 
  -5   1  -6   15.10    0.58 
  -5   1  -6   13.69    0.53 
   5  -1   6   14.65    0.49 
   5  -1   6   14.40    0.45 
   5  -1   6   14.21    0.40 
  -6   1  -6    0.72    0.22 
   6  -1   6    1.21    0.18 
   6  -1   6    0.82    0.21 
   6  -1   6    1.45    0.22 
  -7   1  -6    1.81    0.31 
   7  -1   6    1.47    0.20 
   7  -1   6    1.95    0.26 
   7  -1   6    1.44    0.25 
  -8   1  -6    0.73    0.26 
   8  -1   6    0.36    0.22 
   8  -1   6    0.60    0.24 
   8  -1   6    0.34    0.18 
  -9   1  -6    2.47    0.38 
   9  -1   6    2.71    0.29 
   9  -1   6    1.95    0.33 
   9  -1   6    2.26    0.32 
   9   0  -6    5.20    0.57 
   9   0  -6    4.14    0.40 
   9   0  -6    3.66    0.54 
  -9   0   6    4.70    0.49 
   8   0  -6    2.08    0.40 
   8   0  -6    1.91    0.43 
   8   0  -6    1.68    0.29 
  -8   0   6    2.18    0.37 
   7   0  -6    0.08    0.19 
   7   0  -6   -0.35    0.31 
  -7   0   6    0.35    0.21 
  -7   0   6    0.48    0.23 
   6   0  -6    3.89    0.42 
   6   0  -6    3.88    0.30 
  -6   0   6    4.24    0.36 
  -6   0   6    3.94    0.35 
   5   0  -6    1.20    0.20 
   5   0  -6    1.04    0.28 
  -5   0   6    0.76    0.19 
  -5   0   6    1.03    0.20 
   4   0  -6   -0.04    0.21 
   4   0  -6    0.23    0.24 
   4   0  -6    0.01    0.16 
  -4   0   6    0.39    0.15 
  -4   0   6    0.29    0.15 
   3   0  -6    1.40    0.21 
   3   0  -6    1.23    0.25 
   3   0  -6    1.34    0.25 
  -3   0   6    1.49    0.18 
  -3   0   6    2.03    0.19 
   2   0  -6   26.29    0.65 
   2   0  -6   25.96    0.68 
   2   0  -6   26.54    0.56 
  -2   0   6   25.85    0.47 
  -2   0   6   25.97    0.40 
  -2   0   6   25.30    0.51 
  -2   0   6   25.57    0.52 
   1   0  -6    4.12    0.26 
   1   0  -6    3.88    0.28 
   1   0  -6    4.17    0.33 
  -1   0   6    4.07    0.21 
  -1   0   6    3.61    0.18 
  -1   0   6    4.01    0.18 
  -1   0   6    3.88    0.14 
   0   0  -6   10.31    0.44 
   0   0  -6   11.61    0.34 
   0   0  -6   11.01    0.35 
   0   0  -6   10.34    0.27 
   0   0   6   10.29    0.28 
   0   0   6   10.67    0.30 
   0   0   6   10.46    0.28 
  -1   0  -6   43.09    0.94 
  -1   0  -6   43.24    0.71 
  -1   0  -6   43.88    0.72 
  -1   0  -6   43.50    0.71 
   1   0   6   40.58    0.72 
   1   0   6   42.83    0.70 
   1   0   6   43.25    0.66 
  -2   0  -6    0.48    0.21 
  -2   0  -6    0.43    0.13 
  -2   0  -6    0.49    0.09 
  -2   0  -6    0.41    0.12 
   2   0   6    0.50    0.11 
   2   0   6    0.52    0.12 
   2   0   6    0.45    0.13 
  -3   0  -6    2.48    0.22 
  -3   0  -6    2.65    0.29 
   3   0   6    2.51    0.21 
   3   0   6    2.62    0.21 
   3   0   6    2.38    0.17 
  -4   0  -6    5.77    0.42 
  -4   0  -6    5.57    0.34 
   4   0   6    5.32    0.29 
   4   0   6    6.16    0.32 
   4   0   6    6.08    0.26 
  -5   0  -6   10.12    0.49 
  -5   0  -6    9.36    0.44 
   5   0   6    9.93    0.38 
   5   0   6    9.78    0.32 
   5   0   6    9.84    0.38 
  -6   0  -6    5.63    0.41 
  -6   0  -6    5.11    0.40 
   6   0   6    5.84    0.34 
   6   0   6    5.15    0.27 
   6   0   6    4.96    0.33 
  -7   0  -6    2.50    0.32 
   7   0   6    2.13    0.21 
   7   0   6    2.51    0.28 
   7   0   6    2.10    0.26 
  -8   0  -6    0.44    0.23 
   8   0   6    0.41    0.21 
   8   0   6    0.43    0.21 
   8   0   6    0.18    0.15 
  -9   0  -6    3.33    0.40 
   9   0   6    3.48    0.29 
   9   0   6    3.23    0.35 
   9   0   6    4.41    0.39 
   9  -1  -6    0.41    0.26 
   9  -1  -6    1.22    0.40 
   9  -1  -6    0.79    0.40 
  -9   1   6    1.03    0.33 
   8  -1  -6   -0.18    0.21 
   8  -1  -6   -0.61    0.31 
   8  -1  -6   -0.11    0.30 
  -8   1   6    0.04    0.25 
   7  -1  -6    0.50    0.32 
   7  -1  -6    0.89    0.23 
   7  -1  -6    1.09    0.32 
  -7   1   6    0.64    0.24 
   6  -1  -6    5.71    0.38 
   6  -1  -6    6.15    0.53 
  -6   1   6    6.39    0.41 
   5  -1  -6    8.41    0.52 
   5  -1  -6    9.16    0.40 
  -5   1   6    8.39    0.39 
  -5   1   6    8.44    0.40 
   4  -1  -6   16.27    0.53 
   4  -1  -6   15.50    0.62 
   4  -1  -6   15.10    0.47 
  -4   1   6   15.27    0.46 
  -4   1   6   14.53    0.47 
   3  -1  -6    8.06    0.35 
   3  -1  -6    8.87    0.42 
   3  -1  -6    9.00    0.46 
  -3   1   6    8.96    0.32 
  -3   1   6    8.52    0.24 
  -3   1   6    8.49    0.31 
   2  -1  -6    9.09    0.42 
   2  -1  -6    9.32    0.34 
   2  -1  -6    8.76    0.41 
  -2   1   6    9.09    0.29 
  -2   1   6    9.03    0.28 
  -2   1   6    8.90    0.23 
  -2   1   6    9.22    0.27 
   1  -1  -6    3.23    0.29 
   1  -1  -6    3.30    0.23 
   1  -1  -6    3.44    0.28 
  -1   1   6    3.33    0.19 
  -1   1   6    3.43    0.15 
  -1   1   6    3.54    0.18 
  -1   1   6    3.51    0.16 
   0  -1  -6    5.08    0.20 
   0  -1  -6    4.81    0.33 
   0  -1  -6    4.84    0.25 
   0  -1  -6    4.92    0.23 
   0   1   6    4.66    0.22 
   0   1   6    4.75    0.17 
   0   1   6    4.73    0.19 
  -1  -1  -6   16.48    0.39 
  -1  -1  -6   16.82    0.54 
  -1  -1  -6   17.00    0.37 
  -1  -1  -6   17.02    0.37 
   1   1   6   16.61    0.34 
   1   1   6   17.19    0.40 
   1   1   6   16.75    0.35 
  -2  -1  -6    1.54    0.23 
  -2  -1  -6    2.11    0.19 
  -2  -1  -6    1.61    0.11 
   2   1   6    1.60    0.13 
   2   1   6    1.48    0.17 
   2   1   6    1.75    0.14 
  -3  -1  -6    0.94    0.23 
  -3  -1  -6    0.98    0.17 
   3   1   6    0.68    0.11 
   3   1   6    0.88    0.13 
   3   1   6    0.89    0.15 
  -4  -1  -6    9.23    0.47 
  -4  -1  -6    9.12    0.38 
   4   1   6    9.86    0.33 
   4   1   6    9.37    0.28 
   4   1   6    9.18    0.35 
  -5  -1  -6    1.45    0.28 
  -5  -1  -6    1.63    0.24 
   5   1   6    1.50    0.21 
   5   1   6    1.65    0.15 
   5   1   6    1.63    0.20 
  -6  -1  -6    1.95    0.27 
  -6  -1  -6    1.91    0.29 
   6   1   6    1.99    0.17 
   6   1   6    1.79    0.22 
   6   1   6    2.24    0.24 
  -7  -1  -6   -0.05    0.18 
   7   1   6    0.20    0.12 
   7   1   6    0.26    0.18 
   7   1   6    0.23    0.18 
  -8  -1  -6    2.11    0.31 
   8   1   6    2.35    0.21 
   8   1   6    2.64    0.30 
   8   1   6    2.07    0.28 
  -9  -1  -6    4.10    0.43 
   9   1   6    3.88    0.38 
   9   1   6    4.11    0.28 
   9   1   6    3.31    0.35 
   8  -2  -6    1.19    0.40 
   8  -2  -6    1.71    0.40 
  -8   2   6    0.93    0.31 
   7  -2  -6    0.37    0.21 
   7  -2  -6   -0.28    0.27 
   7  -2  -6   -0.26    0.26 
  -7   2   6    0.07    0.20 
   6  -2  -6    0.77    0.29 
   6  -2  -6    0.58    0.20 
   6  -2  -6    0.48    0.24 
  -6   2   6    0.64    0.21 
   5  -2  -6    7.34    0.38 
   5  -2  -6    6.08    0.48 
   5  -2  -6    6.91    0.40 
  -5   2   6    6.87    0.37 
   4  -2  -6    2.37    0.32 
   4  -2  -6    3.36    0.27 
   4  -2  -6    3.20    0.30 
  -4   2   6    2.65    0.21 
  -4   2   6    2.60    0.25 
  -4   2   6    3.09    0.26 
   3  -2  -6    0.29    0.20 
   3  -2  -6    0.26    0.21 
   3  -2  -6    0.08    0.15 
  -3   2   6   -0.05    0.10 
  -3   2   6    0.08    0.09 
  -3   2   6    0.10    0.11 
  -3   2   6    0.10    0.11 
   2  -2  -6    2.50    0.27 
   2  -2  -6    2.89    0.27 
   2  -2  -6    2.78    0.22 
  -2   2   6    2.60    0.17 
  -2   2   6    2.42    0.18 
  -2   2   6    2.33    0.16 
  -2   2   6    2.57    0.19 
   1  -2  -6   12.11    0.46 
   1  -2  -6   11.28    0.39 
   1  -2  -6   11.36    0.33 
  -1   2   6   11.58    0.29 
  -1   2   6   11.63    0.26 
  -1   2   6   11.00    0.31 
  -1   2   6   11.37    0.30 
   0  -2  -6    1.76    0.25 
   0  -2  -6    2.41    0.18 
   0  -2  -6    2.56    0.20 
   0   2   6    2.29    0.18 
   0   2   6    2.05    0.15 
   0   2   6    2.36    0.11 
   0   2   6    2.16    0.16 
  -1  -2  -6    5.52    0.23 
  -1  -2  -6    5.75    0.35 
  -1  -2  -6    5.81    0.21 
  -1  -2  -6    5.59    0.24 
   1   2   6    5.68    0.24 
   1   2   6    5.63    0.16 
   1   2   6    5.36    0.20 
  -2  -2  -6   23.35    0.66 
  -2  -2  -6   24.01    0.41 
  -2  -2  -6   24.43    0.52 
   2   2   6   23.34    0.51 
   2   2   6   23.74    0.42 
   2   2   6   24.18    0.42 
  -3  -2  -6   13.78    0.41 
  -3  -2  -6   13.44    0.52 
   3   2   6   13.14    0.39 
   3   2   6   13.56    0.30 
   3   2   6   14.31    0.33 
  -4  -2  -6   13.14    0.54 
   4   2   6   13.76    0.31 
   4   2   6   14.07    0.36 
   4   2   6   13.29    0.41 
  -5  -2  -6    9.41    0.48 
  -5  -2  -6    8.30    0.40 
   5   2   6    8.86    0.34 
   5   2   6    8.17    0.36 
   5   2   6    8.71    0.26 
  -6  -2  -6    0.29    0.18 
  -6  -2  -6    0.80    0.24 
   6   2   6    0.53    0.17 
   6   2   6    0.28    0.10 
   6   2   6    0.38    0.16 
  -7  -2  -6    2.14    0.28 
   7   2   6    1.83    0.25 
   7   2   6    2.17    0.17 
   7   2   6    2.13    0.25 
  -8  -2  -6    1.81    0.29 
   8   2   6    2.13    0.29 
   8   2   6    2.07    0.27 
   8   2   6    1.96    0.18 
  -9  -2  -6    0.51    0.26 
   9   2   6    0.75    0.24 
   9   2   6    1.42    0.28 
   9   2   6    0.72    0.17 
   8  -3  -6    0.58    0.35 
   8  -3  -6    0.60    0.33 
   8  -3  -6    0.92    0.27 
  -8   3   6    0.85    0.30 
   7  -3  -6   -0.23    0.21 
   7  -3  -6    0.28    0.28 
   7  -3  -6   -0.22    0.27 
  -7   3   6   -0.18    0.21 
   6  -3  -6    0.64    0.32 
   6  -3  -6    1.22    0.26 
  -6   3   6    1.31    0.25 
   5  -3  -6    3.33    0.30 
   5  -3  -6    3.76    0.29 
   5  -3  -6    2.86    0.35 
  -5   3   6    2.79    0.25 
  -5   3   6    2.96    0.28 
   4  -3  -6    4.00    0.31 
   4  -3  -6    3.55    0.36 
   4  -3  -6    4.33    0.32 
  -4   3   6    3.78    0.28 
  -4   3   6    4.51    0.27 
   3  -3  -6    0.43    0.17 
   3  -3  -6    0.45    0.16 
   3  -3  -6    0.55    0.24 
   3  -3  -6    0.20    0.23 
  -3   3   6    0.50    0.13 
  -3   3   6    0.36    0.13 
  -3   3   6    0.32    0.13 
   2  -3  -6    2.23    0.25 
   2  -3  -6    2.14    0.28 
   2  -3  -6    2.29    0.20 
  -2   3   6    2.15    0.18 
  -2   3   6    2.16    0.18 
  -2   3   6    1.70    0.16 
   1  -3  -6    6.81    0.38 
   1  -3  -6    7.33    0.35 
   1  -3  -6    7.59    0.27 
  -1   3   6    7.39    0.25 
  -1   3   6    7.13    0.25 
  -1   3   6    6.89    0.25 
  -1   3   6    7.66    0.19 
   0  -3  -6    0.24    0.18 
   0  -3  -6    0.50    0.10 
   0  -3  -6    0.54    0.14 
   0   3   6    0.53    0.11 
   0   3   6    0.90    0.11 
   0   3   6    0.67    0.12 
   0   3   6    0.72    0.06 
  -1  -3  -6    0.16    0.10 
  -1  -3  -6    0.29    0.19 
   1   3   6    0.19    0.10 
   1   3   6    0.19    0.08 
  -2  -3  -6    0.87    0.23 
  -2  -3  -6    1.21    0.12 
  -2  -3  -6    0.75    0.15 
   2   3   6    1.23    0.09 
   2   3   6    1.00    0.15 
   2   3   6    1.29    0.11 
  -3  -3  -6    4.06    0.27 
  -3  -3  -6    4.06    0.37 
  -3  -3  -6    4.19    0.17 
   3   3   6    4.30    0.25 
   3   3   6    4.13    0.18 
   3   3   6    3.94    0.17 
  -4  -3  -6    4.15    0.38 
  -4  -3  -6    4.52    0.30 
   4   3   6    4.42    0.22 
   4   3   6    4.12    0.17 
   4   3   6    4.37    0.27 
  -5  -3  -6   25.30    0.65 
  -5  -3  -6   24.99    0.77 
   5   3   6   26.03    0.60 
   5   3   6   25.56    0.43 
   5   3   6   26.35    0.56 
  -6  -3  -6    0.68    0.25 
  -6  -3  -6    0.35    0.17 
   6   3   6    0.48    0.16 
   6   3   6    0.36    0.09 
   6   3   6    0.38    0.17 
  -7  -3  -6   -0.22    0.16 
   7   3   6    0.17    0.09 
   7   3   6    0.07    0.15 
   7   3   6   -0.08    0.16 
  -8  -3  -6    0.55    0.22 
   8   3   6    0.56    0.12 
   8   3   6    0.43    0.21 
   8   3   6    0.58    0.20 
  -9  -3  -6   -0.01    0.23 
   9   3   6    0.07    0.12 
   9   3   6    0.34    0.22 
   9   3   6   -0.02    0.22 
   8  -4  -6    0.54    0.35 
  -8   4   6   -0.19    0.23 
   7  -4  -6   -0.39    0.26 
   7  -4  -6    0.03    0.31 
  -7   4   6    0.21    0.22 
   6  -4  -6    0.35    0.22 
   6  -4  -6    0.46    0.29 
  -6   4   6    0.22    0.20 
  -6   4   6    0.14    0.18 
   5  -4  -6    0.82    0.20 
   5  -4  -6    0.67    0.21 
   5  -4  -6    0.35    0.26 
  -5   4   6    1.34    0.22 
  -5   4   6    0.67    0.19 
   4  -4  -6    0.43    0.17 
   4  -4  -6    0.56    0.24 
   4  -4  -6    0.41    0.17 
  -4   4   6    0.34    0.15 
  -4   4   6    0.45    0.15 
   3  -4  -6   13.74    0.54 
   3  -4  -6   14.57    0.44 
   3  -4  -6   14.00    0.53 
   3  -4  -6   13.72    0.39 
  -3   4   6   14.71    0.43 
  -3   4   6   14.51    0.44 
  -3   4   6   14.41    0.42 
   2  -4  -6    1.91    0.29 
   2  -4  -6    2.07    0.15 
   2  -4  -6    1.95    0.19 
   2  -4  -6    1.77    0.25 
  -2   4   6    1.99    0.19 
  -2   4   6    1.76    0.17 
  -2   4   6    1.84    0.18 
   1  -4  -6   13.74    0.45 
   1  -4  -6   14.32    0.25 
   1  -4  -6   14.28    0.56 
   1  -4  -6   14.28    0.38 
  -1   4   6   14.37    0.36 
  -1   4   6   14.32    0.39 
  -1   4   6   13.96    0.36 
   0  -4  -6    0.63    0.23 
   0  -4  -6    1.00    0.16 
   0   4   6    0.90    0.12 
   0   4   6    1.00    0.13 
   0   4   6    1.02    0.15 
  -1  -4  -6    8.29    0.30 
  -1  -4  -6    8.77    0.46 
   1   4   6    8.41    0.31 
   1   4   6    8.44    0.25 
   1   4   6    8.63    0.29 
  -2  -4  -6    1.06    0.25 
  -2  -4  -6    1.03    0.17 
  -2  -4  -6    1.08    0.14 
   2   4   6    1.27    0.15 
   2   4   6    1.26    0.11 
  -3  -4  -6   -0.21    0.20 
  -3  -4  -6   -0.03    0.10 
  -3  -4  -6   -0.21    0.13 
   3   4   6    0.02    0.07 
   3   4   6   -0.10    0.07 
   3   4   6   -0.15    0.12 
  -4  -4  -6   65.84    1.03 
  -4  -4  -6   64.52    1.14 
  -4  -4  -6   65.67    1.36 
   4   4   6   66.71    0.98 
   4   4   6   64.93    1.08 
   4   4   6   65.69    0.86 
  -5  -4  -6   34.76    0.77 
  -5  -4  -6   35.41    0.94 
   5   4   6   34.97    0.67 
   5   4   6   34.18    0.50 
   5   4   6   34.04    0.72 
  -6  -4  -6    2.89    0.28 
  -6  -4  -6    3.47    0.39 
   6   4   6    3.28    0.27 
   6   4   6    3.23    0.27 
   6   4   6    3.23    0.15 
  -7  -4  -6    0.21    0.26 
  -7  -4  -6    0.00    0.18 
   7   4   6    0.32    0.17 
   7   4   6    0.29    0.09 
   7   4   6    0.27    0.18 
  -8  -4  -6   -0.05    0.19 
   8   4   6    0.14    0.19 
   8   4   6    0.13    0.18 
   8   4   6    0.03    0.09 
  -9  -4  -6    3.93    0.39 
   9   4   6    4.72    0.40 
   9   4   6    3.69    0.36 
   9   4   6    3.97    0.23 
   7  -5  -6    0.46    0.33 
  -7   5   6    0.75    0.27 
  -7   5   6    0.42    0.25 
   6  -5  -6    0.16    0.28 
  -6   5   6    0.22    0.20 
  -6   5   6    0.36    0.22 
   5  -5  -6    0.26    0.26 
  -5   5   6    0.33    0.19 
  -5   5   6    0.45    0.19 
   4  -5  -6    1.92    0.30 
  -4   5   6    1.83    0.24 
  -4   5   6    1.87    0.23 
   3  -5  -6    1.77    0.30 
   3  -5  -6    0.97    0.25 
  -3   5   6    1.34    0.18 
  -3   5   6    1.64    0.21 
  -3   5   6    1.36    0.20 
   2  -5  -6   48.42    0.99 
   2  -5  -6   49.10    1.10 
  -2   5   6   47.78    0.85 
  -2   5   6   47.49    0.89 
  -2   5   6   48.86    0.83 
   1  -5  -6   44.52    1.06 
   1  -5  -6   45.36    0.91 
  -1   5   6   44.56    0.75 
  -1   5   6   45.13    0.76 
  -1   5   6   45.47    0.83 
   0  -5  -6    0.15    0.15 
   0  -5  -6    0.51    0.25 
   0   5   6    0.20    0.13 
   0   5   6    0.14    0.11 
   0   5   6    0.25    0.10 
  -1  -5  -6    3.00    0.34 
  -1  -5  -6    2.75    0.23 
   1   5   6    2.45    0.22 
   1   5   6    2.91    0.20 
   1   5   6    2.90    0.19 
  -2  -5  -6    8.14    0.32 
  -2  -5  -6    8.16    0.50 
   2   5   6    8.51    0.31 
   2   5   6    8.48    0.24 
   2   5   6    9.07    0.35 
  -3  -5  -6   11.20    0.37 
  -3  -5  -6   10.59    0.57 
   3   5   6   10.81    0.37 
   3   5   6   10.93    0.25 
  -4  -5  -6    5.17    0.47 
  -4  -5  -6    4.94    0.27 
  -4  -5  -6    5.11    0.32 
   4   5   6    4.55    0.30 
   4   5   6    4.62    0.17 
  -5  -5  -6    7.51    0.39 
  -5  -5  -6    6.90    0.50 
   5   5   6    6.74    0.18 
   5   5   6    6.69    0.33 
  -6  -5  -6   12.08    0.62 
  -6  -5  -6   12.10    0.48 
   6   5   6   12.30    0.24 
   6   5   6   12.70    0.44 
   6   5   6   12.02    0.45 
  -7  -5  -6    3.24    0.41 
  -7  -5  -6    2.98    0.31 
   7   5   6    2.91    0.29 
   7   5   6    3.12    0.14 
  -8  -5  -6    0.11    0.20 
   8   5   6   -0.15    0.07 
   8   5   6   -0.24    0.18 
  -9  -5  -6    1.08    0.27 
   9   5   6    1.42    0.29 
   9   5   6    1.36    0.14 
   7  -6  -6    6.16    0.55 
  -7   6   6    6.57    0.50 
  -7   6   6    6.14    0.52 
   6  -6  -6    0.82    0.32 
  -6   6   6    0.46    0.22 
  -6   6   6    0.39    0.25 
   5  -6  -6    0.48    0.28 
  -5   6   6    0.25    0.19 
  -5   6   6    0.59    0.20 
   4  -6  -6    1.95    0.31 
  -4   6   6    1.25    0.23 
  -4   6   6    1.48    0.21 
   3  -6  -6    0.57    0.23 
   3  -6  -6    0.97    0.28 
  -3   6   6    0.45    0.18 
  -3   6   6    0.71    0.15 
  -3   6   6    0.63    0.20 
   2  -6  -6    6.13    0.48 
   2  -6  -6    6.05    0.42 
  -2   6   6    6.16    0.34 
  -2   6   6    6.47    0.28 
  -2   6   6    6.06    0.32 
   1  -6  -6    9.99    0.45 
   1  -6  -6   10.27    0.56 
  -1   6   6   10.68    0.32 
  -1   6   6   11.09    0.38 
  -1   6   6    9.73    0.38 
   0  -6  -6    3.74    0.30 
   0  -6  -6    3.34    0.40 
   0   6   6    4.07    0.29 
   0   6   6    3.66    0.24 
   0   6   6    3.84    0.22 
  -1  -6  -6    4.29    0.43 
  -1  -6  -6    4.11    0.31 
   1   6   6    4.52    0.29 
   1   6   6    4.16    0.23 
   1   6   6    3.79    0.22 
  -2  -6  -6    7.01    0.34 
  -2  -6  -6    6.18    0.51 
   2   6   6    7.65    0.29 
   2   6   6    6.91    0.34 
   2   6   6    6.84    0.24 
  -3  -6  -6    1.49    0.20 
  -3  -6  -6    1.19    0.31 
   3   6   6    1.28    0.20 
   3   6   6    1.47    0.18 
   3   6   6    1.35    0.12 
  -4  -6  -6    3.42    0.27 
  -4  -6  -6    3.64    0.42 
   4   6   6    2.88    0.14 
   4   6   6    2.90    0.24 
   4   6   6    3.00    0.27 
  -5  -6  -6   26.36    0.67 
  -5  -6  -6   28.23    0.92 
  -5  -6  -6   27.45    0.70 
   5   6   6   27.18    0.41 
   5   6   6   27.81    0.64 
  -6  -6  -6    7.20    0.58 
  -6  -6  -6    6.96    0.41 
   6   6   6    7.39    0.36 
   6   6   6    7.31    0.17 
  -7  -6  -6    0.37    0.20 
  -7  -6  -6    0.31    0.29 
   7   6   6    0.01    0.16 
   7   6   6    0.32    0.06 
  -8  -6  -6    0.12    0.20 
   8   6   6    0.10    0.19 
   8   6   6   -0.03    0.07 
  -9  -6  -6   -0.07    0.21 
   9   6   6    0.09    0.21 
   9   6   6    0.12    0.09 
   6  -7  -6    0.20    0.30 
  -6   7   6    0.72    0.28 
   5  -7  -6    0.32    0.28 
  -5   7   6    0.16    0.23 
   4  -7  -6    1.03    0.30 
  -4   7   6    0.71    0.23 
   3  -7  -6    0.59    0.24 
   3  -7  -6    0.93    0.32 
  -3   7   6    0.49    0.19 
  -3   7   6    0.61    0.23 
   2  -7  -6    4.33    0.45 
   2  -7  -6    4.73    0.40 
  -2   7   6    5.43    0.36 
  -2   7   6    5.77    0.37 
  -2   7   6    4.79    0.28 
   1  -7  -6   59.39    1.17 
   1  -7  -6   59.18    1.36 
  -1   7   6   60.21    0.95 
  -1   7   6   58.22    1.09 
  -1   7   6   58.84    1.01 
   0  -7  -6   36.89    0.85 
   0  -7  -6   36.91    1.06 
   0   7   6   36.77    0.64 
   0   7   6   36.39    0.70 
   0   7   6   36.37    0.79 
  -1  -7  -6    0.01    0.16 
  -1  -7  -6    0.15    0.28 
   1   7   6    0.07    0.11 
   1   7   6    0.21    0.15 
   1   7   6    0.06    0.09 
  -2  -7  -6    1.27    0.21 
  -2  -7  -6    1.30    0.34 
   2   7   6    1.44    0.16 
   2   7   6    1.20    0.13 
   2   7   6    1.75    0.22 
  -3  -7  -6    0.53    0.19 
  -3  -7  -6    0.19    0.30 
   3   7   6    0.49    0.10 
   3   7   6    0.60    0.14 
   3   7   6    0.60    0.17 
  -4  -7  -6    0.09    0.29 
  -4  -7  -6    0.06    0.16 
   4   7   6    0.15    0.15 
   4   7   6    0.02    0.13 
   4   7   6    0.10    0.08 
  -5  -7  -6    1.64    0.25 
  -5  -7  -6    1.13    0.36 
   5   7   6    1.41    0.10 
   5   7   6    1.52    0.21 
   5   7   6    1.53    0.23 
  -6  -7  -6    1.17    0.35 
   6   7   6    0.76    0.20 
   6   7   6    0.83    0.08 
   6   7   6    0.87    0.19 
  -7  -7  -6    0.30    0.35 
   7   7   6    0.63    0.20 
  -8  -7  -6    3.19    0.36 
   8   7   6    3.74    0.35 
   5  -8  -6    1.07    0.36 
  -5   8   6    1.23    0.31 
   4  -8  -6    1.72    0.34 
  -4   8   6    1.42    0.29 
   3  -8  -6    1.05    0.30 
  -3   8   6    1.14    0.24 
   2  -8  -6    0.93    0.34 
   2  -8  -6    0.97    0.29 
  -2   8   6    0.80    0.21 
  -2   8   6    1.21    0.24 
   1  -8  -6    0.81    0.25 
   1  -8  -6    0.16    0.33 
  -1   8   6    0.71    0.20 
  -1   8   6    0.61    0.20 
   0  -8  -6    2.08    0.29 
   0  -8  -6    1.80    0.39 
   0   8   6    1.99    0.24 
   0   8   6    2.29    0.23 
  -1  -8  -6    1.19    0.24 
  -1  -8  -6    1.10    0.37 
   1   8   6    1.18    0.17 
   1   8   6    1.41    0.22 
  -2  -8  -6    7.38    0.42 
  -2  -8  -6    7.43    0.60 
   2   8   6    6.71    0.29 
   2   8   6    7.65    0.40 
  -3  -8  -6    3.02    0.46 
  -3  -8  -6    2.80    0.30 
   3   8   6    2.60    0.20 
   3   8   6    1.73    0.24 
  -4  -8  -6    1.46    0.39 
  -4  -8  -6    1.59    0.27 
   4   8   6    1.49    0.24 
   4   8   6    1.00    0.13 
  -5  -8  -6    0.39    0.34 
  -5  -8  -6    0.16    0.20 
   5   8   6    0.11    0.08 
   5   8   6    0.25    0.18 
  -6  -8  -6    0.76    0.37 
   6   8   6    0.78    0.21 
   6   8   6    0.71    0.09 
  -7  -8  -6    0.09    0.36 
   7   8   6    0.53    0.21 
   8   8   6   -0.04    0.20 
   4  -9  -6    0.12    0.30 
  -4   9   6    0.32    0.25 
   3  -9  -6    0.34    0.30 
  -3   9   6    0.50    0.23 
   2  -9  -6    1.53    0.33 
   2  -9  -6    1.71    0.41 
  -2   9   6    1.51    0.26 
  -2   9   6    1.70    0.30 
   1  -9  -6   -0.19    0.23 
   1  -9  -6    0.03    0.32 
  -1   9   6   -0.23    0.19 
  -1   9   6   -0.07    0.17 
   0  -9  -6   13.20    0.75 
   0  -9  -6   12.35    0.58 
   0   9   6   13.24    0.53 
   0   9   6   13.18    0.51 
  -1  -9  -6   12.12    0.74 
  -1  -9  -6   12.94    0.59 
   1   9   6   12.84    0.51 
   1   9   6   12.73    0.45 
  -2  -9  -6    0.05    0.33 
  -2  -9  -6    0.31    0.22 
   2   9   6    0.13    0.14 
   2   9   6    0.25    0.18 
  -3  -9  -6    2.84    0.35 
  -3  -9  -6    3.42    0.50 
   3   9   6    2.84    0.31 
   3   9   6    2.55    0.21 
  -4  -9  -6    4.44    0.57 
  -4  -9  -6    4.43    0.41 
   4   9   6    3.84    0.34 
   4   9   6    3.96    0.23 
  -5  -9  -6    4.20    0.42 
  -5  -9  -6    3.71    0.55 
   5   9   6    3.54    0.21 
   5   9   6    3.98    0.35 
  -6  -9  -6    1.03    0.42 
   6   9   6    0.68    0.11 
   6   9   6    0.81    0.23 
  -7  -9  -6    0.13    0.37 
   7   9   6    0.01    0.08 
   7   9   6    0.09    0.19 
   3 -10  -6    0.39    0.33 
  -3  10   6   -0.04    0.22 
   2 -10  -6    0.44    0.32 
  -2  10   6   -0.22    0.31 
  -2  10   6    0.80    0.30 
  -2  10   6    0.57    0.24 
   1 -10  -6    2.26    0.38 
  -1  10   6    2.37    0.32 
  -1  10   6    2.87    0.36 
   0 -10  -6    0.24    0.27 
   0 -10  -6    0.15    0.37 
   0  10   6    0.08    0.20 
   0  10   6    0.08    0.22 
  -1 -10  -6    0.96    0.30 
  -1 -10  -6    1.29    0.45 
   1  10   6    1.63    0.27 
   1  10   6    1.39    0.26 
  -2 -10  -6    2.15    0.50 
  -2 -10  -6    1.11    0.31 
   2  10   6    1.75    0.28 
   2  10   6    1.90    0.25 
  -3 -10  -6   10.34    0.61 
  -3 -10  -6   10.65    0.83 
   3  10   6   10.41    0.42 
   3  10   6   10.21    0.51 
  -4 -10  -6    1.34    0.32 
  -4 -10  -6    0.74    0.44 
   4  10   6    0.95    0.17 
   4  10   6    1.02    0.26 
  -5 -10  -6   -0.01    0.27 
  -5 -10  -6   -0.36    0.36 
   5  10   6   -0.05    0.19 
   5  10   6    0.15    0.14 
  -6 -10  -6    0.65    0.40 
   6  10   6   -0.05    0.12 
   6  10   6    0.00    0.20 
   1 -11  -6    0.83    0.32 
  -1  11   6    0.90    0.27 
  -1  11   6    1.45    0.42 
  -1  11   6    0.40    0.30 
   0 -11  -6    0.61    0.33 
   0  11   6    1.26    0.32 
   0  11   6    0.19    0.35 
   0  11   6    0.59    0.25 
  -1 -11  -6    0.20    0.30 
   1  11   6    0.06    0.24 
   1  11   6    0.61    0.24 
   1  11   6    0.28    0.39 
  -2 -11  -6    0.72    0.33 
   2  11   6    0.58    0.24 
   2  11   6    0.35    0.22 
  -3 -11  -6    1.27    0.36 
   3  11   6    1.41    0.28 
   3  11   6    1.02    0.24 
  -4 -11  -6    1.28    0.36 
   4  11   6    1.02    0.26 
   4  11   6    1.47    0.24 
   1   8  -7    0.43    0.41 
   1   8  -7    0.95    0.35 
  -1  -8   7    1.31    0.29 
   0   8  -7    1.15    0.45 
   0  -8   7    1.34    0.30 
   4   7  -7    9.36    0.78 
   4   7  -7    7.94    0.74 
   4   7  -7    9.77    0.60 
  -4  -7   7    8.93    0.53 
   3   7  -7   -0.22    0.36 
   3   7  -7    0.26    0.33 
   3   7  -7    0.14    0.27 
  -3  -7   7   -0.09    0.21 
   2   7  -7    0.01    0.37 
   2   7  -7    0.04    0.31 
   2   7  -7   -0.40    0.27 
  -2  -7   7   -0.29    0.19 
   1   7  -7    1.82    0.46 
   1   7  -7    1.14    0.33 
  -1  -7   7    2.30    0.32 
   0   7  -7    0.44    0.32 
   0   7  -7    1.09    0.44 
   0  -7   7    0.40    0.30 
   0  -7   7    1.20    0.27 
  -1   7  -7    0.29    0.36 
   1  -7   7    0.46    0.23 
  -2   7  -7    0.17    0.35 
   2  -7   7    0.37    0.25 
  -3   7  -7    2.44    0.49 
   3  -7   7    2.42    0.36 
   5   6  -7   -0.22    0.37 
   5   6  -7   -0.02    0.25 
   5   6  -7   -0.35    0.35 
  -5  -6   7    0.15    0.23 
   4   6  -7   -0.32    0.34 
   4   6  -7    0.08    0.24 
   4   6  -7   -0.37    0.32 
  -4  -6   7   -0.02    0.20 
   3   6  -7    2.34    0.42 
   3   6  -7    1.13    0.39 
   3   6  -7    1.20    0.31 
  -3  -6   7    1.82    0.28 
   2   6  -7    5.21    0.45 
   2   6  -7    3.91    0.46 
   2   6  -7    4.28    0.55 
  -2  -6   7    4.49    0.37 
   1   6  -7    3.30    0.39 
   1   6  -7    2.60    0.47 
  -1  -6   7    3.07    0.32 
   0   6  -7    2.83    0.46 
   0   6  -7    2.34    0.35 
   0  -6   7    1.84    0.27 
   0  -6   7    3.07    0.37 
  -1   6  -7    0.12    0.32 
   1  -6   7    0.52    0.22 
  -2   6  -7    2.81    0.47 
   2  -6   7    2.90    0.33 
  -3   6  -7    0.04    0.31 
   3  -6   7   -0.08    0.22 
  -4   6  -7   10.71    0.74 
  -4   6  -7   10.57    0.62 
   4  -6   7   10.76    0.56 
  -5   6  -7    0.88    0.31 
   5  -6   7    1.27    0.31 
   6   5  -7    2.23    0.32 
   6   5  -7    2.61    0.50 
  -6  -5   7    2.37    0.35 
   5   5  -7    2.85    0.34 
   5   5  -7    2.18    0.44 
   5   5  -7    2.87    0.47 
  -5  -5   7    2.87    0.34 
   4   5  -7    0.81    0.26 
   4   5  -7    0.98    0.36 
   4   5  -7    1.16    0.37 
  -4  -5   7    1.55    0.25 
   3   5  -7    7.14    0.57 
   3   5  -7    6.50    0.47 
   3   5  -7    5.75    0.55 
  -3  -5   7    6.66    0.40 
   2   5  -7    0.41    0.28 
   2   5  -7    0.54    0.25 
   2   5  -7    0.76    0.33 
  -2  -5   7    0.89    0.20 
   1   5  -7    2.20    0.32 
   1   5  -7    1.60    0.38 
   1   5  -7    2.25    0.34 
  -1  -5   7    2.62    0.28 
   0   5  -7   -0.11    0.22 
   0   5  -7    0.55    0.31 
   0  -5   7    0.17    0.17 
  -1   5  -7    0.56    0.26 
  -1   5  -7    0.45    0.31 
   1  -5   7    0.36    0.18 
   1  -5   7    0.46    0.22 
  -2   5  -7    2.89    0.44 
   2  -5   7    3.82    0.34 
  -3   5  -7    2.95    0.43 
  -3   5  -7    3.38    0.35 
   3  -5   7    3.06    0.32 
  -4   5  -7    7.05    0.58 
  -4   5  -7    7.79    0.50 
   4  -5   7    8.18    0.48 
  -5   5  -7    0.30    0.26 
   5  -5   7    0.47    0.28 
  -6   5  -7    1.55    0.35 
   6  -5   7    1.37    0.34 
   7   4  -7    1.07    0.46 
   7   4  -7    1.64    0.31 
  -7  -4   7    2.31    0.37 
  -7  -4   7    1.83    0.33 
   6   4  -7    2.63    0.48 
   6   4  -7    1.76    0.29 
  -6  -4   7    2.57    0.33 
  -6  -4   7    2.24    0.34 
   5   4  -7    0.27    0.31 
   5   4  -7    0.19    0.22 
   5   4  -7    0.12    0.30 
  -5  -4   7    0.55    0.21 
  -5  -4   7    0.37    0.21 
   4   4  -7   -0.35    0.19 
   4   4  -7    0.14    0.28 
   4   4  -7    0.22    0.28 
  -4  -4   7    0.04    0.15 
  -4  -4   7    0.03    0.16 
   3   4  -7    0.51    0.23 
   3   4  -7    0.75    0.32 
   3   4  -7    0.45    0.29 
  -3  -4   7    0.53    0.17 
  -3  -4   7    0.70    0.16 
   2   4  -7    0.60    0.31 
   2   4  -7    0.99    0.28 
   2   4  -7    1.33    0.25 
  -2  -4   7    1.50    0.21 
  -2  -4   7    0.93    0.16 
   1   4  -7   16.72    0.58 
   1   4  -7   15.58    0.62 
   1   4  -7   15.33    0.71 
  -1  -4   7   15.29    0.49 
   0   4  -7    3.67    0.34 
   0   4  -7    3.70    0.35 
   0   4  -7    2.42    0.37 
   0  -4   7    3.51    0.28 
  -1   4  -7    0.30    0.27 
  -1   4  -7    0.56    0.23 
   1  -4   7    0.64    0.18 
  -2   4  -7    1.32    0.34 
  -2   4  -7    1.02    0.21 
   2  -4   7    1.44    0.24 
  -3   4  -7   10.10    0.63 
  -3   4  -7   12.30    0.52 
   3  -4   7   10.75    0.47 
  -4   4  -7   -0.19    0.25 
  -4   4  -7    0.50    0.22 
   4  -4   7   -0.19    0.19 
  -5   4  -7   10.42    0.57 
  -5   4  -7   10.64    0.65 
   5  -4   7   10.56    0.56 
  -6   4  -7    0.20    0.26 
   6  -4   7    0.08    0.25 
  -7   4  -7    1.13    0.34 
   7  -4   7    1.90    0.36 
   7   3  -7   10.20    0.81 
   7   3  -7   10.22    0.55 
  -7  -3   7   11.23    0.59 
  -7  -3   7   10.45    0.58 
   6   3  -7    4.33    0.52 
   6   3  -7    3.76    0.34 
  -6  -3   7    4.62    0.42 
  -6  -3   7    3.61    0.37 
   5   3  -7    0.75    0.23 
   5   3  -7    0.45    0.27 
   5   3  -7    0.54    0.32 
  -5  -3   7    0.65    0.20 
  -5  -3   7    0.58    0.21 
   4   3  -7    0.23    0.28 
   4   3  -7    0.40    0.27 
   4   3  -7    0.29    0.20 
  -4  -3   7    0.43    0.17 
  -4  -3   7    0.40    0.17 
   3   3  -7    0.58    0.22 
   3   3  -7    0.81    0.29 
   3   3  -7    0.77    0.26 
  -3  -3   7    0.88    0.18 
  -3  -3   7    0.79    0.16 
   2   3  -7   -0.03    0.18 
   2   3  -7   -0.17    0.23 
   2   3  -7    0.10    0.22 
  -2  -3   7    0.05    0.12 
  -2  -3   7   -0.02    0.10 
   1   3  -7    7.66    0.42 
   1   3  -7    6.98    0.51 
   1   3  -7    7.81    0.44 
  -1  -3   7    8.02    0.34 
  -1  -3   7    8.24    0.29 
   0   3  -7    8.30    0.51 
   0   3  -7    9.67    0.45 
   0   3  -7    8.94    0.44 
   0  -3   7    9.31    0.31 
   0  -3   7    9.03    0.36 
  -1   3  -7   -0.17    0.12 
  -1   3  -7    0.01    0.16 
  -1   3  -7    0.09    0.23 
  -1   3  -7    0.05    0.19 
   1  -3   7   -0.07    0.13 
   1  -3   7   -0.04    0.11 
  -2   3  -7    1.41    0.32 
  -2   3  -7    1.93    0.23 
   2  -3   7    2.19    0.21 
   2  -3   7    1.62    0.21 
  -3   3  -7    0.70    0.27 
  -3   3  -7    0.78    0.20 
   3  -3   7    0.67    0.17 
   3  -3   7    0.62    0.19 
  -4   3  -7   16.14    0.60 
  -4   3  -7   15.92    0.70 
   4  -3   7   16.18    0.49 
   4  -3   7   17.00    0.53 
   4  -3   7   16.49    0.57 
  -5   3  -7    0.12    0.27 
  -5   3  -7    0.46    0.22 
   5  -3   7    0.51    0.19 
   5  -3   7    0.38    0.22 
   5  -3   7    0.37    0.18 
  -6   3  -7    0.13    0.22 
   6  -3   7    0.37    0.20 
   6  -3   7    0.00    0.19 
   6  -3   7    0.27    0.24 
  -7   3  -7    4.06    0.44 
   7  -3   7    3.79    0.36 
   7  -3   7    3.24    0.40 
  -8   3  -7    3.85    0.45 
   8  -3   7    3.48    0.43 
   8   2  -7   -0.16    0.24 
   8   2  -7   -0.43    0.38 
  -8  -2   7    0.34    0.25 
  -8  -2   7    0.16    0.26 
   7   2  -7    0.17    0.23 
   7   2  -7   -0.21    0.34 
  -7  -2   7   -0.26    0.20 
  -7  -2   7    0.15    0.23 
   6   2  -7    6.83    0.44 
   6   2  -7    5.34    0.53 
  -6  -2   7    6.18    0.43 
  -6  -2   7    5.66    0.42 
   5   2  -7   -0.04    0.24 
   5   2  -7    0.27    0.28 
   5   2  -7    0.03    0.19 
  -5  -2   7    0.01    0.16 
  -5  -2   7    0.15    0.16 
   4   2  -7    0.24    0.18 
   4   2  -7    0.11    0.26 
   4   2  -7    0.21    0.25 
  -4  -2   7    0.08    0.14 
  -4  -2   7    0.27    0.16 
   3   2  -7    0.17    0.23 
   3   2  -7   -0.28    0.22 
   3   2  -7    0.04    0.18 
  -3  -2   7    0.22    0.13 
  -3  -2   7    0.25    0.13 
   2   2  -7    5.84    0.42 
   2   2  -7    6.39    0.38 
   2   2  -7    5.84    0.47 
  -2  -2   7    6.29    0.27 
  -2  -2   7    6.31    0.30 
   1   2  -7    1.39    0.25 
   1   2  -7    1.37    0.23 
   1   2  -7    1.38    0.32 
  -1  -2   7    1.23    0.17 
  -1  -2   7    1.52    0.16 
   0   2  -7   14.37    0.49 
   0   2  -7   13.67    0.62 
   0   2  -7   13.28    0.49 
   0   2  -7   14.02    0.36 
   0  -2   7   13.02    0.37 
   0  -2   7   14.43    0.42 
  -1   2  -7    7.35    0.36 
  -1   2  -7    7.25    0.50 
  -1   2  -7    7.30    0.40 
  -1   2  -7    7.97    0.32 
   1  -2   7    7.54    0.33 
   1  -2   7    7.26    0.30 
   1  -2   7    7.32    0.30 
  -2   2  -7    1.14    0.19 
  -2   2  -7    1.11    0.30 
   2  -2   7    1.38    0.17 
   2  -2   7    1.01    0.19 
   2  -2   7    0.88    0.17 
  -3   2  -7    1.49    0.22 
  -3   2  -7    1.47    0.30 
   3  -2   7    1.86    0.19 
   3  -2   7    1.72    0.21 
   3  -2   7    1.33    0.21 
  -4   2  -7   13.15    0.52 
  -4   2  -7   12.51    0.60 
   4  -2   7   12.79    0.42 
   4  -2   7   12.65    0.43 
   4  -2   7   12.88    0.49 
  -5   2  -7    1.19    0.25 
  -5   2  -7    1.05    0.31 
   5  -2   7    1.40    0.25 
   5  -2   7    1.46    0.23 
   5  -2   7    1.12    0.20 
  -6   2  -7    1.78    0.30 
   6  -2   7    2.31    0.32 
   6  -2   7    2.26    0.25 
   6  -2   7    2.06    0.27 
  -7   2  -7   -0.08    0.21 
   7  -2   7    0.04    0.18 
   7  -2   7    0.57    0.25 
   7  -2   7    0.22    0.22 
  -8   2  -7    1.69    0.35 
   8  -2   7    1.39    0.31 
   8  -2   7    1.94    0.28 
   8  -2   7    2.05    0.32 
   8   1  -7    0.73    0.26 
   8   1  -7    1.39    0.46 
  -8  -1   7    0.87    0.28 
  -8  -1   7    1.32    0.33 
   7   1  -7    0.02    0.21 
   7   1  -7    0.44    0.36 
  -7  -1   7   -0.12    0.22 
  -7  -1   7   -0.03    0.21 
   6   1  -7   12.52    0.72 
   6   1  -7   13.29    0.53 
  -6  -1   7   12.51    0.55 
  -6  -1   7   13.03    0.54 
   5   1  -7    4.65    0.33 
   5   1  -7    4.49    0.45 
  -5  -1   7    4.29    0.34 
  -5  -1   7    4.78    0.34 
   4   1  -7    9.87    0.53 
   4   1  -7   10.81    0.44 
   4   1  -7   10.99    0.57 
  -4  -1   7   10.89    0.42 
  -4  -1   7   10.68    0.42 
   3   1  -7    0.48    0.25 
   3   1  -7    0.30    0.24 
   3   1  -7    0.80    0.20 
  -3  -1   7    0.36    0.14 
  -3  -1   7    0.70    0.15 
   2   1  -7   13.28    0.58 
   2   1  -7   13.68    0.47 
   2   1  -7   13.72    0.53 
  -2  -1   7   13.61    0.39 
  -2  -1   7   14.01    0.40 
   1   1  -7    0.22    0.17 
   1   1  -7    0.18    0.19 
   1   1  -7    0.11    0.24 
  -1  -1   7    0.16    0.11 
  -1  -1   7    0.20    0.11 
   0   1  -7    9.57    0.39 
   0   1  -7    9.97    0.29 
   0   1  -7    8.99    0.50 
   0   1  -7    9.98    0.40 
   0  -1   7    9.65    0.30 
   0  -1   7   10.06    0.32 
   0  -1   7    9.49    0.32 
  -1   1  -7    0.44    0.13 
  -1   1  -7    0.27    0.15 
  -1   1  -7    0.49    0.26 
  -1   1  -7    0.34    0.16 
   1  -1   7    0.38    0.12 
   1  -1   7    0.35    0.14 
   1  -1   7    0.15    0.13 
  -2   1  -7    0.17    0.15 
  -2   1  -7    0.17    0.24 
   2  -1   7    0.25    0.14 
   2  -1   7    0.26    0.12 
   2  -1   7    0.19    0.15 
  -3   1  -7   13.41    0.47 
  -3   1  -7   12.97    0.59 
   3  -1   7   13.37    0.39 
   3  -1   7   12.72    0.43 
   3  -1   7   13.67    0.44 
  -4   1  -7    0.44    0.19 
  -4   1  -7    0.40    0.24 
   4  -1   7    0.65    0.18 
   4  -1   7    0.47    0.15 
   4  -1   7    0.52    0.19 
  -5   1  -7    3.75    0.34 
  -5   1  -7    4.73    0.43 
   5  -1   7    4.79    0.29 
   5  -1   7    4.14    0.31 
   5  -1   7    5.16    0.37 
  -6   1  -7    2.51    0.32 
   6  -1   7    3.17    0.31 
   6  -1   7    2.85    0.28 
   6  -1   7    2.71    0.24 
  -7   1  -7    1.37    0.29 
   7  -1   7    1.85    0.22 
   7  -1   7    1.47    0.26 
   7  -1   7    1.19    0.26 
  -8   1  -7    0.13    0.23 
   8  -1   7    0.36    0.24 
   8  -1   7    0.07    0.18 
   8  -1   7   -0.17    0.21 
  -9   1  -7   18.23    0.78 
   9  -1   7   19.86    0.73 
   9  -1   7   19.55    0.72 
   9  -1   7   20.39    0.62 
   8   0  -7    1.16    0.35 
   8   0  -7    0.45    0.40 
   8   0  -7    0.45    0.25 
  -8   0   7    0.55    0.27 
   7   0  -7    1.88    0.28 
   7   0  -7    0.82    0.38 
  -7   0   7    1.41    0.30 
  -7   0   7    1.18    0.27 
   6   0  -7    4.87    0.37 
   6   0  -7    4.34    0.47 
  -6   0   7    4.90    0.40 
  -6   0   7    4.99    0.37 
   5   0  -7    2.63    0.38 
   5   0  -7    2.58    0.28 
  -5   0   7    2.04    0.26 
  -5   0   7    2.59    0.28 
   4   0  -7   16.58    0.51 
   4   0  -7   15.91    0.64 
   4   0  -7   17.40    0.62 
  -4   0   7   16.92    0.50 
  -4   0   7   16.45    0.50 
   3   0  -7    3.02    0.27 
   3   0  -7    2.27    0.33 
   3   0  -7    2.18    0.32 
  -3   0   7    2.24    0.21 
  -3   0   7    2.34    0.22 
   2   0  -7    1.49    0.25 
   2   0  -7    1.37    0.21 
   2   0  -7    1.51    0.29 
  -2   0   7    1.40    0.17 
  -2   0   7    1.35    0.16 
   1   0  -7    5.27    0.34 
   1   0  -7    4.61    0.41 
   1   0  -7    5.26    0.31 
  -1   0   7    4.86    0.17 
  -1   0   7    4.32    0.23 
  -1   0   7    4.82    0.23 
  -1   0   7    4.95    0.22 
   0   0  -7    3.98    0.21 
   0   0  -7    3.85    0.28 
   0   0  -7    3.62    0.35 
   0   0  -7    3.92    0.28 
   0   0   7    4.19    0.22 
   0   0   7    4.03    0.21 
   0   0   7    4.39    0.25 
  -1   0  -7    8.80    0.31 
  -1   0  -7    8.63    0.35 
  -1   0  -7    8.42    0.31 
  -1   0  -7    8.39    0.47 
   1   0   7    8.64    0.28 
   1   0   7    9.20    0.33 
   1   0   7    9.02    0.29 
  -2   0  -7    0.85    0.13 
  -2   0  -7    0.34    0.24 
  -2   0  -7    0.93    0.17 
   2   0   7    0.70    0.15 
   2   0   7    0.65    0.13 
   2   0   7    0.68    0.15 
  -3   0  -7   31.49    0.87 
  -3   0  -7   31.87    0.71 
   3   0   7   31.68    0.67 
   3   0   7   31.44    0.59 
   3   0   7   31.29    0.65 
  -4   0  -7   24.85    0.66 
  -4   0  -7   24.22    0.77 
   4   0   7   25.20    0.53 
   4   0   7   25.49    0.60 
   4   0   7   25.96    0.61 
  -5   0  -7    0.44    0.20 
  -5   0  -7    0.23    0.23 
   5   0   7    0.15    0.17 
   5   0   7    0.28    0.13 
   5   0   7    0.31    0.18 
  -6   0  -7    2.29    0.29 
  -6   0  -7    2.71    0.35 
   6   0   7    1.89    0.24 
   6   0   7    2.14    0.26 
   6   0   7    1.83    0.20 
  -7   0  -7    1.59    0.28 
   7   0   7    1.43    0.19 
   7   0   7    1.05    0.23 
   7   0   7    1.23    0.25 
  -8   0  -7    1.98    0.33 
   8   0   7    1.69    0.30 
   8   0   7    2.28    0.24 
   8   0   7    2.02    0.29 
  -9   0  -7    0.12    0.25 
   9   0   7    0.12    0.19 
   9   0   7    0.38    0.24 
   9   0   7   -0.45    0.24 
   8  -1  -7    0.12    0.33 
   8  -1  -7    0.20    0.24 
   8  -1  -7   -0.17    0.38 
  -8   1   7    0.39    0.29 
   7  -1  -7    0.89    0.38 
   7  -1  -7    1.27    0.26 
   7  -1  -7    1.61    0.34 
  -7   1   7    1.51    0.31 
   6  -1  -7    1.33    0.24 
   6  -1  -7    1.03    0.35 
  -6   1   7    1.68    0.27 
  -6   1   7    1.28    0.25 
   5  -1  -7    4.63    0.46 
   5  -1  -7    3.61    0.31 
  -5   1   7    4.09    0.32 
  -5   1   7    4.32    0.33 
   4  -1  -7    0.95    0.25 
   4  -1  -7    1.23    0.29 
   4  -1  -7    1.11    0.21 
  -4   1   7    1.38    0.20 
  -4   1   7    1.15    0.19 
   3  -1  -7    1.09    0.28 
   3  -1  -7    1.49    0.29 
   3  -1  -7    1.16    0.21 
  -3   1   7    1.46    0.18 
  -3   1   7    1.05    0.17 
   2  -1  -7   12.65    0.42 
   2  -1  -7   14.17    0.54 
   2  -1  -7   13.63    0.54 
  -2   1   7   13.43    0.36 
  -2   1   7   13.40    0.30 
  -2   1   7   13.59    0.36 
  -2   1   7   13.25    0.38 
   1  -1  -7    1.41    0.18 
   1  -1  -7    1.10    0.25 
   1  -1  -7    1.26    0.22 
  -1   1   7    1.19    0.12 
  -1   1   7    1.37    0.13 
  -1   1   7    1.43    0.16 
  -1   1   7    1.50    0.15 
   0  -1  -7    3.48    0.20 
   0  -1  -7    3.40    0.25 
   0  -1  -7    3.27    0.28 
   0  -1  -7    3.01    0.33 
   0   1   7    3.81    0.18 
   0   1   7    3.64    0.22 
   0   1   7    3.28    0.20 
  -1  -1  -7    5.94    0.27 
  -1  -1  -7    6.16    0.27 
  -1  -1  -7    5.57    0.25 
  -1  -1  -7    6.15    0.41 
   1   1   7    5.72    0.21 
   1   1   7    5.85    0.27 
   1   1   7    5.02    0.23 
  -2  -1  -7   13.95    0.42 
  -2  -1  -7   14.38    0.57 
  -2  -1  -7   14.22    0.30 
   2   1   7   14.75    0.41 
   2   1   7   14.56    0.36 
   2   1   7   14.00    0.35 
  -3  -1  -7    0.19    0.23 
  -3  -1  -7    0.20    0.15 
   3   1   7    0.13    0.13 
   3   1   7    0.03    0.14 
   3   1   7    0.24    0.12 
  -4  -1  -7   26.60    0.80 
  -4  -1  -7   27.54    0.68 
   4   1   7   27.07    0.59 
   4   1   7   26.98    0.52 
   4   1   7   25.89    0.62 
  -5  -1  -7    2.48    0.33 
  -5  -1  -7    2.19    0.26 
   5   1   7    2.12    0.18 
   5   1   7    2.25    0.24 
   5   1   7    1.90    0.21 
  -6  -1  -7    0.69    0.26 
  -6  -1  -7    0.33    0.19 
   6   1   7    0.34    0.13 
   6   1   7    0.58    0.18 
   6   1   7    0.55    0.20 
  -7  -1  -7    1.01    0.24 
   7   1   7    1.26    0.23 
   7   1   7    1.36    0.24 
   7   1   7    1.15    0.17 
  -8  -1  -7    0.39    0.23 
   8   1   7    0.24    0.21 
   8   1   7    0.38    0.23 
   8   1   7    0.15    0.15 
  -9  -1  -7    9.19    0.56 
   9   1   7    8.71    0.39 
   9   1   7    8.02    0.50 
   9   1   7    8.58    0.54 
   8  -2  -7    0.19    0.32 
   8  -2  -7   -0.11    0.21 
   8  -2  -7   -0.15    0.35 
  -8   2   7   -0.12    0.25 
   7  -2  -7   -0.22    0.26 
   7  -2  -7   -0.37    0.31 
   7  -2  -7    0.11    0.23 
  -7   2   7   -0.29    0.21 
   6  -2  -7    1.76    0.30 
   6  -2  -7    1.50    0.25 
   6  -2  -7    1.54    0.36 
  -6   2   7    1.46    0.27 
   5  -2  -7    3.80    0.41 
   5  -2  -7    3.94    0.31 
  -5   2   7    3.93    0.33 
   4  -2  -7    4.11    0.36 
   4  -2  -7    3.61    0.37 
   4  -2  -7    3.38    0.28 
  -4   2   7    3.99    0.28 
  -4   2   7    3.55    0.27 
   3  -2  -7    9.74    0.51 
   3  -2  -7    9.80    0.40 
   3  -2  -7    9.08    0.48 
  -3   2   7    8.89    0.29 
  -3   2   7    8.63    0.35 
  -3   2   7    9.48    0.33 
   2  -2  -7   37.13    0.91 
   2  -2  -7   37.56    0.72 
   2  -2  -7   36.70    0.85 
  -2   2   7   38.17    0.67 
  -2   2   7   37.90    0.71 
  -2   2   7   38.73    0.66 
  -2   2   7   38.16    0.64 
   1  -2  -7    0.11    0.14 
   1  -2  -7   -0.29    0.19 
   1  -2  -7   -0.14    0.17 
  -1   2   7    0.09    0.08 
  -1   2   7    0.18    0.09 
  -1   2   7    0.03    0.10 
  -1   2   7    0.02    0.10 
   0  -2  -7    0.79    0.24 
   0  -2  -7    0.73    0.17 
   0  -2  -7    0.58    0.14 
   0   2   7    0.49    0.11 
   0   2   7    0.53    0.13 
   0   2   7    0.53    0.11 
   0   2   7    0.57    0.08 
  -1  -2  -7   21.36    0.49 
  -1  -2  -7   22.56    0.69 
  -1  -2  -7   22.50    0.48 
   1   2   7   22.70    0.39 
   1   2   7   22.30    0.44 
   1   2   7   21.21    0.50 
  -2  -2  -7    2.29    0.31 
  -2  -2  -7    2.67    0.16 
  -2  -2  -7    2.94    0.24 
   2   2   7    2.46    0.18 
   2   2   7    2.33    0.21 
   2   2   7    2.50    0.16 
  -3  -2  -7   14.51    0.45 
  -3  -2  -7   15.10    0.60 
   3   2   7   14.31    0.44 
   3   2   7   14.88    0.37 
   3   2   7   14.40    0.35 
  -4  -2  -7   90.36    1.71 
  -4  -2  -7   90.16    1.47 
   4   2   7   90.23    1.42 
   4   2   7   92.60    1.33 
   4   2   7   89.53    1.23 
  -5  -2  -7   10.08    0.44 
  -5  -2  -7   10.48    0.53 
   5   2   7    9.53    0.30 
   5   2   7   10.58    0.36 
   5   2   7   10.86    0.41 
  -6  -2  -7    0.49    0.25 
  -6  -2  -7    0.42    0.20 
   6   2   7    0.33    0.18 
   6   2   7    0.61    0.17 
   6   2   7    0.30    0.12 
  -7  -2  -7    0.40    0.21 
   7   2   7    0.42    0.20 
   7   2   7    0.72    0.20 
   7   2   7    0.40    0.13 
  -8  -2  -7    0.63    0.25 
   8   2   7    0.66    0.21 
   8   2   7    0.76    0.25 
   8   2   7    0.94    0.17 
  -9  -2  -7    0.22    0.25 
   9   2   7    0.17    0.25 
   9   2   7    0.20    0.21 
   9   2   7    0.01    0.15 
   8  -3  -7    0.20    0.36 
  -8   3   7    0.85    0.31 
   7  -3  -7    1.04    0.27 
   7  -3  -7    0.28    0.30 
   7  -3  -7    0.39    0.35 
  -7   3   7    0.93    0.28 
   6  -3  -7   -0.13    0.22 
   6  -3  -7   -0.01    0.19 
   6  -3  -7   -0.31    0.28 
  -6   3   7    0.22    0.21 
   5  -3  -7    0.58    0.22 
   5  -3  -7    0.48    0.30 
   5  -3  -7    0.88    0.22 
  -5   3   7    0.91    0.21 
   4  -3  -7    0.20    0.17 
   4  -3  -7    0.26    0.26 
   4  -3  -7    0.04    0.16 
  -4   3   7    0.42    0.15 
  -4   3   7    0.38    0.13 
   3  -3  -7   18.16    0.50 
   3  -3  -7   17.04    0.62 
   3  -3  -7   17.24    0.60 
  -3   3   7   17.40    0.48 
  -3   3   7   17.29    0.43 
   2  -3  -7   76.52    1.16 
   2  -3  -7   77.48    1.46 
   2  -3  -7   77.21    1.35 
  -2   3   7   76.22    1.12 
  -2   3   7   77.57    1.12 
  -2   3   7   75.92    1.15 
  -2   3   7   74.39    1.18 
   1  -3  -7   38.82    0.94 
   1  -3  -7   39.89    0.82 
   1  -3  -7   40.37    0.70 
  -1   3   7   40.62    0.68 
  -1   3   7   39.23    0.70 
  -1   3   7   40.54    0.62 
  -1   3   7   39.77    0.72 
   0  -3  -7   16.71    0.61 
   0  -3  -7   16.72    0.46 
   0   3   7   16.89    0.38 
   0   3   7   16.16    0.41 
   0   3   7   16.42    0.42 
   0   3   7   16.99    0.29 
  -1  -3  -7    0.30    0.13 
  -1  -3  -7    0.36    0.22 
   1   3   7    0.19    0.12 
   1   3   7    0.37    0.10 
   1   3   7    0.30    0.05 
  -2  -3  -7   28.42    0.82 
  -2  -3  -7   29.46    0.63 
  -2  -3  -7   30.42    0.54 
   2   3   7   29.99    0.46 
   2   3   7   29.32    0.51 
   2   3   7   27.52    0.60 
  -3  -3  -7    2.74    0.24 
  -3  -3  -7    2.88    0.16 
  -3  -3  -7    3.08    0.36 
   3   3   7    2.61    0.18 
   3   3   7    3.01    0.18 
   3   3   7    2.62    0.23 
  -4  -3  -7    0.15    0.16 
  -4  -3  -7   -0.06    0.24 
   4   3   7   -0.10    0.15 
   4   3   7   -0.07    0.09 
   4   3   7    0.36    0.13 
  -5  -3  -7    6.62    0.47 
  -5  -3  -7    6.81    0.37 
   5   3   7    6.86    0.24 
   5   3   7    7.01    0.29 
   5   3   7    6.87    0.35 
  -6  -3  -7    0.40    0.19 
  -6  -3  -7    0.97    0.28 
   6   3   7    0.85    0.17 
   6   3   7    0.63    0.12 
   6   3   7    0.67    0.19 
  -7  -3  -7    0.69    0.23 
   7   3   7    1.40    0.25 
   7   3   7    1.30    0.15 
   7   3   7    1.06    0.20 
  -8  -3  -7    0.15    0.20 
   8   3   7   -0.04    0.20 
   8   3   7    0.05    0.12 
   8   3   7   -0.01    0.17 
  -9  -3  -7    1.37    0.30 
   9   3   7    1.70    0.32 
   9   3   7    1.17    0.26 
   9   3   7    1.40    0.19 
   7  -4  -7    0.40    0.34 
  -7   4   7    0.22    0.24 
   6  -4  -7    0.08    0.29 
  -6   4   7    0.30    0.21 
   5  -4  -7    2.54    0.36 
  -5   4   7    2.52    0.27 
  -5   4   7    2.82    0.30 
   4  -4  -7   -0.36    0.22 
  -4   4   7    0.14    0.15 
  -4   4   7   -0.09    0.13 
   3  -4  -7    5.21    0.41 
   3  -4  -7    6.01    0.44 
  -3   4   7    5.44    0.29 
  -3   4   7    5.60    0.30 
   2  -4  -7    1.15    0.25 
   2  -4  -7    1.26    0.30 
  -2   4   7    1.10    0.16 
  -2   4   7    1.27    0.17 
  -2   4   7    1.10    0.16 
   1  -4  -7   21.66    0.72 
   1  -4  -7   23.14    0.62 
  -1   4   7   22.71    0.49 
  -1   4   7   22.23    0.50 
  -1   4   7   24.00    0.54 
   0  -4  -7   16.13    0.63 
   0  -4  -7   16.67    0.47 
   0   4   7   17.16    0.45 
   0   4   7   16.80    0.40 
   0   4   7   15.84    0.41 
  -1  -4  -7    0.29    0.14 
  -1  -4  -7    0.13    0.23 
   1   4   7    0.29    0.10 
   1   4   7    0.33    0.13 
   1   4   7    0.42    0.13 
  -2  -4  -7   19.53    0.70 
  -2  -4  -7   19.44    0.45 
  -2  -4  -7   19.13    0.51 
   2   4   7   18.24    0.47 
   2   4   7   18.30    0.38 
  -3  -4  -7    0.53    0.28 
  -3  -4  -7    0.28    0.17 
  -3  -4  -7    0.44    0.12 
   3   4   7    0.37    0.10 
   3   4   7    0.09    0.15 
  -4  -4  -7   16.56    0.67 
  -4  -4  -7   15.42    0.50 
   4   4   7   16.64    0.35 
   4   4   7   15.66    0.48 
  -5  -4  -7   19.73    0.59 
  -5  -4  -7   21.09    0.76 
   5   4   7   20.70    0.39 
   5   4   7   21.21    0.47 
   5   4   7   20.71    0.56 
  -6  -4  -7    0.10    0.17 
  -6  -4  -7   -0.07    0.24 
   6   4   7   -0.25    0.13 
   6   4   7   -0.08    0.16 
   6   4   7   -0.07    0.09 
  -7  -4  -7    0.57    0.22 
  -7  -4  -7    0.79    0.31 
   7   4   7    0.83    0.12 
   7   4   7    0.40    0.19 
   7   4   7    0.81    0.19 
  -8  -4  -7    0.04    0.21 
   8   4   7    0.10    0.11 
   8   4   7   -0.15    0.20 
  -9  -4  -7    3.15    0.38 
   9   4   7    3.92    0.39 
   9   4   7    3.48    0.25 
   7  -5  -7    1.63    0.40 
  -7   5   7    2.19    0.34 
   6  -5  -7    0.11    0.32 
  -6   5   7   -0.04    0.20 
  -6   5   7    0.35    0.23 
   5  -5  -7    0.19    0.28 
  -5   5   7    0.20    0.18 
  -5   5   7    0.34    0.18 
   4  -5  -7    1.45    0.30 
  -4   5   7    1.47    0.22 
  -4   5   7    1.15    0.21 
   3  -5  -7    0.10    0.25 
   3  -5  -7   -0.15    0.20 
  -3   5   7   -0.04    0.13 
  -3   5   7    0.04    0.12 
   2  -5  -7   10.73    0.56 
   2  -5  -7   10.36    0.47 
  -2   5   7   10.69    0.38 
  -2   5   7    9.74    0.34 
  -2   5   7   10.00    0.37 
   1  -5  -7   91.03    1.53 
   1  -5  -7   90.33    1.75 
  -1   5   7   90.60    1.41 
  -1   5   7   92.64    1.36 
  -1   5   7   91.95    1.31 
   0  -5  -7   17.60    0.52 
   0  -5  -7   16.70    0.68 
   0   5   7   18.22    0.48 
   0   5   7   17.27    0.44 
   0   5   7   18.21    0.42 
  -1  -5  -7   12.22    0.60 
  -1  -5  -7   11.90    0.42 
   1   5   7   12.27    0.38 
   1   5   7   12.45    0.34 
   1   5   7   12.28    0.41 
  -2  -5  -7   -0.17    0.25 
  -2  -5  -7    0.16    0.14 
   2   5   7    0.12    0.14 
   2   5   7   -0.04    0.13 
   2   5   7    0.06    0.10 
  -3  -5  -7    0.47    0.28 
  -3  -5  -7    0.19    0.13 
   3   5   7    0.42    0.15 
   3   5   7    0.35    0.10 
  -4  -5  -7    2.42    0.37 
  -4  -5  -7    1.54    0.22 
   4   5   7    2.46    0.16 
   4   5   7    2.29    0.23 
  -5  -5  -7    6.27    0.52 
  -5  -5  -7    6.92    0.40 
   5   5   7    6.71    0.37 
   5   5   7    6.64    0.22 
  -6  -5  -7    0.44    0.20 
  -6  -5  -7    0.47    0.30 
   6   5   7    0.57    0.19 
   6   5   7    0.20    0.09 
  -7  -5  -7    0.27    0.28 
  -7  -5  -7    0.07    0.19 
   7   5   7    0.03    0.09 
   7   5   7    0.07    0.18 
  -8  -5  -7    5.43    0.43 
   8   5   7    4.77    0.39 
   8   5   7    4.86    0.22 
  -9  -5  -7    0.38    0.23 
   9   5   7    0.16    0.25 
   9   5   7    0.24    0.12 
   7  -6  -7   25.17    0.98 
  -7   6   7   27.16    0.89 
   6  -6  -7    3.12    0.44 
  -6   6   7    2.99    0.35 
  -6   6   7    2.43    0.34 
   5  -6  -7    0.80    0.31 
  -5   6   7    0.82    0.23 
  -5   6   7    0.94    0.24 
   4  -6  -7    0.83    0.28 
  -4   6   7    0.98    0.23 
  -4   6   7    1.56    0.22 
   3  -6  -7    0.68    0.26 
   3  -6  -7    0.42    0.28 
  -3   6   7    0.32    0.18 
  -3   6   7    0.51    0.15 
   2  -6  -7    0.41    0.22 
   2  -6  -7   -0.02    0.27 
  -2   6   7   -0.18    0.14 
  -2   6   7   -0.03    0.15 
  -2   6   7    0.11    0.11 
   1  -6  -7    0.29    0.20 
   1  -6  -7    0.12    0.28 
  -1   6   7    0.36    0.14 
  -1   6   7    0.58    0.16 
  -1   6   7    0.41    0.12 
   0  -6  -7    0.04    0.17 
   0  -6  -7    0.06    0.29 
   0   6   7    0.26    0.12 
   0   6   7    0.05    0.12 
   0   6   7    0.15    0.15 
  -1  -6  -7   13.07    0.66 
  -1  -6  -7   13.93    0.48 
   1   6   7   13.85    0.39 
   1   6   7   13.84    0.37 
   1   6   7   12.98    0.44 
  -2  -6  -7    0.07    0.14 
  -2  -6  -7    0.29    0.28 
   2   6   7    0.11    0.12 
   2   6   7    0.05    0.10 
   2   6   7   -0.09    0.13 
  -3  -6  -7   -0.06    0.27 
  -3  -6  -7    0.12    0.14 
   3   6   7    0.35    0.15 
   3   6   7    0.24    0.09 
   3   6   7    0.01    0.13 
  -4  -6  -7    0.04    0.13 
  -4  -6  -7    0.05    0.27 
   4   6   7    0.13    0.09 
   4   6   7   -0.10    0.14 
  -5  -6  -7    3.26    0.43 
  -5  -6  -7    3.06    0.31 
   5   6   7    2.98    0.17 
   5   6   7    3.09    0.28 
  -6  -6  -7    1.16    0.24 
  -6  -6  -7    1.81    0.37 
   6   6   7    1.06    0.11 
   6   6   7    1.08    0.21 
  -7  -6  -7    2.55    0.43 
  -7  -6  -7    1.79    0.29 
   7   6   7    2.22    0.28 
   7   6   7    1.87    0.13 
  -8  -6  -7    0.19    0.23 
   8   6   7    0.04    0.21 
   8   6   7    0.14    0.09 
  -9  -6  -7    1.90    0.33 
   9   6   7    1.78    0.16 
   9   6   7    1.93    0.31 
   6  -7  -7    0.74    0.36 
  -6   7   7    0.32    0.25 
   5  -7  -7    1.60    0.36 
  -5   7   7    1.00    0.28 
   4  -7  -7   -0.07    0.27 
  -4   7   7    0.28    0.19 
  -4   7   7    0.53    0.22 
   3  -7  -7   -0.21    0.23 
  -3   7   7   -0.07    0.13 
  -3   7   7    0.00    0.17 
   2  -7  -7    6.62    0.47 
   2  -7  -7    7.48    0.56 
  -2   7   7    6.78    0.31 
  -2   7   7    6.47    0.39 
  -2   7   7    5.94    0.37 
   1  -7  -7    0.73    0.24 
   1  -7  -7    0.47    0.30 
  -1   7   7    0.48    0.17 
  -1   7   7    0.47    0.12 
  -1   7   7    0.75    0.18 
   0  -7  -7   26.68    0.73 
   0  -7  -7   27.35    0.93 
   0   7   7   27.20    0.68 
   0   7   7   27.62    0.60 
   0   7   7   28.81    0.57 
  -1  -7  -7    1.56    0.36 
  -1  -7  -7    1.52    0.24 
   1   7   7    1.81    0.18 
   1   7   7    1.85    0.18 
   1   7   7    1.64    0.22 
  -2  -7  -7    3.80    0.32 
  -2  -7  -7    3.71    0.46 
   2   7   7    3.96    0.23 
   2   7   7    3.78    0.30 
   2   7   7    3.81    0.24 
  -3  -7  -7    1.24    0.36 
  -3  -7  -7    1.22    0.22 
   3   7   7    1.06    0.17 
   3   7   7    0.76    0.12 
   3   7   7    1.19    0.21 
  -4  -7  -7   15.36    0.76 
  -4  -7  -7   16.35    0.53 
   4   7   7   15.73    0.35 
   4   7   7   16.16    0.55 
   4   7   7   16.53    0.49 
  -5  -7  -7    1.15    0.35 
   5   7   7    0.71    0.20 
   5   7   7    0.94    0.11 
   5   7   7    0.89    0.20 
  -6  -7  -7    5.56    0.56 
   6   7   7    6.01    0.38 
   6   7   7    5.33    0.19 
  -7  -7  -7    2.23    0.32 
  -7  -7  -7    2.83    0.47 
   7   7   7    2.05    0.29 
   7   7   7    2.11    0.16 
  -8  -7  -7    0.51    0.26 
   8   7   7    0.71    0.24 
   8   7   7    0.63    0.10 
   5  -8  -7    0.52    0.34 
  -5   8   7    0.32    0.26 
   4  -8  -7    3.67    0.44 
  -4   8   7    3.51    0.38 
   3  -8  -7   -0.06    0.26 
  -3   8   7   -0.16    0.19 
   2  -8  -7    2.07    0.33 
   2  -8  -7    2.16    0.41 
  -2   8   7    2.15    0.28 
  -2   8   7    1.53    0.26 
   1  -8  -7    1.04    0.36 
   1  -8  -7    0.56    0.25 
  -1   8   7    0.61    0.20 
  -1   8   7    0.65    0.20 
   0  -8  -7    0.09    0.32 
   0  -8  -7    0.24    0.22 
   0   8   7   -0.01    0.15 
   0   8   7    0.14    0.15 
  -1  -8  -7    0.56    0.21 
  -1  -8  -7   -0.12    0.30 
   1   8   7    0.58    0.19 
   1   8   7    0.15    0.14 
  -2  -8  -7    5.62    0.38 
  -2  -8  -7    5.15    0.54 
   2   8   7    5.11    0.27 
   2   8   7    5.38    0.35 
  -3  -8  -7   10.89    0.49 
  -3  -8  -7   11.12    0.71 
   3   8   7   11.64    0.48 
   3   8   7   11.05    0.33 
  -4  -8  -7    4.34    0.52 
  -4  -8  -7    4.23    0.36 
   4   8   7    4.70    0.23 
   4   8   7    5.27    0.37 
  -5  -8  -7    1.79    0.42 
   5   8   7    0.39    0.19 
   5   8   7    0.67    0.11 
  -6  -8  -7   -0.23    0.32 
   6   8   7    0.06    0.19 
   6   8   7    0.00    0.09 
  -7  -8  -7    4.58    0.59 
   7   8   7    4.98    0.19 
   7   8   7    5.25    0.43 
   8   8   7    1.24    0.12 
   8   8   7    1.77    0.29 
   4  -9  -7    3.39    0.44 
  -4   9   7    3.49    0.41 
   3  -9  -7    1.51    0.37 
  -3   9   7    2.08    0.32 
   2  -9  -7    1.55    0.41 
   2  -9  -7    2.29    0.37 
  -2   9   7    1.82    0.31 
  -2   9   7    1.28    0.27 
   1  -9  -7    1.65    0.31 
   1  -9  -7    1.35    0.42 
  -1   9   7    0.75    0.23 
  -1   9   7    1.55    0.27 
   0  -9  -7   -0.23    0.32 
   0  -9  -7   -0.23    0.22 
   0   9   7    0.10    0.18 
   0   9   7    0.09    0.17 
  -1  -9  -7    0.28    0.24 
  -1  -9  -7    0.22    0.36 
   1   9   7   -0.06    0.16 
   1   9   7    0.03    0.15 
  -2  -9  -7    1.48    0.42 
  -2  -9  -7    1.71    0.29 
   2   9   7    1.95    0.27 
   2   9   7    1.66    0.21 
  -3  -9  -7    0.64    0.23 
  -3  -9  -7    0.54    0.36 
   3   9   7    0.51    0.15 
   3   9   7    0.51    0.20 
  -4  -9  -7   -0.37    0.33 
  -4  -9  -7    0.22    0.24 
   4   9   7    0.32    0.13 
   4   9   7    0.23    0.20 
  -5  -9  -7    3.51    0.53 
   5   9   7    3.81    0.23 
   5   9   7    4.36    0.39 
  -6  -9  -7    0.01    0.38 
   6   9   7    0.11    0.10 
   6   9   7   -0.04    0.19 
  -7  -9  -7    0.01    0.36 
   7   9   7    0.05    0.09 
   7   9   7   -0.08    0.19 
   2 -10  -7    1.10    0.34 
  -2  10   7    0.59    0.25 
   1 -10  -7    2.13    0.38 
   1 -10  -7    2.62    0.52 
  -1  10   7    2.09    0.31 
  -1  10   7    1.83    0.31 
   0 -10  -7    1.26    0.45 
   0 -10  -7    0.50    0.29 
   0  10   7    0.53    0.24 
   0  10   7    0.63    0.24 
  -1 -10  -7    0.80    0.29 
  -1 -10  -7    0.90    0.44 
   1  10   7    0.68    0.23 
   1  10   7    0.91    0.23 
  -2 -10  -7    2.31    0.36 
  -2 -10  -7    2.47    0.53 
   2  10   7    2.22    0.26 
   2  10   7    1.64    0.28 
  -3 -10  -7    3.36    0.56 
  -3 -10  -7    4.43    0.44 
   3  10   7    4.11    0.30 
   3  10   7    3.49    0.36 
  -4 -10  -7   11.34    0.85 
  -4 -10  -7   11.24    0.61 
   4  10   7   12.51    0.57 
   4  10   7   11.48    0.40 
  -5 -10  -7    1.21    0.46 
   5  10   7    1.31    0.28 
   5  10   7    1.04    0.17 
   0 -11  -7    1.44    0.34 
   0  11   7    0.91    0.30 
   0  11   7    1.11    0.29 
  -1 -11  -7    0.66    0.31 
  -1 -11  -7   -0.20    0.40 
   1  11   7   -0.09    0.21 
   1  11   7    0.19    0.24 
  -2 -11  -7    2.45    0.53 
  -2 -11  -7    1.36    0.34 
   2  11   7    1.48    0.29 
   2  11   7    1.31    0.27 
  -3 -11  -7    0.09    0.43 
  -3 -11  -7    0.69    0.31 
   3  11   7   -0.03    0.21 
   3  11   7    0.28    0.21 
   2   7  -8    1.49    0.37 
   2   7  -8    0.81    0.45 
   2   7  -8    1.22    0.42 
  -2  -7   8    1.57    0.29 
   1   7  -8    0.00    0.31 
   1   7  -8    0.92    0.44 
  -1  -7   8    0.46    0.24 
   0   7  -8    0.03    0.38 
   0  -7   8   -0.01    0.23 
  -1   7  -8    0.27    0.40 
   1  -7   8    0.51    0.27 
  -2   7  -8    0.47    0.41 
   2  -7   8    0.95    0.27 
   4   6  -8    0.48    0.40 
   4   6  -8    1.17    0.31 
   4   6  -8    0.29    0.37 
  -4  -6   8    0.77    0.25 
   3   6  -8    2.39    0.50 
   3   6  -8    2.16    0.37 
   3   6  -8    1.46    0.41 
  -3  -6   8    2.42    0.32 
   2   6  -8    0.68    0.36 
   2   6  -8    0.69    0.40 
   2   6  -8    0.86    0.31 
  -2  -6   8    0.86    0.25 
   1   6  -8    8.24    0.71 
   1   6  -8    7.77    0.61 
   1   6  -8    8.18    0.58 
  -1  -6   8    8.02    0.48 
   0   6  -8    2.52    0.49 
   0  -6   8    3.56    0.37 
  -1   6  -8    0.26    0.35 
   1  -6   8    0.23    0.22 
  -2   6  -8    0.49    0.38 
   2  -6   8    0.88    0.27 
  -3   6  -8    1.51    0.43 
   3  -6   8    2.04    0.33 
  -4   6  -8    1.08    0.42 
   4  -6   8    0.78    0.29 
   5   5  -8    3.86    0.53 
   5   5  -8    3.66    0.53 
   5   5  -8    3.37    0.38 
  -5  -5   8    4.43    0.42 
   4   5  -8    1.14    0.31 
   4   5  -8    1.10    0.38 
   4   5  -8    0.87    0.41 
  -4  -5   8    1.94    0.30 
   3   5  -8    1.29    0.37 
   3   5  -8    0.97    0.39 
   3   5  -8    0.74    0.28 
  -3  -5   8    1.30    0.25 
   2   5  -8    0.87    0.29 
   2   5  -8    1.33    0.35 
   2   5  -8    1.22    0.38 
  -2  -5   8    1.40    0.25 
   1   5  -8    3.46    0.38 
   1   5  -8    2.83    0.39 
   1   5  -8    2.32    0.45 
  -1  -5   8    2.72    0.29 
   0   5  -8    1.58    0.40 
   0   5  -8    1.64    0.31 
   0  -5   8    1.43    0.24 
  -1   5  -8    0.04    0.30 
   1  -5   8    0.34    0.20 
  -2   5  -8    0.21    0.32 
   2  -5   8   -0.11    0.20 
  -3   5  -8    1.57    0.40 
   3  -5   8    1.90    0.31 
  -4   5  -8    1.22    0.29 
  -4   5  -8    0.77    0.40 
   4  -5   8    1.35    0.30 
  -5   5  -8   -0.31    0.24 
   5  -5   8    0.27    0.26 
   6   4  -8    0.53    0.41 
   6   4  -8    0.21    0.25 
  -6  -4   8   -0.14    0.22 
   5   4  -8    0.93    0.37 
   5   4  -8    0.68    0.37 
   5   4  -8    1.28    0.29 
  -5  -4   8    0.93    0.27 
   4   4  -8    0.24    0.24 
   4   4  -8   -0.04    0.31 
   4   4  -8   -0.02    0.29 
  -4  -4   8    0.13    0.18 
   3   4  -8    4.26    0.46 
   3   4  -8    5.02    0.53 
   3   4  -8    5.60    0.43 
  -3  -4   8    4.78    0.35 
   2   4  -8    0.20    0.23 
   2   4  -8    0.15    0.25 
   2   4  -8   -0.08    0.30 
  -2  -4   8   -0.02    0.15 
   1   4  -8    0.25    0.25 
   1   4  -8    0.26    0.30 
   1   4  -8    0.40    0.23 
  -1  -4   8    0.10    0.17 
   0   4  -8   18.90    0.65 
   0   4  -8   18.21    0.81 
   0   4  -8   19.43    0.69 
   0  -4   8   19.96    0.60 
  -1   4  -8    0.93    0.34 
   1  -4   8    0.65    0.20 
  -2   4  -8    3.84    0.48 
   2  -4   8    3.33    0.32 
  -3   4  -8    2.59    0.42 
  -3   4  -8    3.58    0.35 
   3  -4   8    3.21    0.31 
  -4   4  -8    1.03    0.26 
  -4   4  -8    0.98    0.36 
   4  -4   8    0.87    0.24 
  -5   4  -8    1.00    0.39 
  -5   4  -8    1.52    0.31 
   5  -4   8    1.01    0.29 
  -6   4  -8    0.74    0.28 
   6  -4   8    0.64    0.29 
   7   3  -8    0.88    0.29 
   7   3  -8    1.44    0.45 
  -7  -3   8    0.99    0.30 
  -7  -3   8    1.00    0.30 
   6   3  -8    3.82    0.54 
   6   3  -8    3.89    0.38 
  -6  -3   8    4.11    0.41 
  -6  -3   8    5.01    0.44 
   5   3  -8    7.64    0.63 
   5   3  -8    7.30    0.59 
   5   3  -8    7.09    0.48 
  -5  -3   8    7.53    0.45 
  -5  -3   8    7.24    0.46 
   4   3  -8    0.22    0.23 
   4   3  -8    0.13    0.29 
   4   3  -8    0.37    0.30 
  -4  -3   8    0.37    0.18 
  -4  -3   8    0.74    0.19 
   3   3  -8    4.50    0.37 
   3   3  -8    3.97    0.43 
   3   3  -8    4.28    0.47 
  -3  -3   8    4.46    0.30 
  -3  -3   8    4.30    0.31 
   2   3  -8   -0.30    0.21 
   2   3  -8    0.40    0.29 
   2   3  -8    0.36    0.23 
  -2  -3   8   -0.02    0.11 
  -2  -3   8   -0.14    0.12 
   1   3  -8   -0.02    0.20 
   1   3  -8    0.00    0.22 
   1   3  -8    0.16    0.28 
  -1  -3   8   -0.02    0.14 
  -1  -3   8    0.08    0.11 
   0   3  -8    0.25    0.21 
   0   3  -8    0.37    0.22 
   0   3  -8   -0.27    0.26 
   0  -3   8    0.06    0.11 
   0  -3   8   -0.11    0.13 
  -1   3  -8    0.22    0.27 
   1  -3   8    0.05    0.14 
   1  -3   8    0.02    0.12 
  -2   3  -8    0.48    0.18 
  -2   3  -8   -0.04    0.27 
   2  -3   8    0.55    0.16 
   2  -3   8    0.78    0.20 
  -3   3  -8    5.72    0.38 
  -3   3  -8    5.66    0.52 
   3  -3   8    5.21    0.32 
   3  -3   8    6.09    0.38 
  -4   3  -8   -0.03    0.28 
  -4   3  -8   -0.04    0.18 
   4  -3   8   -0.02    0.19 
   4  -3   8   -0.08    0.16 
  -5   3  -8   -0.07    0.20 
  -5   3  -8   -0.07    0.29 
   5  -3   8    0.01    0.19 
   5  -3   8    0.53    0.23 
  -6   3  -8    0.39    0.25 
   6  -3   8    0.43    0.26 
  -7   3  -8    0.29    0.26 
   7  -3   8    0.36    0.28 
   7   2  -8    0.85    0.28 
   7   2  -8    1.38    0.47 
  -7  -2   8    1.04    0.30 
  -7  -2   8    1.25    0.30 
   6   2  -8    3.08    0.33 
   6   2  -8    3.45    0.49 
  -6  -2   8    3.46    0.38 
  -6  -2   8    3.11    0.36 
   5   2  -8    5.07    0.51 
   5   2  -8    3.97    0.35 
  -5  -2   8    4.96    0.37 
  -5  -2   8    4.99    0.39 
   4   2  -8    0.10    0.28 
   4   2  -8    0.20    0.22 
   4   2  -8    0.20    0.28 
  -4  -2   8    0.05    0.17 
  -4  -2   8    0.35    0.17 
   3   2  -8    2.03    0.28 
   3   2  -8    1.84    0.36 
   3   2  -8    1.63    0.32 
  -3  -2   8    2.35    0.23 
  -3  -2   8    2.66    0.25 
   2   2  -8    3.17    0.31 
   2   2  -8    2.87    0.33 
   2   2  -8    2.68    0.40 
  -2  -2   8    2.58    0.24 
  -2  -2   8    2.30    0.21 
   1   2  -8    4.35    0.45 
   1   2  -8    4.79    0.39 
   1   2  -8    3.99    0.31 
  -1  -2   8    4.52    0.28 
  -1  -2   8    4.65    0.26 
   0   2  -8    0.06    0.26 
   0   2  -8    0.20    0.19 
   0   2  -8    0.09    0.19 
   0  -2   8   -0.09    0.11 
   0  -2   8    0.05    0.13 
  -1   2  -8    7.16    0.53 
  -1   2  -8    7.59    0.32 
   1  -2   8    7.74    0.32 
   1  -2   8    7.93    0.35 
  -2   2  -8   19.76    0.77 
  -2   2  -8   20.85    0.56 
   2  -2   8   20.82    0.53 
   2  -2   8   21.49    0.57 
  -3   2  -8   29.93    0.74 
  -3   2  -8   28.82    0.93 
   3  -2   8   29.79    0.63 
   3  -2   8   29.50    0.67 
   3  -2   8   28.11    0.69 
  -4   2  -8    3.17    0.32 
  -4   2  -8    3.01    0.41 
   4  -2   8    3.08    0.31 
   4  -2   8    3.03    0.28 
   4  -2   8    2.82    0.25 
  -5   2  -8   -0.35    0.25 
  -5   2  -8   -0.17    0.20 
   5  -2   8    0.19    0.18 
   5  -2   8   -0.38    0.17 
   5  -2   8   -0.48    0.17 
  -6   2  -8    0.33    0.23 
   6  -2   8    0.30    0.22 
   6  -2   8    0.35    0.19 
   6  -2   8    0.72    0.25 
  -7   2  -8    1.57    0.34 
   7  -2   8    1.39    0.31 
   7  -2   8    1.05    0.28 
   7  -2   8    1.49    0.25 
  -8   2  -8    2.52    0.39 
   8  -2   8    1.65    0.32 
   8  -2   8    2.43    0.38 
   8  -2   8    1.30    0.26 
   7   1  -8   -0.44    0.37 
   7   1  -8    0.00    0.23 
  -7  -1   8   -0.12    0.20 
  -7  -1   8    0.24    0.24 
   6   1  -8    0.61    0.37 
   6   1  -8    0.37    0.23 
  -6  -1   8    0.41    0.21 
  -6  -1   8    0.81    0.25 
   5   1  -8    0.94    0.23 
   5   1  -8    0.84    0.32 
  -5  -1   8    0.99    0.23 
  -5  -1   8    0.73    0.22 
   4   1  -8    5.90    0.41 
   4   1  -8    5.74    0.48 
   4   1  -8    4.64    0.44 
  -4  -1   8    5.14    0.34 
  -4  -1   8    5.18    0.33 
   3   1  -8   25.14    0.66 
   3   1  -8   25.24    0.80 
   3   1  -8   24.68    0.83 
  -3  -1   8   25.53    0.62 
  -3  -1   8   25.87    0.61 
   2   1  -8    0.52    0.24 
   2   1  -8    0.81    0.28 
   2   1  -8    0.61    0.22 
  -2  -1   8    0.65    0.14 
  -2  -1   8    0.89    0.16 
   1   1  -8    5.60    0.38 
   1   1  -8    4.71    0.39 
   1   1  -8    5.48    0.49 
  -1  -1   8    5.01    0.27 
  -1  -1   8    4.90    0.26 
   0   1  -8    4.05    0.31 
   0   1  -8    3.96    0.43 
   0   1  -8    3.81    0.33 
   0   1  -8    3.95    0.23 
   0  -1   8    4.04    0.25 
   0  -1   8    4.32    0.26 
  -1   1  -8    5.56    0.33 
  -1   1  -8    5.94    0.49 
  -1   1  -8    6.49    0.30 
   1  -1   8    6.23    0.29 
   1  -1   8    5.99    0.30 
   1  -1   8    6.56    0.31 
  -2   1  -8    2.37    0.36 
  -2   1  -8    2.33    0.23 
   2  -1   8    2.72    0.23 
   2  -1   8    2.57    0.23 
   2  -1   8    2.10    0.19 
  -3   1  -8    1.72    0.34 
  -3   1  -8    1.46    0.23 
   3  -1   8    1.07    0.17 
   3  -1   8    1.58    0.21 
   3  -1   8    1.12    0.20 
  -4   1  -8   21.52    0.65 
  -4   1  -8   22.04    0.79 
   4  -1   8   20.87    0.59 
   4  -1   8   22.84    0.55 
   4  -1   8   20.84    0.60 
  -5   1  -8    0.06    0.26 
  -5   1  -8    0.13    0.19 
   5  -1   8   -0.23    0.17 
   5  -1   8    0.18    0.20 
   5  -1   8   -0.07    0.16 
  -6   1  -8    0.78    0.30 
  -6   1  -8    0.96    0.26 
   6  -1   8    0.71    0.23 
   6  -1   8    0.95    0.25 
   6  -1   8    0.45    0.17 
  -7   1  -8    1.54    0.30 
   7  -1   8    1.08    0.22 
   7  -1   8    1.47    0.28 
   7  -1   8    1.96    0.31 
  -8   1  -8    2.76    0.39 
   8  -1   8    1.85    0.27 
   8  -1   8    1.45    0.33 
   8  -1   8    1.67    0.32 
   8   0  -8   -0.47    0.38 
   8   0  -8    0.31    0.26 
  -8   0   8   -0.39    0.23 
   7   0  -8    0.47    0.24 
   7   0  -8   -0.31    0.35 
  -7   0   8    0.20    0.26 
  -7   0   8   -0.24    0.20 
   6   0  -8    0.16    0.22 
   6   0  -8    0.36    0.35 
  -6   0   8    0.43    0.22 
  -6   0   8    0.03    0.20 
   5   0  -8   -0.33    0.29 
   5   0  -8    0.05    0.20 
  -5   0   8    0.13    0.18 
  -5   0   8    0.34    0.19 
   4   0  -8    2.62    0.27 
   4   0  -8    2.21    0.35 
   4   0  -8    3.01    0.38 
  -4   0   8    2.86    0.27 
  -4   0   8    3.26    0.28 
   3   0  -8    4.57    0.36 
   3   0  -8    3.55    0.37 
   3   0  -8    4.10    0.42 
  -3   0   8    4.45    0.28 
  -3   0   8    4.69    0.29 
   2   0  -8    3.88    0.30 
   2   0  -8    3.44    0.40 
   2   0  -8    3.86    0.36 
  -2   0   8    3.93    0.24 
  -2   0   8    3.97    0.26 
   1   0  -8    2.77    0.30 
   1   0  -8    2.45    0.36 
   1   0  -8    2.21    0.25 
  -1   0   8    2.62    0.22 
  -1   0   8    2.92    0.21 
   0   0  -8    9.03    0.55 
   0   0  -8    9.16    0.31 
   0   0  -8    9.79    0.42 
   0   0  -8    9.76    0.41 
   0   0   8    9.77    0.33 
   0   0   8    9.20    0.34 
   0   0   8    9.73    0.33 
  -1   0  -8    1.32    0.31 
  -1   0  -8    1.49    0.20 
  -1   0  -8    1.23    0.18 
   1   0   8    1.70    0.18 
   1   0   8    1.73    0.20 
   1   0   8    1.60    0.17 
  -2   0  -8    1.52    0.21 
  -2   0  -8    1.59    0.32 
   2   0   8    1.35    0.20 
   2   0   8    1.34    0.18 
   2   0   8    1.58    0.18 
  -3   0  -8   56.44    1.28 
  -3   0  -8   54.77    1.03 
   3   0   8   55.65    0.98 
   3   0   8   55.20    0.89 
   3   0   8   54.71    1.00 
  -4   0  -8   20.28    0.75 
  -4   0  -8   20.36    0.61 
   4   0   8   22.20    0.57 
   4   0   8   20.70    0.58 
   4   0   8   20.79    0.51 
  -5   0  -8    1.40    0.25 
  -5   0  -8    1.39    0.32 
   5   0   8    1.45    0.24 
   5   0   8    1.25    0.19 
   5   0   8    1.31    0.24 
  -6   0  -8    0.62    0.27 
  -6   0  -8    0.24    0.20 
   6   0   8    0.35    0.20 
   6   0   8    0.14    0.15 
   6   0   8    0.20    0.19 
  -7   0  -8    0.41    0.24 
   7   0   8   -0.14    0.15 
   7   0   8    0.04    0.19 
   7   0   8    0.01    0.22 
  -8   0  -8   -0.03    0.23 
   8   0   8    0.09    0.19 
   8   0   8    0.06    0.24 
   8   0   8    0.00    0.21 
   8  -1  -8    0.71    0.38 
   8  -1  -8    0.61    0.43 
   8  -1  -8    0.81    0.28 
  -8   1   8    0.75    0.31 
   7  -1  -8    0.47    0.25 
   7  -1  -8   -0.46    0.35 
  -7   1   8    0.36    0.26 
   6  -1  -8    1.26    0.37 
   6  -1  -8    1.66    0.27 
  -6   1   8    1.59    0.26 
  -6   1   8    1.28    0.27 
   5  -1  -8    0.28    0.20 
   5  -1  -8   -0.11    0.28 
  -5   1   8   -0.21    0.16 
  -5   1   8    0.20    0.17 
   4  -1  -8    0.37    0.27 
   4  -1  -8    0.36    0.28 
   4  -1  -8    0.57    0.21 
  -4   1   8    0.72    0.18 
  -4   1   8    0.83    0.18 
   3  -1  -8   60.79    1.05 
   3  -1  -8   60.47    1.24 
   3  -1  -8   60.83    1.29 
  -3   1   8   58.71    1.03 
  -3   1   8   57.37    1.04 
   2  -1  -8   72.04    1.16 
   2  -1  -8   70.55    1.33 
   2  -1  -8   71.52    1.45 
  -2   1   8   72.14    1.16 
  -2   1   8   70.76    1.12 
   1  -1  -8    0.10    0.17 
   1  -1  -8    0.07    0.20 
   1  -1  -8    0.16    0.26 
  -1   1   8    0.18    0.10 
  -1   1   8    0.20    0.13 
  -1   1   8   -0.15    0.11 
  -1   1   8    0.14    0.10 
   0  -1  -8    4.57    0.25 
   0  -1  -8    5.37    0.34 
   0  -1  -8    5.26    0.32 
   0  -1  -8    4.97    0.45 
   0   1   8    4.92    0.27 
   0   1   8    5.10    0.22 
   0   1   8    5.37    0.26 
  -1  -1  -8    7.02    0.30 
  -1  -1  -8    6.98    0.32 
  -1  -1  -8    6.59    0.49 
   1   1   8    6.54    0.31 
   1   1   8    6.70    0.25 
   1   1   8    7.00    0.28 
  -2  -1  -8    0.33    0.27 
  -2  -1  -8    0.32    0.15 
   2   1   8    0.21    0.13 
   2   1   8    0.32    0.15 
   2   1   8    0.29    0.13 
  -3  -1  -8    2.67    0.26 
  -3  -1  -8    3.17    0.39 
   3   1   8    3.27    0.27 
   3   1   8    2.80    0.23 
   3   1   8    3.10    0.24 
  -4  -1  -8    0.01    0.15 
  -4  -1  -8    0.15    0.25 
   4   1   8    0.28    0.16 
   4   1   8    0.27    0.17 
   4   1   8    0.09    0.12 
  -5  -1  -8   11.14    0.58 
  -5  -1  -8   11.07    0.48 
   5   1   8   11.65    0.43 
   5   1   8   11.05    0.47 
   5   1   8   12.32    0.38 
  -6  -1  -8    1.85    0.28 
  -6  -1  -8    1.81    0.35 
   6   1   8    1.74    0.20 
   6   1   8    1.45    0.25 
   6   1   8    1.59    0.24 
  -7  -1  -8    0.59    0.24 
   7   1   8    0.76    0.24 
   7   1   8    0.77    0.17 
   7   1   8    0.91    0.22 
  -8  -1  -8    1.90    0.34 
   8   1   8    1.96    0.24 
   8   1   8    1.99    0.30 
   8   1   8    2.52    0.34 
  -9  -1  -8    0.69    0.30 
   9   1   8    1.10    0.30 
   9   1   8    0.79    0.22 
   9   1   8    0.99    0.28 
   8  -2  -8   15.42    0.72 
   8  -2  -8   15.90    0.92 
  -8   2   8   15.02    0.74 
   7  -2  -8    0.83    0.39 
   7  -2  -8    0.40    0.24 
   7  -2  -8    1.25    0.35 
  -7   2   8    1.42    0.32 
   6  -2  -8    0.16    0.31 
   6  -2  -8    0.28    0.25 
   6  -2  -8    0.31    0.23 
  -6   2   8   -0.05    0.20 
   5  -2  -8    4.71    0.47 
   5  -2  -8    5.06    0.39 
  -5   2   8    5.07    0.37 
  -5   2   8    4.85    0.34 
   4  -2  -8    0.68    0.28 
   4  -2  -8    0.34    0.27 
   4  -2  -8    0.07    0.18 
  -4   2   8    0.37    0.16 
  -4   2   8    0.24    0.15 
   3  -2  -8    0.04    0.23 
   3  -2  -8   -0.01    0.17 
   3  -2  -8   -0.13    0.24 
  -3   2   8   -0.06    0.11 
  -3   2   8    0.10    0.12 
   2  -2  -8    3.28    0.34 
   2  -2  -8    3.50    0.39 
   2  -2  -8    3.00    0.26 
  -2   2   8    3.23    0.24 
  -2   2   8    2.99    0.20 
  -2   2   8    3.55    0.25 
  -2   2   8    3.02    0.22 
   1  -2  -8    0.05    0.27 
   1  -2  -8    0.28    0.17 
   1  -2  -8    0.31    0.20 
  -1   2   8    0.27    0.11 
  -1   2   8    0.14    0.13 
  -1   2   8    0.16    0.13 
  -1   2   8    0.17    0.09 
   0  -2  -8    6.29    0.47 
   0  -2  -8    7.67    0.39 
   0   2   8    7.35    0.29 
   0   2   8    7.49    0.31 
   0   2   8    7.45    0.29 
   0   2   8    7.37    0.23 
  -1  -2  -8    4.38    0.42 
  -1  -2  -8    3.95    0.28 
  -1  -2  -8    4.04    0.27 
   1   2   8    4.07    0.25 
   1   2   8    4.51    0.27 
   1   2   8    4.30    0.18 
  -2  -2  -8    2.21    0.23 
  -2  -2  -8    1.89    0.33 
   2   2   8    2.04    0.18 
   2   2   8    2.25    0.23 
   2   2   8    2.37    0.18 
  -3  -2  -8    4.65    0.45 
  -3  -2  -8    4.20    0.30 
   3   2   8    3.87    0.24 
   3   2   8    3.94    0.30 
   3   2   8    3.97    0.24 
  -4  -2  -8   11.06    0.58 
  -4  -2  -8   11.18    0.44 
   4   2   8   10.65    0.34 
   4   2   8   11.69    0.37 
   4   2   8   10.46    0.42 
  -5  -2  -8    1.21    0.32 
  -5  -2  -8    0.97    0.22 
   5   2   8    1.21    0.22 
   5   2   8    1.32    0.19 
   5   2   8    1.23    0.16 
  -6  -2  -8    0.47    0.29 
  -6  -2  -8    0.90    0.23 
   6   2   8    0.57    0.18 
   6   2   8    0.66    0.21 
   6   2   8    0.84    0.15 
  -7  -2  -8   -0.22    0.18 
   7   2   8    0.15    0.13 
   7   2   8   -0.06    0.17 
   7   2   8   -0.26    0.18 
  -8  -2  -8    2.14    0.33 
   8   2   8    2.08    0.31 
   8   2   8    1.82    0.21 
   8   2   8    2.24    0.29 
  -9  -2  -8    2.24    0.36 
   9   2   8    2.61    0.34 
   9   2   8    2.94    0.38 
   9   2   8    2.25    0.25 
   7  -3  -8   -0.39    0.35 
  -7   3   8    0.84    0.29 
   6  -3  -8    0.17    0.33 
  -6   3   8    0.10    0.21 
   5  -3  -8    3.63    0.43 
  -5   3   8    3.64    0.33 
   4  -3  -8    1.19    0.31 
  -4   3   8    0.43    0.17 
   3  -3  -8   -0.29    0.23 
   3  -3  -8    0.04    0.23 
  -3   3   8    0.16    0.13 
  -3   3   8    0.00    0.11 
   2  -3  -8   37.98    0.90 
   2  -3  -8   39.17    1.00 
  -2   3   8   38.36    0.75 
  -2   3   8   39.79    0.71 
  -2   3   8   40.32    0.72 
   1  -3  -8   49.42    0.98 
   1  -3  -8   46.12    1.12 
  -1   3   8   47.72    0.86 
  -1   3   8   49.65    0.81 
  -1   3   8   47.64    0.82 
   0  -3  -8    0.12    0.25 
   0  -3  -8    0.50    0.19 
   0   3   8    0.64    0.15 
   0   3   8    0.65    0.14 
   0   3   8    0.27    0.13 
  -1  -3  -8    1.19    0.30 
  -1  -3  -8    2.43    0.21 
   1   3   8    2.03    0.20 
   1   3   8    2.06    0.18 
  -2  -3  -8    3.80    0.22 
  -2  -3  -8    4.41    0.29 
  -2  -3  -8    4.12    0.43 
   2   3   8    4.30    0.23 
   2   3   8    3.99    0.28 
  -3  -3  -8   11.39    0.60 
  -3  -3  -8   12.03    0.44 
   3   3   8   11.93    0.43 
   3   3   8   12.51    0.33 
   3   3   8   12.57    0.33 
  -4  -3  -8    8.44    0.53 
  -4  -3  -8    6.79    0.36 
   4   3   8    7.55    0.37 
   4   3   8    7.57    0.28 
   4   3   8    7.26    0.27 
  -5  -3  -8    2.18    0.35 
  -5  -3  -8    2.11    0.27 
   5   3   8    2.19    0.26 
   5   3   8    1.60    0.16 
   5   3   8    2.00    0.20 
  -6  -3  -8    3.53    0.34 
  -6  -3  -8    2.99    0.40 
   6   3   8    3.70    0.23 
   6   3   8    3.63    0.33 
   6   3   8    3.44    0.26 
  -7  -3  -8    5.04    0.42 
  -7  -3  -8    5.05    0.54 
   7   3   8    5.14    0.39 
   7   3   8    4.54    0.33 
   7   3   8    4.87    0.27 
  -8  -3  -8    1.90    0.32 
   8   3   8    2.38    0.33 
   8   3   8    1.92    0.20 
   8   3   8    1.67    0.26 
  -9  -3  -8   -0.26    0.23 
   9   3   8    0.14    0.26 
   9   3   8    0.27    0.16 
   7  -4  -8   30.09    1.05 
  -7   4   8   29.03    0.93 
   6  -4  -8    2.19    0.43 
  -6   4   8    2.23    0.33 
   5  -4  -8    0.28    0.30 
  -5   4   8    0.37    0.20 
   4  -4  -8    0.31    0.28 
  -4   4   8    0.39    0.16 
  -4   4   8    0.43    0.18 
   3  -4  -8    7.65    0.48 
   3  -4  -8    6.74    0.47 
  -3   4   8    6.56    0.33 
  -3   4   8    6.53    0.32 
   2  -4  -8    3.82    0.34 
   2  -4  -8    4.48    0.42 
  -2   4   8    4.18    0.25 
  -2   4   8    3.42    0.25 
  -2   4   8    3.60    0.27 
   1  -4  -8    0.11    0.21 
   1  -4  -8   -0.02    0.28 
  -1   4   8   -0.13    0.12 
  -1   4   8    0.03    0.12 
  -1   4   8   -0.06    0.12 
   0  -4  -8   -0.30    0.16 
   0  -4  -8    0.25    0.27 
   0   4   8    0.09    0.14 
   0   4   8   -0.03    0.13 
   0   4   8   -0.05    0.12 
  -1  -4  -8   10.91    0.38 
  -1  -4  -8   10.47    0.58 
   1   4   8   10.19    0.37 
   1   4   8   10.42    0.37 
   1   4   8   10.66    0.33 
  -2  -4  -8    1.42    0.34 
  -2  -4  -8    1.58    0.22 
  -2  -4  -8    1.83    0.19 
   2   4   8    1.24    0.15 
   2   4   8    1.49    0.21 
  -3  -4  -8   -0.04    0.16 
  -3  -4  -8    0.00    0.25 
   3   4   8   -0.07    0.09 
   3   4   8    0.27    0.15 
  -4  -4  -8    0.50    0.28 
  -4  -4  -8    0.32    0.18 
   4   4   8    0.24    0.10 
   4   4   8    0.27    0.17 
  -5  -4  -8    0.07    0.16 
  -5  -4  -8    0.29    0.27 
   5   4   8    0.15    0.17 
   5   4   8    0.16    0.10 
  -6  -4  -8    1.52    0.26 
  -6  -4  -8    1.99    0.36 
   6   4   8    1.53    0.15 
   6   4   8    1.47    0.25 
  -7  -4  -8    0.29    0.30 
  -7  -4  -8    0.72    0.24 
   7   4   8    1.42    0.26 
   7   4   8    0.79    0.14 
  -8  -4  -8    1.72    0.31 
   8   4   8    1.83    0.19 
   8   4   8    2.09    0.32 
  -9  -4  -8    1.35    0.32 
   9   4   8    1.49    0.32 
   9   4   8    1.19    0.18 
   7  -5  -8    0.02    0.35 
  -7   5   8    0.19    0.24 
   6  -5  -8    1.76    0.40 
  -6   5   8    1.83    0.32 
   5  -5  -8   -0.07    0.29 
  -5   5   8    0.16    0.18 
  -5   5   8   -0.12    0.18 
   4  -5  -8    0.83    0.29 
  -4   5   8    0.44    0.17 
  -4   5   8    0.40    0.19 
   3  -5  -8    3.87    0.43 
   3  -5  -8    4.69    0.40 
  -3   5   8    4.81    0.32 
  -3   5   8    4.51    0.31 
   2  -5  -8    0.73    0.29 
   2  -5  -8    0.55    0.23 
  -2   5   8    0.56    0.16 
  -2   5   8    0.61    0.15 
  -2   5   8    0.44    0.16 
   1  -5  -8    3.47    0.31 
   1  -5  -8    2.89    0.38 
  -1   5   8    2.92    0.23 
  -1   5   8    3.69    0.27 
  -1   5   8    3.33    0.25 
   0  -5  -8    9.32    0.42 
   0  -5  -8    9.53    0.59 
   0   5   8    9.88    0.34 
   0   5   8    9.74    0.37 
   0   5   8   10.65    0.36 
  -1  -5  -8   -0.39    0.13 
  -1  -5  -8    0.12    0.27 
   1   5   8   -0.02    0.11 
   1   5   8   -0.06    0.13 
   1   5   8   -0.14    0.13 
  -2  -5  -8    4.29    0.27 
  -2  -5  -8    3.27    0.38 
   2   5   8    3.95    0.30 
   2   5   8    3.51    0.27 
   2   5   8    3.99    0.22 
  -3  -5  -8    8.49    0.56 
  -3  -5  -8    9.49    0.34 
   3   5   8    9.09    0.38 
   3   5   8    8.45    0.28 
  -4  -5  -8    7.31    0.40 
  -4  -5  -8    7.33    0.54 
   4   5   8    7.89    0.38 
   4   5   8    7.18    0.25 
  -5  -5  -8    1.40    0.25 
  -5  -5  -8    1.69    0.37 
   5   5   8    1.83    0.25 
   5   5   8    1.53    0.14 
  -6  -5  -8    0.31    0.31 
  -6  -5  -8    0.04    0.18 
   6   5   8    0.20    0.20 
   6   5   8    0.35    0.11 
  -7  -5  -8    0.82    0.33 
  -7  -5  -8    0.77    0.24 
   7   5   8    0.56    0.22 
   7   5   8    0.52    0.12 
  -8  -5  -8    8.90    0.52 
   8   5   8    8.94    0.32 
   8   5   8    9.41    0.52 
  -9  -5  -8    4.26    0.44 
   9   5   8    3.92    0.41 
   9   5   8    4.27    0.27 
   6  -6  -8   12.54    0.76 
  -6   6   8   12.59    0.62 
   5  -6  -8    5.23    0.49 
  -5   6   8    5.90    0.43 
  -5   6   8    5.35    0.42 
   4  -6  -8    0.07    0.28 
  -4   6   8   -0.02    0.16 
  -4   6   8    0.08    0.17 
   3  -6  -8    1.36    0.30 
   3  -6  -8    1.50    0.35 
  -3   6   8    0.89    0.20 
  -3   6   8    1.48    0.21 
   2  -6  -8    4.86    0.48 
   2  -6  -8    4.50    0.39 
  -2   6   8    4.34    0.28 
  -2   6   8    4.08    0.32 
  -2   6   8    4.45    0.33 
   1  -6  -8    3.89    0.45 
   1  -6  -8    3.60    0.33 
  -1   6   8    4.28    0.31 
  -1   6   8    3.65    0.25 
  -1   6   8    3.40    0.26 
   0  -6  -8    3.48    0.43 
   0  -6  -8    4.17    0.36 
   0   6   8    3.50    0.25 
   0   6   8    3.67    0.25 
   0   6   8    3.35    0.28 
  -1  -6  -8   -0.17    0.26 
  -1  -6  -8    0.04    0.16 
   1   6   8   -0.01    0.14 
   1   6   8    0.25    0.12 
   1   6   8   -0.16    0.12 
  -2  -6  -8   23.54    0.60 
  -2  -6  -8   22.65    0.85 
   2   6   8   23.32    0.56 
   2   6   8   23.30    0.62 
   2   6   8   22.75    0.48 
  -3  -6  -8   12.08    0.67 
  -3  -6  -8   12.26    0.42 
   3   6   8   11.92    0.45 
   3   6   8   12.11    0.43 
   3   6   8   11.52    0.33 
  -4  -6  -8   -0.28    0.28 
   4   6   8    0.07    0.16 
   4   6   8    0.34    0.10 
  -5  -6  -8    0.46    0.20 
  -5  -6  -8    0.32    0.31 
   5   6   8    0.14    0.09 
   5   6   8    0.34    0.18 
  -6  -6  -8    0.72    0.23 
  -6  -6  -8    0.98    0.33 
   6   6   8    1.19    0.24 
   6   6   8    0.97    0.13 
  -7  -6  -8    3.30    0.49 
  -7  -6  -8    2.15    0.31 
   7   6   8    3.09    0.21 
   7   6   8    2.73    0.32 
  -8  -6  -8    1.41    0.30 
   8   6   8    1.62    0.30 
   8   6   8    1.37    0.16 
   5  -7  -8    0.51    0.34 
  -5   7   8    0.20    0.23 
   4  -7  -8    4.99    0.48 
  -4   7   8    5.02    0.42 
  -4   7   8    4.82    0.38 
   3  -7  -8   11.95    0.59 
  -3   7   8   11.22    0.44 
  -3   7   8   10.22    0.48 
   2  -7  -8    0.44    0.24 
   2  -7  -8   -0.19    0.30 
  -2   7   8    0.04    0.17 
  -2   7   8   -0.05    0.12 
  -2   7   8   -0.03    0.16 
   1  -7  -8    0.35    0.23 
   1  -7  -8   -0.10    0.31 
  -1   7   8    0.08    0.16 
  -1   7   8    0.22    0.12 
  -1   7   8    0.04    0.15 
   0  -7  -8    2.18    0.30 
   0  -7  -8    2.04    0.39 
   0   7   8    2.37    0.21 
   0   7   8    2.70    0.28 
   0   7   8    2.08    0.22 
  -1  -7  -8    0.21    0.20 
  -1  -7  -8   -0.23    0.29 
   1   7   8   -0.38    0.13 
   1   7   8    0.07    0.12 
   1   7   8    0.00    0.12 
  -2  -7  -8    1.42    0.23 
  -2  -7  -8    1.47    0.37 
   2   7   8    1.54    0.17 
   2   7   8    1.59    0.23 
   2   7   8    1.66    0.20 
  -3  -7  -8    0.05    0.30 
  -3  -7  -8    0.41    0.17 
   3   7   8    0.17    0.15 
   3   7   8    0.06    0.11 
   3   7   8    0.17    0.17 
  -4  -7  -8    0.73    0.33 
   4   7   8   -0.11    0.09 
   4   7   8    0.08    0.16 
   4   7   8   -0.09    0.14 
  -5  -7  -8    1.89    0.40 
   5   7   8    1.45    0.14 
   5   7   8    1.46    0.24 
   5   7   8    1.20    0.23 
  -6  -7  -8    0.67    0.36 
   6   7   8    0.23    0.20 
   6   7   8    0.60    0.11 
  -7  -7  -8    1.64    0.43 
  -7  -7  -8    1.49    0.31 
   7   7   8    1.68    0.29 
   7   7   8    1.86    0.16 
  -8  -7  -8    0.38    0.26 
   8   7   8    0.26    0.25 
   8   7   8    0.11    0.11 
   5  -8  -8    0.46    0.35 
  -5   8   8   -0.23    0.24 
   4  -8  -8    2.43    0.41 
  -4   8   8    2.73    0.36 
   3  -8  -8    1.37    0.35 
  -3   8   8    1.15    0.26 
   2  -8  -8    0.04    0.26 
   2  -8  -8    0.96    0.36 
  -2   8   8    1.00    0.24 
  -2   8   8    0.41    0.22 
   1  -8  -8    0.02    0.34 
   1  -8  -8    1.11    0.27 
  -1   8   8    0.96    0.22 
  -1   8   8    0.90    0.21 
   0  -8  -8    0.16    0.36 
   0  -8  -8   -0.08    0.21 
   0   8   8    0.16    0.16 
   0   8   8   -0.11    0.16 
  -1  -8  -8    7.72    0.63 
  -1  -8  -8    7.28    0.46 
   1   8   8    7.31    0.41 
   1   8   8    7.28    0.34 
  -2  -8  -8    0.57    0.36 
  -2  -8  -8    0.33    0.20 
   2   8   8    0.77    0.16 
   2   8   8    0.71    0.20 
  -3  -8  -8   10.42    0.47 
  -3  -8  -8   10.13    0.69 
   3   8   8   10.39    0.47 
   3   8   8    9.73    0.34 
  -4  -8  -8    1.33    0.39 
   4   8   8    1.85    0.27 
   4   8   8    1.98    0.18 
  -5  -8  -8    0.16    0.35 
   5   8   8    0.16    0.11 
   5   8   8    0.08    0.18 
  -6  -8  -8    0.58    0.39 
   6   8   8    0.22    0.20 
   6   8   8    0.21    0.11 
  -7  -8  -8    0.64    0.42 
   7   8   8    0.68    0.12 
   7   8   8    0.66    0.24 
   4  -9  -8   -0.12    0.32 
  -4   9   8    0.17    0.26 
   3  -9  -8    7.12    0.58 
  -3   9   8    6.08    0.49 
   2  -9  -8    2.70    0.48 
   2  -9  -8    2.92    0.40 
  -2   9   8    2.49    0.33 
  -2   9   8    2.84    0.37 
   1  -9  -8    3.74    0.52 
   1  -9  -8    3.19    0.39 
  -1   9   8    3.40    0.36 
  -1   9   8    3.30    0.33 
   0  -9  -8    0.19    0.37 
   0  -9  -8    0.19    0.24 
   0   9   8   -0.19    0.17 
   0   9   8    0.27    0.19 
  -1  -9  -8    1.96    0.46 
  -1  -9  -8    2.73    0.35 
   1   9   8    2.46    0.26 
   1   9   8    3.01    0.33 
  -2  -9  -8   -0.08    0.36 
  -2  -9  -8   -0.08    0.21 
   2   9   8   -0.01    0.14 
   2   9   8    0.05    0.19 
  -3  -9  -8    0.52    0.23 
  -3  -9  -8    0.39    0.36 
   3   9   8   -0.03    0.18 
   3   9   8    0.73    0.16 
  -4  -9  -8    0.32    0.24 
  -4  -9  -8    0.08    0.38 
   4   9   8    0.10    0.19 
   4   9   8    0.21    0.13 
  -5  -9  -8    1.19    0.44 
   5   9   8    1.16    0.16 
   5   9   8    0.89    0.26 
  -6  -9  -8    0.52    0.42 
   6   9   8    0.01    0.21 
   6   9   8   -0.21    0.11 
   2 -10  -8    0.38    0.31 
  -2  10   8    0.15    0.23 
   1 -10  -8    0.47    0.42 
   1 -10  -8    0.18    0.31 
  -1  10   8    0.13    0.22 
  -1  10   8    0.19    0.24 
   0 -10  -8    0.62    0.31 
   0 -10  -8   -0.28    0.38 
   0  10   8    0.35    0.24 
   0  10   8    0.10    0.21 
  -1 -10  -8    0.07    0.41 
  -1 -10  -8   -0.18    0.24 
   1  10   8   -0.11    0.19 
   1  10   8   -0.14    0.19 
  -2 -10  -8    1.06    0.46 
  -2 -10  -8    1.21    0.30 
   2  10   8    0.93    0.26 
   2  10   8    0.98    0.22 
  -3 -10  -8    0.16    0.27 
  -3 -10  -8   -0.01    0.39 
   3  10   8    0.60    0.24 
   3  10   8    0.22    0.17 
  -4 -10  -8    0.03    0.40 
  -4 -10  -8    0.43    0.27 
   4  10   8    0.27    0.22 
   4  10   8    0.34    0.16 
  -5 -10  -8    0.81    0.44 
   5  10   8   -0.03    0.13 
   5  10   8    0.26    0.22 
   3   6  -9   -0.06    0.39 
   3   6  -9    0.87    0.33 
   3   6  -9    0.55    0.38 
  -3  -6   9    0.27    0.23 
   2   6  -9    0.20    0.34 
   2   6  -9   -0.03    0.38 
   2   6  -9    0.22    0.32 
  -2  -6   9    0.12    0.23 
   1   6  -9    3.21    0.57 
  -1  -6   9    2.67    0.34 
   0   6  -9    4.08    0.58 
   0  -6   9    3.38    0.38 
  -1   6  -9    0.85    0.44 
   1  -6   9    1.00    0.29 
  -2   6  -9    4.00    0.59 
   2  -6   9    5.72    0.46 
   4   5  -9    0.79    0.40 
   4   5  -9    0.18    0.30 
   4   5  -9    0.83    0.43 
  -4  -5   9    0.42    0.23 
   3   5  -9    1.48    0.43 
   3   5  -9    1.18    0.32 
   3   5  -9    0.34    0.35 
  -3  -5   9    1.02    0.25 
   2   5  -9    0.28    0.30 
   2   5  -9    0.48    0.33 
   2   5  -9   -0.30    0.34 
  -2  -5   9    0.18    0.20 
   1   5  -9    0.01    0.36 
   1   5  -9   -0.23    0.30 
  -1  -5   9   -0.07    0.19 
   0   5  -9    0.82    0.39 
   0  -5   9    0.83    0.23 
  -1   5  -9    0.58    0.39 
   1  -5   9    0.66    0.23 
  -2   5  -9    4.87    0.59 
   2  -5   9    6.44    0.47 
  -3   5  -9    2.88    0.52 
   3  -5   9    2.53    0.33 
  -4   5  -9    1.27    0.48 
   4  -5   9    1.42    0.31 
   5   4  -9    4.36    0.43 
   5   4  -9    4.78    0.60 
   5   4  -9    4.77    0.59 
  -5  -4   9    5.17    0.47 
   4   4  -9    0.61    0.38 
   4   4  -9    0.01    0.27 
   4   4  -9    0.70    0.38 
  -4  -4   9    0.34    0.22 
   3   4  -9    0.06    0.31 
   3   4  -9    0.37    0.35 
   3   4  -9    0.22    0.26 
  -3  -4   9    0.35    0.21 
   2   4  -9    0.19    0.29 
   2   4  -9    0.70    0.28 
   2   4  -9    0.41    0.36 
  -2  -4   9    0.49    0.21 
   1   4  -9    2.98    0.36 
   1   4  -9    2.92    0.47 
   1   4  -9    3.40    0.40 
  -1  -4   9    3.64    0.32 
   0   4  -9    0.11    0.33 
   0  -4   9    0.31    0.18 
  -1   4  -9    0.08    0.32 
   1  -4   9    0.61    0.21 
  -2   4  -9   23.73    0.99 
   2  -4   9   25.99    0.72 
  -3   4  -9   13.66    0.81 
   3  -4   9   13.84    0.57 
  -4   4  -9   -0.15    0.20 
  -4   4  -9    0.22    0.35 
   4  -4   9    0.21    0.24 
  -5   4  -9    0.01    0.37 
  -5   4  -9    0.47    0.26 
   5  -4   9   -0.17    0.23 
   6   3  -9    0.55    0.43 
   6   3  -9    0.46    0.29 
  -6  -3   9    1.20    0.29 
  -6  -3   9    0.93    0.28 
   5   3  -9    3.54    0.52 
   5   3  -9    2.59    0.35 
  -5  -3   9    3.16    0.37 
  -5  -3   9    2.97    0.34 
   4   3  -9   15.44    0.77 
   4   3  -9   13.58    0.74 
   4   3  -9   15.50    0.64 
  -4  -3   9   15.00    0.56 
  -4  -3   9   14.52    0.56 
   3   3  -9   10.07    0.55 
   3   3  -9    9.78    0.65 
   3   3  -9   10.15    0.67 
  -3  -3   9   10.55    0.47 
  -3  -3   9    9.70    0.41 
   2   3  -9    0.78    0.30 
   2   3  -9    0.77    0.34 
   2   3  -9    0.83    0.26 
  -2  -3   9    1.14    0.22 
  -2  -3   9    0.96    0.17 
   1   3  -9    1.21    0.28 
   1   3  -9    0.65    0.33 
   1   3  -9    1.33    0.30 
  -1  -3   9    1.60    0.19 
  -1  -3   9    1.14    0.21 
   0   3  -9    4.31    0.50 
   0  -3   9    4.38    0.32 
   0  -3   9    3.86    0.28 
  -1   3  -9    5.41    0.56 
   1  -3   9    4.75    0.34 
   1  -3   9    4.16    0.28 
  -2   3  -9    0.50    0.32 
   2  -3   9    0.18    0.16 
   2  -3   9    0.63    0.19 
  -3   3  -9    9.36    0.46 
  -3   3  -9    8.18    0.67 
   3  -3   9    8.53    0.40 
   3  -3   9    8.91    0.45 
  -4   3  -9    3.56    0.50 
  -4   3  -9    3.28    0.36 
   4  -3   9    4.05    0.36 
  -5   3  -9    0.18    0.34 
  -5   3  -9    0.67    0.27 
   5  -3   9    0.77    0.26 
  -6   3  -9    0.17    0.26 
   6  -3   9    0.59    0.28 
   6   2  -9    0.01    0.24 
   6   2  -9   -1.05    0.34 
  -6  -2   9   -0.14    0.22 
  -6  -2   9    0.16    0.22 
   5   2  -9    0.06    0.25 
   5   2  -9    0.21    0.35 
  -5  -2   9    0.09    0.19 
  -5  -2   9    0.13    0.19 
   4   2  -9    0.54    0.33 
   4   2  -9    1.17    0.26 
   4   2  -9    0.32    0.33 
  -4  -2   9    0.88    0.21 
  -4  -2   9    0.90    0.21 
   3   2  -9   10.82    0.53 
   3   2  -9   11.93    0.63 
   3   2  -9    9.58    0.64 
  -3  -2   9   11.16    0.44 
  -3  -2   9   10.09    0.41 
   2   2  -9   -0.22    0.21 
   2   2  -9    0.13    0.23 
   2   2  -9    0.22    0.29 
  -2  -2   9    0.17    0.13 
  -2  -2   9    0.08    0.15 
   1   2  -9    1.06    0.28 
   1   2  -9    1.24    0.27 
   1   2  -9    1.01    0.33 
  -1  -2   9    1.13    0.17 
  -1  -2   9    0.56    0.17 
   0   2  -9   13.00    0.52 
   0   2  -9   11.78    0.67 
   0  -2   9   12.65    0.41 
   0  -2   9   12.68    0.45 
  -1   2  -9    0.93    0.35 
   1  -2   9    1.03    0.18 
   1  -2   9    0.87    0.19 
  -2   2  -9   10.10    0.64 
  -2   2  -9    8.74    0.40 
   2  -2   9    8.62    0.38 
   2  -2   9    9.15    0.41 
  -3   2  -9   31.81    0.79 
  -3   2  -9   31.02    1.06 
   3  -2   9   32.98    0.74 
   3  -2   9   33.20    0.78 
  -4   2  -9    4.36    0.38 
  -4   2  -9    3.90    0.50 
   4  -2   9    3.77    0.35 
   4  -2   9    3.60    0.32 
  -5   2  -9    0.31    0.21 
  -5   2  -9    0.23    0.31 
   5  -2   9    0.13    0.21 
   5  -2   9    0.12    0.21 
  -6   2  -9    0.80    0.26 
   6  -2   9    0.41    0.25 
   6  -2   9    0.35    0.24 
   6  -2   9    0.65    0.26 
  -7   2  -9    0.01    0.24 
   7  -2   9    0.37    0.27 
   7  -2   9    0.67    0.28 
   7   1  -9    0.31    0.45 
   7   1  -9    0.30    0.25 
  -7  -1   9    0.34    0.27 
  -7  -1   9    0.23    0.24 
   6   1  -9   -0.05    0.37 
   6   1  -9    0.10    0.24 
  -6  -1   9    0.01    0.22 
  -6  -1   9    0.32    0.22 
   5   1  -9    0.54    0.25 
   5   1  -9    0.76    0.36 
  -5  -1   9    0.54    0.22 
  -5  -1   9    0.64    0.22 
   4   1  -9    7.38    0.59 
   4   1  -9    7.68    0.47 
   4   1  -9    6.91    0.57 
  -4  -1   9    7.37    0.40 
  -4  -1   9    8.09    0.41 
   3   1  -9   47.78    1.17 
   3   1  -9   47.81    0.99 
   3   1  -9   48.35    1.26 
  -3  -1   9   48.75    0.96 
  -3  -1   9   45.56    0.92 
   2   1  -9   31.24    0.97 
   2   1  -9   29.14    0.85 
   2   1  -9   30.48    0.76 
  -2  -1   9   29.81    0.67 
  -2  -1   9   30.31    0.66 
   1   1  -9    3.47    0.32 
   1   1  -9    3.70    0.36 
   1   1  -9    3.58    0.43 
  -1  -1   9    3.94    0.27 
  -1  -1   9    3.59    0.26 
   0   1  -9    0.66    0.30 
   0   1  -9    0.72    0.22 
   0  -1   9    0.87    0.17 
   0  -1   9    0.78    0.16 
  -1   1  -9    0.21    0.28 
  -1   1  -9    0.48    0.16 
   1  -1   9    0.57    0.16 
   1  -1   9    0.41    0.16 
  -2   1  -9   -0.21    0.14 
  -2   1  -9   -0.08    0.27 
   2  -1   9    0.05    0.14 
   2  -1   9    0.14    0.14 
   2  -1   9    0.07    0.15 
  -3   1  -9    5.14    0.36 
  -3   1  -9    4.34    0.48 
   3  -1   9    4.20    0.32 
   3  -1   9    4.46    0.30 
   3  -1   9    4.51    0.32 
  -4   1  -9    0.75    0.33 
  -4   1  -9    0.10    0.18 
   4  -1   9    0.44    0.20 
   4  -1   9    0.50    0.21 
   4  -1   9    0.03    0.16 
  -5   1  -9    2.09    0.39 
  -5   1  -9    1.99    0.30 
   5  -1   9    2.08    0.28 
   5  -1   9    2.04    0.24 
   5  -1   9    2.81    0.30 
  -6   1  -9    1.38    0.29 
  -6   1  -9    1.53    0.37 
   6  -1   9    1.09    0.23 
   6  -1   9    1.04    0.27 
   6  -1   9    1.05    0.27 
  -7   1  -9   -0.24    0.23 
   7  -1   9   -0.04    0.24 
   7  -1   9    0.46    0.27 
   7  -1   9   -0.22    0.19 
   7   0  -9    0.24    0.24 
   7   0  -9    0.59    0.44 
  -7   0   9    1.08    0.31 
  -7   0   9    0.51    0.25 
   6   0  -9    1.64    0.44 
   6   0  -9    1.51    0.29 
  -6   0   9    1.31    0.29 
  -6   0   9    1.90    0.30 
   5   0  -9    0.31    0.23 
   5   0  -9   -0.17    0.33 
  -5   0   9    0.70    0.22 
  -5   0   9    0.36    0.19 
   4   0  -9   -0.43    0.27 
   4   0  -9    0.00    0.29 
   4   0  -9    0.17    0.21 
  -4   0   9    0.09    0.16 
  -4   0   9    0.08    0.16 
   3   0  -9    0.30    0.31 
   3   0  -9    0.39    0.22 
   3   0  -9    0.00    0.27 
  -3   0   9    0.43    0.16 
  -3   0   9    0.00    0.13 
   2   0  -9    4.66    0.34 
   2   0  -9    4.88    0.47 
   2   0  -9    5.07    0.43 
  -2   0   9    5.29    0.30 
  -2   0   9    5.43    0.28 
   1   0  -9    5.89    0.38 
   1   0  -9    4.88    0.47 
   1   0  -9    4.88    0.40 
  -1   0   9    5.70    0.30 
  -1   0   9    5.31    0.27 
   0   0  -9    0.34    0.20 
   0   0  -9    0.43    0.14 
   0   0  -9   -0.10    0.27 
   0   0   9    0.29    0.15 
   0   0   9    0.58    0.14 
  -1   0  -9    3.30    0.39 
  -1   0  -9    4.58    0.27 
   1   0   9    4.78    0.27 
   1   0   9    4.79    0.26 
   1   0   9    3.95    0.29 
  -2   0  -9   -0.04    0.25 
  -2   0  -9    0.13    0.15 
   2   0   9    0.02    0.13 
   2   0   9    0.26    0.16 
   2   0   9    0.32    0.14 
  -3   0  -9    5.58    0.51 
  -3   0  -9    6.08    0.36 
   3   0   9    6.04    0.35 
   3   0   9    5.96    0.31 
   3   0   9    6.25    0.33 
  -4   0  -9    4.65    0.49 
  -4   0  -9    4.67    0.38 
   4   0   9    5.04    0.35 
   4   0   9    4.41    0.37 
   4   0   9    4.43    0.30 
  -5   0  -9    0.17    0.19 
  -5   0  -9    0.01    0.27 
   5   0   9    0.02    0.15 
   5   0   9    0.02    0.20 
   5   0   9    0.54    0.20 
  -6   0  -9    0.14    0.29 
  -6   0  -9    0.16    0.21 
   6   0   9    0.18    0.21 
   6   0   9    0.29    0.18 
   6   0   9    0.11    0.22 
  -7   0  -9    0.59    0.26 
   7   0   9    1.07    0.27 
   7   0   9    0.43    0.20 
   7   0   9    0.17    0.22 
  -8   0  -9    4.99    0.47 
   8   0   9    6.15    0.40 
   8   0   9    5.06    0.44 
   8   0   9    4.98    0.45 
   7  -1  -9   -0.05    0.25 
   7  -1  -9    0.31    0.40 
  -7   1   9   -0.11    0.25 
   6  -1  -9    0.06    0.23 
   6  -1  -9    0.03    0.37 
  -6   1   9    0.47    0.24 
  -6   1   9    0.25    0.22 
   5  -1  -9    0.21    0.23 
   5  -1  -9    0.27    0.35 
  -5   1   9    1.05    0.23 
  -5   1   9    0.58    0.22 
   4  -1  -9    0.28    0.22 
   4  -1  -9    0.90    0.32 
   4  -1  -9    0.19    0.30 
  -4   1   9    0.77    0.19 
  -4   1   9    0.62    0.20 
   3  -1  -9    0.07    0.20 
   3  -1  -9    0.19    0.29 
   3  -1  -9   -0.30    0.26 
  -3   1   9    0.03    0.13 
  -3   1   9    0.01    0.14 
   2  -1  -9   46.88    1.06 
   2  -1  -9   47.44    0.91 
   2  -1  -9   48.56    1.19 
  -2   1   9   43.31    0.86 
  -2   1   9   47.95    0.85 
   1  -1  -9   24.02    0.69 
   1  -1  -9   23.83    0.82 
  -1   1   9   24.44    0.52 
  -1   1   9   24.98    0.58 
   0  -1  -9    5.66    0.50 
   0  -1  -9    5.29    0.38 
   0   1   9    4.84    0.30 
   0   1   9    4.80    0.27 
   0   1   9    5.33    0.24 
  -1  -1  -9    1.78    0.35 
  -1  -1  -9    1.85    0.21 
   1   1   9    1.76    0.19 
   1   1   9    1.90    0.18 
   1   1   9    1.34    0.20 
  -2  -1  -9   10.24    0.39 
  -2  -1  -9    9.35    0.58 
   2   1   9    9.92    0.33 
   2   1   9    9.35    0.34 
   2   1   9    9.36    0.39 
  -3  -1  -9    4.05    0.44 
  -3  -1  -9    3.42    0.30 
   3   1   9    4.10    0.27 
   3   1   9    3.82    0.30 
   3   1   9    3.78    0.25 
  -4  -1  -9   16.09    0.55 
  -4  -1  -9   16.31    0.74 
   4   1   9   15.78    0.45 
   4   1   9   14.22    0.52 
   4   1   9   15.85    0.48 
  -5  -1  -9    0.13    0.28 
  -5  -1  -9    0.07    0.19 
   5   1   9    0.04    0.19 
   5   1   9    0.39    0.19 
   5   1   9    0.38    0.16 
  -6  -1  -9    1.04    0.32 
  -6  -1  -9    0.42    0.22 
   6   1   9    0.24    0.17 
   6   1   9    0.45    0.23 
   6   1   9    1.02    0.23 
  -7  -1  -9    9.99    0.56 
   7   1   9    9.86    0.52 
   7   1   9   10.20    0.42 
   7   1   9   10.59    0.50 
  -8  -1  -9    1.60    0.34 
   8   1   9    2.34    0.36 
   8   1   9    1.28    0.23 
   8   1   9    1.40    0.28 
   7  -2  -9    5.45    0.60 
  -7   2   9    6.60    0.54 
   6  -2  -9    2.28    0.46 
  -6   2   9    2.53    0.36 
   5  -2  -9   -0.17    0.30 
  -5   2   9    0.02    0.17 
   4  -2  -9    2.29    0.32 
   4  -2  -9    2.36    0.38 
  -4   2   9    2.68    0.26 
  -4   2   9    2.41    0.27 
   3  -2  -9    0.00    0.26 
   3  -2  -9    0.24    0.27 
  -3   2   9    0.14    0.14 
  -3   2   9    0.39    0.16 
   2  -2  -9    1.35    0.34 
   2  -2  -9    1.40    0.29 
  -2   2   9    1.95    0.19 
  -2   2   9    1.60    0.20 
   1  -2  -9    1.41    0.34 
   1  -2  -9    1.04    0.25 
  -1   2   9    0.69    0.16 
  -1   2   9    0.70    0.12 
  -1   2   9    0.94    0.14 
  -1   2   9    0.95    0.16 
   0  -2  -9    4.00    0.43 
   0  -2  -9    4.29    0.33 
   0   2   9    3.88    0.25 
   0   2   9    4.20    0.24 
   0   2   9    4.22    0.20 
   0   2   9    3.84    0.27 
  -1  -2  -9    5.26    0.30 
  -1  -2  -9    5.56    0.50 
  -1  -2  -9    5.20    0.31 
   1   2   9    5.27    0.22 
   1   2   9    5.09    0.31 
   1   2   9    4.74    0.27 
  -2  -2  -9    5.67    0.50 
  -2  -2  -9    5.38    0.33 
   2   2   9    6.00    0.24 
   2   2   9    5.78    0.28 
   2   2   9    6.36    0.33 
  -3  -2  -9    0.48    0.18 
  -3  -2  -9    0.07    0.26 
   3   2   9    0.71    0.19 
   3   2   9    0.43    0.14 
   3   2   9    0.70    0.14 
  -4  -2  -9    1.48    0.24 
  -4  -2  -9    1.80    0.35 
   4   2   9    2.04    0.21 
   4   2   9    1.55    0.17 
   4   2   9    1.63    0.24 
  -5  -2  -9    2.30    0.40 
  -5  -2  -9    2.22    0.28 
   5   2   9    2.55    0.28 
   5   2   9    2.71    0.23 
   5   2   9    2.72    0.25 
  -6  -2  -9    3.10    0.42 
  -6  -2  -9    2.85    0.33 
   6   2   9    3.23    0.29 
   6   2   9    3.31    0.32 
   6   2   9    2.68    0.23 
  -7  -2  -9    0.81    0.26 
   7   2   9    0.59    0.17 
   7   2   9    0.62    0.25 
   7   2   9    1.00    0.23 
  -8  -2  -9    2.70    0.36 
   8   2   9    2.49    0.33 
   8   2   9    2.79    0.37 
   8   2   9    2.20    0.25 
   7  -3  -9    0.41    0.43 
  -7   3   9    0.22    0.28 
   6  -3  -9    0.91    0.41 
  -6   3   9    1.17    0.29 
   5  -3  -9    1.89    0.39 
  -5   3   9    2.09    0.29 
   4  -3  -9    1.46    0.35 
  -4   3   9    1.96    0.25 
   3  -3  -9    2.61    0.36 
   3  -3  -9    2.80    0.39 
  -3   3   9    2.35    0.24 
   2  -3  -9    0.23    0.25 
   2  -3  -9    0.30    0.28 
  -2   3   9    0.24    0.12 
  -2   3   9    0.06    0.12 
   1  -3  -9    9.09    0.55 
   1  -3  -9    8.61    0.45 
  -1   3   9    8.62    0.31 
  -1   3   9    7.71    0.34 
  -1   3   9    9.10    0.35 
   0  -3  -9    0.24    0.28 
   0  -3  -9    0.14    0.18 
   0   3   9    0.10    0.13 
   0   3   9    0.32    0.13 
   0   3   9    0.10    0.13 
  -1  -3  -9    2.93    0.40 
  -1  -3  -9    3.92    0.29 
   1   3   9    3.55    0.25 
   1   3   9    3.65    0.28 
  -2  -3  -9    0.08    0.15 
  -2  -3  -9    0.11    0.27 
   2   3   9    0.09    0.12 
   2   3   9   -0.01    0.14 
  -3  -3  -9   10.54    0.43 
  -3  -3  -9    9.86    0.60 
   3   3   9    9.64    0.41 
   3   3   9    9.59    0.33 
  -4  -3  -9    2.06    0.37 
  -4  -3  -9    1.79    0.25 
   4   3   9    1.67    0.24 
   4   3   9    1.53    0.17 
  -5  -3  -9    1.72    0.37 
  -5  -3  -9    1.49    0.25 
   5   3   9    1.69    0.19 
   5   3   9    2.17    0.28 
  -6  -3  -9    5.44    0.40 
  -6  -3  -9    4.83    0.51 
   6   3   9    5.46    0.41 
   6   3   9    4.53    0.28 
  -7  -3  -9    2.12    0.32 
  -7  -3  -9    2.41    0.42 
   7   3   9    2.22    0.22 
   7   3   9    2.30    0.32 
  -8  -3  -9   15.33    0.68 
   8   3   9   15.38    0.65 
   8   3   9   14.65    0.47 
   7  -4  -9   19.54    0.92 
  -7   4   9   18.20    0.77 
   6  -4  -9    0.91    0.39 
  -6   4   9    0.08    0.24 
   5  -4  -9    4.25    0.48 
  -5   4   9    5.02    0.41 
   4  -4  -9    1.08    0.32 
  -4   4   9    0.13    0.17 
   3  -4  -9    1.85    0.33 
   3  -4  -9    2.48    0.38 
  -3   4   9    2.56    0.26 
  -3   4   9    2.34    0.22 
   2  -4  -9    0.57    0.30 
   2  -4  -9    0.15    0.23 
  -2   4   9   -0.01    0.13 
  -2   4   9    0.26    0.13 
   1  -4  -9    0.06    0.19 
   1  -4  -9   -0.08    0.26 
  -1   4   9    0.17    0.13 
  -1   4   9    0.07    0.13 
  -1   4   9    0.04    0.13 
   0  -4  -9    1.84    0.35 
   0  -4  -9    2.71    0.27 
   0   4   9    2.34    0.21 
   0   4   9    2.77    0.24 
   0   4   9    2.42    0.23 
  -1  -4  -9    4.55    0.30 
  -1  -4  -9    3.99    0.43 
   1   4   9    3.58    0.26 
   1   4   9    3.88    0.29 
   1   4   9    3.99    0.25 
  -2  -4  -9   21.46    0.80 
   2   4   9   22.25    0.58 
   2   4   9   21.03    0.48 
  -3  -4  -9    9.28    0.41 
  -3  -4  -9    8.84    0.59 
   3   4   9    9.20    0.32 
   3   4   9    8.74    0.40 
  -4  -4  -9    1.12    0.33 
  -4  -4  -9    1.13    0.22 
   4   4   9    1.27    0.22 
   4   4   9    0.83    0.14 
  -5  -4  -9   -0.38    0.16 
  -5  -4  -9   -0.41    0.25 
   5   4   9   -0.03    0.19 
   5   4   9   -0.01    0.11 
  -6  -4  -9    6.70    0.44 
  -6  -4  -9    6.35    0.58 
   6   4   9    6.65    0.29 
   6   4   9    6.14    0.42 
  -7  -4  -9    0.23    0.31 
  -7  -4  -9    0.04    0.21 
   7   4   9    0.22    0.24 
   7   4   9    0.63    0.16 
  -8  -4  -9    0.40    0.25 
   8   4   9    0.45    0.16 
   8   4   9    0.82    0.28 
   6  -5  -9   -0.03    0.35 
  -6   5   9   -0.24    0.22 
   5  -5  -9    3.33    0.46 
  -5   5   9    3.48    0.36 
   4  -5  -9   10.42    0.63 
  -4   5   9   10.06    0.44 
  -4   5   9   11.63    0.50 
   3  -5  -9    2.85    0.40 
   3  -5  -9    2.04    0.33 
  -3   5   9    2.47    0.26 
  -3   5   9    2.00    0.24 
   2  -5  -9    0.63    0.32 
   2  -5  -9    0.62    0.25 
  -2   5   9    0.72    0.18 
  -2   5   9    0.45    0.15 
  -2   5   9    0.93    0.18 
   1  -5  -9    0.04    0.21 
   1  -5  -9   -0.22    0.28 
  -1   5   9    0.20    0.15 
  -1   5   9    0.17    0.13 
  -1   5   9    0.20    0.14 
   0  -5  -9    2.01    0.37 
   0  -5  -9    1.81    0.25 
   0   5   9    1.80    0.22 
   0   5   9    1.97    0.21 
   0   5   9    1.86    0.20 
  -1  -5  -9    2.74    0.40 
  -1  -5  -9    3.17    0.27 
   1   5   9    3.09    0.27 
   1   5   9    2.94    0.25 
   1   5   9    3.42    0.25 
  -2  -5  -9   -0.04    0.27 
  -2  -5  -9    0.20    0.14 
   2   5   9    0.27    0.12 
   2   5   9    0.28    0.16 
   2   5   9    0.11    0.15 
  -3  -5  -9    1.68    0.35 
   3   5   9    2.00    0.24 
   3   5   9    1.96    0.18 
  -4  -5  -9    0.70    0.32 
  -4  -5  -9    0.73    0.20 
   4   5   9    0.61    0.13 
   4   5   9    0.65    0.20 
  -5  -5  -9   -0.08    0.17 
  -5  -5  -9    0.37    0.31 
   5   5   9    0.05    0.20 
   5   5   9    0.24    0.12 
  -6  -5  -9    0.95    0.24 
  -6  -5  -9    1.07    0.36 
   6   5   9    1.08    0.26 
   6   5   9    0.96    0.15 
  -7  -5  -9    2.25    0.32 
  -7  -5  -9    2.12    0.44 
   7   5   9    2.61    0.33 
   7   5   9    1.98    0.19 
  -8  -5  -9    4.52    0.43 
   8   5   9    4.49    0.43 
   8   5   9    4.26    0.29 
   6  -6  -9    2.70    0.47 
  -6   6   9    2.37    0.36 
   5  -6  -9    2.07    0.41 
  -5   6   9    2.57    0.32 
   4  -6  -9    0.52    0.31 
  -4   6   9    0.10    0.19 
  -4   6   9    0.17    0.19 
   3  -6  -9    3.01    0.39 
  -3   6   9    3.20    0.29 
  -3   6   9    2.66    0.28 
   2  -6  -9    2.90    0.35 
   2  -6  -9    2.67    0.42 
  -2   6   9    2.74    0.25 
  -2   6   9    2.50    0.26 
  -2   6   9    2.47    0.27 
   1  -6  -9    0.92    0.26 
   1  -6  -9    0.62    0.32 
  -1   6   9    0.72    0.16 
  -1   6   9    0.80    0.18 
  -1   6   9    1.02    0.20 
   0  -6  -9    1.19    0.23 
   0  -6  -9    0.98    0.35 
   0   6   9    0.78    0.19 
   0   6   9    1.32    0.19 
   0   6   9    0.97    0.18 
  -1  -6  -9    2.41    0.26 
  -1  -6  -9    1.74    0.38 
   1   6   9    2.04    0.21 
   1   6   9    1.83    0.25 
   1   6   9    1.97    0.22 
  -2  -6  -9    3.30    0.28 
  -2  -6  -9    2.34    0.40 
   2   6   9    3.60    0.31 
   2   6   9    2.82    0.21 
   2   6   9    3.32    0.27 
  -3  -6  -9    3.43    0.45 
   3   6   9    4.14    0.24 
   3   6   9    3.85    0.32 
   3   6   9    4.23    0.31 
  -4  -6  -9    0.25    0.30 
   4   6   9    0.05    0.11 
   4   6   9    0.27    0.19 
  -5  -6  -9    0.67    0.34 
  -5  -6  -9   -0.03    0.18 
   5   6   9    0.07    0.11 
   5   6   9    0.24    0.19 
  -6  -6  -9    3.18    0.34 
  -6  -6  -9    3.35    0.49 
   6   6   9    3.51    0.23 
   6   6   9    2.93    0.33 
  -7  -6  -9    0.80    0.37 
  -7  -6  -9    0.04    0.22 
   7   6   9   -0.16    0.23 
   7   6   9    0.24    0.13 
  -8  -6  -9    2.75    0.37 
   8   6   9    3.11    0.38 
   8   6   9    2.53    0.21 
   5  -7  -9    0.71    0.35 
  -5   7   9    0.13    0.23 
  -5   7   9    0.13    0.23 
   4  -7  -9    0.20    0.31 
  -4   7   9    0.75    0.23 
  -4   7   9    0.68    0.25 
   3  -7  -9    3.58    0.41 
  -3   7   9    2.95    0.32 
  -3   7   9    3.17    0.30 
   2  -7  -9   -0.08    0.23 
   2  -7  -9   -0.16    0.30 
  -2   7   9   -0.33    0.12 
  -2   7   9   -0.05    0.18 
  -2   7   9    0.30    0.19 
   1  -7  -9    2.32    0.32 
   1  -7  -9    3.03    0.45 
  -1   7   9    2.24    0.26 
  -1   7   9    2.72    0.24 
  -1   7   9    2.63    0.30 
   0  -7  -9    1.01    0.37 
   0  -7  -9    1.52    0.27 
   0   7   9    1.28    0.19 
   0   7   9    1.98    0.26 
   0   7   9    1.35    0.20 
  -1  -7  -9    0.43    0.35 
  -1  -7  -9    0.82    0.22 
   1   7   9    0.49    0.18 
   1   7   9    0.36    0.15 
   1   7   9    0.43    0.16 
  -2  -7  -9   -0.29    0.32 
  -2  -7  -9    0.39    0.18 
   2   7   9    0.14    0.16 
   2   7   9    0.21    0.13 
   2   7   9    0.09    0.16 
  -3  -7  -9    0.33    0.33 
   3   7   9    0.32    0.13 
   3   7   9    0.30    0.18 
   3   7   9    0.38    0.17 
  -4  -7  -9   -0.31    0.29 
   4   7   9    0.19    0.17 
   4   7   9    0.01    0.11 
   4   7   9    0.08    0.16 
  -5  -7  -9    0.72    0.36 
   5   7   9    0.59    0.22 
   5   7   9    0.71    0.14 
   5   7   9    0.75    0.23 
  -6  -7  -9    1.09    0.43 
   6   7   9    1.16    0.16 
   6   7   9    1.53    0.27 
  -7  -7  -9    0.18    0.25 
  -7  -7  -9    0.18    0.34 
   7   7   9    0.15    0.25 
   7   7   9    0.20    0.12 
   4  -8  -9    2.59    0.41 
  -4   8   9    3.04    0.38 
   3  -8  -9    0.12    0.30 
  -3   8   9   -0.28    0.19 
   2  -8  -9   -0.13    0.36 
   2  -8  -9    0.02    0.28 
  -2   8   9    0.19    0.20 
   1  -8  -9    0.47    0.27 
   1  -8  -9    0.75    0.40 
  -1   8   9    0.27    0.20 
  -1   8   9    0.50    0.21 
   0  -8  -9    0.35    0.36 
   0  -8  -9    0.70    0.26 
   0   8   9    0.82    0.20 
   0   8   9    0.68    0.22 
  -1  -8  -9    0.39    0.23 
  -1  -8  -9    0.09    0.35 
   1   8   9    0.39    0.20 
   1   8   9    0.58    0.17 
  -2  -8  -9    1.08    0.24 
  -2  -8  -9    1.06    0.39 
   2   8   9    0.36    0.20 
   2   8   9    0.65    0.18 
   2   8   9    0.50    0.16 
  -3  -8  -9   -0.21    0.32 
  -3  -8  -9   -0.06    0.20 
   3   8   9    0.04    0.15 
   3   8   9    0.00    0.13 
   3   8   9   -0.22    0.16 
  -4  -8  -9    0.47    0.37 
   4   8   9    1.09    0.24 
   4   8   9    1.09    0.17 
   4   8   9    1.30    0.22 
  -5  -8  -9   -0.13    0.34 
   5   8   9    0.12    0.20 
   5   8   9    0.09    0.19 
   5   8   9    0.15    0.12 
  -6  -8  -9    4.13    0.59 
   6   8   9    3.58    0.36 
   6   8   9    3.82    0.38 
   6   8   9    3.95    0.25 
  -7  -8  -9    1.07    0.45 
   7   8   9    0.85    0.28 
   7   8   9    0.89    0.26 
   7   8   9    1.52    0.16 
   3  -9  -9    1.67    0.38 
  -3   9   9    1.50    0.32 
   2  -9  -9    0.40    0.31 
  -2   9   9   -0.20    0.21 
   1  -9  -9    0.10    0.28 
   1  -9  -9   -0.47    0.37 
  -1   9   9   -0.11    0.20 
  -1   9   9    0.19    0.22 
   0  -9  -9    0.12    0.36 
   0  -9  -9    0.35    0.28 
   0   9   9    0.16    0.20 
   0   9   9    0.11    0.19 
  -1  -9  -9    0.65    0.26 
  -1  -9  -9    0.81    0.44 
   1   9   9    0.63    0.19 
   1   9   9    0.84    0.24 
  -2  -9  -9    2.34    0.33 
  -2  -9  -9    2.24    0.48 
   2   9   9    2.24    0.25 
   2   9   9    2.38    0.31 
  -3  -9  -9    0.74    0.25 
  -3  -9  -9    0.56    0.43 
   3   9   9    0.66    0.23 
   3   9   9    1.03    0.19 
  -4  -9  -9    2.89    0.54 
   4   9   9    2.57    0.23 
   4   9   9    2.60    0.33 
  -5  -9  -9    0.58    0.41 
   5   9   9    0.35    0.15 
   5   9   9    0.34    0.24 
  -6  -9  -9    0.82    0.45 
   6   9   9    0.88    0.16 
   6   9   9    0.86    0.26 
   1 -10  -9    1.26    0.48 
   1 -10  -9    1.04    0.33 
  -1  10   9    1.50    0.31 
  -1  10   9    1.02    0.30 
   0 -10  -9    1.15    0.33 
   0 -10  -9    0.26    0.41 
   0  10   9    0.77    0.25 
   0  10   9    1.15    0.27 
  -1 -10  -9    2.69    0.39 
  -1 -10  -9    2.17    0.51 
   1  10   9    2.41    0.33 
   1  10   9    2.47    0.30 
  -2 -10  -9    1.20    0.31 
  -2 -10  -9    0.65    0.45 
   2  10   9    1.12    0.26 
   2  10   9    0.92    0.22 
  -3 -10  -9    0.50    0.28 
  -3 -10  -9   -0.27    0.38 
   3  10   9   -0.12    0.17 
   3  10   9   -0.50    0.19 
  -4 -10  -9   -0.15    0.42 
   4  10   9   -0.05    0.15 
   4  10   9   -0.06    0.20 
   3   5 -10   -0.37    0.29 
   3   5 -10    0.38    0.41 
   3   5 -10    0.57    0.39 
  -3  -5  10    0.59    0.25 
   2   5 -10    2.16    0.50 
  -2  -5  10    3.07    0.36 
   1   5 -10    1.42    0.47 
  -1  -5  10    1.98    0.30 
   0   5 -10    0.88    0.43 
   0  -5  10    0.49    0.24 
  -1   5 -10    0.99    0.43 
   1  -5  10    0.90    0.26 
  -2   5 -10   -0.19    0.39 
   2  -5  10    0.44    0.23 
  -3   5 -10    7.76    0.79 
   3  -5  10    7.98    0.53 
   4   4 -10    1.58    0.46 
   4   4 -10    0.99    0.43 
   4   4 -10    1.75    0.35 
  -4  -4  10    1.06    0.27 
   3   4 -10    0.15    0.40 
   3   4 -10    0.73    0.37 
   3   4 -10    0.87    0.32 
  -3  -4  10    0.60    0.24 
   2   4 -10    0.87    0.41 
   2   4 -10    0.45    0.34 
  -2  -4  10    0.84    0.23 
   1   4 -10    1.02    0.43 
  -1  -4  10    2.03    0.29 
   0   4 -10    1.80    0.47 
   0  -4  10    2.43    0.32 
  -1   4 -10    3.42    0.54 
   1  -4  10    2.66    0.32 
  -2   4 -10   11.90    0.82 
   2  -4  10   12.75    0.55 
  -3   4 -10    3.86    0.59 
   3  -4  10    4.07    0.39 
  -4   4 -10    1.20    0.46 
   4  -4  10    1.50    0.31 
   5   3 -10   -0.05    0.27 
   5   3 -10   -0.13    0.38 
  -5  -3  10    0.43    0.23 
  -5  -3  10   -0.60    0.18 
   4   3 -10   16.78    0.87 
   4   3 -10   15.92    0.70 
   4   3 -10   15.32    0.87 
  -4  -3  10   15.42    0.59 
  -4  -3  10   16.35    0.62 
   3   3 -10   36.95    1.22 
   3   3 -10   37.46    0.98 
   3   3 -10   36.22    1.11 
  -3  -3  10   37.09    0.90 
  -3  -3  10   35.80    0.83 
   2   3 -10    0.82    0.39 
   2   3 -10    1.02    0.35 
   2   3 -10    1.33    0.36 
  -2  -3  10    0.98    0.20 
  -2  -3  10    1.04    0.23 
   1   3 -10    1.05    0.39 
  -1  -3  10    1.20    0.19 
  -1  -3  10    1.33    0.23 
   0   3 -10   -0.17    0.32 
   0  -3  10    0.40    0.19 
   0  -3  10    0.31    0.15 
  -1   3 -10    5.66    0.61 
   1  -3  10    4.92    0.38 
  -2   3 -10    3.46    0.53 
   2  -3  10    3.17    0.32 
  -3   3 -10    4.18    0.54 
   3  -3  10    5.28    0.40 
  -4   3 -10    5.03    0.63 
   4  -3  10    5.50    0.42 
  -5   3 -10    0.33    0.41 
  -5   3 -10    0.35    0.26 
   5  -3  10    0.77    0.26 
   6   2 -10    0.85    0.46 
   6   2 -10    0.76    0.30 
  -6  -2  10    0.80    0.29 
  -6  -2  10    1.03    0.30 
   5   2 -10    1.49    0.31 
   5   2 -10    0.85    0.44 
  -5  -2  10    0.87    0.25 
  -5  -2  10    1.43    0.27 
   4   2 -10   -0.30    0.33 
   4   2 -10    0.06    0.35 
   4   2 -10    0.00    0.25 
  -4  -2  10    0.19    0.18 
  -4  -2  10   -0.03    0.18 
   3   2 -10    0.64    0.26 
   3   2 -10    0.42    0.34 
   3   2 -10    0.10    0.31 
  -3  -2  10    0.33    0.18 
  -3  -2  10    0.09    0.17 
   2   2 -10    0.39    0.36 
   2   2 -10    0.99    0.31 
   2   2 -10    0.60    0.29 
  -2  -2  10    0.79    0.19 
  -2  -2  10    0.80    0.18 
   1   2 -10    0.25    0.27 
   1   2 -10    1.01    0.38 
  -1  -2  10    1.06    0.20 
  -1  -2  10    0.97    0.18 
   0   2 -10    0.77    0.36 
   0  -2  10    0.84    0.18 
   0  -2  10    0.70    0.18 
  -1   2 -10   -0.14    0.30 
   1  -2  10   -0.19    0.13 
   1  -2  10    0.11    0.16 
  -2   2 -10    2.24    0.42 
   2  -2  10    1.75    0.24 
   2  -2  10    1.39    0.23 
  -3   2 -10    1.02    0.23 
  -3   2 -10    0.74    0.37 
   3  -2  10    1.20    0.23 
   3  -2  10    1.22    0.24 
  -4   2 -10    0.22    0.21 
  -4   2 -10   -0.30    0.35 
   4  -2  10    0.24    0.20 
   4  -2  10   -0.14    0.18 
  -5   2 -10    0.27    0.24 
  -5   2 -10   -0.14    0.34 
   5  -2  10    0.31    0.23 
   5  -2  10    0.34    0.24 
  -6   2 -10    1.18    0.31 
   6  -2  10    1.25    0.30 
   6  -2  10    1.55    0.31 
   6   1 -10    0.72    0.44 
   6   1 -10    0.44    0.27 
  -6  -1  10    0.48    0.25 
  -6  -1  10    0.41    0.26 
   5   1 -10    0.79    0.43 
   5   1 -10    1.24    0.31 
  -5  -1  10    1.71    0.29 
  -5  -1  10    1.45    0.28 
   4   1 -10    0.19    0.36 
   4   1 -10    1.21    0.40 
   4   1 -10    0.75    0.27 
  -4  -1  10    0.75    0.22 
  -4  -1  10    0.70    0.21 
   3   1 -10    8.58    0.51 
   3   1 -10    9.75    0.69 
   3   1 -10    9.46    0.64 
  -3  -1  10    9.52    0.43 
  -3  -1  10    9.55    0.43 
   2   1 -10   21.03    0.88 
   2   1 -10   21.04    0.77 
  -2  -1  10   20.92    0.57 
  -2  -1  10   20.31    0.56 
   1   1 -10    1.05    0.37 
   1   1 -10    0.45    0.26 
  -1  -1  10    0.64    0.17 
  -1  -1  10    0.91    0.18 
   0   1 -10    0.60    0.35 
   0  -1  10    1.78    0.22 
   0  -1  10    1.19    0.20 
  -1   1 -10    4.64    0.51 
   1  -1  10    5.90    0.33 
   1  -1  10    5.87    0.33 
  -2   1 -10    8.41    0.64 
  -2   1 -10   10.13    0.43 
   2  -1  10    8.89    0.40 
   2  -1  10    9.09    0.40 
  -3   1 -10    5.46    0.55 
  -3   1 -10    4.63    0.36 
   3  -1  10    5.48    0.36 
   3  -1  10    5.13    0.38 
  -4   1 -10    1.62    0.27 
  -4   1 -10    0.91    0.37 
   4  -1  10    1.10    0.21 
   4  -1  10    0.86    0.23 
   4  -1  10    0.89    0.22 
  -5   1 -10    2.21    0.31 
  -5   1 -10    2.01    0.45 
   5  -1  10    2.71    0.32 
   5  -1  10    2.07    0.31 
   5  -1  10    2.45    0.27 
  -6   1 -10    6.97    0.65 
  -6   1 -10    7.78    0.53 
   6  -1  10    7.00    0.48 
   6  -1  10    6.59    0.42 
   6  -1  10    7.38    0.49 
  -7   1 -10    4.47    0.45 
   7  -1  10    4.52    0.44 
   7  -1  10    4.11    0.42 
   6   0 -10    0.23    0.42 
   6   0 -10    0.71    0.27 
  -6   0  10    0.10    0.22 
  -6   0  10    0.22    0.26 
   5   0 -10   -0.71    0.36 
   5   0 -10   -0.03    0.24 
  -5   0  10    0.12    0.21 
  -5   0  10   -0.06    0.18 
   4   0 -10    4.31    0.37 
   4   0 -10    4.00    0.50 
   4   0 -10    5.20    0.55 
  -4   0  10    4.78    0.35 
  -4   0  10    4.55    0.36 
   3   0 -10    5.74    0.55 
   3   0 -10    5.50    0.50 
  -3   0  10    5.51    0.35 
  -3   0  10    5.64    0.35 
   2   0 -10    0.31    0.32 
   2   0 -10    0.46    0.29 
  -2   0  10    0.47    0.16 
  -2   0  10    0.39    0.16 
   1   0 -10    3.31    0.36 
   1   0 -10    2.14    0.42 
  -1   0  10    3.10    0.25 
  -1   0  10    2.76    0.25 
   0   0 -10    7.57    0.63 
   0   0  10    9.64    0.35 
   0   0  10    8.57    0.37 
  -1   0 -10   15.13    0.74 
   1   0  10   15.09    0.44 
   1   0  10   13.52    0.46 
  -2   0 -10    0.78    0.20 
  -2   0 -10    0.85    0.34 
   2   0  10    0.86    0.18 
   2   0  10    0.71    0.20 
   2   0  10    0.70    0.18 
  -3   0 -10    0.06    0.31 
  -3   0 -10    0.03    0.17 
   3   0  10    0.18    0.16 
   3   0  10    0.08    0.15 
   3   0  10    0.23    0.19 
  -4   0 -10    1.44    0.25 
  -4   0 -10    0.31    0.33 
   4   0  10    0.65    0.23 
   4   0  10    1.43    0.20 
   4   0  10    1.67    0.24 
  -5   0 -10    0.55    0.35 
  -5   0 -10    1.09    0.26 
   5   0  10    0.80    0.21 
   5   0  10    0.74    0.25 
   5   0  10    1.31    0.24 
  -6   0 -10    1.83    0.41 
  -6   0 -10    1.90    0.32 
   6   0  10    1.36    0.29 
   6   0  10    2.14    0.31 
   6   0  10    1.43    0.25 
  -7   0 -10    2.90    0.39 
   7   0  10    4.15    0.40 
   7   0  10    3.78    0.41 
   7   0  10    3.10    0.32 
   6  -1 -10   -0.45    0.40 
  -6   1  10    0.17    0.24 
   5  -1 -10    6.68    0.60 
  -5   1  10    7.62    0.48 
   4  -1 -10    2.13    0.40 
  -4   1  10    2.46    0.28 
  -4   1  10    2.51    0.30 
   3  -1 -10   -0.15    0.28 
   3  -1 -10    0.32    0.31 
  -3   1  10    0.02    0.14 
  -3   1  10    0.09    0.15 
   2  -1 -10    0.17    0.27 
   2  -1 -10   -0.46    0.29 
  -2   1  10   -0.05    0.13 
  -2   1  10    0.10    0.13 
   1  -1 -10    0.16    0.24 
   1  -1 -10   -0.17    0.29 
  -1   1  10    0.43    0.13 
  -1   1  10    0.22    0.15 
   0  -1 -10    0.09    0.30 
   0  -1 -10    0.16    0.21 
   0   1  10    0.16    0.11 
   0   1  10    0.34    0.16 
  -1  -1 -10    1.45    0.20 
  -1  -1 -10    1.46    0.36 
   1   1  10    1.53    0.17 
   1   1  10    1.30    0.19 
   1   1  10    1.21    0.21 
  -2  -1 -10    0.27    0.17 
  -2  -1 -10    0.55    0.32 
   2   1  10    0.80    0.19 
   2   1  10    0.58    0.15 
   2   1  10    0.59    0.16 
  -3  -1 -10    1.73    0.25 
  -3  -1 -10    1.74    0.38 
   3   1  10    1.38    0.20 
   3   1  10    1.14    0.23 
   3   1  10    1.86    0.21 
  -4  -1 -10    0.23    0.19 
  -4  -1 -10    0.17    0.29 
   4   1  10    0.23    0.15 
   4   1  10    0.36    0.17 
   4   1  10    0.10    0.19 
  -5  -1 -10    2.70    0.32 
  -5  -1 -10    3.36    0.46 
   5   1  10    3.17    0.29 
   5   1  10    2.18    0.30 
   5   1  10    3.26    0.27 
  -6  -1 -10    0.03    0.30 
  -6  -1 -10   -0.18    0.18 
   6   1  10    0.01    0.17 
   6   1  10    0.14    0.20 
   6   1  10    0.18    0.23 
  -7  -1 -10   11.79    0.61 
   7   1  10   11.27    0.49 
   7   1  10   12.15    0.56 
   7   1  10   12.40    0.61 
  -8  -1 -10    2.01    0.36 
   8   1  10    1.90    0.35 
   8   1  10    1.77    0.28 
   6  -2 -10    2.38    0.51 
  -6   2  10    3.75    0.42 
   5  -2 -10    0.34    0.36 
  -5   2  10    0.83    0.26 
   4  -2 -10    0.15    0.32 
  -4   2  10    0.31    0.18 
   3  -2 -10    4.48    0.47 
   3  -2 -10    3.77    0.42 
  -3   2  10    3.68    0.30 
   2  -2 -10    2.07    0.34 
   2  -2 -10    1.89    0.38 
  -2   2  10    1.93    0.23 
   1  -2 -10    3.73    0.46 
   1  -2 -10    4.20    0.37 
  -1   2  10    3.91    0.29 
   0  -2 -10    0.17    0.29 
   0  -2 -10    0.22    0.21 
   0   2  10    0.21    0.15 
   0   2  10    0.20    0.12 
   0   2  10    0.06    0.13 
  -1  -2 -10   22.28    0.85 
  -1  -2 -10   23.05    0.59 
   1   2  10   22.98    0.60 
   1   2  10   24.32    0.55 
  -2  -2 -10    6.90    0.56 
  -2  -2 -10    7.42    0.38 
   2   2  10    7.24    0.37 
   2   2  10    6.76    0.32 
  -3  -2 -10    0.21    0.17 
  -3  -2 -10    0.47    0.31 
   3   2  10   -0.19    0.13 
   3   2  10    0.16    0.18 
  -4  -2 -10    0.51    0.33 
  -4  -2 -10    0.36    0.20 
   4   2  10    0.26    0.15 
   4   2  10    0.62    0.22 
  -5  -2 -10    3.25    0.34 
  -5  -2 -10    3.43    0.47 
   5   2  10    2.60    0.31 
   5   2  10    2.94    0.25 
  -6  -2 -10    0.38    0.32 
  -6  -2 -10    0.46    0.22 
   6   2  10    0.59    0.18 
   6   2  10    0.35    0.25 
  -7  -2 -10    0.34    0.25 
   7   2  10    0.33    0.26 
   7   2  10    0.06    0.17 
  -8  -2 -10    0.23    0.26 
   8   2  10   -0.46    0.17 
   8   2  10   -0.12    0.27 
   6  -3 -10    0.15    0.40 
  -6   3  10   -0.05    0.23 
   5  -3 -10    4.13    0.53 
  -5   3  10    4.02    0.39 
   4  -3 -10   13.17    0.73 
  -4   3  10   13.39    0.54 
   3  -3 -10    2.76    0.42 
   3  -3 -10    2.68    0.39 
  -3   3  10    2.56    0.26 
   2  -3 -10    0.35    0.32 
   2  -3 -10    0.48    0.28 
  -2   3  10    0.81    0.18 
   1  -3 -10    7.72    0.57 
   1  -3 -10    7.95    0.47 
  -1   3  10    8.30    0.33 
  -1   3  10    7.41    0.35 
  -1   3  10    8.10    0.38 
   0  -3 -10    0.18    0.30 
   0  -3 -10    0.17    0.20 
   0   3  10   -0.10    0.14 
   0   3  10    0.29    0.14 
   0   3  10    0.11    0.13 
  -1  -3 -10    0.70    0.32 
   1   3  10    0.45    0.15 
   1   3  10    0.74    0.17 
   1   3  10    0.69    0.18 
  -2  -3 -10   -0.05    0.28 
  -2  -3 -10    0.21    0.18 
   2   3  10    0.19    0.17 
   2   3  10    0.19    0.14 
  -3  -3 -10    2.75    0.29 
  -3  -3 -10    2.56    0.41 
   3   3  10    3.56    0.27 
   3   3  10    2.76    0.27 
  -4  -3 -10   -0.03    0.31 
  -4  -3 -10    0.30    0.19 
   4   3  10   -0.01    0.13 
   4   3  10    0.22    0.19 
  -5  -3 -10    1.47    0.37 
  -5  -3 -10    0.76    0.22 
   5   3  10    1.34    0.26 
   5   3  10    1.45    0.19 
  -6  -3 -10    2.05    0.42 
  -6  -3 -10    1.25    0.27 
   6   3  10    1.05    0.19 
   6   3  10    1.21    0.27 
  -7  -3 -10    0.00    0.33 
  -7  -3 -10   -0.03    0.23 
   7   3  10    0.21    0.17 
   7   3  10   -0.01    0.25 
  -8  -3 -10    0.61    0.27 
   8   3  10    1.09    0.22 
   8   3  10    1.46    0.32 
   6  -4 -10    0.62    0.40 
  -6   4  10    0.68    0.27 
   5  -4 -10    1.57    0.41 
  -5   4  10    1.59    0.30 
   4  -4 -10    1.87    0.40 
  -4   4  10    2.25    0.29 
   3  -4 -10    0.52    0.32 
   3  -4 -10    0.11    0.29 
  -3   4  10    0.64    0.20 
   2  -4 -10    0.58    0.33 
   2  -4 -10    0.21    0.25 
  -2   4  10    0.08    0.15 
  -2   4  10    0.57    0.16 
   1  -4 -10    0.16    0.23 
   1  -4 -10    0.20    0.30 
  -1   4  10   -0.08    0.13 
  -1   4  10    0.36    0.14 
  -1   4  10    0.41    0.15 
   0  -4 -10    6.62    0.58 
   0  -4 -10    7.92    0.41 
   0   4  10    6.71    0.34 
   0   4  10    6.99    0.35 
   0   4  10    7.03    0.35 
  -1  -4 -10    2.04    0.23 
  -1  -4 -10    1.01    0.33 
   1   4  10    1.71    0.20 
   1   4  10    1.83    0.22 
   1   4  10    1.79    0.23 
  -2  -4 -10    2.64    0.41 
   2   4  10    2.27    0.21 
   2   4  10    2.19    0.24 
  -3  -4 -10    1.10    0.36 
  -3  -4 -10    1.25    0.23 
   3   4  10    1.26    0.18 
   3   4  10    1.41    0.23 
  -4  -4 -10    0.72    0.33 
  -4  -4 -10    0.28    0.20 
   4   4  10    0.29    0.20 
   4   4  10    0.49    0.14 
  -5  -4 -10    3.42    0.47 
  -5  -4 -10    3.51    0.35 
   5   4  10    3.27    0.34 
   5   4  10    3.74    0.26 
  -6  -4 -10    0.65    0.35 
  -6  -4 -10    0.34    0.22 
   6   4  10    0.60    0.25 
   6   4  10    0.49    0.16 
  -7  -4 -10    1.05    0.28 
  -7  -4 -10    1.45    0.40 
   7   4  10    0.99    0.19 
   7   4  10    1.21    0.30 
  -8  -4 -10    1.17    0.29 
   8   4  10    1.51    0.22 
   8   4  10    0.97    0.31 
   6  -5 -10    0.38    0.37 
  -6   5  10    0.30    0.25 
   5  -5 -10    0.26    0.38 
  -5   5  10    0.18    0.23 
   4  -5 -10    0.87    0.35 
  -4   5  10    1.58    0.26 
   3  -5 -10    0.82    0.30 
   3  -5 -10    0.38    0.36 
  -3   5  10    0.48    0.19 
  -3   5  10    0.67    0.19 
   2  -5 -10    4.66    0.50 
   2  -5 -10    4.60    0.41 
  -2   5  10    5.11    0.32 
  -2   5  10    4.50    0.32 
   1  -5 -10    1.84    0.40 
   1  -5 -10    1.35    0.28 
  -1   5  10    1.63    0.22 
  -1   5  10    1.97    0.22 
  -1   5  10    1.53    0.21 
   0  -5 -10    1.41    0.38 
   0  -5 -10    1.09    0.24 
   0   5  10    0.96    0.18 
   0   5  10    0.95    0.20 
   0   5  10    0.90    0.18 
  -1  -5 -10    6.41    0.37 
  -1  -5 -10    5.04    0.52 
   1   5  10    5.65    0.31 
   1   5  10    6.36    0.37 
   1   5  10    5.63    0.35 
  -2  -5 -10    1.61    0.39 
   2   5  10    1.73    0.23 
   2   5  10    1.62    0.19 
   2   5  10    2.19    0.26 
  -3  -5 -10    1.27    0.36 
   3   5  10    1.61    0.24 
   3   5  10    1.30    0.18 
  -4  -5 -10    1.72    0.39 
  -4  -5 -10    1.68    0.28 
   4   5  10    1.80    0.26 
   4   5  10    1.51    0.18 
  -5  -5 -10    0.34    0.21 
  -5  -5 -10    0.65    0.33 
   5   5  10    0.74    0.23 
   5   5  10    0.66    0.15 
  -6  -5 -10    0.71    0.25 
  -6  -5 -10    1.17    0.39 
   6   5  10    0.93    0.27 
   6   5  10    0.80    0.16 
  -7  -5 -10    0.24    0.35 
  -7  -5 -10   -0.06    0.22 
   7   5  10   -0.05    0.24 
   7   5  10    0.01    0.14 
  -8  -5 -10    1.25    0.31 
   8   5  10    1.54    0.21 
   8   5  10    1.82    0.34 
   5  -6 -10    0.65    0.38 
  -5   6  10    0.24    0.24 
   4  -6 -10    2.04    0.41 
  -4   6  10    2.29    0.31 
   3  -6 -10    0.83    0.32 
  -3   6  10    1.99    0.27 
  -3   6  10    1.50    0.24 
   2  -6 -10   -0.17    0.25 
   2  -6 -10    0.06    0.31 
  -2   6  10    0.12    0.15 
  -2   6  10    0.03    0.16 
   1  -6 -10    2.76    0.34 
   1  -6 -10    2.34    0.43 
  -1   6  10    2.86    0.29 
  -1   6  10    2.76    0.25 
  -1   6  10    2.83    0.27 
   0  -6 -10    0.17    0.32 
   0  -6 -10    0.30    0.21 
   0   6  10    0.20    0.18 
   0   6  10    0.33    0.16 
   0   6  10   -0.02    0.15 
  -1  -6 -10    2.70    0.29 
  -1  -6 -10    1.54    0.39 
   1   6  10    1.93    0.23 
   1   6  10    2.11    0.27 
   1   6  10    1.92    0.21 
  -2  -6 -10    0.48    0.33 
   2   6  10    0.36    0.20 
   2   6  10    0.56    0.18 
   2   6  10    0.66    0.15 
  -3  -6 -10    2.87    0.44 
   3   6  10    2.67    0.30 
   3   6  10    3.50    0.26 
   3   6  10    3.13    0.29 
  -4  -6 -10    0.97    0.36 
   4   6  10    0.42    0.14 
   4   6  10    0.02    0.18 
   4   6  10    0.27    0.19 
  -5  -6 -10    5.83    0.43 
  -5  -6 -10    5.47    0.57 
   5   6  10    5.28    0.41 
   5   6  10    5.86    0.29 
  -6  -6 -10    0.40    0.25 
  -6  -6 -10    0.61    0.37 
   6   6  10    0.88    0.28 
   6   6  10    0.54    0.16 
  -7  -6 -10    0.09    0.36 
  -7  -6 -10   -0.18    0.22 
   7   6  10    0.00    0.13 
   7   6  10   -0.11    0.25 
   4  -7 -10    0.22    0.33 
  -4   7  10    0.34    0.23 
  -4   7  10    0.40    0.22 
   3  -7 -10    1.20    0.33 
  -3   7  10    0.44    0.20 
  -3   7  10    0.52    0.22 
   2  -7 -10    0.58    0.28 
   2  -7 -10    0.91    0.38 
  -2   7  10    1.08    0.25 
  -2   7  10    1.46    0.23 
   1  -7 -10    0.09    0.24 
   1  -7 -10    0.18    0.36 
  -1   7  10    0.05    0.19 
  -1   7  10    0.22    0.17 
  -1   7  10   -0.12    0.13 
   0  -7 -10    4.60    0.40 
   0  -7 -10    5.20    0.57 
   0   7  10    4.11    0.30 
   0   7  10    3.79    0.29 
   0   7  10    3.99    0.34 
  -1  -7 -10    1.76    0.27 
  -1  -7 -10    1.68    0.42 
   1   7  10    1.29    0.24 
   1   7  10    1.45    0.20 
   1   7  10    1.29    0.21 
  -2  -7 -10    3.34    0.50 
   2   7  10    3.25    0.25 
   2   7  10    3.64    0.35 
   2   7  10    3.60    0.29 
  -3  -7 -10    2.02    0.43 
   3   7  10    2.67    0.23 
   3   7  10    3.16    0.29 
   3   7  10    3.20    0.33 
  -4  -7 -10    1.00    0.41 
   4   7  10    1.02    0.17 
   4   7  10    0.98    0.23 
   4   7  10    1.17    0.24 
  -5  -7 -10    0.01    0.31 
   5   7  10   -0.28    0.20 
   5   7  10    0.12    0.13 
   5   7  10    0.03    0.19 
  -6  -7 -10    0.09    0.36 
   6   7  10    0.34    0.24 
   6   7  10    0.23    0.14 
  -7  -7 -10    2.53    0.50 
  -7  -7 -10    2.53    0.37 
   7   7  10    3.82    0.40 
   7   7  10    2.43    0.21 
   3  -8 -10    8.09    0.60 
  -3   8  10    8.11    0.51 
   2  -8 -10    7.16    0.56 
   2  -8 -10    5.40    0.62 
  -2   8  10    6.46    0.47 
   1  -8 -10    0.56    0.40 
   1  -8 -10    0.08    0.27 
  -1   8  10   -0.08    0.20 
  -1   8  10    0.10    0.19 
   0  -8 -10    3.29    0.38 
   0  -8 -10    2.72    0.50 
   0   8  10    3.19    0.30 
   0   8  10    2.93    0.27 
   0   8  10    2.91    0.33 
  -1  -8 -10    0.57    0.24 
  -1  -8 -10    0.34    0.38 
   1   8  10    0.57    0.17 
   1   8  10    0.29    0.21 
   1   8  10    0.12    0.16 
  -2  -8 -10    0.18    0.20 
  -2  -8 -10    0.34    0.36 
   2   8  10    0.01    0.16 
   2   8  10    0.19    0.16 
   2   8  10    0.17    0.20 
  -3  -8 -10    0.12    0.33 
   3   8  10    0.24    0.19 
   3   8  10    0.15    0.20 
   3   8  10    0.33    0.16 
  -4  -8 -10    0.88    0.40 
   4   8  10    0.83    0.25 
   4   8  10    0.71    0.17 
   4   8  10    0.57    0.23 
  -5  -8 -10    0.95    0.43 
   5   8  10    1.81    0.20 
   5   8  10    1.46    0.29 
   5   8  10    2.11    0.30 
  -6  -8 -10    2.13    0.49 
   6   8  10    1.93    0.32 
   6   8  10    2.19    0.33 
   6   8  10    2.22    0.21 
   2  -9 -10    0.42    0.31 
  -2   9  10    0.54    0.26 
   1  -9 -10    0.51    0.32 
   1  -9 -10    0.61    0.44 
  -1   9  10    0.16    0.23 
  -1   9  10    0.45    0.24 
   0  -9 -10    2.21    0.51 
   0  -9 -10    3.25    0.40 
   0   9  10    2.24    0.32 
   0   9  10    2.55    0.30 
  -1  -9 -10    2.88    0.53 
  -1  -9 -10    3.42    0.40 
   1   9  10    3.53    0.31 
   1   9  10    3.87    0.38 
  -2  -9 -10    0.20    0.40 
  -2  -9 -10    0.43    0.25 
   2   9  10    0.28    0.22 
   2   9  10    0.40    0.18 
  -3  -9 -10   -0.18    0.38 
   3   9  10    0.43    0.18 
   3   9  10    0.19    0.21 
  -4  -9 -10    0.72    0.42 
   4   9  10   -0.15    0.15 
   4   9  10   -0.34    0.18 
  -5  -9 -10   -0.47    0.36 
   5   9  10   -0.03    0.14 
   5   9  10   -0.04    0.21 
   0 -10 -10    0.93    0.44 
   0 -10 -10    1.76    0.37 
   0  10  10    1.46    0.28 
   0  10  10    1.22    0.29 
  -1 -10 -10    0.66    0.30 
  -1 -10 -10    0.14    0.40 
   1  10  10    0.08    0.21 
   1  10  10   -0.14    0.21 
  -2 -10 -10   -0.39    0.40 
  -2 -10 -10    0.06    0.25 
   2  10  10    0.35    0.24 
   2  10  10    0.08    0.19 
  -3 -10 -10   -0.08    0.40 
   3  10  10   -0.24    0.20 
   3  10  10    0.36    0.19 
   2   4 -11   -0.46    0.39 
  -2  -4  11   -0.18    0.18 
   1   4 -11    1.40    0.49 
  -1  -4  11    2.04    0.31 
   0   4 -11   -0.06    0.40 
   0  -4  11   -0.09    0.21 
  -1   4 -11   -0.29    0.40 
   1  -4  11    0.67    0.24 
  -2   4 -11   -0.23    0.41 
   2  -4  11    0.33    0.22 
  -3   4 -11    1.70    0.52 
   3  -4  11    1.25    0.28 
   4   3 -11    0.17    0.44 
   4   3 -11    0.58    0.44 
  -4  -3  11   -0.17    0.19 
   3   3 -11    6.74    0.71 
   3   3 -11    8.33    0.71 
  -3  -3  11    8.10    0.47 
   2   3 -11    7.10    0.71 
  -2  -3  11    8.50    0.47 
   1   3 -11    2.22    0.53 
  -1  -3  11    2.77    0.30 
   0   3 -11    0.78    0.45 
   0  -3  11    1.14    0.25 
  -1   3 -11    2.19    0.50 
   1  -3  11    2.58    0.31 
  -2   3 -11    0.96    0.46 
   2  -3  11    1.83    0.29 
  -3   3 -11    2.48    0.54 
   3  -3  11    3.07    0.35 
  -4   3 -11    0.75    0.44 
   4  -3  11    0.50    0.26 
   4   2 -11   -0.13    0.40 
   4   2 -11    0.24    0.43 
  -4  -2  11    0.22    0.22 
  -4  -2  11    0.16    0.20 
   3   2 -11    1.10    0.45 
   3   2 -11    1.10    0.39 
  -3  -2  11    1.41    0.25 
  -3  -2  11    1.51    0.25 
   2   2 -11    1.12    0.38 
   2   2 -11    1.24    0.47 
  -2  -2  11    1.55    0.25 
  -2  -2  11    1.01    0.22 
   1   2 -11    1.25    0.45 
  -1  -2  11    1.26    0.22 
  -1  -2  11    1.33    0.23 
   0   2 -11    9.38    0.74 
   0  -2  11    9.02    0.43 
   0  -2  11    8.86    0.41 
  -1   2 -11    3.72    0.55 
   1  -2  11    5.51    0.38 
   1  -2  11    5.06    0.34 
  -2   2 -11    0.17    0.37 
   2  -2  11    0.18    0.18 
   2  -2  11    0.40    0.19 
  -3   2 -11    0.01    0.38 
   3  -2  11    0.25    0.19 
   3  -2  11    0.49    0.21 
  -4   2 -11    1.46    0.48 
   4  -2  11    2.16    0.31 
   4  -2  11    2.61    0.33 
  -5   2 -11    1.87    0.50 
  -5   2 -11    1.91    0.33 
   5  -2  11    1.38    0.29 
   5  -2  11    1.47    0.30 
   5   1 -11    2.52    0.53 
  -5  -1  11    2.13    0.33 
  -5  -1  11    2.13    0.33 
   4   1 -11   -0.08    0.39 
   4   1 -11   -0.62    0.34 
  -4  -1  11    0.01    0.20 
  -4  -1  11   -0.10    0.17 
   3   1 -11    0.66    0.37 
   3   1 -11    0.06    0.39 
  -3  -1  11    0.67    0.21 
  -3  -1  11    1.00    0.22 
   2   1 -11    0.11    0.30 
   2   1 -11   -0.07    0.36 
  -2  -1  11   -0.04    0.16 
  -2  -1  11   -0.02    0.14 
   1   1 -11    0.31    0.37 
  -1  -1  11    0.39    0.16 
  -1  -1  11    0.24    0.16 
   0   1 -11    3.60    0.52 
   0  -1  11    3.67    0.31 
   0  -1  11    4.08    0.31 
  -1   1 -11    0.65    0.38 
   1  -1  11    0.92    0.20 
   1  -1  11    0.93    0.21 
  -2   1 -11    0.44    0.35 
   2  -1  11    0.07    0.16 
   2  -1  11   -0.13    0.17 
  -3   1 -11    1.79    0.44 
   3  -1  11    1.99    0.26 
   3  -1  11    1.93    0.27 
  -4   1 -11   -0.11    0.21 
  -4   1 -11    0.41    0.39 
   4  -1  11   -0.48    0.17 
   4  -1  11    0.28    0.22 
  -5   1 -11    2.22    0.34 
  -5   1 -11    2.23    0.51 
   5  -1  11    2.27    0.33 
   5  -1  11    2.62    0.31 
  -6   1 -11    2.55    0.50 
  -6   1 -11    2.25    0.36 
   6  -1  11    2.33    0.33 
   6  -1  11    2.47    0.36 
   5   0 -11    0.71    0.42 
  -5   0  11    1.15    0.29 
   4   0 -11   -0.23    0.34 
  -4   0  11    0.21    0.20 
  -4   0  11    0.46    0.21 
   3   0 -11    0.39    0.35 
   3   0 -11    0.36    0.37 
  -3   0  11    1.06    0.22 
  -3   0  11    1.00    0.21 
   2   0 -11    0.78    0.32 
   2   0 -11    0.68    0.38 
  -2   0  11    0.29    0.15 
  -2   0  11    0.45    0.18 
   1   0 -11    0.41    0.36 
  -1   0  11    0.43    0.16 
  -1   0  11    0.74    0.18 
   0   0 -11    3.88    0.52 
   0   0  11    4.50    0.28 
   0   0  11    3.67    0.31 
  -1   0 -11    6.84    0.62 
   1   0  11    5.91    0.37 
   1   0  11    6.56    0.33 
  -2   0 -11    1.02    0.37 
   2   0  11    0.87    0.22 
   2   0  11    0.92    0.19 
  -3   0 -11    0.14    0.33 
  -3   0 -11    0.22    0.19 
   3   0  11    0.20    0.18 
   3   0  11    0.22    0.17 
   3   0  11   -0.18    0.18 
  -4   0 -11    1.31    0.27 
  -4   0 -11    1.43    0.42 
   4   0  11    1.91    0.25 
   4   0  11    1.51    0.27 
   4   0  11    1.57    0.23 
  -5   0 -11    3.15    0.52 
  -5   0 -11    3.62    0.37 
   5   0  11    3.72    0.34 
   5   0  11    3.10    0.36 
   5   0  11    3.01    0.29 
  -6   0 -11    0.02    0.24 
  -6   0 -11    0.26    0.37 
   6   0  11    0.08    0.22 
   6   0  11    0.16    0.20 
   6   0  11    0.32    0.27 
   5  -1 -11    4.52    0.57 
  -5   1  11    4.33    0.42 
   4  -1 -11   -0.16    0.36 
  -4   1  11   -0.28    0.18 
   3  -1 -11    0.48    0.34 
   3  -1 -11    1.05    0.37 
  -3   1  11    1.28    0.23 
   2  -1 -11    2.13    0.44 
   2  -1 -11    1.75    0.36 
  -2   1  11    1.72    0.24 
   1  -1 -11    1.33    0.39 
   1  -1 -11    0.60    0.29 
  -1   1  11    0.69    0.19 
   0  -1 -11    0.63    0.36 
   0   1  11    0.62    0.19 
  -1  -1 -11    1.23    0.40 
   1   1  11    1.12    0.22 
  -2  -1 -11    1.29    0.39 
  -2  -1 -11    1.16    0.22 
   2   1  11    0.89    0.19 
   2   1  11    0.92    0.22 
  -3  -1 -11    0.31    0.34 
  -3  -1 -11   -0.23    0.16 
   3   1  11    0.08    0.16 
   3   1  11    0.07    0.19 
  -4  -1 -11    0.01    0.32 
  -4  -1 -11   -0.35    0.17 
   4   1  11   -0.01    0.20 
   4   1  11    0.12    0.16 
  -5  -1 -11    0.07    0.35 
  -5  -1 -11    0.30    0.23 
   5   1  11    0.30    0.24 
   5   1  11    0.63    0.20 
  -6  -1 -11    3.05    0.49 
  -6  -1 -11    1.83    0.32 
   6   1  11    2.05    0.34 
   6   1  11    1.82    0.26 
  -7  -1 -11    0.17    0.25 
   7   1  11   -0.08    0.20 
   7   1  11    0.76    0.31 
   5  -2 -11    1.23    0.44 
  -5   2  11    1.61    0.32 
   4  -2 -11    0.63    0.39 
  -4   2  11    1.48    0.27 
   3  -2 -11   -0.05    0.31 
   3  -2 -11    0.51    0.34 
  -3   2  11    0.43    0.18 
   2  -2 -11    1.03    0.31 
   2  -2 -11    0.96    0.36 
  -2   2  11    0.83    0.20 
   1  -2 -11    0.64    0.28 
   1  -2 -11    0.75    0.37 
  -1   2  11    0.73    0.19 
   0  -2 -11    0.38    0.34 
   0   2  11   -0.02    0.15 
  -1  -2 -11    0.82    0.34 
   1   2  11    0.16    0.17 
   1   2  11    0.02    0.15 
  -2  -2 -11    0.61    0.32 
  -2  -2 -11    0.10    0.17 
   2   2  11    0.14    0.15 
   2   2  11    0.24    0.18 
  -3  -2 -11    0.05    0.18 
  -3  -2 -11    0.21    0.32 
   3   2  11    0.02    0.15 
   3   2  11   -0.24    0.18 
  -4  -2 -11    0.69    0.22 
  -4  -2 -11    1.01    0.37 
   4   2  11    1.15    0.25 
   4   2  11    0.55    0.18 
  -5  -2 -11    2.92    0.33 
  -5  -2 -11    2.81    0.48 
   5   2  11    2.38    0.32 
   5   2  11    2.53    0.25 
  -6  -2 -11    0.05    0.24 
  -6  -2 -11   -0.24    0.35 
   6   2  11   -0.31    0.24 
   6   2  11    0.07    0.18 
  -7  -2 -11    2.73    0.38 
   7   2  11    2.70    0.29 
   7   2  11    3.79    0.42 
   5  -3 -11    0.10    0.39 
  -5   3  11    0.20    0.25 
   4  -3 -11    0.71    0.39 
  -4   3  11   -0.11    0.20 
   3  -3 -11    0.36    0.34 
   3  -3 -11   -0.50    0.30 
  -3   3  11    0.11    0.18 
   2  -3 -11   -0.44    0.25 
   2  -3 -11    0.34    0.34 
  -2   3  11   -0.01    0.15 
   1  -3 -11    0.81    0.36 
   1  -3 -11    1.18    0.29 
  -1   3  11    1.15    0.21 
   0  -3 -11    1.57    0.40 
   0   3  11    1.48    0.22 
   0   3  11    1.31    0.20 
   0   3  11    1.48    0.20 
  -1  -3 -11    1.05    0.36 
   1   3  11    0.91    0.18 
   1   3  11    0.79    0.20 
   1   3  11    0.37    0.16 
  -2  -3 -11    2.49    0.42 
  -2  -3 -11    2.54    0.28 
   2   3  11    2.96    0.25 
   2   3  11    3.01    0.30 
  -3  -3 -11    0.58    0.34 
  -3  -3 -11    0.57    0.21 
   3   3  11    0.77    0.22 
   3   3  11    0.51    0.17 
  -4  -3 -11    0.26    0.21 
  -4  -3 -11    0.79    0.38 
   4   3  11    0.31    0.16 
   4   3  11    0.67    0.23 
  -5  -3 -11    3.44    0.35 
  -5  -3 -11    3.04    0.49 
   5   3  11    4.00    0.31 
  -6  -3 -11    0.26    0.23 
  -6  -3 -11    0.17    0.34 
   6   3  11    0.51    0.19 
   6   3  11    0.11    0.25 
  -7  -3 -11    1.79    0.33 
  -7  -3 -11    1.45    0.45 
   7   3  11    2.07    0.35 
   7   3  11    1.82    0.25 
   5  -4 -11    3.32    0.51 
  -5   4  11    3.03    0.38 
   4  -4 -11    6.04    0.56 
  -4   4  11    6.70    0.44 
   3  -4 -11   -0.08    0.33 
   3  -4 -11    0.00    0.31 
  -3   4  11    0.44    0.21 
   2  -4 -11    0.27    0.26 
   2  -4 -11    0.15    0.33 
  -2   4  11    0.10    0.17 
   1  -4 -11    1.98    0.31 
   1  -4 -11    1.15    0.39 
  -1   4  11    1.89    0.22 
  -1   4  11    2.27    0.25 
   0  -4 -11    1.22    0.25 
   0  -4 -11    0.65    0.35 
   0   4  11    0.81    0.20 
   0   4  11    0.93    0.19 
   0   4  11    1.17    0.20 
  -1  -4 -11    1.07    0.37 
   1   4  11    2.08    0.25 
   1   4  11    1.92    0.25 
   1   4  11    1.68    0.21 
  -2  -4 -11    0.20    0.30 
   2   4  11    0.28    0.15 
   2   4  11    0.34    0.20 
   2   4  11    0.58    0.19 
  -3  -4 -11    0.18    0.19 
  -3  -4 -11    0.30    0.34 
   3   4  11    0.63    0.22 
   3   4  11    0.53    0.17 
  -4  -4 -11    1.07    0.38 
  -4  -4 -11    1.17    0.25 
   4   4  11    0.86    0.24 
   4   4  11    1.21    0.19 
  -5  -4 -11    1.70    0.43 
  -5  -4 -11    1.95    0.30 
   5   4  11    1.59    0.21 
   5   4  11    1.71    0.29 
  -6  -4 -11   -0.16    0.22 
  -6  -4 -11    0.38    0.37 
   6   4  11   -0.10    0.24 
   6   4  11    0.17    0.16 
  -7  -4 -11   -0.01    0.23 
  -7  -4 -11    0.06    0.37 
   7   4  11    0.04    0.16 
   7   4  11   -0.14    0.27 
   5  -5 -11    1.56    0.42 
  -5   5  11    0.46    0.25 
   4  -5 -11    1.00    0.40 
  -4   5  11    1.51    0.29 
   3  -5 -11    0.87    0.33 
  -3   5  11    0.98    0.24 
   2  -5 -11    0.59    0.34 
   2  -5 -11    0.01    0.28 
  -2   5  11   -0.16    0.15 
   1  -5 -11    0.51    0.25 
   1  -5 -11    0.94    0.39 
  -1   5  11    0.45    0.18 
  -1   5  11    0.37    0.17 
   0  -5 -11    1.42    0.41 
   0  -5 -11    1.51    0.26 
   0   5  11    1.63    0.23 
   0   5  11    1.83    0.22 
   0   5  11    1.21    0.22 
  -1  -5 -11    1.27    0.40 
   1   5  11    1.41    0.23 
   1   5  11    1.08    0.19 
   1   5  11    0.88    0.22 
  -2  -5 -11    0.36    0.33 
   2   5  11    0.20    0.19 
   2   5  11    0.07    0.18 
   2   5  11    0.15    0.15 
  -3  -5 -11    2.30    0.43 
   3   5  11    2.23    0.28 
   3   5  11    2.41    0.29 
   3   5  11    2.33    0.23 
  -4  -5 -11    0.78    0.36 
  -4  -5 -11    1.23    0.27 
   4   5  11    1.28    0.26 
   4   5  11    1.43    0.20 
  -5  -5 -11    0.10    0.22 
  -5  -5 -11    0.25    0.35 
   5   5  11    0.21    0.23 
   5   5  11    0.14    0.16 
  -6  -5 -11    1.24    0.29 
  -6  -5 -11    1.46    0.43 
   6   5  11    1.42    0.31 
   6   5  11    1.32    0.20 
  -7  -5 -11    0.70    0.40 
  -7  -5 -11    0.16    0.24 
   7   5  11    0.20    0.17 
   7   5  11    0.25    0.28 
   4  -6 -11    4.30    0.52 
  -4   6  11    4.21    0.39 
   3  -6 -11    7.68    0.63 
  -3   6  11    6.67    0.43 
   2  -6 -11    3.19    0.49 
   2  -6 -11    3.67    0.42 
  -2   6  11    3.37    0.31 
  -2   6  11    3.24    0.31 
   1  -6 -11    0.20    0.24 
   1  -6 -11    0.10    0.33 
  -1   6  11   -0.05    0.15 
  -1   6  11   -0.02    0.17 
  -1   6  11    0.36    0.19 
   0  -6 -11    2.96    0.48 
   0  -6 -11    2.37    0.31 
   0   6  11    3.00    0.29 
   0   6  11    2.83    0.30 
   0   6  11    2.47    0.26 
  -1  -6 -11    0.60    0.37 
   1   6  11    1.18    0.25 
   1   6  11    1.59    0.24 
   1   6  11    0.60    0.18 
  -2  -6 -11   -0.07    0.31 
   2   6  11    0.10    0.15 
   2   6  11    0.36    0.20 
   2   6  11   -0.19    0.17 
  -3  -6 -11    0.20    0.35 
   3   6  11    0.30    0.20 
   3   6  11    0.36    0.20 
   3   6  11    0.46    0.17 
  -4  -6 -11    0.22    0.35 
   4   6  11   -0.04    0.20 
   4   6  11    0.15    0.21 
   4   6  11    0.06    0.15 
  -5  -6 -11    2.67    0.49 
  -5  -6 -11    2.85    0.36 
   5   6  11    3.18    0.35 
   5   6  11    2.68    0.24 
  -6  -6 -11    0.60    0.39 
  -6  -6 -11    0.34    0.25 
   6   6  11    0.27    0.16 
   6   6  11    0.28    0.26 
  -7  -6 -11    0.09    0.25 
  -7  -6 -11    0.21    0.41 
   7   6  11   -0.39    0.25 
   7   6  11   -0.11    0.15 
   3  -7 -11    0.03    0.32 
  -3   7  11    0.08    0.22 
  -3   7  11    0.62    0.23 
   2  -7 -11   -0.26    0.37 
   2  -7 -11    0.11    0.28 
  -2   7  11    0.00    0.20 
  -2   7  11    0.15    0.18 
   1  -7 -11    0.13    0.25 
   1  -7 -11    0.37    0.38 
  -1   7  11    0.19    0.17 
  -1   7  11   -0.02    0.20 
  -1   7  11    0.09    0.19 
   0  -7 -11    3.20    0.36 
   0  -7 -11    2.60    0.50 
   0   7  11    2.78    0.32 
   0   7  11    3.07    0.29 
   0   7  11    3.63    0.31 
  -1  -7 -11    5.12    0.58 
   1   7  11    5.46    0.35 
   1   7  11    5.75    0.42 
   1   7  11    5.54    0.34 
  -2  -7 -11    0.59    0.38 
   2   7  11    0.11    0.16 
   2   7  11    0.19    0.21 
   2   7  11    0.50    0.20 
  -3  -7 -11    0.38    0.37 
   3   7  11    0.04    0.19 
   3   7  11    0.34    0.16 
   3   7  11    0.26    0.20 
  -4  -7 -11    0.29    0.36 
   4   7  11    0.09    0.16 
   4   7  11    0.07    0.20 
   4   7  11    0.23    0.21 
  -5  -7 -11    0.44    0.40 
   5   7  11    1.88    0.31 
   5   7  11    1.09    0.19 
   5   7  11    1.52    0.29 
  -6  -7 -11    4.43    0.61 
   6   7  11    4.81    0.32 
   6   7  11    4.41    0.42 
   6   7  11    4.90    0.44 
   2  -8 -11    1.50    0.37 
  -2   8  11    1.30    0.29 
   1  -8 -11    8.55    0.76 
   1  -8 -11    9.44    0.57 
  -1   8  11    8.91    0.43 
  -1   8  11    8.31    0.51 
   0  -8 -11    1.27    0.31 
   0  -8 -11    0.87    0.43 
   0   8  11    1.49    0.22 
   0   8  11    0.86    0.22 
   0   8  11    1.26    0.28 
  -1  -8 -11    1.50    0.29 
  -1  -8 -11    1.26    0.44 
   1   8  11    0.67    0.20 
   1   8  11    1.32    0.23 
   1   8  11    0.66    0.27 
  -2  -8 -11   -0.34    0.35 
   2   8  11    0.15    0.17 
   2   8  11    0.34    0.19 
   2   8  11    0.28    0.22 
  -3  -8 -11    0.04    0.38 
   3   8  11    0.68    0.22 
   3   8  11    0.46    0.17 
   3   8  11    0.68    0.25 
  -4  -8 -11    0.16    0.37 
   4   8  11    0.13    0.16 
   4   8  11    0.78    0.25 
   4   8  11    0.16    0.21 
  -5  -8 -11    0.54    0.42 
   5   8  11    0.30    0.17 
   5   8  11    0.34    0.24 
   5   8  11    0.15    0.23 
   1  -9 -11    0.39    0.45 
   1  -9 -11    0.94    0.34 
  -1   9  11    0.15    0.24 
   0  -9 -11    1.79    0.34 
   0  -9 -11    1.10    0.47 
   0   9  11    1.46    0.27 
   0   9  11    0.94    0.29 
  -1  -9 -11    2.67    0.37 
  -1  -9 -11    3.42    0.58 
   1   9  11    2.80    0.31 
   1   9  11    2.87    0.36 
  -2  -9 -11    0.76    0.45 
   2   9  11    0.51    0.26 
   2   9  11    0.32    0.19 
  -3  -9 -11   -0.04    0.39 
   3   9  11   -0.04    0.21 
   3   9  11   -0.04    0.17 
  -4  -9 -11    0.61    0.43 
   4   9  11    0.43    0.18 
   4   9  11    0.25    0.23 
   1   3 -12    0.16    0.46 
  -1  -3  12    0.41    0.22 
   0   3 -12    0.53    0.46 
   0  -3  12    0.65    0.23 
  -1   3 -12    0.27    0.43 
   1  -3  12    0.51    0.23 
  -2   3 -12    0.53    0.43 
   2  -3  12    0.27    0.22 
   3   2 -12   -0.28    0.41 
   3   2 -12   -0.37    0.41 
  -3  -2  12   -0.30    0.18 
  -3  -2  12    0.25    0.20 
   2   2 -12    1.24    0.51 
  -2  -2  12    0.84    0.23 
  -2  -2  12    0.76    0.22 
   1   2 -12   -0.27    0.40 
  -1  -2  12    0.03    0.18 
  -1  -2  12    0.18    0.17 
   0   2 -12    6.22    0.69 
   0  -2  12    6.61    0.41 
   0  -2  12    5.39    0.37 
  -1   2 -12    0.86    0.45 
   1  -2  12    0.33    0.19 
   1  -2  12    0.02    0.19 
  -2   2 -12    0.29    0.42 
   2  -2  12    0.42    0.21 
   2  -2  12    0.26    0.20 
  -3   2 -12    1.70    0.50 
   3  -2  12    2.13    0.32 
   3  -2  12    1.44    0.27 
  -4   2 -12    1.35    0.49 
   4  -2  12    2.16    0.31 
   4   1 -12    1.22    0.47 
  -4  -1  12    1.60    0.29 
   3   1 -12   -0.59    0.39 
   3   1 -12   -0.40    0.37 
  -3  -1  12   -0.06    0.19 
  -3  -1  12    0.18    0.20 
   2   1 -12    4.19    0.63 
  -2  -1  12    4.22    0.35 
  -2  -1  12    5.49    0.38 
   1   1 -12    0.90    0.44 
  -1  -1  12    0.67    0.21 
  -1  -1  12    0.48    0.20 
   0   1 -12    0.53    0.42 
   0  -1  12    0.34    0.18 
   0  -1  12    0.41    0.19 
  -1   1 -12    1.96    0.48 
   1  -1  12    2.20    0.27 
   1  -1  12    2.28    0.27 
  -2   1 -12    0.41    0.42 
   2  -1  12    1.25    0.25 
   2  -1  12    1.12    0.23 
  -3   1 -12    0.25    0.41 
   3  -1  12    0.14    0.19 
   3  -1  12    0.12    0.22 
  -4   1 -12    0.08    0.41 
   4  -1  12    0.08    0.23 
   4  -1  12    0.06    0.21 
  -5   1 -12    0.27    0.40 
  -5   1 -12    0.44    0.26 
   5  -1  12    0.20    0.22 
   5  -1  12    0.54    0.26 
   4   0 -12   -0.39    0.39 
  -4   0  12    0.27    0.22 
   3   0 -12    0.33    0.42 
   3   0 -12    0.27    0.37 
  -3   0  12    0.41    0.21 
   2   0 -12   -1.08    0.33 
  -2   0  12   -0.11    0.16 
   1   0 -12    3.25    0.55 
  -1   0  12    3.55    0.31 
   0   0 -12    0.30    0.39 
   0   0  12    0.08    0.17 
  -1   0 -12   -0.39    0.33 
   1   0  12    0.03    0.18 
  -2   0 -12    1.48    0.46 
   2   0  12    1.78    0.27 
  -3   0 -12    1.72    0.48 
   3   0  12    1.52    0.28 
  -4   0 -12    1.11    0.44 
  -4   0 -12    1.06    0.27 
   4   0  12    1.64    0.30 
  -5   0 -12    0.20    0.23 
  -5   0 -12   -0.28    0.38 
   5   0  12    0.07    0.25 
   4  -1 -12   -0.08    0.40 
  -4   1  12    0.09    0.21 
   3  -1 -12    1.50    0.46 
   3  -1 -12    1.75    0.42 
  -3   1  12    2.00    0.30 
   2  -1 -12    1.60    0.45 
   2  -1 -12    1.68    0.39 
  -2   1  12    1.91    0.26 
   1  -1 -12    0.23    0.39 
  -1   1  12    0.12    0.17 
   0  -1 -12    5.72    0.61 
   0   1  12    6.64    0.39 
  -1  -1 -12    2.13    0.45 
   1   1  12    2.45    0.27 
  -2  -1 -12    2.43    0.49 
   2   1  12    3.21    0.33 
  -3  -1 -12   -0.06    0.34 
  -3  -1 -12    0.28    0.21 
   3   1  12    0.22    0.21 
   3   1  12    0.22    0.19 
  -4  -1 -12    0.27    0.37 
  -4  -1 -12    0.02    0.20 
   4   1  12    0.00    0.23 
   4   1  12    0.00    0.18 
  -5  -1 -12    2.01    0.33 
  -5  -1 -12    2.90    0.55 
   5   1  12    2.22    0.34 
   5   1  12    1.93    0.26 
  -6  -1 -12   -0.21    0.23 
  -6  -1 -12    0.50    0.40 
   6   1  12   -0.24    0.19 
   6   1  12    0.31    0.29 
   4  -2 -12    7.36    0.64 
  -4   2  12    7.10    0.48 
   3  -2 -12   -0.31    0.34 
   3  -2 -12   -0.07    0.35 
  -3   2  12    0.16    0.22 
   2  -2 -12    4.44    0.47 
   2  -2 -12    4.78    0.58 
  -2   2  12    4.77    0.37 
   1  -2 -12   -0.01    0.34 
  -1   2  12    0.15    0.18 
   0  -2 -12    3.24    0.51 
   0   2  12    3.23    0.31 
  -1  -2 -12    0.69    0.37 
   1   2  12   -0.03    0.17 
  -2  -2 -12    1.34    0.24 
  -2  -2 -12    1.51    0.43 
   2   2  12    1.22    0.25 
   2   2  12    1.11    0.21 
  -3  -2 -12    0.25    0.20 
  -3  -2 -12    0.21    0.35 
   3   2  12    0.45    0.18 
   3   2  12    0.08    0.21 
  -4  -2 -12    4.65    0.40 
  -4  -2 -12    4.77    0.59 
   4   2  12    4.47    0.39 
   4   2  12    4.26    0.32 
  -5  -2 -12    0.12    0.23 
  -5  -2 -12    0.27    0.37 
   5   2  12   -0.07    0.23 
   5   2  12    0.12    0.19 
  -6  -2 -12    0.04    0.40 
  -6  -2 -12    0.51    0.26 
   6   2  12    0.48    0.21 
   6   2  12    0.31    0.28 
   4  -3 -12   -0.55    0.33 
  -4   3  12    0.47    0.24 
   3  -3 -12    0.93    0.38 
   3  -3 -12    0.64    0.42 
  -3   3  12    1.23    0.26 
   2  -3 -12    0.53    0.38 
   2  -3 -12   -0.39    0.29 
  -2   3  12    0.14    0.19 
   1  -3 -12    4.43    0.56 
  -1   3  12    4.88    0.36 
   0  -3 -12    0.10    0.35 
   0   3  12    0.18    0.18 
  -1  -3 -12    0.42    0.36 
   1   3  12    0.40    0.17 
   1   3  12    0.42    0.17 
   1   3  12    0.09    0.18 
  -2  -3 -12    1.89    0.44 
   2   3  12    1.07    0.24 
   2   3  12    1.22    0.21 
  -3  -3 -12    0.10    0.19 
  -3  -3 -12   -0.05    0.34 
   3   3  12   -0.07    0.20 
   3   3  12   -0.29    0.15 
  -4  -3 -12    2.15    0.30 
  -4  -3 -12    2.30    0.46 
   4   3  12    2.41    0.33 
   4   3  12    2.08    0.25 
  -5  -3 -12    1.47    0.29 
  -5  -3 -12    1.15    0.42 
   5   3  12    1.56    0.31 
   5   3  12    2.14    0.25 
  -6  -3 -12    2.62    0.51 
  -6  -3 -12    2.97    0.39 
   6   3  12    2.55    0.27 
   6   3  12    3.02    0.39 
   4  -4 -12    5.97    0.58 
  -4   4  12    6.77    0.49 
   3  -4 -12    6.34    0.55 
  -3   4  12    7.06    0.46 
   2  -4 -12    1.05    0.33 
   2  -4 -12    0.87    0.40 
  -2   4  12    1.05    0.23 
   1  -4 -12    0.43    0.28 
   1  -4 -12    0.60    0.38 
  -1   4  12    0.43    0.18 
   0  -4 -12    0.18    0.36 
   0   4  12    0.01    0.17 
  -1  -4 -12    0.20    0.34 
   1   4  12    0.15    0.17 
   1   4  12   -0.02    0.16 
   1   4  12    0.23    0.19 
  -2  -4 -12    0.77    0.37 
   2   4  12    0.83    0.20 
   2   4  12    0.64    0.22 
   2   4  12    1.03    0.23 
  -3  -4 -12   -0.04    0.34 
  -3  -4 -12   -0.10    0.20 
   3   4  12   -0.09    0.20 
   3   4  12    0.20    0.17 
  -4  -4 -12    2.65    0.33 
  -4  -4 -12    3.86    0.55 
   4   4  12    2.98    0.27 
   4   4  12    3.76    0.37 
  -5  -4 -12    2.09    0.33 
  -5  -4 -12    2.19    0.49 
   5   4  12    2.04    0.33 
   5   4  12    1.83    0.24 
  -6  -4 -12    0.15    0.39 
  -6  -4 -12    0.09    0.23 
   6   4  12    0.12    0.27 
   6   4  12   -0.17    0.17 
   4  -5 -12    5.78    0.57 
  -4   5  12    5.36    0.44 
   3  -5 -12    0.33    0.33 
  -3   5  12   -0.28    0.19 
   2  -5 -12    0.08    0.30 
   2  -5 -12   -0.24    0.36 
  -2   5  12    0.27    0.20 
   1  -5 -12    4.01    0.41 
   1  -5 -12    3.09    0.51 
  -1   5  12    3.96    0.34 
   0  -5 -12    4.43    0.56 
   0   5  12    4.90    0.36 
   0   5  12    5.14    0.38 
   0   5  12    4.62    0.35 
  -1  -5 -12    1.46    0.45 
   1   5  12    1.19    0.25 
   1   5  12    1.93    0.28 
   1   5  12    1.36    0.22 
  -2  -5 -12    1.19    0.42 
   2   5  12    0.50    0.19 
   2   5  12    0.89    0.23 
   2   5  12    1.28    0.26 
  -3  -5 -12    1.79    0.45 
   3   5  12    1.68    0.28 
   3   5  12    2.00    0.24 
   3   5  12    2.29    0.30 
  -4  -5 -12    0.86    0.27 
  -4  -5 -12    1.03    0.40 
   4   5  12    0.78    0.27 
   4   5  12    0.42    0.19 
  -5  -5 -12   10.21    0.78 
   5   5  12   11.04    0.44 
   5   5  12   11.74    0.59 
  -6  -5 -12    1.06    0.30 
  -6  -5 -12    1.32    0.46 
   6   5  12    1.39    0.32 
   6   5  12    1.52    0.22 
   3  -6 -12    0.32    0.33 
  -3   6  12    0.04    0.22 
   2  -6 -12    1.96    0.47 
   2  -6 -12    1.86    0.38 
  -2   6  12    1.91    0.28 
   1  -6 -12    9.48    0.56 
   1  -6 -12    9.61    0.76 
  -1   6  12   10.64    0.48 
  -1   6  12    9.26    0.48 
   0  -6 -12    0.70    0.40 
   0   6  12    0.40    0.22 
   0   6  12    0.26    0.20 
   0   6  12    0.32    0.19 
  -1  -6 -12    0.49    0.40 
   1   6  12    1.02    0.26 
   1   6  12    1.11    0.22 
   1   6  12    1.43    0.25 
  -2  -6 -12   -0.02    0.35 
   2   6  12    0.18    0.18 
   2   6  12    0.09    0.21 
   2   6  12    0.22    0.21 
  -3  -6 -12   -0.30    0.34 
   3   6  12   -0.02    0.21 
   3   6  12    0.20    0.21 
   3   6  12    0.26    0.18 
  -4  -6 -12    0.34    0.37 
   4   6  12   -0.04    0.23 
   4   6  12    0.41    0.24 
   4   6  12    0.01    0.16 
  -5  -6 -12    3.84    0.57 
   5   6  12    3.89    0.30 
   5   6  12    4.70    0.43 
  -6  -6 -12    1.13    0.47 
  -6  -6 -12    0.86    0.29 
   6   6  12    0.68    0.20 
   6   6  12    0.79    0.29 
   2  -7 -12    0.31    0.31 
   2  -7 -12   -0.25    0.43 
  -2   7  12    0.15    0.20 
  -2   7  12    0.15    0.23 
   1  -7 -12    2.89    0.39 
   1  -7 -12    2.79    0.54 
  -1   7  12    3.11    0.35 
  -1   7  12    3.24    0.33 
   0  -7 -12    3.45    0.57 
   0   7  12    3.49    0.32 
   0   7  12    4.43    0.36 
   0   7  12    4.17    0.38 
  -1  -7 -12    0.52    0.40 
   1   7  12    0.44    0.23 
   1   7  12    0.12    0.19 
   1   7  12   -0.02    0.18 
  -2  -7 -12    0.38    0.39 
   2   7  12   -0.18    0.20 
   2   7  12    0.02    0.18 
   2   7  12    0.39    0.22 
  -3  -7 -12    0.37    0.40 
   3   7  12   -0.10    0.21 
   3   7  12    0.41    0.22 
   3   7  12    0.27    0.18 
  -4  -7 -12    2.89    0.53 
   4   7  12    2.95    0.37 
   4   7  12    3.65    0.37 
   4   7  12    2.97    0.27 
  -5  -7 -12    0.13    0.40 
   5   7  12   -0.09    0.16 
   5   7  12   -0.11    0.23 
   5   7  12   -0.02    0.22 
   1  -8 -12    0.87    0.45 
   1  -8 -12    0.48    0.31 
  -1   8  12    0.40    0.20 
  -1   8  12    0.23    0.25 
   0  -8 -12    6.72    0.54 
   0  -8 -12    5.30    0.66 
   0   8  12    6.43    0.46 
   0   8  12    7.11    0.42 
   0   8  12    5.56    0.42 
  -1  -8 -12    0.09    0.40 
   1   8  12    0.86    0.28 
   1   8  12    0.61    0.23 
   1   8  12    0.91    0.22 
  -2  -8 -12    0.83    0.45 
   2   8  12    0.28    0.20 
   2   8  12    0.25    0.24 
   2   8  12    0.21    0.19 
  -3  -8 -12    4.90    0.64 
   3   8  12    6.68    0.46 
   3   8  12    5.93    0.39 
   3   8  12    7.25    0.52 
  -4  -8 -12    0.73    0.46 
   4   8  12    1.12    0.29 
   4   8  12    0.47    0.19 
   4   8  12    0.72    0.26 
   2   1 -13    0.56    0.47 
  -2  -1  13    0.11    0.19 
   1   1 -13    0.44    0.46 
  -1  -1  13    0.77    0.24 
   0   1 -13   -0.65    0.39 
   0  -1  13    0.16    0.19 
  -1   1 -13    1.89    0.53 
   1  -1  13    1.21    0.25 
  -2   1 -13    0.21    0.43 
   2  -1  13    0.90    0.24 
  -3   1 -13    0.04    0.42 
   3  -1  13    0.70    0.25 
   3   0 -13   -0.54    0.41 
  -3   0  13    0.36    0.21 
   2   0 -13    0.79    0.46 
  -2   0  13    0.90    0.24 
   1   0 -13    0.63    0.46 
  -1   0  13    0.18    0.20 
   0   0 -13    0.72    0.45 
   0   0  13    0.86    0.23 
  -1   0 -13   -0.14    0.42 
   1   0  13   -0.05    0.19 
  -2   0 -13   -0.06    0.41 
   2   0  13    0.51    0.23 
  -3   0 -13    0.96    0.46 
   3   0  13    1.90    0.31 
  -4   0 -13    0.56    0.45 
   4   0  13    0.06    0.25 
   3  -1 -13    0.30    0.45 
   3  -1 -13    0.38    0.39 
  -3   1  13   -0.09    0.22 
   2  -1 -13    0.52    0.42 
  -2   1  13   -0.13    0.19 
   1  -1 -13    2.27    0.51 
  -1   1  13    2.06    0.28 
   0  -1 -13    1.16    0.46 
   0   1  13    0.37    0.22 
  -1  -1 -13    0.00    0.40 
   1   1  13   -0.03    0.21 
  -2  -1 -13    0.53    0.42 
   2   1  13   -0.10    0.22 
  -3  -1 -13    1.18    0.47 
   3   1  13    0.61    0.25 
  -4  -1 -13    4.36    0.63 
   4   1  13    4.73    0.43 
  -5  -1 -13   -0.13    0.23 
  -5  -1 -13    0.88    0.44 
   5   1  13    0.04    0.27 
   3  -2 -13    4.01    0.54 
   3  -2 -13    4.78    0.62 
  -3   2  13    4.56    0.42 
   2  -2 -13    3.25    0.53 
  -2   2  13    3.13    0.33 
   1  -2 -13    1.86    0.50 
  -1   2  13    1.26    0.25 
   0  -2 -13    0.18    0.39 
   0   2  13    0.49    0.22 
  -1  -2 -13    0.47    0.40 
   1   2  13    0.00    0.20 
  -2  -2 -13    0.58    0.41 
   2   2  13    0.74    0.24 
  -3  -2 -13    0.66    0.27 
  -3  -2 -13    0.44    0.40 
   3   2  13    0.03    0.24 
  -4  -2 -13    2.81    0.35 
  -4  -2 -13    2.74    0.54 
   4   2  13    2.24    0.34 
   4   2  13    2.53    0.29 
  -5  -2 -13    0.96    0.43 
  -5  -2 -13    1.09    0.30 
   5   2  13    1.07    0.24 
   5   2  13    1.31    0.32 
   3  -3 -13    0.47    0.39 
  -3   3  13    0.78    0.27 
   2  -3 -13    1.15    0.46 
  -2   3  13    0.98    0.24 
   1  -3 -13    3.08    0.57 
  -1   3  13    2.63    0.31 
   0  -3 -13    5.56    0.64 
   0   3  13    6.23    0.42 
  -1  -3 -13    0.55    0.41 
   1   3  13    0.32    0.22 
  -2  -3 -13    1.19    0.45 
   2   3  13    1.43    0.28 
  -3  -3 -13    1.23    0.28 
  -3  -3 -13    0.91    0.44 
   3   3  13    1.19    0.29 
   3   3  13    1.09    0.24 
  -4  -3 -13    1.49    0.48 
  -4  -3 -13    1.90    0.32 
   4   3  13    1.77    0.33 
   4   3  13    1.80    0.26 
  -5  -3 -13    5.10    0.66 
  -5  -3 -13    5.53    0.48 
   5   3  13    5.72    0.42 
   5   3  13    6.03    0.50 
   3  -4 -13    0.38    0.38 
  -3   4  13    1.55    0.30 
   2  -4 -13   10.07    0.66 
   2  -4 -13    9.50    0.75 
  -2   4  13   10.77    0.53 
   1  -4 -13    4.66    0.61 
  -1   4  13    5.25    0.40 
   0  -4 -13    2.68    0.52 
   0   4  13    2.94    0.34 
  -1  -4 -13   -0.48    0.35 
   1   4  13    0.03    0.21 
  -2  -4 -13    0.19    0.38 
   2   4  13   -0.22    0.20 
   2   4  13   -0.08    0.18 
   2   4  13    0.18    0.20 
  -3  -4 -13    0.27    0.39 
   3   4  13    0.22    0.23 
   3   4  13    0.31    0.20 
  -4  -4 -13    0.53    0.26 
  -4  -4 -13    0.57    0.41 
   4   4  13    0.45    0.27 
   4   4  13    0.25    0.21 
  -5  -4 -13    3.29    0.39 
  -5  -4 -13    3.46    0.58 
   5   4  13    3.47    0.31 
   5   4  13    3.88    0.42 
   3  -5 -13    0.66    0.37 
  -3   5  13    0.28    0.25 
   2  -5 -13    2.70    0.53 
   2  -5 -13    3.13    0.43 
  -2   5  13    2.98    0.34 
   1  -5 -13    2.74    0.54 
  -1   5  13    2.37    0.31 
   0  -5 -13    1.66    0.50 
   0   5  13    1.94    0.29 
  -1  -5 -13   -0.19    0.38 
   1   5  13    0.12    0.21 
   1   5  13    0.17    0.20 
   1   5  13    0.30    0.22 
  -2  -5 -13    3.40    0.57 
   2   5  13    3.47    0.36 
   2   5  13    3.55    0.31 
   2   5  13    3.72    0.36 
  -3  -5 -13    0.70    0.42 
   3   5  13    0.79    0.27 
   3   5  13    0.36    0.23 
   3   5  13    0.88    0.22 
  -4  -5 -13    0.28    0.41 
   4   5  13    0.67    0.22 
   4   5  13    0.10    0.25 
  -5  -5 -13    0.50    0.41 
  -5  -5 -13   -0.30    0.23 
   5   5  13    0.58    0.28 
   5   5  13   -0.04    0.18 
   2  -6 -13    2.57    0.43 
   2  -6 -13    2.02    0.50 
  -2   6  13    2.12    0.31 
   1  -6 -13    2.13    0.51 
  -1   6  13    2.90    0.33 
   0  -6 -13   -0.23    0.39 
   0   6  13   -0.05    0.20 
   0   6  13   -0.36    0.20 
  -1  -6 -13    1.08    0.46 
   1   6  13    1.27    0.27 
   1   6  13    0.81    0.24 
   1   6  13    0.74    0.27 
  -2  -6 -13    5.41    0.65 
   2   6  13    6.23    0.43 
   2   6  13    7.21    0.49 
   2   6  13    7.66    0.50 
  -3  -6 -13    2.96    0.55 
   3   6  13    3.05    0.36 
   3   6  13    2.94    0.37 
   3   6  13    3.57    0.31 
  -4  -6 -13   -0.24    0.37 
   4   6  13    0.12    0.19 
   4   6  13    0.02    0.24 
   4   6  13   -0.13    0.21 
  -5  -6 -13    0.72    0.45 
   5   6  13    0.44    0.20 
   5   6  13    0.69    0.27 
   5   6  13    1.22    0.31 
   1  -7 -13    1.54    0.50 
  -1   7  13    1.54    0.27 
   0  -7 -13    1.17    0.46 
   0   7  13    0.41    0.20 
   0   7  13    0.24    0.25 
  -1  -7 -13    0.65    0.45 
   1   7  13    0.43    0.24 
   1   7  13    0.02    0.23 
   1   7  13    0.23    0.21 
  -2  -7 -13   11.15    0.89 
   2   7  13   12.01    0.54 
   2   7  13   10.81    0.56 
   2   7  13   10.92    0.50 
  -3  -7 -13    7.33    0.75 
   3   7  13   10.35    0.55 
   3   7  13    9.83    0.55 
   3   7  13    9.98    0.47 
  -4  -7 -13    0.28    0.40 
   4   7  13    0.22    0.25 
   4   7  13    0.09    0.19 
   4   7  13    0.02    0.24 
   1  -1 -14    3.50    0.63 
  -1   1  14    3.48    0.36 
   0  -1 -14    1.05    0.48 
   0   1  14    0.17    0.21 
  -1  -1 -14    0.72    0.47 
   1   1  14    0.16    0.21 
  -2  -1 -14    1.26    0.51 
   2   1  14    2.00    0.32 
   1  -2 -14    0.97    0.50 
  -1   2  14    0.45    0.22 
   0  -2 -14    1.14    0.47 
   0   2  14    1.79    0.30 
  -1  -2 -14    0.51    0.43 
   1   2  14    0.24    0.24 
  -2  -2 -14   -0.43    0.38 
   2   2  14    0.73    0.27 
  -3  -2 -14    0.88    0.45 
   3   2  14    0.20    0.25 
   1  -3 -14    2.13    0.53 
  -1   3  14    2.99    0.34 
   0  -3 -14    1.22    0.49 
   0   3  14    0.27    0.23 
  -1  -3 -14    2.95    0.58 
   1   3  14    4.26    0.40 
  -2  -3 -14    1.67    0.51 
   2   3  14    1.31    0.29 
  -3  -3 -14    1.47    0.50 
   3   3  14    1.15    0.30 
   1  -4 -14    1.20    0.47 
  -1   4  14    1.05    0.27 
   0  -4 -14    0.68    0.44 
   0   4  14    0.57    0.25 
  -1  -4 -14   -0.23    0.39 
   1   4  14    0.15    0.24 
  -2  -4 -14   10.57    0.84 
   2   4  14   11.55    0.56 
  -3  -4 -14    0.65    0.44 
   3   4  14    0.71    0.24 
   3   4  14    0.71    0.29 
   3   4  14    0.90    0.27 
   1  -5 -14   -0.53    0.36 
  -1   5  14    0.34    0.23 
   0  -5 -14    0.31    0.45 
   0   5  14   -0.11    0.21 
  -1  -5 -14    1.94    0.52 
   1   5  14    1.98    0.32 
  -2  -5 -14   10.26    0.86 
   2   5  14   11.03    0.51 
   2   5  14   10.82    0.55 
   2   5  14   11.40    0.56 
  -3  -5 -14    4.95    0.66 
   3   5  14    5.70    0.47 
   3   5  14    5.97    0.47 
   3   5  14    4.98    0.37 
  -1  -6 -14    3.06    0.57 
   1   6  14    2.68    0.35 
  -2  -6 -14    2.49    0.54 
   2   6  14    1.96    0.29 
   2   6  14    1.56    0.33 
   2   6  14    1.86    0.32 
   0   0   0    0.00    0.00 
;
_shelx_hkl_checksum              92915
loop_
_space_group_symop_operation_xyz
'x, y, z'
'-x, -y, -z'
loop_
_atom_site_label
_atom_site_type_symbol
_atom_site_fract_x
_atom_site_fract_y
_atom_site_fract_z
_atom_site_U_iso_or_equiv
_atom_site_adp_type
_atom_site_occupancy
_atom_site_site_symmetry_order
_atom_site_calc_flag
_atom_site_refinement_flags_posn
_atom_site_refinement_flags_adp
O1 O 0.80889(15) 0.69556(15) 1.11625(12) 0.0196(3) Uani 1 1 d . .
H1A H 0.8838 0.6542 1.0640 0.029 Uiso 1 1 calc R U
N1 N 0.60651(16) 0.69484(16) 0.94312(13) 0.0125(3) Uani 1 1 d . .
C1 C 0.7283(2) 0.62809(18) 0.85303(16) 0.0138(3) Uani 1 1 d . .
B1 B 0.6428(2) 0.7318(2) 1.06561(18) 0.0140(3) Uani 1 1 d . .
O2 O 0.89104(15) 0.58670(15) 0.86838(12) 0.0202(3) Uani 1 1 d . .
C2 C 0.6237(2) 0.62042(19) 0.74160(16) 0.0147(3) Uani 1 1 d . .
C3 C 0.4478(2) 0.67786(19) 0.76801(15) 0.0135(3) Uani 1 1 d . .
C4 C 0.43212(19) 0.72503(18) 0.89484(15) 0.0117(3) Uani 1 1 d . .
C5 C 0.28620(19) 0.78731(18) 0.96298(15) 0.0123(3) Uani 1 1 d . .
H5A H 0.1696 0.8014 0.9292 0.015 Uiso 1 1 calc R U
C6 C 0.3025(2) 0.83352(18) 1.08692(15) 0.0130(3) Uani 1 1 d . .
C7 C 0.1492(2) 0.89930(19) 1.15559(16) 0.0163(3) Uani 1 1 d . .
H7A H 0.0324 0.9107 1.1228 0.020 Uiso 1 1 calc R U
C8 C 0.1671(2) 0.9476(2) 1.27080(17) 0.0198(4) Uani 1 1 d . .
H8A H 0.0629 0.9935 1.3160 0.024 Uiso 1 1 calc R U
C9 C 0.3379(2) 0.9290(2) 1.32099(17) 0.0199(4) Uani 1 1 d . .
H9A H 0.3501 0.9631 1.3997 0.024 Uiso 1 1 calc R U
C10 C 0.4890(2) 0.8609(2) 1.25564(16) 0.0174(3) Uani 1 1 d . .
H10A H 0.6045 0.8470 1.2910 0.021 Uiso 1 1 calc R U
C11 C 0.4753(2) 0.81189(18) 1.13833(15) 0.0136(3) Uani 1 1 d . .
C12 C 0.7121(2) 0.5603(2) 0.62406(17) 0.0196(4) Uani 1 1 d . .
H12A H 0.6166 0.5407 0.5724 0.023 Uiso 1 1 calc R U
H12B H 0.7871 0.4486 0.6585 0.023 Uiso 1 1 calc R U
C13 C 0.8322(2) 0.6886(2) 0.52885(17) 0.0203(4) Uani 1 1 d . .
H13A H 0.8864 0.6427 0.4540 0.030 Uiso 1 1 calc R U
H13B H 0.7584 0.7988 0.4927 0.030 Uiso 1 1 calc R U
H13C H 0.9290 0.7067 0.5788 0.030 Uiso 1 1 calc R U
C14 C 0.2894(2) 0.6979(2) 0.68534(17) 0.0190(3) Uani 1 1 d . .
H14A H 0.1794 0.7426 0.7312 0.028 Uiso 1 1 calc R U
H14B H 0.3122 0.7789 0.5961 0.028 Uiso 1 1 calc R U
H14C H 0.2726 0.5855 0.6745 0.028 Uiso 1 1 calc R U
loop_
_atom_site_aniso_label
_atom_site_aniso_U_11
_atom_site_aniso_U_22
_atom_site_aniso_U_33
_atom_site_aniso_U_23
_atom_site_aniso_U_13
_atom_site_aniso_U_12
O1 0.0123(5) 0.0232(6) 0.0242(6) -0.0079(5) -0.0040(4) 0.0000(4)
N1 0.0080(5) 0.0123(6) 0.0166(7) -0.0035(5) -0.0002(5) -0.0004(4)
C1 0.0120(7) 0.0093(6) 0.0175(7) -0.0010(5) 0.0031(5) -0.0015(5)
B1 0.0125(7) 0.0112(7) 0.0170(8) -0.0017(6) 0.0001(6) -0.0030(6)
O2 0.0106(5) 0.0191(6) 0.0265(7) -0.0025(5) 0.0015(4) 0.0026(4)
C2 0.0144(7) 0.0118(7) 0.0172(7) -0.0043(6) 0.0038(5) -0.0030(5)
C3 0.0138(7) 0.0111(6) 0.0149(7) -0.0024(5) 0.0008(5) -0.0027(5)
C4 0.0097(6) 0.0092(6) 0.0148(7) -0.0007(5) -0.0001(5) -0.0023(5)
C5 0.0111(6) 0.0117(6) 0.0137(7) -0.0030(5) -0.0007(5) -0.0013(5)
C6 0.0136(7) 0.0089(6) 0.0153(7) -0.0019(5) 0.0017(5) -0.0021(5)
C7 0.0159(7) 0.0118(7) 0.0190(8) -0.0024(6) 0.0019(6) -0.0002(5)
C8 0.0249(8) 0.0128(7) 0.0201(8) -0.0052(6) 0.0066(6) -0.0015(6)
C9 0.0306(9) 0.0142(7) 0.0150(8) -0.0043(6) 0.0027(6) -0.0051(6)
C10 0.0223(8) 0.0139(7) 0.0157(7) -0.0025(6) -0.0022(6) -0.0037(6)
C11 0.0155(7) 0.0102(7) 0.0142(7) -0.0015(5) -0.0008(5) -0.0029(5)
C12 0.0207(8) 0.0173(8) 0.0210(8) -0.0085(6) 0.0065(6) -0.0025(6)
C13 0.0202(8) 0.0229(8) 0.0165(8) -0.0046(6) 0.0017(6) -0.0030(6)
C14 0.0162(7) 0.0245(8) 0.0168(8) -0.0059(6) -0.0011(6) -0.0041(6)
loop_
_atom_type_symbol
_atom_type_description
_atom_type_scat_dispersion_real
_atom_type_scat_dispersion_imag
_atom_type_scat_source
C C 0.0033 0.0016 'International Tables Vol C Tables 4.2.6.8 and 6.1.1.4'
H H 0.0000 0.0000 'International Tables Vol C Tables 4.2.6.8 and 6.1.1.4'
N N 0.0061 0.0033 'International Tables Vol C Tables 4.2.6.8 and 6.1.1.4'
O O 0.0106 0.0060 'International Tables Vol C Tables 4.2.6.8 and 6.1.1.4'
B B 0.0013 0.0007 'International Tables Vol C Tables 4.2.6.8 and 6.1.1.4'
loop_
_geom_angle_atom_site_label_1
_geom_angle_atom_site_label_2
_geom_angle_atom_site_label_3
_geom_angle
B1 O1 H1A 109.5
C1 N1 C4 108.43(12)
C1 N1 B1 128.78(13)
C4 N1 B1 122.79(12)
O2 C1 N1 123.98(15)
O2 C1 C2 128.68(15)
N1 C1 C2 107.34(13)
O1 B1 N1 123.13(14)
O1 B1 C11 121.95(14)
N1 B1 C11 114.90(13)
C3 C2 C1 107.87(14)
C3 C2 C12 130.08(15)
C1 C2 C12 122.04(14)
C2 C3 C4 108.68(13)
C2 C3 C14 128.63(15)
C4 C3 C14 122.67(14)
C5 C4 N1 121.46(13)
C5 C4 C3 130.87(14)
N1 C4 C3 107.67(12)
C4 C5 C6 121.87(13)
C4 C5 H5A 119.1
C6 C5 H5A 119.1
C7 C6 C11 119.64(14)
C7 C6 C5 120.92(14)
C11 C6 C5 119.43(13)
C8 C7 C6 120.38(15)
C8 C7 H7A 119.8
C6 C7 H7A 119.8
C7 C8 C9 120.27(15)
C7 C8 H8A 119.9
C9 C8 H8A 119.9
C10 C9 C8 119.72(15)
C10 C9 H9A 120.1
C8 C9 H9A 120.1
C9 C10 C11 121.33(15)
C9 C10 H10A 119.3
C11 C10 H10A 119.3
C10 C11 C6 118.63(14)
C10 C11 B1 121.94(14)
C6 C11 B1 119.42(13)
C2 C12 C13 113.05(13)
C2 C12 H12A 109.0
C13 C12 H12A 109.0
C2 C12 H12B 109.0
C13 C12 H12B 109.0
H12A C12 H12B 107.8
C12 C13 H13A 109.5
C12 C13 H13B 109.5
H13A C13 H13B 109.5
C12 C13 H13C 109.5
H13A C13 H13C 109.5
H13B C13 H13C 109.5
C3 C14 H14A 109.5
C3 C14 H14B 109.5
H14A C14 H14B 109.5
C3 C14 H14C 109.5
H14A C14 H14C 109.5
H14B C14 H14C 109.5
loop_
_geom_bond_atom_site_label_1
_geom_bond_atom_site_label_2
_geom_bond_distance
O1 B1 1.3562(19)
O1 H1A 0.8400
N1 C1 1.4004(19)
N1 C4 1.4053(17)
N1 B1 1.445(2)
C1 O2 1.2259(18)
C1 C2 1.479(2)
B1 C11 1.550(2)
C2 C3 1.355(2)
C2 C12 1.495(2)
C3 C4 1.459(2)
C3 C14 1.494(2)
C4 C5 1.350(2)
C5 C6 1.458(2)
C5 H5A 0.9500
C6 C7 1.404(2)
C6 C11 1.414(2)
C7 C8 1.383(2)
C7 H7A 0.9500
C8 C9 1.397(2)
C8 H8A 0.9500
C9 C10 1.382(2)
C9 H9A 0.9500
C10 C11 1.401(2)
C10 H10A 0.9500
C12 C13 1.528(2)
C12 H12A 0.9900
C12 H12B 0.9900
C13 H13A 0.9800
C13 H13B 0.9800
C13 H13C 0.9800
C14 H14A 0.9800
C14 H14B 0.9800
C14 H14C 0.9800
loop_
_geom_hbond_atom_site_label_D
_geom_hbond_atom_site_label_H
_geom_hbond_atom_site_label_A
_geom_hbond_distance_DH
_geom_hbond_distance_HA
_geom_hbond_distance_DA
_geom_hbond_angle_DHA
_geom_hbond_site_symmetry_A
O1 H1A O2 0.84 2.24 2.9268(18) 139.2 .
O1 H1A O2 0.84 2.39 2.9556(16) 125.7 2_767
loop_
_geom_torsion_atom_site_label_1
_geom_torsion_atom_site_label_2
_geom_torsion_atom_site_label_3
_geom_torsion_atom_site_label_4
_geom_torsion
C4 N1 C1 O2 -179.13(14)
B1 N1 C1 O2 1.5(2)
C4 N1 C1 C2 1.29(15)
B1 N1 C1 C2 -178.08(13)
C1 N1 B1 O1 -3.9(2)
C4 N1 B1 O1 176.80(13)
C1 N1 B1 C11 177.84(13)
C4 N1 B1 C11 -1.5(2)
O2 C1 C2 C3 179.44(15)
N1 C1 C2 C3 -1.00(16)
O2 C1 C2 C12 -1.5(2)
N1 C1 C2 C12 178.04(13)
C1 C2 C3 C4 0.32(16)
C12 C2 C3 C4 -178.62(15)
C1 C2 C3 C14 178.85(14)
C12 C2 C3 C14 -0.1(3)
C1 N1 C4 C5 178.97(13)
B1 N1 C4 C5 -1.6(2)
C1 N1 C4 C3 -1.11(15)
B1 N1 C4 C3 178.31(13)
C2 C3 C4 C5 -179.62(15)
C14 C3 C4 C5 1.7(2)
C2 C3 C4 N1 0.47(16)
C14 C3 C4 N1 -178.16(12)
N1 C4 C5 C6 2.7(2)
C3 C4 C5 C6 -177.24(14)
C4 C5 C6 C7 179.51(14)
C4 C5 C6 C11 -0.4(2)
C11 C6 C7 C8 1.9(2)
C5 C6 C7 C8 -178.03(13)
C6 C7 C8 C9 -0.9(2)
C7 C8 C9 C10 -0.5(2)
C8 C9 C10 C11 0.9(2)
C9 C10 C11 C6 0.1(2)
C9 C10 C11 B1 -178.72(14)
C7 C6 C11 C10 -1.4(2)
C5 C6 C11 C10 178.47(13)
C7 C6 C11 B1 177.36(13)
C5 C6 C11 B1 -2.7(2)
O1 B1 C11 C10 4.0(2)
N1 B1 C11 C10 -177.69(13)
O1 B1 C11 C6 -174.73(13)
N1 B1 C11 C6 3.5(2)
C3 C2 C12 C13 107.86(19)
C1 C2 C12 C13 -70.95(19)
