#------------------------------------------------------------------------------
#$Date: 2019-12-19 02:21:52 +0200 (Thu, 19 Dec 2019) $
#$Revision: 245357 $
#$URL: file:///home/coder/svn-repositories/cod/cif/4/03/77/4037705.cif $
#------------------------------------------------------------------------------
#
# This file is available in the Crystallography Open Database (COD),
# http://www.crystallography.net/
#
# All data on this site have been placed in the public domain by the
# contributors.
#
data_4037705
loop_
_publ_author_name
'Tripathi, Krishna N.'
'Belal, Md'
'Singh, Ravi P.'
_publ_section_title
;
 Organo Photoinduced Decarboxylative Alkylation of Coumarins with
 N-(Acyloxy)phthalimide.
;
_journal_name_full               'The Journal of organic chemistry'
_journal_paper_doi               10.1021/acs.joc.9b00977
_journal_year                    2019
_chemical_formula_moiety         'C13 H13 N O2'
_chemical_formula_sum            'C13 H13 N O2'
_chemical_formula_weight         215.24
_space_group_crystal_system      triclinic
_space_group_IT_number           2
_space_group_name_Hall           '-P 1'
_space_group_name_H-M_alt        'P -1'
_atom_sites_solution_hydrogens   geom
_audit_creation_method           SHELXL-2014/7
_cell_angle_alpha                86.984(3)
_cell_angle_beta                 81.532(3)
_cell_angle_gamma                88.372(3)
_cell_formula_units_Z            2
_cell_length_a                   6.6260(7)
_cell_length_b                   9.2576(10)
_cell_length_c                   9.4803(10)
_cell_measurement_reflns_used    5683
_cell_measurement_temperature    302(2)
_cell_measurement_theta_max      28.05
_cell_measurement_theta_min      2.17
_cell_volume                     574.27(11)
_computing_cell_refinement       'Bruker SAINT'
_computing_data_collection       'Bruker APEX2'
_computing_data_reduction        'Bruker SAINT'
_computing_molecular_graphics    'Bruker SHELXTL'
_computing_publication_material  'Bruker SHELXTL'
_computing_structure_refinement  'SHELXL-2014 (Sheldrick 2014)'
_computing_structure_solution    'SHELXS-97 (Sheldrick 2008)'
_diffrn_ambient_temperature      302(2)
_diffrn_measured_fraction_theta_full 1.000
_diffrn_measured_fraction_theta_max 0.999
_diffrn_measurement_device_type  'Bruker APEX-II CCD'
_diffrn_measurement_method       '\f and \w scans'
_diffrn_radiation_type           MoK\a
_diffrn_radiation_wavelength     0.71073
_diffrn_reflns_av_R_equivalents  0.0436
_diffrn_reflns_av_unetI/netI     0.0339
_diffrn_reflns_Laue_measured_fraction_full 1.000
_diffrn_reflns_Laue_measured_fraction_max 0.999
_diffrn_reflns_limit_h_max       8
_diffrn_reflns_limit_h_min       -8
_diffrn_reflns_limit_k_max       12
_diffrn_reflns_limit_k_min       -12
_diffrn_reflns_limit_l_max       12
_diffrn_reflns_limit_l_min       -12
_diffrn_reflns_number            15588
_diffrn_reflns_point_group_measured_fraction_full 1.000
_diffrn_reflns_point_group_measured_fraction_max 0.999
_diffrn_reflns_theta_full        25.242
_diffrn_reflns_theta_max         28.325
_diffrn_reflns_theta_min         2.175
_exptl_absorpt_coefficient_mu    0.084
_exptl_crystal_colour            colourless
_exptl_crystal_density_diffrn    1.245
_exptl_crystal_description       block
_exptl_crystal_F_000             228
_exptl_crystal_size_max          0.20
_exptl_crystal_size_mid          0.18
_exptl_crystal_size_min          0.16
_refine_diff_density_max         0.151
_refine_diff_density_min         -0.204
_refine_diff_density_rms         0.040
_refine_ls_extinction_method     none
_refine_ls_goodness_of_fit_ref   0.691
_refine_ls_hydrogen_treatment    constr
_refine_ls_matrix_type           full
_refine_ls_number_parameters     147
_refine_ls_number_reflns         2857
_refine_ls_number_restraints     0
_refine_ls_restrained_S_all      0.691
_refine_ls_R_factor_all          0.0922
_refine_ls_R_factor_gt           0.0516
_refine_ls_shift/su_max          0.000
_refine_ls_shift/su_mean         0.000
_refine_ls_structure_factor_coef Fsqd
_refine_ls_weighting_details
'w=1/[\s^2^(Fo^2^)+(0.1000P)^2^+0.6110P] where P=(Fo^2^+2Fc^2^)/3'
_refine_ls_weighting_scheme      calc
_refine_ls_wR_factor_gt          0.1359
_refine_ls_wR_factor_ref         0.1730
_reflns_Friedel_coverage         0.000
_reflns_number_gt                1890
_reflns_number_total             2857
_reflns_threshold_expression     'I > 2\s(I)'
_cod_data_source_file            jo9b00977_si_004.cif
_cod_data_source_block           knt12019_0m_a_a
_cod_database_code               4037705
_shelx_shelxl_version_number     2014/7
_shelx_space_group_comment
;
The symmetry employed for this shelxl refinement is uniquely defined
by the following loop, which should always be used as a source of
symmetry information in preference to the above space-group names.
They are only intended as comments.
;
_shelx_res_file
;

    knt12019_0m_a_a.res created by SHELXL-2014/7

TITL knt12019_0m_a_a.res in P-1
CELL  0.71073   6.6260   9.2576   9.4803   86.984   81.532   88.372
ZERR   12.000   0.0007   0.0010   0.0010    0.003    0.003    0.003
LATT 1
SFAC C  H  N  O
UNIT 12  12  12  12
REM Old TITL knt12019_0m_a.res in P-1
REM SHELXT solution in P-1
REM R1 0.186,  Rweak 0.019,  Alpha 0.039,  Orientation as input
REM Formula found by SHELXT:  C13 N O2
L.S. 10
ACTA
BOND $H
FMAP 2
PLAN 20
TEMP 28.960
WGHT    0.100000    0.610980
FVAR       1.10176
O2    4    0.610789    0.180422    0.275538    11.00000    0.03874    0.06826 =
         0.06881    0.00270   -0.01224   -0.00150
O1    4    0.560435    0.165727    0.509663    11.00000    0.07369    0.06201 =
         0.07271    0.00269   -0.03941   -0.00176
C1    1    0.180924    0.238641    0.279697    11.00000    0.03873    0.04253 =
         0.04304    0.00028   -0.00872   -0.00033
AFIX  13
H1    2    0.050951    0.198702    0.264315    11.00000   -1.20000
AFIX   0
C9    1    0.325864    0.225916    0.142619    11.00000    0.04706    0.03808 =
         0.04312   -0.00095   -0.00557   -0.00469
C2    1    0.268033    0.136098    0.391192    11.00000    0.04649    0.03804 =
         0.04114   -0.00011   -0.00777   -0.00233
AFIX  13
H2    2    0.263328    0.037984    0.357883    11.00000   -1.20000
AFIX   0
C3    1    0.488685    0.163222    0.401310    11.00000    0.04886    0.04109 =
         0.05728    0.00312   -0.01854    0.00001
N1    3    0.049360    0.132429    0.642465    11.00000    0.08211    0.08313 =
         0.05375   -0.00406    0.00109   -0.01178
C4    1    0.529306    0.191735    0.146414    11.00000    0.04576    0.04699 =
         0.05306   -0.00082   -0.00285   -0.00603
C10   1    0.135101    0.394063    0.328114    11.00000    0.06013    0.04450 =
         0.05584   -0.00344   -0.00772    0.00984
AFIX  13
H10   2    0.044682    0.386527    0.419694    11.00000   -1.20000
AFIX   0
C13   1    0.147212    0.135334    0.533044    11.00000    0.05968    0.04989 =
         0.04758    0.00050   -0.00876   -0.00732
C8    1    0.263617    0.239554    0.008316    11.00000    0.06818    0.06035 =
         0.04855    0.00152   -0.01365   -0.00933
AFIX  43
H8    2    0.127300    0.261041    0.001587    11.00000   -1.20000
AFIX   0
C5    1    0.666035    0.170722    0.024199    11.00000    0.05340    0.06465 =
         0.08117   -0.00999    0.01419   -0.00770
AFIX  43
H5    2    0.801696    0.146043    0.030032    11.00000   -1.20000
AFIX   0
C7    1    0.398862    0.222006   -0.114350    11.00000    0.10030    0.07565 =
         0.04392   -0.00354   -0.00385   -0.02007
AFIX  43
H7    2    0.354545    0.234053   -0.202937    11.00000   -1.20000
AFIX   0
C6    1    0.598839    0.186786   -0.106069    11.00000    0.09386    0.06851 =
         0.05929   -0.01424    0.02318   -0.01821
AFIX  43
H6    2    0.689792    0.173650   -0.189182    11.00000   -1.20000
AFIX   0
C11   1    0.321387    0.474148    0.352901    11.00000    0.09578    0.04299 =
         0.09694   -0.01456   -0.03695    0.00207
AFIX 137
H11A  2    0.417949    0.478302    0.266787    11.00000   -1.50000
H11B  2    0.382562    0.424403    0.427890    11.00000   -1.50000
H11C  2    0.281975    0.570608    0.379771    11.00000   -1.50000
AFIX   0
C12   1    0.019360    0.480863    0.224268    11.00000    0.08861    0.06022 =
         0.10544    0.00021   -0.03552    0.02510
AFIX 137
H12A  2   -0.024674    0.572072    0.263228    11.00000   -1.50000
H12B  2   -0.097442    0.428086    0.208807    11.00000   -1.50000
H12C  2    0.107044    0.497290    0.135138    11.00000   -1.50000
AFIX   0
HKLF 4

REM  knt12019_0m_a_a.res in P-1
REM R1 =  0.0516 for    1890 Fo > 4sig(Fo)  and  0.0922 for all    2857 data
REM    147 parameters refined using      0 restraints

END

WGHT      0.0659      0.1186

REM Highest difference peak  0.151,  deepest hole -0.204,  1-sigma level  0.040
Q1    1   0.2597  0.2422  0.2084  11.00000  0.05    0.15
Q2    1   0.1529  0.3188  0.3001  11.00000  0.05    0.15
Q3    1   0.3669  0.1513  0.3987  11.00000  0.05    0.14
Q4    1   0.2375  0.4210  0.3276  11.00000  0.05    0.13
Q5    1   0.1710  0.1666  0.6217  11.00000  0.05    0.13
Q6    1   0.4857  0.1621 -0.0956  11.00000  0.05    0.13
Q7    1  -0.3098  0.5092  0.3369  11.00000  0.05    0.13
Q8    1   0.4287  0.1692  0.1465  11.00000  0.05    0.13
Q9    1   0.4662  0.4693  0.3035  11.00000  0.05    0.12
Q10   1   0.1677  0.5173  0.1401  11.00000  0.05    0.12
Q11   1   0.4349  0.2544  0.1447  11.00000  0.05    0.11
Q12   1   0.6522  0.1485  0.4356  11.00000  0.05    0.11
Q13   1   0.2135  0.1924  0.3403  11.00000  0.05    0.11
Q14   1  -0.1422  0.4013  0.2286  11.00000  0.05    0.11
Q15   1   0.5449  0.4405  0.3676  11.00000  0.05    0.11
Q16   1   0.6087  0.5061  0.3029  11.00000  0.05    0.11
Q17   1  -0.2464  0.3907  0.0954  11.00000  0.05    0.10
Q18   1   0.1887  0.3867  0.0590  11.00000  0.05    0.10
Q19   1   0.0986  0.4861  0.0977  11.00000  0.05    0.10
Q20   1  -0.2239  0.4071  0.3770  11.00000  0.05    0.10
;
_shelx_res_checksum              38135
_shelx_hkl_file
;
  -1   0   0 1399.36   35.60
   1   0   0 1406.16   35.70
  -2   0   0   59.39    7.00
  -2   0   0   63.29    1.80
  -2   0   0   65.59    2.00
  -2   0   0   64.29    1.80
  -2   0   0   65.39    1.90
  -2   0   0   63.69    1.90
  -2   0   0   64.89    2.10
   2   0   0   65.79    2.00
   2   0   0   64.89    1.90
   2   0   0   62.99    1.80
   2   0   0   56.19    7.30
   2   0   0   64.29    2.10
   2   0   0   64.39    1.90
   2   0   0   64.09    1.80
  -3   0   0   77.99    2.30
  -3   0   0   66.99    2.50
  -3   0   0   77.59    2.40
  -3   0   0   77.09    2.20
  -3   0   0   70.19    9.70
   3   0   0   71.79    2.50
   3   0   0   76.19    2.20
   3   0   0   68.19   10.60
   3   0   0   78.09    2.30
   3   0   0   78.09    2.60
   3   0   0   74.39    2.40
  -4   0   0   21.90    1.30
  -4   0   0   21.30    1.10
  -4   0   0   23.30    1.30
  -4   0   0   17.90    1.20
  -4   0   0   18.10    8.60
   4   0   0   22.90    1.20
   4   0   0   29.10    9.60
   4   0   0   20.10    1.20
   4   0   0   22.30    1.50
  -5   0   0   -0.20    0.50
  -5   0   0   -0.30    0.60
  -5   0   0   -0.60    0.50
   5   0   0    3.30   11.60
   5   0   0    0.50    0.50
   5   0   0   -0.40    0.70
  -6   0   0   12.60    1.60
  -6   0   0   13.20    1.40
  -6   0   0   13.20    1.50
   6   0   0   11.30    1.80
   6   0   0    5.90   15.60
   6   0   0   15.60   14.40
   6   0   0   10.30    1.20
  -7   0   0    4.30    1.30
  -7   0   0    1.80    1.10
  -7   0   0    1.60    1.00
   7   0   0    2.00    0.90
   7   0   0    6.40    1.60
  -8   0   0    2.80    1.60
  -8   0   0   -1.60    1.40
   8   0   0    0.20    1.80
   8   0   0    1.40    2.00
   8  -1   0    6.60    2.10
   8  -1   0    1.50    1.90
  -8   1   0    1.70    1.50
  -8   1   0    1.60    1.70
   7  -1   0    0.10    0.90
   7  -1   0    2.00    1.50
  -7   1   0    2.10    1.10
  -7   1   0   -0.30    0.90
  -7   1   0    1.70    1.20
   6  -1   0   11.60    1.20
   6  -1   0    2.80   12.60
   6  -1   0   11.50    1.80
  -6   1   0    9.20    1.20
  -6   1   0   10.70    1.60
  -6   1   0   13.20    1.50
   5  -1   0    1.70    0.90
   5  -1   0   -6.20   10.60
  -5   1   0    2.30    0.70
  -5   1   0    2.00    0.70
   4  -1   0  108.69    3.70
   4  -1   0  112.99   14.80
   4  -1   0   99.49    3.00
   4  -1   0  106.99    3.20
  -4   1   0  107.39    3.30
  -4   1   0   99.19   12.50
  -4   1   0  101.49    3.10
  -4   1   0  102.39    3.30
  -4   1   0  104.69    3.00
   3  -1   0  531.75   12.00
   3  -1   0  543.75   13.20
   3  -1   0  502.85   12.20
   3  -1   0  554.64   23.60
   3  -1   0  541.35   12.10
  -3   1   0  551.74   12.10
  -3   1   0  552.84   23.10
  -3   1   0  529.15   12.70
  -3   1   0  556.04   12.30
  -3   1   0  521.75   13.00
  -3   1   0  545.25   12.00
   2  -1   0 1504.75   31.90
   2  -1   0 1481.55   31.60
   2  -1   0 1467.45   31.70
   2  -1   0 1544.35   40.30
   2  -1   0 1446.36   31.70
   2  -1   0 1479.55   32.10
  -2   1   0 1482.95   31.60
  -2   1   0 1461.45   31.60
  -2   1   0 1463.15   31.80
  -2   1   0 1442.96   31.70
  -2   1   0 1478.35   32.00
  -2   1   0 1544.25   40.00
   1  -1   0    0.50    0.20
   1  -1   0    0.30    0.20
   1  -1   0    0.40    0.10
   1  -1   0    0.30    0.10
   1  -1   0   -0.90    1.10
   1  -1   0    0.40    0.10
   1  -1   0    0.30    0.20
  -1   1   0    0.30    0.20
  -1   1   0    0.40    0.10
  -1   1   0    0.60    1.00
  -1   1   0    0.30    0.10
  -1   1   0    0.50    0.10
  -1   1   0    0.20    0.10
  -1   1   0    0.30    0.10
   0   1   0  385.76    8.40
  -1  -1   0 3878.51   90.39
   1   1   0 3765.32   90.29
  -2  -1   0 1203.78   26.50
  -2  -1   0 1201.98   26.30
  -2  -1   0 1251.67   39.90
  -2  -1   0 1217.88   26.30
  -2  -1   0 1212.18   26.20
  -2  -1   0 1215.28   26.20
   2   1   0 1248.08   26.30
   2   1   0 1197.08   26.40
   2   1   0 1193.68   26.30
   2   1   0 1315.07   40.80
   2   1   0 1233.88   26.20
   2   1   0 1231.38   26.40
   2   1   0 1191.58   26.20
  -3  -1   0  132.99    4.10
  -3  -1   0  149.79    3.80
  -3  -1   0  130.09   13.80
  -3  -1   0  146.49    3.90
  -3  -1   0  148.09    3.80
   3   1   0  150.38    4.10
   3   1   0  146.99    3.80
   3   1   0  143.69   15.10
   3   1   0  145.59    3.90
   3   1   0  136.59    4.00
   3   1   0  145.79    3.80
  -4  -1   0   66.59    2.30
  -4  -1   0   66.29    2.50
  -4  -1   0   68.89    2.30
  -4  -1   0   66.59    2.40
  -4  -1   0   59.29   11.70
   4   1   0   64.29    2.30
   4   1   0   64.99   13.80
   4   1   0   69.69    2.70
   4   1   0   68.49    2.30
  -5  -1   0   -3.90   11.20
   5   1   0  -16.20   11.80
  -6  -1   0    0.10    0.80
  -6  -1   0    0.00    0.80
   6   1   0    0.90    1.00
   6   1   0   -0.70    0.60
   6   1   0    0.30   16.70
  -7  -1   0    5.90    1.30
  -7  -1   0    3.40    1.10
  -7  -1   0    4.50    1.30
   7   1   0    4.00    1.60
   7   1   0    5.50    0.90
  -8  -1   0    0.40    1.50
  -8  -1   0    1.80    1.60
   8   1   0    2.30    1.90
   8   1   0    0.80    1.90
   8  -2   0    1.50    2.10
   8  -2   0    3.00    2.10
  -8   2   0    0.50    1.60
  -8   2   0    0.40    1.60
   7  -2   0    0.20    1.40
   7  -2   0    2.90    1.00
  -7   2   0    3.30    0.90
  -7   2   0    3.40    1.30
  -7   2   0    1.30    1.10
   6  -2   0  -13.10   10.70
   6  -2   0    0.00    1.10
   6  -2   0   -0.10    0.70
  -6   2   0    0.60    0.80
  -6   2   0    0.60    0.90
  -6   2   0    1.00    0.70
   5  -2   0    1.80    0.60
   5  -2   0    1.00    0.90
   5  -2   0   -1.00    9.20
   5  -2   0   -6.10    8.50
  -5   2   0    3.20    0.70
  -5   2   0    1.70    0.50
  -5   2   0    0.60    0.60
   4  -2   0  155.68    4.20
   4  -2   0  142.99    4.00
   4  -2   0  158.18   14.30
   4  -2   0  143.59    4.00
   4  -2   0  151.88    4.80
  -4   2   0  143.29    4.10
  -4   2   0  143.99    4.60
  -4   2   0  154.58    4.40
  -4   2   0  157.48    4.30
  -4   2   0  153.48    4.00
   3  -2   0  119.69    3.40
   3  -2   0  113.99    3.40
   3  -2   0  123.99    3.90
   3  -2   0  123.39    3.30
   3  -2   0  122.99    3.30
   3  -2   0  122.19   10.10
  -3   2   0  123.39    3.40
  -3   2   0  127.69    3.70
  -3   2   0  122.29    3.40
  -3   2   0  122.69    3.20
  -3   2   0  123.69    3.50
   2  -2   0  909.31   19.80
   2  -2   0  906.01   19.90
   2  -2   0  911.01   24.30
   2  -2   0  876.41   19.80
   2  -2   0  917.21   19.90
   2  -2   0  918.11   20.00
   2  -2   0  908.21   19.70
   2  -2   0  896.71   20.20
  -2   2   0  919.91   19.80
  -2   2   0  901.41   19.70
  -2   2   0  899.81   20.10
  -2   2   0 1026.00   24.70
  -2   2   0  898.81   19.90
  -2   2   0  913.61   19.90
   1  -2   0 1373.26   28.40
   1  -2   0 1357.96   28.40
   1  -2   0 1299.77   28.50
   1  -2   0 1313.57   28.40
  -1   2   0 1313.07   28.40
   0  -2   0 3366.16   78.59
   0   2   0 3439.16   78.89
  -1  -2   0 2421.86   64.09
   1   2   0 2444.96   64.39
  -2  -2   0  578.44   12.70
  -2  -2   0  563.04   26.00
  -2  -2   0  562.24   12.70
  -2  -2   0  567.64   12.70
  -2  -2   0  567.74   12.70
  -2  -2   0  566.14   12.50
   2   2   0  574.34   12.60
   2   2   0  567.94   12.60
   2   2   0  571.54   12.60
   2   2   0  571.04   12.60
   2   2   0  561.04   12.40
   2   2   0  575.94   26.40
  -3  -2   0  447.86   10.40
  -3  -2   0  458.85   10.30
  -3  -2   0  449.16   10.50
  -3  -2   0  457.65   10.40
  -3  -2   0  451.25   26.50
  -3  -2   0  419.66   10.50
   3   2   0  446.46   10.50
   3   2   0  449.06   26.80
   3   2   0  443.16   10.30
   3   2   0  446.56   10.20
   3   2   0  455.45   10.30
   3   2   0  461.55   10.60
  -4  -2   0   20.10    1.20
  -4  -2   0   17.30    1.30
  -4  -2   0   19.30    1.30
  -4  -2   0   20.90    1.30
   4   2   0   20.50    1.20
   4   2   0   15.50   11.30
   4   2   0   21.80    1.40
  -5  -2   0   33.00    1.70
  -5  -2   0   40.50   15.20
  -5  -2   0   32.10    1.90
  -5  -2   0   32.40    1.80
   5   2   0   28.50    1.50
   5   2   0   29.70    2.00
   5   2   0   33.20   15.70
  -6  -2   0   -1.20    0.80
  -6  -2   0    0.20    0.80
  -6  -2   0    0.00    1.00
   6   2   0    0.70    1.00
   6   2   0  -20.30   19.40
   6   2   0    0.00    0.60
  -7  -2   0   -0.20    1.10
  -7  -2   0    0.80    1.10
  -7  -2   0   -1.70    1.20
   7   2   0   -0.70    0.90
   7   2   0   -0.60    1.30
  -8  -2   0   -3.10    1.60
  -8  -2   0    0.00    1.30
   8   2   0    1.70    2.10
   8   2   0    0.80    1.90
   8  -3   0    3.90    2.30
   8  -3   0    2.20    2.20
  -8   3   0    0.50    1.70
  -8   3   0   -1.40    1.50
   7  -3   0    5.40    1.70
   7  -3   0    2.90    1.60
   7  -3   0    2.80    1.60
  -7   3   0    3.40    1.20
  -7   3   0    1.20    1.20
   6  -3   0    4.90   10.50
   6  -3   0   15.00    2.20
   6  -3   0   21.60    1.60
  -6   3   0   17.30    1.30
  -6   3   0   21.30    1.70
  -6   3   0   17.50    2.00
   5  -3   0   -4.30    9.00
   5  -3   0    0.40    0.60
   5  -3   0   -2.70    7.40
   5  -3   0    2.10    1.00
  -5   3   0    0.30    0.70
  -5   3   0    0.60    0.50
  -5   3   0    0.00    0.70
  -5   3   0   -0.10    0.90
   4  -3   0   -3.60    5.60
   4  -3   0   -0.60    0.60
   4  -3   0    0.50    0.50
   4  -3   0    0.80    0.70
  -4   3   0   -0.50    0.60
  -4   3   0    0.00    0.50
  -4   3   0   -0.80    0.40
  -4   3   0   -0.20    0.50
   3  -3   0    1.40    0.60
   3  -3   0    1.80    3.00
   3  -3   0    1.00    0.50
   3  -3   0    1.30    0.50
   3  -3   0    1.60    0.50
  -3   3   0    1.50    0.40
  -3   3   0    0.90    0.50
  -3   3   0    1.50    0.40
  -3   3   0    1.60    0.50
   2  -3   0   81.59    2.30
   2  -3   0   82.59    2.30
   2  -3   0   78.79    2.70
   2  -3   0   83.79    2.40
   2  -3   0   82.69    2.40
   2  -3   0   82.29    2.50
   2  -3   0   84.29    2.50
   2  -3   0   81.69    2.40
  -2   3   0   81.79    2.30
  -2   3   0   81.49    2.40
  -2   3   0   81.09    2.60
  -2   3   0   79.79    2.40
  -2   3   0   81.59    2.30
   1  -3   0  929.71   19.70
   1  -3   0  928.11   19.80
   1  -3   0  934.81   19.80
   1  -3   0  924.31   19.80
   1  -3   0  902.91   19.90
   1  -3   0  918.31   20.00
   1  -3   0  899.41   19.70
   1  -3   0  926.31   19.80
  -1   3   0  918.71   19.90
  -1   3   0  914.71   19.80
  -1   3   0  880.21   22.60
  -1   3   0  920.91   19.70
  -1   3   0  930.41   23.40
  -1   3   0  921.41   19.90
  -1   3   0  899.11   19.60
  -1   3   0  919.31   20.00
   0   3   0 9999.00  221.48
  -1  -3   0 1449.06   30.90
  -1  -3   0 1378.06   30.90
  -1  -3   0 1434.16   30.50
  -1  -3   0 1526.85   46.00
  -1  -3   0 1402.26   30.60
   1   3   0 1415.06   30.80
   1   3   0 1422.76   30.90
   1   3   0 1490.55   45.80
   1   3   0 1422.96   30.60
  -2  -3   0  468.05   10.50
  -2  -3   0  456.55   10.60
  -2  -3   0  453.05   10.50
  -2  -3   0  460.05   10.60
  -2  -3   0  465.85   25.00
  -2  -3   0  460.95   10.20
   2   3   0  471.75   10.10
   2   3   0  439.86   10.30
   2   3   0  470.25   10.60
   2   3   0  463.15   24.90
   2   3   0  462.05   10.50
   2   3   0  475.55   10.30
  -3  -3   0  342.47    7.70
  -3  -3   0  315.37   22.80
  -3  -3   0  300.17    7.90
  -3  -3   0  332.07    7.90
  -3  -3   0  302.37    7.90
  -3  -3   0  333.77    7.90
   3   3   0  344.47   25.50
   3   3   0  325.47    7.50
   3   3   0  333.07    7.90
   3   3   0  342.37    7.80
  -4  -3   0   -0.80    0.50
  -4  -3   0  -16.00   10.40
   4   3   0   14.50   10.30
  -5  -3   0    4.80    0.80
  -5  -3   0    4.90    0.90
  -5  -3   0    6.20    1.10
   5   3   0    3.90    0.70
   5   3   0   11.50   16.50
   5   3   0    4.70    1.10
  -6  -3   0    1.50    0.90
  -6  -3   0    1.90    0.90
  -6  -3   0    2.20    0.80
   6   3   0    2.50    1.00
   6   3   0   16.50   21.60
   6   3   0    2.90    0.70
  -7  -3   0    1.50    1.10
  -7  -3   0    2.00    1.20
  -7  -3   0    2.20    1.30
   7   3   0    3.70    1.00
   7   3   0    1.90    1.50
  -8  -3   0    1.00    1.80
  -8  -3   0   -0.40    1.40
   8   3   0    0.30    1.90
   8   3   0   -0.60    1.90
   8  -4   0    3.80    2.60
   8  -4   0   11.40    2.50
  -8   4   0    6.50    1.70
  -8   4   0    7.40    2.00
   7  -4   0    4.60    1.90
   7  -4   0    8.40    1.90
  -7   4   0    3.20    1.40
  -7   4   0    4.30    1.20
   6  -4   0    8.60    1.90
   6  -4   0   10.80    1.70
   6  -4   0    9.30    1.50
   6  -4   0    6.40    9.80
  -6   4   0   10.50    1.20
  -6   4   0    8.70    1.40
  -6   4   0    9.00    1.20
   5  -4   0   28.80    6.70
   5  -4   0   22.10    1.50
   5  -4   0   21.60    2.10
   5  -4   0   15.50    6.90
  -5   4   0   24.30    2.00
  -5   4   0   23.30    1.50
  -5   4   0   22.90    1.30
  -5   4   0   23.20    1.70
   4  -4   0   22.20    1.80
   4  -4   0   15.40    3.30
   4  -4   0   22.10    1.30
   4  -4   0   21.70    1.40
  -4   4   0   20.60    1.10
  -4   4   0   23.60    1.50
  -4   4   0   21.50    1.70
  -4   4   0   20.00    1.30
   3  -4   0  389.66    9.80
   3  -4   0  387.36    9.50
   3  -4   0  389.66    9.40
  -3   4   0  385.26    9.30
  -3   4   0  375.06    9.60
  -3   4   0  391.26    9.00
  -3   4   0  398.96    9.40
   2  -4   0  649.14   14.50
   2  -4   0  664.73   14.60
   2  -4   0  640.04   14.50
   2  -4   0  611.54   15.10
   2  -4   0  655.93   14.40
   2  -4   0  635.04   14.50
   2  -4   0  664.33   14.70
   2  -4   0  647.94   14.40
  -2   4   0  616.44   15.00
  -2   4   0  662.13   14.30
  -2   4   0  670.13   14.50
  -2   4   0  670.63   14.80
  -2   4   0  656.83   14.40
   1  -4   0    9.30    0.60
   1  -4   0    8.00    0.50
   1  -4   0    7.80    0.70
   1  -4   0    8.10    0.70
   1  -4   0    7.70    0.60
   1  -4   0    7.60    0.60
   1  -4   0    7.50    0.70
   1  -4   0    6.60    0.60
  -1   4   0    9.20    0.80
  -1   4   0    7.40    0.60
  -1   4   0    8.00    0.60
  -1   4   0    9.50    3.30
  -1   4   0    7.80    0.80
  -1   4   0    7.60    0.50
  -1   4   0    7.10    2.60
   0  -4   0   18.60    1.00
   0  -4   0   19.70    1.00
   0  -4   0   19.20    1.00
   0  -4   0   18.40    0.80
   0  -4   0   20.00    0.70
   0  -4   0   20.30    0.60
   0  -4   0   19.90    0.70
   0   4   0   14.00    4.40
   0   4   0   19.00    0.80
   0   4   0   17.70    5.60
   0   4   0   21.30    1.00
   0   4   0   19.00    0.80
   0   4   0   18.30    1.00
  -1  -4   0   34.50    1.20
  -1  -4   0   33.90    1.10
  -1  -4   0   32.00    1.40
  -1  -4   0   21.80    7.40
  -1  -4   0   31.80    1.60
   1   4   0   32.80    1.00
   1   4   0   33.30    1.20
   1   4   0   32.60    1.40
   1   4   0   31.30    1.40
  -2  -4   0   58.89    2.00
  -2  -4   0   60.79    2.20
  -2  -4   0   56.99    2.00
  -2  -4   0   61.79    1.70
  -2  -4   0   77.29   12.80
   2   4   0   59.49    2.10
   2   4   0   59.49    1.60
   2   4   0   62.69    1.80
   2   4   0   67.69   12.80
  -3  -4   0    4.90    0.70
  -3  -4   0    4.20    0.80
  -3  -4   0    3.00    8.80
  -3  -4   0    4.60    0.60
  -3  -4   0    5.00    0.80
   3   4   0    5.40    0.80
   3   4   0    5.90    0.60
   3   4   0   -0.20    8.00
   3   4   0    5.00    0.60
  -4  -4   0   59.69    2.50
  -4  -4   0   58.29    2.40
  -4  -4   0   62.89    2.10
  -4  -4   0   62.19   13.00
   4   4   0   58.59    2.30
   4   4   0   58.89    2.30
   4   4   0   65.09   16.10
   5   4   0    1.50    0.80
   5   4   0   17.60   19.80
  -6  -4   0    1.20    0.80
  -6  -4   0    0.70    0.90
  -6  -4   0    0.90    1.00
   6   4   0   -1.80    1.00
   6   4   0   -0.10    0.70
   6   4   0    5.00   24.90
  -7  -4   0   -2.20    1.30
  -7  -4   0    0.60    1.50
   7   4   0   -1.60    1.00
   7   4   0   -0.90    1.40
  -8  -4   0    0.90    1.90
  -8  -4   0    4.20    1.50
   8   4   0    3.10    2.10
   8   4   0    1.60    1.90
   7  -5   0   -3.20    1.90
   7  -5   0    1.70    1.80
  -7   5   0   -0.40    1.30
  -7   5   0    1.10    1.20
   6  -5   0    6.00    0.90
   6  -5   0    6.00    1.00
   6  -5   0    4.40    1.60
   6  -5   0    8.30    1.70
  -6   5   0    7.70    1.40
  -6   5   0    6.00    0.90
   5  -5   0    4.10    1.10
   5  -5   0    3.60    1.20
   5  -5   0    4.10    0.90
   5  -5   0    3.40    0.70
  -5   5   0    2.20    0.80
  -5   5   0    2.50    0.90
  -5   5   0    3.30    1.20
  -5   5   0    3.50    0.70
   4  -5   0   56.29    2.20
   4  -5   0   59.39    3.00
   4  -5   0   58.99    2.50
   4  -5   0   62.09    2.80
  -4   5   0   57.49    2.20
  -4   5   0   57.29    2.50
  -4   5   0   58.49    2.80
  -4   5   0   58.49    2.10
   3  -5   0    0.70    0.40
   3  -5   0    0.70    0.60
   3  -5   0    0.70    0.70
   3  -5   0    0.30    0.50
   3  -5   0    0.30    0.60
  -3   5   0    0.80    0.40
  -3   5   0    0.20    0.50
  -3   5   0    1.20    0.60
  -3   5   0    0.50    0.60
  -3   5   0    1.10    0.40
   2  -5   0  213.98    5.80
   2  -5   0  197.48    5.30
   2  -5   0  211.78    5.60
   2  -5   0  220.68    5.50
   2  -5   0  213.88    5.60
  -2   5   0  218.58    5.70
  -2   5   0  215.08    5.40
  -2   5   0  213.48    5.30
  -2   5   0  216.58    5.60
   1  -5   0   28.40    1.40
   1  -5   0   29.10    1.20
   1  -5   0   27.20    1.10
   1  -5   0   29.60    1.20
   1  -5   0   30.70    1.20
   1  -5   0   29.00    1.10
  -1   5   0   30.90    1.30
  -1   5   0   27.20    1.20
  -1   5   0   29.00    1.10
  -1   5   0   28.90    5.80
  -1   5   0   30.00    1.40
  -1   5   0   18.00    5.40
   0  -5   0  632.04   14.00
   0  -5   0  642.74   13.70
   0  -5   0  637.24   13.70
   0  -5   0  632.04   13.90
   0  -5   0  643.44   14.60
   0   5   0  624.34   14.00
   0   5   0  643.24   14.00
   0   5   0  644.64   14.50
   0   5   0  657.33   27.50
  -1  -5   0 1413.96   29.40
  -1  -5   0 1397.76   30.00
  -1  -5   0 1343.27   29.80
   1   5   0 1405.76   29.90
   1   5   0 1312.77   29.50
   1   5   0 1358.46   29.20
  -2  -5   0  566.24   12.70
  -2  -5   0  552.14   13.00
  -2  -5   0  564.64   12.10
  -2  -5   0  555.14   30.00
  -2  -5   0  546.35   12.50
   2   5   0  557.64   12.00
   2   5   0  573.04   12.30
   2   5   0  537.25   31.90
   2   5   0  556.54   12.90
  -3  -5   0   38.10    1.40
  -3  -5   0   36.20    1.70
  -3  -5   0   42.80   11.10
  -3  -5   0   38.70    1.90
  -3  -5   0   36.80    1.70
   3   5   0   38.10    1.80
   3   5   0   38.20    1.50
   3   5   0   34.80   14.70
   3   5   0   36.30    1.30
  -4  -5   0    8.30    1.30
  -4  -5   0    9.60    1.20
  -4  -5   0   10.00    0.90
   4   5   0  -10.00   12.10
   4   5   0    8.70    1.10
   4   5   0   10.50    1.00
  -5  -5   0   10.30    1.40
  -5  -5   0   13.10    1.60
  -5  -5   0   11.70    1.10
   5   5   0    5.60   14.20
   5   5   0   13.10    1.20
   5   5   0   38.90   17.60
   5   5   0   15.10    1.40
  -6  -5   0    0.20    0.80
  -6  -5   0    2.10    1.20
  -6  -5   0   -0.80    1.00
   6   5   0    0.30    0.80
   6   5   0   -0.70    1.00
   6   5   0    8.40   28.20
  -7  -5   0    6.00    1.70
  -7  -5   0    5.80    1.20
  -7  -5   0    6.00    1.60
   7   5   0    7.20    1.70
   7   5   0    5.60    1.70
  -8  -5   0    0.30    2.20
  -8  -5   0    1.10    2.10
   8   5   0    5.30    2.60
   8   5   0    2.80    2.00
   7  -6   0   -2.30    2.10
   7  -6   0    0.20    2.00
  -7   6   0    0.90    1.30
  -7   6   0   -2.50    1.50
   6  -6   0    0.10    1.70
   6  -6   0   -0.20    1.50
   6  -6   0   -0.10    1.20
  -6   6   0   -1.70    1.50
  -6   6   0    2.30    1.30
  -6   6   0    1.00    0.90
   5  -6   0   11.60    1.60
   5  -6   0   10.80    1.20
   5  -6   0    8.30    1.60
   5  -6   0   10.80    1.20
   5  -6   0    9.90    1.50
  -5   6   0    9.00    1.20
  -5   6   0   11.20    1.70
  -5   6   0   12.00    1.80
  -5   6   0   12.10    1.30
   4  -6   0    1.30    0.80
   4  -6   0    0.90    0.60
   4  -6   0    1.90    0.60
   4  -6   0    1.10    0.80
   4  -6   0    2.00    1.10
  -4   6   0    1.70    0.70
  -4   6   0    1.60    0.60
  -4   6   0   -0.70    0.90
  -4   6   0    2.00    0.60
   3  -6   0    3.10    0.80
   3  -6   0    2.20    0.50
   3  -6   0    2.40    0.70
   3  -6   0    1.80    0.60
   3  -6   0    2.40    0.70
  -3   6   0    3.60    0.80
  -3   6   0    2.40    0.60
  -3   6   0    2.60    0.60
  -3   6   0    3.90    0.80
   2  -6   0  220.88    6.00
   2  -6   0  220.88    5.50
   2  -6   0  220.98    6.20
   2  -6   0  219.58    5.80
  -2   6   0  221.18    5.90
  -2   6   0  225.08    6.10
  -2   6   0  224.48    5.50
   1  -6   0  275.17    6.80
   1  -6   0  298.27    6.80
   1  -6   0  296.67    6.80
   1  -6   0  299.77    6.90
   1  -6   0  291.57    7.40
  -1   6   0  297.07    7.50
  -1   6   0  279.87   15.20
  -1   6   0  292.97   16.70
  -1   6   0  300.27    7.10
   0  -6   0  240.58    5.80
   0  -6   0  249.38    5.50
   0  -6   0  250.77    6.00
   0  -6   0  254.37    5.60
   0  -6   0  250.07    6.60
   0   6   0  251.47   17.70
   0   6   0  253.47    6.50
   0   6   0  261.07    6.00
   0   6   0  255.37   18.10
  -1  -6   0  117.79    3.10
  -1  -6   0  118.99    3.30
  -1  -6   0  115.09    3.70
   1   6   0  115.89    3.60
   1   6   0  150.08   18.20
   1   6   0  115.89    3.00
   1   6   0  116.79   16.90
  -2  -6   0  105.09    3.20
  -2  -6   0  111.39    3.60
  -2  -6   0  100.99    3.00
   2   6   0  118.39   19.40
   2   6   0  107.99    2.80
   2   6   0   99.69   16.90
   2   6   0  106.09    3.40
  -3  -6   0   32.20    1.20
  -3  -6   0   33.20    1.90
  -3  -6   0   33.70    1.80
   3   6   0   20.40   12.70
   3   6   0   34.40    1.80
   3   6   0   29.00    1.10
  -4  -6   0    0.50    0.80
  -4  -6   0    1.40    0.80
  -4  -6   0    0.60    0.60
   4   6   0    1.90    0.80
   4   6   0   26.40   15.80
   4   6   0   -1.30   19.50
   4   6   0    0.30    0.60
  -5  -6   0    4.10    1.20
  -5  -6   0    3.80    0.70
  -5  -6   0    5.60    1.20
   5   6   0   14.40   14.70
   5   6   0  -21.90   18.80
   5   6   0    4.40    0.90
  -6  -6   0    0.50    1.20
  -6  -6   0   -0.60    1.30
  -6  -6   0    0.90    0.90
   6   6   0   -0.50    1.20
   6   6   0    2.00    0.90
   6   6   0    1.00    1.00
  -7  -6   0    0.10    1.70
  -7  -6   0    0.10    1.70
   7   6   0    2.00    1.50
   7   6   0    0.60    1.20
   7  -7   0    0.10    1.40
   7  -7   0    0.50    2.00
   7  -7   0   -0.70    2.30
  -7   7   0   -2.30    1.60
  -7   7   0    1.60    1.40
   6  -7   0   -1.60    1.70
   6  -7   0    1.10    1.50
   6  -7   0    0.70    1.00
   6  -7   0   -0.50    1.60
  -6   7   0    2.70    1.30
  -6   7   0   -0.30    1.00
  -6   7   0   -1.00    1.80
   5  -7   0    0.00    0.90
   5  -7   0    0.40    1.00
   5  -7   0    0.60    0.80
   5  -7   0    1.10    1.40
   5  -7   0    0.80    1.20
  -5   7   0   -0.70    0.80
  -5   7   0   -0.30    1.00
  -5   7   0   -1.60    1.40
  -5   7   0    0.40    0.70
   4  -7   0   27.90    1.90
   4  -7   0   25.90    2.00
   4  -7   0   26.40    2.20
   4  -7   0   28.80    1.60
   4  -7   0   27.70    1.50
  -4   7   0   28.60    2.20
  -4   7   0   25.40    1.50
  -4   7   0   27.00    1.80
   3  -7   0   74.19    2.40
   3  -7   0   74.09    3.20
   3  -7   0   74.99    3.10
   3  -7   0   72.89    2.70
   3  -7   0   72.39    2.80
  -3   7   0   75.99    3.10
  -3   7   0   73.89    2.60
  -3   7   0   74.89    3.10
   2  -7   0   12.70    0.90
   2  -7   0   12.00    1.50
   2  -7   0   11.80    0.80
   2  -7   0   11.20    1.20
  -2   7   0   11.40    1.30
  -2   7   0   13.10    1.40
  -2   7   0   12.00    0.90
  -2   7   0    5.90    2.40
   1  -7   0  113.39    3.10
   1  -7   0  114.19    3.00
   1  -7   0  117.29    3.20
   1  -7   0  112.59    3.80
  -1   7   0  121.49   12.40
  -1   7   0  118.49    3.80
  -1   7   0  123.59   14.00
  -1   7   0  116.49    3.40
   0  -7   0    5.10    0.70
   0   7   0   -8.10   10.00
   0   7   0    3.10    7.40
  -1  -7   0  254.67    6.20
  -1  -7   0  254.87    6.80
  -1  -7   0  241.78    5.90
   1   7   0  200.38   22.80
   1   7   0  243.48   22.10
   1   7   0  245.68    6.70
   1   7   0  249.88    5.80
  -2  -7   0   10.40    1.10
  -2  -7   0    9.30    1.30
  -2  -7   0    8.00    1.10
   2   7   0   11.10    1.30
   2   7   0   26.90   14.60
   2   7   0    9.70    0.70
  -3  -7   0    3.10    0.80
  -3  -7   0    2.10    0.80
   3   7   0    2.50    0.50
   3   7   0   -8.20   17.30
   3   7   0   17.10   16.00
   3   7   0    4.10    0.90
  -4  -7   0    2.80    0.90
  -4  -7   0    1.40    1.00
  -4  -7   0    3.20    0.60
   4   7   0    7.60   19.80
   4   7   0    4.80    0.70
   4   7   0    4.00    1.00
   4   7   0    2.00    0.70
   4   7   0   13.30   18.00
  -5  -7   0    3.70    1.30
  -5  -7   0    5.40    1.30
   5   7   0    1.30   17.80
   5   7   0    4.30    0.90
   5   7   0    3.90    1.00
  -6  -7   0   -2.00    1.40
  -6  -7   0    0.90    1.50
   6   7   0   -1.20    1.00
   6   7   0    2.00    1.00
  -7  -7   0    0.00    2.00
  -7  -7   0    3.00    2.00
   7   7   0    3.20    1.50
   6  -8   0   -2.60    1.20
   6  -8   0    1.50    1.70
   6  -8   0   -1.70    1.60
  -6   8   0    0.30    1.10
  -6   8   0    2.70    1.50
   5  -8   0   -0.70    1.00
   5  -8   0   -0.20    1.20
   5  -8   0    0.80    0.90
   5  -8   0   -3.00    1.30
   5  -8   0    1.50    1.50
  -5   8   0    0.20    0.90
  -5   8   0   -0.20    1.10
  -5   8   0   -2.80    1.50
   4  -8   0    3.20    1.20
   4  -8   0    1.70    1.10
   4  -8   0   -0.10    0.70
   4  -8   0   -0.80    0.90
   4  -8   0    0.40    0.80
  -4   8   0    0.30    0.90
  -4   8   0    3.80    1.30
  -4   8   0   -0.40    1.20
   3  -8   0    0.20    0.70
   3  -8   0    1.30    0.90
   3  -8   0    1.30    0.60
   3  -8   0   -0.30    0.70
   3  -8   0    2.20    1.00
  -3   8   0    0.00    0.90
  -3   8   0    0.20    1.00
   2  -8   0    0.20    0.50
   2  -8   0    0.30    0.70
   2  -8   0    1.70    0.50
   2  -8   0    3.10    1.00
  -2   8   0    1.20    0.80
  -2   8   0   -2.10    3.60
  -2   8   0    0.90    0.90
   1  -8   0   25.20    1.20
   1  -8   0   24.70    1.80
   1  -8   0   24.50    1.10
  -1   8   0   24.50    1.80
  -1   8   0   13.50    8.60
  -1   8   0   24.30    1.50
   0  -8   0   22.50    1.70
   0  -8   0   25.70    1.20
   0   8   0   28.20    1.80
   0   8   0   11.40   13.00
   0   8   0    7.90   10.60
  -1  -8   0  253.87    6.30
  -1  -8   0  250.87    7.00
   1   8   0  179.28   23.60
   1   8   0  249.18    6.90
   1   8   0  242.98    5.80
   1   8   0  220.48   28.80
  -2  -8   0  234.18    6.20
  -2  -8   0  232.58    6.80
   2   8   0  219.68    5.50
   2   8   0  232.48   28.70
   2   8   0  236.08    6.60
  -3  -8   0    1.10    0.90
   3   8   0    0.90    0.90
   3   8   0   16.00   17.80
   4   8   0   53.39   21.70
  -5  -8   0    5.20    1.40
  -5  -8   0    6.90    1.60
   5   8   0    6.00    1.20
  -6  -8   0    4.30    1.90
  -6  -8   0    3.40    1.70
   6   8   0    2.60    1.20
   5  -9   0    1.40    1.40
   5  -9   0    2.70    1.20
   5  -9   0    3.30    1.50
   5  -9   0   -2.20    1.80
  -5   9   0    1.50    1.90
  -5   9   0    2.00    1.30
   4  -9   0   -0.20    1.20
   4  -9   0   -1.40    0.80
  -4   9   0    0.30    1.40
   3  -9   0    3.10    1.00
   3  -9   0    4.00    0.70
   3  -9   0    4.60    1.10
   3  -9   0    2.80    0.80
   3  -9   0    5.30    1.40
  -3   9   0    6.10    1.30
  -3   9   0    5.20    1.30
   2  -9   0   43.20    2.20
   2  -9   0   44.30    1.90
   2  -9   0   44.50    1.70
   2  -9   0   48.50    3.10
   2  -9   0   42.30    2.50
  -2   9   0   42.10    2.40
  -2   9   0   45.40    3.00
   1  -9   0  121.69    4.30
   1  -9   0  115.69    3.30
  -1   9   0  115.19    3.70
  -1   9   0   82.99   15.70
   0  -9   0   33.00    2.20
   0   9   0   36.90    2.50
  -1  -9   0   28.50    1.50
  -2  -9   0    7.90    1.20
  -2  -9   0    6.30    1.30
   2   9   0    5.70    1.30
  -3  -9   0    6.00    1.30
  -3  -9   0    4.30    1.00
   3   9   0    6.80    1.30
  -4  -9   0    0.50    1.00
  -4  -9   0    0.40    1.30
   4   9   0    1.80    1.20
  -5  -9   0    0.10    1.30
  -5  -9   0    2.00    1.60
   5   9   0   -1.10    1.30
  -6  -9   0    0.60    1.70
  -6  -9   0    0.70    2.20
   6   9   0   -2.30    1.60
   4 -10   0    7.50    1.80
   4 -10   0    6.50    1.40
   4 -10   0    6.40    1.60
  -4  10   0    8.30    2.00
  -4  10   0    6.20    1.90
   3 -10   0   -0.10    1.10
   3 -10   0    0.70    0.80
   3 -10   0   -1.00    1.40
   3 -10   0   -0.20    1.60
  -3  10   0    0.40    1.50
  -3  10   0   -0.40    1.50
   2 -10   0   -1.10    0.70
   2 -10   0   -1.20    1.10
   2 -10   0    2.00    1.50
  -2  10   0    1.40    1.30
  -2  10   0    0.10    1.30
   1 -10   0   28.90    2.40
   1 -10   0   27.80    1.50
  -1  10   0   29.20    2.60
   0 -10   0   17.00    1.30
  -1 -10   0   28.70    1.70
  -1 -10   0   31.80    2.60
   1  10   0   28.00    2.40
  -2 -10   0   25.90    2.40
  -2 -10   0   21.20    1.70
   2  10   0   24.30    2.50
  -3 -10   0    2.10    1.00
  -3 -10   0    3.50    1.60
   3  10   0   -1.40    1.30
  -4 -10   0    1.00    1.30
  -4 -10   0    0.90    1.70
   4  10   0    2.70    1.50
  -5 -10   0   -3.70    1.50
  -5 -10   0    4.10    2.20
   5  10   0    0.80    1.60
   3 -11   0    0.30    1.90
   3 -11   0    1.20    1.40
  -3  11   0   -1.00    1.90
   2 -11   0    8.20    1.50
   2 -11   0    3.90    2.10
  -2  11   0    6.80    2.00
   1 -11   0    4.80    1.60
   1 -11   0    5.00    2.00
  -1  11   0    0.50    1.50
   0 -11   0   20.70    2.70
   0  11   0   26.80    3.00
  -1 -11   0   14.30    2.20
  -1 -11   0   19.30    1.80
   1  11   0   22.70    2.90
  -2 -11   0   19.70    2.80
  -2 -11   0   21.80    2.00
   2  11   0   17.60    2.70
  -3 -11   0   -0.30    1.30
  -3 -11   0    1.90    1.80
   3  11   0    2.00    1.60
  -4 -11   0   -3.60    2.10
  -4 -11   0   -0.20    1.50
   4  11   0    3.30    1.70
   1 -12   0   30.20    3.90
   1 -12   0   36.90    3.30
  -1  12   0   31.90    3.80
   0 -12   0    2.80    1.90
   0  12   0   -1.30    2.10
  -1 -12   0   12.90    2.40
   1  12   0   10.40    2.40
  -2 -12   0   -0.10    2.20
   2  12   0    1.10    1.90
   1  12  -1   -1.80    1.90
  -1 -12   1   -1.00    1.30
  -1 -12   1    1.10    2.00
   0  12  -1    4.10    2.10
   0 -12   1    1.80    1.90
  -1  12  -1    0.80    2.20
   1 -12   1    0.70    1.90
   3  11  -1    0.20    1.70
  -3 -11   1    0.50    1.80
  -3 -11   1    0.10    1.30
   2  11  -1    2.30    1.50
  -2 -11   1    0.40    1.10
  -2 -11   1   -0.80    1.70
   1  11  -1   -2.30    1.40
  -1 -11   1    1.10    1.00
  -1 -11   1    0.90    1.50
   0  11  -1    5.00    1.70
   0 -11   1    5.30    1.00
   0 -11   1    3.80    1.50
  -1  11  -1   11.30    2.00
   1 -11   1    9.60    1.10
   1 -11   1   10.40    1.90
  -2  11  -1   -0.40    1.60
   2 -11   1    1.00    1.50
   2 -11   1    1.10    0.90
   2 -11   1    1.30    1.90
  -3  11  -1    2.40    1.90
   3 -11   1   -2.60    1.70
   3 -11   1    0.30    1.50
   5  10  -1    1.50    1.60
  -5 -10   1   -1.30    1.50
  -5 -10   1   -2.00    2.00
   4  10  -1    3.70    1.70
  -4 -10   1   -1.40    1.30
  -4 -10   1    1.80    1.80
   3  10  -1    1.60    1.40
  -3 -10   1   -1.40    1.40
  -3 -10   1    1.50    1.10
   2  10  -1    6.00    1.30
  -2 -10   1    6.10    1.10
  -2 -10   1    4.50    1.40
   1  10  -1    8.60    1.40
  -1 -10   1    8.50    1.00
  -1 -10   1   10.40    1.70
   0  10  -1   -0.70    1.10
   0 -10   1   -1.40    0.70
   0 -10   1   -0.30    1.20
  -1  10  -1   -0.30    1.20
   1 -10   1   -0.90    1.20
   1 -10   1   -0.20    0.70
  -2  10  -1   31.60    2.60
   2 -10   1   27.80    1.50
   2 -10   1   31.10    2.60
   2 -10   1   29.70    3.10
  -3  10  -1    7.30    1.70
   3 -10   1    6.40    1.60
   3 -10   1   10.00    1.40
   3 -10   1   10.30    1.40
  -4  10  -1    1.40    1.70
   4 -10   1    3.80    1.30
   4 -10   1   -1.90    1.00
   4 -10   1    1.10    1.50
   5   9  -1    4.60    1.50
  -5  -9   1    2.80    1.50
  -5  -9   1    2.90    1.70
   4   9  -1    5.90    1.50
  -4  -9   1    5.80    1.40
  -4  -9   1    5.80    1.60
   3   9  -1    5.40    1.30
  -3  -9   1    4.50    1.00
  -3  -9   1    3.10    1.20
   2   9  -1    3.00    1.10
  -2  -9   1    3.00    0.80
  -2  -9   1    6.20    1.30
   1   9  -1   -0.90    0.90
  -1  -9   1   -1.10    0.90
  -1  -9   1   -0.20    0.60
   0  -9   1   43.00    3.10
   0  -9   1   37.70    1.70
  -1   9  -1   19.40    1.60
  -1   9  -1   14.90   13.90
   1  -9   1   20.10    2.00
   1  -9   1   22.10    1.30
   1  -9   1   22.50    1.40
  -2   9  -1    4.30    4.50
  -2   9  -1    1.20    1.00
  -2   9  -1    0.70    1.40
   2  -9   1    0.70    0.50
   2  -9   1    0.40    0.90
   2  -9   1   -0.60    0.60
  -3   9  -1    8.50    1.40
  -3   9  -1    7.70    1.40
   3  -9   1    8.30    1.30
   3  -9   1    7.00    1.00
   3  -9   1    9.20    1.50
   3  -9   1    7.80    1.20
   3  -9   1    8.80    1.30
  -4   9  -1    2.30    1.50
  -4   9  -1    1.00    1.40
   4  -9   1    1.40    1.30
   4  -9   1   -0.50    1.10
   4  -9   1    1.40    1.40
   4  -9   1    1.80    1.10
   4  -9   1    2.60    0.90
   5  -9   1   -0.50    1.70
   5  -9   1    0.40    1.10
   5  -9   1    2.50    1.30
   5  -9   1   -1.30    1.40
   5  -9   1    3.40    1.50
   6   8  -1   10.60    1.50
  -6  -8   1   14.90    2.20
  -6  -8   1    8.60    2.00
   5   8  -1    3.20    1.20
  -5  -8   1    0.90    1.30
  -5  -8   1    0.20    1.40
   4   8  -1    1.60    1.10
  -4  -8   1    2.70    1.20
  -4  -8   1    2.80    1.10
   3   8  -1   10.10    1.50
  -3  -8   1    9.70    1.30
  -3  -8   1   11.30    1.60
   2   8  -1    0.50    0.40
   2   8  -1    0.60    0.80
  -2  -8   1    0.10    0.80
  -2  -8   1    0.00    0.70
   1   8  -1   30.50    1.90
   1   8  -1   18.00   14.20
   1   8  -1   32.40   16.80
   1   8  -1   27.70    1.20
  -1  -8   1   32.00    1.60
  -1  -8   1   28.30    2.00
   0   8  -1   17.60    9.90
   0   8  -1   27.80    1.30
   0   8  -1   29.20    1.80
   0   8  -1   23.80   13.70
   0  -8   1   30.90    1.90
   0  -8   1   28.90    1.40
   0  -8   1   27.60    0.90
  -1   8  -1  157.98    4.80
  -1   8  -1  144.99   16.00
  -1   8  -1  143.49    4.80
   1  -8   1  154.48    4.70
   1  -8   1  149.29    3.80
   1  -8   1  152.58    4.20
   1  -8   1  150.68    4.80
  -2   8  -1    2.40    0.90
  -2   8  -1   -1.80    3.70
  -2   8  -1    0.30    0.80
  -2   8  -1    3.20    4.20
   2  -8   1    1.60    0.80
   2  -8   1    1.50    0.70
   2  -8   1    1.40    0.50
   2  -8   1    1.10    0.50
  -3   8  -1    4.90    1.10
  -3   8  -1    4.20    1.00
   3  -8   1    3.30    0.70
   3  -8   1    3.80    1.00
   3  -8   1    3.70    0.70
   3  -8   1    2.30    1.00
   3  -8   1    3.90    1.00
  -4   8  -1   -2.00    1.20
  -4   8  -1    1.90    1.20
   4  -8   1    0.40    1.10
   4  -8   1    0.60    0.90
   4  -8   1    0.00    0.70
   4  -8   1    0.00    1.10
   4  -8   1    2.20    0.90
  -5   8  -1    1.50    1.10
  -5   8  -1    0.30    0.90
   5  -8   1    2.50    1.30
   5  -8   1    0.80    1.50
   5  -8   1    0.10    0.90
  -6   8  -1    1.40    1.10
  -6   8  -1    4.10    1.70
  -6   8  -1    4.20    1.50
   6  -8   1    4.60    1.60
   6  -8   1    0.90    1.80
   6  -8   1    4.80    1.20
   7   7  -1    2.40    1.60
  -7  -7   1    5.40    2.00
  -7  -7   1    4.40    2.20
   6   7  -1    0.70    1.20
  -6  -7   1    0.20    1.60
  -6  -7   1    2.10    1.50
   5   7  -1    5.60    1.00
   5   7  -1    6.50    1.40
  -5  -7   1    5.20    1.30
  -5  -7   1    4.50    1.30
   4   7  -1    1.10    0.90
   4   7  -1   -0.80    0.60
  -4  -7   1    0.30    0.90
  -4  -7   1    0.80    1.00
   3   7  -1    2.40    0.50
   3   7  -1    2.30    0.90
   3   7  -1    0.70   18.90
  -3  -7   1    2.90    0.50
  -3  -7   1    1.50    0.80
  -3  -7   1   -4.80   14.70
  -3  -7   1    4.40    0.90
   2   7  -1   10.20    0.70
   2   7  -1   11.70    1.30
   2   7  -1  -12.20   14.50
   2   7  -1    9.90    0.60
  -2  -7   1   11.80    0.90
  -2  -7   1   13.40    1.20
  -2  -7   1   11.60    1.30
  -2  -7   1    2.40   12.90
   1   7  -1   14.50   11.90
  -1  -7   1   20.40   12.10
   0   7  -1   76.49   14.20
   0   7  -1   80.19    2.30
   0   7  -1   73.59   13.20
   0   7  -1   78.99    3.00
   0  -7   1   77.99    2.00
   0  -7   1   78.19    2.20
   0  -7   1   82.29    3.00
   0  -7   1   78.69    2.20
   0  -7   1   83.49    2.60
  -1   7  -1    5.30    0.70
  -1   7  -1    4.10    0.70
  -1   7  -1   -0.40    6.50
  -1   7  -1   11.00    8.40
   1  -7   1    5.10    0.70
   1  -7   1    4.90    0.90
   1  -7   1    4.40    0.60
   1  -7   1    5.40    0.70
   1  -7   1    4.40    0.70
  -2   7  -1  159.38    4.70
  -2   7  -1  152.38    4.40
   2  -7   1  150.68    4.10
   2  -7   1  153.28    4.80
   2  -7   1  148.59    4.50
   2  -7   1  153.08    4.20
  -3   7  -1   90.29    3.20
  -3   7  -1   88.89    3.40
  -3   7  -1   93.49    3.40
   3  -7   1   91.79    3.50
   3  -7   1   93.79    3.00
   3  -7   1   95.69    3.50
   3  -7   1   87.09    3.40
   3  -7   1   89.89    3.10
  -4   7  -1   -0.50    0.90
  -4   7  -1   -1.10    1.00
  -4   7  -1    0.30    0.60
  -4   7  -1   -1.00    0.70
  -4   7  -1   -0.50    0.70
   4  -7   1   -1.50    1.00
   4  -7   1   -0.40    0.80
   4  -7   1   -1.20    0.60
   4  -7   1   -0.20    0.80
   4  -7   1    0.30    0.80
  -5   7  -1   -1.90    0.80
  -5   7  -1   -1.80    1.00
  -5   7  -1    1.00    0.90
   5  -7   1    0.20    0.90
   5  -7   1    0.80    0.90
   5  -7   1   -0.40    1.30
   5  -7   1    0.80    1.30
  -6   7  -1    0.30    1.00
  -6   7  -1    1.50    1.30
  -6   7  -1    1.60    1.10
   6  -7   1    0.50    1.60
   6  -7   1    3.30    1.10
   6  -7   1    0.30    1.50
   6  -7   1    2.60    1.20
   6  -7   1    0.10    1.40
  -7   7  -1   -1.40    1.60
  -7   7  -1   -0.90    1.30
   7  -7   1    0.00    1.40
   7  -7   1    3.20    2.20
   7  -7   1    0.00    1.80
   7   6  -1    3.60    1.70
   7   6  -1    5.20    1.40
  -7  -6   1    2.50    1.70
  -7  -6   1    3.40    2.00
   6   6  -1    7.60    1.30
  -6  -6   1    5.40    1.00
  -6  -6   1    6.60    1.60
  -6  -6   1    6.40    1.60
   5   6  -1   11.30    1.50
   5   6  -1  -38.60   25.70
   5   6  -1   10.10    1.50
  -5  -6   1    9.80    1.40
  -5  -6   1   29.80   16.20
  -5  -6   1   12.70    1.90
  -5  -6   1   10.60    1.30
   4   6  -1   35.90    1.60
   4   6  -1   34.90    2.10
   4   6  -1   39.60   21.80
  -4  -6   1   52.49   17.30
  -4  -6   1   35.90    1.50
  -4  -6   1   33.30    2.10
  -4  -6   1   35.60    2.10
   3   6  -1   -0.10    0.40
   3   6  -1    0.90    0.70
   3   6  -1    1.00    0.40
   3   6  -1    1.10    0.60
   3   6  -1   -6.60   16.50
  -3  -6   1    1.20    0.60
  -3  -6   1    0.30    0.40
  -3  -6   1   -0.40    0.70
  -3  -6   1    0.60    0.60
  -3  -6   1   -2.30   13.00
   2   6  -1    1.30   12.10
   2   6  -1    0.00    0.30
   2   6  -1    0.10    0.30
   2   6  -1    0.10    0.50
  -2  -6   1    1.20    0.50
  -2  -6   1    0.30    0.50
  -2  -6   1    0.20    0.50
  -2  -6   1   -0.40   10.10
  -2  -6   1    0.00    0.30
   1   6  -1   28.70   10.50
   1   6  -1   25.30    1.50
   1   6  -1   22.80    0.90
   1   6  -1   22.80    0.80
  -1  -6   1   24.00    1.20
  -1  -6   1   24.10    0.90
  -1  -6   1   24.50    1.50
  -1  -6   1   23.60    0.80
  -1  -6   1    4.40    8.50
   0   6  -1   17.60    8.70
   0   6  -1   24.10    1.40
   0   6  -1   23.00    1.00
   0  -6   1   23.70    1.10
   0  -6   1   21.70    1.40
   0  -6   1   25.20    1.00
   0  -6   1   24.40    0.90
   0  -6   1   22.00    8.60
   0  -6   1   23.40    0.90
  -1   6  -1  421.56    9.60
  -1   6  -1  405.66   18.70
  -1   6  -1  441.36   20.40
  -1   6  -1  426.36   10.10
   1  -6   1  418.06   10.20
   1  -6   1  417.86    9.40
   1  -6   1  403.06    9.30
   1  -6   1  407.06    9.50
   1  -6   1  422.66    9.70
  -2   6  -1   -0.70    0.50
  -2   6  -1   -0.10    0.40
  -2   6  -1    0.00    0.60
   2  -6   1   -0.70    0.40
   2  -6   1    0.00    0.50
   2  -6   1    0.10    0.40
   2  -6   1    0.40    0.60
  -3   6  -1   13.00    1.30
  -3   6  -1   13.80    1.10
  -3   6  -1   13.80    1.10
  -3   6  -1   12.50    1.00
  -3   6  -1   10.90    1.30
   3  -6   1   14.80    1.20
   3  -6   1   11.40    1.00
   3  -6   1   10.40    1.30
   3  -6   1   12.70    1.30
   3  -6   1   13.10    1.30
  -4   6  -1   43.10    2.30
  -4   6  -1   43.20    1.90
  -4   6  -1   44.10    2.50
  -4   6  -1   44.20    2.00
  -4   6  -1   44.30    2.20
   4  -6   1   46.20    2.00
   4  -6   1   44.60    2.10
   4  -6   1   45.40    2.20
   4  -6   1   48.20    2.40
   4  -6   1   43.30    2.50
  -5   6  -1    6.00    1.10
  -5   6  -1    6.20    1.00
  -5   6  -1    6.50    1.00
   5  -6   1    9.20    1.40
   5  -6   1    7.50    0.90
   5  -6   1    7.10    0.90
   5  -6   1    5.90    1.30
   5  -6   1    5.50    1.50
  -6   6  -1    5.90    1.10
  -6   6  -1    3.80    1.30
  -6   6  -1    4.00    1.00
   6  -6   1    3.10    1.70
   6  -6   1    3.00    1.10
   6  -6   1    4.20    1.60
   6  -6   1    3.80    1.20
   6  -6   1    5.10    1.10
  -7   6  -1   -0.60    1.30
  -7   6  -1   -0.80    1.40
   7  -6   1    1.50    1.30
   7  -6   1   -1.80    2.00
   7  -6   1    0.60    1.90
   7   5  -1   -0.30    1.20
   7   5  -1    0.90    1.50
  -7  -5   1    0.70    1.60
  -7  -5   1    1.20    1.50
  -7  -5   1    3.30    1.30
   6   5  -1   15.80    1.90
   6   5  -1   14.90    1.70
   6   5  -1  -25.40   29.90
  -6  -5   1   16.60    1.90
  -6  -5   1   19.00    1.60
  -6  -5   1   11.50    1.70
   5   5  -1    2.90    0.90
   5   5  -1    5.00    0.90
  -5  -5   1    2.40    1.00
  -5  -5   1    1.50    0.70
  -5  -5   1    2.60    1.10
  -5  -5   1    1.80   13.90
   4   5  -1   24.10   18.00
   4   5  -1   19.70    1.50
   4   5  -1   21.40    1.30
  -4  -5   1   19.90    1.20
  -4  -5   1   33.00   11.10
  -4  -5   1   20.10    1.50
  -4  -5   1   20.40    1.50
   3   5  -1   62.59    2.20
   3   5  -1   68.79    2.10
   3   5  -1   66.89    2.60
   3   5  -1   65.09    1.90
   3   5  -1   41.80   15.60
  -3  -5   1   52.19   12.70
  -3  -5   1   69.69    2.60
  -3  -5   1   67.99    2.10
  -3  -5   1   62.79    2.30
  -3  -5   1   65.39    2.50
   2   5  -1    2.30    0.30
   2   5  -1    2.20    0.30
   2   5  -1    2.10    0.50
   2   5  -1    7.60    7.50
  -2  -5   1    2.30    0.50
  -2  -5   1   11.80    8.60
  -2  -5   1    2.40    0.50
  -2  -5   1    2.00    0.50
  -2  -5   1    2.10    0.40
   1   5  -1   58.39    1.50
   1   5  -1   58.29    1.60
   1   5  -1   59.69    2.20
  -1  -5   1   59.39    2.00
  -1  -5   1   61.39   11.90
  -1  -5   1   59.39    2.20
  -1  -5   1   57.79    1.50
  -1  -5   1   58.19    1.60
   0   5  -1  223.38   16.50
   0   5  -1  227.98    5.40
   0   5  -1  229.78    5.30
   0   5  -1  236.28    5.90
   0  -5   1  227.68   16.10
   0  -5   1  226.58    6.00
   0  -5   1  234.28    5.30
   0  -5   1  228.78    5.60
   0  -5   1  234.88    5.20
   0  -5   1  236.98    5.20
  -1   5  -1  349.37    8.00
  -1   5  -1  355.96   16.60
  -1   5  -1  347.87    8.30
   1  -5   1  313.07   16.20
   1  -5   1  345.67    7.80
   1  -5   1  345.97    7.90
   1  -5   1  353.66    8.50
   1  -5   1  340.07    7.90
   1  -5   1  357.26    8.10
  -2   5  -1  215.68    5.50
  -2   5  -1  219.38    5.60
  -2   5  -1  211.98    5.20
  -2   5  -1  214.98    5.50
   2  -5   1  213.48    5.70
   2  -5   1  202.78    5.30
   2  -5   1  211.18    5.70
   2  -5   1  216.18    5.40
  -3   5  -1   42.60    1.60
  -3   5  -1   42.00    1.70
  -3   5  -1   42.20    1.80
  -3   5  -1   39.10    1.90
  -3   5  -1   43.30    1.90
   3  -5   1   39.60    1.90
   3  -5   1   40.10    2.10
   3  -5   1   40.70    1.90
   3  -5   1   41.00    1.70
   3  -5   1   39.80    1.90
  -4   5  -1   14.70    1.40
  -4   5  -1   18.40    1.20
  -4   5  -1   15.90    1.20
  -4   5  -1   15.20    1.60
   4  -5   1   16.20    1.60
   4  -5   1   17.10    1.30
   4  -5   1   16.00    1.60
   4  -5   1   15.20    1.30
   4  -5   1   16.50    1.30
  -5   5  -1    5.40    1.00
  -5   5  -1    4.00    0.80
  -5   5  -1    4.60    0.80
   5  -5   1    4.60    0.80
   5  -5   1    3.80    1.20
   5  -5   1    4.60    0.80
   5  -5   1    5.50    1.20
  -6   5  -1   14.30    1.50
  -6   5  -1   13.10    1.90
   6  -5   1   17.10    1.50
   6  -5   1   11.10    1.70
   6  -5   1   18.20    2.50
   6  -5   1   16.90    2.50
  -7   5  -1   -0.50    1.30
  -7   5  -1   -1.90    1.20
   7  -5   1    0.40    1.70
   7  -5   1   -0.70    1.90
  -8  -4   1    5.80    2.00
  -8  -4   1    7.40    1.60
   7   4  -1   16.40    2.10
   7   4  -1   14.40    2.00
  -7  -4   1   18.20    2.30
  -7  -4   1   19.20    2.00
  -7  -4   1   18.60    2.60
   6   4  -1   38.90   26.20
  -6  -4   1   48.50   22.10
   5   4  -1    0.90    0.80
   5   4  -1   -9.10   13.80
   5   4  -1    0.50    0.70
  -5  -4   1   -0.10    0.60
  -5  -4   1    1.50   12.00
  -5  -4   1   -0.60    0.80
  -5  -4   1    0.80    0.70
   4   4  -1    7.00    1.00
   4   4  -1    7.20    1.00
   4   4  -1    9.10   15.10
  -4  -4   1    9.00    1.10
  -4  -4   1    7.40    0.90
  -4  -4   1   -2.50   12.70
  -4  -4   1    7.40    1.00
   3   4  -1    0.80    0.60
   3   4  -1    2.20    8.60
   3   4  -1    1.10    0.40
   3   4  -1    1.70    0.50
   3   4  -1    1.70    0.40
  -3  -4   1    1.90    0.50
  -3  -4   1    2.50    0.50
  -3  -4   1    1.70    0.50
  -3  -4   1    1.20    0.60
  -3  -4   1   -0.70    9.10
   2   4  -1   -3.10    8.60
  -2  -4   1   -4.00    7.20
   1   4  -1   93.99    2.30
   1   4  -1   83.69   17.60
   1   4  -1   92.59    2.60
   1   4  -1   96.29    2.20
   1   4  -1   96.79    2.90
  -1  -4   1   95.69    2.30
  -1  -4   1   95.59    2.60
  -1  -4   1   98.49    2.30
  -1  -4   1   83.79    3.30
  -1  -4   1  106.59   12.70
   0   4  -1   92.69    2.60
   0   4  -1  111.09   11.10
   0   4  -1   94.19    2.30
   0   4  -1   84.89    2.80
   0   4  -1   98.99    2.40
   0   4  -1   99.79    2.80
   0  -4   1   96.89    2.20
   0  -4   1   91.79    2.80
   0  -4   1   97.69    2.30
   0  -4   1   89.09    2.70
   0  -4   1  100.59    2.40
   0  -4   1   97.09    2.90
   0  -4   1   98.69   11.10
   0  -4   1   99.09    2.60
  -1   4  -1   19.60    4.20
  -1   4  -1   17.30    0.90
  -1   4  -1   18.30    1.00
  -1   4  -1   18.20    1.00
  -1   4  -1   19.00    0.90
   1  -4   1   18.10    0.90
   1  -4   1   14.70    4.20
   1  -4   1   18.30    0.90
   1  -4   1   17.80    0.90
   1  -4   1   19.20    1.00
   1  -4   1   16.70    1.00
   1  -4   1   18.70    0.80
   1  -4   1   17.30    1.10
   1  -4   1   16.20    0.90
   1  -4   1   18.80    0.90
  -2   4  -1    0.30    0.30
  -2   4  -1   -0.10    0.30
  -2   4  -1    0.30    0.40
  -2   4  -1   -0.40    0.30
   2  -4   1    0.10    0.40
   2  -4   1   -0.10    0.40
   2  -4   1   -0.40    0.40
   2  -4   1   -0.10    0.30
   2  -4   1   -0.20    0.40
   2  -4   1    0.30    0.50
   2  -4   1   -0.10    0.40
  -3   4  -1   32.60    1.70
  -3   4  -1   31.90    1.40
  -3   4  -1   34.80    1.50
  -3   4  -1   34.40    1.60
  -3   4  -1   33.20    1.50
   3  -4   1   31.90    1.70
   3  -4   1   35.00    1.50
   3  -4   1   33.50    1.80
   3  -4   1   36.20    1.60
  -4   4  -1    4.50    0.80
  -4   4  -1    3.60    0.90
  -4   4  -1    4.00    0.70
  -4   4  -1    5.00    0.70
   4  -4   1    4.30    0.90
   4  -4   1    5.70    0.90
   4  -4   1    4.10    1.00
  -5   4  -1    4.20    0.90
  -5   4  -1    5.30    0.90
  -5   4  -1    5.60    0.80
   5  -4   1    5.40    1.10
   5  -4   1   14.50    6.30
   5  -4   1   -4.50    5.00
   5  -4   1    5.30    1.20
   5  -4   1    6.80    1.00
  -6   4  -1   51.89    2.70
  -6   4  -1   48.90    2.20
  -6   4  -1   50.99    2.50
   6  -4   1   54.19    3.10
   6  -4   1   35.90    9.50
   6  -4   1   53.09    3.60
   6  -4   1   50.79    2.30
  -7   4  -1    0.10    1.20
  -7   4  -1    0.50    1.20
  -7   4  -1    1.30    1.00
   7  -4   1   -1.70    1.50
   7  -4   1    0.80    1.80
  -8   4  -1    0.80    1.60
  -8   4  -1    4.90    1.70
   8  -4   1    1.20    2.10
   8  -4   1   -1.90    2.40
   8   3  -1   15.00    2.40
  -8  -3   1   12.40    1.70
  -8  -3   1   13.40    2.20
   7   3  -1    1.60    1.40
   7   3  -1   -1.20    1.10
  -7  -3   1   -1.30    1.20
  -7  -3   1    0.90    1.10
  -7  -3   1    0.50    1.30
   6   3  -1   14.00    2.00
   6   3  -1   -8.60   23.00
   6   3  -1   13.90    1.50
  -6  -3   1   17.30    1.70
  -6  -3   1   16.70    2.90
  -6  -3   1   14.50    1.70
  -6  -3   1    8.30   20.00
   5   3  -1    5.90    1.10
   5   3  -1    5.90   16.80
   5   3  -1    6.50    0.90
  -5  -3   1    5.40    0.90
  -5  -3   1    5.10    0.90
  -5  -3   1   10.90   15.00
  -5  -3   1    5.90    1.00
   4   3  -1   10.80    1.10
   4   3  -1   10.40    1.10
  -4  -3   1   21.40   11.20
  -4  -3   1   10.30    1.00
  -4  -3   1   12.00    1.10
  -4  -3   1    9.90    1.20
   3   3  -1    2.10    0.50
   3   3  -1    3.50    9.80
   3   3  -1    1.40    0.50
   3   3  -1    1.60    0.50
   3   3  -1    1.30    0.40
  -3  -3   1   -5.60    8.20
  -3  -3   1    1.60    0.60
  -3  -3   1    2.20    0.50
  -3  -3   1    1.60    0.50
  -3  -3   1    1.50    0.50
   2   3  -1   60.29    2.10
   2   3  -1   62.59    1.80
   2   3  -1   58.79    2.00
   2   3  -1   48.70    9.80
   2   3  -1   56.79    1.90
   2   3  -1   62.49    1.90
   2   3  -1   60.29    1.70
  -2  -3   1   61.09    1.90
  -2  -3   1   57.89    2.10
  -2  -3   1   60.39    2.00
  -2  -3   1   61.69    1.80
  -2  -3   1   59.89   10.70
   1   3  -1  387.96    8.50
   1   3  -1  389.66    8.80
   1   3  -1  390.66    8.40
   1   3  -1  386.06   20.50
   1   3  -1  394.16    9.00
   1   3  -1  395.36    9.00
  -1  -3   1  394.86   21.10
  -1  -3   1  392.76    9.10
  -1  -3   1  391.46    8.80
  -1  -3   1  390.96    8.50
  -1  -3   1  394.06    8.50
  -1  -3   1  398.06    9.00
   0   3  -1   84.39    2.50
   0   3  -1   82.29    2.40
   0   3  -1   84.69    2.10
   0   3  -1   80.59    2.20
   0   3  -1   83.49    2.00
   0   3  -1   78.89    7.90
   0  -3   1   84.59    1.90
   0  -3   1   87.29    2.40
   0  -3   1   83.99    2.40
   0  -3   1   84.79    2.20
   0  -3   1   84.59    2.00
   0  -3   1   75.49    8.00
   0  -3   1   85.49    2.30
  -1   3  -1  545.95   12.30
  -1   3  -1  544.85   12.20
  -1   3  -1  556.44   12.10
  -1   3  -1  543.85   17.20
  -1   3  -1  551.24   12.30
  -1   3  -1  552.44   12.30
  -1   3  -1  551.74   12.30
   1  -3   1  567.84   12.40
   1  -3   1  558.74   12.30
   1  -3   1  556.04   12.20
   1  -3   1  563.54   17.60
   1  -3   1  552.34   12.50
   1  -3   1  549.95   12.20
   1  -3   1  567.34   12.20
   1  -3   1  569.44   12.20
   1  -3   1  557.44   12.10
   1  -3   1  552.54   12.30
  -2   3  -1   60.19    1.90
  -2   3  -1   60.59    1.90
  -2   3  -1   60.49    1.90
  -2   3  -1   60.39    1.80
  -2   3  -1   60.49    2.00
   2  -3   1   57.69    2.00
   2  -3   1   57.99    2.00
   2  -3   1   57.39    1.90
   2  -3   1   58.49    2.00
   2  -3   1   58.79    2.10
   2  -3   1   58.69    1.80
   2  -3   1   57.09    1.90
   2  -3   1   59.89    2.00
  -3   3  -1  259.47    6.60
  -3   3  -1  254.47    6.40
  -3   3  -1  251.77    6.50
  -3   3  -1  260.37    6.20
  -3   3  -1  263.87    6.20
   3  -3   1  253.47    6.00
   3  -3   1  233.18   11.60
   3  -3   1  255.07    6.70
   3  -3   1  259.37    6.20
   3  -3   1  260.27    6.60
   3  -3   1  240.68    6.40
   3  -3   1  243.28    9.70
  -4   3  -1   13.70    1.10
  -4   3  -1   11.40    1.00
  -4   3  -1   10.30    1.10
   4  -3   1   13.60    6.20
   4  -3   1   10.80    5.20
   4  -3   1   12.90    1.30
   4  -3   1   10.50    0.90
   4  -3   1   11.20    1.00
   4  -3   1   10.00    1.30
  -5   3  -1    0.30    0.60
  -5   3  -1   -0.30    0.60
  -5   3  -1   -0.30    0.50
   5  -3   1   -0.10    7.20
   5  -3   1   -0.20    0.50
   5  -3   1    1.90    0.90
   5  -3   1    1.30    0.90
  -6   3  -1   10.00    1.50
  -6   3  -1    8.60    1.10
  -6   3  -1    8.00    1.20
   6  -3   1    5.10   10.40
   6  -3   1    9.40    1.70
   6  -3   1    9.20    1.50
  -7   3  -1   29.10    2.40
  -7   3  -1   29.60    2.40
  -7   3  -1   24.60    2.00
   7  -3   1   35.20    3.20
   7  -3   1   28.80    2.80
  -8   3  -1    4.10    1.60
  -8   3  -1    2.40    1.60
   8  -3   1    1.30    1.90
   8  -3   1    8.10    2.50
   8   2  -1   -1.50    2.00
  -8  -2   1    3.20    1.80
  -8  -2   1    0.10    1.50
   7   2  -1    4.20    1.70
   7   2  -1    5.60    1.10
  -7  -2   1    5.60    1.40
  -7  -2   1    3.60    1.20
  -7  -2   1    3.20    1.20
   6   2  -1    0.70    0.70
   6   2  -1   -0.10    1.00
   6   2  -1    0.70   15.80
  -6  -2   1    1.10    0.90
  -6  -2   1    0.40    0.80
  -6  -2   1   -1.40    0.80
  -6  -2   1    4.80   18.10
   5   2  -1   16.50   12.10
   5   2  -1   13.70    1.20
   5   2  -1   15.80    1.70
  -5  -2   1   12.30    1.40
  -5  -2   1   13.70    1.20
  -5  -2   1    3.00   14.20
  -5  -2   1   14.00    1.40
   4   2  -1  136.29   20.70
   4   2  -1  115.09    3.60
   4   2  -1  115.79    3.80
  -4  -2   1  128.09   19.40
  -4  -2   1  112.59    3.50
  -4  -2   1  114.19    3.70
   3   2  -1   34.70    1.50
   3   2  -1   33.90    1.50
   3   2  -1   37.90   10.50
   3   2  -1   30.80    1.30
   3   2  -1   34.70    1.50
   3   2  -1   34.00    1.40
  -3  -2   1   35.10    1.50
  -3  -2   1   31.90    1.60
  -3  -2   1   33.60    1.60
  -3  -2   1   33.80   10.10
  -3  -2   1   33.80    1.50
  -3  -2   1   33.10    1.40
   2   2  -1   15.30    0.70
   2   2  -1   14.00    0.80
   2   2  -1   10.00    6.40
   2   2  -1   15.40    0.80
   2   2  -1   14.50    0.80
   2   2  -1   14.80    0.80
   2   2  -1   14.30    0.80
  -2  -2   1   14.10    0.80
  -2  -2   1   15.20    0.80
  -2  -2   1   13.70    0.90
  -2  -2   1   14.30    0.70
  -2  -2   1   14.70    0.80
  -2  -2   1   21.10    7.10
   1   2  -1   30.00    6.20
   1   2  -1   27.00    0.90
   1   2  -1   27.40    0.80
   1   2  -1   27.50    0.80
   1   2  -1   27.40    0.80
   1   2  -1   28.20    1.10
   1   2  -1   26.70    1.00
  -1  -2   1   27.20    1.00
  -1  -2   1   26.50    1.10
  -1  -2   1   27.60    0.90
  -1  -2   1   26.70    1.00
  -1  -2   1   26.80    0.90
  -1  -2   1   24.60    5.60
   0   2  -1  797.02   17.50
   0   2  -1  818.62   17.30
   0   2  -1  800.32   17.60
   0   2  -1  798.02   17.50
   0   2  -1  875.01   25.80
   0   2  -1  797.72   17.40
   0  -2   1  800.62   17.50
   0  -2   1  837.72   25.60
   0  -2   1  790.52   17.40
  -1   2  -1 1013.00   24.30
  -1   2  -1  935.61   20.50
  -1   2  -1  927.01   20.60
  -1   2  -1  923.81   20.60
  -1   2  -1  948.91   20.50
  -1   2  -1  968.50   20.60
  -1   2  -1  953.70   20.50
   1  -2   1  956.40   20.50
   1  -2   1  956.70   20.50
   1  -2   1  936.41   20.60
   1  -2   1  956.30   20.60
   1  -2   1  985.30   20.60
   1  -2   1  955.00   20.60
   1  -2   1  939.31   20.60
   1  -2   1  999.90   24.80
   1  -2   1  964.50   20.60
  -2   2  -1  300.37    7.00
  -2   2  -1  304.67    7.20
  -2   2  -1  301.57    7.00
  -2   2  -1  300.87    7.10
  -2   2  -1  305.17    6.90
   2  -2   1  303.77    7.10
   2  -2   1  302.37    7.20
   2  -2   1  302.77    7.10
   2  -2   1  298.77    6.90
   2  -2   1  305.97    7.30
   2  -2   1  313.47    7.20
   2  -2   1  299.27   10.60
   2  -2   1  307.37    7.10
   2  -2   1  306.37    6.80
  -3   2  -1  279.77    6.80
  -3   2  -1  288.07    6.90
  -3   2  -1  288.27    7.00
   3  -2   1  292.17   14.50
   3  -2   1  288.17    7.30
   3  -2   1  280.07    6.60
   3  -2   1  276.97    6.50
   3  -2   1  280.27   13.40
   3  -2   1  275.97    6.90
  -4   2  -1   -0.10    0.40
  -4   2  -1    0.30    0.50
  -4   2  -1    0.30    0.40
   4  -2   1    0.20    0.60
   4  -2   1    0.10    0.50
   4  -2   1   -0.30    0.40
   4  -2   1    1.90    6.60
   4  -2   1    0.40    5.20
   4  -2   1    0.30    0.40
  -5   2  -1    1.70    0.70
  -5   2  -1    0.80    0.70
  -5   2  -1    1.00    0.60
  -5   2  -1    1.80    0.60
   5  -2   1   -0.30    8.20
   5  -2   1  -11.50    9.00
   5  -2   1    1.10    0.60
   5  -2   1    1.40    0.60
   5  -2   1    1.90    0.80
  -6   2  -1    2.60    0.90
  -6   2  -1    2.30    1.10
  -6   2  -1    0.50    0.80
   6  -2   1    0.30    1.20
   6  -2   1    1.40   10.80
   6  -2   1   -0.30    1.10
   6  -2   1    0.90    0.70
  -7   2  -1    0.30    1.10
  -7   2  -1    0.00    1.00
  -7   2  -1    0.00    1.10
   7  -2   1   -1.40    1.50
   7  -2   1   -0.20    1.30
  -8   2  -1    0.80    1.50
  -8   2  -1   -1.50    1.50
   8  -2   1   -3.00    1.90
   8  -2   1   -1.30    1.70
   8   1  -1   -0.20    1.90
  -8  -1   1   -0.10    1.70
  -8  -1   1   -1.40    1.60
   7   1  -1    0.40    1.50
   7   1  -1    0.10    1.00
  -7  -1   1    0.50    1.20
  -7  -1   1    0.40    1.20
  -7  -1   1    1.00    1.00
   6   1  -1   14.30    1.90
   6   1  -1   11.30    1.30
   6   1  -1    9.50   18.60
  -6  -1   1   13.30    1.60
  -6  -1   1  -25.40   17.90
  -6  -1   1   10.60    1.40
  -6  -1   1   12.60    1.40
   5   1  -1   15.90   14.10
   5   1  -1    6.80    1.10
   5   1  -1    8.00    1.10
  -5  -1   1    5.90    0.90
  -5  -1   1    5.30    1.00
  -5  -1   1    6.60    1.00
  -5  -1   1   -3.00   13.00
   4   1  -1   19.30    1.10
   4   1  -1   19.90    1.30
   4   1  -1   22.30    1.50
   4   1  -1   15.50   10.90
  -4  -1   1   26.50   10.60
  -4  -1   1   20.30    1.10
  -4  -1   1   20.20    1.30
  -4  -1   1   20.60    1.30
   3   1  -1   69.49    2.30
   3   1  -1   75.49    2.40
   3   1  -1   74.99    2.10
   3   1  -1   75.99    2.60
   3   1  -1   69.59    2.40
   3   1  -1   65.79   11.90
  -3  -1   1   75.09    2.40
  -3  -1   1   68.79    2.60
  -3  -1   1   65.49   11.20
  -3  -1   1   76.19    2.20
  -3  -1   1   74.09    2.40
   2   1  -1   10.30    0.70
   2   1  -1   11.10    0.60
   2   1  -1   12.70    4.70
   2   1  -1   10.80    0.70
   2   1  -1   10.40    0.60
   2   1  -1   10.90    0.60
   2   1  -1   12.00    0.80
  -2  -1   1   10.10    0.70
  -2  -1   1   10.20    0.60
  -2  -1   1   10.10    0.80
  -2  -1   1   10.10    0.60
  -2  -1   1   18.50    5.10
  -2  -1   1   12.00    0.70
   1   1  -1  799.42   17.00
   1   1  -1  804.32   17.00
   1   1  -1  789.92   17.00
   1   1  -1  877.71   27.80
   1   1  -1  778.32   17.00
   1   1  -1  776.52   17.20
   1   1  -1  777.32   17.00
  -1  -1   1  779.32   17.00
  -1  -1   1  813.82   27.20
  -1  -1   1  788.22   17.00
  -1  -1   1  764.52   17.00
  -1  -1   1  793.22   17.20
   0  -1   1 1156.78   31.40
  -1   1  -1  158.68    3.80
  -1   1  -1  160.88    3.70
  -1   1  -1  155.88    3.80
  -1   1  -1  162.18    3.80
  -1   1  -1  157.78    6.70
  -1   1  -1  159.18    3.60
   1  -1   1  158.78    6.80
   1  -1   1  162.08    3.70
   1  -1   1  157.08    3.70
   1  -1   1  158.68    3.60
   1  -1   1  161.78    3.80
   1  -1   1  156.78    3.80
   1  -1   1  165.78    3.80
   1  -1   1  155.78    3.80
  -2   1  -1 1068.09   23.00
  -2   1  -1 1057.99   22.90
  -2   1  -1 1074.59   23.20
  -2   1  -1 1028.40   22.90
   2  -1   1 1074.79   22.60
   2  -1   1 1046.50   22.90
   2  -1   1 1017.70   23.10
   2  -1   1 1053.69   23.20
   2  -1   1 1060.39   23.00
   2  -1   1 1066.29   22.70
   2  -1   1 1051.89   23.00
   2  -1   1 1138.49   30.30
   2  -1   1 1075.29   23.10
  -3   1  -1  184.08    4.40
  -3   1  -1  188.08    4.70
  -3   1  -1  169.68    5.10
  -3   1  -1  205.48    6.60
   3  -1   1  179.78   12.50
   3  -1   1  186.08    4.40
   3  -1   1  189.18    4.40
   3  -1   1  187.98    4.80
   3  -1   1  173.58    4.80
   3  -1   1  184.68   13.20
  -4   1  -1   28.70    1.50
  -4   1  -1   28.90    1.50
  -4   1  -1   28.90    1.60
  -4   1  -1   29.30    1.20
   4  -1   1   29.30    1.70
   4  -1   1   26.30    7.40
   4  -1   1   27.10    1.20
   4  -1   1   33.80    8.70
   4  -1   1   28.50    1.20
  -5   1  -1   -0.70    0.60
  -5   1  -1   -0.40    0.60
  -5   1  -1    0.80    0.60
  -5   1  -1   -0.20    0.50
   5  -1   1  -15.20   10.40
   5  -1   1  -14.40    7.60
   5  -1   1    1.00    0.70
   5  -1   1    0.60    0.50
   5  -1   1    0.00    0.70
   5  -1   1    0.10    0.50
  -6   1  -1   45.20    2.30
  -6   1  -1   40.40    2.30
  -6   1  -1   40.10    2.00
   6  -1   1   39.20    2.50
   6  -1   1   46.60   11.60
   6  -1   1   38.30    1.90
   6  -1   1   39.10    2.60
  -7   1  -1    4.70    1.20
  -7   1  -1    4.10    1.10
  -7   1  -1    4.60    1.30
   7  -1   1    5.10    1.50
   7  -1   1    5.90    1.50
  -8   1  -1    2.70    1.60
  -8   1  -1    0.40    1.50
   8  -1   1    1.80    2.00
   8  -1   1    2.60    1.70
   8   0  -1    6.20    2.30
  -8   0   1   -0.60    1.60
  -8   0   1   -0.30    1.60
   7   0  -1   -0.70    1.00
   7   0  -1   -0.30    1.50
  -7   0   1    0.40    1.20
  -7   0   1    0.20    1.20
   6   0  -1    6.30    0.90
   6   0  -1    5.70    1.20
  -6   0   1    5.80    1.20
  -6   0   1    8.30    1.20
  -6   0   1    6.70    1.10
   5   0  -1    6.20    0.90
   5   0  -1    4.00    0.70
   5   0  -1    5.50    1.10
   5   0  -1   -5.50   13.90
  -5   0   1    5.10    0.90
  -5   0   1   18.20   12.50
  -5   0   1    3.70    0.60
  -5   0   1    4.90    0.80
   4   0  -1    0.30    0.60
   4   0  -1    2.60    8.60
   4   0  -1    0.70    0.40
   4   0  -1    0.40    0.50
  -4   0   1    0.30    0.40
  -4   0   1   -4.60    8.50
  -4   0   1    0.80    0.60
  -4   0   1    0.40    0.40
  -4   0   1    0.30    0.50
   3   0  -1    0.80    0.30
   3   0  -1    0.40    0.60
   3   0  -1    0.00    0.30
   3   0  -1    2.40    6.10
   3   0  -1    0.20    0.40
  -3   0   1    6.00    5.50
  -3   0   1    0.40    0.30
  -3   0   1    0.10    0.40
  -3   0   1   -0.10    0.30
  -3   0   1    0.50    0.40
   2   0  -1    5.70    0.40
   2   0  -1    5.10    0.60
   2   0  -1    4.30    0.60
   2   0  -1    4.00    0.50
   2   0  -1    4.50    0.50
   2   0  -1    4.80    0.50
   2   0  -1    8.60    4.40
  -2   0   1    4.90    0.60
  -2   0   1    4.20    0.50
  -2   0   1    4.90    0.50
  -2   0   1    5.00    0.40
  -2   0   1    4.60    0.50
  -2   0   1    5.20    4.10
   1   0  -1  137.69    8.50
   1   0  -1  135.39    3.00
   1   0  -1  141.99    3.20
   1   0  -1  139.29    3.20
   1   0  -1  135.29    3.30
   1   0  -1  139.49    3.20
  -1   0   1  134.99    3.00
  -1   0   1  137.29    3.20
  -1   0   1  137.79    3.20
  -1   0   1  139.59    3.30
  -1   0   1  138.79    3.30
  -1   0   1  128.49    8.30
   0   0  -1  211.88    4.40
   0   0  -1  224.48    8.40
   0   0  -1  179.48    4.50
   0   0   1  200.18    4.40
   1   0   1 1703.63   42.70
  -2   0  -1  663.13   14.50
  -2   0  -1  648.34   14.50
  -2   0  -1  657.03   14.10
  -2   0  -1  656.73   14.50
  -2   0  -1  655.53   14.70
   2   0   1  652.03   14.10
   2   0   1  672.13   23.30
   2   0   1  667.23   14.50
   2   0   1  662.43   14.50
   2   0   1  667.03   14.70
   2   0   1  679.33   24.20
   2   0   1  671.03   14.70
   2   0   1  658.93   14.50
  -3   0  -1 1118.29   25.10
  -3   0  -1 1141.39   24.30
  -3   0  -1 1126.69   24.80
  -3   0  -1 1163.68   24.80
  -3   0  -1 1077.19   24.90
   3   0   1 1220.78   38.60
   3   0   1 1139.59   24.30
   3   0   1 1071.69   24.80
   3   0   1 1174.28   24.80
   3   0   1 1131.79   25.00
   3   0   1 1118.79   24.80
   3   0   1 1167.28   39.80
  -4   0  -1   44.10    1.80
  -4   0  -1   43.80    1.80
  -4   0  -1   44.00    1.90
  -4   0  -1   42.30    1.50
   4   0   1   41.40   10.20
   4   0   1   42.00    2.10
   4   0   1   44.20    1.60
   4   0   1   47.00    9.60
  -5   0  -1    9.40    1.10
  -5   0  -1   10.30    1.20
  -5   0  -1   10.90    1.10
  -5   0  -1   12.30    1.20
   5   0   1   11.80    1.50
   5   0   1   10.80    0.90
   5   0   1   14.00    9.20
   5   0   1   18.70   11.90
  -6   0  -1   17.90    1.70
  -6   0  -1   17.30    1.60
  -6   0  -1   16.40    1.50
   6   0   1   23.80   11.60
   6   0   1   13.20    1.70
   6   0   1   44.50   16.40
   6   0   1   15.00    1.70
  -7   0  -1   27.50    2.10
  -7   0  -1   26.10    2.30
  -7   0  -1   28.00    2.40
   7   0   1   26.90    2.70
   7   0   1   27.40    2.60
  -8   0  -1    0.50    1.40
  -8   0  -1    2.60    1.50
   8   0   1    0.90    2.00
   8   0   1    1.60    1.80
   8  -1  -1    2.40    2.10
  -8   1   1    0.00    1.60
  -8   1   1    0.50    1.70
   7  -1  -1    3.50    1.10
   7  -1  -1    4.10    1.60
  -7   1   1    1.80    1.10
  -7   1   1    3.60    1.20
   6  -1  -1    3.50    1.30
   6  -1  -1    4.10    0.90
  -6   1   1    4.90    1.00
  -6   1   1    4.80    0.80
  -6   1   1    5.80    1.20
   5  -1  -1   18.50    1.40
   5  -1  -1   17.90    1.20
   5  -1  -1   16.50    1.60
   5  -1  -1   -2.50   10.50
  -5   1   1   18.40    1.10
  -5   1   1   17.50    1.50
  -5   1   1   18.30    1.60
  -5   1   1   18.30   12.70
  -5   1   1   17.40    1.50
   4  -1  -1   56.19   10.70
   4  -1  -1   46.20    2.00
   4  -1  -1   45.50    1.60
   4  -1  -1   51.19    2.40
  -4   1   1   42.20   10.00
  -4   1   1   45.40    2.00
  -4   1   1   45.40    2.20
  -4   1   1   47.40    2.00
  -4   1   1   45.40    1.60
   3  -1  -1    1.00    0.50
   3  -1  -1    0.40    0.40
   3  -1  -1    0.20    0.30
   3  -1  -1   -2.70    4.90
   3  -1  -1    0.40    0.40
  -3   1   1    0.40    0.40
  -3   1   1    1.20    0.50
  -3   1   1    0.60    0.30
  -3   1   1   -4.10    5.70
  -3   1   1    0.50    0.30
  -3   1   1    0.20    0.30
   2  -1  -1  296.87    7.00
   2  -1  -1  305.17    7.00
   2  -1  -1  295.57    6.90
   2  -1  -1  298.97    6.80
   2  -1  -1  301.57    6.60
   2  -1  -1  301.37   15.00
  -2   1   1  298.57    7.10
  -2   1   1  300.67   14.90
  -2   1   1  296.77    7.00
  -2   1   1  300.07    6.50
  -2   1   1  294.67    7.00
  -2   1   1  296.57    6.90
   1  -1  -1  266.77    5.90
   1  -1  -1  268.47    6.20
   1  -1  -1  270.87    6.00
   1  -1  -1  267.47    5.80
   1  -1  -1  263.77    5.80
   1  -1  -1  263.37   10.90
   1  -1  -1  279.77    6.10
  -1   1   1  262.27   11.10
  -1   1   1  269.57    5.90
  -1   1   1  260.97    6.10
  -1   1   1  265.67    5.70
  -1   1   1  280.47    6.20
  -1   1   1  266.17    6.00
   0  -1  -1 2150.78   51.29
   0   1   1 2198.08   51.39
  -1  -1  -1  731.63   15.80
  -1  -1  -1  767.62   23.60
  -1  -1  -1  737.93   15.90
  -1  -1  -1  741.13   15.90
  -1  -1  -1  707.33   15.70
   1   1   1  740.93   15.80
   1   1   1  729.63   15.70
   1   1   1  726.83   15.90
   1   1   1  763.72   23.60
   1   1   1  728.73   15.80
   1   1   1  720.13   15.70
  -2  -1  -1  232.18    5.20
  -2  -1  -1  230.78    5.50
  -2  -1  -1  232.38    5.40
  -2  -1  -1  226.28    5.60
  -2  -1  -1  226.68    5.50
   2   1   1  230.28   14.40
   2   1   1  231.88   13.70
   2   1   1  230.38    5.50
   2   1   1  238.78    5.50
   2   1   1  234.68    5.40
   2   1   1  235.38    5.60
   2   1   1  231.78    5.20
   2   1   1  224.98    5.50
  -3  -1  -1  806.22   17.60
  -3  -1  -1  801.92   17.70
  -3  -1  -1  777.92   17.90
  -3  -1  -1  817.92   17.30
   3   1   1  783.02   17.60
   3   1   1  764.92   17.70
   3   1   1  783.02   31.90
   3   1   1  791.22   33.10
   3   1   1  812.82   17.70
   3   1   1  825.02   17.90
   3   1   1  796.52   17.20
  -4  -1  -1    0.30    0.40
  -4  -1  -1   -0.10    0.40
  -4  -1  -1   -0.70    0.40
  -4  -1  -1   -0.50    0.40
   4   1   1   -0.50    0.50
   4   1   1   -5.00    8.60
   4   1   1    0.40    0.40
  -5  -1  -1   22.00    1.50
  -5  -1  -1   22.70    1.50
  -5  -1  -1   22.20    1.40
  -5  -1  -1   21.80    1.50
   5   1   1    6.70   12.50
   5   1   1   33.70    9.40
   5   1   1   21.80    1.70
   5   1   1   22.50    1.20
  -6  -1  -1    1.10    0.80
  -6  -1  -1    2.60    0.90
  -6  -1  -1    2.90    0.80
   6   1   1    1.00    1.00
   6   1   1    3.20    1.10
   6   1   1    2.10    0.60
   6   1   1   11.40   17.00
  -7  -1  -1    3.60    1.20
  -7  -1  -1    4.80    1.20
  -7  -1  -1    0.70    1.10
   7   1   1    1.90    1.50
   7   1   1    3.40    1.40
  -8  -1  -1    0.20    1.50
  -8  -1  -1   -1.90    1.50
  -8  -1  -1   -0.10    1.50
   8   1   1    1.80    1.90
   8   1   1   -0.80    1.80
   8  -2  -1    4.80    2.30
  -8   2   1   -2.10    1.60
  -8   2   1    0.70    1.60
   7  -2  -1    2.20    1.10
   7  -2  -1   -0.40    1.50
  -7   2   1    3.60    1.40
  -7   2   1    2.40    1.20
   6  -2  -1   -0.10    1.10
   6  -2  -1    0.10    0.80
  -6   2   1    0.60    0.80
  -6   2   1   -0.10    0.60
  -6   2   1   -0.40    0.90
   5  -2  -1   28.20   11.60
   5  -2  -1   23.80    1.50
   5  -2  -1   25.30    2.10
   5  -2  -1   19.30    1.30
  -5   2   1   19.30    1.80
  -5   2   1   22.80    1.60
  -5   2   1   20.40    1.10
  -5   2   1   24.80    1.70
  -5   2   1   19.30   11.10
   4  -2  -1   25.80    1.80
   4  -2  -1   26.60    8.40
   4  -2  -1   25.70    1.50
   4  -2  -1   24.50    1.20
  -4   2   1   25.30    1.10
  -4   2   1   24.10    1.50
  -4   2   1   24.60    1.40
  -4   2   1   23.90    1.60
  -4   2   1   22.20    8.00
   3  -2  -1    5.40    0.70
   3  -2  -1    4.80    0.60
   3  -2  -1    5.00    0.80
   3  -2  -1    4.60    0.70
   3  -2  -1    5.90    0.80
  -3   2   1    5.50    0.80
  -3   2   1    6.90    5.10
  -3   2   1    4.70    0.70
  -3   2   1    4.40    0.70
  -3   2   1    5.10    0.50
  -3   2   1    5.40    0.60
   2  -2  -1    0.20    0.30
   2  -2  -1    0.20    0.20
   2  -2  -1    0.30    0.20
   2  -2  -1    0.60    0.30
   2  -2  -1   -0.40    3.20
   2  -2  -1    0.50    0.30
   2  -2  -1    0.40    0.30
   2  -2  -1    0.40    0.30
  -2   2   1   -1.00    3.00
  -2   2   1    0.00    0.10
  -2   2   1   -0.20    0.20
  -2   2   1    0.40    0.40
  -2   2   1    0.10    0.30
  -2   2   1    0.20    0.20
   1  -2  -1  890.61   23.70
   1  -2  -1  835.12   18.50
   1  -2  -1  842.92   18.30
   1  -2  -1  860.01   18.40
   1  -2  -1  846.02   18.10
   1  -2  -1  842.62   18.30
   1  -2  -1  843.62   18.20
   1  -2  -1  853.11   18.10
  -1   2   1  858.91   18.50
  -1   2   1  855.21   18.20
  -1   2   1  824.52   18.10
  -1   2   1  851.81   18.50
  -1   2   1  844.82   18.40
  -1   2   1  848.62   18.30
   0  -2  -1  933.91   26.10
   0  -2  -1  877.41   19.10
   0  -2  -1  874.21   19.00
   0   2   1  882.51   19.10
   0   2   1  868.91   19.10
   0   2   1  930.31   26.00
   0   2   1  863.31   19.00
  -1  -2  -1 2728.33   70.19
   1   2   1 2798.82   70.09
  -2  -2  -1 1646.44   35.80
  -2  -2  -1 1686.83   35.70
  -2  -2  -1 1664.43   35.50
  -2  -2  -1 1666.03   35.40
  -2  -2  -1 1673.73   35.80
   2   2   1 1658.23   35.50
   2   2   1 1654.13   35.70
   2   2   1 1691.93   35.70
   2   2   1 1702.43   52.49
   2   2   1 1695.33   35.40
   2   2   1 1664.53   35.60
   2   2   1 1558.74   49.80
  -3  -2  -1  845.82   18.60
  -3  -2  -1  818.12   18.20
  -3  -2  -1  831.32   18.50
  -3  -2  -1  835.52   18.20
   3   2   1  806.22   18.40
   3   2   1  839.72   18.60
   3   2   1  835.12   18.30
   3   2   1  858.71   35.10
   3   2   1  828.92   18.10
   3   2   1  814.22   36.10
  -4  -2  -1    4.30    0.70
  -4  -2  -1    2.70    0.60
  -4  -2  -1    2.20    0.60
  -4  -2  -1    1.60    0.60
   4   2   1    9.00   11.90
   4   2   1    9.10    8.00
   4   2   1    3.00    0.70
   4   2   1    2.70    0.50
  -5  -2  -1   -0.30    0.60
  -5  -2  -1    0.00    0.60
  -5  -2  -1   -0.30    0.80
  -5  -2  -1    0.30    0.60
   5   2   1    0.60    0.70
   5   2   1  -10.60   10.00
   5   2   1   -0.40    7.90
   5   2   1   -0.40    0.50
   6   2   1   34.20   19.60
  -7  -2  -1   22.40    2.10
  -7  -2  -1   24.00    2.30
  -7  -2  -1   23.20    2.30
   7   2   1   22.00    2.60
   7   2   1   20.70    2.40
  -8  -2  -1   -3.60    1.50
  -8  -2  -1    0.70    1.30
  -8  -2  -1    0.50    1.80
   8   2   1    0.00    1.70
   8   2   1    0.00    1.90
   8  -3  -1    1.00    2.40
   8  -3  -1    3.70    2.30
  -8   3   1    1.30    1.60
  -8   3   1    3.10    1.80
   7  -3  -1   -0.40    1.60
   7  -3  -1    2.60    1.20
  -7   3   1    0.50    1.20
  -7   3   1    3.20    1.30
   6  -3  -1   11.00    1.90
   6  -3  -1   10.60    1.60
  -6   3   1   11.80    1.80
  -6   3   1   11.30    1.70
  -6   3   1   16.60    1.60
  -6   3   1   11.30    1.10
   5  -3  -1    0.60    1.00
   5  -3  -1   -0.40    0.70
   5  -3  -1    1.10   10.30
   5  -3  -1   -0.50    0.70
  -5   3   1   -0.10    0.60
  -5   3   1    0.20    0.70
  -5   3   1    0.50    0.50
  -5   3   1   -1.30    9.70
  -5   3   1   -1.10    0.80
   4  -3  -1   10.70    0.90
   4  -3  -1   12.20    1.50
   4  -3  -1   11.50    7.50
   4  -3  -1   11.30    1.20
  -4   3   1    7.60    6.60
  -4   3   1   11.50    1.00
  -4   3   1   11.10    0.80
  -4   3   1   13.00    1.40
  -4   3   1   11.00    1.10
   3  -3  -1    1.10    0.40
   3  -3  -1   -3.30    4.30
   3  -3  -1    1.70    0.40
   3  -3  -1    1.30    0.50
   3  -3  -1    1.50    0.60
   3  -3  -1    1.20    0.50
  -3   3   1    1.40    0.40
  -3   3   1    1.20    0.30
  -3   3   1    2.00    0.50
  -3   3   1    2.20    0.60
  -3   3   1    1.90    4.40
   2  -3  -1   32.20    1.20
   2  -3  -1   31.60    1.40
   2  -3  -1   30.30    4.80
   2  -3  -1   29.30    1.30
   2  -3  -1   30.20    1.30
   2  -3  -1   33.10    1.20
   2  -3  -1   32.30    1.20
   2  -3  -1   31.00    1.30
  -2   3   1   30.80    1.10
  -2   3   1   31.10    1.30
  -2   3   1   31.80    1.10
  -2   3   1   32.20    1.40
  -2   3   1   31.70    5.20
  -2   3   1   32.30    1.40
   1  -3  -1  577.04   12.80
   1  -3  -1  590.34   18.40
   1  -3  -1  582.44   12.60
   1  -3  -1  583.04   13.20
   1  -3  -1  586.44   12.80
   1  -3  -1  585.74   13.00
   1  -3  -1  595.44   12.80
   1  -3  -1  590.54   12.60
   1  -3  -1  583.94   12.80
  -1   3   1  583.44   13.00
  -1   3   1  581.34   12.80
  -1   3   1  581.34   13.10
  -1   3   1  585.44   12.90
  -1   3   1  575.44   18.60
  -1   3   1  586.14   12.60
   0  -3  -1  172.18    3.90
   0  -3  -1  173.48    3.80
   0  -3  -1  174.18   10.30
   0  -3  -1  173.88    4.20
   0  -3  -1  174.18    4.10
   0  -3  -1  174.18    4.30
   0   3   1  174.98   10.00
   0   3   1  175.08    4.10
   0   3   1  174.98    3.90
   0   3   1  173.38    4.20
   0   3   1  171.38    4.30
   0   3   1  173.38    3.90
  -1  -3  -1  821.52   17.50
  -1  -3  -1  792.52   17.60
  -1  -3  -1  811.02   17.40
  -1  -3  -1  788.12   17.30
   1   3   1  782.62   30.00
   1   3   1  812.32   29.10
   1   3   1  789.02   17.50
   1   3   1  824.92   17.60
   1   3   1  811.82   17.20
   1   3   1  790.22   17.30
  -2  -3  -1   34.10    1.30
  -2  -3  -1   35.30    1.40
  -2  -3  -1   35.50    1.10
  -2  -3  -1   34.80    1.30
  -2  -3  -1   33.20    1.40
   2   3   1   32.70    7.10
   2   3   1   34.90    1.30
   2   3   1   32.40    1.40
   2   3   1   35.90    1.30
   2   3   1   42.90    8.40
   2   3   1   34.00    1.10
   2   3   1   34.70    1.10
   2   3   1   33.70    1.20
  -3  -3  -1  541.35   12.30
  -3  -3  -1  533.15   12.40
  -3  -3  -1  531.75   13.10
  -3  -3  -1  542.25   12.70
  -3  -3  -1  548.55   12.60
   3   3   1  543.05   12.30
   3   3   1  610.34   30.70
   3   3   1  552.34   12.30
   3   3   1  581.04   31.60
  -4  -3  -1  214.58    5.40
  -4  -3  -1  211.98    5.80
  -4  -3  -1  211.38    5.80
  -4  -3  -1  189.38    5.40
   4   3   1  218.78    5.80
   4   3   1  211.08   24.40
   4   3   1  214.88    5.40
   4   3   1  221.48   19.70
  -5  -3  -1   -0.20    0.70
  -5  -3  -1    1.40    0.70
  -5  -3  -1    2.00    0.60
   5   3   1    0.00    9.00
   5   3   1   -2.50   15.40
   5   3   1    1.30    0.50
   5   3   1    0.00    0.70
  -6  -3  -1    3.50    0.80
  -6  -3  -1    2.10    1.00
  -6  -3  -1    2.60    1.00
   6   3   1    2.00    1.00
   6   3   1    2.30    0.60
   6   3   1    8.60   21.00
   6   3   1    1.20    1.00
  -7  -3  -1    0.20    1.20
  -7  -3  -1   -0.20    1.20
   7   3   1   -0.80    1.30
  -8  -3  -1   -1.70    1.70
  -8  -3  -1    2.30    1.30
  -8  -3  -1    0.40    1.70
   8   3   1   -3.80    1.80
   8   3   1   -1.60    1.80
   8  -4  -1    0.20    2.60
   8  -4  -1   -2.10    2.40
  -8   4   1    4.30    1.80
  -8   4   1    1.20    1.60
   7  -4  -1   21.60    2.40
   7  -4  -1   23.40    3.40
  -7   4   1   17.70    2.20
  -7   4   1   26.00    2.60
   6  -4  -1   11.30    2.00
   6  -4  -1    3.10   10.30
   6  -4  -1   13.00    1.70
  -6   4   1    9.10    1.20
  -6   4   1   13.20    2.00
  -6   4   1   10.30    1.30
  -6   4   1   12.10    1.80
   5  -4  -1   24.50    8.30
   5  -4  -1   28.80    8.80
   5  -4  -1   26.80    2.20
   5  -4  -1   27.10    1.30
   5  -4  -1   24.10    1.80
  -5   4   1   25.20    2.10
  -5   4   1   31.00    1.90
  -5   4   1   26.90    1.60
  -5   4   1   26.90    1.30
   4  -4  -1   20.30    6.30
   4  -4  -1   28.90    1.60
   4  -4  -1   33.70    1.90
   4  -4  -1   32.60    1.50
   4  -4  -1   31.70    2.20
  -4   4   1   32.80    1.30
  -4   4   1   33.50    1.50
  -4   4   1   34.00    2.00
  -4   4   1   32.00    1.80
   3  -4  -1   -0.70    3.00
   3  -4  -1    4.20    0.60
   3  -4  -1    3.30    0.70
   3  -4  -1    4.30    0.70
  -3   4   1    3.60    0.50
  -3   4   1    3.60    0.70
  -3   4   1   -0.80    3.70
  -3   4   1    4.10    0.70
   2  -4  -1   59.59    2.00
   2  -4  -1   63.79    2.30
   2  -4  -1   60.59    1.80
   2  -4  -1   62.79    2.00
   2  -4  -1   61.49    2.00
   2  -4  -1   56.19    5.50
   2  -4  -1   59.39    1.90
  -2   4   1   62.89    2.20
  -2   4   1   60.39    2.00
  -2   4   1   63.19    1.80
  -2   4   1   62.59    2.30
  -2   4   1   55.29    5.70
   1  -4  -1   36.20    1.10
   1  -4  -1   36.70    1.40
   1  -4  -1   37.20    1.20
   1  -4  -1   37.10    5.80
   1  -4  -1   33.30    1.30
   1  -4  -1   37.50    1.30
   1  -4  -1   36.70    1.20
  -1   4   1   35.70    1.40
  -1   4   1   36.10    1.40
  -1   4   1   32.30    5.20
  -1   4   1   36.40    1.20
   0  -4  -1 2863.31   63.69
   0   4   1 2895.21   63.69
   0   4   1 3166.98   76.49
   0   4   1 3087.09   77.89
   0   4   1 2984.00   63.79
  -1  -4  -1  421.16    9.60
  -1  -4  -1  432.46   10.20
  -1  -4  -1  444.26    9.70
  -1  -4  -1  425.86    9.90
   1   4   1  422.26   21.20
   1   4   1  417.56   10.00
   1   4   1  435.16    9.50
   1   4   1  440.66    9.90
   1   4   1  441.86    9.60
  -2  -4  -1    2.10    0.50
  -2  -4  -1    3.60    0.30
  -2  -4  -1    3.50    0.60
  -2  -4  -1    3.00    0.60
  -2  -4  -1    3.80    0.50
   2   4   1    3.00    4.70
   2   4   1    3.30    0.50
   2   4   1    2.80    0.50
   2   4   1    2.70    0.40
   2   4   1    2.90    0.40
   2   4   1    3.30    0.30
   2   4   1   11.50    8.30
  -3  -4  -1   17.70    1.20
  -3  -4  -1   17.50    0.90
  -3  -4  -1   15.60    1.10
   3   4   1   18.10    1.00
   3   4   1   17.60    1.00
   3   4   1    6.80    8.70
   3   4   1   -1.50    8.70
   3   4   1   16.40    1.00
   3   4   1   16.90    0.90
  -4  -4  -1   12.00    1.20
  -4  -4  -1   12.70    0.90
  -4  -4  -1   12.70    1.30
   4   4   1   15.30    1.10
   4   4   1   13.00    1.20
   4   4   1   -6.80   10.70
   4   4   1   11.60    0.90
   4   4   1   14.10   13.70
  -5  -4  -1    0.40    0.60
  -5  -4  -1    0.50    0.70
  -5  -4  -1    1.20    0.80
   5   4   1    0.30    0.70
   5   4   1    0.90    0.50
   5   4   1   16.60   14.20
   5   4   1  -24.70   17.80
   5   4   1    0.50    0.70
  -6  -4  -1    2.40    1.00
  -6  -4  -1    1.70    0.80
   6   4   1  -16.90   22.90
   6   4   1    0.30    1.00
   6   4   1    1.00    1.00
  -7  -4  -1   11.30    1.60
  -7  -4  -1    9.60    1.70
   7   4   1   11.10    1.80
   7   4   1   14.00    1.80
  -8  -4  -1    9.20    2.10
  -8  -4  -1    6.50    2.10
   8   4   1    4.70    1.90
   8   4   1    4.20    2.10
   7  -5  -1    0.50    1.90
   7  -5  -1   -2.20    1.90
  -7   5   1    1.30    1.30
  -7   5   1   -1.80    1.50
   6  -5  -1   15.90    2.30
   6  -5  -1   19.40    1.90
  -6   5   1   13.50    2.00
  -6   5   1   14.90    1.60
  -6   5   1   17.90    2.10
   5  -5  -1   25.70    1.40
   5  -5  -1   27.90    2.70
   5  -5  -1   30.20    1.90
  -5   5   1   25.80    2.00
  -5   5   1   26.70    1.30
  -5   5   1   28.40    1.60
  -5   5   1   28.70    2.50
   4  -5  -1   15.40    1.10
   4  -5  -1   16.10    1.80
   4  -5  -1   13.60    1.50
  -4   5   1   15.10    1.70
  -4   5   1   14.40    1.00
  -4   5   1   15.60    1.00
  -4   5   1   16.60    1.40
   3  -5  -1    2.30    0.50
   3  -5  -1    2.50    0.70
   3  -5  -1    1.80    0.50
  -3   5   1    1.60    0.70
  -3   5   1    2.90    0.60
  -3   5   1    1.80    0.40
   2  -5  -1   76.19    2.40
   2  -5  -1   77.49    2.50
   2  -5  -1   82.09    2.30
   2  -5  -1   76.29    2.30
   2  -5  -1   80.79    2.90
  -2   5   1   79.99    2.80
  -2   5   1   62.99    6.00
  -2   5   1   81.19    2.70
  -2   5   1   58.49    6.20
  -2   5   1   79.29    2.50
  -2   5   1   80.49    2.20
   1  -5  -1    3.30    0.40
   1  -5  -1    3.60    0.60
   1  -5  -1    2.70    0.50
   1  -5  -1    3.50    0.40
   1  -5  -1    3.30    0.40
   1  -5  -1    2.70    0.60
  -1   5   1   -0.50    4.00
  -1   5   1    3.10    0.60
  -1   5   1    3.40    0.40
  -1   5   1    3.70    0.60
  -1   5   1    3.60    4.90
   0  -5  -1   28.20    0.80
   0  -5  -1   28.10    1.40
   0  -5  -1   27.00    1.10
   0  -5  -1   29.00    1.00
   0   5   1   32.30    7.20
   0   5   1   28.30    1.10
   0   5   1   26.80    1.40
   0   5   1   33.00    1.20
  -1  -5  -1  882.01   19.90
  -1  -5  -1  883.81   19.40
  -1  -5  -1  876.51   19.40
   1   5   1  891.01   19.30
   1   5   1  884.91   19.80
   1   5   1  900.21   19.30
   1   5   1  945.01   41.40
  -2  -5  -1  179.78    4.80
  -2  -5  -1  187.58    5.20
  -2  -5  -1  184.58    4.80
   2   5   1  206.68   18.40
   2   5   1  186.38    4.60
   2   5   1  187.58    5.00
   2   5   1  181.98   19.20
  -3  -5  -1   88.59    3.20
  -3  -5  -1   88.89    3.00
  -3  -5  -1   91.99    2.40
   3   5   1  113.79   16.80
   3   5   1   89.99    2.40
   3   5   1   90.69    2.90
   3   5   1   96.99   18.80
   3   5   1   90.49    2.70
   3   5   1   89.19    2.50
  -4  -5  -1   41.80    2.10
  -4  -5  -1   41.00    2.10
  -4  -5  -1   42.20    1.60
   4   5   1   26.60   17.30
   4   5   1   41.70    1.80
   4   5   1   36.80    1.60
   4   5   1   29.30   12.90
   4   5   1   41.50    1.90
   4   5   1   42.30    1.80
  -5  -5  -1   -1.10    0.80
  -5  -5  -1    1.40    0.90
  -5  -5  -1    0.60    0.60
   5   5   1  -21.00   20.00
   5   5   1    1.40    0.70
   5   5   1    0.90    0.70
   5   5   1    0.10    0.60
   6   5   1   19.70   28.00
  -7  -5  -1    3.00    1.60
  -7  -5  -1   -0.30    1.50
  -7  -5  -1    1.00    1.20
   7   5   1   -0.70    1.50
   7   5   1    0.50    1.30
  -8  -5  -1    4.70    2.20
  -8  -5  -1    2.20    2.10
   8   5   1    1.60    2.00
   8   5   1   -0.40    3.00
   7  -6  -1    3.40    2.40
   7  -6  -1   -3.20    2.00
  -7   6   1    0.10    1.60
  -7   6   1    1.20    1.30
   6  -6  -1   -0.40    1.30
   6  -6  -1    1.20    1.90
   6  -6  -1    2.30    1.50
  -6   6   1    1.40    1.70
  -6   6   1    0.10    0.90
  -6   6   1    0.90    1.20
   5  -6  -1   21.90    2.20
   5  -6  -1   21.00    1.80
   5  -6  -1   16.30    1.40
   5  -6  -1   20.50    1.40
  -5   6   1   17.40    1.50
  -5   6   1   17.10    1.90
   4  -6  -1   24.20    2.20
   4  -6  -1   27.70    2.00
   4  -6  -1   26.90    1.40
   4  -6  -1   27.00    1.40
  -4   6   1   28.20    2.10
  -4   6   1   27.80    1.80
  -4   6   1   27.80    1.40
   3  -6  -1    4.30    0.60
   3  -6  -1    5.30    0.80
   3  -6  -1    5.50    1.00
  -3   6   1    3.10    0.50
  -3   6   1    4.10    0.90
  -3   6   1    3.80    0.90
  -3   6   1    5.80    0.80
   2  -6  -1   18.90    1.20
   2  -6  -1   19.20    1.50
   2  -6  -1   17.50    1.20
   2  -6  -1   21.20    1.10
   2  -6  -1   18.50    1.20
  -2   6   1   22.50    1.40
  -2   6   1   19.80    1.40
  -2   6   1   20.90    4.80
  -2   6   1   22.10    1.20
  -2   6   1   11.00    4.30
   1  -6  -1   37.40    1.40
   1  -6  -1   38.30    1.90
   1  -6  -1   34.60    1.40
   1  -6  -1   38.30    1.30
   1  -6  -1   38.40    1.70
   1  -6  -1   39.20    1.30
  -1   6   1   35.10    8.10
  -1   6   1   42.00    1.70
  -1   6   1   38.10    1.30
  -1   6   1   24.00    6.40
  -1   6   1   38.20    1.80
   0  -6  -1  183.68    5.00
   0  -6  -1  171.98    4.50
   0  -6  -1  186.58    4.50
   0   6   1  173.38   14.90
   0   6   1  180.38   15.80
   0   6   1  187.88    4.60
   0   6   1  180.68    4.50
   0   6   1  186.58    5.10
  -1  -6  -1   -0.50    0.40
  -1  -6  -1    0.60    0.50
   1   6   1   -0.10    0.30
   1   6   1   -4.20    7.70
   1   6   1    3.00    9.20
   1   6   1    0.70    0.40
   1   6   1    0.10    0.40
  -2  -6  -1    1.30    0.70
  -2  -6  -1    1.20    0.60
  -2  -6  -1   -0.20    0.40
   2   6   1    8.50   10.50
   2   6   1    1.30    0.50
   2   6   1  -12.80    7.90
  -3  -6  -1   82.69    2.90
  -3  -6  -1   84.79    3.20
   3   6   1   84.89    2.60
   3   6   1   83.79    2.90
   3   6   1   72.29   15.80
   3   6   1   80.99    2.10
   3   6   1   76.79    2.00
  -4  -6  -1   50.99    2.50
  -4  -6  -1   52.59    1.70
  -4  -6  -1   53.39    2.50
   4   6   1   50.89    2.20
   4   6   1   54.69    2.10
   4   6   1   42.30   15.30
   4   6   1   54.69    2.40
   4   6   1   21.90   19.60
   4   6   1   48.20    1.90
  -5  -6  -1    0.50    1.10
  -5  -6  -1    0.90    1.00
  -5  -6  -1   -0.40    0.60
   5   6   1   -6.10   24.50
   5   6   1   -0.10    0.80
   5   6   1   -0.50    0.80
   5   6   1    1.00    0.70
   5   6   1  -16.00   14.10
  -6  -6  -1    1.50    1.30
  -6  -6  -1   -0.70    0.80
  -6  -6  -1   -1.80    1.20
   6   6   1    0.30    1.10
   6   6   1    0.00    1.00
   6   6   1   -0.20    0.80
  -7  -6  -1    3.40    1.70
  -7  -6  -1    0.30    1.60
   7   6   1    1.30    1.30
   6  -7  -1    0.00    1.50
   6  -7  -1   -0.60    1.50
   6  -7  -1    1.90    1.20
   6  -7  -1    1.10    2.00
  -6   7   1    0.60    1.90
  -6   7   1   -1.40    1.30
   5  -7  -1    4.40    1.40
   5  -7  -1    6.40    0.80
   5  -7  -1    6.20    0.90
   5  -7  -1    2.70    1.60
  -5   7   1    5.20    0.90
  -5   7   1    7.20    1.70
   4  -7  -1   66.59    3.30
   4  -7  -1   62.89    2.20
   4  -7  -1   63.69    2.80
   4  -7  -1   60.19    2.30
   4  -7  -1   59.19    3.00
  -4   7   1   62.29    3.10
  -4   7   1   62.49    2.70
  -4   7   1   61.79    2.20
   3  -7  -1    2.40    0.50
   3  -7  -1    1.50    1.00
   3  -7  -1    2.80    0.80
   3  -7  -1    3.80    0.70
  -3   7   1    3.50    1.00
  -3   7   1    3.00    1.00
  -3   7   1    2.90    0.70
   2  -7  -1   11.90    1.00
   2  -7  -1   12.40    1.50
   2  -7  -1   13.40    0.80
   2  -7  -1   11.70    1.10
  -2   7   1    3.20    5.00
  -2   7   1    4.40    5.10
  -2   7   1   13.60    1.30
  -2   7   1   12.60    1.50
  -2   7   1   11.20    1.00
   1  -7  -1    9.80    1.10
   1  -7  -1    7.80    0.70
   1  -7  -1    6.40    0.70
   1  -7  -1    9.40    1.30
   1  -7  -1    7.40    0.60
  -1   7   1   -0.50    6.60
  -1   7   1    8.20    8.20
  -1   7   1    9.10    1.00
  -1   7   1    7.80    0.70
  -1   7   1    7.70    1.10
   0  -7  -1  314.07    8.10
   0  -7  -1  314.37    7.30
   0   7   1  309.07    7.50
   0   7   1  335.47   24.80
   0   7   1  317.27    8.10
   0   7   1  299.17   21.50
  -1  -7  -1  215.48    5.40
  -1  -7  -1  212.48    6.00
   1   7   1  194.38   22.20
   1   7   1  220.68    5.30
   1   7   1  213.58    6.00
   1   7   1  201.48   21.70
  -2  -7  -1  119.89    3.50
  -2  -7  -1  118.19    4.00
   2   7   1  119.99    3.90
   2   7   1  124.29    3.30
   2   7   1   95.69   18.80
   2   7   1   94.29   18.10
  -3  -7  -1   12.80    1.50
  -3  -7  -1   10.80    1.30
   3   7   1    7.40   17.70
   3   7   1   14.10    1.40
   3   7   1   12.40    1.00
   3   7   1   11.60   14.00
  -4  -7  -1    5.50    1.30
  -4  -7  -1    6.30    1.10
   4   7   1   27.60   16.90
   4   7   1   -0.20   23.70
   4   7   1    6.20    1.10
   4   7   1    4.90    0.80
  -5  -7  -1    2.80    1.20
   5   7   1  -20.60   23.00
   5   7   1   -0.40    0.80
   5   7   1    0.60    0.80
  -6  -7  -1   -1.20    1.40
  -6  -7  -1    1.00    1.50
   6   7   1    2.40    1.00
   6   7   1    0.70    1.20
  -7  -7  -1    6.60    2.00
  -7  -7  -1    7.40    2.10
   7   7   1    4.90    1.50
   6  -8  -1    0.30    2.00
   6  -8  -1    1.30    1.80
   6  -8  -1    1.10    1.70
  -6   8   1   -4.30    2.10
  -6   8   1   -2.30    1.50
   5  -8  -1    3.30    0.90
   5  -8  -1    2.70    1.40
   5  -8  -1    3.20    1.40
   5  -8  -1    0.30    1.70
  -5   8   1    4.10    1.80
  -5   8   1    3.60    1.30
  -5   8   1    3.00    0.90
   4  -8  -1   -0.80    0.80
   4  -8  -1   -0.60    1.30
   4  -8  -1   -0.10    1.00
   4  -8  -1    1.30    0.70
   4  -8  -1    0.70    1.20
  -4   8   1    0.90    1.30
  -4   8   1    0.40    0.90
   3  -8  -1   24.20    1.20
   3  -8  -1   26.60    1.60
   3  -8  -1   23.80    1.60
   3  -8  -1   21.90    2.20
  -3   8   1   25.60    2.10
  -3   8   1   26.70    1.60
  -3   8   1   24.20    2.30
   2  -8  -1    1.30    0.60
   2  -8  -1    1.00    0.40
   2  -8  -1    1.50    0.70
   2  -8  -1    1.30    1.00
  -2   8   1    2.70    0.90
  -2   8   1    0.60    0.90
  -2   8   1    2.10    0.60
  -2   8   1   -1.60    6.00
  -2   8   1    0.60    6.60
   1  -8  -1    1.90    0.90
   1  -8  -1    2.80    0.40
   1  -8  -1    2.60    0.50
   1  -8  -1    2.70    0.90
  -1   8   1    6.60    8.70
  -1   8   1    2.40    0.90
  -1   8   1    3.00    0.80
   0  -8  -1    7.10    1.10
   0  -8  -1    4.10    0.50
   0   8   1   10.30   12.60
   0   8   1    6.00    0.80
   0   8   1   10.40   10.10
   0   8   1    4.60    1.10
  -1  -8  -1    0.10    0.70
   1   8   1    1.70    0.60
   1   8   1   -1.50   14.20
   1   8   1   -0.40    0.70
   1   8   1   -1.40   11.70
  -2  -8  -1   -0.30    0.60
  -2  -8  -1   -0.60    0.70
   2   8   1  -24.20   14.30
   2   8   1   -0.10    0.70
   2   8   1    0.70    0.50
  -3  -8  -1    7.20    1.00
  -3  -8  -1    6.00    1.10
   3   8   1    6.90    0.80
   3   8   1    7.40    1.10
   3   8   1   12.80   17.50
  -4  -8  -1   23.50    1.90
  -4  -8  -1   24.60    2.30
   4   8   1   23.00    1.60
   4   8   1   28.00   20.90
   4   8   1   24.00    2.00
  -5  -8  -1   -1.20    1.40
  -5  -8  -1    1.70    1.20
   5   8   1   -0.70    1.00
   5   8   1    1.00    0.90
  -6  -8  -1    0.90    1.70
  -6  -8  -1    4.10    1.60
   6   8   1    2.00    1.20
   5  -9  -1    2.50    1.60
   5  -9  -1   -1.10    1.90
   5  -9  -1    1.10    1.70
  -5   9   1    1.30    1.40
  -5   9   1    4.40    2.00
   4  -9  -1    4.70    1.40
   4  -9  -1    2.40    1.20
   4  -9  -1    4.80    1.50
   4  -9  -1    5.10    1.20
  -4   9   1    1.20    1.60
  -4   9   1    1.60    1.10
   3  -9  -1   14.40    1.10
   3  -9  -1   12.50    1.60
   3  -9  -1   14.90    2.40
   3  -9  -1   13.40    1.50
   3  -9  -1   11.80    1.50
  -3   9   1   16.30    2.30
  -3   9   1   13.30    1.50
  -3   9   1   16.30    2.10
   2  -9  -1   -0.60    0.50
   2  -9  -1    0.40    0.80
   2  -9  -1   -0.40    1.20
  -2   9   1   10.30    7.30
  -2   9   1    1.00    1.10
  -2   9   1   -0.10    1.10
   1  -9  -1   18.50    1.10
   1  -9  -1   18.80    1.80
   1  -9  -1   17.00    2.80
  -1   9   1   16.90    1.60
  -1   9   1   38.70   14.40
   0  -9  -1    1.80    0.50
   0  -9  -1    2.30    1.10
   0   9   1    1.60    0.80
   0   9   1   -0.10    1.20
  -1  -9  -1   12.30    1.00
  -1  -9  -1   10.30    1.60
   1   9   1   10.20    1.10
   1   9   1    8.50    1.60
  -2  -9  -1   74.19    2.60
  -2  -9  -1   73.49    3.40
   2   9   1   74.89    2.50
   2   9   1   80.89    4.30
  -3  -9  -1    3.60    1.30
  -3  -9  -1    2.10    0.90
   3   9   1    4.00    0.80
   3   9   1    4.00    1.10
  -4  -9  -1   -0.50    1.40
  -4  -9  -1   -0.80    1.00
   4   9   1   -0.20    1.10
  -5  -9  -1   -0.50    1.30
  -5  -9  -1    0.80    1.60
   5   9   1   -0.70    1.20
  -6  -9  -1    3.10    2.20
  -6  -9  -1    4.20    1.70
   6   9   1    1.50    1.50
   4 -10  -1    9.40    1.90
   4 -10  -1    6.50    1.90
   4 -10  -1    9.60    1.40
  -4  10   1   10.50    2.20
   3 -10  -1   -0.30    1.10
   3 -10  -1    1.20    1.60
   3 -10  -1   -0.90    1.60
  -3  10   1   -0.20    1.50
  -3  10   1    0.70    1.70
   2 -10  -1   11.90    1.80
   2 -10  -1   14.60    2.20
  -2  10   1   18.60    2.60
  -2  10   1   12.40    1.60
   1 -10  -1    2.90    1.70
   1 -10  -1    1.90    1.20
   1 -10  -1    3.30    0.60
  -1  10   1    5.30    1.60
  -1  10   1    3.80    1.10
   0 -10  -1   24.60    2.40
   0 -10  -1   21.00    1.40
   0  10   1   24.30    2.50
   0  10   1   21.30    1.80
  -1 -10  -1    7.90    1.00
  -1 -10  -1    8.40    1.50
   1  10   1   10.00    1.60
  -2 -10  -1   46.60    2.10
  -2 -10  -1   43.80    3.10
   2  10   1   49.80    3.10
  -3 -10  -1    1.40    1.50
  -3 -10  -1    3.00    1.10
   3  10   1    4.30    1.50
  -4 -10  -1    4.50    1.80
  -4 -10  -1    5.00    1.20
   4  10   1    1.90    1.30
  -5 -10  -1    2.90    2.10
  -5 -10  -1    1.00    1.50
   5  10   1    2.40    1.40
   3 -11  -1    5.90    1.50
   3 -11  -1    2.90    2.10
  -3  11   1    2.80    2.00
   2 -11  -1    2.50    1.30
   2 -11  -1    0.00    2.00
  -2  11   1    0.90    1.80
   1 -11  -1    9.70    1.60
   1 -11  -1   11.50    2.30
  -1  11   1   13.20    2.10
   0 -11  -1    1.50    1.40
   0  11   1    0.80    1.60
  -1 -11  -1   17.80    2.70
   1  11   1   19.20    3.00
  -2 -11  -1   -0.30    1.10
  -2 -11  -1    1.40    1.70
   2  11   1    0.90    1.50
  -3 -11  -1    4.80    2.00
  -3 -11  -1    6.30    1.40
   3  11   1    4.90    1.70
  -4 -11  -1   -1.00    2.00
  -4 -11  -1    0.80    1.50
   4  11   1    2.10    1.50
   1 -12  -1   11.00    2.80
   1 -12  -1    6.20    1.70
  -1  12   1    4.20    2.30
   0 -12  -1    8.80    3.10
   0 -12  -1    6.50    2.00
   0  12   1    9.40    2.40
  -1 -12  -1    4.10    2.10
   1  12   1    8.00    2.30
  -2 -12  -1   43.50    3.80
   2  12   1   34.70    4.00
   0  12  -2    4.40    2.00
   0 -12   2    2.00    2.00
   0 -12   2    1.40    1.40
   3  11  -2    5.80    2.00
  -3 -11   2    4.00    2.00
  -3 -11   2    1.50    1.40
   2  11  -2    3.00    1.70
  -2 -11   2    3.10    1.20
  -2 -11   2    5.10    1.90
   1  11  -2   -0.20    1.40
  -1 -11   2    1.60    1.10
  -1 -11   2   -1.90    1.50
   0  11  -2    0.20    1.40
   0 -11   2    0.10    0.90
   0 -11   2   -0.90    1.50
  -1  11  -2   -0.30    1.50
   1 -11   2   -1.40    0.90
   1 -11   2    0.90    1.50
  -2  11  -2    0.20    1.70
   2 -11   2    4.30    1.70
   2 -11   2    1.30    1.00
  -3  11  -2    3.80    1.80
   3 -11   2   -0.70    1.60
   3 -11   2    1.30    1.80
   3 -11   2   -1.80    1.20
   4  10  -2    0.20    1.70
  -4 -10   2    4.10    1.80
  -4 -10   2   -0.90    1.50
   3  10  -2    1.20    1.50
  -3 -10   2    0.70    1.60
  -3 -10   2    1.10    1.10
   2  10  -2   -0.30    1.20
  -2 -10   2    2.70    1.30
  -2 -10   2   -0.40    1.00
   1  10  -2   -0.90    1.10
  -1 -10   2    1.60    0.80
  -1 -10   2    0.50    1.20
   0  10  -2    0.70    1.10
   0 -10   2   -0.60    1.10
   0 -10   2   -0.80    1.10
  -1  10  -2   -1.70    1.20
   1 -10   2    0.20    1.20
  -2  10  -2    3.00    1.40
   2 -10   2   -0.70    0.80
   2 -10   2    0.60    1.20
  -3  10  -2    7.70    1.60
   3 -10   2    5.20    1.50
   3 -10   2    3.10    1.40
   3 -10   2    5.00    1.00
  -4  10  -2    0.00    1.70
   4 -10   2    0.10    1.40
   4 -10   2   -1.50    1.00
   4 -10   2    2.80    1.50
   5   9  -2    3.80    1.60
  -5  -9   2    2.60    1.60
  -5  -9   2    0.90    1.70
   4   9  -2    5.10    1.50
  -4  -9   2    3.80    1.40
  -4  -9   2    3.40    1.50
   3   9  -2    3.70    1.40
  -3  -9   2    7.30    1.50
  -3  -9   2    2.70    1.10
   2   9  -2    0.40    1.10
  -2  -9   2   -1.10    1.00
   1   9  -2   30.10    2.20
  -1  -9   2   30.50    1.90
  -1  -9   2   32.60    2.50
   0   9  -2    6.40    1.10
   0  -9   2    8.80    1.50
  -1   9  -2   11.00   16.90
   1  -9   2   12.90    1.20
   1  -9   2   14.70    1.90
  -2   9  -2    6.30    2.10
  -2   9  -2   10.90    7.20
   2  -9   2    4.00    0.60
   2  -9   2    4.10    0.70
   2  -9   2    2.10    1.10
  -3   9  -2   -1.50    1.10
   3  -9   2   -0.50    1.20
   3  -9   2   -0.20    0.70
   3  -9   2    0.60    1.20
   3  -9   2    0.50    1.20
   3  -9   2   -0.30    0.70
  -4   9  -2    5.60    1.40
   4  -9   2    8.10    1.40
   4  -9   2    6.80    1.30
   4  -9   2    5.70    1.30
   4  -9   2   11.30    1.50
   4  -9   2    8.70    1.40
  -5   9  -2    4.90    1.80
   5  -9   2    2.90    1.10
   5  -9   2    2.90    1.40
   5  -9   2    3.10    1.70
   5  -9   2    6.40    1.50
   5  -9   2    5.10    1.50
   6   8  -2    9.40    1.70
  -6  -8   2   13.10    2.20
  -6  -8   2   11.70    2.30
   5   8  -2   17.00    2.50
  -5  -8   2   13.90    2.00
  -5  -8   2   14.80    2.00
   4   8  -2    2.10    1.20
  -4  -8   2    1.70    1.20
  -4  -8   2    0.50    1.20
   3   8  -2    7.00    1.30
  -3  -8   2    7.30    1.40
   2   8  -2    4.50    0.90
  -2  -8   2    3.60    0.90
  -2  -8   2    4.30    1.10
   1   8  -2  -10.10   17.20
   1   8  -2    2.60    0.90
  -1  -8   2    3.80    0.80
  -1  -8   2    3.40    0.80
  -1  -8   2    4.30   14.40
  -1  -8   2    3.90    0.60
   0   8  -2   -2.10   14.60
   0  -8   2   -6.40   13.00
  -1   8  -2    3.90    0.70
  -1   8  -2    3.90    0.90
  -1   8  -2    2.20   11.60
   1  -8   2    6.70    0.90
   1  -8   2    4.60    0.90
   1  -8   2    6.20    0.90
   1  -8   2    6.30    0.70
  -2   8  -2    1.70    0.80
  -2   8  -2    1.00    0.80
  -2   8  -2    1.70    6.20
  -2   8  -2    4.50    6.40
   2  -8   2    1.10    0.50
   2  -8   2    1.80    0.60
   2  -8   2    1.00    0.70
   2  -8   2    0.00    0.80
  -3   8  -2   -0.90    0.90
   3  -8   2   -1.00    0.70
   3  -8   2   -0.10    1.00
   3  -8   2   -0.80    1.00
   3  -8   2   -0.40    0.90
   3  -8   2    0.10    0.70
  -4   8  -2    3.30    1.10
   4  -8   2    5.70    1.10
   4  -8   2    3.40    0.80
   4  -8   2    2.70    0.90
   4  -8   2    2.20    1.10
  -5   8  -2    0.90    1.10
  -5   8  -2   -0.90    0.90
   5  -8   2   -0.40    1.20
   5  -8   2   -0.70    1.50
   5  -8   2    0.80    1.20
   5  -8   2    0.40    1.20
  -6   8  -2   -1.30    1.20
  -6   8  -2   -0.90    1.30
   6  -8   2    0.20    1.20
   6  -8   2    1.70    1.50
   6  -8   2   -1.70    1.50
   6  -8   2   -0.20    1.70
   6   7  -2    1.00    1.30
  -6  -7   2    2.10    1.80
  -6  -7   2    0.90    1.50
   5   7  -2    1.40    1.20
  -5  -7   2    4.00    1.20
  -5  -7   2    5.00    1.40
   4   7  -2   -0.50    1.00
  -4  -7   2    0.30    1.00
  -4  -7   2   -0.80    1.10
  -4  -7   2   -0.40    0.60
   3   7  -2  -20.70   19.60
  -3  -7   2   -7.00   13.80
   2   7  -2    0.50    0.50
   2   7  -2    0.10    0.70
   2   7  -2    6.40   15.90
  -2  -7   2    0.40    0.60
  -2  -7   2    0.50    0.40
  -2  -7   2   -1.10    0.60
   1   7  -2  -18.10   12.40
   1   7  -2    0.90    0.50
  -1  -7   2   -2.40   13.10
  -1  -7   2    0.90    0.70
  -1  -7   2    1.80    0.60
   0   7  -2   35.10    1.90
   0   7  -2   31.80    1.50
   0   7  -2   39.80   13.40
   0  -7   2   36.00    1.60
   0  -7   2   48.90   12.20
   0  -7   2   33.70    1.40
   0  -7   2   35.40    1.20
   0  -7   2   37.50    2.00
  -1   7  -2   20.20    1.20
  -1   7  -2   22.50    1.50
  -1   7  -2    9.60    9.80
   1  -7   2    7.80    9.30
   1  -7   2   21.50    1.60
   1  -7   2   18.90    1.50
   1  -7   2   21.40    1.20
   1  -7   2   22.30    1.30
   1  -7   2   20.90    0.90
  -2   7  -2    2.10    0.70
  -2   7  -2    2.00    0.70
  -2   7  -2    2.90    0.70
  -2   7  -2    1.50    5.00
  -2   7  -2    2.70    5.40
   2  -7   2    2.00    0.80
   2  -7   2    2.20    0.50
   2  -7   2    2.60    0.60
   2  -7   2    3.00    0.60
  -3   7  -2   49.00    2.30
  -3   7  -2   50.19    2.30
   3  -7   2   47.30    2.10
   3  -7   2   49.70    2.40
   3  -7   2   47.60    2.20
   3  -7   2   49.30    2.60
   3  -7   2   48.50    2.10
  -4   7  -2    1.00    0.80
  -4   7  -2   -0.20    0.90
  -4   7  -2    0.40    0.60
   4  -7   2    0.90    0.80
   4  -7   2    1.70    0.90
   4  -7   2   -0.10    0.70
   4  -7   2    0.40    0.80
   4  -7   2    1.70    0.90
  -5   7  -2   -0.30    1.00
  -5   7  -2   -1.40    0.90
   5  -7   2    0.80    1.00
   5  -7   2   -0.40    1.00
   5  -7   2   -0.90    1.00
   5  -7   2    1.50    1.40
   5  -7   2   -0.60    1.20
  -6   7  -2    1.90    1.20
  -6   7  -2    3.90    1.30
  -6   7  -2    1.00    1.10
   6  -7   2    1.60    1.10
   6  -7   2    1.20    1.60
   6  -7   2   -1.20    1.40
   6  -7   2    0.30    1.30
  -7   7  -2    2.90    1.70
  -7   7  -2   -0.10    1.40
   7  -7   2   -1.60    1.80
   7  -7   2    1.30    2.00
   7  -7   2    1.80    1.40
   7   6  -2    4.80    1.50
  -7  -6   2    0.50    2.00
  -7  -6   2    1.80    1.90
   6   6  -2   33.60    2.70
   6   6  -2   33.20    2.40
  -6  -6   2   32.30    2.90
  -6  -6   2   29.50    2.10
   5   6  -2   81.19    3.60
   5   6  -2   79.49    3.00
  -5  -6   2   88.19    3.40
  -5  -6   2   82.19    2.90
  -5  -6   2   85.89    3.70
   4   6  -2    0.70    0.60
   4   6  -2  -10.20   21.50
   4   6  -2    0.50    0.80
  -4  -6   2    0.00    0.60
  -4  -6   2   -1.10    0.70
  -4  -6   2    0.30    0.80
   3   6  -2    0.10    0.40
   3   6  -2   -1.10    0.60
   3   6  -2   -0.10    0.60
   3   6  -2    0.90    0.70
   3   6  -2   -2.20   16.20
  -3  -6   2   -0.60    0.60
  -3  -6   2   -0.80   13.30
  -3  -6   2    0.70    0.70
   2   6  -2   12.30    1.20
   2   6  -2   11.90    0.80
   2   6  -2   11.80    0.70
   2   6  -2   12.60    0.50
   2   6  -2    9.40   13.00
  -2  -6   2   13.30    1.20
  -2  -6   2   13.10    1.10
  -2  -6   2   13.50    0.80
  -2  -6   2   30.80   11.50
   1   6  -2   47.50    2.10
   1   6  -2   49.50   13.20
   1   6  -2   43.20    1.50
  -1  -6   2   31.90   11.70
  -1  -6   2   42.70    2.00
  -1  -6   2   45.10    1.40
  -1  -6   2   46.70    1.80
   0   6  -2   12.10    1.10
   0   6  -2   10.90    0.90
   0   6  -2   10.80    7.90
   0  -6   2    9.90    0.80
   0  -6   2   11.60    1.10
   0  -6   2    5.30    9.50
   0  -6   2   11.40    0.90
   0  -6   2   11.20    0.70
  -1   6  -2  134.99    4.00
  -1   6  -2  146.99    3.80
  -1   6  -2  154.38   15.10
  -1   6  -2  149.69    4.30
   1  -6   2  142.59    3.50
   1  -6   2  147.89    4.00
   1  -6   2  139.19    3.80
   1  -6   2  144.29   14.90
   1  -6   2  148.69    3.80
   1  -6   2  144.79    3.80
   1  -6   2  143.49    4.40
  -2   6  -2  229.58    6.00
  -2   6  -2  235.08    6.10
  -2   6  -2  228.88    5.90
   2  -6   2  230.88    6.00
   2  -6   2  234.58    5.90
   2  -6   2  229.58    5.80
   2  -6   2  207.58    5.50
   2  -6   2  234.38    6.40
  -3   6  -2   42.60    2.00
  -3   6  -2   43.20    1.80
  -3   6  -2   45.10    2.10
   3  -6   2   46.60    2.20
   3  -6   2   45.60    2.30
   3  -6   2   41.50    2.00
   3  -6   2   44.10    1.90
   3  -6   2   43.90    2.00
  -4   6  -2   38.80    2.00
  -4   6  -2   39.50    1.80
  -4   6  -2   37.80    2.00
   4  -6   2   38.70    1.90
   4  -6   2   37.10    2.00
   4  -6   2   39.10    2.20
   4  -6   2   39.00    2.10
   4  -6   2   38.10    2.20
  -5   6  -2   -0.40    0.80
  -5   6  -2    0.50    0.90
  -5   6  -2   -0.70    0.80
   5  -6   2    0.90    0.90
   5  -6   2    0.70    1.00
   5  -6   2    1.00    1.10
   5  -6   2    0.30    0.80
   5  -6   2    0.50    1.00
  -6   6  -2    4.70    1.20
  -6   6  -2    5.10    1.10
  -6   6  -2    3.90    1.10
   6  -6   2    1.50    1.40
   6  -6   2    2.80    1.10
   6  -6   2    4.10    1.50
   6  -6   2    3.20    1.10
  -7   6  -2    0.60    1.30
  -7   6  -2    2.60    1.30
  -7   6  -2   -0.10    1.40
   7  -6   2    1.30    1.30
   7  -6   2    2.70    1.90
   7  -6   2    1.40    1.80
   7  -6   2   -3.00    1.50
   7   5  -2    2.70    1.40
   7   5  -2    1.80    1.60
  -7  -5   2    5.70    1.80
  -7  -5   2    3.80    1.40
   6   5  -2    3.20    1.20
   6   5  -2   14.10   33.10
  -6  -5   2    6.60    1.00
  -6  -5   2    2.10    1.30
  -6  -5   2    5.90    1.30
  -6  -5   2    2.00   28.50
   5   5  -2   32.00   25.40
   5   5  -2   71.89    3.10
   5   5  -2   71.09    2.90
  -5  -5   2   71.39    3.00
  -5  -5   2   79.89   22.00
  -5  -5   2   72.19    2.70
   4   5  -2   49.40    2.40
   4   5  -2   42.20    1.90
   4   5  -2   72.09   21.40
  -4  -5   2   48.10    2.30
  -4  -5   2   48.50    2.30
  -4  -5   2   46.10    1.90
  -4  -5   2   45.20   12.40
   3   5  -2   -0.90    0.60
   3   5  -2   -0.50    0.40
   3   5  -2  -16.20    9.90
  -3  -5   2   -0.60    0.50
  -3  -5   2    0.50    0.50
  -3  -5   2   -0.30    0.40
  -3  -5   2  -11.10   11.80
   2   5  -2   10.80    9.20
   2   5  -2    6.50    0.60
   2   5  -2    4.30    0.60
   2   5  -2    4.60    0.40
   2   5  -2    4.60    0.80
  -2  -5   2    5.10    7.00
  -2  -5   2    5.40    0.80
  -2  -5   2    5.00    0.60
  -2  -5   2    6.60    0.90
   1   5  -2   18.40    1.20
   1   5  -2   18.50    0.90
  -1  -5   2   20.50    1.10
  -1  -5   2   20.80    0.90
  -1  -5   2   21.30    1.30
   0   5  -2  -12.40    7.10
   0   5  -2    0.20    0.30
   0   5  -2    0.20    0.40
   0  -5   2    0.00    0.20
   0  -5   2   -0.50    7.30
   0  -5   2   -0.20    0.30
   0  -5   2    0.20    0.40
  -1   5  -2   86.29    2.70
  -1   5  -2   78.19    2.50
  -1   5  -2   86.49   10.40
  -1   5  -2   80.29    2.60
   1  -5   2   92.59   11.60
   1  -5   2   82.69    2.20
   1  -5   2   83.59    2.40
   1  -5   2   81.89    2.50
   1  -5   2   84.49    2.40
   1  -5   2   80.49    2.40
   1  -5   2   85.99    2.90
  -2   5  -2   37.90    6.00
  -2   5  -2   32.80    1.50
  -2   5  -2   33.10    1.50
   2  -5   2   30.00    1.40
   2  -5   2   33.30    1.70
   2  -5   2   30.90    1.50
   2  -5   2   31.30    1.40
   2  -5   2   33.60    1.60
   2  -5   2   31.20    5.50
  -3   5  -2  105.69    3.20
  -3   5  -2  103.39    3.30
  -3   5  -2  104.99    3.30
   3  -5   2  101.99    3.50
   3  -5   2  105.99    3.40
   3  -5   2  106.39    3.30
   3  -5   2  104.89    3.60
   3  -5   2  104.69    3.40
  -4   5  -2   42.90    2.00
  -4   5  -2   40.80    2.00
  -4   5  -2   44.30    1.90
  -4   5  -2   42.70    1.90
   4  -5   2   42.70    2.00
   4  -5   2   42.70    1.90
   4  -5   2   41.20    2.20
   4  -5   2   44.40    2.40
  -5   5  -2    2.30    0.70
  -5   5  -2    1.70    0.70
  -5   5  -2    2.60    0.90
   5  -5   2    1.10    0.70
   5  -5   2    0.80    1.00
   5  -5   2    2.80    0.80
   5  -5   2    3.00    1.20
  -6   5  -2    8.90    1.50
  -6   5  -2    8.50    1.20
  -6   5  -2   12.60    1.60
   6  -5   2    6.20    1.70
   6  -5   2    9.20    1.40
   6  -5   2   10.00    1.70
  -7   5  -2    0.30    1.30
  -7   5  -2   -1.60    1.30
   7  -5   2   -1.70    1.80
   7  -5   2    0.60    1.60
   7   4  -2    7.60    1.30
   7   4  -2    7.00    1.80
  -7  -4   2    8.30    1.70
  -7  -4   2    8.10    1.30
   6   4  -2   56.39    2.90
   6   4  -2   90.49   30.60
   6   4  -2   55.49    2.70
  -6  -4   2   30.30   24.20
  -6  -4   2   58.79    3.20
  -6  -4   2   55.69    2.70
  -6  -4   2   57.39    2.60
   5   4  -2    2.20    0.90
   5   4  -2   -2.90   15.50
  -5  -4   2  -26.30   17.30
   4   4  -2    2.70    0.70
   4   4  -2    2.80    0.80
  -4  -4   2    3.00    0.70
  -4  -4   2    1.80    0.60
  -4  -4   2    3.30    0.70
  -4  -4   2    5.70   10.10
   3   4  -2    7.70    0.80
   3   4  -2    6.30    0.80
   3   4  -2    8.20    1.00
   3   4  -2    7.90   12.50
  -3  -4   2    6.40    0.90
  -3  -4   2    7.90    0.90
  -3  -4   2   -0.30   10.90
  -3  -4   2    6.70    0.80
   2   4  -2   12.40    0.70
   2   4  -2   13.30    0.70
   2   4  -2   13.10    1.10
   2   4  -2   13.30    0.80
   2   4  -2   -8.10    9.40
  -2  -4   2   13.10    0.80
  -2  -4   2   12.30    0.90
  -2  -4   2   17.20    7.00
  -2  -4   2   12.80    1.00
   1   4  -2   36.60    1.60
   1   4  -2   36.30    1.20
   1   4  -2   25.30    8.50
  -1  -4   2   48.40    9.90
  -1  -4   2   37.60    1.20
  -1  -4   2   38.50    1.40
  -1  -4   2   36.30    1.50
   0   4  -2   49.10    1.50
   0   4  -2   48.50    2.00
   0   4  -2   47.80    9.00
   0   4  -2   49.50    1.70
   0  -4   2   46.10    9.20
   0  -4   2   47.60    1.80
   0  -4   2   50.39    1.50
   0  -4   2   49.50    1.90
  -1   4  -2   54.49    1.90
  -1   4  -2   50.39    7.90
  -1   4  -2   54.59    1.80
  -1   4  -2   50.09    1.80
   1  -4   2   53.69    1.70
   1  -4   2   51.79    2.00
   1  -4   2   52.49    1.70
   1  -4   2   53.19    1.50
   1  -4   2   52.99    1.80
   1  -4   2   50.49    1.90
   1  -4   2   48.90    7.40
   1  -4   2   52.49    1.60
  -2   4  -2    6.30    3.10
  -2   4  -2    9.80    0.80
  -2   4  -2    8.60    0.70
  -2   4  -2    8.00    0.70
   2  -4   2   11.30    4.10
   2  -4   2    7.90    0.80
   2  -4   2    8.40    0.90
   2  -4   2    9.10    0.90
   2  -4   2    8.90    0.90
   2  -4   2    8.30    0.80
   2  -4   2    9.50    0.80
  -3   4  -2   50.69    2.00
  -3   4  -2   51.49    2.00
  -3   4  -2   53.19    1.90
  -3   4  -2   52.99    1.90
   3  -4   2   51.69    2.00
   3  -4   2   52.39    2.00
   3  -4   2   51.89    2.10
   3  -4   2   50.89    2.20
   3  -4   2   48.30    1.80
   3  -4   2   60.39    4.90
  -4   4  -2   18.50    1.30
  -4   4  -2   19.30    1.40
  -4   4  -2   17.80    1.20
   4  -4   2   10.60    3.90
   4  -4   2   18.10    4.20
   4  -4   2   19.70    1.30
   4  -4   2   18.50    1.50
   4  -4   2   18.80    1.70
  -5   4  -2    0.70    0.70
  -5   4  -2    0.60    0.70
  -5   4  -2    2.00    0.70
   5  -4   2    1.50    0.60
   5  -4   2   -6.60    6.80
   5  -4   2    1.40    6.00
   5  -4   2    1.30    1.00
   5  -4   2    0.80    0.90
  -6   4  -2    8.40    1.30
   6  -4   2  -14.60    8.40
  -7   4  -2    7.50    1.30
  -7   4  -2    7.60    1.30
  -7   4  -2    5.00    1.30
   7  -4   2    5.60    1.90
   7  -4   2    9.50    1.80
  -8   4  -2   -0.60    1.60
  -8   4  -2    4.30    1.70
   8  -4   2    4.30    2.50
   8  -4   2    4.40    2.20
   8   3  -2   -1.20    2.10
  -8  -3   2    3.10    1.70
  -8  -3   2    0.00    1.90
   7   3  -2    4.20    1.40
   7   3  -2    5.00    1.60
  -7  -3   2    3.80    1.50
  -7  -3   2    3.60    1.20
   6   3  -2   13.60   26.10
   6   3  -2   55.79    2.90
   6   3  -2   56.49    2.60
  -6  -3   2   43.60   21.60
  -6  -3   2   52.99    2.50
  -6  -3   2   59.29    3.00
  -6  -3   2   53.69    2.70
   5   3  -2  273.07    7.40
   5   3  -2  219.78   34.10
   5   3  -2  274.27    7.50
  -5  -3   2  275.57    7.50
  -5  -3   2  267.17    7.30
  -5  -3   2  268.97   30.40
  -5  -3   2  272.77    7.10
   4   3  -2    4.30    0.80
   4   3  -2   -5.80   13.50
   4   3  -2    4.70    0.90
  -4  -3   2    4.00    0.60
  -4  -3   2    2.90    0.70
  -4  -3   2    3.20    0.70
  -4  -3   2   14.80    9.90
   3   3  -2   -3.40   10.50
   3   3  -2   -0.60    0.40
   3   3  -2   -0.20    0.50
   3   3  -2    0.60    0.50
  -3  -3   2   -2.10    9.50
  -3  -3   2    0.10    0.40
  -3  -3   2    0.50    0.40
   2   3  -2   -0.20    0.30
   2   3  -2    0.50    0.30
   2   3  -2   -2.00    6.10
   2   3  -2    0.40    0.40
   2   3  -2    0.10    0.40
   2   3  -2    0.30    0.30
  -2  -3   2    0.60    5.60
  -2  -3   2    1.40    0.40
  -2  -3   2    0.80    0.30
  -2  -3   2   -0.10    0.30
   1   3  -2  226.88    5.60
   1   3  -2  217.18   16.70
   1   3  -2  223.18    5.40
   1   3  -2  226.98    5.70
   1   3  -2  226.18    5.20
  -1  -3   2  241.98   17.80
  -1  -3   2  229.38    5.40
  -1  -3   2  228.38    5.20
  -1  -3   2  224.38    5.40
  -1  -3   2  229.08    5.60
   0   3  -2   99.19    2.70
   0   3  -2   99.99    2.80
   0   3  -2   98.39    2.60
   0   3  -2  102.29    2.60
   0   3  -2   91.09    9.60
   0  -3   2  109.29   10.30
   0  -3   2  100.09    2.50
   0  -3   2   97.79    2.80
   0  -3   2   96.89    2.70
   0  -3   2   96.79    2.80
   0  -3   2   97.99    2.60
  -1   3  -2  172.58    4.20
  -1   3  -2  174.38    4.30
  -1   3  -2  170.38   10.60
  -1   3  -2  170.98    4.30
  -1   3  -2  167.18    4.30
   1  -3   2  170.08    4.20
   1  -3   2  178.18    4.10
   1  -3   2  160.68    4.30
   1  -3   2  171.18    4.20
   1  -3   2  171.28    4.20
   1  -3   2  172.98    4.20
   1  -3   2  157.98   10.80
   1  -3   2  170.28    4.50
   1  -3   2  173.88    4.10
   1  -3   2  170.38    4.30
  -2   3  -2  781.32   23.10
  -2   3  -2  769.62   17.30
  -2   3  -2  783.72   17.00
  -2   3  -2  736.33   17.30
   2  -3   2  759.12   24.00
   2  -3   2  768.52   17.20
   2  -3   2  787.42   17.00
   2  -3   2  800.72   17.20
   2  -3   2  776.82   17.30
   2  -3   2  797.82   17.30
   2  -3   2  780.22   17.70
  -3   3  -2  273.17    6.70
  -3   3  -2  267.17    6.30
  -3   3  -2  268.37    6.70
  -3   3  -2  273.77    6.60
   3  -3   2  268.47    6.40
   3  -3   2  265.97    7.00
   3  -3   2  263.87    6.30
   3  -3   2  271.27    6.90
   3  -3   2  264.97   12.60
  -4   3  -2   11.70    1.10
  -4   3  -2   11.30    1.00
  -4   3  -2   10.50    1.00
   4  -3   2    2.90    6.10
   4  -3   2   10.80    1.20
   4  -3   2    6.90    5.50
   4  -3   2   11.50    1.30
   4  -3   2    9.30    0.80
   4  -3   2   10.20    0.90
  -5   3  -2   18.90    1.40
  -5   3  -2   18.50    1.40
  -5   3  -2   18.80    1.50
   5  -3   2   19.60   10.10
   5  -3   2   17.00    1.10
   5  -3   2   20.40    1.80
   5  -3   2   19.00    1.20
   5  -3   2    4.30    7.50
   5  -3   2   20.70    1.80
  -6   3  -2    7.20    1.10
  -6   3  -2    5.50    1.20
  -6   3  -2    7.30    1.10
   6  -3   2    4.40    1.30
   6  -3   2    5.00   10.80
   6  -3   2    6.50    1.60
  -7   3  -2    0.50    1.10
  -7   3  -2    1.20    1.20
  -7   3  -2    0.40    1.10
   7  -3   2    0.80    1.60
   7  -3   2   -2.90    1.30
  -8   3  -2    3.50    1.60
  -8   3  -2    1.70    1.60
   8  -3   2    4.60    2.00
   8  -3   2    0.70    2.30
   8   2  -2   14.70    2.50
  -8  -2   2   14.50    2.00
  -8  -2   2   14.70    2.30
   7   2  -2    8.10    1.80
   7   2  -2    6.10    1.30
  -7  -2   2    3.80    1.40
  -7  -2   2    6.60    1.50
   6   2  -2   17.60    1.60
   6   2  -2   15.30    2.00
   6   2  -2   10.80   16.70
  -6  -2   2   14.50    2.30
  -6  -2   2   13.70   15.50
  -6  -2   2   15.20    1.90
  -6  -2   2   14.00    1.50
   5   2  -2   56.39    2.60
   5   2  -2   52.39    2.70
   5   2  -2   53.39   15.40
  -5  -2   2   61.09   17.00
  -5  -2   2   57.89    2.60
  -5  -2   2   54.29    2.60
  -5  -2   2   54.89    2.20
   4   2  -2  133.79   22.40
   4   2  -2  156.48    4.70
   4   2  -2  153.48    4.60
   4   2  -2  143.29    4.00
  -4  -2   2  159.18    4.60
  -4  -2   2  158.88    4.50
  -4  -2   2  154.78    4.20
  -4  -2   2  136.19   22.50
   3   2  -2   16.20    1.10
   3   2  -2   21.50   11.00
   3   2  -2   14.50    1.10
   3   2  -2   17.00    0.90
   3   2  -2   15.60    1.20
  -3  -2   2   16.80    1.00
  -3  -2   2   15.50    0.90
  -3  -2   2   15.00    7.50
  -3  -2   2   15.60    1.00
   2   2  -2    8.90    0.70
   2   2  -2    8.60    0.70
   2   2  -2    9.70    0.80
   2   2  -2    9.20    0.70
   2   2  -2    9.10    0.60
   2   2  -2   10.30    6.00
   2   2  -2    8.30    0.60
  -2  -2   2    9.60    0.70
  -2  -2   2    9.90    0.70
  -2  -2   2   10.10    0.70
  -2  -2   2    9.30    0.60
  -2  -2   2    5.20    6.80
  -2  -2   2    9.00    0.90
   1   2  -2   19.00    1.00
   1   2  -2   21.30    0.80
   1   2  -2   20.30    0.80
   1   2  -2   21.40    0.80
   1   2  -2   23.00    1.00
   1   2  -2   21.90    0.70
   1   2  -2   17.80    5.50
  -1  -2   2   21.10    0.90
  -1  -2   2   21.20    0.70
  -1  -2   2   21.50    6.30
  -1  -2   2   21.40    0.90
  -1  -2   2   20.90    1.10
  -1  -2   2   20.50    0.80
  -1  -2   2   21.30    0.80
   0   2  -2  118.59    3.00
   0   2  -2  119.39    2.90
   0   2  -2  120.19    3.00
   0   2  -2  104.79    2.70
   0   2  -2  121.49    3.10
   0  -2   2  120.99    3.10
   0  -2   2  122.09    3.00
   0  -2   2  118.19    3.10
   0  -2   2  125.09   10.20
   0  -2   2  120.39    3.00
   0  -2   2  118.59    2.60
   0  -2   2  121.59    2.90
  -1   2  -2 1163.08   25.00
  -1   2  -2 1153.48   25.10
  -1   2  -2 1167.88   25.00
  -1   2  -2 1153.28   25.10
  -1   2  -2 1146.69   25.00
  -1   2  -2 1214.78   33.40
  -1   2  -2 1145.79   25.10
   1  -2   2 1230.88   34.30
   1  -2   2 1186.58   25.00
   1  -2   2 1150.08   25.20
   1  -2   2 1133.89   25.00
   1  -2   2 1167.98   25.00
   1  -2   2 1147.09   25.00
  -2   2  -2   -1.70    2.70
  -2   2  -2    1.30    0.30
  -2   2  -2    1.20    0.30
  -2   2  -2    1.10    0.20
  -2   2  -2    0.80    0.40
  -2   2  -2    0.90    0.40
   2  -2   2    0.20    0.40
   2  -2   2    0.90    0.30
   2  -2   2    1.20    0.30
   2  -2   2    0.10    3.20
   2  -2   2    0.80    0.40
   2  -2   2    1.30    0.30
   2  -2   2    0.50    0.40
   2  -2   2    1.20    0.40
  -3   2  -2  140.89    3.90
  -3   2  -2  136.59    3.80
  -3   2  -2  137.49    3.80
   3  -2   2  139.69    3.40
   3  -2   2  137.29   10.50
   3  -2   2  137.29    3.30
   3  -2   2  133.89    4.00
  -4   2  -2   28.00    1.50
  -4   2  -2   26.60    1.40
  -4   2  -2   25.90    1.40
   4  -2   2   33.30    7.80
   4  -2   2   27.50    1.20
   4  -2   2   25.20    1.60
   4  -2   2   34.90    8.20
   4  -2   2   26.30    1.00
   4  -2   2   28.20    1.70
  -5   2  -2   34.20    1.80
  -5   2  -2   31.00    1.70
  -5   2  -2   34.30    1.90
   5  -2   2   33.00    1.30
   5  -2   2   32.70    1.40
   5  -2   2   32.20    2.00
   5  -2   2   34.70    9.80
   5  -2   2   43.40   11.50
   5  -2   2   34.60    2.10
  -6   2  -2   12.60    1.50
  -6   2  -2   11.70    1.60
   6  -2   2  -10.60   11.20
   6  -2   2   11.00    1.10
   6  -2   2   10.60    1.70
   6  -2   2   12.30    1.80
  -7   2  -2   15.40    1.90
  -7   2  -2   13.90    2.00
  -7   2  -2   12.00    1.70
   7  -2   2   11.40    1.90
   7  -2   2   11.90    2.10
  -8   2  -2    1.20    1.60
  -8   2  -2   -2.90    1.40
   8  -2   2   -0.90    2.00
   8  -2   2   -2.60    1.70
   8   1  -2    6.00    2.40
  -8  -1   2    7.10    2.00
  -8  -1   2    3.10    1.70
   7   1  -2   22.20    2.70
   7   1  -2   22.80    2.00
  -7  -1   2   24.70    2.40
  -7  -1   2   24.20    2.50
   6   1  -2   44.80    2.30
   6   1  -2   39.70    2.60
  -6  -1   2   42.10    2.00
  -6  -1   2   40.10    2.50
  -6  -1   2   40.90    2.60
   5   1  -2  111.99   21.30
   5   1  -2  130.99    4.30
   5   1  -2  116.99    3.50
   5   1  -2  127.49    4.50
  -5  -1   2  129.29    4.20
  -5  -1   2  129.69    3.70
  -5  -1   2  131.19    4.30
  -5  -1   2  117.59   21.00
   4   1  -2   15.50   11.40
   4   1  -2   37.10    2.00
   4   1  -2   36.60    1.90
   4   1  -2   33.50    1.30
  -4  -1   2   34.90    1.80
  -4  -1   2   34.60    1.80
  -4  -1   2   35.40    1.80
  -4  -1   2   36.50   13.20
  -4  -1   2   36.50    1.40
   3   1  -2  134.39    3.30
   3   1  -2  144.89   17.00
   3   1  -2  126.79    4.30
   3   1  -2  127.39    3.70
   3   1  -2  135.79    3.90
  -3  -1   2  138.39    3.80
  -3  -1   2  132.39    3.70
  -3  -1   2  136.69    3.40
  -3  -1   2  127.19    4.10
  -3  -1   2  141.59   16.20
   2   1  -2  131.39    3.60
   2   1  -2  128.49    3.30
   2   1  -2  134.39    3.70
   2   1  -2  130.39    3.30
   2   1  -2  131.59    3.20
   2   1  -2  129.39    3.30
   2   1  -2  107.19   13.10
  -2  -1   2  134.89    3.40
  -2  -1   2  131.39    3.20
  -2  -1   2  132.19    3.70
  -2  -1   2  129.49    3.40
  -2  -1   2  134.59    3.50
  -2  -1   2  110.69   12.70
   1   1  -2  902.11   20.20
   1   1  -2  957.40   20.10
   1   1  -2 1006.80   33.70
   1   1  -2  936.71   20.50
   1   1  -2  956.30   20.20
   1   1  -2  934.21   20.20
  -1  -1   2  942.41   20.50
  -1  -1   2  928.81   20.10
  -1  -1   2  941.81   33.00
  -1  -1   2  912.01   20.20
  -1  -1   2  939.41   20.20
  -1  -1   2  943.41   20.10
   0   1  -2  266.47    5.90
   0   1  -2  261.27    6.00
   0   1  -2  260.77    5.80
   0   1  -2  265.17    5.90
   0   1  -2  261.17    6.10
   0   1  -2  268.67   13.40
   0  -1   2  255.87    5.90
   0  -1   2  266.97    5.90
   0  -1   2  270.97    6.10
   0  -1   2  258.07    5.80
   0  -1   2  287.97   14.10
   0  -1   2  270.27    6.00
  -1   1  -2  116.29    2.80
  -1   1  -2  117.09    3.00
  -1   1  -2  117.69    2.90
  -1   1  -2  116.29    7.60
  -1   1  -2  117.29    2.90
   1  -1   2  117.49    2.80
   1  -1   2  117.69    8.20
   1  -1   2  116.29    2.90
   1  -1   2  116.59    2.90
   1  -1   2  116.19    3.00
   1  -1   2  118.29    2.90
   1  -1   2  119.89    2.90
  -2   1  -2   21.00    0.90
  -2   1  -2   21.90    1.00
  -2   1  -2   21.30    1.10
  -2   1  -2   22.20    0.70
  -2   1  -2   21.00    1.10
  -2   1  -2   19.20    4.60
   2  -1   2   22.50    1.10
   2  -1   2   22.00    4.40
   2  -1   2   22.10    1.00
   2  -1   2   22.40    1.00
   2  -1   2   24.10    0.70
   2  -1   2   22.80    1.10
   2  -1   2   21.10    1.00
  -3   1  -2   60.89    2.10
  -3   1  -2   56.29    2.00
   3  -1   2   64.49    9.50
   3  -1   2   55.49    2.10
   3  -1   2   59.19    1.60
   3  -1   2   59.99    1.50
   3  -1   2   60.99    2.30
   3  -1   2   60.39    2.20
  -4   1  -2   11.10    1.00
  -4   1  -2   12.10    1.00
  -4   1  -2   10.10    1.00
   4  -1   2   -2.30    6.10
   4  -1   2   10.00    1.10
   4  -1   2   10.30    0.60
   4  -1   2   12.40    1.20
   4  -1   2    4.70    7.50
   4  -1   2   10.90    0.70
  -5   1  -2    1.00    0.60
  -5   1  -2   -0.50    0.60
  -5   1  -2    0.30    0.60
   5  -1   2    1.40    7.80
   5  -1   2    0.40    0.40
   5  -1   2  -12.70    9.00
   5  -1   2   -0.20    0.70
   5  -1   2    0.10    0.70
   5  -1   2   -0.50    0.40
  -6   1  -2   17.70    1.60
  -6   1  -2   19.20    1.60
  -6   1  -2   18.90    1.70
   6  -1   2   18.20    1.80
   6  -1   2   18.30   10.90
   6  -1   2   18.30    1.10
   6  -1   2   20.40    1.90
  -7   1  -2   10.60    1.50
  -7   1  -2   11.90    1.50
   7  -1   2    8.60    1.50
   7  -1   2    9.60    1.80
  -8   1  -2    2.50    1.50
  -8   1  -2    2.80    1.60
   8  -1   2   -2.10    1.70
   8  -1   2    4.60    2.10
   8   0  -2    1.90    2.10
  -8   0   2    3.70    1.80
  -8   0   2    1.10    1.70
   7   0  -2    1.50    1.20
   7   0  -2   -2.10    1.50
  -7   0   2    0.90    1.30
  -7   0   2   -2.00    1.20
   6   0  -2   22.00    1.80
   6   0  -2   16.50    2.30
  -6   0   2   18.60    1.90
  -6   0   2   15.90    1.30
  -6   0   2   19.20    1.80
   5   0  -2   77.49   16.60
   5   0  -2   67.39    2.10
   5   0  -2   71.09    3.20
   5   0  -2   72.49    2.90
  -5   0   2   74.09    2.90
  -5   0   2   63.79   16.30
  -5   0   2   71.79    2.30
  -5   0   2   72.59    3.20
  -5   0   2   73.29    3.00
   4   0  -2  104.59   18.00
   4   0  -2  101.59    2.60
   4   0  -2   98.49    3.40
   4   0  -2  107.99    3.70
  -4   0   2  100.99    3.50
  -4   0   2  100.69   17.20
  -4   0   2   95.79    3.30
  -4   0   2  102.49    3.30
  -4   0   2   98.29    2.70
   3   0  -2    5.30    0.40
   3   0  -2    5.10    0.80
   3   0  -2    5.70    0.80
   3   0  -2    2.00    7.30
  -3   0   2    5.90    0.70
  -3   0   2    5.90    9.00
  -3   0   2    5.20    0.80
  -3   0   2    4.60    0.40
  -3   0   2    4.10    0.60
   2   0  -2   23.90    1.00
   2   0  -2   21.80    6.60
   2   0  -2   25.70    0.70
   2   0  -2   24.10    1.20
   2   0  -2   24.70    1.00
   2   0  -2   24.50    1.10
  -2   0   2   24.40    1.20
  -2   0   2   18.40    5.50
  -2   0   2   25.30    1.10
  -2   0   2   25.20    0.70
  -2   0   2   24.90    1.00
  -2   0   2   22.60    1.00
   1   0  -2 1205.58   26.20
   1   0  -2 1205.38   25.90
   1   0  -2 1311.37   38.70
   1   0  -2 1179.88   25.90
  -1   0   2 1177.08   26.10
  -1   0   2 1211.08   37.70
   0   0  -2    0.50    0.10
   0   0  -2    0.50    0.10
   0   0  -2    0.60    0.20
   0   0  -2    0.40    0.20
   0   0  -2    4.60    2.60
   0   0  -2    0.30    0.10
   0   0   2   -1.30    1.80
   0   0   2    1.00    0.10
   0   0   2    0.50    0.10
   0   0   2    0.50    0.10
   0   0   2    0.50    0.20
   0   0   2    0.50    0.20
  -1   0  -2   35.80    1.20
  -1   0  -2   38.40    1.20
  -1   0  -2   37.40    1.00
  -1   0  -2   37.50    1.10
  -1   0  -2   39.10    5.20
  -1   0  -2   37.70    1.20
   1   0   2   37.60    1.20
   1   0   2   36.70    1.00
   1   0   2   36.30    5.00
   1   0   2   37.30    1.10
   1   0   2   38.70    1.20
   1   0   2   37.40    1.30
  -2   0  -2  228.08    5.40
  -2   0  -2  225.98    5.30
  -2   0  -2  220.58    5.50
  -2   0  -2  231.28    5.60
  -2   0  -2  224.08    5.50
   2   0   2  227.18    5.50
   2   0   2  220.88    5.50
   2   0   2  226.18    5.50
   2   0   2  225.38    5.40
   2   0   2  235.58   13.30
   2   0   2  227.88    5.40
  -3   0  -2  233.38    5.70
  -3   0  -2  219.08    5.90
  -3   0  -2  218.78    6.30
   3   0   2  233.88    5.90
   3   0   2  219.78    5.70
   3   0   2  225.68   15.20
   3   0   2  212.58    5.60
  -4   0  -2    2.60    0.60
  -4   0  -2    3.00    0.50
  -4   0  -2    2.60    0.60
  -4   0  -2    2.40    0.50
   4   0   2    2.50    0.60
   4   0   2   -1.30    6.90
   4   0   2    2.30    6.90
   4   0   2    3.20    0.40
   4   0   2    2.50    0.60
  -5   0  -2   22.60    1.50
  -5   0  -2   20.80    1.00
  -5   0  -2   22.40    1.50
  -5   0  -2   23.40    1.60
   5   0   2   22.80   10.00
   5   0   2   21.50    1.00
   5   0   2   24.70    1.70
   5   0   2    8.60   11.20
   5   0   2   20.80    1.60
   5   0   2   22.40    1.00
  -6   0  -2   55.49    2.70
  -6   0  -2   56.89    2.70
  -6   0  -2   61.99    2.70
   6   0   2   55.39    1.80
   6   0   2   63.09    3.00
   6   0   2   45.50   12.70
   6   0   2   40.30   16.50
   6   0   2   56.09    2.90
  -7   0  -2    2.20    1.20
  -7   0  -2    4.90    1.30
  -7   0  -2    5.70    1.20
   7   0   2    5.20    1.50
   7   0   2    4.30    1.50
  -8   0  -2    0.20    1.50
  -8   0  -2    1.00    1.50
  -8   0  -2    1.60    1.70
   8   0   2    3.20    1.70
   8   0   2   -0.90    1.90
   8  -1  -2   15.60    2.80
  -8   1   2   15.10    2.10
  -8   1   2   12.60    2.20
   7  -1  -2    3.00    1.20
   7  -1  -2    4.80    1.60
  -7   1   2    4.10    1.40
  -7   1   2    5.30    1.30
   6  -1  -2    0.30    1.20
   6  -1  -2    0.50    0.90
  -6   1   2   -0.10    0.60
  -6   1   2   -0.40    1.10
  -6   1   2   -0.40    1.10
  -6   1   2    1.40    0.80
   5  -1  -2    0.30    0.80
   5  -1  -2    0.10    0.40
   5  -1  -2    1.30    0.90
  -5   1   2   -0.50    0.80
  -5   1   2    0.00    0.40
  -5   1   2    9.90   12.30
  -5   1   2    0.60    0.80
  -5   1   2   -0.40    0.60
   4  -1  -2    1.70    0.70
   4  -1  -2   -8.40   10.40
   4  -1  -2    0.70    0.60
   4  -1  -2    1.20    0.30
  -4   1   2    0.10    0.50
  -4   1   2    0.70    0.50
  -4   1   2    4.70    8.70
  -4   1   2    1.60    0.30
  -4   1   2    0.70    0.60
   3  -1  -2    1.20    0.20
   3  -1  -2    1.20    0.40
   3  -1  -2    0.80    0.50
   3  -1  -2    0.50    0.50
   3  -1  -2   -3.60    7.00
  -3   1   2    1.90    8.00
  -3   1   2    0.60    0.40
  -3   1   2    0.40    0.40
  -3   1   2    1.50    0.50
  -3   1   2    0.70    0.20
   2  -1  -2    1.90    0.40
   2  -1  -2    0.90    0.30
   2  -1  -2    1.20    0.40
   2  -1  -2    1.70    4.50
   2  -1  -2    1.40    0.30
  -2   1   2    1.00    0.40
  -2   1   2    1.00    0.30
  -2   1   2    1.70    4.30
  -2   1   2    1.30    0.40
  -2   1   2    1.70    0.40
   1  -1  -2   -0.20    0.20
   1  -1  -2    0.40    0.10
   1  -1  -2    0.20    0.20
   1  -1  -2   -1.00    3.10
   1  -1  -2    0.50    0.20
  -1   1   2    0.00    0.10
  -1   1   2    0.40    0.30
  -1   1   2    0.40    0.20
  -1   1   2    1.30    3.00
  -1   1   2   -0.20    0.20
   0  -1  -2 1981.40   51.69
   0   1   2 1986.70   52.19
  -1  -1  -2  410.76   17.30
  -1  -1  -2  404.66    9.00
  -1  -1  -2  405.76    8.90
  -1  -1  -2  407.56    9.20
  -1  -1  -2  409.46    9.10
  -1  -1  -2  423.76    9.00
  -1  -1  -2  399.06    8.90
   1   1   2  417.86    9.00
   1   1   2  428.86   17.70
   1   1   2  407.76    9.10
   1   1   2  412.16    9.20
   1   1   2  406.46    8.90
   1   1   2  408.76    9.00
  -2  -1  -2    0.70    0.30
  -2  -1  -2   -0.10    0.30
  -2  -1  -2    0.70    0.30
  -2  -1  -2    0.20    0.20
  -2  -1  -2    0.30    0.10
  -2  -1  -2   -0.50    4.00
   2   1   2    0.90    0.30
   2   1   2    0.30    0.30
   2   1   2    0.20    0.10
   2   1   2    0.10    0.20
   2   1   2    0.40    0.30
   2   1   2    0.10    0.30
   2   1   2   -2.80    3.80
  -3  -1  -2  124.39    2.90
  -3  -1  -2  124.29    3.30
  -3  -1  -2  120.29    3.90
   3   1   2  118.09   13.80
   3   1   2  115.69    3.50
   3   1   2  124.59    2.80
   3   1   2  126.39    3.60
   3   1   2  121.29    3.50
   3   1   2  116.89    3.40
   3   1   2  133.79   13.20
  -4  -1  -2   74.69    2.70
  -4  -1  -2   72.09    2.50
  -4  -1  -2   70.39    2.00
  -4  -1  -2   76.09    2.70
   4   1   2   74.99    2.70
   4   1   2   84.09   12.00
   4   1   2   46.90   12.00
   4   1   2   73.19    2.80
   4   1   2   74.29    2.00
  -5  -1  -2   49.70    2.30
  -5  -1  -2   47.70    1.70
  -5  -1  -2   50.39    2.30
  -5  -1  -2   50.79    2.20
   5   1   2   51.29    2.50
   5   1   2   50.39    2.40
   5   1   2   37.70    9.40
   5   1   2   46.70   15.60
   5   1   2   49.00    1.60
  -6  -1  -2    5.60    1.10
  -6  -1  -2    4.20    0.90
  -6  -1  -2    2.80    0.90
   6   1   2  -18.00   16.10
   6   1   2    3.40    0.60
   6   1   2   25.10   15.30
   6   1   2    4.10    1.10
   6   1   2    3.90    1.10
  -7  -1  -2   55.49    2.90
  -7  -1  -2   48.50    2.90
  -7  -1  -2   49.30    2.80
   7   1   2   56.79    3.30
   7   1   2   51.89    3.10
  -8  -1  -2   -2.20    1.50
  -8  -1  -2    0.50    1.40
  -8  -1  -2    1.30    1.50
   8   1   2    0.50    1.70
   8   1   2    2.20    1.90
   8  -2  -2    3.40    2.30
  -8   2   2    3.60    1.90
  -8   2   2    1.40    1.60
   7  -2  -2    7.40    1.90
   7  -2  -2    5.70    1.30
  -7   2   2   10.30    1.50
   6  -2  -2    4.90    1.50
   6  -2  -2    5.00    1.00
  -6   2   2    4.10    1.40
  -6   2   2    7.10    1.10
  -6   2   2    5.80    1.20
   5  -2  -2   35.20    2.00
   5  -2  -2   34.00    2.40
   5  -2  -2   39.80   13.40
   5  -2  -2   31.80    1.20
  -5   2   2   35.60    2.30
  -5   2   2   35.50    2.10
  -5   2   2   15.50   12.90
  -5   2   2   32.70    1.90
  -5   2   2   32.40    1.20
   4  -2  -2   94.09    2.50
   4  -2  -2   73.49   13.40
   4  -2  -2   97.89    3.70
   4  -2  -2   98.89    3.40
  -4   2   2   94.39    3.50
  -4   2   2   95.99    3.00
  -4   2   2   96.99    3.30
  -4   2   2   91.39   16.10
  -4   2   2   94.89    2.40
   3  -2  -2   -8.40    6.20
   3  -2  -2    0.40    0.40
   3  -2  -2    0.40    0.50
   3  -2  -2    0.70    0.20
   3  -2  -2    0.20    0.20
  -3   2   2    0.40    0.20
  -3   2   2    0.00    0.30
  -3   2   2    7.20    6.50
  -3   2   2    0.60    0.40
  -3   2   2    1.20    0.50
   2  -2  -2   34.70    1.60
   2  -2  -2   35.00    1.20
   2  -2  -2   36.30    1.40
   2  -2  -2   35.90    1.00
   2  -2  -2   22.00    5.60
   2  -2  -2   34.90    1.40
   2  -2  -2   35.90    1.00
  -2   2   2   33.50    1.50
  -2   2   2   35.90    1.50
  -2   2   2   31.30    6.40
  -2   2   2   37.50    1.40
  -2   2   2   35.60    1.20
   1  -2  -2  812.22   17.60
   1  -2  -2  800.12   18.10
   1  -2  -2  824.82   18.10
   1  -2  -2  841.82   17.90
   1  -2  -2  859.01   27.50
   1  -2  -2  828.92   17.80
  -1   2   2  835.22   18.10
  -1   2   2  817.72   17.60
  -1   2   2  806.52   17.50
  -1   2   2  812.72   27.50
  -1   2   2  818.22   17.90
  -1   2   2  821.72   17.80
   0  -2  -2  512.65   11.40
   0  -2  -2  524.25   11.50
   0  -2  -2  507.25   11.60
   0  -2  -2  508.05   11.20
   0  -2  -2  533.95   20.20
   0  -2  -2  517.55   11.40
   0   2   2  535.65   20.10
   0   2   2  528.45   11.60
   0   2   2  519.85   11.20
   0   2   2  522.15   11.60
   0   2   2  519.25   11.40
   0   2   2  527.15   11.40
  -1  -2  -2  297.07    6.60
  -1  -2  -2  292.27   15.60
  -1  -2  -2  300.47    6.80
  -1  -2  -2  306.17    6.60
  -1  -2  -2  292.27    6.80
  -1  -2  -2  296.37    6.70
  -1  -2  -2  297.57    6.90
   1   2   2  294.77    6.80
   1   2   2  295.77    6.50
   1   2   2  295.37    6.60
   1   2   2  294.77    6.70
   1   2   2  304.87    6.90
   1   2   2  306.17   15.80
  -2  -2  -2  760.22   17.20
  -2  -2  -2  771.02   16.70
  -2  -2  -2  760.62   30.40
  -2  -2  -2  772.22   16.90
  -2  -2  -2  772.52   16.90
  -2  -2  -2  780.92   17.20
   2   2   2  754.82   16.60
   2   2   2  791.42   16.80
   2   2   2  781.12   30.50
   2   2   2  794.92   17.10
   2   2   2  776.62   16.80
   2   2   2  756.12   16.90
   2   2   2  782.02   17.00
  -3  -2  -2   58.59    1.90
  -3  -2  -2   57.89    1.70
  -3  -2  -2   59.19    2.20
  -3  -2  -2   55.99    2.00
   3   2   2   53.69    1.90
   3   2   2   52.39   11.30
   3   2   2   59.09    2.10
   3   2   2   57.59    2.00
   3   2   2   55.39    1.60
   3   2   2   55.59   10.40
  -4  -2  -2   64.39    2.50
  -4  -2  -2   67.29    2.10
  -4  -2  -2   68.59    2.30
  -4  -2  -2   64.99    2.50
   4   2   2   69.39    2.50
   4   2   2   66.59   11.80
   4   2   2   69.69    2.00
   4   2   2   65.39    2.60
   4   2   2   53.79   12.80
  -5  -2  -2   28.20    1.50
  -5  -2  -2   30.70    1.70
  -5  -2  -2   32.20    1.90
  -5  -2  -2   30.80    1.80
   5   2   2   31.20    1.30
   5   2   2   43.30   10.80
   5   2   2   27.90   14.60
   5   2   2   33.20    1.90
   5   2   2   32.10    1.90
  -6  -2  -2    4.60    1.10
  -6  -2  -2    2.00    0.80
  -6  -2  -2    4.50    1.00
   6   2   2    4.10    1.10
   6   2   2    3.00    0.60
   6   2   2    3.00    1.00
   6   2   2    5.90   13.50
  -7  -2  -2   -1.50    1.20
  -7  -2  -2    0.50    1.10
  -7  -2  -2    0.30    1.20
   7   2   2   -0.60    1.30
   7   2   2    1.50    1.40
  -8  -2  -2    0.10    1.50
  -8  -2  -2    3.20    1.70
  -8  -2  -2   -1.70    1.30
   8   2   2    0.00    1.60
   8   2   2    0.60    2.00
   8  -3  -2   -2.10    2.40
  -8   3   2    0.00    1.80
  -8   3   2    0.00    1.60
   7  -3  -2   13.20    2.20
   7  -3  -2    8.60    1.40
  -7   3   2    7.20    1.40
  -7   3   2   11.70    1.90
   6  -3  -2    7.50    1.70
   6  -3  -2    4.90    1.10
  -6   3   2    5.60    1.60
  -6   3   2    3.70    1.10
  -6   3   2    5.20    1.00
   5  -3  -2    1.30    0.50
   5  -3  -2    3.30   10.70
   5  -3  -2    0.40    0.90
   5  -3  -2    2.70    0.80
  -5   3   2    1.90    0.70
  -5   3   2    0.50    0.40
  -5   3   2    1.00    0.80
  -5   3   2   -2.10   11.30
  -5   3   2    0.40    0.70
   4  -3  -2    1.70    8.40
   4  -3  -2    4.30    0.60
   4  -3  -2    5.20    0.70
   4  -3  -2    5.90    1.20
   4  -3  -2    4.30    0.90
  -4   3   2    4.50    0.90
  -4   3   2    4.50    0.80
  -4   3   2    4.10    0.50
  -4   3   2    3.80    0.60
  -4   3   2    8.50    8.40
   3  -3  -2    1.20    0.50
   3  -3  -2    0.00    0.30
   3  -3  -2   -5.00    5.80
   3  -3  -2    0.40    0.30
   3  -3  -2    1.10    0.50
  -3   3   2    0.30    0.30
  -3   3   2    4.20    6.00
  -3   3   2    0.10    0.40
  -3   3   2   -0.10    0.50
   2  -3  -2   46.60    1.90
   2  -3  -2   46.70    1.40
   2  -3  -2   47.30    1.40
   2  -3  -2   44.00    1.60
   2  -3  -2   45.40    1.50
   2  -3  -2   47.20    8.00
  -2   3   2   46.10    1.40
  -2   3   2   44.60    1.70
  -2   3   2   33.80    6.30
  -2   3   2   46.20    1.80
   1  -3  -2   25.80    1.20
   1  -3  -2   24.90    0.90
   1  -3  -2   24.00    1.20
   1  -3  -2   26.10    0.70
   1  -3  -2   23.60    1.00
   1  -3  -2   26.30    0.80
   1  -3  -2   25.10    1.00
   1  -3  -2   24.00    4.90
  -1   3   2   26.30    1.00
  -1   3   2   25.60    0.70
  -1   3   2   23.50    1.10
  -1   3   2   25.80    5.10
  -1   3   2   25.90    1.00
  -1   3   2   23.90    1.20
  -1   3   2   23.10    1.20
   0  -3  -2    1.40    0.20
   0  -3  -2    1.80    0.30
   0  -3  -2    1.30    0.30
   0  -3  -2    0.80    3.90
   0  -3  -2    1.80    0.20
   0  -3  -2    2.40    0.40
   0   3   2    1.40    0.20
   0   3   2    1.60    0.40
   0   3   2    5.30    3.50
   0   3   2    1.40    0.30
   0   3   2    1.30    0.20
   0   3   2    1.70    0.30
  -1  -3  -2   21.70    0.80
  -1  -3  -2   21.80    6.10
  -1  -3  -2   21.40    1.00
  -1  -3  -2   21.20    1.00
  -1  -3  -2   20.80    0.90
  -1  -3  -2   21.60    0.70
   1   3   2   21.50    0.60
   1   3   2   22.00    0.90
   1   3   2   20.10    5.10
   1   3   2   21.20    1.00
   1   3   2   20.60    1.00
   1   3   2   21.60    0.80
  -2  -3  -2    0.00    0.30
  -2  -3  -2   -0.10    0.30
  -2  -3  -2   -5.90    4.30
  -2  -3  -2    0.10    0.40
   2   3   2   -0.40    0.30
   2   3   2    1.30    4.30
   2   3   2    0.20    0.40
   2   3   2   -0.30    0.30
   2   3   2   -0.10    0.20
   2   3   2   -0.10    0.20
   2   3   2   -0.40    0.20
  -3  -3  -2  392.36    9.20
  -3  -3  -2  396.66    8.80
  -3  -3  -2  374.86    8.80
  -3  -3  -2  384.36    9.40
   3   3   2  384.66    8.90
   3   3   2  360.06   23.70
   3   3   2  389.66    8.90
   3   3   2  383.26    8.70
   3   3   2  371.56   25.70
   3   3   2  395.56    9.20
  -4  -3  -2   51.89    2.00
  -4  -3  -2   53.79    2.30
  -4  -3  -2   54.19    2.20
  -4  -3  -2   54.89    2.00
   4   3   2   52.79    9.40
   4   3   2   56.99    2.30
   4   3   2   54.89    1.80
   4   3   2   56.19    2.10
   4   3   2   56.99   17.10
  -5  -3  -2    3.30    0.90
  -5  -3  -2    3.60    0.90
  -5  -3  -2    4.20    0.90
  -5  -3  -2    5.00    0.70
   5   3   2    4.40    0.90
   5   3   2   24.80   15.70
   5   3   2    5.30    0.80
   5   3   2    3.90    0.90
   5   3   2   20.00   12.00
  -6  -3  -2   14.10    1.80
  -6  -3  -2   14.70    1.80
  -6  -3  -2   12.50    1.40
   6   3   2   15.20    1.10
   6   3   2   15.70    1.90
   6   3   2   16.90    1.80
   6   3   2   25.90   15.10
  -7  -3  -2   24.80    2.70
  -7  -3  -2   23.50    2.10
  -7  -3  -2   20.10    2.40
   7   3   2   27.10    2.70
   7   3   2   25.50    2.50
  -8  -3  -2    5.40    1.90
  -8  -3  -2    5.80    1.30
  -8  -3  -2    5.70    2.00
   8   3   2    4.90    1.90
   8   3   2    3.60    1.80
   7  -4  -2    1.70    1.90
   7  -4  -2   -0.90    1.60
  -7   4   2    3.80    1.30
  -7   4   2    3.50    1.90
  -7   4   2   -1.00    1.50
   6  -4  -2   35.80    2.30
   6  -4  -2   32.90    3.20
  -6   4   2   30.80    2.80
  -6   4   2   30.10    2.40
  -6   4   2   33.90    2.00
   5  -4  -2   14.20    2.10
   5  -4  -2   16.20    1.70
   5  -4  -2   12.50    0.90
  -5   4   2   16.80    1.60
  -5   4   2   14.10    0.90
  -5   4   2   14.10    1.30
  -5   4   2   13.10    1.90
  -5   4   2    6.00   12.80
   4  -4  -2   40.20    2.40
   4  -4  -2   39.20    2.10
   4  -4  -2   34.70    1.40
   4  -4  -2   23.20    8.30
   4  -4  -2   34.40    1.50
  -4   4   2   32.30    2.10
  -4   4   2   37.90    2.00
  -4   4   2   32.90    1.60
  -4   4   2   28.10    8.60
   3  -4  -2    2.60    0.50
   3  -4  -2    2.50    0.70
   3  -4  -2   -2.90    5.60
  -3   4   2    2.90    0.70
  -3   4   2   -6.10    5.70
  -3   4   2    2.50    0.50
  -3   4   2    2.70    0.80
   2  -4  -2    2.90    0.60
   2  -4  -2    2.50    4.50
   2  -4  -2    3.60    0.50
   2  -4  -2    3.90    0.50
   2  -4  -2    3.60    0.50
   2  -4  -2    2.30    0.50
  -2   4   2    2.70    0.40
  -2   4   2    0.90    4.70
  -2   4   2    4.10    0.70
   1  -4  -2  155.78   11.10
   1  -4  -2  155.28    3.90
   1  -4  -2  153.58    3.60
   1  -4  -2  155.58    4.00
   1  -4  -2  152.78    3.50
   1  -4  -2  158.48    4.40
   1  -4  -2  159.68    3.80
  -1   4   2  154.08    3.90
  -1   4   2  155.38    4.00
  -1   4   2  159.68    4.40
  -1   4   2  149.88   11.50
   0  -4  -2  622.54   14.10
   0  -4  -2  608.74   13.20
   0  -4  -2  603.34   13.20
   0  -4  -2  604.84   13.60
   0  -4  -2  630.84   25.20
   0  -4  -2  624.24   13.80
   0   4   2  606.14   13.70
   0   4   2  631.64   24.90
   0   4   2  619.34   13.20
   0   4   2  612.94   13.30
   0   4   2  620.34   13.60
  -1  -4  -2    4.80    0.30
  -1  -4  -2    5.50    0.70
  -1  -4  -2    5.70    0.60
  -1  -4  -2   10.40    6.70
   1   4   2    4.80    0.30
   1   4   2    5.70    0.60
   1   4   2    4.70    0.40
   1   4   2    3.00    4.30
   1   4   2    5.40    0.50
   1   4   2    5.60    0.90
  -2  -4  -2    7.30    0.80
  -2  -4  -2    8.40    0.90
  -2  -4  -2    8.50    0.70
  -2  -4  -2    6.60    0.90
   2   4   2    7.70    0.50
   2   4   2    8.20    0.70
   2   4   2    6.60    0.40
   2   4   2    6.70    6.10
   2   4   2    8.80    0.80
   2   4   2    6.80    0.60
   2   4   2    4.50    5.40
  -3  -4  -2   72.39    2.70
  -3  -4  -2   74.29    2.50
  -3  -4  -2   67.29    2.40
   3   4   2   73.29    2.30
   3   4   2   73.09    2.20
   3   4   2   74.39    2.40
   3   4   2   62.99   13.50
   3   4   2   70.19   12.30
   3   4   2   76.29    2.20
  -4  -4  -2    7.00    1.10
  -4  -4  -2    6.80    1.00
  -4  -4  -2    5.80    0.70
   4   4   2    7.60    1.00
   4   4   2    6.80    0.90
   4   4   2    0.60   10.60
   4   4   2   16.10   13.40
   4   4   2    5.70    0.70
  -5  -4  -2   26.90    2.00
  -5  -4  -2   28.90    1.40
  -5  -4  -2   28.50    2.00
   5   4   2   28.80    1.30
   5   4   2   29.60    1.80
   5   4   2   15.00   18.70
   5   4   2   30.10    1.70
   5   4   2   32.40   13.90
  -6  -4  -2    5.80    0.80
  -6  -4  -2    6.40    1.20
  -6  -4  -2    4.40    1.20
   6   4   2   35.40   23.80
   6   4   2    6.50    1.20
   6   4   2    5.50    0.70
   6   4   2    4.20    1.10
  -7  -4  -2    4.60    1.00
  -7  -4  -2    2.70    1.40
  -7  -4  -2    5.70    1.60
   7   4   2    7.30    1.50
   7   4   2    6.50    1.50
  -8  -4  -2    2.10    1.40
  -8  -4  -2   -0.90    1.90
  -8  -4  -2    3.00    1.80
   8   4   2   -0.80    1.80
   8   4   2    3.90    1.80
   7  -5  -2    3.20    1.70
   7  -5  -2    4.70    2.30
  -7   5   2    2.70    1.30
  -7   5   2    0.70    1.50
  -7   5   2    1.10    2.00
   6  -5  -2   -0.30    1.20
   6  -5  -2    1.80    1.80
  -6   5   2    1.90    0.90
  -6   5   2   -1.70    1.50
  -6   5   2    1.20    1.10
   5  -5  -2    6.50    1.70
   5  -5  -2    6.70    1.20
   5  -5  -2    7.40    1.20
  -5   5   2    6.90    1.20
  -5   5   2    8.80    1.70
  -5   5   2    9.20    1.20
   4  -5  -2   39.20    1.90
   4  -5  -2   39.40    7.50
   4  -5  -2   44.10    2.40
   4  -5  -2   43.30    1.70
   4  -5  -2   47.00    2.70
  -4   5   2   43.20    2.20
  -4   5   2   43.50    2.50
  -4   5   2   38.00    8.30
  -4   5   2   43.20    1.70
   3  -5  -2    0.90    0.60
   3  -5  -2    0.60    0.60
   3  -5  -2    0.40    0.60
   3  -5  -2    0.40    0.40
   3  -5  -2    0.50    0.40
   3  -5  -2   -6.10    5.00
  -3   5   2    1.30    0.70
  -3   5   2    0.30    0.30
  -3   5   2    4.80    5.90
  -3   5   2    0.30    0.60
   2  -5  -2   93.49    2.80
   2  -5  -2   94.29    3.30
   2  -5  -2  107.59   10.20
   2  -5  -2   91.79    2.50
   2  -5  -2   90.89    2.40
   2  -5  -2   86.99    2.70
  -2   5   2   95.49   10.30
  -2   5   2   92.49    3.10
  -2   5   2   90.39    2.80
  -2   5   2   90.99    2.40
  -2   5   2   90.69    3.20
   1  -5  -2    8.20    0.90
   1  -5  -2   10.10    0.50
   1  -5  -2   10.40    0.60
   1  -5  -2    9.50    1.00
   1  -5  -2    9.60    0.70
   1  -5  -2    9.40    5.60
  -1   5   2    8.90    0.70
  -1   5   2    8.70    5.80
  -1   5   2    9.00    0.90
  -1   5   2    9.90    0.80
  -1   5   2   10.00    1.00
   0  -5  -2    2.40    0.50
   0  -5  -2   -3.80    5.10
   0  -5  -2    2.70    0.40
   0  -5  -2    2.40    0.30
   0  -5  -2    2.40    0.30
   0  -5  -2    2.40    0.60
   0   5   2    1.90    0.50
   0   5   2    2.00    0.50
   0   5   2    2.30    0.30
   0   5   2    2.50    0.30
   0   5   2    6.00    6.00
  -1  -5  -2   16.70    1.00
  -1  -5  -2   19.00    1.20
  -1  -5  -2   18.20    0.90
   1   5   2   16.20    1.10
   1   5   2   16.90    0.80
   1   5   2   11.70    7.90
  -2  -5  -2  425.66   10.30
  -2  -5  -2  428.76    9.80
   2   5   2  388.16   26.90
   2   5   2  432.16   10.00
   2   5   2  439.46    9.80
   2   5   2  408.86    9.60
  -3  -5  -2  100.59    3.20
  -3  -5  -2  101.59    3.50
   3   5   2  101.89    3.10
   3   5   2  100.59    2.70
   3   5   2   77.09   17.50
   3   5   2  105.19    3.10
   3   5   2  101.99    2.70
   3   5   2  122.19   17.80
  -4  -5  -2   32.20    1.80
  -4  -5  -2   32.20    2.00
  -4  -5  -2   30.70    1.30
   4   5   2   30.50   15.50
   4   5   2    7.00   11.80
   4   5   2   27.90    1.40
   4   5   2   28.90    1.40
   4   5   2   29.90    1.60
   4   5   2   30.60    1.40
  -5  -5  -2    1.10    0.90
  -5  -5  -2    0.60    0.50
  -5  -5  -2    1.40    0.80
   5   5   2   -8.00   21.30
   5   5   2    1.30    0.50
   5   5   2    0.50    0.70
   5   5   2    0.80    0.80
  -6  -5  -2    2.40    1.20
  -6  -5  -2   -0.20    0.70
   6   5   2   -0.40    1.10
   6   5   2   -1.20    0.70
   6   5   2   -0.20    0.90
   6   5   2  -43.00   28.60
  -7  -5  -2    3.80    1.60
  -7  -5  -2    5.20    1.10
  -7  -5  -2    3.10    1.50
   7   5   2    3.00    1.30
   7   5   2    3.50    1.50
  -8  -5  -2    1.60    2.10
  -8  -5  -2    5.10    2.20
   8   5   2    2.50    1.90
   7  -6  -2    1.40    1.90
   7  -6  -2    6.80    2.60
  -7   6   2   -1.40    1.70
  -7   6   2    1.80    2.30
   6  -6  -2   18.10    2.40
   6  -6  -2   17.20    2.90
  -6   6   2   22.30    1.90
  -6   6   2   20.00    2.30
  -6   6   2   25.70    3.00
   5  -6  -2   11.60    1.90
   5  -6  -2    9.90    1.50
  -5   6   2    8.80    1.30
  -5   6   2    9.90    1.40
  -5   6   2    8.20    1.60
   4  -6  -2   49.00    1.80
   4  -6  -2   50.19    2.80
   4  -6  -2   48.70    1.80
   4  -6  -2   45.50    2.90
  -4   6   2   51.69    2.40
  -4   6   2   47.20    1.90
  -4   6   2   51.79    2.80
   3  -6  -2    6.90    4.70
   3  -6  -2    9.60    0.80
   3  -6  -2    7.50    0.70
   3  -6  -2    6.20    1.00
  -3   6   2    8.20    0.70
  -3   6   2    8.40    1.20
  -3   6   2    7.40    1.10
  -3   6   2   17.80    5.30
   2  -6  -2   13.30    1.00
   2  -6  -2   12.40    0.70
   2  -6  -2   12.90    0.90
   2  -6  -2   13.30    1.40
   2  -6  -2    9.00    6.10
  -2   6   2   13.20    1.00
  -2   6   2   13.20    1.40
  -2   6   2   12.40    1.20
  -2   6   2    6.60    6.40
   1  -6  -2    8.20    0.60
   1  -6  -2    7.20    0.70
   1  -6  -2    9.00    1.10
   1  -6  -2    8.90    0.70
   1  -6  -2    9.50    0.90
  -1   6   2    8.40    0.90
  -1   6   2    2.20    6.70
  -1   6   2    8.10    0.70
  -1   6   2    8.30    1.10
   0  -6  -2   39.70    2.00
   0  -6  -2   36.90    1.20
   0  -6  -2   36.40    1.10
   0  -6  -2   40.20    1.80
   0  -6  -2   36.70    1.00
   0  -6  -2   37.60    1.20
   0   6   2   37.30    9.40
   0   6   2   39.10    1.90
   0   6   2   37.70    1.50
   0   6   2   15.50    8.30
   0   6   2   38.10    1.30
   0   6   2   37.50    1.10
  -1  -6  -2   60.69    2.40
  -1  -6  -2   59.49    1.90
   1   6   2   60.49    2.30
   1   6   2   46.50   11.50
   1   6   2   58.49    1.80
   1   6   2   59.39   12.50
   1   6   2   62.29    2.00
  -2  -6  -2   60.69    2.50
  -2  -6  -2   57.09    2.00
   2   6   2   68.19   14.60
   2   6   2   59.49    2.00
   2   6   2   69.69   13.60
   2   6   2   57.89    2.30
  -3  -6  -2  176.78    4.90
  -3  -6  -2  175.28    5.30
   3   6   2  168.28    4.00
   3   6   2  178.48    4.70
   3   6   2  176.48    4.90
   3   6   2  173.38    4.00
   3   6   2  193.68   22.50
   3   6   2  175.18   22.10
  -4  -6  -2   24.50    1.70
  -4  -6  -2   25.50    1.90
   4   6   2    0.70   19.00
   4   6   2   23.90    1.20
   4   6   2   24.10    1.40
   4   6   2   26.40    1.60
   4   6   2   23.50   14.80
  -5  -6  -2    9.60    1.30
  -5  -6  -2   10.60    1.50
   5   6   2  -10.90   13.90
   5   6   2   11.50    1.30
   5   6   2    4.50   24.90
   5   6   2    8.90    1.20
   5   6   2    8.60    1.10
  -6  -6  -2    4.50    1.40
  -6  -6  -2    7.00    1.60
  -6  -6  -2    7.10    0.90
   6   6   2    4.60    1.10
   6   6   2    4.90    1.10
   6   6   2    5.80    0.90
  -7  -6  -2    9.90    1.90
  -7  -6  -2   11.20    1.90
   7   6   2    8.30    1.70
   6  -7  -2    2.50    1.70
   6  -7  -2    6.30    2.40
   6  -7  -2    8.20    1.70
  -6   7   2   10.30    2.20
  -6   7   2    6.80    1.60
   5  -7  -2    5.20    0.80
   5  -7  -2    5.40    1.40
   5  -7  -2    1.10    1.70
  -5   7   2    3.00    0.80
  -5   7   2    3.20    1.20
  -5   7   2    3.70    1.60
   4  -7  -2   18.80    1.20
   4  -7  -2   22.50    2.20
   4  -7  -2   21.30    1.40
   4  -7  -2   20.70    2.40
  -4   7   2   19.90    1.80
  -4   7   2   20.60    1.30
  -4   7   2   23.20    2.20
   3  -7  -2   46.80    2.60
   3  -7  -2   43.40    1.80
   3  -7  -2   42.00    1.50
  -3   7   2   44.20    2.10
  -3   7   2   47.60    2.50
   2  -7  -2   29.00    1.20
   2  -7  -2   29.70    1.60
   2  -7  -2   24.40    1.30
   2  -7  -2   27.90    2.00
  -2   7   2   16.90    8.20
  -2   7   2   25.50    8.20
  -2   7   2   29.70    2.00
  -2   7   2   30.70    1.50
  -2   7   2   28.40    1.80
   1  -7  -2   54.99    1.70
   1  -7  -2   59.59    2.40
   1  -7  -2   56.09    1.90
   1  -7  -2   62.59    2.00
   1  -7  -2   61.09    2.80
   1  -7  -2   56.99    1.70
  -1   7   2   62.79    2.40
  -1   7   2   61.59   11.70
  -1   7   2   42.70    9.90
  -1   7   2   59.89    1.90
  -1   7   2   60.19    2.70
   0  -7  -2  112.69    3.60
   0  -7  -2  103.39    2.80
   0  -7  -2  107.39    3.80
   0  -7  -2  109.69    2.90
   0   7   2  102.59    2.90
   0   7   2   90.49   15.70
   0   7   2  113.39    3.30
   0   7   2   97.29   15.80
   0   7   2  107.99    3.70
  -1  -7  -2    2.10    0.70
   1   7   2    1.60    0.70
   1   7   2   -0.70    9.30
   1   7   2   -1.00   11.00
  -2  -7  -2   25.90    1.80
  -2  -7  -2   26.60    1.30
   2   7   2   44.10   13.70
   2   7   2   27.70    1.30
   2   7   2   26.20    1.70
   2   7   2   46.80   15.00
   3   7   2   -6.70   18.00
   3   7   2    0.00   14.00
   4   7   2  -22.70   17.10
   4   7   2   -7.30   16.40
  -5  -7  -2    4.90    1.40
  -5  -7  -2    3.90    1.10
   5   7   2    3.80    0.90
   5   7   2    3.10    0.80
  -6  -7  -2   -1.80    1.30
  -6  -7  -2    0.70    1.50
   6   7   2   -0.80    1.00
  -7  -7  -2    3.10    1.70
  -7  -7  -2    2.90    2.00
   6  -8  -2   -0.40    1.90
   6  -8  -2    1.80    2.30
   6  -8  -2   -1.40    1.80
  -6   8   2   -1.80    1.70
  -6   8   2   -2.00    2.10
   5  -8  -2    1.50    1.40
   5  -8  -2    2.00    1.50
   5  -8  -2    2.60    1.70
  -5   8   2    3.20    1.40
  -5   8   2    0.30    1.80
   4  -8  -2    3.60    1.40
   4  -8  -2    2.10    0.80
   4  -8  -2    2.20    1.10
   4  -8  -2    0.50    1.40
  -4   8   2    3.60    1.10
  -4   8   2    0.20    1.40
   3  -8  -2    0.00    0.50
   3  -8  -2    1.20    0.90
   3  -8  -2    0.70    0.70
  -3   8   2    1.10    1.10
  -3   8   2    0.10    0.80
   2  -8  -2    3.30    0.40
   2  -8  -2    3.00    0.70
   2  -8  -2    3.50    1.30
   2  -8  -2    2.70    0.70
  -2   8   2    3.70    8.80
  -2   8   2   -1.90    8.80
  -2   8   2    2.00    1.20
  -2   8   2    2.70    0.70
  -2   8   2    3.10    1.00
  -1   8   2   12.20    1.60
  -1   8   2  -12.40   11.30
  -1   8   2   -2.70    9.90
   0  -8  -2    7.60    1.20
   0  -8  -2    8.60    1.30
   0  -8  -2    4.80    0.70
   0   8   2    6.80    0.90
   0   8   2    5.00   10.30
   0   8   2   15.00   13.50
   0   8   2    7.80    1.30
  -1  -8  -2   -0.50    0.50
  -1  -8  -2    0.50    0.80
   1   8   2    9.60   12.40
   1   8   2    0.00    0.80
   1   8   2    0.30    0.60
   1   8   2  -10.00   14.30
  -2  -8  -2   11.50    1.60
  -2  -8  -2   13.10    1.10
   2   8   2   -6.60   14.50
   2   8   2   14.60    1.10
   2   8   2   14.50    1.50
  -3  -8  -2    4.90    1.20
  -3  -8  -2    5.10    0.80
   3   8   2    5.70    1.00
   3   8   2    5.70    0.80
   3   8   2   25.20   18.00
   4   8   2   37.90   20.40
  -5  -8  -2    4.60    1.10
  -5  -8  -2    5.00    1.50
   5   8   2    5.40    1.00
   5   8   2    5.70    1.00
  -6  -8  -2    2.00    1.80
  -6  -8  -2    2.20    1.30
   6   8   2    1.10    1.20
   6   8   2    1.70    1.40
   5  -9  -2    3.50    1.70
   5  -9  -2    4.70    1.80
   5  -9  -2    1.90    1.90
  -5   9   2   -0.30    2.00
  -5   9   2    1.20    1.50
   4  -9  -2    7.40    1.30
   4  -9  -2    6.90    1.80
   4  -9  -2    7.80    1.60
  -4   9   2    8.20    2.00
  -4   9   2    5.50    1.20
   3  -9  -2   -0.10    0.90
   3  -9  -2   -0.30    1.40
   3  -9  -2   -1.30    1.20
  -3   9   2    1.50    0.90
  -3   9   2    1.60    1.20
  -3   9   2    1.80    1.40
   2  -9  -2    0.00    1.30
   2  -9  -2   -0.50    0.80
  -2   9   2  -12.10   10.20
  -2   9   2    2.00    1.10
  -2   9   2    0.40    1.30
   1  -9  -2    0.60    0.90
   1  -9  -2    1.20    0.50
   1  -9  -2    0.40    1.20
  -1   9   2   -6.50   14.20
  -1   9   2   -0.30    1.10
  -1   9   2    0.90    0.90
   0  -9  -2   -0.90    0.90
   0  -9  -2    0.50    0.50
   0   9   2    0.20    0.80
  -1  -9  -2    7.40    1.00
  -1  -9  -2    6.40    1.30
   1   9   2    5.00    0.90
  -2  -9  -2   21.60    2.10
  -2  -9  -2   18.20    1.30
   2   9   2   20.80    1.50
  -3  -9  -2    1.70    0.80
  -3  -9  -2    0.70    1.20
   3   9   2    2.60    0.80
   3   9   2    1.20    1.00
  -4  -9  -2    0.10    1.50
  -4  -9  -2    1.00    1.00
   4   9   2    1.30    0.90
   4   9   2    1.20    1.00
  -5  -9  -2    3.90    1.70
  -5  -9  -2   -0.10    1.30
   5   9   2   -0.90    1.10
  -6  -9  -2    1.90    1.60
  -6  -9  -2    1.10    2.10
   6   9   2    1.40    1.40
   4 -10  -2    5.20    2.00
   4 -10  -2    3.60    1.90
  -4  10   2    5.20    2.10
   3 -10  -2    4.60    1.30
   3 -10  -2    3.60    1.90
  -3  10   2    3.20    1.90
  -3  10   2    7.50    1.80
   2 -10  -2    4.80    1.10
   2 -10  -2    5.80    1.80
  -2  10   2    3.80    1.50
  -2  10   2    4.50    1.50
   1 -10  -2    9.70    1.40
   1 -10  -2    7.90    1.90
  -1  10   2    8.60    1.70
  -1  10   2    8.20    1.40
   0 -10  -2   31.20    2.60
   0  10   2   27.20    2.90
   0  10   2   28.30    2.10
  -1 -10  -2    0.60    0.80
  -1 -10  -2    0.50    1.20
   1  10   2    1.50    0.90
   1  10   2    1.70    1.40
  -2 -10  -2    1.20    0.90
  -2 -10  -2   -0.50    1.30
   2  10   2   -0.90    0.90
   2  10   2    1.90    1.30
  -3 -10  -2    1.10    1.50
  -3 -10  -2    1.00    1.00
   3  10   2   -1.10    1.30
  -4 -10  -2    2.90    1.70
  -4 -10  -2   -0.20    1.30
   4  10   2   -0.30    1.20
  -5 -10  -2    6.60    2.20
  -5 -10  -2   -0.80    1.60
   5  10   2    1.10    1.40
   3 -11  -2   -0.90    1.50
   3 -11  -2    2.20    2.00
   3 -11  -2    3.70    2.40
  -3  11   2   -1.10    2.00
  -3  11   2    2.10    2.20
   2 -11  -2    1.60    1.40
   2 -11  -2    1.20    2.10
  -2  11   2    1.90    1.70
  -2  11   2    0.30    1.90
   1 -11  -2   -0.50    2.00
   1 -11  -2    3.20    1.40
  -1  11   2    1.50    1.80
   0 -11  -2    0.40    1.50
   0 -11  -2    3.30    2.10
   0  11   2    2.00    1.80
  -1 -11  -2    3.00    1.60
   1  11   2   -0.90    1.60
  -2 -11  -2    0.40    1.70
   2  11   2    1.50    1.70
  -3 -11  -2   -1.80    1.80
   3  11   2   -0.60    1.50
  -4 -11  -2   -0.60    2.30
   4  11   2   -2.70    1.50
   1 -12  -2    0.90    1.70
   1 -12  -2    8.00    2.60
  -1  12   2    2.00    2.30
   0 -12  -2   -1.40    1.70
   0 -12  -2    1.20    2.50
   0  12   2    0.30    2.10
  -1 -12  -2   -2.30    2.50
  -1 -12  -2    3.80    2.10
   1  12   2    4.00    2.20
  -2 -12  -2   -0.20    2.10
   2  12   2    4.20    2.30
   2  11  -3   -0.20    1.70
  -2 -11   3    4.10    1.90
  -2 -11   3   -0.60    1.30
   1  11  -3    1.10    1.60
  -1 -11   3    2.00    1.70
  -1 -11   3    0.10    1.20
   0  11  -3    1.10    1.50
   0 -11   3    0.20    1.60
   0 -11   3    1.60    1.00
  -1  11  -3    0.70    1.50
   1 -11   3    1.30    1.00
   1 -11   3    1.00    1.80
  -2  11  -3    5.80    1.90
   2 -11   3    3.20    1.90
   2 -11   3    5.90    1.00
  -3  11  -3   -0.70    1.80
   3 -11   3    3.90    1.90
   3 -11   3    0.60    1.70
   3 -11   3    1.30    1.20
   4  10  -3    8.10    2.00
  -4 -10   3   11.00    2.20
  -4 -10   3    6.80    1.90
   3  10  -3   15.50    2.20
  -3 -10   3   16.30    2.30
  -3 -10   3   17.50    2.70
   2  10  -3    0.70    1.40
  -2 -10   3    1.10    1.40
  -2 -10   3    2.90    1.20
   1  10  -3    6.10    1.40
  -1 -10   3    5.30    1.20
  -1 -10   3    6.90    1.60
   0  10  -3    1.60    1.20
   0 -10   3    0.30    0.80
   0 -10   3    0.80    1.30
  -1  10  -3    1.70    1.20
   1 -10   3   -0.20    0.80
   1 -10   3   -0.10    1.30
  -2  10  -3    0.20    1.30
   2 -10   3    0.90    0.90
   2 -10   3   -1.10    1.40
  -3  10  -3    0.80    1.50
   3 -10   3    2.30    1.60
   3 -10   3   -0.90    1.00
   3 -10   3    0.70    1.30
  -4  10  -3    2.50    1.70
   4 -10   3    2.40    1.10
   4 -10   3    0.30    1.60
   4 -10   3    2.20    1.50
   5   9  -3    0.70    1.90
  -5  -9   3    1.70    1.90
  -5  -9   3    1.70    1.80
   4   9  -3    9.00    1.70
  -4  -9   3    6.30    1.60
  -4  -9   3    8.10    1.70
   3   9  -3    1.00    1.40
  -3  -9   3    3.00    1.40
  -3  -9   3    1.50    1.20
   2   9  -3    0.90    1.20
  -2  -9   3    1.90    1.20
  -2  -9   3    0.00    1.00
   1   9  -3   24.80    2.20
  -1  -9   3   29.20    2.40
  -1  -9   3   27.90    2.00
   0   9  -3    0.50    1.00
   0  -9   3    2.00    1.10
   0  -9   3    1.50    0.80
  -1   9  -3    0.20    0.90
   1  -9   3   -0.10    0.70
   1  -9   3   -1.60    1.00
   1  -9   3    0.10    0.70
  -2   9  -3    5.90    1.20
  -2   9  -3    7.10   10.70
   2  -9   3    2.20    1.30
   2  -9   3    5.00    0.70
  -3   9  -3   -1.10    1.10
   3  -9   3   -1.30    0.80
   3  -9   3   -0.80    1.20
   3  -9   3    0.60    0.80
  -4   9  -3    0.70    1.40
  -4   9  -3    3.50    1.30
   4  -9   3    0.10    1.00
   4  -9   3    2.70    1.40
   4  -9   3    2.50    1.30
  -5   9  -3    1.50    1.40
  -5   9  -3    0.80    1.90
   5  -9   3    2.50    1.50
   5  -9   3   -1.20    1.40
   5  -9   3   -1.40    1.20
   6   8  -3    3.60    1.70
  -6  -8   3    7.20    2.20
  -6  -8   3    4.10    2.00
   5   8  -3    1.00    1.50
  -5  -8   3    1.40    1.50
  -5  -8   3    1.60    1.60
   4   8  -3   43.70    2.90
  -4  -8   3   43.40    2.80
  -4  -8   3   49.60    2.90
   3   8  -3   72.69    3.50
  -3  -8   3   72.89    3.30
  -3  -8   3   70.79    3.20
   2   8  -3    2.90    1.10
  -2  -8   3    3.60    0.90
  -2  -8   3    4.20    1.10
   1   8  -3   12.30    1.60
  -1  -8   3    9.30    1.30
  -1  -8   3    9.70    1.50
  -1  -8   3    8.90    0.90
   0   8  -3   60.29   18.10
   0   8  -3   51.59    2.50
   0  -8   3   20.70   15.40
   0  -8   3   48.10    1.60
   0  -8   3   50.99    2.20
   0  -8   3   51.99    2.70
  -1   8  -3   14.60   14.90
   1  -8   3    8.80   12.00
  -2   8  -3    6.00    1.10
  -2   8  -3    4.90    9.30
   2  -8   3    8.30    1.20
   2  -8   3    6.70    0.70
   2  -8   3    7.60    1.30
   2  -8   3    6.90    1.10
  -3   8  -3    3.80    1.20
  -3   8  -3    5.60    1.00
   3  -8   3    4.70    1.30
   3  -8   3    4.30    0.90
   3  -8   3    5.80    0.80
   3  -8   3    3.70    0.90
  -4   8  -3    4.60    1.10
  -4   8  -3    6.30    1.30
   4  -8   3    5.50    1.40
   4  -8   3    4.70    1.00
   4  -8   3    5.30    1.20
   4  -8   3    2.60    1.00
   4  -8   3    3.80    1.00
  -5   8  -3   -0.50    1.50
  -5   8  -3    0.70    1.10
   5  -8   3    1.60    1.50
   5  -8   3   -1.50    1.30
   5  -8   3    1.10    1.10
   5  -8   3    2.00    1.30
   5  -8   3    1.10    1.20
  -6   8  -3    2.90    1.40
  -6   8  -3    0.60    1.20
   6  -8   3   -1.10    1.50
   6  -8   3   -1.00    1.30
   6  -8   3    1.20    1.50
   6  -8   3    1.20    1.70
   6   7  -3   12.40    1.80
  -6  -7   3    9.30    2.10
  -6  -7   3   13.10    1.90
   5   7  -3    5.60    1.40
  -5  -7   3    3.20    1.40
  -5  -7   3    3.60    1.30
   4   7  -3   10.00    1.60
  -4  -7   3    8.40    1.00
  -4  -7   3   10.60    1.40
  -4  -7   3    8.70    1.40
   3   7  -3   12.80    1.60
  -3  -7   3   13.20    1.10
  -3  -7   3   14.40    1.50
  -3  -7   3   12.30    1.60
   2   7  -3   23.80    1.80
   2   7  -3   46.40   18.40
  -2  -7   3   23.70    1.60
  -2  -7   3   26.90   14.10
  -2  -7   3   23.10    1.10
  -2  -7   3   20.60    1.70
   1   7  -3    1.80   14.40
   1   7  -3    3.60    0.70
  -1  -7   3  -22.30   12.80
  -1  -7   3    4.50    0.90
   0   7  -3    4.70   13.60
   0   7  -3    9.30    1.30
   0  -7   3    8.70    0.70
   0  -7   3    9.60    1.00
   0  -7   3    8.80   12.60
   0  -7   3    8.50    1.20
  -1   7  -3   18.40    1.50
  -1   7  -3   35.60   10.90
   1  -7   3   18.50    1.30
   1  -7   3   16.70    0.70
   1  -7   3   16.60    0.90
   1  -7   3   19.40    1.60
   1  -7   3   19.20    1.00
  -2   7  -3   14.60    1.40
  -2   7  -3   13.70    1.40
  -2   7  -3   25.00    8.40
   2  -7   3   13.60    1.20
   2  -7   3   14.00    1.20
   2  -7   3   14.40    1.60
   2  -7   3   10.60    8.20
   2  -7   3   15.30    1.00
  -3   7  -3    0.40    0.70
  -3   7  -3   -0.80    0.70
   3  -7   3    0.20    0.60
   3  -7   3    0.80    0.70
   3  -7   3    0.10    0.90
   3  -7   3    0.30    0.60
  -4   7  -3    7.30    1.10
  -4   7  -3    5.80    1.10
   4  -7   3    6.00    0.90
   4  -7   3    6.50    1.00
   4  -7   3    4.30    1.00
   4  -7   3    6.90    1.30
   4  -7   3   10.30    1.50
  -5   7  -3   14.90    2.00
  -5   7  -3   17.70    1.80
  -5   7  -3   18.00    1.60
   5  -7   3   16.90    1.80
   5  -7   3   18.10    2.00
   5  -7   3   13.40    1.80
   5  -7   3   14.00    2.00
   5  -7   3   17.60    2.00
  -6   7  -3    0.90    1.10
  -6   7  -3    0.80    1.30
   6  -7   3    0.00    1.40
   6  -7   3    2.40    1.50
   6  -7   3    1.80    1.20
   6  -7   3    3.20    1.40
  -7   7  -3   -0.70    1.30
  -7   7  -3   -3.30    1.60
   7  -7   3   -0.60    1.70
   7  -7   3   -0.40    1.80
   7  -7   3   -0.20    1.40
   7  -7   3    2.50    2.00
   7   6  -3   10.30    1.70
  -7  -6   3    6.60    2.10
   6   6  -3   33.40    2.70
  -6  -6   3   43.20    3.30
  -6  -6   3   34.40    2.50
   5   6  -3    4.70    1.40
  -5  -6   3    2.80    1.10
  -5  -6   3    3.90    0.90
  -5  -6   3    4.70    1.30
   4   6  -3   -0.70    0.90
   4   6  -3   -0.50    1.10
   4   6  -3  -37.50   24.60
  -4  -6   3   -0.40    1.30
  -4  -6   3   -1.10    0.70
  -4  -6   3    1.80    0.90
  -4  -6   3   -0.60   16.50
   3   6  -3   54.59   17.30
   3   6  -3   66.09    1.90
   3   6  -3   71.39    3.00
  -3  -6   3   69.99    2.80
  -3  -6   3   68.99    2.80
  -3  -6   3   68.19    2.20
  -3  -6   3   66.69   17.60
   2   6  -3   75.59   18.00
   2   6  -3   65.99    2.80
  -2  -6   3   69.49    2.60
  -2  -6   3   59.49   13.20
  -2  -6   3   69.59    2.80
  -2  -6   3   68.89    2.10
   1   6  -3   71.39    2.80
   1   6  -3   63.59    2.20
  -1  -6   3   71.69    2.10
  -1  -6   3   75.69    2.80
  -1  -6   3   71.49    2.50
  -1  -6   3   54.39   14.60
   0   6  -3   59.09    2.40
   0   6  -3   42.60   12.10
   0   6  -3   51.99    2.00
   0  -6   3   55.59    2.40
   0  -6   3   58.79    2.10
   0  -6   3   61.19   13.70
   0  -6   3   54.09    2.00
  -1   6  -3    0.90    0.50
  -1   6  -3  -11.10    8.50
  -1   6  -3    1.00    0.60
   1  -6   3  -12.70    8.40
   1  -6   3    0.40    0.60
   1  -6   3    1.60    0.40
   1  -6   3    2.20    0.60
  -2   6  -3  114.09    3.70
  -2   6  -3  104.59   13.00
  -2   6  -3  114.89    3.60
   2  -6   3  117.79    3.40
   2  -6   3  115.99    3.40
   2  -6   3  115.99    3.50
   2  -6   3  108.79   13.80
   2  -6   3  112.89    3.20
   2  -6   3  118.19    4.00
  -3   6  -3   51.39    2.30
  -3   6  -3   46.50    4.10
  -3   6  -3   49.90    2.10
   3  -6   3   50.89    6.30
   3  -6   3   48.60    2.10
   3  -6   3   50.69    2.20
   3  -6   3   48.10    2.10
   3  -6   3   51.69    2.60
  -4   6  -3    1.40    0.80
  -4   6  -3    2.70    0.70
  -4   6  -3    2.80    0.70
   4  -6   3    2.00    1.00
   4  -6   3    1.20    0.80
   4  -6   3    1.40    0.70
   4  -6   3    1.20    0.80
   4  -6   3   -0.10    0.70
  -5   6  -3    3.80    1.10
   5  -6   3    4.00    0.90
   5  -6   3    4.20    1.20
   5  -6   3    3.30    1.30
   5  -6   3    2.70    1.10
  -6   6  -3    1.90    1.10
  -6   6  -3    1.30    1.10
   6  -6   3    2.20    1.20
   6  -6   3    1.40    1.50
   6  -6   3    2.20    1.30
   6  -6   3    0.10    1.10
  -7   6  -3    5.10    1.50
  -7   6  -3    0.30    1.30
   7  -6   3   -0.70    1.50
   7  -6   3   -2.50    1.70
   7  -6   3    2.00    1.40
   7  -6   3    1.70    1.90
   7   5  -3    2.30    1.60
  -7  -5   3    3.60    2.00
  -7  -5   3    0.40    1.50
   6   5  -3   -0.10    1.20
   6   5  -3    1.30    1.30
  -6  -5   3   -0.90    1.10
  -6  -5   3    0.80    1.20
  -6  -5   3   -0.50    1.30
   5   5  -3   20.40    1.80
   5   5  -3   23.90    2.10
   5   5  -3  -13.20   26.50
  -5  -5   3   18.80    2.00
  -5  -5   3   18.60    1.80
  -5  -5   3   42.90   18.00
  -5  -5   3   18.30    1.50
   4   5  -3   56.69    2.70
   4   5  -3   50.89    2.10
   4   5  -3   50.39   23.80
  -4  -5   3   51.49    2.10
  -4  -5   3   48.20    2.30
  -4  -5   3   50.79    2.40
   3   5  -3  106.29    2.90
   3   5  -3  103.59    2.90
   3   5  -3   85.79   17.20
   3   5  -3  108.89    3.80
  -3  -5   3  105.89    3.50
  -3  -5   3  106.79    3.50
  -3  -5   3  108.59   18.70
  -3  -5   3  108.69    3.20
   2   5  -3   84.39   15.30
   2   5  -3   92.99    3.30
  -2  -5   3   95.79    3.10
  -2  -5   3   97.89    3.20
  -2  -5   3   75.59   13.20
  -2  -5   3   97.49    2.80
   1   5  -3   54.59   13.50
   1   5  -3   57.39    1.90
   1   5  -3   62.39    2.40
  -1  -5   3   60.49    1.90
  -1  -5   3   58.59    2.10
  -1  -5   3   63.39    2.40
  -1  -5   3   57.29   10.90
   0   5  -3   47.30    1.70
   0   5  -3   39.30   10.70
   0   5  -3   48.80    2.00
   0   5  -3   50.69    2.00
   0  -5   3   47.20   10.60
   0  -5   3   50.09    2.10
   0  -5   3   51.59    1.70
   0  -5   3   50.99    1.90
  -1   5  -3  161.88    4.40
  -1   5  -3  157.78   14.90
  -1   5  -3  157.28    4.40
   1  -5   3  161.48    3.90
   1  -5   3  156.58    4.70
   1  -5   3  163.18    3.80
   1  -5   3  161.88    4.30
   1  -5   3  146.79   15.00
   1  -5   3  163.48    4.20
  -2   5  -3    8.00    0.90
  -2   5  -3    3.60    5.40
  -2   5  -3    7.90    0.90
   2  -5   3    8.20    0.90
   2  -5   3    8.20    1.10
   2  -5   3    7.80    0.90
   2  -5   3    8.40    0.90
   2  -5   3    2.90    6.10
   2  -5   3    8.80    0.90
  -3   5  -3   92.99    2.90
  -3   5  -3   96.09    3.20
  -3   5  -3   90.99    2.90
  -3   5  -3   72.29    7.90
   3  -5   3   88.49    3.40
   3  -5   3   85.69    9.50
   3  -5   3   92.59    3.10
   3  -5   3   91.79    3.00
   3  -5   3   94.09    3.20
  -4   5  -3   71.89    2.80
  -4   5  -3   72.39    2.60
  -4   5  -3   68.49    2.60
   4  -5   3   76.59    3.00
   4  -5   3   75.49    2.50
   4  -5   3   71.69    2.80
   4  -5   3   77.49    3.10
  -5   5  -3    0.80    0.80
  -5   5  -3    1.70    0.80
   5  -5   3   -0.80    0.70
   5  -5   3    1.00    0.90
   5  -5   3    3.20    1.10
   5  -5   3    1.80    1.10
  -6   5  -3    4.20    1.00
  -6   5  -3    2.70    1.00
  -6   5  -3    1.50    1.00
   6  -5   3    2.40    1.30
   6  -5   3    3.90    1.20
   6  -5   3    3.00    1.40
  -7   5  -3    0.40    1.30
  -7   5  -3    1.00    1.30
  -7   5  -3   -1.00    1.20
   7  -5   3    1.50    1.70
   7  -5   3   -0.40    1.40
   7  -5   3   -0.10    1.70
   7   4  -3    6.90    1.90
   7   4  -3    7.80    1.50
  -7  -4   3    8.20    1.80
  -7  -4   3    4.80    1.40
   6   4  -3   28.90    2.40
   6   4  -3   41.10    2.60
  -6  -4   3   33.90    2.80
  -6  -4   3   36.20    2.30
  -6  -4   3   33.30    2.30
  -6  -4   3   -7.90   26.30
   5   4  -3  109.89    3.90
   5   4  -3  110.89    4.10
   5   4  -3   85.89   22.70
  -5  -4   3  108.59    3.70
  -5  -4   3  111.29   20.90
  -5  -4   3  102.69    3.60
  -5  -4   3  110.79    4.10
   4   4  -3   39.80    2.30
   4   4  -3   39.40    2.00
   4   4  -3   39.90   19.30
  -4  -4   3   41.10    1.90
  -4  -4   3   43.50    2.10
  -4  -4   3    4.70   15.50
  -4  -4   3   43.60    2.00
   3   4  -3    0.80    0.50
   3   4  -3   -0.80    0.50
   3   4  -3   -0.10    0.60
   3   4  -3   -9.30   10.30
  -3  -4   3   -0.20    0.50
  -3  -4   3    0.30    0.50
  -3  -4   3    0.20    0.50
  -3  -4   3   -8.60   11.60
   2   4  -3   -8.40   10.60
  -2  -4   3   -2.50    9.60
   1   4  -3   39.20    1.80
   1   4  -3   35.10    1.30
   1   4  -3   33.80    9.80
  -1  -4   3   32.50    8.90
  -1  -4   3   37.00    1.30
  -1  -4   3   37.20    1.50
  -1  -4   3   37.80    1.70
   0   4  -3    8.20    0.80
   0   4  -3    8.10    0.70
   0   4  -3    6.30    7.00
   0   4  -3    7.60    0.80
   0  -4   3   12.30    6.90
   0  -4   3    7.80    0.70
   0  -4   3    8.30    0.90
   0  -4   3    8.10    0.60
  -1   4  -3    1.60    0.40
  -1   4  -3    0.80    0.40
  -1   4  -3    1.40    0.40
   1  -4   3    1.30    0.40
   1  -4   3    1.90    0.50
   1  -4   3    1.50    0.30
   1  -4   3    1.30    0.30
   1  -4   3    1.60    0.40
   1  -4   3    2.40    6.20
  -2   4  -3   56.09    8.70
  -2   4  -3   59.79    2.00
  -2   4  -3   59.59    2.00
  -2   4  -3   60.49    2.20
   2  -4   3   59.09    2.10
   2  -4   3   61.59    2.10
   2  -4   3   59.69    2.10
   2  -4   3   47.90    8.30
   2  -4   3   59.39    2.10
   2  -4   3   55.29    2.00
  -3   4  -3   34.30    1.70
  -3   4  -3   35.70    6.10
  -3   4  -3   33.00    1.40
  -3   4  -3   35.10    1.50
   3  -4   3   35.70    1.70
   3  -4   3   35.30    1.60
   3  -4   3   31.70    1.40
   3  -4   3   28.90    6.50
   3  -4   3   34.00    1.80
  -4   4  -3   10.80    1.10
  -4   4  -3   14.10    1.20
  -4   4  -3   12.40    1.20
   4  -4   3   11.10    1.00
   4  -4   3   12.10    1.10
   4  -4   3   12.60    6.90
   4  -4   3   12.00    1.50
   4  -4   3   14.50    1.30
   4  -4   3   12.60    1.20
   4  -4   3    9.60    6.00
  -5   4  -3   47.70    2.30
  -5   4  -3   47.10    2.20
  -5   4  -3   48.40    2.30
   5  -4   3   24.00    7.90
   5  -4   3   47.50    2.60
   5  -4   3   29.10    9.40
   5  -4   3   44.00    1.90
   5  -4   3   44.90    2.60
  -6   4  -3    1.10    0.90
  -6   4  -3    1.00    1.00
  -6   4  -3    1.00    0.90
   6  -4   3  -17.50    9.90
   6  -4   3    1.80    1.20
  -7   4  -3    0.50    1.20
  -7   4  -3   -0.90    1.20
  -7   4  -3    0.10    1.10
   7  -4   3   -0.80    1.60
   7  -4   3   -0.60    1.50
  -8   4  -3   -0.50    1.60
  -8   4  -3    2.90    1.70
  -8   4  -3    0.10    1.60
   8  -4   3   -1.10    2.30
   8  -4   3   -0.80    2.00
   7   3  -3   15.20    2.30
   7   3  -3   24.50    2.20
  -7  -3   3   22.80    2.90
  -7  -3   3   18.50    2.30
   6   3  -3    4.10    1.10
  -6  -3   3    3.30    1.10
  -6  -3   3    3.90    1.00
  -6  -3   3    3.00    1.30
   5   3  -3   21.80    1.80
   5   3  -3   17.20   21.30
   5   3  -3   21.40    2.00
  -5  -3   3   20.50    1.50
  -5  -3   3   19.60    1.80
  -5  -3   3   15.80   13.30
  -5  -3   3   19.40    1.70
   4   3  -3   31.60    1.90
   4   3  -3   23.40   16.90
   4   3  -3   34.00    1.80
  -4  -3   3   33.30    1.80
  -4  -3   3   30.80    1.80
  -4  -3   3   17.70   14.50
  -4  -3   3   31.30    1.50
   3   3  -3  302.17    7.30
   3   3  -3  291.47   26.90
   3   3  -3  283.87    7.00
   3   3  -3  297.07    7.70
  -3  -3   3  275.97    7.40
  -3  -3   3  298.67    7.30
  -3  -3   3  292.27    7.40
  -3  -3   3  302.97   23.90
   2   3  -3  500.15   11.90
   2   3  -3  517.05   11.30
   2   3  -3  513.45   11.10
   2   3  -3  480.05   11.50
   2   3  -3  534.55   31.50
  -2  -3   3  519.05   11.50
  -2  -3   3  481.35   11.30
  -2  -3   3  473.85   11.70
  -2  -3   3  515.05   30.50
  -2  -3   3  510.65   11.60
  -2  -3   3  517.45   11.30
   1   3  -3  452.75   25.40
   1   3  -3  416.66    9.00
   1   3  -3  411.86    9.50
   1   3  -3  426.16   10.00
   1   3  -3  426.76    9.20
  -1  -3   3  427.86    9.80
  -1  -3   3  413.86    9.60
  -1  -3   3  416.96    9.60
  -1  -3   3  423.46    9.10
  -1  -3   3  417.26    9.50
  -1  -3   3  412.76   24.80
   0   3  -3  196.08    4.80
   0   3  -3  191.18    4.90
   0   3  -3  189.98    4.60
   0  -3   3  185.08    5.00
   0  -3   3  193.38    4.60
   0  -3   3  184.18    4.80
   0  -3   3  184.78   15.80
   0  -3   3  189.68    5.00
  -1   3  -3   -5.80    4.70
  -1   3  -3    1.00    0.30
   1  -3   3    1.00    0.30
   1  -3   3    1.30    0.30
   1  -3   3    0.90    0.40
   1  -3   3   -3.80    4.40
  -2   3  -3  131.89    3.80
  -2   3  -3  132.59    3.40
  -2   3  -3  133.69   10.40
  -2   3  -3  138.19    3.60
  -2   3  -3  130.49    3.70
   2  -3   3  118.49   11.30
   2  -3   3  129.29    3.60
   2  -3   3  133.09    3.50
   2  -3   3  130.29    3.60
   2  -3   3  133.09    3.60
   2  -3   3  134.09    3.60
  -3   3  -3   58.89    1.80
  -3   3  -3   57.09    2.00
  -3   3  -3   58.09    2.20
  -3   3  -3   53.79    7.90
   3  -3   3   56.99    1.80
   3  -3   3   65.49    9.90
   3  -3   3   56.69    2.30
   3  -3   3   56.39    2.10
   3  -3   3   54.79    2.20
  -4   3  -3    4.80    0.80
  -4   3  -3    4.20    0.80
  -4   3  -3    3.40    0.70
   4  -3   3    4.20    0.80
   4  -3   3    3.30    0.50
   4  -3   3    5.40    0.70
   4  -3   3    4.10    0.90
   4  -3   3    4.20    6.30
  -5   3  -3    2.30    0.70
  -5   3  -3    4.00    0.80
  -5   3  -3    2.10    0.70
   5  -3   3    3.10    0.60
   5  -3   3    2.70    1.00
   5  -3   3    3.20    0.60
   5  -3   3   12.90   10.20
   5  -3   3    2.00    0.90
   5  -3   3  -10.70    8.40
  -6   3  -3    5.90    1.30
  -6   3  -3    5.50    1.10
   6  -3   3    5.20    1.50
   6  -3   3    3.90    1.40
   6  -3   3   -5.60   10.60
  -7   3  -3    1.30    1.10
  -7   3  -3   -1.80    1.10
  -7   3  -3   -0.20    1.10
   7  -3   3    1.40    1.50
   7  -3   3    3.00    1.70
  -8   3  -3    1.10    1.60
  -8   3  -3    0.10    1.50
  -8   3  -3    2.30    1.60
   8  -3   3    0.40    1.90
   8  -3   3    4.40    2.20
   8   2  -3   -0.50    2.20
   8   2  -3   -2.70    1.70
  -8  -2   3   -0.10    1.80
  -8  -2   3    1.70    1.90
   7   2  -3    0.50    1.30
   7   2  -3   -1.10    1.70
  -7  -2   3    2.50    1.50
  -7  -2   3    0.40    1.40
   6   2  -3    1.80    1.20
   6   2  -3    2.90    1.00
  -6  -2   3    2.10    1.10
  -6  -2   3    3.00    1.10
   5   2  -3  353.06    9.50
   5   2  -3  370.16   37.80
   5   2  -3  354.56    9.40
  -5  -2   3  361.56    9.30
  -5  -2   3  362.96    9.30
  -5  -2   3  350.86    8.60
  -5  -2   3  267.37   32.70
   4   2  -3   27.20   14.40
   4   2  -3   39.40    2.10
   4   2  -3   38.30    1.60
   4   2  -3   38.40    2.10
  -4  -2   3   41.00    2.00
  -4  -2   3   40.30    1.60
  -4  -2   3   38.90    1.90
  -4  -2   3   39.20    2.00
  -4  -2   3   56.29   15.70
   3   2  -3   41.40    1.70
   3   2  -3   43.30    1.60
   3   2  -3   44.50    2.00
   3   2  -3   46.20   14.10
   3   2  -3   46.30    2.10
  -3  -2   3   44.40    1.90
  -3  -2   3   48.10   10.40
  -3  -2   3   44.40    1.60
  -3  -2   3   44.50    1.80
  -3  -2   3   44.10    1.50
  -3  -2   3   44.90    1.80
   2   2  -3  142.59    3.70
   2   2  -3  142.39    4.20
   2   2  -3  143.19    3.80
   2   2  -3  140.39   17.60
   2   2  -3  145.39    3.60
  -2  -2   3  146.39    3.80
  -2  -2   3  140.49    3.60
  -2  -2   3  149.79   17.00
  -2  -2   3  147.69    3.80
  -2  -2   3  145.89    3.70
  -2  -2   3  137.79    4.10
   1   2  -3  164.48    3.90
   1   2  -3  155.98    3.90
   1   2  -3  168.58   14.80
   1   2  -3  155.28    3.90
   1   2  -3  162.28    3.70
   1   2  -3  163.48    4.40
  -1  -2   3  146.39   13.60
  -1  -2   3  158.18    4.00
  -1  -2   3  161.28    3.80
  -1  -2   3  153.28    4.30
  -1  -2   3  166.08    4.10
  -1  -2   3  159.48    3.90
  -1  -2   3  158.78    3.90
   0   2  -3    5.30    0.50
   0   2  -3    5.70    0.40
   0   2  -3    5.70    0.50
   0   2  -3   -0.80    4.70
   0   2  -3    5.80    0.60
   0   2  -3    5.00    0.50
   0  -2   3    5.30    0.40
   0  -2   3    8.80    5.00
   0  -2   3    5.70    0.30
   0  -2   3    5.60    0.50
   0  -2   3    5.70    0.60
   0  -2   3    4.90    0.70
  -1   2  -3  970.40   21.40
  -1   2  -3  946.91   21.30
  -1   2  -3 1064.29   33.90
  -1   2  -3  959.20   21.40
  -1   2  -3  981.00   21.20
  -1   2  -3  972.60   21.20
   1  -2   3  964.90   21.30
   1  -2   3  968.50   21.30
   1  -2   3  970.70   21.10
   1  -2   3  980.70   21.30
   1  -2   3  991.40   21.30
   1  -2   3  960.80   21.50
   1  -2   3 1066.39   34.60
  -2   2  -3  243.48    6.30
  -2   2  -3  246.28    6.20
  -2   2  -3  257.27    5.80
  -2   2  -3  252.07   13.90
  -2   2  -3  266.07    7.60
   2  -2   3  240.18   14.60
   2  -2   3  256.17    5.80
   2  -2   3  247.98    6.20
   2  -2   3  259.47    6.20
  -3   2  -3   14.20    0.70
  -3   2  -3    8.70    5.50
  -3   2  -3   13.40    0.90
  -3   2  -3   13.30    1.00
   3  -2   3   14.00    1.10
   3  -2   3   14.80    0.70
   3  -2   3   13.90    1.00
   3  -2   3   17.60    6.60
   3  -2   3   14.30    0.70
  -4   2  -3   62.79    2.40
  -4   2  -3   61.49    2.30
  -4   2  -3   62.29    2.50
   4  -2   3   63.89    2.70
   4  -2   3   59.49    9.80
   4  -2   3   61.39    1.70
   4  -2   3   63.59    2.60
   4  -2   3   59.59    1.70
  -5   2  -3    9.30    1.20
  -5   2  -3    8.70    1.20
  -5   2  -3   10.80    1.20
   5  -2   3    9.80    1.50
   5  -2   3   -3.40    8.80
   5  -2   3    8.90    0.70
   5  -2   3    9.70    0.60
   5  -2   3   -2.00   10.70
   5  -2   3   11.70    1.50
  -6   2  -3    8.90    1.30
  -6   2  -3   10.20    1.40
  -6   2  -3   12.70    1.60
   6  -2   3    9.30    1.40
   6  -2   3    7.10    1.50
   6  -2   3   -7.80   11.50
  -7   2  -3   -0.80    1.10
  -7   2  -3   -0.50    1.20
  -7   2  -3    0.90    1.10
   7  -2   3   -0.30    1.50
   7  -2   3    0.00    1.30
  -8   2  -3   -1.00    1.40
  -8   2  -3    0.20    1.40
  -8   2  -3   -0.20    1.60
   8  -2   3    3.30    2.20
   8  -2   3   -0.90    1.70
   8   1  -3    4.30    1.70
   8   1  -3    1.70    2.20
  -8  -1   3   -2.50    1.90
  -8  -1   3    1.80    1.90
   7   1  -3   10.90    2.00
   7   1  -3   12.80    1.60
  -7  -1   3   11.70    2.00
  -7  -1   3   16.00    2.30
   6   1  -3   10.40    1.80
   6   1  -3   11.90    1.80
  -6  -1   3   12.90    1.80
  -6  -1   3   11.10    1.80
   5   1  -3  226.88    6.90
   5   1  -3  196.48   31.60
   5   1  -3  231.78    6.80
  -5  -1   3  225.08    6.70
  -5  -1   3  224.08    5.60
  -5  -1   3  239.28    6.70
  -5  -1   3  212.78   26.10
  -5  -1   3  229.88    6.50
   4   1  -3  361.56    9.20
   4   1  -3  353.36    9.10
   4   1  -3  329.97   30.00
   4   1  -3  342.57    8.00
  -4  -1   3  356.16    8.80
  -4  -1   3  356.66    8.10
  -4  -1   3  339.37   29.90
  -4  -1   3  351.06    9.00
  -4  -1   3  355.46    8.90
   3   1  -3   60.79    2.50
   3   1  -3   46.90   12.70
   3   1  -3   58.89    2.30
   3   1  -3   58.19    1.70
  -3  -1   3   57.39    1.70
  -3  -1   3   57.29    2.20
  -3  -1   3   57.99    2.20
  -3  -1   3   56.49   12.70
  -3  -1   3   58.49    1.60
  -3  -1   3   58.59    2.10
   2   1  -3  429.76   10.10
   2   1  -3  431.16    9.30
   2   1  -3  403.26    9.40
   2   1  -3  410.86   24.40
   2   1  -3  424.86    9.50
  -2  -1   3  430.46    9.30
  -2  -1   3  420.46    9.60
  -2  -1   3  391.46   10.00
  -2  -1   3  421.16    9.60
  -2  -1   3  407.36   24.90
  -2  -1   3  428.16    9.20
   1   1  -3    5.80    0.50
   1   1  -3    5.80    0.70
   1   1  -3    6.30    0.50
   1   1  -3   10.40    6.00
   1   1  -3    6.50    0.40
   1   1  -3    6.50    0.40
  -1  -1   3    6.00    0.50
  -1  -1   3    5.90    0.50
  -1  -1   3    6.90    0.80
  -1  -1   3    7.00    0.50
  -1  -1   3    6.40    0.50
  -1  -1   3    6.40    0.50
  -1  -1   3   -2.00    5.00
   0   1  -3  465.75   10.40
   0   1  -3  468.35   10.40
   0   1  -3  459.55   10.40
   0   1  -3  466.25   10.20
   0   1  -3  481.85   10.70
   0   1  -3  483.25   21.90
   0  -1   3  471.05   10.40
   0  -1   3  472.95   10.60
   0  -1   3  459.35   10.20
   0  -1   3  465.75   10.50
   0  -1   3  497.55   22.50
  -1   1  -3  233.98    5.40
  -1   1  -3  225.88    5.60
  -1   1  -3  227.38    5.30
  -1   1  -3  228.58    5.50
  -1   1  -3  232.48    5.30
   1  -1   3  229.18    5.40
   1  -1   3  232.68    5.50
   1  -1   3  231.48    5.40
   1  -1   3  235.68    5.30
   1  -1   3  230.38    5.40
   1  -1   3  229.78    5.60
  -2   1  -3  254.87    6.30
  -2   1  -3  270.57   15.00
  -2   1  -3  254.97    6.10
  -2   1  -3  259.47    5.60
  -2   1  -3  258.07    6.30
   2  -1   3  258.47    5.70
   2  -1   3  253.77    6.20
   2  -1   3  254.77   15.30
   2  -1   3  259.37    6.20
   2  -1   3  247.28    6.30
   2  -1   3  258.47    6.20
   2  -1   3  246.48    6.10
  -3   1  -3  131.69    3.80
  -3   1  -3  129.79    3.60
  -3   1  -3  132.19   11.60
   3  -1   3  135.09    3.90
   3  -1   3  124.69   11.70
   3  -1   3  130.59    3.90
  -4   1  -3  165.78    4.60
  -4   1  -3  164.88    4.60
  -4   1  -3  160.78    4.70
   4  -1   3  160.38    4.80
   4  -1   3  173.08   15.20
   4  -1   3  166.78    5.00
  -5   1  -3    3.50    0.90
  -5   1  -3    2.30    0.70
  -5   1  -3    2.30    0.70
   5  -1   3   13.10    9.30
   5  -1   3    3.80    1.00
   5  -1   3    9.30    9.90
   5  -1   3    2.20    0.70
  -6   1  -3   15.70    1.70
  -6   1  -3   13.10    1.70
  -6   1  -3   13.10    1.60
   6  -1   3   12.70    1.90
   6  -1   3   16.40    1.80
  -7   1  -3   -0.40    1.10
  -7   1  -3   -0.20    1.20
  -7   1  -3   -0.30    1.10
   7  -1   3    1.00    1.20
   7  -1   3   -1.90    1.40
  -8   1  -3    1.40    1.60
  -8   1  -3   -1.70    1.50
  -8   1  -3   -1.30    1.40
   8  -1   3    0.40    1.90
   8  -1   3   -3.20    1.70
   8   0  -3    1.80    2.40
   8   0  -3    0.50    1.80
  -8   0   3    4.70    2.00
  -8   0   3    1.20    1.80
   7   0  -3   18.40    2.20
   7   0  -3   13.20    2.20
  -7   0   3   19.20    2.40
  -7   0   3   10.70    1.80
   6   0  -3    0.70    1.00
   6   0  -3   -0.30    1.20
  -6   0   3    2.30    1.00
  -6   0   3    2.30    1.20
  -6   0   3    1.50    1.10
   5   0  -3    1.30    1.00
   5   0  -3    2.20   15.10
   5   0  -3    1.30    1.00
  -5   0   3    6.30   15.60
  -5   0   3    2.40    0.80
  -5   0   3    1.80    0.70
  -5   0   3    1.30    0.90
  -5   0   3    1.00    0.40
   4   0  -3  -14.50   11.20
   4   0  -3    8.20    1.20
   4   0  -3    5.70    1.10
   4   0  -3    5.00    0.50
  -4   0   3    4.20    0.90
  -4   0   3    6.40    1.00
  -4   0   3    3.60    0.50
  -4   0   3   23.00   11.60
  -4   0   3    4.80    0.80
   3   0  -3   36.60    1.80
   3   0  -3   27.50    8.20
  -3   0   3   36.90    1.70
  -3   0   3   35.30    1.60
  -3   0   3   38.70    1.60
   2   0  -3 1544.55   32.40
   2   0  -3 1522.85   32.30
  -2   0   3 1353.86   32.70
  -2   0   3 1598.74   52.19
  -2   0   3 1536.65   32.40
  -2   0   3 1508.05   32.60
   1   0  -3  764.62   16.90
   1   0  -3  799.72   31.20
   1   0  -3  775.02   16.60
   1   0  -3  759.22   16.90
   1   0  -3  778.32   17.40
   1   0  -3  780.02   16.80
  -1   0   3  778.92   17.30
  -1   0   3  797.12   16.70
  -1   0   3  822.52   31.80
  -1   0   3  774.82   17.00
  -1   0   3  772.52   17.00
  -1   0   3  775.02   16.80
   0   0  -3  152.28    3.90
   0   0  -3  155.08    3.70
   0   0  -3  154.38    3.70
   0   0  -3  158.18    3.60
   0   0  -3  154.18    3.70
   0   0  -3  150.98   11.70
   0   0   3  157.18    3.70
   0   0   3  154.88    3.90
   0   0   3  154.08    3.60
   0   0   3  153.68    3.70
   0   0   3  147.89   11.30
   0   0   3  154.78    3.70
  -1   0  -3  223.38    5.20
  -1   0  -3  225.98    5.50
  -1   0  -3  225.68    5.30
  -1   0  -3  229.98    5.30
  -1   0  -3  222.78   13.60
  -1   0  -3  229.38    5.20
   1   0   3  224.28    5.20
   1   0   3  221.68   13.90
   1   0   3  224.58    5.50
   1   0   3  233.08    5.30
   1   0   3  223.18    5.20
   1   0   3  228.68    5.30
   1   0   3  229.58    5.30
  -2   0  -3   -1.80    4.20
  -2   0  -3    2.10    0.50
  -2   0  -3    1.90    0.40
  -2   0  -3    1.80    0.30
   2   0   3    1.90    0.40
   2   0   3    0.70    0.40
   2   0   3   -7.20    3.90
  -3   0  -3  106.59    3.30
   3   0   3  108.19    3.30
   3   0   3  101.79    3.20
   3   0   3  111.39   12.30
  -4   0  -3    3.50    0.70
  -4   0  -3    2.70    0.60
   4   0   3    3.30    0.70
   4   0   3    4.90    0.80
   4   0   3    1.30    7.40
  -5   0  -3   19.30    1.60
  -5   0  -3   17.60    1.40
  -5   0  -3   17.10    1.30
   5   0   3   15.10   10.20
   5   0   3   13.60   12.40
   5   0   3   16.10    1.50
   5   0   3   17.40    1.60
  -6   0  -3    1.10    0.80
  -6   0  -3    3.90    1.00
  -6   0  -3    1.40    0.80
   6   0   3    2.30    1.00
   6   0   3   18.40   18.40
   6   0   3    0.80    0.90
  -7   0  -3    8.60    1.60
  -7   0  -3    7.20    1.40
  -7   0  -3    8.00    1.40
   7   0   3    9.70    1.70
   7   0   3    7.20    1.50
  -8   0  -3    0.80    1.40
  -8   0  -3    2.60    1.70
  -8   0  -3    0.30    1.60
   8   0   3    3.10    1.90
   8   0   3    3.20    1.70
   8  -1  -3    1.40    2.40
   8  -1  -3   -0.10    2.40
  -8   1   3   -1.00    1.60
  -8   1   3    0.00    1.90
   7  -1  -3    1.90    1.80
   7  -1  -3    4.80    1.40
  -7   1   3    3.30    1.50
  -7   1   3    2.50    1.20
   6  -1  -3   22.00    2.60
   6  -1  -3   19.10    2.00
  -6   1   3   15.30    2.40
  -6   1   3   17.60    2.10
  -6   1   3   18.80    1.70
   5  -1  -3  366.66   31.80
   5  -1  -3  425.56   11.40
   5  -1  -3  434.96   11.00
  -5   1   3  418.56   10.80
  -5   1   3  419.66   11.00
  -5   1   3  418.06   10.50
  -5   1   3  425.46   33.70
   4  -1  -3  167.68   21.90
   4  -1  -3  173.98    5.30
   4  -1  -3  171.78    5.50
  -4   1   3  171.68    4.80
  -4   1   3  173.38    5.10
  -4   1   3  169.58    5.20
  -4   1   3  200.88   21.50
   3  -1  -3   66.89    2.40
   3  -1  -3   67.69    2.60
   3  -1  -3   94.89   14.50
  -3   1   3   64.89    2.40
  -3   1   3   62.59    2.50
  -3   1   3   44.70   11.50
   2  -1  -3   84.59   11.80
   2  -1  -3   87.69    2.70
   2  -1  -3   93.09    3.10
   2  -1  -3   93.49    2.40
  -2   1   3   93.99    2.50
  -2   1   3   93.59    2.70
  -2   1   3   86.79   11.80
   1  -1  -3  419.56    9.30
   1  -1  -3  421.76    9.40
   1  -1  -3  420.46    9.10
   1  -1  -3  384.06   20.10
   1  -1  -3  424.26    9.00
   1  -1  -3  416.16    9.70
  -1   1   3  417.86    9.10
  -1   1   3  419.06    9.40
  -1   1   3  419.16    9.40
  -1   1   3  413.56   20.80
  -1   1   3  417.86    9.00
  -1   1   3  416.76    9.70
   0  -1  -3   49.50    1.30
   0  -1  -3   48.10    1.50
   0  -1  -3   47.50    1.60
   0  -1  -3   49.40    1.50
   0  -1  -3   58.89    7.30
   0  -1  -3   48.10    1.40
   0   1   3   48.50    1.50
   0   1   3   47.90    1.40
   0   1   3   47.10    1.20
   0   1   3   48.40    1.60
   0   1   3   49.40    7.90
   0   1   3   48.80    1.50
   0   1   3   50.69    1.20
  -1  -1  -3   52.29    1.70
  -1  -1  -3   53.49    1.50
  -1  -1  -3   53.89    1.60
  -1  -1  -3   56.29    8.30
  -1  -1  -3   54.29    1.70
  -1  -1  -3   53.29    1.60
  -1  -1  -3   52.29    1.60
   1   1   3   52.89    1.50
   1   1   3   58.49    7.90
   1   1   3   52.19    1.70
   1   1   3   52.59    1.50
   1   1   3   54.59    1.60
   1   1   3   52.09    1.60
  -2  -1  -3   26.50    0.90
  -2  -1  -3   28.20    1.10
  -2  -1  -3   26.00    1.30
  -2  -1  -3   30.80    7.10
  -2  -1  -3   27.40    1.20
  -2  -1  -3   27.90    1.30
  -2  -1  -3   26.90    0.80
   2   1   3   28.00    6.90
   2   1   3   27.40    1.30
   2   1   3   27.10    1.10
   2   1   3   26.90    1.10
   2   1   3   28.10    1.20
   2   1   3   27.30    1.10
  -3  -1  -3   28.10    1.50
  -3  -1  -3   27.90    1.30
  -3  -1  -3   26.60    7.20
   3   1   3   26.30    1.50
   3   1   3   25.40    1.30
   3   1   3   36.20    7.70
  -4  -1  -3    0.80    0.40
  -4  -1  -3    1.40    0.60
  -4  -1  -3    0.80    0.50
   4   1   3   16.30    7.60
   4   1   3   -7.10    9.00
   4   1   3    0.90    0.50
   4   1   3    0.60    0.50
  -5  -1  -3    0.60    0.70
  -5  -1  -3   -1.30    0.60
  -5  -1  -3   -0.20    0.60
   5   1   3    0.50    0.70
   5   1   3    1.40    9.50
   5   1   3   -0.40    0.70
   5   1   3  -12.60   12.30
  -6  -1  -3   -0.60    0.90
  -6  -1  -3    0.00    0.80
  -6  -1  -3    1.00    0.80
   6   1   3   -1.50    0.90
   6   1   3    8.90   16.50
   6   1   3    0.00    1.00
  -7  -1  -3    0.40    1.00
  -7  -1  -3    1.90    1.20
  -7  -1  -3   -1.00    1.10
   7   1   3   -0.50    1.30
   7   1   3   -0.10    1.20
  -8  -1  -3    1.20    1.40
  -8  -1  -3    3.30    1.70
  -8  -1  -3   -0.60    1.60
   8   1   3    4.30    1.80
   8   1   3    0.60    1.80
   8  -2  -3    1.20    2.50
  -8   2   3    1.10    1.70
  -8   2   3   -2.40    1.90
   7  -2  -3    9.90    1.50
   7  -2  -3    5.70    2.00
  -7   2   3    7.10    2.10
  -7   2   3    8.20    1.80
  -7   2   3    8.70    1.50
   6  -2  -3   -0.60    1.40
   6  -2  -3   -1.90    1.00
  -6   2   3    1.50    1.30
  -6   2   3    1.60    0.90
  -6   2   3    0.30    1.00
   5  -2  -3  135.39    5.10
   5  -2  -3  137.99    4.80
  -5   2   3  137.29    4.30
  -5   2   3  132.79    4.50
  -5   2   3  132.29    4.80
  -5   2   3  110.49   20.60
   4  -2  -3  169.78   21.40
   4  -2  -3  181.28    5.80
   4  -2  -3  186.08    5.60
  -4   2   3  166.58   20.00
  -4   2   3  185.98    5.40
  -4   2   3  183.48    5.60
  -4   2   3  188.88    5.00
   3  -2  -3   -1.60    7.00
   3  -2  -3    1.00    0.60
   3  -2  -3    0.30    0.40
  -3   2   3    7.20    7.50
  -3   2   3    0.80    0.60
  -3   2   3    0.30    0.40
  -3   2   3    1.10    0.40
   2  -2  -3  219.58    5.10
   2  -2  -3  223.28    5.90
  -2   2   3  212.78   16.20
  -2   2   3  222.78    5.20
  -2   2   3  220.38    5.50
  -2   2   3  222.38    5.70
   1  -2  -3  372.66   19.10
   1  -2  -3  364.26    8.60
   1  -2  -3  358.06    7.90
   1  -2  -3  334.47    8.20
   1  -2  -3  364.76    7.70
   1  -2  -3  365.26    8.10
  -1   2   3  366.76    7.90
  -1   2   3  362.86    7.80
  -1   2   3  353.66   19.10
  -1   2   3  358.76    8.30
  -1   2   3  363.46    8.20
  -1   2   3  350.46    8.50
   0  -2  -3  208.68    5.20
   0  -2  -3  216.58    5.00
   0  -2  -3  215.18    5.20
   0  -2  -3  213.18    5.00
   0  -2  -3  207.28   13.60
   0  -2  -3  209.98    4.80
   0   2   3  213.68    5.20
   0   2   3  216.98    5.00
   0   2   3  210.38    4.80
   0   2   3  173.38   12.70
   0   2   3  202.38    5.00
  -1  -2  -3  130.39    3.50
  -1  -2  -3  137.09    3.20
  -1  -2  -3  134.69    3.50
  -1  -2  -3  135.29    3.40
  -1  -2  -3  134.09    3.60
  -1  -2  -3  135.89   11.30
  -1  -2  -3  136.49    3.30
   1   2   3  132.09    3.40
   1   2   3  135.29    3.20
   1   2   3  133.59    3.50
   1   2   3  139.59   11.30
   1   2   3  134.19    3.20
  -2  -2  -3   92.29    2.30
  -2  -2  -3   84.99    2.70
  -2  -2  -3   86.09   11.70
  -2  -2  -3   92.79    2.40
  -2  -2  -3   91.29    2.60
  -2  -2  -3   89.39    2.50
  -2  -2  -3   92.09    2.80
   2   2   3   76.69   11.30
   2   2   3   94.09    2.70
   2   2   3   89.59    2.50
   2   2   3   90.69    2.40
   2   2   3   92.59    2.50
   2   2   3   86.59    2.80
   2   2   3   94.79    2.50
  -3  -2  -3   41.30    1.80
  -3  -2  -3   41.30   10.20
  -3  -2  -3   41.60    1.30
  -3  -2  -3   41.30    1.70
   3   2   3   41.50    1.30
   3   2   3   43.50    1.80
   3   2   3   48.60    9.40
   3   2   3   43.30    1.60
   3   2   3   39.60    1.60
  -4  -2  -3   91.09    2.80
  -4  -2  -3   89.79    2.40
  -4  -2  -3   90.59    3.20
  -4  -2  -3   91.09    3.10
   4   2   3   93.19    3.20
   4   2   3  110.79   18.60
   4   2   3   91.29    3.00
   4   2   3   88.49    2.30
   4   2   3   96.99   14.30
  -5  -2  -3   40.40    2.20
  -5  -2  -3   42.00    1.90
  -5  -2  -3   39.70    1.50
  -5  -2  -3   42.10    2.20
   5   2   3   34.70   11.20
   5   2   3   40.10    2.00
   5   2   3   40.10    1.30
   5   2   3   42.70    2.20
  -6  -2  -3    1.30    1.00
  -6  -2  -3    0.80    0.70
  -6  -2  -3    1.30    0.90
   6   2   3   -1.80    0.90
   6   2   3   -0.40    0.90
   6   2   3    2.90   18.30
  -7  -2  -3    4.60    1.20
  -7  -2  -3    2.60    1.30
   7   2   3    3.60    1.40
   7   2   3    5.30    1.30
  -8  -2  -3    2.90    1.70
  -8  -2  -3    1.90    1.30
  -8  -2  -3    0.40    1.80
   8   2   3    2.80    1.80
   8   2   3   -0.30    1.80
   7  -3  -3   10.50    1.60
   7  -3  -3   13.50    2.30
  -7   3   3   11.80    2.30
  -7   3   3   16.80    2.50
  -7   3   3   14.80    2.20
   6  -3  -3    2.00    1.30
   6  -3  -3    0.00    1.40
  -6   3   3    2.90    0.90
  -6   3   3    0.10    1.30
  -6   3   3    1.20    1.10
   5  -3  -3   31.40    2.30
   5  -3  -3   28.10    2.50
  -5   3   3   29.70    2.00
  -5   3   3   30.00    2.40
  -5   3   3   25.60    1.70
   4  -3  -3   44.90    2.40
   4  -3  -3   26.20   11.90
  -4   3   3   44.40    2.40
  -4   3   3   36.10   11.00
  -4   3   3   44.40    1.80
  -4   3   3   45.20    2.20
   3  -3  -3   23.60    8.60
   3  -3  -3   28.10    1.70
   3  -3  -3   23.70    1.20
  -3   3   3   25.80    1.50
  -3   3   3   24.60    1.60
  -3   3   3   26.90    1.20
  -3   3   3   23.60    9.10
   2  -3  -3  400.96   21.00
   2  -3  -3  407.46    8.90
   2  -3  -3  402.26    9.90
   2  -3  -3  403.46    8.90
   2  -3  -3  406.26    9.00
  -2   3   3  408.16    9.60
  -2   3   3  416.16    9.10
  -2   3   3  410.56    9.80
  -2   3   3  405.26   21.80
   1  -3  -3    5.10    0.50
   1  -3  -3    4.50    4.30
   1  -3  -3    4.10    0.50
   1  -3  -3    4.50    0.70
  -1   3   3    4.60    0.50
  -1   3   3   -2.20    4.80
  -1   3   3    3.80    0.60
  -1   3   3    4.10    0.50
   0  -3  -3   15.70    0.70
   0  -3  -3   16.40    1.00
   0  -3  -3   19.00    0.90
   0  -3  -3   20.00    5.90
   0  -3  -3   14.90    0.80
   0   3   3   15.70    0.80
   0   3   3   16.60    5.10
   0   3   3   20.70    0.90
   0   3   3   15.70    1.00
   0   3   3   19.50    0.80
  -1  -3  -3    4.50    0.60
  -1  -3  -3    4.50    0.60
  -1  -3  -3    4.60    0.60
  -1  -3  -3   -2.70    5.40
  -1  -3  -3    5.60    0.50
  -1  -3  -3    4.60    0.60
  -1  -3  -3    4.80    0.40
   1   3   3    4.10    0.60
   1   3   3    4.40    0.60
   1   3   3    3.40    0.50
   1   3   3    5.00    0.40
   1   3   3    3.70    5.50
   1   3   3    5.60    0.40
  -2  -3  -3   27.60    1.10
  -2  -3  -3   26.30    1.10
  -2  -3  -3   25.70    1.10
  -2  -3  -3   30.00    8.40
  -2  -3  -3   25.80    1.30
  -2  -3  -3   25.30    1.10
   2   3   3   26.50    1.10
   2   3   3   28.30    1.20
   2   3   3   27.00    1.00
   2   3   3   22.50    7.70
   2   3   3   26.50    1.10
   2   3   3   26.10    1.00
  -3  -3  -3  306.47    7.40
  -3  -3  -3  291.57   21.70
  -3  -3  -3  300.17    7.00
  -3  -3  -3  298.17    7.70
   3   3   3  301.87    7.00
   3   3   3  309.37   22.10
   3   3   3  303.67    7.50
   3   3   3  307.07    7.20
   3   3   3  297.47    7.10
  -4  -3  -3   52.89    2.20
  -4  -3  -3   50.09    1.80
  -4  -3  -3   57.59    2.50
   4   3   3   41.10    8.60
   4   3   3   56.69    2.10
   4   3   3   58.89   15.20
   4   3   3   54.69    2.30
   4   3   3   54.59    1.70
  -5  -3  -3   -0.50    0.70
  -5  -3  -3   -0.50    0.70
  -5  -3  -3    0.20    0.50
  -5  -3  -3    1.00    0.70
   5   3   3    0.30    0.80
   5   3   3   -4.60   12.20
   5   3   3   -0.60    0.60
   5   3   3   -0.40    0.40
   5   3   3    8.80   11.90
  -6  -3  -3   -0.50    0.70
  -6  -3  -3    0.40    1.00
  -6  -3  -3    2.90    1.10
   6   3   3  -20.60   20.60
   6   3   3    1.40    0.90
   6   3   3    0.50    0.50
   6   3   3    0.90    1.10
  -7  -3  -3   -2.00    1.20
  -7  -3  -3    2.00    1.40
   7   3   3    1.10    2.10
   7   3   3   -1.30    1.30
  -8  -3  -3   -1.90    1.70
  -8  -3  -3    0.10    1.20
  -8  -3  -3    2.80    1.80
   8   3   3    4.10    1.70
   8   3   3    0.40    1.80
   7  -4  -3    3.90    2.10
   7  -4  -3    2.70    1.70
  -7   4   3    0.40    1.50
  -7   4   3    0.40    1.30
  -7   4   3   -1.50    2.10
   6  -4  -3   10.60    2.10
  -6   4   3   12.60    1.70
  -6   4   3    8.40    1.80
  -6   4   3    8.70    1.50
   5  -4  -3  109.29    5.30
   5  -4  -3  109.79    4.30
  -5   4   3  102.39    4.10
  -5   4   3  103.59    3.50
  -5   4   3  109.89    5.00
   4  -4  -3  193.88    6.00
   4  -4  -3  175.68   18.10
   4  -4  -3  183.28    4.50
  -4   4   3  194.58    6.00
  -4   4   3  187.68    5.60
  -4   4   3  195.18    5.00
  -4   4   3  208.08   19.30
   3  -4  -3   85.69    3.30
   3  -4  -3   83.29    2.60
   3  -4  -3   80.99   13.00
   3  -4  -3   87.79    2.30
   3  -4  -3   91.59    2.40
  -3   4   3   93.09    3.10
  -3   4   3   91.49    2.50
  -3   4   3   90.69    3.30
  -3   4   3   92.99   13.90
   2  -4  -3   66.39    1.90
   2  -4  -3   67.29    2.70
   2  -4  -3   65.29    1.90
   2  -4  -3   77.49   10.60
   2  -4  -3   66.09    1.80
  -2   4   3   66.59    1.80
  -2   4   3   64.59    2.00
  -2   4   3   64.69    2.50
  -2   4   3   67.79    2.30
  -2   4   3   62.29   11.20
   1  -4  -3   70.69    2.60
   1  -4  -3   72.69    2.20
   1  -4  -3   67.59    9.70
   1  -4  -3   69.89    2.10
  -1   4   3   73.09   10.80
  -1   4   3   72.29    2.40
  -1   4   3   70.39    2.20
  -1   4   3   72.49    2.20
   0  -4  -3  126.59    3.80
   0  -4  -3  127.29    3.50
   0  -4  -3  130.79   13.00
   0  -4  -3  127.19    3.10
   0   4   3  127.89    3.10
   0   4   3  130.09    3.40
   0   4   3  125.99    3.40
   0   4   3  126.59    3.70
   0   4   3  114.99   12.30
  -1  -4  -3    0.20    0.30
  -1  -4  -3   -0.20    0.20
  -1  -4  -3    0.20    0.20
   1   4   3    0.10    0.20
   1   4   3    0.10    5.80
   1   4   3   -0.10    0.20
   1   4   3   -0.40    0.20
  -2  -4  -3   71.29   11.40
  -2  -4  -3  103.29    2.90
  -2  -4  -3   96.79    2.90
  -2  -4  -3  103.59    2.70
  -2  -4  -3  102.59    3.30
   2   4   3  101.59    2.60
   2   4   3  104.09    2.50
   2   4   3   93.09   14.30
   2   4   3  106.99    3.00
   2   4   3  103.99    3.00
   2   4   3  101.99    2.70
  -3  -4  -3   40.00    1.60
  -3  -4  -3   40.50    2.00
  -3  -4  -3   44.10    1.80
   3   4   3   42.40    1.80
   3   4   3   39.70    1.50
   3   4   3   42.80    8.60
   3   4   3   21.20    9.30
   3   4   3   40.20    1.60
   3   4   3   42.60    1.50
  -4  -4  -3    2.80    0.80
  -4  -4  -3    3.10    0.70
  -4  -4  -3    2.90    0.70
   4   4   3   22.90   10.90
   4   4   3   -4.50    9.70
   4   4   3    3.40    0.60
   4   4   3    3.70    0.60
   4   4   3    3.30    0.80
  -5  -4  -3    6.20    1.10
  -5  -4  -3    6.70    1.20
   5   4   3    3.30   18.20
   5   4   3    4.90    0.60
   5   4   3    5.00    0.90
   5   4   3    4.50    0.80
   5   4   3    9.40   10.50
  -6  -4  -3    0.10    1.10
  -6  -4  -3    0.30    0.70
  -6  -4  -3   -1.20    1.00
   6   4   3   -0.10    0.90
   6   4   3    0.10    0.50
   6   4   3   -0.50    1.00
   6   4   3   -4.80   23.80
  -7  -4  -3   -1.20    1.50
  -7  -4  -3    0.00    0.90
  -7  -4  -3    0.60    1.30
   7   4   3    1.60    1.30
   7   4   3    1.90    1.30
  -8  -4  -3   -0.20    1.90
  -8  -4  -3   -1.00    1.30
  -8  -4  -3    1.60    1.80
   8   4   3    0.50    1.80
   8   4   3    0.10    1.80
   7  -5  -3    1.20    1.80
   7  -5  -3   -0.20    2.60
  -7   5   3    1.60    1.70
  -7   5   3   -0.20    2.30
   6  -5  -3   14.90    2.30
   6  -5  -3    9.10    2.10
  -6   5   3   18.60    2.70
  -6   5   3   13.30    1.90
  -6   5   3   13.30    1.60
   5  -5  -3   12.50    2.10
   5  -5  -3    8.00    1.60
  -5   5   3    7.70    1.40
  -5   5   3    9.00    1.80
  -5   5   3    7.70    1.00
   4  -5  -3  -17.40    9.00
   4  -5  -3    2.50    1.10
  -4   5   3   14.50   10.90
  -4   5   3    1.40    0.50
  -4   5   3    0.20    0.80
  -4   5   3    1.10    1.00
   3  -5  -3   28.20    1.30
   3  -5  -3   31.90    2.00
   3  -5  -3   17.40    8.10
   3  -5  -3   29.10    1.30
   3  -5  -3   29.90    1.30
  -3   5   3   29.90    1.90
  -3   5   3   20.60    9.00
  -3   5   3   30.70    1.70
  -3   5   3   30.80    1.20
   2  -5  -3   16.60    1.40
   2  -5  -3   16.60    1.00
   2  -5  -3   14.40    7.20
   2  -5  -3   16.80    0.70
   2  -5  -3   17.50    0.80
   2  -5  -3   17.10    1.00
  -2   5   3   16.50    1.10
  -2   5   3   17.60    1.30
  -2   5   3   18.40    7.50
  -2   5   3   17.00    1.20
  -2   5   3   17.00    0.70
   1  -5  -3  196.48    4.90
   1  -5  -3  203.68   15.60
   1  -5  -3  204.38    5.20
   1  -5  -3  207.18    5.80
  -1   5   3  208.28    5.40
  -1   5   3  207.98    5.70
  -1   5   3  206.48    5.10
  -1   5   3  201.58   16.50
  -1   5   3  191.48    5.10
   0  -5  -3    3.20    0.40
   0  -5  -3    2.50    6.40
   0   5   3    3.00    6.10
  -1  -5  -3   13.20    0.70
  -1  -5  -3   13.10    8.10
  -1  -5  -3   13.60    0.60
  -1  -5  -3   13.40    1.10
  -1  -5  -3   13.60    1.10
   1   5   3   12.80    0.60
   1   5   3   13.40    0.90
   1   5   3   13.10    8.20
   1   5   3   13.10    0.60
   1   5   3   13.10    1.10
  -2  -5  -3   23.90    8.30
  -2  -5  -3   39.90    1.90
  -2  -5  -3   38.00    1.50
   2   5   3   40.00    1.20
   2   5   3   40.80    1.60
   2   5   3   37.20    1.40
   2   5   3   40.10    1.10
   2   5   3   31.50   10.30
   2   5   3   40.20    1.70
  -3  -5  -3   28.80    1.80
  -3  -5  -3   32.30    1.50
   3   5   3   31.30    1.50
   3   5   3   30.50   11.60
   3   5   3   39.90   14.00
   3   5   3   31.20    1.50
   3   5   3   31.10    1.30
   3   5   3   30.30    1.10
  -4  -5  -3    4.90    1.00
  -4  -5  -3    6.30    1.00
   4   5   3    4.60    0.90
   4   5   3    5.90    0.80
   4   5   3   -3.30   16.10
   4   5   3   13.10   11.70
   4   5   3    7.20    1.00
   4   5   3    6.70    0.80
  -5  -5  -3   29.40    2.10
  -5  -5  -3   32.50    2.00
   5   5   3   30.50    1.80
   5   5   3   11.60   21.60
   5   5   3   39.60   21.90
   5   5   3   29.00    1.60
   5   5   3   29.80    1.40
  -6  -5  -3    1.90    1.10
  -6  -5  -3    0.00    1.20
   6   5   3    0.80    0.90
   6   5   3    0.50    0.70
  -7  -5  -3    2.30    1.60
  -7  -5  -3   -1.80    1.40
   7   5   3    1.70    1.30
   7   5   3    4.50    1.50
  -8  -5  -3    2.40    2.10
  -8  -5  -3    0.10    2.00
   8   5   3    0.60    1.70
   7  -6  -3   -3.70    2.90
   7  -6  -3    4.20    2.10
  -7   6   3   -1.20    2.80
  -7   6   3    3.30    2.00
   6  -6  -3    2.10    1.60
   6  -6  -3   -1.60    1.90
  -6   6   3    2.90    1.40
  -6   6   3    1.90    1.90
   5  -6  -3   -0.50    1.30
   5  -6  -3   -1.20    1.40
  -5   6   3    1.10    0.70
  -5   6   3    2.90    1.40
  -5   6   3    2.80    1.10
   4  -6  -3  109.59    4.40
   4  -6  -3  101.89    3.00
  -4   6   3  105.99    3.80
  -4   6   3  103.29    4.20
  -4   6   3   97.19    3.00
   3  -6  -3  105.99    4.00
   3  -6  -3  117.39   14.40
   3  -6  -3  101.49    2.90
   3  -6  -3  100.29    2.80
  -3   6   3  100.29    2.70
  -3   6   3   69.19   12.30
  -3   6   3   99.39    3.80
  -3   6   3  102.49    3.50
   2  -6  -3    4.50    0.60
   2  -6  -3    5.70    1.10
   2  -6  -3    4.00    0.50
   2  -6  -3    4.30    0.50
   2  -6  -3   -6.20    7.40
  -2   6   3   11.30    8.90
  -2   6   3    3.40    0.80
  -2   6   3    4.20    0.70
   1  -6  -3   24.80    0.80
   1  -6  -3   25.40    1.70
   1  -6  -3   26.10    1.40
   1  -6  -3   24.60    0.90
   1  -6  -3   21.80    8.90
   1  -6  -3   24.20    1.10
  -1   6   3   27.20    1.70
  -1   6   3   26.10    1.20
  -1   6   3   27.30    1.50
  -1   6   3   33.40    9.30
   0  -6  -3    9.70    8.20
   0  -6  -3    2.50    0.60
   0  -6  -3    2.70    0.40
   0  -6  -3    3.40    0.40
   0  -6  -3    1.10    0.60
   0   6   3    3.70    0.50
   0   6   3    2.90    0.60
   0   6   3   -0.60    7.50
   0   6   3    1.60    0.60
  -1  -6  -3  108.79    3.60
  -1  -6  -3  107.09    2.90
  -1  -6  -3  106.89    3.70
  -1  -6  -3  103.49   17.40
   1   6   3  111.79    3.60
   1   6   3  107.49    2.70
   1   6   3  110.69    3.20
   1   6   3  100.09   15.40
  -2  -6  -3  101.29    3.60
  -2  -6  -3  103.49    3.10
   2   6   3   96.89    2.80
   2   6   3  105.69    3.10
   2   6   3  109.09    3.40
   2   6   3  126.29   18.90
   2   6   3   86.69   16.40
  -3  -6  -3   58.99    2.10
  -3  -6  -3   55.99    2.60
   3   6   3   55.09    2.10
   3   6   3   50.19    1.60
   3   6   3   53.89    2.20
   3   6   3   52.39   17.30
   3   6   3   36.30   10.60
   3   6   3   51.99    1.50
  -4  -6  -3   54.59    2.70
  -4  -6  -3   49.70    2.20
   4   6   3   52.59    2.30
   4   6   3   48.40    1.70
   4   6   3   23.90   18.60
   4   6   3   26.50   15.00
   4   6   3   53.09    2.10
  -5  -6  -3   -0.60    0.80
   5   6   3   -7.40   19.60
   5   6   3  -17.30   24.80
   5   6   3   -0.60    0.60
   5   6   3    0.00    0.60
   5   6   3    0.70    0.80
  -6  -6  -3    5.40    1.50
  -6  -6  -3    3.70    1.20
   6   6   3    3.10    1.10
   6   6   3    2.80    0.80
   6   6   3    2.30    1.50
  -7  -6  -3   -0.10    1.70
  -7  -6  -3    1.90    1.60
   7   6   3    0.30    1.40
   6  -7  -3    4.10    1.80
   6  -7  -3    2.50    2.50
  -6   7   3    3.20    2.30
  -6   7   3    6.10    1.80
   5  -7  -3   22.50    3.20
   5  -7  -3   21.00    2.90
  -5   7   3   14.00    2.20
  -5   7   3   15.30    2.20
   4  -7  -3    0.30    1.20
  -4   7   3    3.10    0.80
  -4   7   3    2.30    1.00
  -4   7   3    4.80    1.30
   3  -7  -3   58.29    1.80
   3  -7  -3   61.19    3.20
   3  -7  -3   56.59    2.10
  -3   7   3   57.79    2.80
  -3   7   3   54.89    2.40
   2  -7  -3    8.20    0.60
   2  -7  -3    8.30    1.00
   2  -7  -3    7.20    8.90
   2  -7  -3    8.00    1.20
  -2   7   3   -1.70    9.90
  -2   7   3    8.30    1.10
  -2   7   3   10.80    1.40
  -2   7   3    9.90    1.50
   1  -7  -3    4.30    0.60
   1  -7  -3   -1.20    9.30
   1  -7  -3    2.50    0.80
   1  -7  -3    4.10    0.50
   1  -7  -3    4.30    0.70
   1  -7  -3    2.50    0.50
  -1   7   3    6.80    9.30
  -1   7   3    4.20    0.80
  -1   7   3    2.40    0.80
  -1   7   3    3.20    0.60
   0  -7  -3   11.50    0.70
   0  -7  -3   12.70    1.30
   0  -7  -3   14.10    1.50
   0  -7  -3   11.70    0.60
   0  -7  -3   11.90    0.70
   0   7   3   12.80    0.70
   0   7   3    2.90   10.00
   0   7   3   11.20    0.80
   0   7   3   12.70    1.10
   0   7   3   13.70    1.50
  -1  -7  -3    2.80    0.80
  -1  -7  -3    3.50    0.80
  -1  -7  -3    2.00    0.50
   1   7   3   20.20   13.30
   1   7   3    3.00    0.40
   1   7   3   -5.60    9.90
   1   7   3    1.60    0.60
   1   7   3    4.00    0.90
  -2  -7  -3   84.39    2.60
  -2  -7  -3   86.99    3.30
   2   7   3   83.29    3.10
   2   7   3   64.59   15.00
   2   7   3   85.19   18.60
   2   7   3   84.39    2.80
  -3  -7  -3   48.00    2.00
  -3  -7  -3   46.30    2.60
   3   7   3   50.59    2.10
   3   7   3   49.90    2.30
   3   7   3   50.39   14.50
   3   7   3   15.70   19.00
  -4  -7  -3    7.90    1.60
   4   7   3  -12.30   17.70
  -5  -7  -3    5.80    1.50
  -5  -7  -3    5.70    1.10
   5   7   3    8.60    1.30
   5   7   3    6.90    1.10
   5   7   3   11.90   22.60
  -6  -7  -3    2.30    1.70
  -6  -7  -3    1.20    1.30
   6   7   3   -1.30    1.40
   6   7   3    1.50    1.10
  -7  -7  -3    3.70    1.60
  -7  -7  -3    3.30    2.10
   7   7   3    3.00    1.60
   5  -8  -3    0.80    1.70
   5  -8  -3    0.60    2.10
  -5   8   3    1.10    1.40
  -5   8   3    1.00    2.00
   4  -8  -3    1.00    1.50
  -4   8   3    3.60    1.60
  -4   8   3    3.30    1.10
   3  -8  -3    5.40    0.80
   3  -8  -3    4.90    1.50
  -3   8   3    3.90    7.90
  -3   8   3    4.40    1.00
  -3   8   3    5.10    1.30
   2  -8  -3    1.80    1.20
   2  -8  -3    0.80    0.70
  -2   8   3    0.90    0.70
  -2   8   3    0.90   12.00
  -2   8   3    1.40    0.90
  -2   8   3    0.30    1.20
   1  -8  -3    2.90    0.80
   1  -8  -3    3.90    1.10
  -1   8   3    1.50    1.00
  -1   8   3    2.10    0.90
  -1   8   3   -8.80   13.00
  -1   8   3    2.90    0.60
   0  -8  -3    1.20    0.80
   0  -8  -3    2.80    1.00
   0   8   3    2.30    0.90
   0   8   3   -9.50   10.60
   0   8   3   -1.20   14.70
  -1  -8  -3    1.90    0.70
  -1  -8  -3    1.60    0.90
  -1  -8  -3    0.60    0.80
   1   8   3   20.40   15.00
   1   8   3    2.00    0.90
   1   8   3   -2.00   14.60
   1   8   3    1.60    0.70
  -2  -8  -3   -0.20    0.90
  -2  -8  -3   -0.70    0.50
   2   8   3   -0.40    0.60
   2   8   3    0.50    0.80
   2   8   3   -6.10   15.70
   3   8   3   20.50   18.00
  -4  -8  -3   -0.40    1.20
  -4  -8  -3    0.80    0.80
   4   8   3    0.90    0.80
   4   8   3    2.20    0.90
   4   8   3   -8.20   20.50
  -5  -8  -3   12.00    1.90
   5   8   3   13.90    1.70
   5   8   3   12.10    1.60
  -6  -8  -3    0.60    1.90
  -6  -8  -3    2.90    1.40
   6   8   3    0.70    1.30
   5  -9  -3    2.90    2.00
   5  -9  -3    6.20    2.10
   5  -9  -3    9.00    2.40
  -5   9   3    5.90    1.80
  -5   9   3    6.70    2.40
   4  -9  -3   39.70    3.70
   4  -9  -3   29.60    3.40
  -4   9   3   35.00    3.10
  -4   9   3   30.60    2.60
   3  -9  -3   33.30    3.30
   3  -9  -3   35.20    2.00
  -3   9   3   33.70    2.70
   2  -9  -3    4.40    0.90
   2  -9  -3    4.80    1.60
  -2   9   3    4.60    1.30
  -2   9   3    5.60    1.50
   1  -9  -3   20.50    2.70
   1  -9  -3   20.20    1.70
  -1   9   3   19.00    2.50
  -1   9   3   23.10    1.90
   0  -9  -3    6.10    1.10
   0  -9  -3    8.10    1.50
   0   9   3   10.10    1.50
   0   9   3    8.60    1.50
  -1  -9  -3    3.10    1.50
  -1  -9  -3    3.50    1.10
  -1  -9  -3    3.80    0.60
   1   9   3    4.80    1.70
   1   9   3    5.10    1.00
  -2  -9  -3   17.90    2.10
  -2  -9  -3   19.90    1.40
   2   9   3   21.30    1.60
   2   9   3   18.50    2.60
  -3  -9  -3    4.50    1.50
  -3  -9  -3    2.10    0.90
   3   9   3    3.10    1.00
   3   9   3    2.20    0.90
  -4  -9  -3    8.30    1.10
  -4  -9  -3    4.50    1.60
   4   9   3    5.60    1.10
   4   9   3    4.60    1.10
  -5  -9  -3    3.40    1.80
  -5  -9  -3    1.50    1.30
   5   9   3    2.50    1.10
   5   9   3    2.90    1.30
  -6  -9  -3    3.60    2.30
  -6  -9  -3   -0.60    1.70
   4 -10  -3    9.60    2.40
   4 -10  -3    4.40    2.00
  -4  10   3    4.50    2.30
   3 -10  -3   16.60    2.70
  -3  10   3   10.30    2.00
   2 -10  -3    8.20    2.20
  -2  10   3    7.10    1.90
  -2  10   3    2.70    1.50
   1 -10  -3   -0.60    1.10
   1 -10  -3   -1.10    1.60
  -1  10   3    0.70    1.40
  -1  10   3   -1.50    1.50
   0 -10  -3   -1.50    1.10
   0 -10  -3    1.10    1.50
   0  10   3    1.00    1.10
   0  10   3   -0.60    1.40
  -1 -10  -3    8.90    1.70
  -1 -10  -3    5.70    1.50
   1  10   3    8.80    1.20
   1  10   3    4.20    1.50
  -2 -10  -3    3.10    1.50
   2  10   3    1.70    1.40
   2  10   3    2.50    1.10
  -3 -10  -3    3.80    1.60
   3  10   3    2.10    1.10
   3  10   3    3.10    1.30
  -4 -10  -3    2.90    1.90
   4  10   3    2.30    1.30
  -5 -10  -3   -2.70    2.10
  -5 -10  -3    2.30    2.50
   5  10   3    2.30    1.40
   3 -11  -3   14.60    2.90
  -3  11   3   10.20    2.30
   2 -11  -3    0.30    2.20
   2 -11  -3    2.10    1.50
  -2  11   3    2.10    2.10
  -2  11   3    2.90    1.80
   1 -11  -3   -0.80    1.40
   1 -11  -3    3.10    2.20
  -1  11   3   -3.00    1.90
  -1  11   3    0.40    1.60
   0 -11  -3    0.80    2.10
   0 -11  -3   -1.20    1.30
   0  11   3   -1.70    1.80
   0  11   3   -0.30    1.40
  -1 -11  -3    5.40    2.10
  -1 -11  -3    2.30    1.70
   1  11   3    4.40    1.70
  -2 -11  -3    3.30    1.90
  -2 -11  -3   -0.50    1.90
   2  11   3   -0.20    1.60
  -3 -11  -3    3.20    2.10
   3  11   3    0.30    1.60
  -4 -11  -3    0.10    2.70
   4  11   3    0.10    1.60
   0 -12  -3    5.50    2.80
   0 -12  -3    4.40    1.80
   0  12   3    1.20    2.40
  -1 -12  -3   -3.40    2.40
  -1 -12  -3    2.60    1.90
   1  12   3   -1.10    2.10
   2  11  -4   -1.50    1.80
  -2 -11   4    1.70    1.60
  -2 -11   4    1.20    1.90
   1  11  -4    0.60    1.70
  -1 -11   4   -0.90    1.30
  -1 -11   4   -2.80    1.70
   0  11  -4    1.30    1.70
   0 -11   4    0.40    1.70
   0 -11   4    0.50    1.20
  -1  11  -4    3.90    1.70
   1 -11   4    3.50    1.10
   1 -11   4    2.00    1.80
  -2  11  -4   -2.70    1.70
   2 -11   4    0.50    1.80
   2 -11   4    1.70    1.10
   3  10  -4   -2.10    1.70
  -3 -10   4    0.10    1.50
  -3 -10   4   -0.20    1.70
   2  10  -4    3.30    1.60
  -2 -10   4    0.40    1.50
  -2 -10   4    0.80    1.30
   1  10  -4    0.80    1.40
  -1 -10   4    0.60    1.20
  -1 -10   4    1.60    1.40
   0  10  -4    3.70    1.50
   0 -10   4    1.90    1.40
   0 -10   4    4.30    1.20
  -1  10  -4    1.80    1.30
   1 -10   4    1.90    1.00
   1 -10   4    3.80    1.50
  -2  10  -4    3.80    1.40
   2 -10   4    3.90    1.00
   2 -10   4    6.20    1.80
  -3  10  -4    0.20    1.50
   3 -10   4   -2.00    1.10
   3 -10   4   -3.20    1.60
  -4  10  -4    0.20    1.70
   4 -10   4    0.30    1.20
   4 -10   4    0.20    1.80
   4 -10   4   -1.40    1.70
   4   9  -4    0.00    1.70
  -4  -9   4   -0.10    1.60
  -4  -9   4    2.30    1.70
   3   9  -4   29.10    2.90
  -3  -9   4   22.80    2.60
  -3  -9   4   29.20    2.70
   2   9  -4    9.00    1.60
  -2  -9   4    8.00    1.40
  -2  -9   4    8.50    1.60
   1   9  -4    1.90    1.20
  -1  -9   4    1.80    0.90
  -1  -9   4    1.60    1.20
   0   9  -4    0.00    1.10
   0  -9   4    0.50    0.90
   0  -9   4    1.00    1.10
  -1   9  -4    1.50    1.10
   1  -9   4    0.10    0.90
   1  -9   4    0.30    0.60
   1  -9   4    1.00    1.10
  -2   9  -4    4.00    1.20
   2  -9   4    4.10    0.80
   2  -9   4    7.40    1.10
   2  -9   4    3.50    1.40
  -3   9  -4   28.20    2.30
  -3   9  -4   31.50    2.40
   3  -9   4   28.90    2.80
   3  -9   4   30.40    2.10
   3  -9   4   27.50    1.80
  -4   9  -4   -1.20    1.40
  -4   9  -4   -2.40    1.30
   4  -9   4    0.80    1.10
   4  -9   4    1.70    1.60
   4  -9   4   -0.60    1.00
   4  -9   4   -1.50    1.40
  -5   9  -4    8.10    1.70
   5  -9   4   10.40    1.90
   5  -9   4   10.00    1.50
   5  -9   4    9.30    1.50
   5   8  -4    2.70    1.70
  -5  -8   4   -0.40    1.60
  -5  -8   4   -1.10    1.60
   4   8  -4   10.70    1.80
  -4  -8   4    9.50    1.60
  -4  -8   4   10.40    1.70
   3   8  -4    8.00    1.50
  -3  -8   4   12.70    1.90
  -3  -8   4   10.60    1.60
   2   8  -4   10.40    1.60
  -2  -8   4    9.60    1.00
  -2  -8   4   10.90    1.60
  -2  -8   4   11.20    1.60
   1   8  -4   13.30    1.70
  -1  -8   4   12.80    1.00
   0   8  -4    2.90    1.00
   0  -8   4    1.60    0.70
   0  -8   4    3.00    0.50
  -1   8  -4    2.10    0.90
   1  -8   4    2.80    0.80
   1  -8   4    1.80    1.60
   1  -8   4    2.70    0.50
  -2   8  -4    0.70    0.90
  -2   8  -4    0.20    0.80
  -2   8  -4   -6.80   11.90
   2  -8   4    1.60   11.20
   2  -8   4    0.30    0.60
   2  -8   4   -0.40    0.80
   2  -8   4    0.80    1.00
  -3   8  -4   21.00    5.90
  -3   8  -4   23.60    1.90
  -3   8  -4   22.20    2.00
   3  -8   4   22.90    1.50
   3  -8   4   17.20    2.20
   3  -8   4   26.60    2.00
  -4   8  -4   16.80    2.00
  -4   8  -4   15.90    2.00
   4  -8   4   13.20    1.90
   4  -8   4   11.60    1.80
   4  -8   4   12.90    1.90
  -5   8  -4    0.70    1.40
   5  -8   4   -0.10    1.20
   5  -8   4    1.30    1.20
   5  -8   4    0.80    1.40
   5  -8   4    0.70    1.70
  -6   8  -4    2.50    1.70
   6  -8   4    1.00    1.40
   6  -8   4    1.90    1.70
   6  -8   4    0.10    1.60
   6   7  -4    3.80    1.70
  -6  -7   4   -0.10    1.80
   5   7  -4    5.60    1.70
  -5  -7   4    5.10    1.50
  -5  -7   4    5.20    1.50
   4   7  -4   25.00    2.50
  -4  -7   4   22.80    1.70
  -4  -7   4   21.90    2.30
  -4  -7   4   26.80    2.40
   3   7  -4   17.90    2.10
  -3  -7   4   18.20    1.80
  -3  -7   4   18.50    1.90
  -3  -7   4   16.40    1.30
   2   7  -4   -0.20    0.80
  -2  -7   4    0.00    0.50
  -2  -7   4    0.00    0.80
  -2  -7   4    1.30    0.80
   1   7  -4    8.80   17.80
   1   7  -4   12.70    1.50
  -1  -7   4    7.80   15.50
  -1  -7   4   10.20    1.20
  -1  -7   4   11.50    0.80
  -1  -7   4   11.50    1.50
   0   7  -4   36.20   16.30
   0   7  -4    1.20    0.80
   0  -7   4   -0.20    0.80
   0  -7   4    0.80    0.40
   0  -7   4   -1.80   12.30
   0  -7   4    1.20    0.60
  -1   7  -4  101.09    3.50
  -1   7  -4  101.89    3.50
  -1   7  -4   72.69   15.90
   1  -7   4  105.49    3.40
   1  -7   4  101.59    3.00
   1  -7   4  101.09    3.90
   1  -7   4   77.79   15.90
  -2   7  -4    0.40    0.70
  -2   7  -4   -0.20    0.70
   2  -7   4   -3.20   11.10
   2  -7   4    0.10    0.50
   2  -7   4    0.60    0.50
   2  -7   4    0.80    0.90
   2  -7   4   -0.60    0.60
  -3   7  -4   21.60    1.70
  -3   7  -4   14.20    7.70
  -3   7  -4   22.30    1.70
   3  -7   4   21.50    2.00
   3  -7   4   19.80    9.20
   3  -7   4   22.60    1.50
   3  -7   4   22.70    1.80
   3  -7   4   23.30    1.40
  -4   7  -4   13.30    1.80
  -4   7  -4   14.20    1.70
   4  -7   4   15.90    1.60
   4  -7   4   16.20    1.70
   4  -7   4   15.70    1.50
   4  -7   4   14.90    2.10
   4  -7   4   16.70    1.70
  -5   7  -4    3.80    1.50
  -5   7  -4    4.60    1.20
  -5   7  -4    4.80    1.00
   5  -7   4    2.70    1.20
   5  -7   4    3.30    1.20
   5  -7   4    2.10    1.20
   5  -7   4    5.50    1.50
  -6   7  -4    2.20    1.20
  -6   7  -4    1.00    1.30
   6  -7   4    3.70    1.50
   6  -7   4    3.90    1.40
   6  -7   4    2.90    1.50
   6  -7   4    2.90    1.50
   6   6  -4    2.30    1.60
  -6  -6   4   -1.00    1.30
  -6  -6   4   -1.60    1.50
   5   6  -4    4.90    1.50
  -5  -6   4    4.90    1.30
  -5  -6   4    6.70    1.40
   4   6  -4   13.90    1.90
  -4  -6   4   13.70    1.90
  -4  -6   4   15.60    1.60
  -4  -6   4   13.10    1.30
   3   6  -4   37.30    2.50
   3   6  -4   25.90   18.20
  -3  -6   4   50.79   18.90
  -3  -6   4   35.20    2.10
  -3  -6   4   35.90    1.60
  -3  -6   4   36.20    2.10
   2   6  -4  -21.00   17.60
   2   6  -4    0.10    0.70
  -2  -6   4   -0.20    0.40
  -2  -6   4    8.20   15.10
  -2  -6   4   -0.90    0.70
  -2  -6   4    0.80    0.60
   1   6  -4    6.50   14.30
   1   6  -4    4.20    0.80
  -1  -6   4    6.10    0.60
  -1  -6   4    5.80    1.00
  -1  -6   4    0.20   11.90
  -1  -6   4    4.50    0.70
   0   6  -4   19.00   12.40
   0   6  -4    2.40    0.70
   0  -6   4    3.30    0.50
   0  -6   4    2.70    0.70
   0  -6   4    2.90    0.60
   0  -6   4   -1.40   10.70
  -1   6  -4   40.60    1.90
  -1   6  -4   39.70    2.00
  -1   6  -4   38.90   11.70
   1  -6   4   38.40    1.60
   1  -6   4   40.50    2.20
   1  -6   4   30.90   10.50
   1  -6   4   41.90    1.80
  -2   6  -4   18.90    1.40
  -2   6  -4   18.20    9.20
  -2   6  -4   17.40    1.40
   2  -6   4   17.80    1.70
   2  -6   4   18.70    9.70
   2  -6   4   17.60    1.20
   2  -6   4   15.90    1.10
   2  -6   4   16.70    1.10
   2  -6   4   17.30    1.30
  -3   6  -4   10.50    8.10
  -3   6  -4   13.00    1.30
  -3   6  -4   12.30    1.20
   3  -6   4   14.90    1.10
   3  -6   4   11.40    1.60
   3  -6   4   -5.00    8.50
   3  -6   4   15.00    1.30
   3  -6   4   13.30    1.20
  -4   6  -4   36.10    1.90
  -4   6  -4   40.20    2.30
  -4   6  -4   38.20    2.00
   4  -6   4   39.90    2.20
   4  -6   4   38.80    2.70
   4  -6   4   37.00    2.00
   4  -6   4   26.40    5.80
   4  -6   4   35.00    2.10
   4  -6   4   39.40    1.80
  -5   6  -4   59.69    2.90
  -5   6  -4   59.49    2.70
  -5   6  -4   51.99    2.60
   5  -6   4   58.39    2.70
   5  -6   4   61.49    2.90
   5  -6   4   62.39    3.10
   5  -6   4   60.69    2.30
  -6   6  -4    3.00    1.30
  -6   6  -4    4.50    1.20
   6  -6   4    4.60    1.40
   6  -6   4    4.00    1.60
   6  -6   4    4.00    1.40
  -7   6  -4    6.00    1.70
  -7   6  -4    4.20    1.50
   7  -6   4    0.90    1.80
   7  -6   4    5.50    1.80
   7   5  -4    2.80    1.60
  -7  -5   4   -1.60    1.90
  -7  -5   4   -1.20    1.70
   6   5  -4    4.50    1.50
  -6  -5   4    4.70    1.30
  -6  -5   4    8.50    1.70
   5   5  -4    1.50    1.30
   5   5  -4    1.10    1.00
  -5  -5   4    3.00    0.90
  -5  -5   4    3.30    1.00
  -5  -5   4    1.20    1.10
   4   5  -4    6.80    1.00
   4   5  -4   21.40   24.70
   4   5  -4   11.10    1.80
  -4  -5   4    7.80    1.10
  -4  -5   4   25.90   20.80
  -4  -5   4   10.00    1.30
  -4  -5   4    9.20    1.10
   3   5  -4   -1.00   18.80
  -3  -5   4  -13.50   16.20
   2   5  -4    0.60    0.60
   2   5  -4    0.50   11.50
  -2  -5   4   -1.00    0.50
  -2  -5   4   -4.90   13.10
  -2  -5   4    0.30    0.50
  -2  -5   4   -0.10    0.40
   1   5  -4   21.70    9.90
   1   5  -4   18.60    1.40
  -1  -5   4   18.20    1.30
  -1  -5   4   26.40   10.70
  -1  -5   4   19.20    1.20
  -1  -5   4   17.20    1.00
   0   5  -4    1.60    0.50
   0   5  -4   -2.70    9.70
   0   5  -4    1.00    0.50
   0  -5   4   -2.70    9.10
   0  -5   4    1.50    0.60
   0  -5   4    1.20    0.40
  -1   5  -4   55.39   10.70
  -1   5  -4   53.09    2.10
  -1   5  -4   52.19    2.10
   1  -5   4   49.99    1.40
   1  -5   4   53.19    2.00
   1  -5   4   54.89   11.80
   1  -5   4   51.19    1.50
   1  -5   4   52.69    2.40
   1  -5   4   54.19    1.90
  -2   5  -4  159.58   16.10
  -2   5  -4  159.28    4.40
  -2   5  -4  156.48    4.60
   2  -5   4  155.38    4.30
   2  -5   4  157.68   16.20
   2  -5   4  151.18    4.10
   2  -5   4  160.18    5.00
   2  -5   4  156.88    4.10
   2  -5   4  156.98    4.50
  -3   5  -4    1.40    0.50
  -3   5  -4    1.50    0.50
  -3   5  -4    0.90    0.60
  -3   5  -4   -5.20    7.30
   3  -5   4  -15.30    7.80
   3  -5   4    1.50    0.70
   3  -5   4    1.60    0.60
  -4   5  -4    0.10    0.70
  -4   5  -4   -9.20    6.90
  -4   5  -4    1.00    0.60
  -4   5  -4    0.80    0.60
   4  -5   4    0.50    0.70
   4  -5   4    1.40    7.80
   4  -5   4    0.90    0.80
   4  -5   4    0.10    0.70
   4  -5   4    0.40    0.60
  -5   5  -4   14.20    1.60
   5  -5   4    4.40    8.20
   5  -5   4   12.50    1.90
   5  -5   4   12.40    1.20
   5  -5   4   14.40    1.70
  -6   5  -4    0.80    1.00
  -6   5  -4    1.60    1.10
   6  -5   4    0.90    1.20
   6  -5   4    1.00    1.30
   6  -5   4    0.40    1.30
  -7   5  -4    4.50    1.40
  -7   5  -4    4.80    1.40
   7  -5   4    0.20    1.70
   7  -5   4    1.10    1.70
   7  -5   4    2.50    1.60
   7   4  -4   -0.40    1.60
  -7  -4   4    0.50    1.80
  -7  -4   4    0.80    1.50
   6   4  -4    0.60    1.40
   6   4  -4   -0.30    1.30
  -6  -4   4    2.50    1.10
  -6  -4   4    0.20    1.30
   5   4  -4    7.90    1.30
   5   4  -4   -6.30   27.00
  -5  -4   4   25.70   22.60
  -5  -4   4    8.10    1.30
  -5  -4   4    7.00    1.10
  -5  -4   4    7.30    1.00
   4   4  -4   65.09    2.60
   4   4  -4   68.19    3.10
   4   4  -4   83.19   24.90
  -4  -4   4   49.80   18.30
  -4  -4   4   61.09    2.70
  -4  -4   4   64.19    2.50
  -4  -4   4   68.89    2.70
   3   4  -4   57.59    1.90
   3   4  -4   50.79   18.50
   3   4  -4   64.89    2.20
   3   4  -4   64.69    2.80
  -3  -4   4   62.59    2.30
  -3  -4   4   66.19    2.40
  -3  -4   4   62.19   14.30
  -3  -4   4   62.29    2.50
   2   4  -4   67.09    2.00
   2   4  -4   67.29    1.80
   2   4  -4   68.39    2.80
   2   4  -4   85.09   16.10
  -2  -4   4   66.19    2.30
  -2  -4   4   65.49    2.40
  -2  -4   4   66.19    2.40
  -2  -4   4   54.19   13.20
   1   4  -4    9.30    8.30
   1   4  -4   11.40    1.10
  -1  -4   4   12.00    0.90
  -1  -4   4    3.00    9.10
  -1  -4   4   11.60    0.80
  -1  -4   4   10.30    1.00
   0   4  -4    7.20    0.80
   0   4  -4    7.50    0.90
   0  -4   4    7.40    0.70
   0  -4   4   23.10    9.80
   0  -4   4    7.80    0.90
   0  -4   4    6.90    0.70
  -1   4  -4  269.17   19.00
  -1   4  -4  246.48    6.30
  -1   4  -4  250.07    5.90
  -1   4  -4  248.88    6.30
   1  -4   4  249.78    5.80
   1  -4   4  247.28   18.70
   1  -4   4  243.38    6.70
   1  -4   4  248.78    6.20
   1  -4   4  247.08    5.60
   1  -4   4  249.48    6.10
  -2   4  -4    3.50    0.60
  -2   4  -4    4.30    6.60
  -2   4  -4    3.20    0.70
  -2   4  -4    3.10    0.60
   2  -4   4    3.70    0.70
   2  -4   4    4.60    0.70
   2  -4   4    7.10    7.80
   2  -4   4    3.30    0.60
   2  -4   4    3.30    0.60
  -3   4  -4   24.90    1.30
  -3   4  -4   39.50    7.90
  -3   4  -4   24.40    1.20
  -3   4  -4   26.00    1.50
   3  -4   4   24.60    1.50
   3  -4   4   24.40    1.40
   3  -4   4   22.10    1.40
   3  -4   4   22.80    1.50
   3  -4   4    6.50    8.00
  -4   4  -4  200.38    5.40
  -4   4  -4  195.68    5.00
  -4   4  -4  200.58    5.70
  -4   4  -4  189.38   16.50
   4  -4   4  196.38    5.00
   4  -4   4  183.38    5.00
   4  -4   4  196.68    5.70
   4  -4   4  194.18   16.40
   4  -4   4  197.58    5.60
   4  -4   4  198.58    5.70
  -5   4  -4   39.70    2.20
  -5   4  -4   37.50    2.10
   5  -4   4   37.80    2.40
   5  -4   4   36.00    2.20
   5  -4   4   38.30    2.40
   5  -4   4   34.20    1.50
   5  -4   4   11.90   10.00
  -6   4  -4    0.70    1.10
  -6   4  -4    1.50    1.00
   6  -4   4    0.00    1.10
   6  -4   4   -0.40    1.10
   6  -4   4    0.40    1.30
  -7   4  -4    5.00    1.40
  -7   4  -4    1.90    1.30
   7  -4   4    1.90    1.60
   7  -4   4    4.40    1.70
  -8   4  -4    5.70    1.80
  -8   4  -4    5.70    1.90
   8  -4   4    0.80    2.30
   8  -4   4    0.40    2.00
   7   3  -4    0.40    1.90
   7   3  -4   -2.00    1.50
  -7  -3   4    0.70    1.60
  -7  -3   4   -0.70    1.50
   6   3  -4   -1.10    1.30
   6   3  -4   -1.20    1.20
  -6  -3   4   -0.20    1.10
  -6  -3   4    0.80    1.30
   5   3  -4    0.60    1.00
   5   3  -4    7.10   18.50
   5   3  -4    1.60    1.00
  -5  -3   4    0.60    0.90
  -5  -3   4   -0.30    0.80
  -5  -3   4  -27.20   20.70
  -5  -3   4    1.50    0.70
   4   3  -4   22.60    1.60
   4   3  -4   44.70   17.00
   4   3  -4   20.60    1.80
  -4  -3   4   20.20    1.50
  -4  -3   4   20.30    1.30
  -4  -3   4   29.20   16.30
  -4  -3   4   18.80    1.50
   3   3  -4   16.90    1.40
   3   3  -4   15.50    1.20
   3   3  -4   15.80    1.10
   3   3  -4   21.80   15.60
  -3  -3   4   16.10    1.20
  -3  -3   4   12.30    1.10
  -3  -3   4   10.70    9.70
  -3  -3   4   16.50    1.00
  -3  -3   4   14.80    1.10
   2   3  -4   10.90    9.50
   2   3  -4   20.70    0.90
   2   3  -4   19.70    1.40
   2   3  -4   19.50    1.10
  -2  -3   4   20.50    1.10
  -2  -3   4   20.00    1.10
  -2  -3   4   12.90   10.50
  -2  -3   4   21.00    1.10
  -2  -3   4   21.80    1.00
   1   3  -4   24.90    1.40
   1   3  -4   24.70    1.20
   1   3  -4   15.90    8.40
   1   3  -4   24.00    0.80
  -1  -3   4   24.00    0.90
  -1  -3   4   23.00    8.90
  -1  -3   4   24.70    1.10
  -1  -3   4   23.50    1.10
  -1  -3   4   24.10    1.30
   0   3  -4    3.50    0.50
   0   3  -4    4.50    0.60
   0   3  -4    3.80    0.40
   0   3  -4    6.50    7.30
   0  -3   4    3.50    0.30
   0  -3   4    4.10    0.50
   0  -3   4    4.80    0.70
   0  -3   4   10.90    6.80
   0  -3   4    5.20    0.50
  -1   3  -4  317.67    7.50
  -1   3  -4  312.67   19.20
  -1   3  -4  309.37    7.20
  -1   3  -4  308.07    7.50
   1  -3   4  311.07    7.00
   1  -3   4  317.17    7.40
   1  -3   4  311.47    7.40
   1  -3   4  313.87   20.60
   1  -3   4  295.57    7.50
  -2   3  -4   15.20    1.10
  -2   3  -4   14.40    0.90
  -2   3  -4    8.80    6.30
  -2   3  -4   15.90    0.90
  -2   3  -4   15.50    1.10
   2  -3   4   17.30    1.00
   2  -3   4   21.30    7.70
   2  -3   4   17.40    1.00
   2  -3   4   15.40    1.10
   2  -3   4   14.70    1.00
  -3   3  -4    2.10    0.60
  -3   3  -4    1.30    0.50
  -3   3  -4    1.90    0.40
  -3   3  -4    5.00    6.00
   3  -3   4    2.00    0.50
   3  -3   4    1.00    0.50
   3  -3   4    2.20    0.60
   3  -3   4   -2.00    6.80
   3  -3   4    2.20    0.60
  -4   3  -4    3.70    7.60
  -4   3  -4    9.90    1.00
  -4   3  -4    6.90    0.80
  -4   3  -4    9.40    1.10
   4  -3   4    8.80    0.80
   4  -3   4    8.00    0.70
   4  -3   4    7.40    1.00
   4  -3   4    8.00    1.20
   4  -3   4   10.10    1.30
   4  -3   4    6.10    7.80
  -5   3  -4  233.38    6.70
  -5   3  -4  239.88    6.50
   5  -3   4  249.38   21.60
   5  -3   4  225.18    5.50
   5  -3   4  247.48    7.10
   5  -3   4  199.88   21.70
   5  -3   4  249.58    7.00
  -6   3  -4    7.50    1.20
  -6   3  -4    6.60    1.30
   6  -3   4    7.80    1.40
  -7   3  -4    0.90    1.20
  -7   3  -4    1.50    1.30
   7  -3   4   -0.10    1.60
   7  -3   4    0.20    1.30
  -8   3  -4    0.90    1.60
  -8   3  -4    0.10    1.60
   8  -3   4   -2.20    1.80
   8  -3   4   -1.30    2.20
   7   2  -4    0.80    1.80
   7   2  -4    0.70    1.40
  -7  -2   4    3.00    1.50
  -7  -2   4    0.10    1.60
   6   2  -4    3.40    1.60
   6   2  -4    5.70    1.40
  -6  -2   4    4.60    1.40
  -6  -2   4    4.90    1.40
   5   2  -4    9.40    1.50
   5   2  -4   46.00   21.50
   5   2  -4    9.00    1.40
  -5  -2   4    8.60    1.30
  -5  -2   4   12.50    1.60
  -5  -2   4    8.10    1.20
  -5  -2   4   14.30   18.30
  -5  -2   4    9.40    1.10
   4   2  -4   21.50    1.70
   4   2  -4   20.40    1.20
   4   2  -4   22.60   16.90
   4   2  -4   22.00    1.80
  -4  -2   4   19.70    1.10
  -4  -2   4   23.00    1.60
  -4  -2   4   22.40    1.20
  -4  -2   4   23.80    1.50
  -4  -2   4   24.00    1.60
  -4  -2   4   36.30   15.50
   3   2  -4   57.59    2.20
   3   2  -4   50.59    2.40
   3   2  -4   46.70   15.00
   3   2  -4   51.99    1.90
  -3  -2   4   53.79    2.10
  -3  -2   4   52.59    2.00
  -3  -2   4   54.19    2.10
  -3  -2   4   51.69    1.70
  -3  -2   4   52.19    1.70
  -3  -2   4   41.70   13.70
   2   2  -4   78.69    2.90
   2   2  -4   78.39    2.20
   2   2  -4   79.19   16.00
  -2  -2   4   79.49    2.50
  -2  -2   4   80.29    2.50
  -2  -2   4   87.19   13.50
  -2  -2   4   80.99    2.50
  -2  -2   4   80.69    2.40
  -2  -2   4   75.79    2.30
   1   2  -4   67.49    1.80
   1   2  -4   65.89    2.00
   1   2  -4   69.79   12.20
   1   2  -4   66.79    2.40
  -1  -2   4   63.99    2.10
  -1  -2   4   64.79    2.10
  -1  -2   4   64.59    2.00
  -1  -2   4   65.79    2.10
  -1  -2   4   68.79   11.10
  -1  -2   4   66.69    1.90
   0   2  -4   32.90    1.50
   0   2  -4   36.00    1.10
   0   2  -4   32.80    1.50
   0   2  -4   36.70    1.40
   0   2  -4   37.30    8.90
   0  -2   4   34.60    1.50
   0  -2   4   31.60    1.50
   0  -2   4   36.10    1.10
   0  -2   4   39.60    8.70
  -1   2  -4  267.27    6.70
  -1   2  -4  269.97    6.40
  -1   2  -4  270.17    6.30
   1  -2   4  259.27   18.60
   1  -2   4  257.37    6.40
   1  -2   4  266.77    6.40
   1  -2   4  264.77    6.10
  -2   2  -4 1142.49   25.70
  -2   2  -4 1130.79   25.20
  -2   2  -4 1262.47   41.10
  -2   2  -4 1149.19   25.50
  -2   2  -4 1172.58   25.90
   2  -2   4 1177.18   25.60
   2  -2   4 1147.89   25.60
   2  -2   4 1238.48   42.10
   2  -2   4 1181.88   25.40
   2  -2   4 1176.98   25.70
  -3   2  -4    2.20    0.50
  -3   2  -4    6.30    6.30
  -3   2  -4    1.70    0.50
  -3   2  -4    1.70    0.30
   3  -2   4    1.20    0.40
   3  -2   4    1.40    0.60
   3  -2   4    1.60    0.60
   3  -2   4    1.00    0.40
   3  -2   4    3.80    6.20
  -4   2  -4   29.30    1.80
  -4   2  -4   39.60    8.60
  -4   2  -4   30.40    1.60
   4  -2   4   30.80    1.80
   4  -2   4   27.80    1.70
   4  -2   4   28.20    9.40
  -5   2  -4    0.60    0.80
  -5   2  -4    1.30    0.70
   5  -2   4    0.90   10.40
   5  -2   4    1.40    0.90
   5  -2   4    1.90    0.80
   5  -2   4   19.30   10.50
  -6   2  -4    1.70    1.00
   6  -2   4    0.90    1.10
  -7   2  -4    4.20    1.20
  -7   2  -4    2.20    1.30
   7  -2   4    2.60    1.60
   7  -2   4    3.50    1.40
  -8   2  -4    3.90    1.80
  -8   2  -4    1.30    1.60
   8  -2   4   -0.10    2.00
   8  -2   4    0.40    1.80
   7   1  -4    1.40    1.70
   7   1  -4    3.20    1.50
  -7  -1   4    2.10    1.50
  -7  -1   4    4.60    1.80
   6   1  -4    6.90    1.80
  -6  -1   4    5.80    1.50
  -6  -1   4    8.90    1.40
   5   1  -4    6.70    1.30
   5   1  -4    5.90    1.30
   5   1  -4   -2.00   19.10
  -5  -1   4    8.70   17.70
  -5  -1   4    5.70    1.10
  -5  -1   4    6.90    1.10
  -5  -1   4    5.30    0.70
  -5  -1   4    6.90    1.20
   4   1  -4   43.50   16.50
   4   1  -4   57.29    2.70
   4   1  -4   57.69    2.80
  -4  -1   4   58.89    2.50
  -4  -1   4   59.09    1.80
  -4  -1   4   53.29    1.60
  -4  -1   4   56.79    2.50
  -4  -1   4   57.19    2.40
  -4  -1   4   86.89   18.70
   3   1  -4    1.70   12.20
   3   1  -4    2.90    0.80
  -3  -1   4    4.00   11.50
  -3  -1   4    3.30    0.40
  -3  -1   4    2.90    0.60
  -3  -1   4    3.70    0.60
  -3  -1   4    3.10    0.40
  -3  -1   4    3.00    0.70
   2   1  -4  786.22   38.10
   2   1  -4  747.43   16.50
   2   1  -4  744.63   17.30
  -2  -1   4  756.92   16.80
  -2  -1   4  747.23   16.60
  -2  -1   4  746.63   16.30
  -2  -1   4  745.33   16.30
  -2  -1   4  746.83   37.00
  -2  -1   4  739.63   16.70
   1   1  -4    8.00    0.60
   1   1  -4    7.40    0.60
   1   1  -4    5.70    7.80
   1   1  -4    8.70    0.60
   1   1  -4    7.70    0.80
  -1  -1   4    7.60    0.60
  -1  -1   4    8.50    0.60
  -1  -1   4    7.80    0.60
  -1  -1   4    7.30    0.60
  -1  -1   4    7.30    0.60
  -1  -1   4    7.70    7.40
   0   1  -4   23.40    0.90
   0   1  -4   24.60    1.00
   0   1  -4   20.40    1.00
   0   1  -4   23.00    1.00
   0   1  -4   21.50    7.10
   0   1  -4   24.30    1.20
   0  -1   4   23.30    1.00
   0  -1   4   24.00    0.90
   0  -1   4   24.00    1.10
   0  -1   4   23.80    1.00
   0  -1   4   21.50    7.30
   0  -1   4   22.80    1.20
  -1   1  -4   10.90    0.70
  -1   1  -4   10.50    0.70
  -1   1  -4    9.60    0.70
  -1   1  -4    9.40    0.70
  -1   1  -4   10.80    5.90
  -1   1  -4   10.10    0.80
   1  -1   4   10.00    0.70
   1  -1   4    9.40    0.80
   1  -1   4   10.00    0.90
   1  -1   4    7.20    4.50
   1  -1   4    9.00    0.60
   1  -1   4   10.50    0.60
   1  -1   4    9.30    0.60
  -2   1  -4    0.40    0.40
  -2   1  -4    0.60    0.30
  -2   1  -4    0.60    0.20
  -2   1  -4    1.60    0.50
   2  -1   4    0.70    0.30
   2  -1   4   -1.90    6.00
   2  -1   4    0.80    0.30
   2  -1   4    0.60    0.30
   2  -1   4    0.40    0.30
  -3   1  -4  261.57    6.80
  -3   1  -4  245.78   17.60
  -3   1  -4  263.87    6.50
   3  -1   4  271.87    6.70
   3  -1   4  264.37    6.70
   3  -1   4  267.97   18.40
  -4   1  -4  386.36    9.40
  -4   1  -4  356.06   22.50
  -4   1  -4  381.66    9.60
   4  -1   4  389.36    9.60
   4  -1   4  384.06   23.30
   4  -1   4  389.76    9.70
  -5   1  -4   14.70    1.50
  -5   1  -4   15.00    1.30
   5  -1   4   11.30   12.80
   5  -1   4   14.40    1.60
   5  -1   4   -0.50    9.70
   5  -1   4   12.70    1.50
  -6   1  -4    1.70    0.80
  -6   1  -4    3.20    1.00
   6  -1   4    1.30    1.10
   6  -1   4    3.40    1.00
  -7   1  -4    5.80    1.30
  -7   1  -4    3.70    1.30
   7  -1   4    6.70    1.70
   7  -1   4    8.10    1.50
  -8   1  -4    2.40    1.50
  -8   1  -4    5.40    1.80
   8  -1   4    2.50    2.00
   8  -1   4    3.20    1.80
   7   0  -4    0.30    1.50
   7   0  -4    2.00    1.90
  -7   0   4    1.10    1.40
  -7   0   4    1.30    1.60
   6   0  -4    1.60    1.40
   6   0  -4    1.60    1.40
  -6   0   4   -0.90    1.20
  -6   0   4    2.70    1.20
  -6   0   4    1.20    1.20
   5   0  -4   -6.30   18.20
   5   0  -4    4.50    1.20
   5   0  -4    7.80    1.30
  -5   0   4    5.10    1.10
  -5   0   4   18.40   18.50
  -5   0   4    5.80    1.20
  -5   0   4    3.80    0.90
   4   0  -4   96.19    3.70
   4   0  -4  140.69   24.00
   4   0  -4  100.09    3.80
  -4   0   4   91.09    3.50
  -4   0   4   97.89    3.50
  -4   0   4   98.09    3.30
  -4   0   4   83.79   17.30
   3   0  -4   13.20    1.30
   3   0  -4   22.90   11.20
  -3   0   4   15.00    1.00
  -3   0   4   14.60    1.20
  -3   0   4   15.70    1.20
  -3   0   4   11.60   11.10
   2   0  -4   67.59    2.10
   2   0  -4   76.89   13.90
  -2   0   4   70.79    2.30
  -2   0   4   71.89    2.40
  -2   0   4   59.89   11.90
  -2   0   4   71.29    1.80
  -2   0   4   71.29    1.80
  -2   0   4   70.99    2.20
   1   0  -4  108.79   13.90
   1   0  -4  106.99    2.80
   1   0  -4  109.19    2.90
   1   0  -4  112.49    2.70
  -1   0   4  106.09    2.80
  -1   0   4   97.29   14.20
  -1   0   4  111.19    3.10
  -1   0   4  107.19    3.60
  -1   0   4  109.69    2.80
  -1   0   4  113.19    3.00
   0   0  -4   32.60    1.20
   0   0  -4   31.20    1.10
   0   0  -4   30.80    1.10
   0   0  -4   32.40    1.40
   0   0  -4   30.00    7.00
   0   0   4   31.30    1.20
   0   0   4   32.00    1.10
   0   0   4   32.40    1.10
   0   0   4   35.70    8.70
   0   0   4   31.40    1.20
   0   0   4   31.20    1.40
   0   0   4   30.90    1.10
  -1   0  -4   37.00    1.20
  -1   0  -4   36.10    1.40
  -1   0  -4   37.50    1.40
  -1   0  -4   36.00    1.40
  -1   0  -4   33.90    7.70
  -1   0  -4   37.70    1.50
   1   0   4   36.10    1.30
   1   0   4   37.70    1.30
   1   0   4   42.10    8.50
   1   0   4   35.10    1.50
   1   0   4   38.50    1.30
   1   0   4   36.50    1.30
   1   0   4   36.30    1.30
  -2   0  -4  394.16    8.90
  -2   0  -4  360.96    9.20
  -2   0  -4  428.26   22.60
  -2   0  -4  398.66    8.60
  -2   0  -4  394.66    9.30
   2   0   4  386.56    8.60
   2   0   4  392.86    9.10
   2   0   4  357.26   20.60
   2   0   4  398.86    9.10
   2   0   4  382.66    9.00
  -3   0  -4    1.10    0.40
  -3   0  -4   -7.50    6.20
  -3   0  -4   -0.20    0.40
   3   0   4   -1.80    5.90
   3   0   4    0.50    0.50
   3   0   4    0.50    0.40
   4   0   4    0.50    0.50
   4   0   4   -5.60    7.50
   4   0   4    2.10    0.70
  -5   0  -4  225.68    6.50
  -5   0  -4  223.88    6.30
   5   0   4  198.58   21.70
   5   0   4  226.68    6.40
   5   0   4  228.98    6.60
   5   0   4  237.48   24.90
  -6   0  -4    0.40    1.00
  -6   0  -4    0.60    0.90
   6   0   4   -0.30    1.00
   6   0   4    1.20    0.90
  -7   0  -4    0.90    1.30
  -7   0  -4   -0.10    1.10
   7   0   4    0.60    1.20
   7   0   4    1.30    1.20
  -8   0  -4   -0.70    1.70
  -8   0  -4    1.20    1.50
   8   0   4    1.30    1.60
   8   0   4    2.00    1.90
   7  -1  -4    0.50    2.00
   7  -1  -4   -1.00    1.50
  -7   1   4   -2.50    1.80
  -7   1   4    0.10    1.60
  -7   1   4   -1.20    1.30
   6  -1  -4    1.20    1.40
  -6   1   4    2.80    1.40
  -6   1   4    0.30    1.00
  -6   1   4   -0.20    1.10
   5  -1  -4    1.50    1.10
   5  -1  -4   17.80   19.50
   5  -1  -4    0.50    1.00
  -5   1   4    1.20    0.90
  -5   1   4   -0.10    0.90
  -5   1   4    0.20    0.80
  -5   1   4    2.90   17.50
   4  -1  -4   53.89    2.70
   4  -1  -4   59.19   14.90
  -4   1   4   49.50    2.50
  -4   1   4   56.79   15.20
  -4   1   4   50.49    2.40
  -4   1   4   53.19    2.20
   3  -1  -4   37.40   11.40
   3  -1  -4   38.80    2.10
  -3   1   4   39.90    1.90
  -3   1   4   40.80    1.90
  -3   1   4   28.70   11.20
  -3   1   4   40.20    1.60
   2  -1  -4  396.56    8.90
   2  -1  -4  392.06    9.90
   2  -1  -4  399.46   25.40
  -2   1   4  395.96    9.40
  -2   1   4  401.36    9.10
  -2   1   4  398.86    9.50
  -2   1   4  418.56   25.80
   1  -1  -4  702.13   30.60
   1  -1  -4  705.23   14.90
   1  -1  -4  659.43   16.20
   1  -1  -4  699.83   14.90
   1  -1  -4  684.73   15.30
  -1   1   4  707.33   15.40
  -1   1   4  633.34   15.60
  -1   1   4  702.83   14.90
  -1   1   4  714.23   31.90
  -1   1   4  718.23   15.00
   0  -1  -4   69.69    1.90
   0  -1  -4   72.99    2.10
   0  -1  -4   67.69    2.10
   0  -1  -4   69.19    2.10
   0  -1  -4   71.29    2.30
   0  -1  -4   74.19    9.60
   0   1   4   71.09    2.10
   0   1   4   72.99    1.80
   0   1   4   98.59   11.70
   0   1   4   69.79    2.30
   0   1   4   69.09    2.10
   0   1   4   72.39    2.10
   0   1   4   71.49    1.80
  -1  -1  -4   19.30    0.80
  -1  -1  -4   18.80    1.00
  -1  -1  -4   18.50    1.00
  -1  -1  -4   18.50    0.90
  -1  -1  -4   13.60    6.60
  -1  -1  -4   17.90    0.90
   1   1   4   15.80    5.60
   1   1   4   19.30    0.80
   1   1   4   18.50    0.90
   1   1   4   18.70    0.90
   1   1   4   19.00    0.80
   1   1   4   18.90    1.00
   1   1   4   19.40    1.10
  -2  -1  -4  562.04   12.70
  -2  -1  -4  553.24   27.00
  -2  -1  -4  535.95   12.00
  -2  -1  -4  548.25   12.20
  -2  -1  -4  525.45   12.40
  -2  -1  -4  532.45   11.90
   2   1   4  557.04   12.40
   2   1   4  576.14   27.20
   2   1   4  546.45   11.90
   2   1   4  538.15   12.30
   2   1   4  558.24   12.30
  -3  -1  -4  212.38    5.40
  -3  -1  -4  202.88    5.70
  -3  -1  -4  209.28   16.70
   3   1   4  213.08   16.60
   3   1   4  205.98    5.50
   3   1   4  215.48    5.40
  -4  -1  -4   14.90   10.00
  -4  -1  -4   17.40    1.40
  -4  -1  -4   19.30    1.30
   4   1   4   10.30    8.20
   4   1   4   19.50    1.40
   4   1   4   19.40    1.30
  -5  -1  -4   15.10    1.60
  -5  -1  -4   14.40    1.40
   5   1   4   19.00   13.30
   5   1   4   29.20   11.20
   5   1   4   14.00    1.50
   5   1   4   12.70    1.40
  -6  -1  -4    1.60    1.00
  -6  -1  -4    0.50    0.90
   6   1   4    0.10    0.90
   6   1   4   -0.20    0.90
  -7  -1  -4    2.80    1.30
  -7  -1  -4    1.60    1.40
   7   1   4    4.00    1.50
   7   1   4    1.50    1.20
  -8  -1  -4   -1.20    1.70
  -8  -1  -4    1.90    1.70
   8   1   4    2.90    1.80
   8   1   4    0.20    1.70
   7  -2  -4   -1.60    1.60
   7  -2  -4    0.80    2.10
  -7   2   4    1.70    1.40
  -7   2   4    3.30    2.10
  -7   2   4    2.10    1.60
   6  -2  -4    1.40    1.60
   6  -2  -4    1.50    1.40
  -6   2   4    1.30    1.20
  -6   2   4    1.30    1.00
  -6   2   4    0.00    1.40
   5  -2  -4   50.89    3.20
   5  -2  -4   49.40    2.90
  -5   2   4   54.49    3.00
  -5   2   4   48.50    2.30
  -5   2   4   51.99    2.70
   4  -2  -4   10.30   12.40
   4  -2  -4    9.80    1.60
  -4   2   4   19.00   12.80
  -4   2   4   11.60    1.40
  -4   2   4   10.80    1.10
  -4   2   4   10.10    1.40
   3  -2  -4    3.60    0.80
   3  -2  -4    0.60    8.80
   3  -2  -4    3.00    0.50
  -3   2   4    4.00    0.80
  -3   2   4   -2.80    8.90
  -3   2   4    3.20    0.70
  -3   2   4    2.80    0.50
   2  -2  -4  315.17    8.20
   2  -2  -4  325.87    7.20
   2  -2  -4  342.27   21.70
  -2   2   4  310.57    7.90
  -2   2   4  306.27   22.00
  -2   2   4  315.67    7.70
  -2   2   4  324.67    7.30
   1  -2  -4  115.49   13.60
   1  -2  -4  114.99    2.70
   1  -2  -4  115.79    2.90
   1  -2  -4  116.09    3.60
  -1   2   4  116.49    2.80
  -1   2   4  115.69   12.90
  -1   2   4  110.49    3.20
  -1   2   4  116.59    2.80
   0  -2  -4    1.50    0.40
   0  -2  -4    1.30    0.50
   0  -2  -4    1.40    0.30
   0  -2  -4    6.90    4.60
   0  -2  -4    1.80    0.40
   0  -2  -4    1.60    0.40
   0   2   4    1.80    0.40
   0   2   4   -0.90    4.40
   0   2   4    0.90    0.40
   0   2   4    1.10    0.30
   0   2   4    1.80    0.30
   0   2   4    1.30    0.20
  -1  -2  -4    8.70    0.70
  -1  -2  -4    8.90    0.70
  -1  -2  -4   10.30    0.80
  -1  -2  -4    9.70    0.50
  -1  -2  -4    8.00    5.00
  -1  -2  -4    9.90    0.80
   1   2   4    9.80    0.60
   1   2   4    9.10    0.50
   1   2   4    9.30    0.80
   1   2   4    9.50    0.50
   1   2   4    8.70    0.80
   1   2   4    4.90    4.50
   1   2   4    9.20    0.80
  -2  -2  -4  193.18    5.00
  -2  -2  -4  194.08    4.60
  -2  -2  -4  198.18    4.80
  -2  -2  -4  195.88    4.80
  -2  -2  -4  196.78    5.30
  -2  -2  -4  170.08   16.70
   2   2   4  192.38    5.00
   2   2   4  219.48   17.40
   2   2   4  198.98    4.80
   2   2   4  193.28    4.80
  -3  -2  -4    3.20    0.60
  -3  -2  -4    3.00    0.40
  -3  -2  -4    3.00    0.40
  -3  -2  -4    2.70    0.60
  -3  -2  -4   11.70    8.70
   3   2   4    3.30    0.50
   3   2   4    7.30    5.70
   3   2   4    2.30    0.50
  -4  -2  -4   18.20   12.30
  -4  -2  -4   27.80    1.60
  -4  -2  -4   32.90    1.90
   4   2   4   29.60    1.70
   4   2   4   45.00    9.90
   4   2   4   30.00    1.60
  -5  -2  -4    1.40    0.70
  -5  -2  -4    1.70    0.90
   5   2   4   -3.60   14.60
   5   2   4    2.10    0.80
   5   2   4    1.80    0.70
   5   2   4   -0.70   12.00
  -6  -2  -4   20.20    2.10
  -6  -2  -4   20.80    2.00
   6   2   4   21.10    1.80
   6   2   4   17.50    1.90
   6   2   4   41.20   20.50
  -7  -2  -4   -0.80    1.30
  -7  -2  -4    1.30    1.20
   7   2   4    0.50    1.30
   7   2   4    0.40    1.20
  -8  -2  -4    6.80    1.90
  -8  -2  -4    3.00    1.80
   8   2   4    7.30    1.90
   8   2   4    2.30    1.60
   7  -3  -4    3.10    2.10
   7  -3  -4    5.90    1.70
  -7   3   4    2.00    2.10
  -7   3   4   -2.20    1.60
  -7   3   4    5.00    1.50
   6  -3  -4   -1.00    1.50
   6  -3  -4    4.40    1.40
  -6   3   4    0.00    1.00
  -6   3   4    1.60    1.30
  -6   3   4    0.90    1.50
   5  -3  -4   13.90    2.10
   5  -3  -4   21.00    3.60
  -5   3   4   14.30    1.70
  -5   3   4   18.30    3.20
  -5   3   4   17.30    1.50
   4  -3  -4  122.69    4.50
   4  -3  -4   80.49   15.20
  -4   3   4  126.29    4.40
  -4   3   4  130.89   23.70
  -4   3   4  125.59    3.60
  -4   3   4  126.19    4.20
   3  -3  -4   32.20    2.00
   3  -3  -4   18.30   10.90
   3  -3  -4   31.30    1.30
  -3   3   4   32.80    1.80
  -3   3   4   33.30    1.90
  -3   3   4   35.20    1.40
  -3   3   4   38.90   12.30
   2  -3  -4   77.69   13.10
   2  -3  -4   78.49    3.00
   2  -3  -4   78.99    2.00
  -2   3   4   76.29    2.70
  -2   3   4   77.99    2.60
  -2   3   4   61.49   12.20
  -2   3   4   77.39    2.10
   1  -3  -4   11.60    1.00
   1  -3  -4   12.20    0.70
   1  -3  -4   23.00    7.30
  -1   3   4   10.80    0.90
  -1   3   4   12.50    0.90
  -1   3   4   11.50    0.70
   0  -3  -4   10.20    6.60
   0   3   4    2.30    4.50
  -1  -3  -4    2.10    0.40
  -1  -3  -4    2.50    0.30
  -1  -3  -4    1.70    0.50
  -1  -3  -4    2.80    0.40
  -1  -3  -4    2.40    0.50
  -1  -3  -4    6.10    6.70
   1   3   4    1.80    0.30
   1   3   4    1.30    4.50
   1   3   4    2.10    0.40
   1   3   4    2.70    0.50
   1   3   4    2.30    0.50
  -2  -3  -4  158.48    4.10
  -2  -3  -4  153.08    3.90
  -2  -3  -4  150.28    4.40
  -2  -3  -4  150.28   16.90
  -2  -3  -4  155.58    4.00
  -2  -3  -4  158.48    3.90
   2   3   4  145.89   16.60
   2   3   4  152.78    3.80
   2   3   4  150.58    4.00
   2   3   4  148.29    3.90
   2   3   4  152.48    4.10
  -3  -3  -4   30.10    1.80
  -3  -3  -4   29.00    1.20
  -3  -3  -4   28.50   10.60
  -3  -3  -4   29.70    1.70
  -3  -3  -4   30.40    1.30
  -3  -3  -4   30.90    1.40
   3   3   4   31.10    1.50
   3   3   4   26.00    1.80
   3   3   4   29.50    1.60
   3   3   4   26.70    7.80
   3   3   4   29.80    1.20
  -4  -3  -4   68.09    2.50
  -4  -3  -4   64.09    2.00
  -4  -3  -4   67.89    2.80
  -4  -3  -4   66.49    2.00
   4   3   4   68.19    2.40
   4   3   4   65.69    2.60
   4   3   4   68.69   12.80
   4   3   4   63.79    1.90
  -5  -3  -4    1.80    0.70
  -5  -3  -4    1.50    0.80
   5   3   4    1.90    0.80
   5   3   4    1.00    0.40
   5   3   4    0.00    0.70
   5   3   4   -8.50   13.30
   5   3   4   -3.70   17.70
  -6  -3  -4    2.80    1.20
  -6  -3  -4    2.30    1.10
   6   3   4    0.20    0.90
   6   3   4   -5.60   21.30
  -7  -3  -4    3.00    1.40
  -7  -3  -4    4.30    1.50
   7   3   4    2.40    1.30
   7   3   4   -0.30    1.30
  -8  -3  -4   -2.10    1.80
  -8  -3  -4    3.40    2.00
   8   3   4   -0.30    1.90
   8   3   4   -0.80    1.70
   7  -4  -4    5.90    2.40
   7  -4  -4   -2.90    1.90
  -7   4   4   -1.10    2.30
  -7   4   4    3.60    1.70
   6  -4  -4    0.80    1.50
   6  -4  -4   -1.20    1.80
  -6   4   4   -0.20    1.50
  -6   4   4    0.20    1.30
  -6   4   4   -0.30    1.00
   5  -4  -4    3.30    1.30
   5  -4  -4    2.60    1.40
  -5   4   4    1.40    1.10
  -5   4   4   -0.30    1.20
  -5   4   4    3.40    0.80
   4  -4  -4   23.50    2.10
   4  -4  -4   12.50   12.70
  -4   4   4   21.40    1.90
  -4   4   4   21.30    1.70
  -4   4   4   20.50    1.30
  -4   4   4   16.20   12.70
   3  -4  -4    2.20    0.80
   3  -4  -4    0.50    0.40
   3  -4  -4    8.50    9.30
  -3   4   4   -1.60   10.40
  -3   4   4    1.10    0.70
  -3   4   4    0.50    0.40
  -3   4   4    1.60    0.70
   2  -4  -4  260.67    7.20
   2  -4  -4  251.47   19.40
   2  -4  -4  266.37    6.10
   2  -4  -4  264.17    5.90
   2  -4  -4  263.17    5.80
  -2   4   4  265.47    5.80
  -2   4   4  251.87    6.80
  -2   4   4  261.97    6.10
  -2   4   4  245.78   19.50
  -2   4   4  268.57    6.70
   1  -4  -4  534.15   26.00
   1  -4  -4  488.95   11.20
   1  -4  -4  502.05   12.00
  -1   4   4  472.15   26.60
  -1   4   4  496.85   11.50
  -1   4   4  480.95   11.10
  -1   4   4  493.55   11.30
   0  -4  -4   35.80    1.50
   0  -4  -4   32.10    1.20
   0  -4  -4   34.10    9.50
   0  -4  -4   35.70    1.70
   0   4   4   36.70    1.50
   0   4   4   34.90    1.30
   0   4   4   27.50    8.70
   0   4   4   33.40    1.40
  -1  -4  -4    3.80    8.10
  -1  -4  -4   12.50    1.00
  -1  -4  -4   13.70    1.00
  -1  -4  -4   12.70    0.80
  -1  -4  -4   12.70    0.60
   1   4   4   13.40    0.70
   1   4   4   12.70    0.60
   1   4   4   13.40    0.90
   1   4   4    4.70    7.50
   1   4   4   12.70    1.00
  -2  -4  -4   88.89    3.10
  -2  -4  -4  111.39   14.20
  -2  -4  -4   87.99    2.60
  -2  -4  -4   88.69    2.50
   2   4   4   89.39    2.40
   2   4   4   86.99    2.50
   2   4   4   67.09   12.10
   2   4   4   89.79    2.80
  -3  -4  -4    7.00    1.00
  -3  -4  -4    6.70    1.00
  -3  -4  -4   20.30   11.50
  -3  -4  -4    6.50    0.80
  -3  -4  -4    8.30    1.10
  -3  -4  -4    7.60    0.80
   3   4   4    7.00    0.70
   3   4   4    7.30    0.80
   3   4   4    6.00    0.80
   3   4   4    7.00    0.90
   3   4   4    1.70    7.00
  -4  -4  -4    7.40    1.10
   4   4   4   -5.10   11.60
   4   4   4    7.40    0.90
   4   4   4   -9.80   14.90
  -5  -4  -4    0.10    0.80
  -5  -4  -4    1.90    0.90
   5   4   4   31.60   20.40
   5   4   4   -9.20   15.20
   5   4   4    0.20    0.70
  -6  -4  -4   19.90    2.30
  -6  -4  -4   14.40    1.80
   6   4   4   43.90   19.70
   6   4   4   14.70    1.70
   6   4   4   14.90    1.80
  -7  -4  -4   -0.50    1.30
  -7  -4  -4   -0.80    1.50
   7   4   4   -0.30    1.40
   7   4   4   -0.30    1.40
  -8  -4  -4    0.80    2.00
  -8  -4  -4    1.50    1.90
   8   4   4    3.20    1.80
   8   4   4    3.40    1.80
   7  -5  -4   -1.40    2.00
   7  -5  -4   -2.10    2.60
  -7   5   4   -0.30    1.90
  -7   5   4   -0.60    2.30
   6  -5  -4    1.60    1.50
   6  -5  -4    1.40    2.00
  -6   5   4    1.30    1.90
  -6   5   4    0.10    1.40
   5  -5  -4   21.10    2.90
   5  -5  -4   19.80    2.60
  -5   5   4   18.80    2.40
  -5   5   4   16.90    1.50
  -5   5   4   17.20    2.00
   4  -5  -4   21.80    2.20
  -4   5   4   21.00    2.10
  -4   5   4   24.40    1.90
  -4   5   4   22.80    1.30
   3  -5  -4   18.80    0.90
   3  -5  -4   20.00    0.90
   3  -5  -4   22.80    1.90
   3  -5  -4   18.90    1.00
   3  -5  -4   16.00   10.10
  -3   5   4   20.00    1.70
  -3   5   4   22.20    1.60
  -3   5   4   19.80    0.90
  -3   5   4   28.20   11.70
   2  -5  -4    2.30    0.50
   2  -5  -4    2.60    8.80
   2  -5  -4    2.50    0.80
   2  -5  -4    2.70    0.50
  -2   5   4   -6.30    9.60
  -2   5   4    3.80    0.60
  -2   5   4    2.00    0.70
  -2   5   4    2.70    0.60
   1  -5  -4   69.09    2.80
   1  -5  -4  100.89   15.60
   1  -5  -4   70.29    2.30
  -1   5   4   62.59    2.30
  -1   5   4   59.29   11.30
  -1   5   4   69.29    2.50
  -1   5   4   70.79    2.30
   0  -5  -4    6.80    1.00
   0  -5  -4    6.10    0.90
   0  -5  -4    5.60    8.30
   0  -5  -4    5.30    0.60
   0   5   4    6.90    1.00
   0   5   4    5.50    0.70
   0   5   4    5.50    0.60
   0   5   4    1.20    8.30
  -1  -5  -4    9.50    1.10
  -1  -5  -4    8.60    0.50
  -1  -5  -4    9.30    1.10
  -1  -5  -4    9.90    0.70
   1   5   4    9.10    0.50
   1   5   4    8.80    0.60
   1   5   4    9.10    9.20
   1   5   4    8.20    1.00
   1   5   4    9.70    0.80
  -2  -5  -4  131.89    4.20
  -2  -5  -4  126.79    3.40
  -2  -5  -4  130.39    3.90
  -2  -5  -4  117.19   19.10
  -2  -5  -4  134.09    3.50
   2   5   4  130.09    3.30
   2   5   4  125.79   19.10
   2   5   4  125.69    3.80
   2   5   4  126.49    3.30
   2   5   4  135.69    3.80
   2   5   4  130.59    3.20
  -3  -5  -4   38.90    1.80
  -3  -5  -4   18.60   13.80
  -3  -5  -4   38.10    1.60
  -3  -5  -4   38.50    2.10
   3   5   4   40.90    1.80
   3   5   4   28.30    9.40
   3   5   4   38.60    1.30
   3   5   4   37.60    1.50
   3   5   4   40.00    1.70
  -4  -5  -4    2.30    0.80
  -4  -5  -4    1.50    0.60
   4   5   4  -11.70   13.40
   4   5   4    1.70    0.70
   4   5   4  -19.30   17.40
  -5  -5  -4   26.80    1.90
  -5  -5  -4   25.10    2.10
   5   5   4   42.40   18.10
   5   5   4   28.30    1.60
   5   5   4   50.39   23.90
   5   5   4   27.90    1.80
   5   5   4   27.30    1.30
  -6  -5  -4    3.10    1.20
  -6  -5  -4    3.90    1.50
   6   5   4    2.90    1.00
   6   5   4    2.90    1.10
   6   5   4    0.30   29.30
  -7  -5  -4    3.50    1.70
  -7  -5  -4    2.70    1.50
   7   5   4    1.70    1.40
   7   5   4    2.60    1.30
  -8  -5  -4   -1.40    1.90
  -8  -5  -4   -0.30    2.30
   8   5   4    0.20    1.90
   6  -6  -4   -1.20    1.80
   6  -6  -4   -3.60    2.10
  -6   6   4    3.00    1.60
  -6   6   4    2.90    2.10
   5  -6  -4   21.00    2.80
   5  -6  -4   14.90    2.50
  -5   6   4   13.40    1.90
  -5   6   4   15.90    2.10
   4  -6  -4   12.40    2.50
  -4   6   4   14.80    1.70
  -4   6   4    9.60    1.50
  -4   6   4   11.50    1.20
   3  -6  -4    1.30    0.40
   3  -6  -4    1.70    1.00
   3  -6  -4    1.80    0.60
  -3   6   4    1.10    0.80
  -3   6   4    2.40    1.00
  -3   6   4    1.60    0.40
   2  -6  -4    8.90    9.70
   2  -6  -4   -0.20    0.40
   2  -6  -4    0.40    0.80
  -2   6   4    0.20    0.70
  -2   6   4   -6.50   10.00
  -2   6   4    0.70    0.60
   1  -6  -4   47.90    2.40
   1  -6  -4   50.89    1.90
   1  -6  -4   48.90   11.50
  -1   6   4   48.30    1.80
  -1   6   4   32.50   10.80
  -1   6   4   49.10    2.10
   0  -6  -4    0.00    0.50
   0  -6  -4   -0.40    0.60
   0  -6  -4    0.20    0.40
   0  -6  -4   -0.20    9.00
   0   6   4    0.10    0.50
   0   6   4   -0.50    0.70
   0   6   4   -4.50    8.70
   0   6   4    0.00    0.40
  -1  -6  -4    7.70    1.20
  -1  -6  -4    8.30    1.20
  -1  -6  -4    7.70    0.60
  -1  -6  -4   20.50   11.60
  -1  -6  -4    7.80    0.60
   1   6   4    8.20    0.60
   1   6   4    7.80    0.50
   1   6   4    1.50    9.60
   1   6   4    9.20    1.20
   1   6   4    9.70    1.00
  -2  -6  -4   13.70    0.80
  -2  -6  -4   16.60    1.50
  -2  -6  -4   14.20    1.40
  -2  -6  -4   13.30   10.60
  -2  -6  -4   13.70    1.00
   2   6   4   12.50    0.80
   2   6   4   14.60    1.30
   2   6   4   11.80    0.60
   2   6   4   -5.60    9.00
   2   6   4   11.80    1.10
   2   6   4   12.30    0.90
  -3  -6  -4   56.79    2.70
  -3  -6  -4   58.19    2.10
   3   6   4   38.10   13.90
   3   6   4   31.60   18.80
   3   6   4   58.19    2.30
   3   6   4   60.79    2.30
   3   6   4   53.49    1.80
   3   6   4   54.99    1.60
  -4  -6  -4   89.29    3.00
  -4  -6  -4   87.69    3.70
   4   6   4   95.09    3.20
   4   6   4   83.49    2.50
   4   6   4   86.49    2.90
  -5  -6  -4    7.50    1.60
  -5  -6  -4    7.20    1.00
   5   6   4   10.30    1.10
   5   6   4    5.60   15.60
   5   6   4   10.30    1.50
   5   6   4    7.20    0.90
   5   6   4  -12.10   25.70
  -6  -6  -4    2.90    1.50
  -6  -6  -4    2.70    1.10
   6   6   4    1.10    1.10
  -7  -6  -4    2.10    1.50
  -7  -6  -4   -0.90    1.90
   7   6   4   -1.20    1.40
   6  -7  -4    3.80    2.00
   6  -7  -4    1.80    2.40
  -6   7   4    1.10    1.70
  -6   7   4    3.90    2.40
   5  -7  -4   -1.80    1.90
   5  -7  -4   -1.70    1.70
  -5   7   4    1.20    1.40
  -5   7   4    2.40    1.80
   4  -7  -4    5.60    1.70
  -4   7   4    2.00    1.40
  -4   7   4    4.50    1.20
   3  -7  -4    5.30    0.80
   3  -7  -4    4.80    1.60
  -3   7   4    4.60    1.00
  -3   7   4    2.90    1.20
   2  -7  -4   21.20    1.30
   2  -7  -4   20.90    2.10
  -2   7   4   22.80    1.50
  -2   7   4   22.90    1.80
   1  -7  -4   44.20    1.90
   1  -7  -4   40.00    2.40
   1  -7  -4   33.00   11.40
  -1   7   4   47.40    2.20
  -1   7   4   42.20    1.80
  -1   7   4   44.10    2.50
  -1   7   4   18.90   12.60
   0  -7  -4    7.20   10.30
   0  -7  -4   12.10    0.70
   0  -7  -4   11.50    1.60
   0  -7  -4   12.50    1.30
   0   7   4   11.30    0.90
   0   7   4    7.90   12.20
   0   7   4   12.40    1.20
   0   7   4   15.90    1.60
  -1  -7  -4    7.50   12.60
  -1  -7  -4    6.70    1.10
  -1  -7  -4    4.90    0.60
  -1  -7  -4    5.20    1.00
   1   7   4   -0.10   12.60
   1   7   4    5.70    1.00
   1   7   4    7.00    1.00
   1   7   4    5.50    0.60
  -2  -7  -4    0.10    0.80
  -2  -7  -4    1.60    0.80
  -2  -7  -4    1.80    0.60
   2   7   4    0.00   10.90
   2   7   4   -6.90   16.50
   2   7   4    0.40    0.60
   2   7   4    1.40    0.70
   2   7   4    1.80    0.60
  -3  -7  -4   59.99    2.90
  -3  -7  -4   57.19    2.10
   3   7   4   37.50   20.80
   3   7   4   59.79    2.40
   3   7   4   38.00   12.40
   3   7   4   60.09    2.50
  -4  -7  -4   30.60    1.60
  -4  -7  -4   28.00    2.40
   4   7   4   25.70    1.60
   4   7   4   -3.10   13.50
   4   7   4   29.50    1.80
  -5  -7  -4    1.10    1.00
  -5  -7  -4    2.40    1.40
   5   7   4    1.80    0.80
  -6  -7  -4    7.30    1.80
  -6  -7  -4    4.80    1.30
   6   7   4    5.80    1.40
  -7  -7  -4   -0.50    2.10
  -7  -7  -4   -1.90    1.60
   7   7   4    1.00    1.60
   5  -8  -4    4.80    2.40
   5  -8  -4    4.60    2.00
  -5   8   4    3.50    1.50
  -5   8   4    4.50    2.30
   4  -8  -4    8.30    2.00
  -4   8   4   10.70    1.80
  -4   8   4   13.60    2.00
   3  -8  -4   16.20    1.60
   3  -8  -4   16.60    2.60
  -3   8   4   18.00    2.40
  -3   8   4   15.90    1.80
   2  -8  -4    0.60    0.70
   2  -8  -4    2.20    1.20
  -2   8   4    1.70    1.10
  -2   8   4    0.80    0.80
   1  -8  -4    0.60    0.70
   1  -8  -4    0.00    1.00
  -1   8   4    0.10    1.00
  -1   8   4    1.30    0.80
   0  -8  -4    2.20    0.80
   0  -8  -4    2.60    1.10
   0   8   4    1.20    1.10
   0   8   4    1.40    0.80
  -1  -8  -4    6.10    1.20
  -1  -8  -4    7.60    1.20
  -1  -8  -4    6.10    0.70
   1   8   4    6.30    1.20
   1   8   4    9.20    1.20
  -2  -8  -4    1.50    0.90
  -2  -8  -4    0.10    0.60
  -2  -8  -4    1.40    1.20
   2   8   4    0.30    0.70
   2   8   4  -26.00   17.70
   2   8   4    1.70    0.90
  -3  -8  -4   32.60    2.20
  -3  -8  -4   27.50    2.40
  -3  -8  -4   29.10    1.60
   3   8   4   27.50    1.80
   3   8   4   58.49   21.40
   3   8   4   28.60    1.90
  -4  -8  -4    4.40    0.90
  -4  -8  -4    2.10    1.50
   4   8   4    5.00    1.00
   4   8   4    6.80    1.30
  -5  -8  -4   28.30    2.00
  -5  -8  -4   26.40    2.90
   5   8   4   22.10    2.00
   5   8   4   26.80    2.20
  -6  -8  -4   -2.00    1.40
  -6  -8  -4    1.10    1.90
   6   8   4    0.50    1.40
   4  -9  -4    0.50    2.10
  -4   9   4    0.70    1.90
   3  -9  -4    6.20    1.90
  -3   9   4   10.80    1.90
   2  -9  -4    8.70    1.80
   2  -9  -4    4.40    1.00
  -2   9   4    6.20    1.50
   1  -9  -4    2.20    1.40
   1  -9  -4    2.60    0.90
  -1   9   4    1.30    1.40
  -1   9   4    2.40    1.00
   0  -9  -4    9.00    1.30
   0  -9  -4   11.70    1.80
   0   9   4    7.30    1.60
   0   9   4   11.30    1.50
  -1  -9  -4   10.50    1.70
   1   9   4   14.20    1.60
   1   9   4   14.40    2.10
  -2  -9  -4    2.50    1.20
  -2  -9  -4    5.50    1.40
   2   9   4    3.90    1.00
   2   9   4    3.40    1.20
  -3  -9  -4    3.50    1.40
  -3  -9  -4    3.20    1.50
   3   9   4    3.70    1.10
   3   9   4    2.90    1.00
  -4  -9  -4   30.50    3.00
  -4  -9  -4   30.50    1.90
   4   9   4   23.40    2.40
   4   9   4   23.30    2.00
  -5  -9  -4    0.00    1.30
  -5  -9  -4    2.50    2.00
   5   9   4   -0.40    1.30
   5   9   4    0.40    1.30
  -6  -9  -4    4.50    1.70
  -6  -9  -4    6.20    2.50
   3 -10  -4   19.50    2.80
  -3  10   4   21.60    3.10
   2 -10  -4    1.70    2.00
   2 -10  -4   -0.70    1.20
  -2  10   4   -0.10    1.50
   1 -10  -4   -1.80    1.20
   1 -10  -4    1.70    1.70
  -1  10   4   -0.60    1.40
  -1  10   4    2.00    1.70
   0 -10  -4    0.90    1.60
   0 -10  -4    2.00    1.20
   0  10   4    0.50    1.70
  -1 -10  -4    2.50    1.40
  -1 -10  -4    2.60    1.60
   1  10   4    3.40    1.20
   1  10   4    3.10    1.50
  -2 -10  -4    3.60    1.50
  -2 -10  -4    4.00    1.60
   2  10   4    0.70    1.40
   2  10   4    0.10    1.10
  -3 -10  -4   10.50    1.80
  -3 -10  -4   15.00    2.20
   3  10   4    6.40    1.60
   3  10   4   11.50    1.60
  -4 -10  -4    1.60    1.60
  -4 -10  -4   -3.30    1.90
   4  10   4    0.40    1.30
   4  10   4    2.40    1.30
  -5 -10  -4   -0.60    2.40
   5  10   4   -1.00    1.50
   2 -11  -4   10.10    2.70
  -2  11   4    6.90    2.10
   1 -11  -4    3.00    1.50
   1 -11  -4    4.80    2.30
  -1  11   4    5.80    1.80
  -1  11   4    4.50    2.20
   0 -11  -4    4.80    2.20
   0 -11  -4    0.70    1.40
   0  11   4    3.60    2.00
   0  11   4    0.70    1.60
  -1 -11  -4    0.70    2.10
  -1 -11  -4   -1.50    1.50
   1  11   4    4.00    1.50
   1  11   4    1.30    1.90
  -2 -11  -4   -1.00    1.80
  -2 -11  -4   -2.70    1.80
   2  11   4    0.30    1.50
   2  11   4    1.50    1.80
  -3 -11  -4    4.40    2.20
  -3 -11  -4    1.90    1.90
   3  11   4    5.10    1.60
   0  11  -5    0.00    1.70
   0 -11   5    0.30    1.30
   0 -11   5   -1.30    2.00
  -1  11  -5    0.40    1.70
   1 -11   5   -1.10    1.30
   1 -11   5    0.00    2.50
   3  10  -5    0.80    2.80
  -3 -10   5    1.90    1.80
  -3 -10   5    1.90    1.70
   2  10  -5    3.00    1.80
  -2 -10   5    2.00    1.50
  -2 -10   5   -2.10    1.60
   1  10  -5    3.00    1.60
  -1 -10   5    5.30    1.70
  -1 -10   5    0.50    1.30
   0  10  -5    3.60    1.50
   0 -10   5    5.10    1.70
   0 -10   5    2.10    1.30
  -1  10  -5    1.50    1.50
   1 -10   5    0.80    1.10
   1 -10   5    1.00    1.60
  -2  10  -5    4.00    1.50
   2 -10   5    4.20    1.20
   2 -10   5    1.90    1.80
  -3  10  -5   11.80    1.90
   3 -10   5   11.20    2.30
   3 -10   5   11.00    1.60
   4   9  -5    2.30    1.90
  -4  -9   5    1.20    1.80
  -4  -9   5    1.90    1.90
   3   9  -5    3.90    1.70
  -3  -9   5    5.10    1.50
  -3  -9   5    5.00    1.60
   2   9  -5    9.50    1.70
  -2  -9   5    5.50    1.50
  -2  -9   5    5.50    1.40
   1   9  -5   -0.90    1.20
  -1  -9   5   -0.10    1.00
  -1  -9   5    1.10    1.30
   0   9  -5   -2.50    1.10
   0  -9   5   -0.10    1.20
   0  -9   5   -0.50    1.00
  -1   9  -5    1.00    1.20
   1  -9   5    2.00    1.40
   1  -9   5    2.20    0.70
   1  -9   5    1.50    1.00
  -2   9  -5   -0.20    1.10
   2  -9   5   -1.70    1.00
   2  -9   5    0.00    0.80
   2  -9   5    0.30    1.40
  -3   9  -5   11.90    1.70
  -3   9  -5   10.10    1.60
   3  -9   5    8.70    2.00
   3  -9   5   10.30    1.50
  -4   9  -5    9.10    1.70
  -4   9  -5   10.10    1.80
   4  -9   5    8.00    1.30
   4  -9   5    8.20    2.10
   4  -9   5    8.70    1.50
   4  -9   5    8.30    1.50
  -5   9  -5   13.60    2.10
   5  -9   5   10.80    1.70
   5   8  -5    2.00    2.00
  -5  -8   5    2.90    1.80
  -5  -8   5   -0.80    1.80
   4   8  -5    8.70    1.90
  -4  -8   5    8.40    1.80
  -4  -8   5    9.20    1.80
   3   8  -5   20.10    2.60
  -3  -8   5   16.50    2.20
  -3  -8   5   15.50    2.20
   2   8  -5   -1.50    1.10
  -2  -8   5   -1.40    1.10
  -2  -8   5    0.00    1.00
  -2  -8   5    1.50    0.70
   1   8  -5   31.50    2.30
  -1  -8   5   27.60    1.50
  -1  -8   5   30.70    2.30
  -1  -8   5   30.40    2.00
   0   8  -5    3.10    1.10
   0  -8   5    3.60    1.00
   0  -8   5    2.90    0.60
   0  -8   5    4.30    1.20
  -1   8  -5   10.70    1.60
   1  -8   5    7.80    1.40
   1  -8   5    7.90    1.20
   1  -8   5    7.40    1.00
  -2   8  -5    8.70    1.20
  -2   8  -5    9.70    1.40
   2  -8   5    9.00    1.20
   2  -8   5    8.90    1.60
   2  -8   5    6.60    1.30
  -3   8  -5   47.10    2.70
  -3   8  -5   43.70    2.50
   3  -8   5   42.90    2.50
   3  -8   5   41.40    2.00
   3  -8   5   51.19    3.20
  -4   8  -5    1.80    1.20
  -4   8  -5    1.50    1.10
   4  -8   5    1.40    1.20
   4  -8   5   -0.70    0.90
   4  -8   5    1.70    1.50
  -5   8  -5    2.70    1.50
   5  -8   5    0.20    1.20
   5  -8   5   -2.40    1.70
   5  -8   5    0.40    1.40
   5   7  -5    0.40    1.80
  -5  -7   5   -0.40    1.50
  -5  -7   5   -2.00    1.50
   4   7  -5   16.90    2.60
  -4  -7   5   14.90    2.10
  -4  -7   5   17.10    1.70
  -4  -7   5   12.10    1.80
   3   7  -5   -0.10    1.10
  -3  -7   5    2.00    1.00
  -3  -7   5    2.60    0.80
  -3  -7   5    2.20    1.00
   2   7  -5    6.90    1.30
  -2  -7   5    7.10    1.10
  -2  -7   5   10.60    1.50
  -2  -7   5    8.60    1.00
   1   7  -5   17.70    1.70
  -1  -7   5   17.40    1.80
  -1  -7   5   15.30    1.00
  -1  -7   5   14.80    1.40
   0   7  -5   15.50    1.60
   0  -7   5   14.10    1.00
   0  -7   5   15.30    1.70
   0  -7   5   13.70    1.40
  -1   7  -5    3.50    0.90
  -1   7  -5    4.20    1.00
   1  -7   5    2.70    0.60
   1  -7   5    3.10    0.90
   1  -7   5    2.60    1.00
  -2   7  -5    5.20   12.70
  -2   7  -5    0.10    0.70
   2  -7   5   -0.50    0.70
   2  -7   5    0.20    0.60
   2  -7   5   -7.20   14.20
  -3   7  -5   25.00   11.50
  -3   7  -5   39.20    2.10
  -3   7  -5   43.30    2.50
   3  -7   5   42.80    2.30
   3  -7   5   40.30    1.70
   3  -7   5   40.30   12.80
   3  -7   5   42.00    2.00
   3  -7   5   45.40    2.90
  -4   7  -5   50.79    2.60
  -4   7  -5   58.39    2.90
   4  -7   5   54.79    2.40
   4  -7   5   56.29    3.30
   4  -7   5   55.99    2.80
   4  -7   5   47.70    2.70
  -5   7  -5    0.40    1.20
   5  -7   5    1.50    1.10
   5  -7   5    1.20    1.50
   5  -7   5   -0.90    1.20
   5  -7   5   -0.30    1.20
  -6   7  -5   -1.10    1.40
  -6   7  -5   -0.60    1.20
   6  -7   5   -0.60    1.40
   6  -7   5   -2.20    1.70
   6  -7   5    0.30    1.50
   6  -7   5   -2.00    1.60
   6   6  -5   -1.60    1.80
  -6  -6   5    0.10    1.80
  -6  -6   5    1.20    1.50
   5   6  -5    4.20    1.70
  -5  -6   5    4.30    1.40
  -5  -6   5    6.50    1.20
  -5  -6   5    4.50    1.40
   4   6  -5    0.80    1.20
  -4  -6   5    0.30    1.10
  -4  -6   5    1.50    1.00
  -4  -6   5    0.30    0.80
   3   6  -5    4.80    1.20
  -3  -6   5    4.40    1.00
  -3  -6   5    6.30    1.10
  -3  -6   5    7.40    0.90
   2   6  -5   -8.70   24.40
   1   6  -5    0.80    0.70
   1   6  -5  -21.30   16.10
  -1  -6   5    0.70    0.60
  -1  -6   5    0.60    0.50
  -1  -6   5   15.80   14.20
  -1  -6   5    1.70    0.80
   0   6  -5   -4.20   13.60
   0   6  -5    0.40    0.70
   0   6  -5   -0.80    0.60
   0  -6   5    0.20    0.60
   0  -6   5    0.20    0.40
   0  -6   5  -20.80   12.20
   0  -6   5   -0.10    0.80
  -1   6  -5    3.80   11.40
  -1   6  -5    3.90    0.80
  -1   6  -5    4.40    0.80
   1  -6   5    3.30    0.60
   1  -6   5    9.90   12.00
   1  -6   5    3.50    0.80
   1  -6   5    3.60    0.70
  -2   6  -5   14.80   11.10
  -2   6  -5   27.00    1.70
  -2   6  -5   28.90    1.80
   2  -6   5   25.70    1.20
   2  -6   5   30.80    2.10
   2  -6   5   25.30    1.60
   2  -6   5   26.70    1.50
   2  -6   5   37.00   12.50
  -3   6  -5    3.90    1.00
  -3   6  -5    4.60    0.80
  -3   6  -5    4.20   10.40
   3  -6   5    3.80    0.60
   3  -6   5    4.30    1.30
   3  -6   5    5.90   11.50
   3  -6   5    5.50    1.00
   3  -6   5    2.30    0.70
  -4   6  -5   -2.70    9.70
  -4   6  -5    3.50    1.00
  -4   6  -5    3.50    0.90
   4  -6   5    2.80    1.00
   4  -6   5    3.70    0.80
   4  -6   5    4.30    1.30
   4  -6   5   10.50   11.10
   4  -6   5    2.60    1.00
  -5   6  -5    8.40    1.20
  -5   6  -5    7.90    1.40
   5  -6   5    6.20    1.30
   5  -6   5    7.40    1.40
   5  -6   5    6.90    1.20
  -6   6  -5   26.90    2.50
  -6   6  -5   25.50    2.20
   6  -6   5   26.80    2.70
   6  -6   5   34.00    2.80
   6  -6   5   22.60    2.30
  -7   6  -5    3.30    1.50
  -7   6  -5    7.20    1.80
   7  -6   5    3.10    1.80
   7  -6   5    6.70    1.80
   7  -6   5    3.80    2.00
   6   5  -5   -0.50    1.60
  -6  -5   5   -0.50    1.40
  -6  -5   5   -0.30    1.60
   5   5  -5    1.60    1.40
  -5  -5   5    2.10    1.10
  -5  -5   5    2.00    1.20
  -5  -5   5    3.80    1.50
   4   5  -5    8.80    1.50
  -4  -5   5    8.30    1.00
  -4  -5   5    7.60    1.10
  -4  -5   5    7.80    1.30
   3   5  -5   19.60   17.70
   3   5  -5   26.00    1.40
   3   5  -5   29.70    2.30
  -3  -5   5   31.00   19.50
  -3  -5   5   29.00    1.60
  -3  -5   5   29.40    1.70
  -3  -5   5   31.10    1.90
   2   5  -5  -12.30   16.50
   2   5  -5   22.40    1.70
  -2  -5   5   18.20    1.20
  -2  -5   5   20.50    1.50
  -2  -5   5   33.10   16.70
  -2  -5   5   20.30    1.40
   1   5  -5   25.50    1.80
   1   5  -5   32.20   14.60
  -1  -5   5   27.40    1.50
  -1  -5   5   25.90    1.30
  -1  -5   5   24.90    1.60
  -1  -5   5   24.70   11.70
   0   5  -5   71.09    2.80
   0   5  -5   75.29    2.70
   0  -5   5   73.79    2.60
   0  -5   5   57.89   14.30
   0  -5   5   71.49    2.90
   0  -5   5   76.19    2.50
  -1   5  -5    4.00    0.70
  -1   5  -5    3.80    0.70
  -1   5  -5   15.40    9.80
   1  -5   5    4.90    0.60
   1  -5   5    5.80    0.80
   1  -5   5    3.60    0.40
   1  -5   5    2.60    0.80
   1  -5   5   14.90   10.80
   1  -5   5    3.60    0.70
  -2   5  -5    4.60    0.80
  -2   5  -5    4.50    9.90
  -2   5  -5    4.70    0.80
  -2   5  -5    6.90    1.00
   2  -5   5    6.90    1.00
   2  -5   5    6.90    1.20
   2  -5   5   -2.50   10.60
   2  -5   5    6.20    0.80
   2  -5   5    7.40    1.00
   2  -5   5    7.50    0.80
  -3   5  -5   97.89    3.50
  -3   5  -5   97.49   14.70
  -3   5  -5   95.99    3.00
   3  -5   5   98.59    3.40
   3  -5   5   82.29   13.80
   3  -5   5   97.49    3.00
   3  -5   5   97.99    3.40
  -4   5  -5   95.39    3.60
  -4   5  -5   93.99    3.00
  -4   5  -5   93.19    3.30
  -4   5  -5   74.09   12.80
   4  -5   5   72.29   13.50
   4  -5   5   99.69    3.60
   4  -5   5  100.49    3.60
   4  -5   5   95.39    3.30
  -5   5  -5   21.70    1.90
  -5   5  -5   23.10    1.80
   5  -5   5   20.90    1.80
   5  -5   5   15.80   12.20
   5  -5   5   27.60    2.20
   5  -5   5   24.00    2.00
  -6   5  -5    6.20    1.30
  -6   5  -5    6.50    1.50
   6  -5   5    3.80    1.40
   6  -5   5    7.90    1.60
   6  -5   5    6.60    1.50
  -7   5  -5    6.60    1.70
  -7   5  -5    3.40    1.50
   7  -5   5    2.00    1.80
   7  -5   5    4.30    1.70
   7  -5   5    1.30    1.60
   6   4  -5    1.10    1.50
  -6  -4   5    0.90    1.50
  -6  -4   5   -1.00    1.20
   5   4  -5    4.90    1.30
   5   4  -5   33.40   32.90
   5   4  -5    8.10    1.60
  -5  -4   5  -27.90   27.00
  -5  -4   5    4.50    1.00
  -5  -4   5    7.70    1.40
   4   4  -5  -13.40   25.40
  -4  -4   5  -16.30   20.60
   3   4  -5    2.70    0.70
   3   4  -5    2.80    0.90
   3   4  -5    2.50    0.90
   3   4  -5   14.10   20.40
  -3  -4   5   -8.20   17.60
  -3  -4   5    3.40    0.80
  -3  -4   5    2.90    0.70
  -3  -4   5    2.80    0.70
   2   4  -5    0.30    0.30
   2   4  -5   -5.40   16.20
   2   4  -5    0.50    0.60
   2   4  -5   -0.40    0.50
  -2  -4   5    0.30    0.40
  -2  -4   5    4.30   12.60
  -2  -4   5    0.00    0.50
  -2  -4   5   -0.80    0.50
  -2  -4   5    0.00    0.50
   1   4  -5   39.60    2.00
   1   4  -5   30.10   13.30
   1   4  -5   39.50    1.70
   1   4  -5   38.70    1.10
  -1  -4   5   39.80    1.20
  -1  -4   5   31.50   11.40
  -1  -4   5   42.80    1.90
  -1  -4   5   40.20    1.70
  -1  -4   5   40.80    1.70
   0   4  -5    0.20    0.40
   0   4  -5  -10.10    9.90
   0   4  -5    1.30    0.60
   0   4  -5    0.50    0.30
   0  -4   5    1.10    0.40
   0  -4   5   12.20    9.10
   0  -4   5    0.60    0.40
   0  -4   5    0.40    0.20
   0  -4   5    1.70    0.60
  -1   4  -5   15.60    1.10
  -1   4  -5   13.80    1.10
  -1   4  -5   15.60    9.50
  -1   4  -5   15.60    1.00
   1  -4   5   14.10    0.70
   1  -4   5    7.10   10.60
   1  -4   5   16.00    1.30
   1  -4   5   15.10    1.10
   1  -4   5   15.10    1.10
  -2   4  -5    8.90    1.00
  -2   4  -5    8.50    1.10
  -2   4  -5    8.00    9.10
  -2   4  -5    8.10    0.90
   2  -4   5   -3.30   10.00
   2  -4   5   11.70    1.10
   2  -4   5    8.10    0.80
   2  -4   5    9.20    0.90
   2  -4   5    8.70    1.00
  -3   4  -5   47.80   10.40
  -3   4  -5   61.39    2.60
  -3   4  -5   60.49    2.30
   3  -4   5   34.60   11.50
   3  -4   5   61.79    2.40
   3  -4   5   63.69    2.20
   3  -4   5   62.19    2.50
  -4   4  -5   77.49    2.40
  -4   4  -5   78.79    3.10
  -4   4  -5   78.09    2.80
  -4   4  -5   52.39   11.20
   4  -4   5   64.09   12.90
   4  -4   5   74.69    3.00
   4  -4   5   75.49    3.00
   4  -4   5   81.69    3.00
  -5   4  -5   37.90    2.30
  -5   4  -5   29.60   13.10
   5  -4   5   34.20    2.10
   5  -4   5   24.30   12.40
   5  -4   5   28.70    2.50
  -6   4  -5    0.60    1.00
  -6   4  -5    0.80    1.10
   6  -4   5    1.50    1.30
   6  -4   5    0.50    1.10
   6  -4   5    0.90    1.20
  -7   4  -5   11.80    1.70
  -7   4  -5   11.50    1.70
   7  -4   5   16.20    2.10
   7  -4   5    9.00    1.90
   7  -4   5   14.60    2.10
   7   3  -5    6.80    2.30
   7   3  -5    5.30    1.80
  -7  -3   5    7.90    1.70
  -7  -3   5   11.00    2.20
   6   3  -5    5.20    1.60
   6   3  -5    0.70    1.50
  -6  -3   5    0.10    1.40
  -6  -3   5    2.80    1.40
   5   3  -5   24.30   21.60
   5   3  -5    4.00    1.20
   5   3  -5    2.70    1.20
  -5  -3   5    1.40    1.00
  -5  -3   5  -22.40   18.30
   4   3  -5   32.30   23.10
   4   3  -5    1.90    0.90
   4   3  -5    1.70    1.00
  -4  -3   5    2.50   18.80
  -4  -3   5    2.00    0.60
  -4  -3   5    1.00    0.70
  -4  -3   5    1.60    0.70
  -4  -3   5    0.90    0.70
   3   3  -5    0.90    0.80
   3   3  -5    0.90    0.60
  -3  -3   5    1.90    0.50
  -3  -3   5   -5.10   12.20
  -3  -3   5    2.10    0.50
  -3  -3   5    1.60    0.60
  -3  -3   5    0.80    0.60
   2   3  -5   12.20    0.80
   2   3  -5   12.40    1.30
   2   3  -5   15.40   15.30
  -2  -3   5   12.50    1.00
  -2  -3   5   10.90    0.90
  -2  -3   5   12.30    1.00
  -2  -3   5   13.80    1.00
  -2  -3   5   10.10    8.60
   1   3  -5    8.00   11.70
   1   3  -5    3.70    0.70
   1   3  -5    3.30    0.50
   1   3  -5    3.20    0.50
  -1  -3   5    3.20    0.60
  -1  -3   5    4.10    0.50
  -1  -3   5   11.20    7.90
  -1  -3   5    4.40    0.70
  -1  -3   5    3.70    0.60
   0   3  -5    0.00    0.30
   0   3  -5    1.50    0.50
   0   3  -5    8.30    9.00
   0   3  -5    1.50    0.40
   0  -3   5    0.80    0.40
   0  -3   5    1.00    0.30
   0  -3   5    1.10    0.50
   0  -3   5    0.40    0.40
   0  -3   5   -3.50    8.10
  -1   3  -5  274.37    6.70
  -1   3  -5  267.57    6.80
  -1   3  -5  265.17    6.40
   1  -3   5  258.67   21.70
   1  -3   5  265.27    6.20
   1  -3   5  270.87    6.70
   1  -3   5  276.47    6.70
  -2   3  -5  193.58    4.70
  -2   3  -5  184.68    5.20
  -2   3  -5  168.68    4.90
  -2   3  -5  198.08   17.00
   2  -3   5  190.38    5.00
   2  -3   5  202.08   18.10
   2  -3   5  189.48    4.70
   2  -3   5  175.98    4.90
   2  -3   5  183.28    5.00
  -3   3  -5   30.30    1.70
  -3   3  -5   25.40    9.40
  -3   3  -5   29.00    1.50
  -3   3  -5   30.60    1.20
   3  -3   5   29.10    1.50
   3  -3   5   28.70    1.40
   3  -3   5   37.30   11.10
   3  -3   5   31.10    1.60
   3  -3   5   29.70    1.60
  -4   3  -5   61.59    2.70
  -4   3  -5   58.29    1.80
  -4   3  -5   51.89   11.80
  -4   3  -5   62.99    2.40
   4  -3   5   61.09    2.50
   4  -3   5   59.99    1.80
   4  -3   5   32.40   10.40
   4  -3   5   58.89    2.50
   4  -3   5   58.39    1.90
   4  -3   5   59.59    2.60
  -5   3  -5   93.99    3.40
  -5   3  -5   70.89   15.00
  -5   3  -5   90.99    3.50
   5  -3   5   90.29    3.70
   5  -3   5   90.89    3.60
   5  -3   5  104.69   18.90
   5  -3   5   91.89    3.50
  -6   3  -5    4.30    1.20
  -6   3  -5    2.30    1.00
   6  -3   5    3.90    1.30
   6  -3   5    3.20    1.20
  -7   3  -5    9.80    1.60
  -7   3  -5   13.30    1.90
   7  -3   5   12.90    1.90
   7  -3   5   13.80    2.10
  -8   3  -5    5.10    1.80
  -8   3  -5    6.10    2.00
   8  -3   5   11.00    2.20
   8  -3   5    8.70    2.30
   7   2  -5   -0.60    2.10
   7   2  -5   -0.70    1.70
  -7  -2   5    2.90    1.80
  -7  -2   5    0.80    1.70
   6   2  -5   -0.10    1.50
  -6  -2   5    0.20    1.30
  -6  -2   5    0.90    1.30
   5   2  -5   15.10   25.80
  -5  -2   5   10.50   22.70
   4   2  -5   -5.40   19.30
   4   2  -5    1.40    0.90
   4   2  -5    1.70    1.00
  -4  -2   5    1.20    0.50
  -4  -2   5    2.10    0.80
  -4  -2   5    1.20    0.70
  -4  -2   5   15.00   17.10
  -4  -2   5    1.60    0.70
   3   2  -5    7.00    1.10
   3   2  -5   17.10   16.30
   3   2  -5    6.50    1.10
  -3  -2   5    4.90    0.70
  -3  -2   5    5.30    0.80
  -3  -2   5    4.80    0.60
  -3  -2   5    3.90    0.70
  -3  -2   5    5.90    0.80
  -3  -2   5   16.60    9.80
   2   2  -5   43.60    2.20
   2   2  -5   37.90    1.50
   2   2  -5   36.40   14.00
  -2  -2   5   38.60    1.60
  -2  -2   5   41.40    1.60
  -2  -2   5   39.90    1.70
  -2  -2   5   38.10    1.60
  -2  -2   5   46.80   12.70
  -2  -2   5   42.30    1.70
   1   2  -5   61.59    2.00
   1   2  -5   60.09   12.90
   1   2  -5   61.79    2.50
   1   2  -5   61.19    1.80
  -1  -2   5   61.69    1.90
  -1  -2   5   63.59    2.10
  -1  -2   5   57.89    2.10
  -1  -2   5   58.39    2.10
  -1  -2   5   60.69    2.00
  -1  -2   5   56.89   11.50
   0   2  -5  212.78    5.60
   0   2  -5  205.28    5.20
   0   2  -5  185.78   18.50
   0   2  -5  199.78    4.90
   0  -2   5  230.38   19.60
   0  -2   5  206.08    4.90
   0  -2   5  208.68    5.20
   0  -2   5  205.58    5.20
  -1   2  -5  101.29    2.90
  -1   2  -5  102.99    3.00
  -1   2  -5   77.99   13.70
  -1   2  -5  105.49    3.20
   1  -2   5  102.59    3.00
   1  -2   5  103.39    3.00
   1  -2   5  104.09    2.70
   1  -2   5  104.09   13.50
   1  -2   5   95.99    3.10
  -2   2  -5   25.20    1.60
  -2   2  -5   18.40    7.30
  -2   2  -5   24.50    1.10
  -2   2  -5   24.00    1.20
  -2   2  -5   23.80    1.40
   2  -2   5   25.80    1.30
   2  -2   5   16.60    9.00
   2  -2   5   24.50    1.30
   2  -2   5   24.00    1.30
  -3   2  -5   96.59    3.00
  -3   2  -5   98.29    2.50
  -3   2  -5  104.39   14.10
  -3   2  -5  100.69    3.40
   3  -2   5   99.29    3.20
   3  -2   5  107.09   13.80
   3  -2   5  101.29    3.20
   3  -2   5   98.29    3.20
   3  -2   5   98.39    2.70
  -4   2  -5  270.77    7.30
  -4   2  -5  268.27    6.90
  -4   2  -5  248.48   22.00
   4  -2   5  255.57    6.90
   4  -2   5  268.37    7.20
   4  -2   5  275.97   21.10
   4  -2   5  267.77    7.10
  -5   2  -5  234.18    6.50
  -5   2  -5  232.48   25.00
  -5   2  -5  232.88    6.80
   5  -2   5  233.08    6.80
   5  -2   5  228.28    6.70
   5  -2   5  244.38   23.30
  -6   2  -5   18.10    1.80
  -6   2  -5   19.10    2.90
   6  -2   5   14.80    2.00
  -7   2  -5    1.20    1.40
  -7   2  -5    1.20    1.20
   7  -2   5   -1.20    1.50
   7  -2   5    0.30    1.40
  -8   2  -5    2.50    1.70
  -8   2  -5    4.40    2.00
   8  -2   5   -0.40    1.80
   8  -2   5    0.00    2.10
   7   1  -5    0.10    1.70
   7   1  -5    1.30    2.10
  -7  -1   5    2.40    1.80
  -7  -1   5    5.40    1.70
   6   1  -5    0.40    1.50
   6   1  -5    2.50    1.50
  -6  -1   5    2.00    1.30
  -6  -1   5    0.70    1.30
  -6  -1   5    1.70    1.30
   5   1  -5  -21.60   23.00
  -5  -1   5   -7.80   20.60
   4   1  -5    3.30    1.10
   4   1  -5    2.20    1.00
   4   1  -5   15.70   18.10
  -4  -1   5    3.70    0.90
  -4  -1   5  -19.40   16.10
  -4  -1   5    3.30    0.80
  -4  -1   5    2.70    0.80
   3   1  -5   16.10    1.60
   3   1  -5   17.70   14.10
  -3  -1   5   -3.10   13.20
  -3  -1   5   15.80    1.20
  -3  -1   5   17.50    0.80
  -3  -1   5   17.80    1.30
  -3  -1   5   15.70    0.90
  -3  -1   5   17.50    1.30
   2   1  -5   60.09    2.60
   2   1  -5   59.39   12.70
  -2  -1   5   55.49   12.90
  -2  -1   5   58.09    2.20
  -2  -1   5   61.09    2.10
  -2  -1   5   60.79    2.10
  -2  -1   5   57.79    1.80
  -2  -1   5   59.79    1.80
   1   1  -5    0.00    9.40
   1   1  -5    1.90    0.60
   1   1  -5    2.50    0.40
   1   1  -5    2.30    0.40
  -1  -1   5    2.10    0.50
  -1  -1   5    2.70    0.40
  -1  -1   5    2.30    0.50
  -1  -1   5    2.40    0.50
  -1  -1   5   -2.00    8.90
  -1  -1   5    2.40    0.50
   0   1  -5    1.00    0.40
   0   1  -5    0.90    0.40
   0   1  -5   -0.90    7.90
   0   1  -5    0.50    0.40
   0   1  -5    0.80    0.40
   0  -1   5    0.80    0.30
   0  -1   5    0.40    0.40
   0  -1   5    0.90    0.50
   0  -1   5    0.90    5.50
   0  -1   5    0.30    0.30
  -1   1  -5  134.59   14.80
  -1   1  -5  113.69    3.30
  -1   1  -5  109.59    3.10
  -1   1  -5  115.49    3.30
   1  -1   5  113.79    3.10
   1  -1   5  113.69    3.20
   1  -1   5  121.69   14.00
   1  -1   5  106.19    3.20
   1  -1   5  108.49    3.00
  -2   1  -5  386.46    9.60
  -2   1  -5  398.76    9.00
  -2   1  -5  405.56    9.20
  -2   1  -5  383.66   23.40
   2  -1   5  406.56    9.40
   2  -1   5  397.56    9.30
   2  -1   5  390.46    9.10
   2  -1   5  415.26   23.10
   2  -1   5  401.66    9.40
  -3   1  -5   22.90    1.20
  -3   1  -5   11.90    8.50
  -3   1  -5   21.90    0.70
  -3   1  -5   23.30    1.50
   3  -1   5   23.10    1.30
   3  -1   5   20.90    1.30
   3  -1   5   20.90    0.80
   3  -1   5   21.30    1.30
   3  -1   5   14.80    8.00
  -4   1  -5    3.70    0.70
  -4   1  -5   -1.90   10.30
  -4   1  -5    2.40    0.80
   4  -1   5    3.30    0.70
   4  -1   5    3.50    8.90
   4  -1   5    3.80    0.90
  -5   1  -5   70.29   16.50
  -5   1  -5   93.99    3.40
  -5   1  -5   87.09    3.50
   5  -1   5   58.09   13.20
   5  -1   5   92.09    3.40
   5  -1   5   94.49    3.60
  -6   1  -5    4.40    1.20
  -6   1  -5    4.30    1.10
   6  -1   5    3.70    1.20
  -7   1  -5   37.10    2.70
  -7   1  -5   43.00    3.00
   7  -1   5   39.80    2.90
   7  -1   5   36.00    3.00
  -8   1  -5    5.80    1.90
  -8   1  -5    5.20    1.70
   8  -1   5    8.30    2.10
   8  -1   5    6.30    2.20
   7   0  -5    0.80    1.80
   7   0  -5    3.40    2.20
  -7   0   5    0.90    1.80
  -7   0   5    1.20    1.60
   6   0  -5    3.50    1.50
   6   0  -5    2.10    1.60
  -6   0   5    2.80    1.40
  -6   0   5    3.80    1.30
  -6   0   5    1.20    1.20
   5   0  -5   -0.40    1.20
   5   0  -5   -0.70    1.10
  -5   0   5   -0.90    0.90
  -5   0   5    1.10    0.90
  -5   0   5   -0.70    1.00
   4   0  -5   56.19    3.00
   4   0  -5   60.69    2.90
   4   0  -5   27.10   17.40
  -4   0   5   46.30   18.00
  -4   0   5   58.19    2.60
  -4   0   5   59.09    2.50
  -4   0   5   56.49    2.70
   3   0  -5   71.19   15.40
   3   0  -5   58.99    2.80
  -3   0   5   62.19    2.20
  -3   0   5   59.49    2.40
  -3   0   5   49.20   16.50
  -3   0   5   57.59    2.40
   2   0  -5    1.10    0.60
  -2   0   5    0.00    0.30
  -2   0   5    0.50    0.50
  -2   0   5    0.20    0.40
  -2   0   5   -0.20    0.30
  -2   0   5   11.00    8.50
   1   0  -5   13.30    1.10
   1   0  -5   14.00    0.70
   1   0  -5   12.00    0.80
   1   0  -5    5.60    9.20
  -1   0   5   12.70    0.80
  -1   0   5   13.60    0.80
  -1   0   5   12.50    0.90
  -1   0   5    7.80    7.10
  -1   0   5   13.30    1.00
   0   0  -5   58.19    1.90
   0   0  -5   59.69   11.00
   0   0  -5   62.79    2.00
   0   0  -5   63.29    1.90
   0   0   5   63.79    2.00
   0   0   5   61.19   11.60
   0   0   5   62.69    2.00
   0   0   5   61.89    2.10
   0   0   5   65.09    1.80
   0   0   5   62.09    1.80
   0   0   5   61.99    2.50
  -1   0  -5  535.55   12.70
  -1   0  -5  575.64   12.80
  -1   0  -5  574.84   28.60
   1   0   5  545.25   28.10
   1   0   5  580.84   13.40
   1   0   5  554.64   12.70
   1   0   5  568.84   12.70
   1   0   5  556.84   12.50
   1   0   5  580.34   12.60
  -2   0  -5  207.18   18.30
  -2   0  -5  227.78    5.50
  -2   0  -5  228.28    6.00
  -2   0  -5  230.38    5.40
   2   0   5  226.38    5.70
   2   0   5  224.08   18.10
   2   0   5  222.48    5.30
   2   0   5  224.88    5.60
   2   0   5  222.98    5.60
  -3   0  -5   23.00    1.20
  -3   0  -5   23.50    1.50
  -3   0  -5   34.50    9.70
   3   0   5   23.90    1.40
   3   0   5   22.30    1.30
   3   0   5   18.70    8.10
  -4   0  -5  427.86   10.30
  -4   0  -5  419.96   10.70
   4   0   5  437.56   29.60
   4   0   5  437.16   10.50
   4   0   5  419.66   10.50
  -5   0  -5  367.66    9.20
  -5   0  -5  362.26    9.60
  -5   0  -5  326.77   31.10
   5   0   5  365.46    9.50
   5   0   5  355.16    9.30
   5   0   5  355.36   25.70
  -6   0  -5    0.80    1.00
   6   0   5   -0.30    0.90
  -7   0  -5   18.10    2.20
  -7   0  -5   14.60    2.10
   7   0   5   17.00    2.40
   7   0   5   18.60    2.40
  -8   0  -5   11.50    2.10
  -8   0  -5   12.80    2.10
   8   0   5   11.50    2.10
   8   0   5   11.00    2.40
   7  -1  -5    2.70    1.70
   7  -1  -5   -0.90    2.10
  -7   1   5    1.40    1.60
  -7   1   5    1.70    1.70
  -7   1   5    2.60    2.00
   6  -1  -5    1.50    1.60
   6  -1  -5   -0.80    1.50
  -6   1   5   -0.60    1.50
  -6   1   5    0.60    1.30
  -6   1   5    0.70    1.20
   5  -1  -5    0.30    1.10
   5  -1  -5   -1.10    1.20
  -5   1   5   -1.10    1.00
  -5   1   5    0.90    1.10
   4  -1  -5   15.30    1.80
   4  -1  -5   -1.40   15.00
  -4   1   5   12.40    1.60
  -4   1   5   31.10   16.50
  -4   1   5   12.30    1.30
  -4   1   5   14.60    1.40
   3  -1  -5    7.80    1.30
   3  -1  -5   15.70   12.90
  -3   1   5    6.80    1.00
  -3   1   5    6.20    1.00
  -3   1   5    5.90    0.90
  -3   1   5   10.50    9.50
   2  -1  -5  126.29    4.20
   2  -1  -5  125.39    3.30
   2  -1  -5  131.59   18.30
  -2   1   5  129.19    3.40
  -2   1   5  130.59    3.80
  -2   1   5  120.79   16.10
  -2   1   5  127.09    3.70
   1  -1  -5    3.30    0.70
   1  -1  -5    2.60    8.60
   1  -1  -5    2.40    0.40
   1  -1  -5    2.60    0.40
  -1   1   5    2.00    0.30
  -1   1   5    3.30    6.00
  -1   1   5    2.70    0.50
  -1   1   5    2.50    0.50
  -1   1   5    2.50    0.40
   0  -1  -5   19.10    8.30
   0  -1  -5   17.30    1.40
   0  -1  -5   17.70    1.00
   0  -1  -5   18.90    0.80
   0   1   5   18.20    0.80
   0   1   5   17.90    1.00
   0   1   5   17.90    0.90
   0   1   5   18.10    0.80
   0   1   5   17.40    0.90
   0   1   5   22.00    8.60
  -1  -1  -5   52.49    1.90
  -1  -1  -5   51.29    2.20
  -1  -1  -5   53.19    1.50
  -1  -1  -5   38.40    8.90
   1   1   5   53.89    1.60
   1   1   5   51.69    1.90
   1   1   5   48.00    1.90
   1   1   5   54.09    1.80
   1   1   5   53.89    1.80
   1   1   5   49.99    1.60
   1   1   5   41.70   10.10
  -2  -1  -5   14.40    0.80
  -2  -1  -5   13.10    0.80
  -2  -1  -5   12.80    0.80
  -2  -1  -5   13.10    1.10
  -2  -1  -5   14.50    6.60
   2   1   5   11.40    0.90
   2   1   5   13.40    0.90
   2   1   5   12.60    0.80
   2   1   5   11.60    0.80
   2   1   5   13.00    0.90
   2   1   5    9.00    5.90
  -3  -1  -5  154.18    4.20
  -3  -1  -5  147.19   17.90
  -3  -1  -5  150.88    3.50
  -3  -1  -5  148.29    4.60
   3   1   5  155.68   15.70
   3   1   5  154.28    4.20
   3   1   5  152.58    4.40
  -4  -1  -5   28.50   12.60
  -4  -1  -5   25.30    1.50
  -4  -1  -5   26.90    1.80
   4   1   5   23.10    9.60
   4   1   5   26.40    1.60
   4   1   5   27.00    1.60
  -5  -1  -5  453.05   11.10
  -5  -1  -5  452.95   33.50
  -5  -1  -5  454.95   11.60
   5   1   5  437.86   30.20
   5   1   5  453.05   11.40
   5   1   5  446.86   11.20
  -6  -1  -5   40.10    2.40
  -6  -1  -5   41.60    2.60
   6   1   5   39.20    2.50
   6   1   5   39.90    2.90
  -7  -1  -5    3.00    1.30
  -7  -1  -5    6.90    1.70
   7   1   5    4.30    1.40
   7   1   5    4.40    1.50
  -8  -1  -5    1.30    1.90
  -8  -1  -5    6.40    1.90
   8   1   5   -1.60    1.60
   8   1   5    0.70    1.80
   7  -2  -5    2.10    1.80
   7  -2  -5    5.60    2.40
  -7   2   5    1.70    1.60
  -7   2   5   -2.40    2.20
  -7   2   5    0.50    1.90
   6  -2  -5    0.90    1.60
   6  -2  -5   -0.10    1.50
  -6   2   5    1.50    1.30
  -6   2   5    0.50    1.40
  -6   2   5   -1.40    1.20
   5  -2  -5   12.40    3.20
   5  -2  -5   17.60    2.60
  -5   2   5   12.90    1.60
  -5   2   5   15.90    1.80
   4  -2  -5   11.90   14.10
   4  -2  -5   -0.80    0.80
  -4   2   5    0.00    0.70
  -4   2   5   -0.20    0.80
  -4   2   5    1.60   15.20
   3  -2  -5    8.50   12.30
  -3   2   5    4.40   11.50
   2  -2  -5   23.00    0.90
   2  -2  -5   29.30    8.90
   2  -2  -5   23.00    1.70
  -2   2   5    7.00   10.30
  -2   2   5   25.00    1.30
  -2   2   5   22.10    1.40
  -2   2   5   22.40    1.10
   1  -2  -5    6.80    0.60
   1  -2  -5    6.90    0.50
   1  -2  -5   -2.20    9.70
   1  -2  -5    7.30    1.00
  -1   2   5    6.80    0.70
  -1   2   5    3.70   10.10
  -1   2   5    7.30    0.80
  -1   2   5    7.80    0.50
  -1   2   5    6.80    0.60
   0  -2  -5   22.30    1.30
   0  -2  -5   21.50    1.10
   0  -2  -5   25.00    8.60
   0   2   5   21.50    1.10
   0   2   5   33.00    9.70
   0   2   5   21.40    0.80
   0   2   5   22.50    1.10
   0   2   5   22.20    1.00
   0   2   5   21.50    0.70
  -1  -2  -5  242.18    5.40
  -1  -2  -5  245.38   18.80
  -1  -2  -5  230.28    6.50
  -1  -2  -5  238.08    6.00
  -1  -2  -5  227.48    5.90
   1   2   5  240.38    5.50
   1   2   5  245.18    5.80
   1   2   5  238.08    5.90
   1   2   5  244.68    5.60
   1   2   5  232.08    6.00
   1   2   5  241.48   20.30
  -2  -2  -5  301.77    7.70
  -2  -2  -5  293.37    6.90
  -2  -2  -5  306.57   21.60
  -2  -2  -5  298.07    7.00
  -2  -2  -5  293.57    7.10
   2   2   5  308.37    7.10
   2   2   5  284.27   21.40
   2   2   5  298.27    7.10
   2   2   5  302.07    7.30
  -3  -2  -5  152.28    4.70
  -3  -2  -5  148.09   17.00
  -3  -2  -5  148.99    3.80
  -3  -2  -5  150.88    3.60
  -3  -2  -5  151.08    4.10
   3   2   5  156.08   14.80
   3   2   5  154.38    4.10
   3   2   5  147.69    4.30
  -4  -2  -5   -6.40    8.50
   4   2   5   -2.00   10.40
  -5  -2  -5    2.50    0.80
  -5  -2  -5    3.80    1.10
   5   2   5    3.70    0.80
   5   2   5    4.20    0.90
   5   2   5   -0.70   13.60
  -6  -2  -5    4.00    1.10
   6   2   5    3.90    1.10
   6   2   5    2.20    0.90
  -7  -2  -5   23.20    2.60
  -7  -2  -5   22.00    2.50
   7   2   5   21.50    2.40
   7   2   5   22.60    2.50
  -8  -2  -5   11.50    2.30
  -8  -2  -5    9.60    2.00
   8   2   5   10.10    1.80
   8   2   5    4.30    1.90
   7  -3  -5    2.30    2.60
   7  -3  -5   -0.70    1.90
  -7   3   5    2.80    2.30
  -7   3   5    1.20    1.90
   6  -3  -5    1.90    1.80
   6  -3  -5    2.60    1.60
  -6   3   5   -0.30    1.00
  -6   3   5    0.80    1.30
  -6   3   5    0.10    1.60
   5  -3  -5    2.20    1.50
   5  -3  -5    3.90    1.50
  -5   3   5    2.30    1.10
  -5   3   5    6.40    1.50
  -5   3   5    3.70    0.90
   4  -3  -5   39.20    2.60
  -4   3   5   43.90    2.40
  -4   3   5   43.10   18.40
  -4   3   5   46.10    2.60
  -4   3   5   42.10    1.90
   3  -3  -5   71.59    3.20
   3  -3  -5   66.29    2.00
   3  -3  -5   45.20   14.50
  -3   3   5   68.59    2.70
  -3   3   5   69.49    2.90
  -3   3   5   70.69    2.20
  -3   3   5   63.59   16.00
   2  -3  -5   52.79   12.70
   2  -3  -5   57.29    1.60
   2  -3  -5   55.89    2.60
  -2   3   5   56.89    2.30
  -2   3   5   55.59    1.70
  -2   3   5   58.69    2.20
  -2   3   5   30.60   13.40
   1  -3  -5    1.70    0.40
   1  -3  -5    1.20    0.60
   1  -3  -5    4.50    8.50
  -1   3   5    1.90    0.40
  -1   3   5   -3.50    8.80
  -1   3   5    1.20    0.40
  -1   3   5    1.10    0.40
   0  -3  -5   46.90    2.10
   0  -3  -5   48.00    1.80
   0   3   5   36.10   10.10
   0   3   5   50.19    1.70
   0   3   5   46.80    1.70
   0   3   5   46.80    1.80
  -1  -3  -5  194.28    5.20
  -1  -3  -5  197.48    4.40
  -1  -3  -5  191.08    5.10
  -1  -3  -5  199.98    5.30
  -1  -3  -5  181.78   19.60
   1   3   5  194.58    5.10
   1   3   5  200.58    4.50
   1   3   5  163.48   16.50
   1   3   5  195.98    4.50
  -2  -3  -5   53.89    1.90
  -2  -3  -5   55.89    1.80
  -2  -3  -5   55.79    2.10
  -2  -3  -5   53.19   12.50
  -2  -3  -5   56.79    2.30
   2   3   5   56.99    2.10
   2   3   5   57.99    1.80
   2   3   5   53.49    1.80
  -3  -3  -5   13.40    0.90
  -3  -3  -5   13.40    1.00
  -3  -3  -5   19.70   12.50
  -3  -3  -5   14.40    1.40
  -3  -3  -5   14.70    1.00
   3   3   5    9.50    9.70
   3   3   5   14.80    1.00
   3   3   5   16.20    1.20
  -4  -3  -5  224.68   25.90
  -4  -3  -5  209.58    5.00
  -4  -3  -5  192.78    4.90
  -4  -3  -5  208.38    6.20
  -4  -3  -5  215.88    5.70
   4   3   5  201.38    5.80
   4   3   5  189.18   18.60
   4   3   5  216.08    5.50
  -5  -3  -5  249.08    6.70
  -5  -3  -5  235.78    7.20
   5   3   5  226.68   21.60
   5   3   5  235.88    6.80
   5   3   5  240.68    6.50
  -6  -3  -5   32.80    2.20
  -6  -3  -5   35.60    2.60
   6   3   5   35.30    2.40
   6   3   5   26.00   26.00
   6   3   5   33.10    2.00
  -7  -3  -5    4.70    1.70
  -7  -3  -5    6.70    1.60
   7   3   5    7.60    1.50
  -8  -3  -5    6.40    2.20
  -8  -3  -5    4.60    1.90
   8   3   5    3.20    1.90
   8   3   5    0.10    1.70
   7  -4  -5    2.80    2.90
  -7   4   5    1.10    3.10
   6  -4  -5    7.50    1.80
   6  -4  -5    2.70    1.90
  -6   4   5    8.60    2.10
  -6   4   5    6.10    1.80
   5  -4  -5    1.20    1.50
  -5   4   5    0.70    1.40
  -5   4   5    2.30    1.20
  -5   4   5    1.50    0.80
   4  -4  -5   25.50    2.40
  -4   4   5   23.50    1.40
  -4   4   5   26.60    2.10
  -4   4   5   25.00    1.90
   3  -4  -5   13.40   11.50
  -3   4   5    4.30   12.10
   2  -4  -5  104.99    2.70
   2  -4  -5  104.29    3.90
   2  -4  -5  131.09   17.50
   2  -4  -5  102.69    2.60
  -2   4   5  100.39    2.70
  -2   4   5  101.79    3.50
  -2   4   5  108.49    3.40
  -2   4   5  103.09   18.90
   1  -4  -5   37.80    2.10
   1  -4  -5   39.20    1.60
   1  -4  -5   42.00   11.20
  -1   4   5   36.90    1.50
  -1   4   5   41.80    1.70
  -1   4   5   36.50   10.70
  -1   4   5   39.10    1.80
   0  -4  -5    5.70    0.90
   0  -4  -5    8.80    6.90
   0  -4  -5    5.10    0.80
   0   4   5    6.40    0.60
   0   4   5   15.40    9.60
   0   4   5    5.60    0.80
  -1  -4  -5   16.10    1.20
  -1  -4  -5   15.60    0.60
  -1  -4  -5   16.20    1.00
  -1  -4  -5   14.20    1.20
  -1  -4  -5   16.00    9.90
   1   4   5   15.80    0.60
   1   4   5   15.20    1.00
   1   4   5   25.40   10.50
   1   4   5   16.40    0.90
   1   4   5   15.80    0.60
  -2  -4  -5  152.28    3.80
  -2  -4  -5  148.69    4.60
  -2  -4  -5  144.69    4.10
  -2  -4  -5  157.28    4.40
   2   4   5  147.59    3.90
   2   4   5  155.58   18.30
   2   4   5  149.19    3.80
   2   4   5  157.08    4.30
  -3  -4  -5   74.29    3.10
  -3  -4  -5   76.79    2.70
  -3  -4  -5   74.49    2.40
  -3  -4  -5   93.39   17.20
   3   4   5   75.89    2.70
   3   4   5   98.99   17.90
   3   4   5   73.39    2.30
  -4  -4  -5    2.30    0.60
  -4  -4  -5    0.90   15.70
  -4  -4  -5    1.90    0.60
  -4  -4  -5    2.90    0.90
  -4  -4  -5    2.50    0.80
   4   4   5    1.80    0.70
   4   4   5   -2.00    9.60
   4   4   5    2.60    0.60
   4   4   5    3.10    0.60
  -5  -4  -5  100.29    3.00
  -5  -4  -5  100.49    4.20
  -5  -4  -5  104.89    3.60
   5   4   5   98.19    2.80
   5   4   5  101.59    3.30
   5   4   5   59.59   18.70
   5   4   5  103.79    3.70
   5   4   5   87.29   18.30
   6   4   5  -18.00   19.80
  -7  -4  -5    5.50    1.80
  -7  -4  -5    1.20    1.40
   7   4   5    2.50    1.50
   7   4   5    4.60    1.40
  -8  -4  -5    3.20    2.00
  -8  -4  -5    1.20    2.20
   8   4   5   -2.10    1.70
   8   4   5   -1.00    1.80
   6  -5  -5    0.70    2.30
   6  -5  -5    0.20    1.80
  -6   5   5   -1.40    1.60
  -6   5   5    0.00    1.90
   5  -5  -5    5.90    1.80
  -5   5   5    5.90    1.40
  -5   5   5    3.90    1.50
   4  -5  -5    3.10    1.30
  -4   5   5    2.60    1.20
  -4   5   5    1.60    1.00
  -4   5   5    3.70    1.20
   3  -5  -5    2.70    1.00
  -3   5   5    4.60    0.90
  -3   5   5    2.70    0.40
  -3   5   5    2.80    1.00
   2  -5  -5    3.20    0.50
   2  -5  -5    2.70    0.90
   2  -5  -5    2.90    0.60
   2  -5  -5   10.50   11.20
  -2   5   5    2.90    0.60
  -2   5   5    3.80    0.90
  -2   5   5  -13.50   10.90
  -2   5   5    2.80    0.70
   1  -5  -5   20.90    1.60
   1  -5  -5   14.90    9.90
  -1   5   5   19.30    1.20
  -1   5   5   17.30    1.20
  -1   5   5   30.60   11.20
  -1   5   5   19.30    1.30
   0  -5  -5   69.79    2.50
   0  -5  -5   68.09    2.90
   0  -5  -5   75.19   14.60
   0   5   5   68.19    2.50
   0   5   5   72.79    2.20
   0   5   5   50.79   12.80
  -1  -5  -5   32.10    1.40
  -1  -5  -5   36.60    1.90
  -1  -5  -5   36.20    1.90
  -1  -5  -5   39.20   12.00
   1   5   5   35.50    1.60
   1   5   5   29.50    9.60
   1   5   5   36.80    1.30
  -2  -5  -5   55.09    2.50
  -2  -5  -5   58.29    2.40
  -2  -5  -5   51.19    1.90
  -2  -5  -5   55.69    1.80
  -2  -5  -5   44.00   15.00
   2   5   5   51.29    1.70
   2   5   5   56.99    2.30
   2   5   5   62.09   13.70
   2   5   5   55.59    1.70
   2   5   5   54.29    2.20
  -3  -5  -5  173.88   21.50
  -3  -5  -5  175.48    4.50
  -3  -5  -5  166.48    4.80
  -3  -5  -5  172.18    5.40
   3   5   5  168.48    4.70
   3   5   5  119.19   21.00
   3   5   5  167.38    4.80
  -4  -5  -5    0.30    0.60
  -4  -5  -5   -0.20    0.90
  -4  -5  -5    0.60    0.70
   4   5   5    3.00   11.00
   4   5   5    0.70    0.50
   4   5   5    0.60    0.70
   4   5   5   -0.70    0.50
  -5  -5  -5   17.80    1.50
  -5  -5  -5   22.30    2.20
  -5  -5  -5   20.60    1.60
   5   5   5   18.40    1.20
   5   5   5   22.50   24.10
   5   5   5   18.40    1.50
   5   5   5   22.30    1.70
   5   5   5   24.00   18.90
  -6  -5  -5   19.50    2.00
  -6  -5  -5   18.70    2.50
   6   5   5   18.40    2.00
   6   5   5   16.10    1.70
   6   5   5  -10.50   22.80
  -7  -5  -5    7.50    2.00
  -7  -5  -5   11.20    1.70
   7   5   5    6.90    1.60
   7   5   5    8.80    1.70
   6  -6  -5    4.80    2.50
   6  -6  -5    7.60    2.10
  -6   6   5    1.90    1.80
  -6   6   5    7.40    2.50
   5  -6  -5    5.20    1.90
  -5   6   5    5.10    1.40
  -5   6   5    4.80    1.80
   4  -6  -5    4.20    1.40
  -4   6   5    2.60    1.40
  -4   6   5    1.50    1.10
  -3   6   5    3.10    0.90
  -3   6   5    3.00    1.20
   2  -6  -5   -9.70   13.40
  -2   6   5    0.30   13.70
   1  -6  -5   19.40   11.40
  -1   6   5    7.10   11.30
   0  -6  -5    0.70   11.30
   0  -6  -5    4.00    1.00
   0  -6  -5    2.70    0.70
   0  -6  -5    2.90    0.70
   0   6   5    8.40   12.10
   0   6   5    3.70    0.80
  -1  -6  -5   90.99   17.20
  -1  -6  -5  104.19    3.60
  -1  -6  -5   95.29    2.70
  -1  -6  -5   99.49    3.70
   1   6   5  106.59    3.70
   1   6   5  101.29    2.80
   1   6   5   69.29   16.00
   1   6   5  105.99    3.40
  -2  -6  -5  -21.60   13.30
  -2  -6  -5    5.60    1.10
   2   6   5   -8.20   12.30
  -3  -6  -5    9.00   18.30
  -3  -6  -5   14.80    1.70
  -3  -6  -5   14.90    1.00
  -3  -6  -5   12.60    1.40
   3   6   5   13.80    0.90
   3   6   5   12.30    1.10
   3   6   5    4.80   10.40
   3   6   5   12.00    1.30
  -4  -6  -5   23.90    1.70
  -4  -6  -5   23.90    2.20
  -4  -6  -5   26.20    1.40
   4   6   5   25.10    1.50
   4   6   5   38.20   17.10
   4   6   5   21.60    1.20
   4   6   5   24.30    1.70
  -5  -6  -5   21.90    1.80
  -5  -6  -5   24.10    1.70
  -5  -6  -5   24.30    2.40
   5   6   5   21.60    1.40
   5   6   5   23.40    1.50
   5   6   5   21.60    1.80
  -6  -6  -5   33.80    2.30
  -6  -6  -5   37.70    3.10
   6   6   5   38.00    2.40
  -7  -6  -5    5.10    1.60
  -7  -6  -5    6.70    2.30
   7   6   5    4.90    1.60
   5  -7  -5    1.00    2.00
  -5   7   5    1.10    1.50
  -5   7   5    1.10    1.80
   4  -7  -5    2.60    1.80
  -4   7   5    4.20    1.60
  -4   7   5    2.40    1.50
   3  -7  -5    4.20    1.60
  -3   7   5    7.70    1.60
  -3   7   5    6.00    1.10
   2  -7  -5    5.50    0.80
  -2   7   5    6.20    1.30
  -2   7   5    6.40    1.00
   1  -7  -5    7.30    1.30
   1  -7  -5    7.10    0.90
  -1   7   5    5.10    0.80
  -1   7   5    6.60    1.10
   0  -7  -5   -4.60   14.70
   0   7   5   -9.30   15.50
   0   7   5   10.90    1.40
  -1  -7  -5   31.30    2.00
  -1  -7  -5   30.00    2.20
  -1  -7  -5   60.39   16.10
   1   7   5   32.90    2.10
   1   7   5   36.30    1.80
   1   7   5   30.90    1.30
   1   7   5   37.00   15.40
  -2  -7  -5   -0.90   17.70
  -2  -7  -5   10.40    0.90
  -2  -7  -5   12.00    1.60
  -2  -7  -5   10.30    1.60
   2   7   5    8.80    0.80
   2   7   5   11.50    1.20
   2   7   5   26.50   15.10
   2   7   5   12.90    1.50
  -3  -7  -5   44.50    2.40
  -3  -7  -5   43.80    1.80
  -3  -7  -5   42.90    2.70
   3   7   5   45.00    2.10
   3   7   5   50.79   13.70
   3   7   5   43.50    2.10
  -4  -7  -5   26.60    2.40
  -4  -7  -5   24.30    2.00
  -4  -7  -5   26.40    1.60
   4   7   5   23.90    1.80
   4   7   5   27.00    1.60
   4   7   5   -5.30   20.30
  -5  -7  -5    0.60    1.00
  -5  -7  -5   -0.50    1.40
  -5  -7  -5    0.90    1.10
   5   7   5    0.40    0.90
   5   7   5   -1.90    1.00
  -6  -7  -5   -2.50    1.30
  -6  -7  -5   -2.30    1.80
   6   7   5    1.40    1.30
  -7  -7  -5    8.00    1.80
  -7  -7  -5    5.40    2.40
   7   7   5    6.80    1.90
   5  -8  -5    1.60    2.40
  -5   8   5    5.60    2.40
  -5   8   5    4.20    1.70
   4  -8  -5   -1.50    2.00
  -4   8   5    3.10    1.90
  -4   8   5    0.40    1.40
   3  -8  -5    5.00    1.70
  -3   8   5   -0.80    1.40
  -3   8   5   -1.40    1.10
   2  -8  -5    2.70    0.80
   2  -8  -5    1.10    1.30
  -2   8   5    1.10    0.90
  -2   8   5    2.50    1.20
   1  -8  -5    2.00    0.80
   1  -8  -5    2.00    1.20
  -1   8   5    2.00    0.80
  -1   8   5    1.70    1.00
   0  -8  -5    2.00    1.30
   0  -8  -5    2.20    0.80
   0   8   5    2.30    1.30
   0   8   5    3.00    0.90
  -1  -8  -5   -0.90    1.10
  -1  -8  -5   -0.50    0.90
   1   8   5    0.70    1.20
   1   8   5   -0.10    0.80
  -2  -8  -5   16.10    2.00
  -2  -8  -5   20.30    2.00
   2   8   5   19.30    1.60
   2   8   5   18.20    1.90
  -3  -8  -5    6.70    1.50
  -3  -8  -5   10.30    1.40
   3   8   5   10.60    1.50
   3   8   5    7.80    1.20
  -4  -8  -5    9.70    1.80
  -4  -8  -5   11.80    1.50
  -4  -8  -5    9.00    1.40
   4   8   5   12.80    1.70
   4   8   5    9.80    1.50
  -5  -8  -5   -1.60    1.20
  -5  -8  -5   -1.60    1.30
  -5  -8  -5    1.40    1.70
   5   8   5    0.30    1.10
   5   8   5    1.50    1.30
  -6  -8  -5   47.60    4.00
  -6  -8  -5   44.90    3.00
   6   8   5   46.10    2.90
   4  -9  -5   -0.40    2.40
  -4   9   5   -1.60    2.00
   3  -9  -5   -0.20    1.90
  -3   9   5    0.50    1.80
   2  -9  -5    2.10    1.70
   2  -9  -5    1.20    1.20
  -2   9   5    3.30    1.40
   1  -9  -5    0.70    1.50
   1  -9  -5    1.40    1.00
  -1   9   5    1.10    1.20
   0  -9  -5   -0.80    1.00
   0  -9  -5    0.80    1.30
   0   9   5   -1.30    1.20
   0   9   5    2.60    1.40
  -1  -9  -5    3.60    1.50
  -1  -9  -5    4.20    1.30
   1   9   5    4.00    1.20
   1   9   5    5.10    1.50
  -2  -9  -5   12.30    1.90
  -2  -9  -5   17.00    2.30
   2   9   5   18.70    2.20
  -3  -9  -5   19.00    2.40
  -3  -9  -5   12.70    2.00
   3   9   5   20.80    1.90
   3   9   5   15.80    2.00
  -4  -9  -5   19.90    3.10
  -4  -9  -5   10.40    1.70
   4   9   5   17.50    2.10
   4   9   5   13.80    2.10
  -5  -9  -5    0.50    2.40
  -5  -9  -5    5.90    2.00
   5   9   5    2.70    1.50
   3 -10  -5   -1.50    2.40
  -3  10   5   -1.20    1.90
   2 -10  -5    3.20    2.20
  -2  10   5    0.70    1.80
   1 -10  -5    3.60    1.30
   1 -10  -5    0.40    1.80
  -1  10   5   -1.60    1.50
   0 -10  -5    4.30    1.30
   0 -10  -5    3.90    1.90
   0  10   5    5.40    1.90
   0  10   5    5.50    1.50
  -1 -10  -5    3.40    1.40
  -1 -10  -5    3.80    1.80
   1  10   5    5.00    1.30
   1  10   5    6.10    1.80
  -2 -10  -5   -2.90    1.50
  -2 -10  -5   -1.20    1.60
   2  10   5    1.40    1.40
   2  10   5    1.60    1.40
  -3 -10  -5   11.30    2.00
  -3 -10  -5   10.20    2.10
   3  10   5   10.10    1.60
   3  10   5    8.50    1.50
  -4 -10  -5   12.00    2.60
  -4 -10  -5   13.20    2.10
   4  10   5   19.80    2.50
   4  10   5   11.70    1.60
   1 -11  -5   -0.50    2.30
   1 -11  -5   -0.10    1.60
  -1  11   5    5.00    2.00
   0 -11  -5    0.00    1.60
   0 -11  -5    2.10    2.20
   0  11   5   -0.50    1.70
   0  11   5    0.10    2.10
  -1 -11  -5   -0.20    1.60
  -1 -11  -5   -2.60    2.10
   1  11   5   -0.10    1.60
   1  11   5    1.60    2.10
  -2 -11  -5   -0.30    2.00
  -2 -11  -5   -2.50    1.80
   2  11   5    3.30    1.70
   2  11   5    2.90    1.90
  -3 -11  -5   -0.50    2.20
  -3 -11  -5   -0.70    2.00
   3  11   5    0.40    1.80
   1  10  -6    1.20    1.90
  -1 -10   6   -1.00    1.80
  -1 -10   6   -0.40    1.50
   0  10  -6    0.70    1.50
   0 -10   6    2.80    1.40
   0 -10   6    0.10    1.70
  -1  10  -6   -0.60    1.60
   1 -10   6    1.70    1.80
   1 -10   6   -0.30    1.30
  -2  10  -6   -1.70    1.60
   2 -10   6    0.90    2.00
   2 -10   6    0.60    1.40
   3   9  -6    0.40    1.80
  -3  -9   6    0.00    1.60
  -3  -9   6   -0.70    1.70
   2   9  -6   -0.50    1.50
  -2  -9   6   -1.20    1.40
  -2  -9   6    1.10    1.60
   1   9  -6    3.30    1.60
  -1  -9   6    2.80    1.50
  -1  -9   6    1.30    1.20
   0   9  -6    4.40    1.50
   0  -9   6    8.30    1.60
   0  -9   6    4.70    1.30
  -1   9  -6    1.50    1.30
   1  -9   6   -2.20    1.40
   1  -9   6    2.00    0.80
   1  -9   6    1.40    1.10
  -2   9  -6   -0.10    1.20
   2  -9   6   -1.00    1.20
   2  -9   6    0.30    1.60
  -3   9  -6    5.10    1.50
  -3   9  -6    2.70    1.40
   3  -9   6    3.40    1.30
   3  -9   6    2.80    1.90
   3  -9   6    2.50    1.10
  -4   9  -6   10.00    1.90
   4  -9   6    7.40    2.30
   4  -9   6   11.10    1.80
   4  -9   6   10.00    1.50
   4   8  -6   -0.10    1.90
  -4  -8   6   -1.50    1.60
  -4  -8   6   -1.10    1.60
   3   8  -6    4.00    1.60
  -3  -8   6    6.30    1.60
  -3  -8   6    2.80    1.40
   2   8  -6   14.90    2.10
  -2  -8   6   19.50    2.10
  -2  -8   6   11.70    1.50
  -2  -8   6   19.80    2.30
   1   8  -6    3.60    1.30
  -1  -8   6    2.00    0.80
  -1  -8   6    1.20    1.20
  -1  -8   6    4.70    1.20
   0   8  -6    9.20    1.40
   0  -8   6    6.30    1.40
   0  -8   6    9.20    1.40
   0  -8   6    9.20    1.10
  -1   8  -6    5.20    1.20
   1  -8   6    5.70    1.20
   1  -8   6    6.70    1.50
   1  -8   6    4.50    0.70
  -2   8  -6    3.10    1.20
   2  -8   6    2.50    1.40
   2  -8   6    3.90    0.80
   2  -8   6    2.70    1.10
  -3   8  -6   -0.80    1.00
  -3   8  -6   -1.90    1.10
   3  -8   6    1.00    1.10
  -4   8  -6    6.00    1.50
   4  -8   6    9.60    1.60
   4  -8   6    7.30    1.10
   4  -8   6    6.70    1.90
  -5   8  -6   16.90    2.70
   5  -8   6   16.80    2.20
   5  -8   6   13.10    2.50
   5  -8   6   18.70    2.60
   5   7  -6   -2.20    2.00
  -5  -7   6    7.00    1.90
   4   7  -6    1.70    1.60
  -4  -7   6    3.30    1.40
  -4  -7   6    2.90    1.20
  -4  -7   6    0.50    1.30
   3   7  -6    2.50    1.30
  -3  -7   6    1.50    1.20
  -3  -7   6    2.20    1.20
  -3  -7   6    1.10    0.90
   2   7  -6    8.00    1.50
  -2  -7   6    7.80    1.30
  -2  -7   6    8.80    1.20
   1   7  -6   46.40    2.70
  -1  -7   6   44.50    1.90
  -1  -7   6   43.90    2.30
   0   7  -6    1.10    0.90
   0  -7   6    1.40    0.80
   0  -7   6    3.40    0.70
  -1   7  -6   -0.10    0.90
  -1   7  -6    1.20    0.90
   1  -7   6    1.40    1.10
   1  -7   6    1.30    0.60
   1  -7   6    1.30    0.80
  -2   7  -6    1.30    0.90
  -2   7  -6    0.20    0.80
   2  -7   6   -0.10    0.70
   2  -7   6    1.30    0.80
   2  -7   6    2.00    1.10
  -3   7  -6   -1.70    0.80
  -3   7  -6   -0.40    1.00
   3  -7   6   -0.50    0.90
   3  -7   6   -1.30    0.70
   3  -7   6    0.00    1.30
  -4   7  -6   -0.30    1.00
  -4   7  -6    0.50    1.10
   4  -7   6    1.00    1.10
   4  -7   6    1.40    1.50
   4  -7   6    1.20    1.00
  -5   7  -6    3.20    1.50
   5  -7   6    5.10    1.40
   5  -7   6    0.90    1.80
   5  -7   6    8.00    1.40
   6  -7   6   18.20    2.70
   6  -7   6   15.00    2.20
   6  -7   6   20.20    2.80
   5   6  -6    2.00    1.70
  -5  -6   6    4.20    1.60
  -5  -6   6    0.90    1.30
   4   6  -6    7.80    1.60
  -4  -6   6    6.50    1.30
  -4  -6   6    5.90    1.50
   3   6  -6    1.20    1.10
  -3  -6   6    1.00    1.00
  -3  -6   6    0.40    0.80
  -3  -6   6    2.70    1.00
   2   6  -6   40.00    2.60
  -2  -6   6   38.20    1.80
  -2  -6   6   37.30    2.20
  -2  -6   6   39.20    2.20
   1   6  -6    1.40    1.00
  -1  -6   6    0.10    0.50
  -1  -6   6   -0.70    0.70
  -1  -6   6    1.50    0.90
   0   6  -6   47.10    2.30
   0   6  -6   46.30    2.40
   0  -6   6   47.50    1.90
   0  -6   6   46.60    2.20
   0  -6   6   47.90    2.60
  -1   6  -6    1.10    0.80
  -1   6  -6    1.50    0.70
   1  -6   6    2.20    0.90
   1  -6   6    1.80    0.60
   1  -6   6    0.90    0.70
  -2   6  -6    2.70    0.80
  -2   6  -6    3.30    0.80
   2  -6   6    2.10    0.80
   2  -6   6    1.60    0.40
   2  -6   6    0.80    1.00
   2  -6   6    1.70    0.60
  -3   6  -6    3.60    0.90
  -3   6  -6    3.20    0.80
   3  -6   6    0.80    0.80
   3  -6   6    3.30    0.60
   3  -6   6    4.40    0.90
   3  -6   6    3.80    1.20
  -4   6  -6   -0.60    0.80
  -4   6  -6    1.60    1.00
   4  -6   6   -1.20    0.90
   4  -6   6    0.10    1.00
   4  -6   6   -0.50    0.80
  -5   6  -6   14.90    1.70
  -5   6  -6   10.40    1.70
   5  -6   6    9.70    1.30
   5  -6   6   10.90    1.60
   5  -6   6   11.50    1.60
  -6   6  -6    7.90    1.60
   6  -6   6    6.30    1.70
   6  -6   6    9.60    1.80
   6  -6   6    6.20    1.50
   6   5  -6   -0.10    2.00
  -6  -5   6   -0.80    1.50
  -6  -5   6    5.60    1.90
   5   5  -6    0.50    1.60
  -5  -5   6    1.00    1.40
  -5  -5   6   -1.30    1.20
   4   5  -6    0.60    1.30
  -4  -5   6    0.20    0.90
  -4  -5   6   -0.20    0.90
  -4  -5   6    1.80    1.00
   3   5  -6   38.50    2.60
  -3  -5   6   37.50    1.90
  -3  -5   6   37.20    2.20
  -3  -5   6   37.40    2.10
   2   5  -6    3.50   21.80
   2   5  -6   29.90    2.20
  -2  -5   6   27.20    1.80
  -2  -5   6   28.70    1.80
  -2  -5   6   28.80    1.60
  -2  -5   6   -6.90   17.90
   1   5  -6    1.00   16.90
   1   5  -6   18.30    1.70
  -1  -5   6   19.50    1.30
  -1  -5   6   18.10    1.30
  -1  -5   6   17.20    1.60
  -1  -5   6    2.40   11.40
   0   5  -6   20.50   15.40
   0   5  -6    3.70    0.90
   0   5  -6    3.60    0.80
   0  -5   6    4.10    0.90
   0  -5   6    5.50   13.10
   0  -5   6    4.00    0.70
   0  -5   6    3.40    0.70
  -1   5  -6   58.39    2.50
  -1   5  -6   60.49    2.50
  -1   5  -6   57.49    2.00
  -1   5  -6   49.80   13.40
   1  -5   6   58.19    2.00
   1  -5   6   60.89    2.80
   1  -5   6   61.29    2.40
   1  -5   6   58.99    1.60
   1  -5   6   40.00   15.10
   1  -5   6   61.49    2.30
  -2   5  -6   -0.80    0.60
  -2   5  -6   -7.90   13.00
  -2   5  -6   -0.90    0.60
   2  -5   6  -16.30   13.70
   2  -5   6   -0.60    0.80
   2  -5   6    1.30    0.40
   2  -5   6   -0.10    0.60
   2  -5   6    0.50    0.60
  -3   5  -6    1.50    0.80
  -3   5  -6   12.80   11.80
  -3   5  -6    0.20    0.60
   3  -5   6    0.10    0.70
   3  -5   6    1.50    0.70
   3  -5   6    0.40    0.50
   3  -5   6  -11.90   12.50
  -4   5  -6   10.30    1.50
  -4   5  -6    9.70    1.20
  -4   5  -6    9.60    1.30
   4  -5   6    7.20    1.10
   4  -5   6    7.30    1.20
   4  -5   6    7.40    1.20
  -5   5  -6    3.10    1.20
  -5   5  -6    4.50    1.10
   5  -5   6    4.30    1.00
   5  -5   6    5.30    1.20
   5  -5   6    4.80    1.30
  -6   5  -6   22.00    2.40
  -6   5  -6   26.00    2.30
   6  -5   6   23.40    2.20
   6  -5   6   23.50    2.50
   6  -5   6   19.70    2.60
  -7   5  -6    6.00    1.50
  -7   5  -6    7.50    1.90
   7  -5   6    6.40    2.00
   7  -5   6    2.90    1.70
   7  -5   6    6.70    1.80
   6   4  -6    3.30    2.10
  -6  -4   6    5.80    1.70
  -6  -4   6    2.90    1.50
   5   4  -6    0.10    1.50
  -5  -4   6    2.30    1.10
  -5  -4   6    2.10    1.30
   4   4  -6   37.30    2.70
   4   4  -6   33.60    2.10
   4   4  -6   12.60   30.40
  -4  -4   6   32.00    2.20
  -4  -4   6   31.30    2.10
  -4  -4   6   31.60    1.80
  -4  -4   6   48.90   30.80
   3   4  -6   14.70   23.20
   3   4  -6   19.70    1.90
  -3  -4   6   18.90    1.50
  -3  -4   6   23.00    1.70
  -3  -4   6   19.40    1.60
  -3  -4   6    0.00   20.40
   2   4  -6   24.20   15.40
   2   4  -6   28.70    1.50
   2   4  -6   31.80    2.00
  -2  -4   6   29.80    1.60
  -2  -4   6   29.10    1.70
  -2  -4   6   32.90    1.70
  -2  -4   6   12.80   16.30
  -2  -4   6   28.20    1.30
   1   4  -6   31.00    2.00
   1   4  -6   31.10    1.20
   1   4  -6   45.50   16.90
   1   4  -6   33.00    1.60
  -1  -4   6   33.50    1.20
  -1  -4   6   34.20    1.70
  -1  -4   6   33.40    1.60
  -1  -4   6   32.30    1.80
  -1  -4   6   37.30   10.70
   0   4  -6  -13.60   12.40
   0  -4   6   -0.10   11.00
  -1   4  -6    2.00    0.70
  -1   4  -6    3.60    0.70
  -1   4  -6   10.60   11.50
  -1   4  -6    3.30    0.70
   1  -4   6    3.60    0.90
   1  -4   6   16.70   11.50
   1  -4   6    3.90    0.70
   1  -4   6    2.90    0.70
   1  -4   6    3.30    0.50
  -2   4  -6   27.90   11.50
  -2   4  -6   18.20    1.50
  -2   4  -6   21.20    2.70
  -2   4  -6   19.50    1.30
   2  -4   6   18.90    1.30
   2  -4   6   12.70   11.90
   2  -4   6   18.60    1.30
  -3   4  -6    5.20    0.90
  -3   4  -6    4.90    0.70
  -3   4  -6    7.30   10.30
   3  -4   6   -1.80   10.70
   3  -4   6    4.60    0.80
   3  -4   6    5.30    0.60
   3  -4   6    3.90    0.80
  -4   4  -6    7.30    1.00
  -4   4  -6   10.00    1.30
  -4   4  -6   12.60    1.60
  -4   4  -6    8.70   12.70
   4  -4   6    8.50    1.10
   4  -4   6    9.70    1.30
   4  -4   6    9.60    1.30
   4  -4   6   25.40   12.80
  -5   4  -6    1.40    0.80
  -5   4  -6    1.90    1.10
   5  -4   6    1.50    1.00
   5  -4   6    0.80    0.90
   5  -4   6    0.10    1.00
  -6   4  -6   10.80    1.40
  -6   4  -6   10.40    1.70
   6  -4   6   15.60    2.20
   6  -4   6   11.90    1.80
   6  -4   6   12.80    1.90
  -7   4  -6    2.90    1.60
  -7   4  -6    0.10    1.40
   7  -4   6    0.00    1.50
   7  -4   6   -2.20    1.50
   7  -4   6    0.10    1.50
   6   3  -6    4.70    2.10
   6   3  -6    6.60    2.00
  -6  -3   6    3.60    1.50
  -6  -3   6    4.90    1.70
   5   3  -6    3.00    1.40
   5   3  -6    0.50    1.40
  -5  -3   6   -0.50    1.20
  -5  -3   6  -27.90   34.20
  -5  -3   6    0.00    1.10
   4   3  -6   13.60    2.00
   4   3  -6   11.70    1.50
  -4  -3   6   13.80    1.40
  -4  -3   6   13.30    1.20
  -4  -3   6   13.20    1.60
  -4  -3   6   24.50   17.10
  -4  -3   6   10.80    1.60
   3   3  -6   33.20   20.20
   3   3  -6   28.90    1.80
   3   3  -6   28.80    2.10
  -3  -3   6   29.30    1.80
  -3  -3   6   31.00    1.50
  -3  -3   6   28.80    1.70
  -3  -3   6   31.10    1.50
   2   3  -6   57.09    2.00
   2   3  -6   66.49    3.00
   2   3  -6   30.10   17.50
  -2  -3   6   65.99    2.30
  -2  -3   6   68.69    2.50
  -2  -3   6   67.89    2.50
  -2  -3   6   56.69   15.20
  -2  -3   6   69.09    2.40
   1   3  -6    1.50    0.50
   1   3  -6    1.30    0.70
   1   3  -6    4.00   10.00
   1   3  -6    1.70    0.50
  -1  -3   6    1.70    0.50
  -1  -3   6   -7.20    8.80
  -1  -3   6    1.60    0.40
  -1  -3   6    1.60    0.50
  -1  -3   6    0.70    0.50
   0   3  -6   17.50    1.40
   0   3  -6   19.10    1.10
   0   3  -6    0.30    9.00
   0   3  -6   20.40    1.20
   0  -3   6   19.10    1.40
   0  -3   6   19.50    0.90
   0  -3   6   18.10    1.20
   0  -3   6    4.20    7.70
   0  -3   6   19.90    1.20
  -1   3  -6   18.20    1.30
  -1   3  -6   19.20    1.30
  -1   3  -6   19.40    1.30
  -1   3  -6   19.30   10.80
   1  -3   6   19.00    1.20
   1  -3   6   20.40    1.20
   1  -3   6   19.20    0.90
   1  -3   6   22.30    9.90
  -2   3  -6    1.60    9.50
   2  -3   6    9.40   10.10
   2  -3   6    0.30    0.50
  -3   3  -6    4.50    0.60
  -3   3  -6    6.70   11.00
  -3   3  -6    3.20    0.70
  -3   3  -6    4.90    0.90
   3  -3   6   15.10   12.50
   3  -3   6    4.20    0.80
   3  -3   6    3.80    0.60
   3  -3   6    4.00    0.70
   3  -3   6    5.20    0.90
  -4   3  -6    6.50    1.10
  -4   3  -6    7.20    1.10
  -4   3  -6    8.00    0.80
  -4   3  -6    9.00   12.80
   4  -3   6    7.90    1.10
   4  -3   6   10.00    1.20
   4  -3   6   11.50   12.90
   4  -3   6    7.00    1.10
  -5   3  -6    2.60    1.00
   5  -3   6    2.80    1.00
   5  -3   6    3.20    1.10
   5  -3   6    1.90    0.90
  -6   3  -6    7.50    1.40
  -6   3  -6    4.80    1.10
   6  -3   6    7.40    1.40
   6  -3   6    6.10    1.30
   6  -3   6    6.00    1.30
  -7   3  -6    0.50    1.30
  -7   3  -6    2.30    1.60
   7  -3   6   -0.50    1.60
   7  -3   6    0.00    1.50
   7  -3   6    1.30    1.40
   6   2  -6   11.10    2.10
   6   2  -6    5.70    1.90
  -6  -2   6    4.80    1.60
  -6  -2   6    3.70    1.70
   5   2  -6   -0.80    1.30
   5   2  -6    0.10    1.30
  -5  -2   6   -1.50    1.10
  -5  -2   6    0.60    1.10
  -5  -2   6    1.00    1.00
   4   2  -6    8.50    1.30
   4   2  -6  -38.30   21.10
   4   2  -6    8.10    1.50
  -4  -2   6    9.70    1.30
  -4  -2   6    9.90    1.30
  -4  -2   6   10.80    1.30
  -4  -2   6   17.60   20.50
  -4  -2   6    9.00    1.20
   3   2  -6   35.10   19.40
   3   2  -6   43.60    2.60
  -3  -2   6   47.60    2.20
  -3  -2   6   44.90    1.70
  -3  -2   6   45.20    2.10
  -3  -2   6   44.00    2.00
  -3  -2   6   45.50    2.00
  -3  -2   6   31.50   15.90
   2   2  -6   -1.00   15.00
   2   2  -6    5.50    1.00
  -2  -2   6    6.40    0.90
  -2  -2   6    0.90   13.70
  -2  -2   6    5.10    0.90
  -2  -2   6    7.60    0.80
  -2  -2   6    6.30    0.90
   1   2  -6   -5.70   12.80
   1   2  -6    7.80    1.10
   1   2  -6    8.40    0.70
   1   2  -6    7.90    0.80
  -1  -2   6    6.70    8.60
  -1  -2   6    6.10    0.90
  -1  -2   6    6.70    0.80
  -1  -2   6    8.60    0.80
  -1  -2   6    7.20    0.80
   0   2  -6    4.00    8.40
   0   2  -6    4.70    0.60
   0   2  -6    5.50    0.90
   0   2  -6    5.50    0.80
   0  -2   6    4.80    0.70
   0  -2   6   -6.00    7.40
   0  -2   6    5.10    0.60
   0  -2   6    5.20    0.70
  -1   2  -6   90.09    2.90
  -1   2  -6   99.19    3.10
  -1   2  -6   95.09    3.10
  -1   2  -6  110.69   17.70
   1  -2   6   97.09    2.90
   1  -2   6   96.59    3.00
   1  -2   6   82.99   15.20
   1  -2   6   99.09    2.80
  -2   2  -6   31.70    1.70
  -2   2  -6   30.00    1.40
   2  -2   6   30.30    1.50
   2  -2   6   28.70    1.30
   2  -2   6   29.60    1.50
   2  -2   6   30.70    1.50
   2  -2   6   12.40    9.80
  -3   2  -6   23.20    1.00
  -3   2  -6   24.30    1.40
  -3   2  -6   26.00   12.40
  -3   2  -6   21.60    1.60
   3  -2   6   34.70   10.70
   3  -2   6   22.90    1.40
   3  -2   6   25.60    1.30
   3  -2   6   22.30    1.40
   3  -2   6   22.70    1.40
  -4   2  -6   14.30   10.90
  -4   2  -6    3.20    0.90
  -4   2  -6    2.80    0.70
   4  -2   6    1.40    0.80
   4  -2   6    4.00    0.80
   4  -2   6    3.10   11.00
   4  -2   6    3.60    0.90
  -5   2  -6    2.40    0.80
  -5   2  -6    1.60    1.00
   5  -2   6    3.60    0.80
   5  -2   6    2.60    1.00
   5  -2   6    1.60    0.80
  -6   2  -6   23.40    2.00
  -6   2  -6   27.10    2.50
   6  -2   6   21.30    2.20
   6  -2   6   19.40    2.20
  -7   2  -6   20.60    2.30
  -7   2  -6   15.60    2.20
   7  -2   6   16.70    2.50
   7  -2   6   17.50    2.30
  -8   2  -6    3.20    1.80
  -8   2  -6    1.00    2.10
   8  -2   6    0.60    1.80
   8  -2   6    1.40    2.00
   7   1  -6    0.50    1.90
   7   1  -6    2.40    2.40
  -7  -1   6   -1.00    1.80
  -7  -1   6    0.80    1.90
   6   1  -6    8.80    2.00
   6   1  -6    8.20    2.00
  -6  -1   6   11.20    1.80
  -6  -1   6    6.70    1.80
  -6  -1   6   10.90    1.60
   5   1  -6    0.50    1.30
   5   1  -6   -1.70    1.30
  -5  -1   6    1.10    1.00
  -5  -1   6   -0.70    1.00
  -5  -1   6    0.70    1.00
   4   1  -6   12.80    2.00
   4   1  -6   12.40    1.80
   4   1  -6    4.80   21.00
  -4  -1   6   10.10    1.40
  -4  -1   6   17.50   19.30
  -4  -1   6   13.20    1.60
  -4  -1   6   14.50    1.50
   3   1  -6    1.60   16.50
   3   1  -6    0.40    0.80
  -3  -1   6    0.20    0.60
  -3  -1   6   -0.50    0.60
  -3  -1   6   -0.20    0.50
  -3  -1   6   -0.10    0.40
  -3  -1   6   -3.60   15.00
  -3  -1   6   -0.20    0.60
   2   1  -6    6.50   14.10
   2   1  -6    0.90    0.70
  -2  -1   6    2.20    0.60
  -2  -1   6    1.50    0.50
  -2  -1   6    1.70    0.60
  -2  -1   6    1.80    0.50
  -2  -1   6    1.80    0.50
   1   1  -6   15.80    0.90
   1   1  -6    3.90    9.10
   1   1  -6   15.60    1.40
  -1  -1   6   24.60    8.70
  -1  -1   6   16.40    1.00
  -1  -1   6   16.00    1.10
  -1  -1   6   15.50    1.10
  -1  -1   6   15.30    1.10
  -1  -1   6   16.50    0.90
   0   1  -6  -11.40    9.50
   0   1  -6    0.40    0.40
   0   1  -6   -0.10    0.50
   0  -1   6    3.50    7.00
   0  -1   6    1.10    0.40
   0  -1   6    0.20    0.30
   0  -1   6    0.50    0.40
  -1   1  -6   -4.90    9.70
  -1   1  -6    0.90    0.50
  -1   1  -6    0.40    0.50
   1  -1   6    2.50    6.50
   1  -1   6    0.30    0.30
  -2   1  -6   27.90    1.60
  -2   1  -6   28.70    1.30
  -2   1  -6   29.50    1.30
  -2   1  -6   49.40   11.70
   2  -1   6   30.40    1.40
   2  -1   6   25.50    1.40
   2  -1   6   30.10    1.50
   2  -1   6   39.10    9.70
   2  -1   6   30.50    1.40
  -3   1  -6    1.50    0.50
  -3   1  -6    1.60    0.40
  -3   1  -6    2.40    0.70
   3  -1   6   -6.30    8.80
   3  -1   6    1.20    0.40
   3  -1   6    2.20    0.60
   3  -1   6    1.60    0.60
   3  -1   6    2.00    0.60
  -4   1  -6  173.58   21.80
  -4   1  -6  184.38    5.10
  -4   1  -6  178.18    5.50
   4  -1   6  186.58    5.30
   4  -1   6  179.28    5.30
   4  -1   6  140.29   20.60
   4  -1   6  178.58    5.20
  -5   1  -6   10.50    1.40
  -5   1  -6   11.50    1.30
   5  -1   6   12.80    1.60
   5  -1   6   10.40    1.50
  -6   1  -6    1.60    1.00
  -6   1  -6   -2.10    1.10
   6  -1   6   -0.80    1.10
   6  -1   6    1.90    1.10
  -7   1  -6    1.90    1.30
  -7   1  -6   -0.60    1.40
   7  -1   6    0.80    1.40
   7  -1   6    1.10    1.60
  -8   1  -6    3.40    1.80
  -8   1  -6    1.40    2.00
   8  -1   6    1.30    1.80
   8  -1   6   -1.30    2.00
   7   0  -6    1.50    2.30
   7   0  -6    5.90    2.00
  -7   0   6    5.60    1.90
  -7   0   6    5.00    1.90
  -7   0   6    4.70    1.90
   6   0  -6    3.70    1.70
   6   0  -6    0.10    1.70
  -6   0   6    0.80    1.40
  -6   0   6    2.10    1.40
  -6   0   6    2.60    1.40
   5   0  -6    1.80    1.40
   5   0  -6    0.40    1.40
  -5   0   6    1.50    1.20
  -5   0   6    1.80    1.00
  -5   0   6    1.90    1.10
   4   0  -6    3.30    1.40
   4   0  -6   25.80   20.40
  -4   0   6    6.80    1.10
  -4   0   6    5.10    1.00
  -4   0   6   -9.90   19.10
  -4   0   6    4.80    0.90
   3   0  -6  -14.40   15.50
  -3   0   6  -29.40   14.50
   2   0  -6   26.60    1.80
   2   0  -6   27.70   14.00
  -2   0   6   29.20    1.50
  -2   0   6   28.10    1.50
  -2   0   6   36.00   13.50
  -2   0   6   26.40    1.10
  -2   0   6   28.10    1.30
  -2   0   6   28.60    1.10
   1   0  -6   12.20    0.80
   1   0  -6   15.50   11.20
   1   0  -6   12.70    1.20
  -1   0   6   12.80    1.00
  -1   0   6   13.70   10.70
  -1   0   6   14.70    1.00
  -1   0   6   12.90    0.80
  -1   0   6   14.10    1.00
   0   0  -6   70.59    2.40
   0   0  -6   70.39   14.20
   0   0  -6   73.09    2.70
   0   0  -6   73.99    2.40
   0   0   6   67.29    2.40
   0   0   6   72.19    2.30
   0   0   6   71.19    2.30
   0   0   6   70.79    2.40
   0   0   6   76.09   13.60
  -1   0  -6    8.70    7.50
  -1   0  -6    3.20    0.60
   1   0   6    4.70    0.60
   1   0   6    3.00    0.80
   1   0   6   12.40    6.60
   1   0   6    3.50    0.60
   1   0   6    4.00    0.60
  -2   0  -6    2.90    0.60
  -2   0  -6    0.30    7.40
  -2   0  -6    3.50    0.70
  -2   0  -6    4.00    0.60
   2   0   6    7.50    8.50
   2   0   6    3.30    0.60
   2   0   6    2.00    0.50
   2   0   6    3.20    0.50
   2   0   6    3.60    0.60
  -3   0  -6    0.50   10.10
  -3   0  -6    0.50    0.30
  -3   0  -6   -0.60    0.60
  -3   0  -6    0.30    0.40
  -3   0  -6    0.70    0.50
   3   0   6    0.70    0.50
   3   0   6   -0.40    0.50
   3   0   6   -2.00    9.30
   3   0   6    0.60    0.30
   3   0   6    1.20    0.50
  -4   0  -6    4.70   12.40
   4   0   6    5.60   10.70
  -5   0  -6   38.80    2.00
  -5   0  -6   37.20    2.40
   5   0   6   34.00    2.10
   5   0   6   38.90    2.10
  -6   0  -6    0.20    0.90
  -6   0  -6   -0.40    1.20
   6   0   6    1.70    1.20
   6   0   6   -0.20    1.00
  -7   0  -6   36.90    3.10
  -7   0  -6   34.10    2.70
   7   0   6   35.30    2.70
   7   0   6   31.90    2.90
  -8   0  -6    5.20    1.80
  -8   0  -6   12.70    2.30
   8   0   6    7.50    1.90
   8   0   6    7.70    2.10
   7  -1  -6   15.00    2.80
   7  -1  -6   12.10    2.10
  -7   1   6   15.30    2.60
  -7   1   6   22.70    3.00
  -7   1   6   10.70    2.30
   6  -1  -6    2.40    1.90
   6  -1  -6    2.70    1.80
  -6   1   6    2.20    1.50
  -6   1   6    2.60    1.30
  -6   1   6    3.20    1.50
   5  -1  -6    1.30    1.40
   5  -1  -6    1.80    1.40
  -5   1   6    0.30    1.10
  -5   1   6    1.50    1.20
  -5   1   6    1.30    1.00
   4  -1  -6   -5.50   18.80
   4  -1  -6    1.20    1.20
  -4   1   6    0.90    0.90
  -4   1   6    3.20   18.70
  -4   1   6    1.70    0.80
  -4   1   6    1.80    0.90
   3  -1  -6    1.20    0.80
   3  -1  -6   -4.80   14.10
  -3   1   6    0.50    0.60
  -3   1   6    0.60    0.70
  -3   1   6   -3.80   14.30
  -3   1   6    1.30    0.60
   2  -1  -6   45.40    2.40
   2  -1  -6   46.10   13.50
  -2   1   6   45.90    1.70
  -2   1   6   26.30   13.40
  -2   1   6   48.60    2.10
  -2   1   6   47.30    2.00
   1  -1  -6   91.49   20.00
   1  -1  -6  112.69    3.10
   1  -1  -6  120.89    4.00
   1  -1  -6  121.29    3.10
  -1   1   6  117.09    3.20
  -1   1   6  121.59    3.60
  -1   1   6  110.29   20.70
  -1   1   6  125.59    3.10
  -1   1   6  120.99    3.50
   0  -1  -6    1.50    0.60
   0  -1  -6    2.20    0.50
   0  -1  -6    2.50    0.50
   0  -1  -6    7.00   10.20
   0   1   6    1.80    0.50
   0   1   6    2.20    0.40
   0   1   6    2.50    0.40
   0   1   6   -8.20    9.20
   0   1   6    2.50    0.50
   0   1   6    1.60    0.50
  -1  -1  -6    1.50    0.60
  -1  -1  -6    0.50    0.60
  -1  -1  -6   -9.60    6.50
   1   1   6    0.60    0.30
   1   1   6   -0.60    6.70
   1   1   6    0.30    0.40
   1   1   6   -0.10    0.40
   1   1   6    0.30    0.30
  -2  -1  -6    5.10    0.90
  -2  -1  -6  -10.00    7.00
  -2  -1  -6    5.40    0.90
  -2  -1  -6    4.50    0.70
  -2  -1  -6    4.70    0.60
   2   1   6    4.90    9.30
   2   1   6    6.70    0.80
   2   1   6    5.90    0.70
   2   1   6    5.00    0.70
   2   1   6    4.20    0.60
  -3  -1  -6   26.60    1.10
  -3  -1  -6   29.20    1.80
  -3  -1  -6   14.00   12.10
  -3  -1  -6   30.40    1.40
  -3  -1  -6   29.30    1.20
   3   1   6   29.90    1.50
   3   1   6   28.00    1.50
  -4  -1  -6    6.70    1.20
  -4  -1  -6    7.80    1.00
  -4  -1  -6   12.70   13.70
   4   1   6   22.90   11.60
   4   1   6    6.40    0.90
   4   1   6    5.40    0.90
  -5  -1  -6   79.69    3.50
  -5  -1  -6   80.49    3.10
  -5  -1  -6  110.29   24.80
   5   1   6   78.29    3.10
   5   1   6   78.89    3.30
  -6  -1  -6    1.10    1.20
  -6  -1  -6    1.60    1.00
   6   1   6   -0.80    1.10
  -7  -1  -6    6.70    1.80
  -7  -1  -6    9.40    1.50
   7   1   6   11.70    2.00
   7   1   6    7.70    1.50
  -8  -1  -6   17.70    2.70
  -8  -1  -6   18.00    2.30
   8   1   6   14.50    2.30
   6  -2  -6    4.40    2.00
   6  -2  -6    8.70    2.10
  -6   2   6    3.50    1.50
  -6   2   6    7.40    1.70
  -6   2   6    6.70    1.90
   5  -2  -6    1.30    1.50
   5  -2  -6   -0.10    1.30
  -5   2   6   -1.30    1.10
  -5   2   6    1.40    1.00
  -5   2   6    0.00    1.40
   4  -2  -6   -0.10    1.00
  -4   2   6    1.00    0.70
  -4   2   6    1.70    0.80
  -4   2   6    0.80    1.10
   3  -2  -6   -0.10    0.80
   3  -2  -6   -5.50   13.90
  -3   2   6    0.70    0.70
  -3   2   6   -0.50    0.50
  -3   2   6   -0.10    0.70
  -3   2   6    5.50   15.00
   2  -2  -6   31.90    1.20
   2  -2  -6   18.20   10.10
   2  -2  -6   36.80    2.20
  -2   2   6   35.20    1.40
  -2   2   6   21.70   13.40
  -2   2   6   34.80    1.70
  -2   2   6   33.30    1.80
   1  -2  -6    2.80   10.60
   1  -2  -6   11.60    0.80
   1  -2  -6   10.70    1.30
   1  -2  -6    9.50    0.60
  -1   2   6    9.90    0.60
  -1   2   6   10.40    0.70
  -1   2   6   12.20   11.60
  -1   2   6   10.80    1.00
  -1   2   6   10.70    0.90
  -1   2   6    8.50    0.80
   0  -2  -6   41.00    1.70
   0  -2  -6   42.60    2.00
   0  -2  -6   38.70   10.40
   0   2   6   41.70    1.30
   0   2   6   43.00    1.70
   0   2   6   25.20   11.10
   0   2   6   39.70    1.20
   0   2   6   38.90    1.70
   0   2   6   42.20    1.70
  -1  -2  -6    8.60    1.00
  -1  -2  -6   -0.60    7.60
  -1  -2  -6    5.70    0.80
   1   2   6    5.70    0.70
   1   2   6    5.90    0.60
   1   2   6   -1.50    7.10
   1   2   6    5.60    0.70
   1   2   6    5.00    0.70
  -2  -2  -6    0.90    0.50
  -2  -2  -6    0.70    0.40
  -2  -2  -6    0.80    0.50
  -2  -2  -6    0.80    0.60
  -2  -2  -6   -1.70   10.20
   2   2   6    1.30    0.40
   2   2   6   -5.00    9.40
   2   2   6    1.50    0.40
   2   2   6    1.30    0.60
   2   2   6    0.20    0.50
   2   2   6    1.10    0.50
  -3  -2  -6   36.70   13.10
  -3  -2  -6   42.00    1.70
  -3  -2  -6   43.20    2.20
  -3  -2  -6   41.30    1.50
  -3  -2  -6   41.00    1.60
   3   2   6   27.60   10.80
   3   2   6   44.40    1.80
   3   2   6   44.70    2.00
  -4  -2  -6  107.69   20.00
  -4  -2  -6  126.89    4.40
  -4  -2  -6  122.49    3.80
   4   2   6  106.69   19.20
   4   2   6  127.19    3.80
   4   2   6  123.79    4.00
  -5  -2  -6   75.79    2.90
  -5  -2  -6   56.69   26.80
  -5  -2  -6   72.59    3.50
   5   2   6   71.59    3.10
   5   2   6   74.69    2.90
  -6  -2  -6   15.20    2.30
  -6  -2  -6   13.00    1.90
   6   2   6   13.70    1.70
   6   2   6   10.90    1.60
  -7  -2  -6   27.30    3.10
  -7  -2  -6   27.80    2.40
   7   2   6   25.90    2.70
   7   2   6   33.10    2.60
  -8  -2  -6   -0.80    1.70
  -8  -2  -6    0.20    2.10
   8   2   6   -0.60    2.00
   8   2   6   -1.50    1.80
   6  -3  -6    4.40    2.10
   6  -3  -6    5.80    2.00
  -6   3   6    5.00    1.60
  -6   3   6    2.80    1.90
   5  -3  -6    1.50    1.50
  -5   3   6   -0.90    0.90
  -5   3   6    1.10    1.50
  -5   3   6   -0.20    1.10
  -4   3   6    0.00    1.10
  -4   3   6    1.00    0.70
   3  -3  -6   12.20   15.40
   3  -3  -6   16.70    1.90
  -3   3   6   -0.50   17.50
  -3   3   6   13.70    1.10
  -3   3   6   15.10    1.60
  -3   3   6   13.90    1.40
   2  -3  -6   62.99   15.80
   2  -3  -6   66.09    1.80
   2  -3  -6   69.79    3.10
  -2   3   6   73.59    2.70
  -2   3   6   66.79    2.00
  -2   3   6   63.19   17.70
  -2   3   6   66.19    2.70
   1  -3  -6    8.90    1.20
   1  -3  -6   20.40   11.40
   1  -3  -6    9.90    0.50
   1  -3  -6   10.70    0.80
  -1   3   6   10.20    0.90
  -1   3   6    8.30    0.90
  -1   3   6    8.00    0.80
  -1   3   6    8.90    0.60
  -1   3   6    8.50    0.50
  -1   3   6   11.50   11.60
   0  -3  -6   42.80   11.90
   0  -3  -6   46.30    2.20
   0   3   6   33.60   11.80
   0   3   6   43.60    1.20
   0   3   6   43.90    2.10
   0   3   6   46.40    1.70
   0   3   6   43.50    1.20
   0   3   6   43.80    1.90
  -1  -3  -6   24.50    1.50
  -1  -3  -6   24.30    1.50
   1   3   6   23.80    1.00
   1   3   6   24.40    1.40
   1   3   6   24.30    1.20
   1   3   6   19.60   11.10
   1   3   6   23.90    0.90
  -2  -3  -6    4.70    0.80
  -2  -3  -6   10.80   12.20
  -2  -3  -6    4.80    0.60
  -2  -3  -6    4.60    0.70
   2   3   6    4.30    0.70
   2   3   6    4.60    0.60
   2   3   6   -1.30    7.30
   2   3   6    6.00    0.80
   2   3   6    5.10    0.70
  -3  -3  -6   19.80   13.60
  -3  -3  -6   10.00    0.80
  -3  -3  -6    7.40    0.90
  -3  -3  -6   11.20    1.00
  -3  -3  -6    9.00    1.40
   3   3   6    8.20    8.10
   3   3   6   10.20    1.10
   3   3   6    9.60    0.90
  -4  -3  -6    2.00    0.90
  -4  -3  -6    1.50    0.60
  -4  -3  -6    1.40    0.50
  -4  -3  -6    6.20   16.10
  -4  -3  -6    1.40    0.60
   4   3   6    2.20   13.20
   4   3   6    1.90    0.70
   4   3   6    1.10    0.60
  -5  -3  -6   14.00    1.50
  -5  -3  -6   16.70    1.90
   5   3   6   14.40    1.50
   5   3   6   17.40    1.60
  -6  -3  -6   13.90    2.00
  -6  -3  -6   13.20    2.10
   6   3   6   15.80    1.80
   6   3   6   17.20    2.00
  -7  -3  -6   14.90    2.30
  -7  -3  -6   15.30    2.20
   7   3   6   21.50    2.50
   7   3   6   17.00    2.30
  -8  -3  -6   24.90    3.00
  -8  -3  -6   15.00    2.60
   8   3   6   25.20    3.10
   8   3   6   16.00    2.40
   6  -4  -6   -1.30    2.00
   6  -4  -6   -0.20    2.30
  -6   4   6    0.80    1.70
  -6   4   6    0.30    2.10
   5  -4  -6    1.80    1.70
  -5   4   6    3.50    1.60
  -5   4   6    4.40    1.40
   4  -4  -6   11.90    1.90
  -4   4   6   10.30    1.80
  -4   4   6   16.10    2.10
   3  -4  -6   34.80    2.70
  -3   4   6   34.90    1.40
  -3   4   6   33.20    2.30
  -3   4   6   39.50    2.10
   2  -4  -6   32.00   13.00
   2  -4  -6   37.80    2.30
   2  -4  -6   35.40    1.30
   2  -4  -6   33.90    1.10
  -2   4   6   39.30    1.90
  -2   4   6   28.70   15.10
  -2   4   6   34.30    1.30
  -2   4   6   36.70    2.00
   1  -4  -6  116.09    3.30
   1  -4  -6  114.09    4.10
   1  -4  -6  108.39   17.80
  -1   4   6  116.69    3.70
  -1   4   6  110.69    3.20
  -1   4   6  119.89    3.50
  -1   4   6   94.79   18.20
   0  -4  -6   -9.10   11.10
   0  -4  -6    1.80    0.80
   0   4   6   -1.60   10.70
  -1  -4  -6    3.00    0.70
  -1  -4  -6   -7.80   12.10
  -1  -4  -6    2.40    0.70
   1   4   6   13.30   11.70
   1   4   6    2.40    0.50
   1   4   6    2.60    0.60
   1   4   6    2.30    0.30
   1   4   6    2.40    0.30
  -2  -4  -6   -4.50    9.10
  -2  -4  -6    3.70    0.60
  -2  -4  -6    2.70    0.70
  -2  -4  -6    4.00    0.90
   2   4   6   -0.20    8.00
   2   4   6    3.20    0.60
   2   4   6    4.00    0.80
   2   4   6    3.50    0.50
  -3  -4  -6    1.10    0.90
  -3  -4  -6   10.80   10.70
  -3  -4  -6    1.00    0.60
  -3  -4  -6    0.90    0.40
   3   4   6    1.40    0.60
   3   4   6    1.10    0.50
  -4  -4  -6   34.10    1.70
  -4  -4  -6   20.30   16.80
  -4  -4  -6   38.60    2.40
  -4  -4  -6   36.10    1.70
   4   4   6   36.80    1.70
   4   4   6   39.30   12.00
   4   4   6   33.70    1.90
  -5  -4  -6  123.29    4.00
  -5  -4  -6  126.89    4.90
   5   4   6  124.09    3.90
   5   4   6  114.49    4.70
  -6  -4  -6    0.60    1.40
  -6  -4  -6   -0.50    1.00
   6   4   6   -1.10    1.00
   6   4   6    0.40    1.10
  -7  -4  -6    2.80    1.30
  -7  -4  -6   -0.60    1.80
   7   4   6    3.60    1.40
   7   4   6    0.70    1.50
   6  -5  -6    0.10    2.20
   6  -5  -6    4.60    2.60
  -6   5   6    0.50    2.30
  -6   5   6    0.70    1.80
   5  -5  -6   -2.00    1.80
  -5   5   6    2.80    1.90
  -5   5   6   -1.40    1.30
   4  -5  -6    2.60    1.40
  -4   5   6    0.50    1.10
  -4   5   6    0.30    1.10
  -3   5   6   23.00    1.90
   2  -5  -6   86.29    3.60
   2  -5  -6   77.79    2.40
  -2   5   6   51.89   18.10
  -2   5   6   81.79    3.00
  -2   5   6   82.69    3.20
   1  -5  -6    3.80   12.30
   1  -5  -6    0.10    0.80
   1  -5  -6    1.20    0.50
  -1   5   6  -12.30   12.50
  -1   5   6    0.20    0.70
  -1   5   6    0.20    0.60
   0  -5  -6   20.90   13.70
   0  -5  -6   39.80    1.80
   0  -5  -6   39.20    2.30
   0   5   6   26.70   13.40
   0   5   6   40.50    2.00
   0   5   6   42.30    1.70
  -1  -5  -6    1.80    0.70
  -1  -5  -6    1.20    0.70
  -1  -5  -6    3.40   10.00
   1   5   6    1.70    0.50
   1   5   6    1.30    0.50
   1   5   6  -15.40   11.90
  -2  -5  -6    2.00    0.40
  -2  -5  -6    3.30    0.80
  -2  -5  -6    2.50    0.90
  -2  -5  -6  -17.30   13.80
   2   5   6    3.50    0.50
   2   5   6    1.40    0.60
   2   5   6   15.10    9.80
   2   5   6    2.70    0.50
  -3  -5  -6   31.60    2.20
  -3  -5  -6   17.20   17.30
  -3  -5  -6   30.20    1.30
  -3  -5  -6   33.00    1.80
   3   5   6   16.90   10.60
   3   5   6   33.00    1.40
   3   5   6   34.50    1.80
  -4  -5  -6  -25.60   20.50
  -4  -5  -6    4.20    0.90
  -4  -5  -6    7.50    1.30
   4   5   6   15.50   16.90
   4   5   6    6.90    1.00
   4   5   6    5.50    1.10
  -5  -5  -6   71.19    3.70
  -5  -5  -6   71.59    2.70
   5   5   6   30.30   28.50
   5   5   6   69.09    2.60
   5   5   6   67.49    3.10
  -6  -5  -6   16.80    1.90
  -6  -5  -6   24.00    2.80
   6   5   6   20.20    1.80
   6   5   6   20.80    2.20
  -7  -5  -6    4.10    1.30
  -7  -5  -6    6.80    2.10
   7   5   6    6.60    1.70
   5  -6  -6    3.60    2.20
  -5   6   6    3.80    1.60
  -5   6   6    4.80    1.90
   4  -6  -6    1.00    1.70
  -4   6   6   -1.10    1.20
  -4   6   6    0.30    1.40
   3  -6  -6    7.10    1.70
  -3   6   6    7.40    1.20
  -3   6   6    7.20    1.50
   2  -6  -6    1.40    1.30
  -2   6   6    1.60    0.90
  -2   6   6    0.70    0.80
   1  -6  -6  -11.80   16.90
   1  -6  -6   15.30    1.80
   1  -6  -6   11.90    1.10
  -1   6   6   11.10   14.90
  -1   6   6   15.90    1.30
  -1   6   6    9.00    1.40
   0  -6  -6   12.30    1.10
   0  -6  -6   11.30    1.60
   0  -6  -6    9.60   13.30
   0   6   6    6.00   15.30
   0   6   6   12.50    1.10
   0   6   6   12.90    1.30
  -1  -6  -6   21.60   15.80
  -1  -6  -6   24.90    1.70
  -1  -6  -6   25.60    1.90
   1   6   6   26.90    1.30
   1   6   6   29.10    1.70
   1   6   6   43.40   16.10
  -2  -6  -6    7.20    0.60
  -2  -6  -6   38.70   17.50
  -2  -6  -6    9.40    1.50
  -2  -6  -6    5.60    1.00
   2   6   6    7.10    0.80
   2   6   6    5.40   14.00
   2   6   6    9.30    1.20
  -3  -6  -6   -0.10    0.50
  -3  -6  -6    0.80    0.90
  -3  -6  -6   -0.60    0.80
  -3  -6  -6    8.90   13.70
   3   6   6    0.60    0.50
   3   6   6    0.30    0.70
   3   6   6   -1.50    0.70
   3   6   6   -4.00   11.90
  -4  -6  -6   20.30   17.60
   4   6   6   10.30   14.80
  -5  -6  -6    1.00    0.90
  -5  -6  -6    3.30    1.50
   5   6   6    1.80    1.10
   5   6   6    0.80    0.90
  -6  -6  -6    6.10    1.20
  -6  -6  -6    8.50    2.00
   6   6   6    4.30    1.30
  -7  -6  -6    1.50    2.20
  -7  -6  -6    6.10    1.50
   7   6   6    4.40    1.80
   5  -7  -6   -4.70    2.20
  -5   7   6   -0.60    2.20
  -5   7   6   -2.50    1.60
   4  -7  -6   -0.50    1.80
  -4   7   6    1.00    1.40
  -4   7   6    2.70    1.70
   3  -7  -6    9.70    2.00
  -3   7   6   10.20    1.40
  -3   7   6    9.10    1.70
   2  -7  -6    2.20    1.40
  -2   7   6    3.10    1.20
  -2   7   6    3.30    1.10
   1  -7  -6    7.20    1.10
  -1   7   6    5.30    0.90
  -1   7   6    5.50    1.60
   0  -7  -6   13.90    2.00
   0  -7  -6   16.30    1.30
   0   7   6   14.30    1.30
   0   7   6   16.40    1.60
  -1  -7  -6    1.00   20.20
  -1  -7  -6   -0.50    0.90
  -1  -7  -6   -0.50    0.80
   1   7   6    0.60    0.80
   1   7   6   -4.60   17.10
  -2  -7  -6    2.80    1.00
  -2  -7  -6  -15.50   13.50
   2   7   6    2.80    1.00
   2   7   6  -13.90   12.10
  -3  -7  -6    5.60    1.10
  -3  -7  -6    4.10    1.50
  -3  -7  -6   32.10   23.20
   3   7   6    5.60    1.20
   3   7   6    6.20    1.00
   3   7   6  -19.10   18.70
   4   7   6  -27.00   22.80
  -5  -7  -6   38.70    3.50
  -5  -7  -6   40.70    2.30
   5   7   6   36.90    2.50
  -6  -7  -6   15.20    2.50
  -6  -7  -6   12.30    1.60
   6   7   6   14.80    1.80
   4  -8  -6    6.70    2.30
  -4   8   6    6.10    2.10
  -4   8   6    2.70    1.60
   3  -8  -6    4.10    2.10
  -3   8   6    3.80    1.70
  -3   8   6    4.20    1.40
   2  -8  -6   12.20    2.10
  -2   8   6   11.30    1.70
  -2   8   6   12.10    1.40
   1  -8  -6    3.90    1.30
   1  -8  -6    0.60    0.90
  -1   8   6    2.70    1.20
  -1   8   6    1.00    1.00
   0  -8  -6    1.70    0.90
   0  -8  -6    0.10    1.10
   0   8   6    0.30    0.90
  -1  -8  -6    4.20    1.10
   1   8   6    3.80    1.50
  -2  -8  -6    6.30    1.40
  -2  -8  -6    7.20    1.60
   2   8   6    4.80    1.10
   2   8   6    5.50    1.20
  -3  -8  -6    9.00    1.70
  -3  -8  -6   10.30    1.80
   3   8   6    8.00    1.30
   3   8   6    8.30    1.30
  -4  -8  -6    3.60    1.30
  -4  -8  -6    5.00    1.70
   4   8   6    2.10    1.20
   4   8   6    1.60    1.20
  -5  -8  -6    5.50    2.00
   5   8   6    1.20    1.40
  -6  -8  -6    0.30    2.20
   6   8   6    0.00    1.70
   3  -9  -6   -0.10    2.10
  -3   9   6    0.30    1.80
   2  -9  -6   -2.80    1.80
  -2   9   6   -1.80    1.60
   1  -9  -6    4.40    1.70
  -1   9   6    3.70    1.40
   0  -9  -6    4.20    1.10
   0  -9  -6    4.70    1.70
   0   9   6    5.90    1.40
  -1  -9  -6   -2.40    1.10
  -1  -9  -6   -0.10    1.40
   1   9   6    0.00    1.10
   1   9   6    0.40    1.40
  -2  -9  -6    1.30    1.40
  -2  -9  -6    3.30    1.40
   2   9   6    2.00    1.40
   2   9   6    3.00    1.10
  -3  -9  -6   -0.50    1.50
  -3  -9  -6    2.60    1.70
   3   9   6    1.00    1.20
   3   9   6    2.40    1.30
  -4  -9  -6   -0.30    1.80
  -4  -9  -6   -0.40    1.60
   4   9   6   -2.50    1.40
   4   9   6    0.90    1.40
  -5  -9  -6   -0.70    2.20
   5   9   6   -1.00    1.60
   2 -10  -6    5.00    2.30
  -2  10   6   -3.20    1.90
   1 -10  -6   -1.00    2.00
  -1  10   6    1.30    1.60
   0 -10  -6    5.70    2.00
   0 -10  -6    4.60    1.40
   0  10   6    6.30    1.60
  -1 -10  -6    1.40    1.70
  -1 -10  -6   -1.60    1.40
   1  10   6   -0.40    1.40
   1  10   6   -1.20    1.70
  -2 -10  -6    1.50    1.70
  -2 -10  -6    2.20    1.60
   2  10   6   -1.80    1.50
   2  10   6    0.60    1.50
  -3 -10  -6   -0.70    1.80
  -3 -10  -6    0.10    1.90
   3  10   6    2.30    1.60
   3  10   6    3.90    1.60
  -4 -10  -6   -0.70    2.20
  -4 -10  -6   -2.00    2.00
   4  10   6    3.00    1.70
   4  10   6   -2.90    1.60
   0 -11  -6   -2.90    1.80
   0 -11  -6   -0.60    2.30
   0  11   6    1.50    1.80
  -1 -11  -6    1.50    2.10
  -1 -11  -6    0.20    1.80
   1  11   6    5.70    2.30
   1  11   6    3.90    1.90
  -2 -11  -6    1.80    2.20
  -2 -11  -6    0.80    1.80
   2  11   6    1.50    1.70
   2  11   6   -1.40    2.00
   2   9  -7    5.40    1.90
  -2  -9   7    5.30    1.70
  -2  -9   7    0.00    1.70
   1   9  -7    4.80    1.80
  -1  -9   7    2.40    1.70
  -1  -9   7    1.70    1.40
   0   9  -7   -2.20    1.40
   0  -9   7    1.70    1.30
   0  -9   7    2.90    1.70
  -1   9  -7    3.60    1.50
   1  -9   7    2.00    1.70
   1  -9   7    2.90    1.40
   1  -9   7    2.70    1.40
  -2   9  -7   -2.40    1.50
  -2   9  -7    0.10    1.40
   2  -9   7    0.70    1.40
   2  -9   7    1.40    2.00
   2  -9   7   -0.70    1.10
  -3   9  -7   -0.60    1.60
  -3   9  -7   -0.90    1.60
   3  -9   7    0.10    1.20
   3  -9   7    4.50    2.10
   3  -9   7    1.80    1.50
   3   8  -7    1.60    1.90
  -3  -8   7   -1.10    1.60
  -3  -8   7   -1.30    1.50
   2   8  -7   15.20    2.20
  -2  -8   7   10.50    1.50
  -2  -8   7   12.70    1.90
   1   8  -7   13.20    1.90
  -1  -8   7   15.70    1.60
  -1  -8   7   11.60    1.70
  -1  -8   7   12.90    1.90
   0   8  -7    7.30    1.60
   0  -8   7    7.40    1.40
   0  -8   7   10.90    1.40
   0  -8   7    8.00    1.70
  -1   8  -7    2.10    1.30
  -1   8  -7    5.40    1.40
   1  -8   7    4.50    1.20
   1  -8   7    4.20    1.60
  -2   8  -7   10.40    1.60
  -2   8  -7   10.40    1.60
   2  -8   7   12.10    1.90
   2  -8   7    9.70    1.60
   2  -8   7    7.80    1.00
  -3   8  -7   -1.30    1.20
  -3   8  -7   -0.30    1.20
   3  -8   7    0.10    1.30
   3  -8   7    1.40    1.70
   3  -8   7   -0.80    1.00
  -4   8  -7    4.30    1.70
   4  -8   7    3.80    1.10
   4  -8   7    1.40    1.50
   4  -8   7    7.80    2.30
   4   7  -7    2.50    1.90
  -4  -7   7   -0.40    1.60
  -4  -7   7   -1.20    1.30
   3   7  -7   -0.10    1.50
  -3  -7   7    0.80    1.30
  -3  -7   7   -0.80    1.30
  -3  -7   7   -0.90    1.10
   2   7  -7    5.20    1.50
  -2  -7   7    6.30    0.90
  -2  -7   7    6.50    1.40
  -2  -7   7    2.90    1.20
   1   7  -7    2.20    1.30
  -1  -7   7    4.40    1.00
  -1  -7   7    5.70    1.30
  -1  -7   7    2.80    0.80
   0   7  -7   24.20    2.30
   0  -7   7   24.40    2.50
   0  -7   7   25.60    1.60
   0  -7   7   27.10    1.90
  -1   7  -7   -1.00    1.00
  -1   7  -7    0.60    1.50
   1  -7   7    1.40    1.30
   1  -7   7    0.80    0.70
   1  -7   7    0.00    0.90
  -2   7  -7    0.00    1.00
  -2   7  -7   -0.80    1.00
   2  -7   7   -0.30    1.30
   2  -7   7   -0.10    1.00
  -3   7  -7    2.80    1.20
  -3   7  -7    0.80    1.00
   3  -7   7    4.00    1.50
   3  -7   7    3.20    0.90
   3  -7   7    2.40    1.10
  -4   7  -7   -1.40    1.30
   4  -7   7    0.30    1.10
   4  -7   7   -1.30    1.20
   4  -7   7    1.60    1.70
  -5   7  -7    2.40    1.60
   5  -7   7   -1.10    2.00
   5  -7   7    1.80    1.30
   5  -7   7    2.20    1.60
   5   6  -7    2.00    2.10
  -5  -6   7   -2.50    1.70
  -5  -6   7   -2.50    1.50
   4   6  -7    8.80    1.90
  -4  -6   7    9.10    1.20
  -4  -6   7   10.70    1.70
   3   6  -7    0.70    1.30
  -3  -6   7   -1.20    1.20
  -3  -6   7    0.20    0.90
  -3  -6   7    0.30    1.10
   2   6  -7    0.40    1.10
  -2  -6   7    1.20    1.10
  -2  -6   7    2.40    0.90
  -2  -6   7    2.80    1.10
   1   6  -7   47.90    2.80
  -1  -6   7   48.30    2.70
  -1  -6   7   52.19    2.50
  -1  -6   7   48.10    2.00
   0   6  -7    4.80    1.00
   0   6  -7    5.90    1.20
   0  -6   7    7.00    1.00
   0  -6   7    4.40    1.00
   0  -6   7    5.40    1.20
  -1   6  -7   15.90    1.60
   1  -6   7   11.40    1.20
   1  -6   7   12.60    1.50
  -2   6  -7    2.50    0.90
  -2   6  -7    3.10    1.00
   2  -6   7    4.10    0.90
   2  -6   7    3.40    1.30
   2  -6   7    2.10    0.90
  -3   6  -7    8.20    1.40
  -3   6  -7    7.90    1.10
   3  -6   7   10.70    1.80
   3  -6   7   10.80    1.50
   3  -6   7   10.00    1.40
  -4   6  -7    2.50    1.20
   4  -6   7    2.50    1.10
   4  -6   7    4.00    1.20
  -5   6  -7    5.60    1.50
   5  -6   7    5.80    1.50
   5  -6   7    8.50    1.60
   5  -6   7    3.90    1.40
  -6   6  -7    2.20    1.70
  -6   6  -7    0.30    1.40
   6  -6   7    1.40    1.60
   6  -6   7    2.30    1.70
   6  -6   7    0.90    1.70
   5   5  -7   -1.00    1.80
  -5  -5   7    1.10    1.60
   4   5  -7    1.30    1.60
  -4  -5   7   -0.30    1.20
  -4  -5   7    0.90    1.00
   3   5  -7   -0.80    1.20
  -3  -5   7    1.00    1.00
  -3  -5   7   -1.10    0.90
   2   5  -7    2.40    1.10
  -2  -5   7    2.20    0.90
  -2  -5   7    2.30    0.90
  -2  -5   7    2.00    0.70
   1   5  -7   41.70    2.60
  -1  -5   7   41.50    2.30
  -1  -5   7   40.10    2.00
  -1  -5   7   38.60    2.00
   0   5  -7  155.38    5.00
   0   5  -7  153.58    4.70
   0  -5   7  161.48    4.70
   0  -5   7  156.18    5.10
   0  -5   7  158.58    4.70
  -1   5  -7    6.60    1.00
  -1   5  -7    7.50    1.10
   1  -5   7    7.40    1.20
   1  -5   7    5.90    0.60
   1  -5   7    5.80    0.90
   1  -5   7    5.70    1.00
  -2   5  -7   -0.70    0.70
  -2   5  -7   -0.20    0.80
   2  -5   7   -0.30    0.60
   2  -5   7    1.10    1.00
   2  -5   7    0.20    0.70
  -3   5  -7    0.80    0.70
  -3   5  -7    2.50    1.00
   3  -5   7    0.70    0.70
   3  -5   7    1.20    0.60
   3  -5   7    1.90    0.90
  -4   5  -7   13.50    1.80
   4  -5   7   13.00    1.60
   4  -5   7   11.20    1.30
   4  -5   7   13.00    1.70
  -5   5  -7    8.00    1.50
  -5   5  -7    5.50    1.20
   5  -5   7    5.90    1.30
   5  -5   7    6.70    1.10
   5  -5   7    5.20    1.30
  -6   5  -7    8.50    1.50
  -6   5  -7    8.20    1.80
   6  -5   7    7.30    1.70
   6  -5   7    8.80    1.40
   6  -5   7    5.60    1.60
   5   4  -7   -2.40    1.60
  -5  -4   7    0.10    1.20
  -5  -4   7    2.40    1.40
   4   4  -7    9.80    1.80
  -4  -4   7    7.60    1.30
  -4  -4   7    8.10    1.30
   3   4  -7   18.50    2.20
  -3  -4   7   19.20    1.60
  -3  -4   7   21.60    1.70
  -3  -4   7   20.10    1.80
   2   4  -7   53.99   23.60
  -2  -4   7   14.40   21.50
   1   4  -7   25.00    1.50
   1   4  -7   22.70   20.00
   1   4  -7   26.10    2.00
  -1  -4   7   27.10    1.60
  -1  -4   7   24.40    1.20
  -1  -4   7   27.30    1.60
  -1  -4   7   26.70    1.80
  -1  -4   7   28.90   16.60
   0   4  -7   31.00   17.20
   0   4  -7   51.79    2.60
   0   4  -7   48.80    2.20
   0  -4   7   49.70    1.60
   0  -4   7   53.19    2.20
   0  -4   7   52.09    2.50
   0  -4   7   23.70   11.10
   0  -4   7   51.89    2.20
  -1   4  -7    6.50   18.00
  -1   4  -7   10.20    1.40
  -1   4  -7   13.50    1.30
   1  -4   7   13.10    0.80
   1  -4   7   12.10   13.80
   1  -4   7   11.80    1.50
   1  -4   7   14.60    1.20
   1  -4   7   15.70    1.20
  -2   4  -7    1.40    0.70
  -2   4  -7   -4.20   15.10
  -2   4  -7    1.10    0.60
   2  -4   7    1.00    0.60
   2  -4   7    1.40    0.40
   2  -4   7    0.10    0.70
   2  -4   7  -11.90   13.00
  -3   4  -7    0.50    0.80
  -3   4  -7    0.40    0.60
   3  -4   7    1.10    0.80
   3  -4   7    0.20    0.70
   3  -4   7    1.30    0.50
  -4   4  -7    2.70    0.90
  -4   4  -7    0.70    0.70
   4  -4   7    0.50    0.70
   4  -4   7    0.90    0.80
   4  -4   7    0.10    0.90
  -5   4  -7    3.00    1.00
  -5   4  -7    4.90    1.40
   5  -4   7    3.40    1.20
   5  -4   7    4.80    1.30
   5  -4   7    4.10    1.00
  -6   4  -7    2.40    1.20
  -6   4  -7    4.00    1.50
   6  -4   7    4.70    1.50
   6  -4   7    4.30    1.20
   6  -4   7    3.20    1.40
  -7   4  -7   -0.20    1.90
  -7   4  -7   -0.80    1.40
   7  -4   7   -2.00    1.60
   7  -4   7   -1.20    1.50
   7  -4   7    0.20    1.70
   6   3  -7    2.00    2.20
  -6  -3   7   -0.80    1.80
  -6  -3   7   -1.80    1.60
   5   3  -7    2.10    1.70
  -5  -3   7    0.00    1.30
  -5  -3   7   -0.10    1.30
   4   3  -7   13.60   23.10
   4   3  -7    2.90    1.30
   4   3  -7    2.00    1.40
  -4  -3   7   21.10   22.20
  -4  -3   7    5.10    1.00
  -4  -3   7    6.10    1.30
  -4  -3   7    3.70    1.00
   3   3  -7   14.70   24.40
   3   3  -7    2.70    1.20
   3   3  -7    2.80    1.00
  -3  -3   7    2.90    0.90
  -3  -3   7    1.30    0.90
  -3  -3   7    3.70    0.70
  -3  -3   7  -10.50   22.60
  -3  -3   7    3.10    0.80
   2   3  -7   13.10    1.60
   2   3  -7   25.60   16.60
  -2  -3   7   12.10    1.00
  -2  -3   7   12.80    1.30
  -2  -3   7   12.30    1.30
  -2  -3   7   13.20    1.20
  -2  -3   7   11.80   18.10
   1   3  -7  362.66    9.50
   1   3  -7  314.57   30.40
   1   3  -7  325.77    8.20
   1   3  -7  365.46    8.60
  -1  -3   7  361.86    8.80
  -1  -3   7  358.96    8.80
  -1  -3   7  356.06    8.30
  -1  -3   7  360.46    8.90
  -1  -3   7  346.67   30.90
   0   3  -7   19.20    1.60
   0   3  -7   18.50    1.40
   0   3  -7   20.10    1.40
   0   3  -7   22.70   15.00
   0  -3   7   21.30    1.10
   0  -3   7   22.80    1.40
   0  -3   7   21.00    1.60
   0  -3   7   20.40    1.30
   0  -3   7   35.70   13.70
  -1   3  -7   15.50    1.40
  -1   3  -7   22.00   14.30
  -1   3  -7   16.70    1.30
   1  -3   7   -1.80   12.60
   1  -3   7   17.50    1.30
   1  -3   7   15.50    0.80
   1  -3   7   15.60    1.20
  -2   3  -7    1.80    0.60
  -2   3  -7    3.30    0.80
   2  -3   7   14.80   14.20
   2  -3   7    2.80    0.70
   2  -3   7    2.40    0.60
   2  -3   7    2.70    0.40
  -3   3  -7   12.90    1.60
  -3   3  -7    2.90   12.60
  -3   3  -7   16.00    1.50
   3  -3   7   15.60    1.30
   3  -3   7   14.40    1.00
   3  -3   7   12.40    1.30
   3  -3   7   25.80   12.90
  -4   3  -7    5.00    0.90
  -4   3  -7    6.30    1.20
   4  -3   7    5.20    1.00
   4  -3   7    4.90    0.80
   4  -3   7    5.40    1.00
  -5   3  -7    5.40    1.10
  -5   3  -7    4.80    1.30
   5  -3   7    5.80    1.20
   5  -3   7    3.60    1.10
   5  -3   7    5.20    1.10
  -6   3  -7    1.60    1.10
  -6   3  -7    4.80    1.50
   6  -3   7    0.10    1.20
   6  -3   7    0.60    1.20
   6  -3   7    3.60    1.20
  -7   3  -7   -1.40    1.70
  -7   3  -7    0.60    1.40
   7  -3   7    0.60    1.60
   7  -3   7    0.20    1.40
   7  -3   7   -2.10    1.50
   6   2  -7    3.90    2.10
   6   2  -7    5.50    2.20
  -6  -2   7    1.60    1.80
  -6  -2   7   -1.20    1.60
  -6  -2   7    1.00    1.70
   5   2  -7    2.40    1.70
   5   2  -7    2.80    1.80
  -5  -2   7    5.90    1.30
  -5  -2   7    3.10    1.40
  -5  -2   7   -1.30    1.40
   4   2  -7    0.80    1.30
   4   2  -7  -31.70   27.60
   4   2  -7    0.50    1.10
  -4  -2   7   -0.50    0.80
  -4  -2   7   -1.60    0.90
  -4  -2   7   -8.60   25.20
  -4  -2   7    2.10    1.00
   3   2  -7  -29.60   16.40
  -3  -2   7    4.30   19.60
   2   2  -7   30.00    2.20
   2   2  -7   20.00   15.30
  -2  -2   7   45.00   13.10
  -2  -2   7   25.40    1.40
  -2  -2   7   31.10    1.80
  -2  -2   7   26.60    1.50
  -2  -2   7   30.20    1.50
   1   2  -7    4.30    0.90
   1   2  -7    6.80   15.60
   1   2  -7    3.60    0.50
  -1  -2   7    3.90    0.70
  -1  -2   7    3.20    0.70
  -1  -2   7    3.10    0.50
  -1  -2   7    3.20    0.70
  -1  -2   7   11.30   13.70
   0   2  -7  426.66   10.50
   0   2  -7  409.16    9.90
   0   2  -7  350.66   31.50
   0  -2   7  411.06   10.00
   0  -2   7  404.36   30.20
   0  -2   7  424.56    9.60
   0  -2   7  423.06    9.80
  -1   2  -7   -0.10    0.60
  -1   2  -7    0.00    0.50
  -1   2  -7    9.00   10.00
   1  -2   7    1.00    0.50
   1  -2   7  -15.50   11.40
   1  -2   7    0.20    0.50
  -2   2  -7    1.60    0.70
  -2   2  -7   13.30   12.50
  -2   2  -7    0.50    0.50
   2  -2   7    1.90    0.60
   2  -2   7    1.50    0.40
   2  -2   7   -5.20   11.60
   2  -2   7    1.00    0.50
  -3   2  -7    6.80    0.80
  -3   2  -7    7.30    0.90
  -3   2  -7    7.80    1.10
  -3   2  -7  -14.90   13.50
   3  -2   7    8.00    0.90
   3  -2   7    8.00    1.10
   3  -2   7    6.40    0.90
   3  -2   7    6.00    0.70
   3  -2   7    3.40   12.50
  -4   2  -7    9.40    1.20
  -4   2  -7   12.20    1.70
   4  -2   7    9.80    1.40
   4  -2   7    8.10    1.20
   4  -2   7    7.70    1.10
  -5   2  -7   15.20    1.50
  -5   2  -7   16.40    2.10
   5  -2   7   13.50    1.70
   5  -2   7   13.90    1.70
   5  -2   7   13.20    1.80
  -6   2  -7   24.40    2.40
  -6   2  -7   20.10    2.00
   6  -2   7   20.10    2.30
   6  -2   7   22.80    2.30
   6  -2   7   21.40    2.30
  -7   2  -7   -1.30    1.40
  -7   2  -7    0.60    1.80
   7  -2   7    1.00    1.60
   7  -2   7    3.30    1.70
   7  -2   7    1.50    1.40
   6   1  -7   -0.20    2.10
   6   1  -7   -1.00    2.00
  -6  -1   7    2.80    1.70
  -6  -1   7    5.50    1.70
  -6  -1   7    2.70    1.70
   5   1  -7    5.10    1.80
  -5  -1   7    7.10    1.50
  -5  -1   7    8.80    1.40
   4   1  -7   30.00   26.20
   4   1  -7    7.70    1.70
  -4  -1   7    9.90    1.40
  -4  -1   7    6.70    1.20
  -4  -1   7    6.10    1.10
  -4  -1   7   11.40   23.00
   3   1  -7   34.60   21.30
   3   1  -7   44.20    2.80
  -3  -1   7   41.90    2.30
  -3  -1   7   39.70    1.50
  -3  -1   7   42.70    2.10
  -3  -1   7   42.50    2.00
  -3  -1   7   49.80   14.20
   2   1  -7    8.60   17.00
  -2  -1   7  -25.90   15.20
   1   1  -7  165.88    4.20
   1   1  -7  171.18   25.30
   1   1  -7  162.88    5.20
  -1  -1   7  155.08    4.30
  -1  -1   7  171.38   18.90
  -1  -1   7  158.88    4.30
  -1  -1   7  154.78    4.60
  -1  -1   7  156.68    4.40
   0   1  -7    3.20    0.60
   0   1  -7   15.00   13.70
   0   1  -7    5.10    1.00
   0  -1   7    4.10    0.60
   0  -1   7    4.40    0.70
   0  -1   7   -2.70   12.10
   0  -1   7    3.90    0.60
  -1   1  -7   53.99    2.20
  -1   1  -7   53.29    2.20
  -1   1  -7   49.40   12.80
   1  -1   7   50.19    2.00
   1  -1   7   50.79    1.90
   1  -1   7   50.59    1.90
   1  -1   7   45.20   12.20
  -2   1  -7   -6.50   10.80
  -2   1  -7    0.60    0.60
   2  -1   7   -7.60   11.10
   2  -1   7    0.20    0.50
   2  -1   7    0.30    0.40
   2  -1   7   -0.20    0.40
  -3   1  -7    2.40    0.80
  -3   1  -7    3.20   13.00
  -3   1  -7    2.70    0.60
  -3   1  -7    1.70    0.50
   3  -1   7    7.90   11.60
   3  -1   7    0.80    0.60
   3  -1   7    0.50    0.60
   3  -1   7    0.80    0.60
   3  -1   7    1.70    0.60
  -4   1  -7   21.60    1.80
  -4   1  -7   22.70    1.50
   4  -1   7   53.99   13.10
   4  -1   7   20.70    1.60
   4  -1   7   23.30    1.60
   4  -1   7   21.10    1.60
  -5   1  -7    0.20    0.70
  -5   1  -7   -0.50    0.90
   5  -1   7    0.30    0.90
   5  -1   7   -0.30    1.00
   5  -1   7   -0.90    0.90
  -6   1  -7    2.20    1.30
  -6   1  -7    3.40    1.20
   6  -1   7    1.80    1.20
   6  -1   7    4.30    1.20
   6  -1   7    0.80    1.20
  -7   1  -7    1.60    1.40
  -7   1  -7    2.70    1.80
   7  -1   7    3.40    1.70
   7  -1   7    2.20    1.50
   6   0  -7    8.70    2.30
   6   0  -7    7.20    2.20
  -6   0   7    3.10    1.60
  -6   0   7    2.30    1.70
  -6   0   7    3.30    1.80
   5   0  -7   -0.30    1.70
   5   0  -7    1.10    1.60
  -5   0   7   -0.70    1.10
  -5   0   7   -1.60    1.20
  -5   0   7    0.00    1.30
   4   0  -7    3.20    1.30
  -4   0   7    3.10    0.90
  -4   0   7    1.90    1.00
  -4   0   7    3.80    1.00
   3   0  -7  -11.50   18.70
   3   0  -7   -0.20    1.00
  -3   0   7   -0.30    0.70
  -3   0   7  -16.10   17.90
  -3   0   7    0.40    0.70
  -3   0   7    0.80    0.60
   2   0  -7   12.20    0.80
   2   0  -7   11.40    1.60
   2   0  -7   24.10   16.20
  -2   0   7   14.10    1.20
  -2   0   7   12.60    1.00
  -2   0   7   10.80    0.90
  -2   0   7   12.00    1.00
  -2   0   7    4.60   15.00
  -2   0   7   14.90    1.30
   1   0  -7  109.49    3.00
   1   0  -7  107.49    3.90
  -1   0   7  109.89    3.30
  -1   0   7  111.99    3.10
  -1   0   7  104.89    3.40
  -1   0   7   94.79    3.20
   0   0  -7   62.19   15.30
   0   0  -7   33.00    1.50
   0   0  -7   34.30    1.90
   0   0   7   32.70    1.60
   0   0   7   28.20    9.00
   0   0   7   30.60    1.50
   0   0   7   34.10    1.40
  -1   0  -7   12.60   12.60
  -1   0  -7   23.10    1.50
  -1   0  -7   21.20    1.40
   1   0   7   16.80   11.00
   1   0   7   20.90    1.20
   1   0   7   20.10    1.10
   1   0   7   21.70    1.30
  -2   0  -7   11.70    1.10
  -2   0  -7   -3.60   11.30
  -2   0  -7   11.60    1.30
   2   0   7   12.50    1.00
   2   0   7   14.90   10.90
   2   0   7   11.50    1.20
   2   0   7   11.00    1.00
   2   0   7   12.50    1.10
  -3   0  -7   35.80    2.10
  -3   0  -7   33.10    1.40
  -3   0  -7   49.20   15.10
  -3   0  -7   31.80    1.40
  -3   0  -7   31.00    1.50
   3   0   7   33.10    1.40
   3   0   7   34.30    1.70
   3   0   7   30.10   11.70
   3   0   7   30.00    1.70
   3   0   7   34.20    1.70
  -4   0  -7    0.30    0.60
  -4   0  -7  -15.10   14.20
  -4   0  -7   -0.20    0.90
   4   0   7   -0.10    0.70
   4   0   7   -4.30   13.30
   4   0   7   -0.30    0.60
   4   0   7   -0.30    0.70
  -5   0  -7   -1.00    0.70
   5   0   7    2.00    1.00
  -6   0  -7    3.00    1.30
  -6   0  -7    2.50    1.10
   6   0   7    0.00    1.10
   6   0   7    0.60    1.30
  -7   0  -7   -0.10    1.70
  -7   0  -7    0.10    1.30
   7   0   7    1.70    1.50
   7   0   7    0.20    1.40
   6  -1  -7   -2.80    2.00
   6  -1  -7    0.80    2.10
  -6   1   7    1.30    1.50
  -6   1   7    0.20    1.60
  -6   1   7   -0.70    1.70
   5  -1  -7    1.70    1.70
   5  -1  -7    5.80    1.70
  -5   1   7    3.60    1.10
  -5   1   7    1.60    1.20
  -5   1   7    6.00    1.40
   4  -1  -7    0.60    1.30
  -4   1   7    2.90    1.00
  -4   1   7    1.50    1.00
  -4   1   7    1.40    0.90
   3  -1  -7   15.70   17.60
   3  -1  -7   35.60    2.60
  -3   1   7   33.90   17.70
  -3   1   7   34.20    2.20
  -3   1   7   32.50    1.80
  -3   1   7   31.00    2.00
   2  -1  -7    7.40    0.60
   2  -1  -7    7.80   11.90
   2  -1  -7    8.00    1.20
  -2   1   7    8.60    1.10
  -2   1   7    8.60    1.20
  -2   1   7    7.70    0.80
  -2   1   7    8.00    0.70
  -2   1   7    9.10   15.10
  -2   1   7    7.50    0.90
   1  -1  -7    1.50    0.50
   1  -1  -7    0.80   10.10
   1  -1  -7    2.90    0.90
  -1   1   7    1.80    0.40
  -1   1   7    2.70    0.60
  -1   1   7    2.20    0.60
  -1   1   7    2.00    0.60
  -1   1   7  -12.60   12.90
   0  -1  -7    7.10    0.80
   0  -1  -7   -5.90   13.10
   0  -1  -7    7.20    1.10
   0  -1  -7    8.00    0.90
   0   1   7    7.20    0.90
   0   1   7    6.70    0.90
   0   1   7    5.60    0.90
   0   1   7    6.00   11.30
   0   1   7    5.50    0.90
  -1  -1  -7  -14.00   11.40
  -1  -1  -7    0.90    0.60
   1   1   7    1.50    0.50
   1   1   7   -6.50   11.20
   1   1   7    1.10    0.50
  -2  -1  -7    5.20    0.90
  -2  -1  -7   -3.00   12.50
  -2  -1  -7    5.70    0.60
  -2  -1  -7    5.30    0.90
   2   1   7    6.90    0.90
   2   1   7    6.30    0.90
   2   1   7   15.30   10.80
   2   1   7    5.10    0.60
   2   1   7    4.50    0.90
  -3  -1  -7  -14.20   13.40
  -3  -1  -7    1.00    0.50
  -3  -1  -7    1.80    0.80
  -3  -1  -7    0.90    0.60
  -3  -1  -7    0.10    0.50
   3   1   7    0.50    0.60
   3   1   7    0.40    0.50
   3   1   7    7.90   12.10
   3   1   7    1.30    0.50
   3   1   7    1.30    0.50
  -4  -1  -7  -17.90   15.50
  -4  -1  -7   22.70    1.50
  -4  -1  -7   24.80    2.00
   4   1   7   36.10   14.70
   4   1   7   24.20    1.60
   4   1   7   22.80    1.60
   4   1   7   25.70    1.70
  -5  -1  -7   12.70    2.20
  -5  -1  -7    9.40    1.40
   5   1   7    9.90    1.40
   5   1   7    7.40    1.50
  -6  -1  -7    5.90    1.20
  -6  -1  -7    7.60    1.70
   6   1   7    5.10    1.20
   6   1   7    5.30    1.40
  -7  -1  -7    6.70    1.90
  -7  -1  -7    5.30    1.40
   7   1   7    6.20    1.60
   7   1   7    5.50    1.80
  -8  -1  -7    0.20    2.20
  -8  -1  -7    1.50    1.90
   6  -2  -7   11.40    2.50
   6  -2  -7    7.30    2.30
  -6   2   7    4.50    1.90
  -6   2   7   11.00    2.20
   5  -2  -7   11.20    2.20
  -5   2   7    7.20    1.90
  -5   2   7   11.30    1.70
  -5   2   7    9.30    1.40
   4  -2  -7   -0.50    1.30
  -4   2   7    0.20    1.00
  -4   2   7    0.90    0.90
  -4   2   7    0.50    1.20
   3  -2  -7   29.50   17.90
   3  -2  -7   45.80    2.90
  -3   2   7   49.80    2.50
  -3   2   7   48.50    2.50
  -3   2   7   48.30    2.00
  -3   2   7   79.29   21.50
   2  -2  -7    6.00    0.90
   2  -2  -7    3.10    1.00
   2  -2  -7   17.40   15.70
  -2   2   7   -7.60   12.00
  -2   2   7    5.20    1.00
  -2   2   7    6.20    1.00
   1  -2  -7   23.30    1.20
   1  -2  -7   21.80    1.90
   1  -2  -7   32.90   11.80
   1  -2  -7   23.40    1.10
  -1   2   7   36.30   14.30
  -1   2   7   22.70    1.40
  -1   2   7   23.20    1.10
  -1   2   7   23.30    1.20
  -1   2   7   19.50    1.00
  -1   2   7   24.70    1.50
   0  -2  -7   40.90    1.70
   0  -2  -7   43.90    2.20
   0  -2  -7   25.10   13.80
   0   2   7   40.40    1.80
   0   2   7   36.70    1.40
   0   2   7   40.80    1.30
   0   2   7   21.00   13.20
   0   2   7   41.00    1.80
  -1  -2  -7    4.10    9.20
  -1  -2  -7   11.10    1.30
  -1  -2  -7   12.50    1.20
   1   2   7   11.50    0.80
   1   2   7    9.10    0.90
   1   2   7   12.80    8.10
   1   2   7   11.10    1.00
   1   2   7   12.40    1.00
  -2  -2  -7    4.90    0.50
  -2  -2  -7    4.70    1.00
  -2  -2  -7    7.10    1.00
  -2  -2  -7   10.60   10.10
   2   2   7   -3.40   11.50
   2   2   7    4.70    0.90
   2   2   7    3.80    0.60
   2   2   7    5.80    0.90
  -3  -2  -7   14.00   15.30
  -3  -2  -7   31.80    1.40
  -3  -2  -7   29.00    1.40
  -3  -2  -7   33.00    2.10
  -3  -2  -7   34.10    1.60
   3   2   7   33.60    1.60
   3   2   7   33.50    1.70
   3   2   7   26.80    9.60
   3   2   7   32.50    1.60
  -4  -2  -7    2.80   17.20
  -4  -2  -7    3.00    0.60
  -4  -2  -7    1.50    0.90
   4   2   7    3.00    0.80
   4   2   7   -3.80   11.10
   4   2   7    1.90    0.80
  -5  -2  -7    0.60    0.70
  -5  -2  -7    0.70    1.10
   5   2   7    0.90    0.90
   5   2   7   -0.50    0.80
  -6  -2  -7    1.10    1.00
  -6  -2  -7   -1.70    1.40
   6   2   7   -1.40    1.10
   6   2   7    1.20    1.10
  -7  -2  -7   -1.60    1.80
  -7  -2  -7    0.20    1.30
   7   2   7   -0.10    1.50
   7   2   7   -0.20    1.20
   6  -3  -7    9.80    2.60
   6  -3  -7   10.00    2.70
  -6   3   7    6.80    2.30
  -6   3   7   14.20    2.20
   5  -3  -7    2.00    1.80
  -5   3   7   -0.90    1.30
  -5   3   7    0.70    1.60
   4  -3  -7    0.10    1.40
  -4   3   7    1.80    1.10
  -4   3   7    3.80    1.30
  -3   3   7   12.30    1.70
  -3   3   7   11.80    1.70
   2  -3  -7   -0.80    0.90
   2  -3  -7   12.10   15.10
  -2   3   7    1.40   17.40
  -2   3   7    0.40    0.70
  -2   3   7   -0.30    0.70
   1  -3  -7   17.00   13.80
  -1   3   7   17.00   14.60
   0  -3  -7    6.50    0.90
   0  -3  -7    4.60    1.00
   0  -3  -7   -1.90   13.30
   0   3   7    4.50   12.80
   0   3   7    4.80    0.70
   0   3   7    5.40    0.50
   0   3   7    6.80    1.00
   0   3   7    4.20    0.60
  -1  -3  -7   23.50    1.50
  -1  -3  -7   23.80    1.70
  -1  -3  -7   20.60   13.40
   1   3   7   24.20    1.30
   1   3   7   23.30    0.90
   1   3   7    3.80    8.80
   1   3   7   23.20    1.40
   1   3   7   21.90    1.10
  -2  -3  -7    0.50    0.70
  -2  -3  -7   -0.50    0.60
  -2  -3  -7   -0.70   10.80
  -2  -3  -7   -0.40    0.30
   2   3   7    0.00    0.40
   2   3   7   -0.40    0.40
   2   3   7   -0.40    0.60
   2   3   7   -0.20    0.50
  -3  -3  -7    4.70    1.00
  -3  -3  -7    5.90    0.70
  -3  -3  -7    9.40   15.70
  -3  -3  -7    7.00    1.20
   3   3   7    7.10    0.90
   3   3   7    5.80    0.80
   3   3   7   19.70   14.90
   3   3   7    7.60    1.10
  -4  -3  -7   13.80    1.10
  -4  -3  -7    0.00   18.50
  -4  -3  -7   12.90    1.20
  -4  -3  -7   12.60    1.80
   4   3   7   12.30    1.50
   4   3   7    3.60   12.60
   4   3   7   12.60    1.30
  -5  -3  -7    0.30    1.20
  -5  -3  -7   -0.60    0.70
   5   3   7   -1.30    0.90
   5   3   7    1.00    0.70
  -6  -3  -7   -2.20    1.40
  -6  -3  -7    0.20    0.90
   6   3   7    0.40    1.20
   6   3   7   -0.20    1.10
  -7  -3  -7   12.00    2.20
  -7  -3  -7    9.90    1.30
   7   3   7    8.20    1.80
   7   3   7    6.50    1.60
   6  -4  -7    3.40    2.60
   6  -4  -7    1.30    2.40
  -6   4   7    3.90    2.30
  -6   4   7    4.30    2.10
   5  -4  -7   -0.60    1.90
  -5   4   7    1.80    1.60
  -5   4   7   -0.60    1.70
   4  -4  -7    2.40    1.60
  -4   4   7    1.80    1.30
  -4   4   7    5.30    1.60
   3  -4  -7    0.90    1.30
  -3   4   7    2.00    1.10
  -3   4   7    2.30    0.90
   2  -4  -7   27.40    2.50
   2  -4  -7   19.70   15.10
  -2   4   7   27.00    2.00
  -2   4   7   24.50    1.70
  -2   4   7    3.70   19.70
   1  -4  -7    7.60   13.40
   1  -4  -7   15.20    1.70
   1  -4  -7   14.80    1.20
  -1   4   7   14.00    1.30
  -1   4   7   12.80    1.30
  -1   4   7   12.80    1.70
  -1   4   7    6.90   15.70
   0  -4  -7   77.79    2.70
   0  -4  -7   51.59   13.20
   0  -4  -7   75.89    3.20
   0   4   7   74.89    2.60
   0   4   7   78.29    2.90
   0   4   7   81.59   17.40
  -1  -4  -7   12.40    1.20
  -1  -4  -7    9.70    1.40
  -1  -4  -7   -8.40   14.40
   1   4   7    9.70    0.50
   1   4   7    8.90    0.70
   1   4   7   20.60   10.10
   1   4   7    9.80    0.90
   1   4   7    9.70    1.10
  -2  -4  -7    0.50    0.70
  -2  -4  -7  -12.80   11.90
  -2  -4  -7    1.00    0.40
  -2  -4  -7    1.00    0.80
   2   4   7    0.60    0.50
   2   4   7    0.40    0.60
   2   4   7    4.60   13.60
   2   4   7    1.30    0.40
   2   4   7   -0.10    0.60
  -3  -4  -7    7.10   18.10
   3   4   7  -26.90   14.60
  -4  -4  -7   18.70    1.20
  -4  -4  -7   17.80    2.10
  -4  -4  -7   45.90   21.60
   4   4   7    8.60   17.70
   4   4   7   15.80    1.30
   4   4   7   18.20    1.60
  -5  -4  -7    0.20    0.70
  -5  -4  -7   -0.40    1.30
   5   4   7    1.60    1.00
   5   4   7    1.70    0.80
  -6  -4  -7    1.30    1.50
  -6  -4  -7   -0.70    1.00
   6   4   7    0.90    1.00
   6   4   7    0.10    1.20
  -7  -4  -7    5.50    1.30
  -7  -4  -7   -0.10    2.00
   7   4   7    5.30    1.70
   7   4   7    5.80    1.60
   5  -5  -7    1.20    2.10
  -5   5   7    1.00    1.50
  -5   5   7    1.80    2.00
   4  -5  -7    4.20    1.70
  -4   5   7    1.30    1.50
  -4   5   7    1.30    1.20
   3  -5  -7    7.90    1.70
  -3   5   7    8.90    1.40
  -3   5   7   10.00    1.60
  -2   5   7   13.20    1.60
  -2   5   7   15.70    2.60
   1  -5  -7   33.10   16.30
   1  -5  -7   40.60    2.50
   1  -5  -7   37.60    1.60
  -1   5   7   -1.90   17.10
  -1   5   7   37.40    1.90
  -1   5   7   37.40    2.20
   0  -5  -7   -6.90   15.70
   0  -5  -7    7.90    1.30
   0  -5  -7    7.20    1.10
   0   5   7    7.80    1.20
   0   5   7   29.00   16.20
   0   5   7    8.30    1.00
  -1  -5  -7   45.30    2.50
  -1  -5  -7   46.60    2.20
  -1  -5  -7   46.60   17.10
   1   5   7   47.60    2.20
   1   5   7   50.59   16.20
   1   5   7   47.20    1.90
  -2  -5  -7    6.00    1.00
  -2  -5  -7    6.30    0.60
  -2  -5  -7   -1.30   13.00
  -2  -5  -7    5.80    1.10
   2   5   7   -2.10   15.10
   2   5   7    6.30    1.00
   2   5   7    6.70    0.90
   2   5   7    4.40    0.50
  -3  -5  -7   26.00    2.20
  -3  -5  -7   26.40    1.80
  -3  -5  -7   25.20   15.80
  -3  -5  -7   25.60    1.20
   3   5   7   27.50    1.40
   3   5   7   23.60    1.70
   3   5   7   26.60   16.80
  -4  -5  -7    1.40    0.60
  -4  -5  -7   -9.60   23.20
  -4  -5  -7    2.40    1.20
  -4  -5  -7    1.90    0.90
   4   5   7    1.50   14.70
   4   5   7    1.40    0.70
   4   5   7    0.00    0.80
  -5  -5  -7    4.00    1.50
  -5  -5  -7    5.10    0.90
   5   5   7    3.80    1.20
   5   5   7    3.90    0.90
  -6  -5  -7    0.90    1.10
  -6  -5  -7    2.70    1.80
   6   5   7    2.80    1.20
   6   5   7    2.50    1.30
  -7  -5  -7   -3.30    2.10
  -7  -5  -7    0.20    1.40
   7   5   7    0.70    1.60
   5  -6  -7   -2.50    2.30
  -5   6   7    0.90    1.80
  -5   6   7    0.80    2.10
   4  -6  -7    2.60    2.00
  -4   6   7    3.40    1.50
  -4   6   7    3.00    1.70
   3  -6  -7    0.50    1.50
  -3   6   7    3.30    1.30
  -3   6   7    1.00    1.60
   2  -6  -7   14.90    2.40
  -2   6   7   14.70    1.70
  -2   6   7    9.30    1.50
   1  -6  -7    1.50    0.70
   1  -6  -7    1.80    1.90
  -1   6   7    1.50    1.00
  -1   6   7    2.80    0.80
   0  -6  -7   97.79    3.40
   0  -6  -7  104.39    4.10
   0   6   7   96.09    3.60
   0   6   7  100.09    3.30
  -1  -6  -7    1.80    0.80
  -1  -6  -7   -0.20    1.00
  -1  -6  -7  -24.20   16.30
   1   6   7    4.90   16.90
   1   6   7   -0.20    0.60
   1   6   7   -1.20    0.70
  -2  -6  -7    9.70    1.40
  -2  -6  -7   42.70   19.80
  -2  -6  -7   10.20    1.50
   2   6   7   11.00    1.30
   2   6   7   10.30    1.00
   2   6   7   -7.30   16.70
  -3  -6  -7  -33.30   21.40
  -3  -6  -7    2.20    1.20
  -3  -6  -7    3.10    1.00
   3   6   7    1.80    0.60
   3   6   7   16.70   18.70
   3   6   7    1.50    1.00
  -4  -6  -7    8.20    1.10
  -4  -6  -7    7.00    1.20
  -4  -6  -7    6.90    1.60
  -4  -6  -7   29.00   27.70
   4   6   7    5.60    0.80
   4   6   7    7.80    1.30
   4   6   7    1.70   16.40
  -5  -6  -7    0.90    1.50
  -5  -6  -7   -1.90    0.90
   5   6   7    0.40    1.10
  -6  -6  -7    0.90    1.20
  -6  -6  -7   -0.60    2.00
   6   6   7   -0.10    1.40
   4  -7  -7   -0.10    2.20
  -4   7   7    0.30    1.60
  -4   7   7   -0.20    1.80
   3  -7  -7   -0.60    1.70
  -3   7   7    0.90    1.50
  -3   7   7   -2.20    1.30
   2  -7  -7    9.20    1.80
  -2   7   7   10.20    1.40
  -2   7   7   13.30    2.10
   1  -7  -7   25.60    1.70
   1  -7  -7   30.70    2.70
  -1   7   7   21.50    2.10
  -1   7   7   21.10    1.80
   0  -7  -7   16.60    1.50
   0  -7  -7   15.40    2.40
   0   7   7   14.70    1.50
   0   7   7   12.20    1.70
  -1  -7  -7   62.29    2.80
  -1  -7  -7   62.39    3.30
   1   7   7   62.29    2.80
   1   7   7   62.39    2.30
  -2  -7  -7    2.50    1.10
  -2  -7  -7    0.80    1.00
   2   7   7    0.90    0.90
  -3  -7  -7   14.80    2.20
  -3  -7  -7   13.40    2.00
   3   7   7   16.40    1.80
  -4  -7  -7    2.70    1.50
  -4  -7  -7    1.40    1.20
   4   7   7    2.50    1.20
  -5  -7  -7    6.80    1.90
   5   7   7    4.70    1.30
  -6  -7  -7   -0.20    2.20
   6   7   7   -1.30    1.60
   4  -8  -7    2.40    2.40
  -4   8   7   -1.10    2.10
  -4   8   7   -2.00    2.70
   3  -8  -7    4.50    2.10
  -3   8   7   -1.20    1.70
  -3   8   7    1.60    1.50
   2  -8  -7   10.60    2.20
  -2   8   7    6.50    1.60
  -2   8   7    9.10    1.80
   1  -8  -7   10.90    2.00
  -1   8   7   16.00    2.20
   0  -8  -7    0.00    1.00
   0  -8  -7   -0.90    1.40
   0   8   7   -0.10    1.10
  -1  -8  -7    0.00    1.30
  -1  -8  -7    0.20    1.10
   1   8   7   -1.80    1.10
  -2  -8  -7    1.60    1.30
  -2  -8  -7   -1.10    1.20
   2   8   7    1.20    1.10
  -3  -8  -7    8.50    1.90
  -3  -8  -7   11.10    1.90
   3   8   7    9.90    1.40
  -4  -8  -7    2.80    1.40
  -4  -8  -7    1.70    1.80
   4   8   7   -0.50    1.30
  -5  -8  -7    0.90    2.20
   5   8   7    1.60    1.50
   3  -9  -7   -1.70    3.00
  -3   9   7    0.60    2.10
   2  -9  -7   14.80    2.60
  -2   9   7   14.50    2.30
   1  -9  -7    0.10    1.90
  -1   9   7    0.50    1.50
   0  -9  -7   28.90    3.30
   0   9   7   24.40    2.50
  -1  -9  -7    0.40    1.50
  -1  -9  -7    1.10    1.30
   1   9   7    1.00    1.30
  -2  -9  -7   -0.60    1.50
  -2  -9  -7    0.20    1.40
   2   9   7   -0.90    1.20
  -3  -9  -7    2.50    1.80
  -3  -9  -7    0.10    1.50
   3   9   7   -0.90    1.40
  -4  -9  -7    3.50    2.10
  -4  -9  -7   -1.20    2.00
   4   9   7    1.10    1.50
   1 -10  -7    4.30    2.50
  -1  10   7    9.00    2.30
   0 -10  -7    2.80    2.00
   0  10   7    3.00    1.80
  -1 -10  -7   13.30    1.80
  -1 -10  -7   14.70    2.40
   1  10   7   20.10    2.50
  -2 -10  -7   -0.90    1.70
  -2 -10  -7    1.10    1.70
   2  10   7   -1.20    1.50
  -3 -10  -7   -2.10    1.90
  -3 -10  -7   -1.90    1.90
   3  10   7    3.40    1.70
   0   9  -8    1.60    1.80
   0  -9   8    3.70    1.80
   0  -9   8    5.40    1.90
  -1   9  -8    3.60    1.80
   1  -9   8    0.90    1.90
   1  -9   8    2.50    1.50
   2   8  -8    5.40    2.00
  -2  -8   8    0.70    1.50
  -2  -8   8    1.80    1.70
   1   8  -8   19.80    2.80
  -1  -8   8   19.10    2.80
  -1  -8   8   22.30    2.60
  -1  -8   8   26.30    2.00
   0   8  -8    0.60    1.50
   0  -8   8    1.00    1.00
   0  -8   8    0.50    1.20
   0  -8   8    2.80    1.60
  -1   8  -8   19.30    2.40
  -1   8  -8   17.60    2.60
   1  -8   8   21.20    2.30
   1  -8   8   19.50    2.80
   1  -8   8   18.90    1.80
  -2   8  -8    1.40    1.40
  -2   8  -8   -1.30    1.40
   2  -8   8    1.50    1.00
   2  -8   8    1.10    1.80
   2  -8   8    1.80    1.40
  -3   8  -8    3.10    1.70
   3  -8   8    1.20    1.20
   3  -8   8    3.30    2.00
   3  -8   8   -1.30    1.50
   3   7  -8    4.20    2.00
  -3  -7   8    2.10    1.60
  -3  -7   8   -2.00    1.40
  -3  -7   8    0.60    1.30
   2   7  -8    1.70    1.60
  -2  -7   8    4.00    1.50
  -2  -7   8    1.90    1.10
  -2  -7   8    3.10    1.30
   1   7  -8   -2.50    1.40
  -1  -7   8    1.30    0.90
  -1  -7   8   -0.70    1.20
  -1  -7   8    2.20    1.40
   0   7  -8   -0.90    1.30
   0  -7   8   -0.10    0.90
   0  -7   8   -2.40    1.30
   0  -7   8    0.90    1.10
  -1   7  -8   21.10    2.10
  -1   7  -8   16.40    2.20
   1  -7   8   23.50    2.10
   1  -7   8   21.20    2.50
   1  -7   8   19.60    1.70
  -2   7  -8   15.50    2.50
  -2   7  -8   20.00    2.20
   2  -7   8   17.90    2.20
   2  -7   8   18.40    1.60
   2  -7   8   18.20    2.10
  -3   7  -8    9.30    1.60
  -3   7  -8    7.30    1.80
   3  -7   8    7.20    1.40
   3  -7   8    6.30    1.10
   3  -7   8    7.50    1.90
  -4   7  -8    1.80    1.50
   4  -7   8   -0.30    1.20
   4  -7   8   -0.10    1.30
   4  -7   8   -1.50    1.90
  -5   7  -8   14.60    3.10
   4   6  -8    0.10    1.90
  -4  -6   8    0.60    1.30
  -4  -6   8    1.50    1.80
   3   6  -8   -0.70    1.60
  -3  -6   8   -0.10    1.10
  -3  -6   8   -1.20    1.50
  -3  -6   8    1.60    1.40
   2   6  -8   34.20    3.00
  -2  -6   8   36.90    2.60
  -2  -6   8   37.10    2.50
  -2  -6   8   32.40    2.00
   1   6  -8   38.40    2.70
  -1  -6   8   35.60    2.50
  -1  -6   8   37.60    2.00
  -1  -6   8   39.10    2.30
   0   6  -8    5.50    1.10
   0   6  -8    5.90    1.30
   0  -6   8    6.90    1.00
   0  -6   8    5.60    1.10
   0  -6   8    5.60    1.40
  -1   6  -8    3.80    1.10
  -1   6  -8    2.10    1.00
   1  -6   8    2.30    1.30
   1  -6   8    4.10    1.10
   1  -6   8    3.40    0.90
  -2   6  -8   -0.10    1.00
  -2   6  -8   -0.70    1.00
   2  -6   8    1.10    0.90
   2  -6   8   -1.30    1.20
  -3   6  -8    2.50    1.00
  -3   6  -8    1.90    1.10
   3  -6   8    0.50    1.50
   3  -6   8    1.90    1.10
   3  -6   8    2.00    1.00
  -4   6  -8    1.40    1.40
   4  -6   8    0.30    1.10
   4  -6   8    1.70    1.20
  -5   6  -8    1.10    1.60
   5  -6   8   -0.30    1.40
   5  -6   8    3.10    1.60
   4   5  -8   -0.10    1.80
  -4  -5   8    1.50    1.50
  -4  -5   8   -2.90    1.20
   3   5  -8    8.20    1.70
  -3  -5   8    4.40    1.20
  -3  -5   8    6.30    1.20
  -3  -5   8    5.00    1.30
   2   5  -8    0.00    1.20
  -2  -5   8    1.00    0.90
  -2  -5   8   -0.50    0.90
  -2  -5   8    0.60    1.00
   1   5  -8   30.20    2.60
  -1  -5   8   34.10    2.20
  -1  -5   8   33.50    2.10
   0   5  -8    3.00    1.00
   0   5  -8    2.60    1.10
   0  -5   8    2.90    1.30
   0  -5   8    4.40    0.90
   0  -5   8    2.50    0.80
  -1   5  -8    2.90    1.00
  -1   5  -8    0.10    1.30
   1  -5   8    1.80    0.80
   1  -5   8    1.80    1.70
   1  -5   8    0.80    0.80
  -2   5  -8   15.00    1.80
  -2   5  -8   18.00    1.70
   2  -5   8   16.30    2.20
   2  -5   8   21.70    1.70
   2  -5   8   19.80    1.80
  -3   5  -8   13.20    1.70
  -3   5  -8   12.10    1.50
   3  -5   8    9.70    1.10
   3  -5   8   13.30    1.80
   3  -5   8   13.50    1.70
  -4   5  -8   25.40    2.30
   4  -5   8   20.00    1.40
   4  -5   8   20.60    2.00
   4  -5   8   21.50    2.00
  -5   5  -8    3.90    1.40
   5  -5   8    2.00    1.30
   5  -5   8    0.70    1.40
  -6   5  -8   -0.30    1.80
  -6   5  -8   -1.10    1.40
   6  -5   8    1.40    1.40
   6  -5   8    3.30    1.70
   6  -5   8    0.90    1.60
   5   4  -8    0.00    2.00
  -5  -4   8    3.80    1.80
  -5  -4   8    3.20    1.50
   4   4  -8    2.00    1.70
  -4  -4   8    0.10    1.10
  -4  -4   8   -0.70    1.30
   3   4  -8    3.40    1.40
  -3  -4   8    4.10    1.10
  -3  -4   8    3.40    1.20
  -3  -4   8    3.30    1.10
   2   4  -8   21.30    2.20
  -2  -4   8   17.50    1.80
  -2  -4   8   19.00    1.70
  -2  -4   8   16.30    1.60
   1   4  -8   37.80    2.50
   1   4  -8   42.70    1.90
  -1  -4   8   44.70    2.40
  -1  -4   8   44.20    2.20
  -1  -4   8   42.30    2.20
   0   4  -8   42.90    2.50
   0   4  -8   39.50    2.00
   0  -4   8   43.20    2.20
   0  -4   8   41.00    1.40
   0  -4   8   40.90    2.10
   0  -4   8   40.60    2.30
  -1   4  -8   20.10    1.60
  -1   4  -8   20.50    1.70
   1  -4   8   20.30    1.00
   1  -4   8   20.50    1.70
   1  -4   8   20.50    1.90
   1  -4   8   24.50    1.70
  -2   4  -8   10.50    1.50
  -2   4  -8   10.70    1.60
   2  -4   8   13.70    1.40
   2  -4   8    9.10    0.90
  -3   4  -8   16.00    1.40
  -3   4  -8   15.80    1.90
   3  -4   8   19.60    1.20
   3  -4   8   22.40    1.70
   3  -4   8   20.00    1.70
  -4   4  -8    4.70    1.20
   4  -4   8    4.00    1.10
   4  -4   8    3.30    0.70
   4  -4   8    2.60    1.00
  -5   4  -8    7.10    1.60
  -5   4  -8    6.10    1.30
   5  -4   8    9.60    1.50
   5  -4   8    7.80    1.50
  -6   4  -8   -0.40    1.60
  -6   4  -8    1.00    1.30
   6  -4   8    3.50    1.50
   6  -4   8   -0.80    1.30
   6  -4   8    2.60    1.50
   5   3  -8    2.40    2.10
  -5  -3   8    0.80    1.50
  -5  -3   8    4.00    1.60
   4   3  -8   -0.60    1.60
  -4  -3   8    0.00    1.10
  -4  -3   8   -0.30    1.10
   3   3  -8    0.30    1.10
   3   3  -8    3.00    1.30
  -3  -3   8    2.00    0.90
  -3  -3   8    0.50    0.90
  -3  -3   8    0.00    1.00
   2   3  -8   29.40    2.40
  -2  -3   8   26.80    1.60
  -2  -3   8   30.50    1.90
  -2  -3   8   28.30    1.80
   1   3  -8   32.70   21.50
   1   3  -8   46.80    2.70
   1   3  -8   45.80    1.90
  -1  -3   8   44.40    1.80
  -1  -3   8   47.50    2.30
  -1  -3   8   45.00    2.30
  -1  -3   8   68.39   20.80
  -1  -3   8   47.90    2.10
   0   3  -8  197.18    6.00
   0   3  -8  198.58    5.50
   0   3  -8  160.48   24.90
   0  -3   8  213.58   26.30
   0  -3   8  189.98    4.90
   0  -3   8  195.68    5.60
   0  -3   8  208.98    5.50
   0  -3   8  199.58    5.90
  -1   3  -8   19.40   17.40
  -1   3  -8   17.30    1.60
  -1   3  -8   13.10    1.30
   1  -3   8   14.60    0.90
   1  -3   8   13.20    1.20
   1  -3   8   14.80    1.30
  -2   3  -8   29.40    1.70
  -2   3  -8   26.20    1.80
   2  -3   8   28.90    1.70
   2  -3   8   27.60    1.90
   2  -3   8   27.20    1.30
  -3   3  -8    7.70    1.30
  -3   3  -8    7.50    1.10
   3  -3   8    6.60    1.00
   3  -3   8    6.90    0.90
  -4   3  -8    2.30    1.10
  -4   3  -8    1.30    0.80
   4  -3   8   -0.20    0.90
   4  -3   8    2.50    0.70
   4  -3   8    1.90    1.00
  -5   3  -8    0.90    1.30
  -5   3  -8   -0.60    0.90
   5  -3   8   -0.20    1.00
   5  -3   8   -0.50    1.00
  -6   3  -8    2.30    1.20
  -6   3  -8    4.50    1.60
   6  -3   8    3.10    1.30
   6  -3   8    4.70    1.50
   6  -3   8    3.00    1.20
  -7   3  -8   -0.30    1.40
  -7   3  -8   -2.00    1.90
   7  -3   8   -1.10    1.60
   7  -3   8   -0.70    1.60
   7  -3   8   -0.80    1.70
   5   2  -8    0.70    1.90
   5   2  -8    0.00    2.20
  -5  -2   8   -1.80    1.40
  -5  -2   8    2.50    1.40
   4   2  -8    4.80    1.50
   4   2  -8    5.50    1.70
  -4  -2   8    5.90    1.30
  -4  -2   8    3.70    1.10
  -4  -2   8    6.00    1.30
   3   2  -8    3.60    1.40
   3   2  -8    7.60   20.40
  -3  -2   8    2.50    0.90
  -3  -2   8    3.40    0.90
  -3  -2   8   -7.10   25.20
  -3  -2   8    3.00    1.00
   2   2  -8    9.20    1.50
   2   2  -8    8.20   23.00
  -2  -2   8   10.40    1.10
  -2  -2   8  -36.20   20.80
  -2  -2   8    7.40    1.00
  -2  -2   8    8.90    1.20
  -2  -2   8    9.30    1.30
   1   2  -8   19.10    1.10
   1   2  -8   19.50    1.90
   1   2  -8   19.30   19.50
  -1  -2   8   20.30    1.40
  -1  -2   8   17.40    1.10
  -1  -2   8   19.60    1.50
  -1  -2   8   53.99   18.90
  -1  -2   8   20.80    1.50
   0   2  -8   41.80   15.40
   0   2  -8   51.69    2.60
   0   2  -8   49.40    2.00
   0  -2   8   51.29    2.20
   0  -2   8   38.20   16.90
   0  -2   8   51.69    2.10
   0  -2   8   50.59    1.80
  -1   2  -8   62.79    2.60
  -1   2  -8   59.29    2.60
  -1   2  -8   27.10   17.30
   1  -2   8   60.79    2.50
   1  -2   8   61.09    2.30
   1  -2   8   57.79    2.00
   1  -2   8   70.69   16.80
  -2   2  -8   37.20   17.20
  -2   2  -8   58.29    2.40
  -2   2  -8   58.29    2.70
   2  -2   8   57.39    2.30
   2  -2   8   39.80   14.50
   2  -2   8   56.29    2.40
   2  -2   8   58.89    2.10
  -3   2  -8   46.80    2.20
  -3   2  -8   49.40    2.60
   3  -2   8   51.69    2.40
   3  -2   8   46.90    1.90
   3  -2   8   49.70    2.30
  -4   2  -8   17.30    1.60
  -4   2  -8   15.90    1.90
   4  -2   8   18.90    1.70
   4  -2   8   16.80    1.70
   4  -2   8   18.00    1.40
  -5   2  -8   13.20    1.70
  -5   2  -8    8.20    1.60
   5  -2   8    8.30    1.40
   5  -2   8    9.50    1.40
   5  -2   8    6.40    1.20
  -6   2  -8    4.40    1.30
  -6   2  -8    3.40    1.60
   6  -2   8    2.50    1.40
   6  -2   8    3.90    1.40
   6  -2   8    2.30    1.20
  -7   2  -8    4.20    2.20
  -7   2  -8    4.40    1.60
   7  -2   8    2.50    1.80
   7  -2   8    0.20    1.60
   7  -2   8    1.90    1.50
   5   1  -8   -1.40    1.80
   5   1  -8   -0.80    1.70
  -5  -1   8   -1.50    1.40
  -5  -1   8    0.90    1.40
  -5  -1   8    1.60    1.50
   4   1  -8    4.60    1.60
  -4  -1   8    2.60    1.10
  -4  -1   8    5.10    1.20
  -4  -1   8    4.90    1.20
   3   1  -8    0.70    1.30
   3   1  -8   10.50   18.80
  -3  -1   8    3.30    0.90
  -3  -1   8    2.70    1.10
  -3  -1   8   -2.90   23.10
  -3  -1   8    4.40    0.90
   2   1  -8   24.90    2.40
   2   1  -8   52.79   22.10
  -2  -1   8   26.00    1.80
  -2  -1   8   48.90   19.20
  -2  -1   8   24.00    1.40
  -2  -1   8   26.40    1.50
  -2  -1   8   26.60    1.60
   1   1  -8   50.89    1.80
   1   1  -8   47.60    2.80
   1   1  -8   19.60   14.70
  -1  -1   8   49.99    2.20
  -1  -1   8   49.70    2.10
  -1  -1   8   63.39   16.90
  -1  -1   8   50.69    2.00
  -1  -1   8   49.60    2.00
   0   1  -8  523.85   39.10
   0   1  -8  485.05   11.60
   0   1  -8  498.25   12.40
   0  -1   8  494.25   11.50
   0  -1   8  480.15   32.20
   0  -1   8  486.75   11.80
   0  -1   8  498.85   11.50
  -1   1  -8   59.99   17.50
  -1   1  -8   53.89    2.30
  -1   1  -8   53.69    2.50
   1  -1   8   51.19    2.00
   1  -1   8   52.09    2.20
   1  -1   8   51.49    2.10
   1  -1   8   43.30   15.10
  -2   1  -8   24.50   15.00
  -2   1  -8    5.20    1.00
  -2   1  -8    4.80    0.80
   2  -1   8    4.00    0.70
   2  -1   8   12.10   14.50
   2  -1   8    4.60    0.80
   2  -1   8    4.30    0.80
  -3   1  -8   37.40    1.70
  -3   1  -8   40.60    1.80
  -3   1  -8   39.30    2.30
  -3   1  -8   43.30   14.10
   3  -1   8   40.40    2.00
   3  -1   8   40.20    2.00
   3  -1   8   40.50    1.90
  -4   1  -8    4.70    0.90
   4  -1   8    5.40    1.00
   4  -1   8    5.00    0.90
  -5   1  -8    0.70    0.90
  -5   1  -8    1.80    1.20
   5  -1   8    0.60    0.90
   5  -1   8    1.10    1.00
  -6   1  -8    6.50    1.60
  -6   1  -8    2.30    1.20
   6  -1   8    3.50    1.20
   6  -1   8    3.00    1.40
   6  -1   8    4.00    1.30
  -7   1  -8    0.40    1.50
  -7   1  -8    0.70    1.90
   7  -1   8    3.20    1.60
   7  -1   8    1.70    1.70
   7  -1   8    1.10    1.60
   5   0  -8   -2.40    1.80
   5   0  -8   -0.40    1.90
  -5   0   8    0.60    1.40
  -5   0   8    0.40    1.40
  -5   0   8   -0.80    1.40
   4   0  -8   -0.10    1.50
  -4   0   8    4.80    1.20
  -4   0   8    3.70    1.10
   3   0  -8   18.60   23.90
  -3   0   8   21.40   16.20
   2   0  -8   29.70    1.20
   2   0  -8   34.90   21.30
   2   0  -8   29.40    2.40
  -2   0   8   20.50   18.70
  -2   0   8   30.00    1.40
  -2   0   8   28.50    1.60
  -2   0   8   27.50    1.70
  -2   0   8   28.30    1.80
   1   0  -8    4.20   13.50
   1   0  -8    8.10    0.80
   1   0  -8    7.40    1.40
  -1   0   8   -4.30   16.40
  -1   0   8    7.00    1.00
  -1   0   8    6.60    0.90
  -1   0   8    7.00    1.00
   0   0  -8  133.09   23.00
   0   0  -8  163.38    4.60
   0   0  -8  171.28    5.30
   0   0   8  167.88   19.20
   0   0   8  166.38    4.70
   0   0   8  165.98    4.80
   0   0   8  165.38    4.40
  -1   0  -8   94.29    3.30
  -1   0  -8   94.99   19.10
  -1   0  -8   93.09    3.40
   1   0   8   92.89    3.00
   1   0   8   91.69    3.20
   1   0   8   93.09    2.90
   1   0   8  108.89   16.70
  -2   0  -8   37.60   16.70
  -2   0  -8   25.80    1.70
  -2   0  -8   28.00    1.80
   2   0   8   11.10   14.10
   2   0   8   26.00    1.60
   2   0   8   29.30    1.50
   2   0   8   25.50    1.50
  -3   0  -8   38.60   17.10
  -3   0  -8   55.19    2.00
  -3   0  -8   55.69    2.70
  -3   0  -8   55.99    2.10
   3   0   8   54.89    2.30
   3   0   8   55.69    2.40
   3   0   8   54.69    2.20
   3   0   8   44.90   15.10
  -4   0  -8    3.60    0.70
  -4   0  -8    5.40    1.30
   4   0   8    5.20    1.00
   4   0   8    3.60    0.80
   4   0   8    4.40    0.90
  -5   0  -8   -0.70    1.40
  -5   0  -8    1.70    1.20
   5   0   8   -0.50    0.90
   5   0   8   -1.80    0.90
  -6   0  -8   -0.70    1.40
  -6   0  -8    2.70    1.10
   6   0   8   -0.20    1.10
   6   0   8    1.30    1.30
   6   0   8    1.90    1.20
  -7   0  -8    1.70    1.40
  -7   0  -8    3.10    1.90
   7   0   8   -0.90    1.80
   7   0   8   -1.60    1.50
   7   0   8    0.20    1.50
   5  -1  -8   -0.20    1.90
  -5   1   8   -1.20    1.40
  -5   1   8    1.20    1.50
   4  -1  -8   18.10    2.80
  -4   1   8   12.10    1.90
  -4   1   8   12.30    1.80
  -4   1   8   12.60    1.90
   3  -1  -8    7.50    1.70
  -3   1   8  -13.90   16.10
  -3   1   8    7.40    1.30
  -3   1   8    7.90    1.30
   2  -1  -8   14.70   20.00
   2  -1  -8   10.30    1.60
  -2   1   8    7.80    1.20
  -2   1   8    8.20    1.20
  -2   1   8   30.70   17.90
  -2   1   8    9.00    1.10
   1  -1  -8  174.18   30.60
   1  -1  -8  112.59    4.30
  -1   1   8  110.09   17.50
  -1   1   8  106.19    3.10
  -1   1   8  109.39    3.70
  -1   1   8  111.99    3.70
   0  -1  -8  149.49    4.30
   0  -1  -8  176.28   28.20
   0  -1  -8  147.69    5.00
   0   1   8  156.28   23.80
   0   1   8  151.18    3.90
   0   1   8  150.78    4.40
   0   1   8  154.48    4.50
  -1  -1  -8    1.90    0.60
  -1  -1  -8   -7.00   11.30
  -1  -1  -8    1.30    0.80
   1   1   8    2.50    0.60
   1   1   8    2.80    0.70
   1   1   8    2.80    0.50
   1   1   8    9.10   15.30
  -2  -1  -8   10.90    1.40
  -2  -1  -8    0.00   16.00
  -2  -1  -8   13.70    1.30
   2   1   8   14.30   10.50
   2   1   8    9.70    1.10
   2   1   8   11.40    1.20
   2   1   8   12.90    1.00
  -3  -1  -8   17.30   18.10
  -3  -1  -8   28.10    1.30
  -3  -1  -8   28.30    1.50
  -3  -1  -8   26.20    2.10
   3   1   8   14.20   15.30
   3   1   8   27.20    1.70
   3   1   8   27.30    1.60
   3   1   8   27.20    1.50
  -4  -1  -8   39.20    2.60
  -4  -1  -8   40.70    1.90
   4   1   8   39.30    2.00
   4   1   8   39.40    2.20
   4   1   8   43.00    2.10
  -5  -1  -8   -0.70    1.20
  -5  -1  -8   -0.30    0.70
   5   1   8   -0.70    0.90
   5   1   8    0.40    0.90
   5   1   8    0.00    0.90
  -6  -1  -8    5.70    1.70
  -6  -1  -8    4.50    1.10
   6   1   8    3.90    1.20
   6   1   8    4.00    1.40
  -7  -1  -8   -1.90    1.80
  -7  -1  -8    0.10    1.30
   7   1   8    2.30    1.50
   7   1   8   -2.90    1.60
   5  -2  -8    7.50    2.20
  -5   2   8    5.10    1.80
  -5   2   8    3.60    1.60
   4  -2  -8    4.60    1.70
  -4   2   8    3.90    1.50
  -4   2   8    4.00    1.30
   3  -2  -8    2.30    1.40
  -3   2   8    1.40    0.80
  -3   2   8    1.80    0.90
   2  -2  -8   11.00   19.50
  -2   2   8   17.80   14.60
   1  -2  -8   24.40   18.60
   1  -2  -8   26.00    2.10
   1  -2  -8   21.10    1.30
  -1   2   8   22.80    1.20
  -1   2   8   26.90    1.60
  -1   2   8   12.70   17.00
  -1   2   8   20.00    1.60
   0  -2  -8  493.85   11.70
   0  -2  -8  510.85   12.60
   0  -2  -8  542.55   40.10
   0   2   8  499.15   35.70
   0   2   8  504.55   12.00
   0   2   8  500.85   11.10
   0   2   8  507.45   11.90
   0   2   8  459.75   11.20
  -1  -2  -8   85.49    3.10
  -1  -2  -8   70.09   18.60
  -1  -2  -8   89.69    3.40
   1   2   8   53.29   15.00
   1   2   8   90.59    2.50
   1   2   8   87.89    3.10
   1   2   8   88.69    3.00
  -2  -2  -8    6.70    1.00
  -2  -2  -8   -2.00   16.20
  -2  -2  -8    5.30    1.00
   2   2   8   18.20   10.60
   2   2   8    8.00    1.10
   2   2   8    8.00    1.10
   2   2   8    6.50    0.80
  -3  -2  -8  -22.50   17.10
   3   2   8   11.00   16.10
  -4  -2  -8    0.20    1.10
  -4  -2  -8    0.80    0.60
   4   2   8    2.00    0.70
   4   2   8   -1.00    0.70
   4   2   8    0.90    0.90
  -5  -2  -8   -0.60    1.20
  -5  -2  -8   -0.80    0.70
   5   2   8   -2.10    0.90
  -6  -2  -8   -0.10    1.50
  -6  -2  -8    1.10    1.00
   6   2   8   -2.50    1.10
   6   2   8    0.90    1.20
  -7  -2  -8    2.50    2.00
  -7  -2  -8    1.10    1.30
   7   2   8    0.40    1.50
   7   2   8   -2.60    1.60
   5  -3  -8    2.00    2.30
  -5   3   8   -1.30    1.70
  -5   3   8    3.70    2.00
   4  -3  -8    3.30    1.70
  -4   3   8    5.40    1.60
  -4   3   8    1.70    1.20
   3  -3  -8    2.40    1.30
  -3   3   8    0.80    1.10
  -3   3   8   -2.10    0.90
   2  -3  -8   48.20   19.30
  -2   3   8   50.49    2.50
  -2   3   8   50.19    2.60
  -2   3   8   35.80   20.60
   1  -3  -8  -21.80   16.80
  -1   3   8   -4.30   17.20
   0  -3  -8   11.20    1.80
   0  -3  -8   27.90   17.00
   0  -3  -8   10.60    1.10
   0   3   8   13.60    1.30
   0   3   8    7.40   16.10
   0   3   8   10.70    1.30
   0   3   8    9.90    0.80
  -1  -3  -8   21.50    1.80
  -1  -3  -8   20.30    1.50
  -1  -3  -8  -11.10   17.30
   1   3   8   21.30    1.50
   1   3   8   36.60   11.50
   1   3   8   20.20    1.30
   1   3   8   19.00    1.00
  -2  -3  -8   26.90   18.70
   2   3   8   30.90   15.70
  -3  -3  -8   14.00    1.80
  -3  -3  -8   12.50    0.90
  -3  -3  -8   -2.40   14.70
  -3  -3  -8   10.30    1.40
   3   3   8   10.90    1.40
   3   3   8   18.20   17.50
   3   3   8   11.20    1.10
   3   3   8   13.80    1.20
  -4  -3  -8    1.40    1.30
  -4  -3  -8    2.30    0.60
   4   3   8    2.30    0.70
   4   3   8    1.30    0.90
   4   3   8    1.50    0.80
  -5  -3  -8   -0.60    0.70
  -5  -3  -8   -1.50    1.40
   5   3   8   -0.70    0.90
   5   3   8   -0.80    1.00
  -6  -3  -8   -1.00    1.60
  -6  -3  -8    0.10    1.00
   6   3   8    1.60    1.30
   6   3   8   -0.80    1.10
  -7  -3  -8    0.30    2.00
  -7  -3  -8    0.10    1.30
   7   3   8    1.60    1.50
   7   3   8    4.00    1.70
   5  -4  -8    8.80    2.60
  -5   4   8    4.80    2.30
  -5   4   8    3.10    1.70
   4  -4  -8   15.90    2.50
  -4   4   8   13.90    2.10
  -4   4   8   19.10    2.40
   3  -4  -8   -1.00    1.60
  -3   4   8    2.00    1.30
  -3   4   8    2.90    1.10
   2  -4  -8    1.60    1.30
  -2   4   8    2.70    0.90
  -2   4   8    1.40    1.00
   1  -4  -8   26.70    1.40
   1  -4  -8   27.60    2.60
   1  -4  -8   26.80   18.70
  -1   4   8   24.80    1.90
  -1   4   8   25.80    1.70
  -1   4   8   29.50   18.70
   0  -4  -8  117.69    3.60
   0  -4  -8   92.69   22.00
   0  -4  -8  126.59    4.50
   0   4   8  116.99    4.10
   0   4   8  122.49    3.80
   0   4   8  156.38   26.50
  -1  -4  -8   51.89   16.60
  -1  -4  -8   62.89    2.90
  -1  -4  -8   60.49    2.50
   1   4   8   59.29    2.60
   1   4   8   55.89    1.70
   1   4   8   63.79    2.40
  -2  -4  -8    3.40    1.00
  -2  -4  -8    4.50    1.10
  -2  -4  -8    1.70   13.90
   2   4   8   -2.80   12.70
   2   4   8    4.60    0.70
   2   4   8    3.50    0.50
   2   4   8    2.90    0.80
  -3  -4  -8    2.40   16.00
  -3  -4  -8    6.90    1.40
  -3  -4  -8    8.50    1.10
  -3  -4  -8    8.70    0.80
   3   4   8    8.10    1.10
   3   4   8    1.70   14.10
   3   4   8    8.50    1.00
  -4  -4  -8   11.70    1.90
  -4  -4  -8   10.40    1.10
   4   4   8   10.60    1.40
   4   4   8   12.60    1.60
  -5  -4  -8    2.40    0.80
  -5  -4  -8    3.00    1.60
   5   4   8   -0.40    1.00
   5   4   8    0.10    1.10
  -6  -4  -8    1.90    1.80
  -6  -4  -8    1.80    1.00
   6   4   8    0.60    1.20
   6   4   8    2.70    1.40
  -7  -4  -8   -0.10    1.30
  -7  -4  -8    2.40    2.20
   7   4   8    4.30    1.60
   7   4   8    4.50    1.80
   5  -5  -8   -1.00    2.40
  -5   5   8    1.10    1.80
  -5   5   8    4.30    2.40
   4  -5  -8    1.80    2.10
  -4   5   8   -0.20    1.50
  -4   5   8    1.50    1.80
   3  -5  -8    0.10    1.60
  -3   5   8    0.20    1.40
  -3   5   8   -0.20    1.20
   2  -5  -8    1.70    1.40
  -2   5   8    1.80    1.20
  -2   5   8    0.70    0.90
   1  -5  -8   19.20    3.00
   1  -5  -8   20.20    1.30
  -1   5   8   21.00    1.90
  -1   5   8   20.30    1.60
   0  -5  -8   42.30   19.40
   0  -5  -8   45.80    2.00
   0  -5  -8   46.50    2.80
   0   5   8   46.30   18.90
   0   5   8   44.80    2.10
   0   5   8   40.70    3.50
  -1  -5  -8   48.40    2.80
  -1  -5  -8   42.00   20.90
  -1  -5  -8   54.29    2.40
   1   5   8   31.40   13.90
   1   5   8   48.50    2.10
  -2  -5  -8   46.50    2.60
  -2  -5  -8   29.70   21.70
  -2  -5  -8   48.50    2.60
   2   5   8   46.90    2.50
   2   5   8   47.00    2.00
   2   5   8   31.70   14.00
  -3  -5  -8   33.70   23.40
   3   5   8   54.39   21.90
  -4  -5  -8   -0.70    0.60
  -4  -5  -8    0.50    1.40
   4   5   8   -1.50    1.00
   4   5   8   -0.30    0.80
  -5  -5  -8    0.90    1.70
  -5  -5  -8   -0.60    0.90
   5   5   8    1.00    0.90
   5   5   8    0.30    1.20
  -6  -5  -8    3.80    2.10
  -6  -5  -8    1.20    1.10
   6   5   8    0.20    1.40
   6   5   8    0.90    1.30
   4  -6  -8    2.10    2.20
  -4   6   8   -0.30    1.60
  -4   6   8   -0.50    2.00
   3  -6  -8    5.80    2.10
  -3   6   8    5.70    1.50
  -3   6   8    6.10    1.70
   2  -6  -8   10.60    1.90
  -2   6   8    7.90    1.40
  -2   6   8    8.50    1.50
   1  -6  -8    1.20    1.40
  -1   6   8    1.20    0.90
  -1   6   8    2.20    1.10
   0   6   8   -1.10    0.80
   0   6   8    0.20    1.00
  -1  -6  -8   51.89    3.00
  -1  -6  -8   51.09    2.40
   1   6   8   49.30    2.10
   1   6   8   50.79    2.60
  -2  -6  -8   19.90   26.20
   2   6   8   10.40   21.20
  -3  -6  -8   52.89   28.90
   3   6   8   25.20   17.50
  -4  -6  -8    2.20    1.60
   4   6   8   -0.90    1.10
   4   6   8   -1.10    0.90
  -5  -6  -8    0.30    1.80
   5   6   8    1.50    1.30
  -6  -6  -8   -4.40    2.10
   6   6   8   -1.00    1.50
   3  -7  -8   -1.70    2.00
  -3   7   8    0.00    1.50
  -3   7   8   -0.30    1.70
   2  -7  -8    0.50    1.80
  -2   7   8   -1.20    1.40
   1  -7  -8    8.40    1.90
  -1   7   8   10.10    1.70
  -1   7   8    9.30    1.30
   0  -7  -8    2.60    1.00
   0  -7  -8    3.60    1.50
   0   7   8    3.90    1.20
   0   7   8    2.80    1.00
  -1  -7  -8   29.50    2.80
  -1  -7  -8   29.30    2.10
   1   7   8   32.40    1.90
   1   7   8   34.30    2.30
  -2  -7  -8   47.60    3.00
  -2  -7  -8   44.10    2.60
   2   7   8   45.60    2.60
  -3  -7  -8    2.40    1.40
  -3  -7  -8    0.10    1.30
   3   7   8    0.00    1.20
  -4  -7  -8    3.00    1.80
   4   7   8   -1.20    1.30
  -5  -7  -8    2.40    2.10
   5   7   8    0.70    1.50
   3  -8  -8    0.80    2.30
  -3   8   8    1.60    2.10
   2  -8  -8    6.00    2.20
  -2   8   8    3.60    1.80
   1  -8  -8   11.50    2.30
  -1   8   8    7.70    1.70
   0  -8  -8    3.00    1.80
   0  -8  -8   -0.70    1.20
   0   8   8    2.00    1.30
  -1  -8  -8    3.00    1.60
  -1  -8  -8    1.30    1.30
   1   8   8    3.10    1.40
  -2  -8  -8   10.80    1.90
   2   8   8   12.90    1.80
  -3  -8  -8    0.50    1.60
  -3  -8  -8    3.20    1.60
   3   8   8    5.60    1.40
  -4  -8  -8    1.00    1.90
   4   8   8   -0.40    1.50
  -5  -8  -8    0.10    2.40
   5   8   8   -1.40    1.60
   2  -9  -8   -1.90    2.70
  -2   9   8    5.60    2.20
   1  -9  -8    9.40    2.70
  -1   9   8    6.10    2.00
   0  -9  -8    1.20    2.00
   0   9   8   -0.40    1.50
  -1  -9  -8   45.50    3.50
  -1  -9  -8   39.30    2.90
   1   9   8   37.60    2.90
  -2  -9  -8    3.10    1.60
  -2  -9  -8    3.40    1.80
   2   9   8    3.10    1.60
  -3  -9  -8    4.00    1.90
  -3  -9  -8    3.20    1.90
   3   9   8    3.10    1.70
   0   8  -9    1.20    1.80
   0  -8   9    0.60    1.80
   0  -8   9    2.60    1.50
   0  -8   9    2.90    1.30
  -1   8  -9    2.10    1.70
  -1   8  -9    4.40    1.60
   1  -8   9   -1.70    1.20
   1  -8   9    0.20    1.40
   1  -8   9    5.40    2.00
  -2   8  -9   14.40    2.40
  -2   8  -9    8.90    1.90
   2  -8   9   14.00    2.00
   2  -8   9   23.10    3.60
   2  -8   9   16.30    3.10
   2   7  -9    2.70    2.00
  -2  -7   9   -1.40    1.40
  -2  -7   9   -2.40    1.30
  -2  -7   9    1.50    1.70
   1   7  -9   -2.00    1.60
  -1  -7   9    1.40    1.10
  -1  -7   9    1.20    1.60
  -1  -7   9    1.80    1.30
   0   7  -9    1.80    1.50
   0  -7   9    0.10    1.20
   0  -7   9    1.70    1.00
   0  -7   9    3.00    1.70
  -1   7  -9   18.60    2.40
  -1   7  -9   17.70    2.60
   1  -7   9   21.40    2.20
   1  -7   9   12.80    1.80
   1  -7   9   14.40    2.20
  -2   7  -9    0.80    1.40
  -2   7  -9    0.00    1.40
   2  -7   9    0.70    1.40
   2  -7   9   -0.10    1.00
   2  -7   9   -0.90    1.70
  -3   7  -9   -0.70    1.60
   3  -7   9   -0.90    1.90
   3  -7   9   -0.50    1.20
   3  -7   9    4.10    1.50
   3   6  -9   -0.90    1.80
  -3  -6   9   -0.80    1.50
  -3  -6   9   -1.00    1.40
   2   6  -9    2.40    1.60
  -2  -6   9    1.10    1.10
  -2  -6   9    2.00    1.30
  -2  -6   9    3.10    1.40
   1   6  -9    0.60    1.50
  -1  -6   9    1.30    1.00
  -1  -6   9    1.40    1.20
  -1  -6   9   -0.20    1.40
   0   6  -9   -0.90    1.30
   0   6  -9    1.10    1.00
   0  -6   9   -1.20    1.00
   0  -6   9    0.00    1.40
   0  -6   9    2.80    1.00
  -1   6  -9   28.40    2.30
  -1   6  -9   27.80    2.50
   1  -6   9   28.50    2.10
   1  -6   9   30.20    2.20
   1  -6   9   30.10    2.70
  -2   6  -9    3.10    1.30
  -2   6  -9    2.70    1.30
   2  -6   9    4.10    1.20
   2  -6   9    4.40    1.60
   2  -6   9    4.20    1.10
  -3   6  -9   -0.30    1.40
   3  -6   9    2.40    1.20
   3  -6   9    0.00    1.70
   3  -6   9    1.70    1.20
   4  -6   9   -2.20    1.30
   4  -6   9   -3.00    2.00
   4  -6   9   -2.00    1.40
   3   5  -9    1.50    1.80
  -3  -5   9   -1.20    1.40
  -3  -5   9    0.50    1.30
   2   5  -9   -0.70    1.50
  -2  -5   9    1.00    1.10
  -2  -5   9   -0.40    1.00
  -2  -5   9    1.60    1.10
   1   5  -9   -1.50    1.30
  -1  -5   9   -1.90    1.00
  -1  -5   9    0.10    0.90
   0   5  -9   14.30    1.80
   0   5  -9   11.90    1.50
   0  -5   9   18.00    2.10
   0  -5   9   17.80    1.80
   0  -5   9   14.10    1.70
  -1   5  -9    1.30    1.10
  -1   5  -9    0.00    0.90
   1  -5   9    0.10    1.00
   1  -5   9    0.90    1.30
   1  -5   9   -0.20    1.00
  -2   5  -9   15.40    1.80
  -2   5  -9   14.10    1.90
   2  -5   9   14.00    1.60
   2  -5   9   12.30    1.70
   2  -5   9   13.60    2.10
  -3   5  -9    3.60    1.40
   3  -5   9    5.90    1.30
   3  -5   9    4.10    1.20
  -4   5  -9    3.50    1.40
   4  -5   9    3.70    1.30
   4  -5   9    4.30    1.40
  -5   5  -9    1.00    1.60
   5  -5   9    0.30    1.50
   5  -5   9    2.80    1.50
   4   4  -9    9.60    2.20
  -4  -4   9    8.00    1.80
  -4  -4   9    8.20    1.80
   3   4  -9    2.90    1.60
  -3  -4   9    1.90    1.30
  -3  -4   9    2.50    1.30
   2   4  -9   -0.70    1.30
  -2  -4   9    0.70    1.00
  -2  -4   9    0.90    1.10
  -2  -4   9   -1.00    1.00
   1   4  -9    4.50    0.80
   1   4  -9    4.60    1.30
  -1  -4   9    6.00    1.20
  -1  -4   9    7.10    1.20
  -1  -4   9    6.00    1.30
   0   4  -9    0.40    0.80
   0   4  -9    0.00    1.20
   0  -4   9    1.00    1.10
   0  -4   9    0.90    0.90
   0  -4   9    0.20    0.80
  -1   4  -9   46.20    2.60
   1  -4   9   45.10    2.40
   1  -4   9   47.40    2.40
  -2   4  -9    4.80    1.10
  -2   4  -9    4.60    1.20
   2  -4   9    5.90    1.10
   2  -4   9    5.30    1.00
   2  -4   9    5.20    0.70
  -3   4  -9    1.50    1.20
   3  -4   9    2.90    1.10
   3  -4   9    3.40    0.70
   3  -4   9    2.70    1.00
  -4   4  -9   12.30    1.80
   4  -4   9   12.10    1.70
   4  -4   9    9.50    1.40
   4  -4   9    8.00    1.40
  -5   4  -9   -0.20    1.50
   5  -4   9   -0.10    1.10
   5  -4   9   -0.30    1.30
   5  -4   9   -0.30    1.30
  -6   4  -9    1.70    1.40
  -6   4  -9    4.80    2.00
   6  -4   9    4.10    1.40
   6  -4   9    2.60    1.70
   6  -4   9    3.70    1.70
   4   3  -9    4.50    2.00
  -4  -3   9    2.90    1.40
  -4  -3   9    2.50    1.50
   3   3  -9    1.20    1.60
  -3  -3   9   -1.20    1.10
  -3  -3   9    0.20    1.20
   2   3  -9    5.20    1.50
  -2  -3   9    5.00    1.10
  -2  -3   9    4.50    1.20
  -2  -3   9    3.00    1.00
   1   3  -9   -0.70    1.10
   1   3  -9    2.00    0.70
  -1  -3   9    1.20    1.00
  -1  -3   9    0.10    0.70
  -1  -3   9    0.30    0.90
  -1  -3   9    1.20    0.80
   0   3  -9    1.60    0.70
   0   3  -9    2.40    1.10
   0  -3   9    1.50    0.60
   0  -3   9    2.10    0.90
   0  -3   9    1.00    1.00
   0  -3   9    1.70    0.80
  -1   3  -9   17.10    1.60
  -1   3  -9   18.90    1.80
   1  -3   9   17.80    1.10
   1  -3   9   16.50    1.60
   1  -3   9   19.50    1.70
  -2   3  -9    6.90    1.10
   2  -3   9    9.10    1.00
   2  -3   9   11.00    1.50
  -3   3  -9    6.40    1.30
  -3   3  -9    6.90    1.60
   3  -3   9    6.10    1.10
   3  -3   9    5.10    0.70
   3  -3   9    4.70    1.10
  -4   3  -9    0.20    1.20
   4  -3   9   -0.30    1.10
   4  -3   9   -0.30    0.80
   4  -3   9   -0.10    1.00
  -5   3  -9    5.70    1.20
  -5   3  -9    4.10    1.60
   5  -3   9    4.20    1.30
   5  -3   9    5.60    1.10
   5  -3   9    2.80    1.20
  -6   3  -9    2.00    1.40
  -6   3  -9    3.60    1.90
   6  -3   9    4.40    1.50
   6  -3   9    0.80    1.20
   6  -3   9    0.10    1.60
  -5  -2   9    1.10    1.70
   4   2  -9    0.60    1.70
  -4  -2   9    1.70    1.30
  -4  -2   9    3.50    1.50
   3   2  -9    0.80    1.50
  -3  -2   9    0.90    1.00
  -3  -2   9    2.90    1.10
  -3  -2   9   -0.70    1.10
   2   2  -9    2.00    1.30
  -2  -2   9   -0.20    0.90
  -2  -2   9    0.30    0.90
  -2  -2   9    1.50    0.80
   1   2  -9    0.60    0.60
   1   2  -9    0.00    1.10
  -1  -2   9    0.60    0.80
  -1  -2   9    0.70    0.70
  -1  -2   9   -0.40    0.90
  -1  -2   9   -0.10    0.70
   0   2  -9   -0.40    0.90
   0   2  -9   -0.90    0.60
   0  -2   9    0.60    0.60
   0  -2   9   -0.50    0.60
   0  -2   9    0.70    0.80
  -1   2  -9    3.00    0.80
  -1   2  -9    4.60    1.10
   1  -2   9    4.70    0.80
   1  -2   9    2.80    0.60
  -2   2  -9    6.40    1.20
  -2   2  -9    7.90    1.20
   2  -2   9    8.60    0.90
   2  -2   9    7.50    1.00
   2  -2   9    9.50    1.30
  -3   2  -9    3.40    0.90
  -3   2  -9    4.40    1.20
   3  -2   9    3.20    0.90
   3  -2   9    3.30    0.90
   3  -2   9    4.00    0.70
  -4   2  -9    1.90    1.20
   4  -2   9    2.40    1.00
   4  -2   9    1.70    1.00
   4  -2   9    1.10    0.80
  -5   2  -9    2.50    1.50
  -5   2  -9    2.60    1.10
   5  -2   9    1.10    1.00
   5  -2   9    2.70    1.30
   5  -2   9    3.10    1.20
  -6   2  -9    8.20    1.40
  -6   2  -9    6.40    2.00
   6  -2   9    8.10    1.30
   6  -2   9    7.20    1.60
   6  -2   9    8.60    1.70
   5   1  -9    2.20    2.20
   5   1  -9   -1.60    2.10
  -5  -1   9    1.90    1.80
  -5  -1   9    0.20    1.70
   4   1  -9    2.00    1.80
  -4  -1   9    3.40    1.40
  -4  -1   9    0.50    1.30
  -4  -1   9    2.20    1.40
   3   1  -9  -28.40   33.40
   3   1  -9    2.00    1.60
  -3  -1   9   -0.10    1.10
  -3  -1   9    1.70    1.10
  -3  -1   9    0.10    1.00
   2   1  -9  -25.00   25.80
   2   1  -9    1.20    1.30
  -2  -1   9    0.80    0.80
  -2  -1   9    0.40    0.90
  -2  -1   9   -0.10    0.80
  -2  -1   9   17.60   18.40
   1   1  -9   24.20    1.30
   1   1  -9  -10.70   23.10
   1   1  -9   28.10    2.30
  -1  -1   9   27.00    1.60
  -1  -1   9   25.10    1.50
  -1  -1   9   34.80   21.50
  -1  -1   9   25.90    1.80
  -1  -1   9   24.20    1.80
   0   1  -9   13.30    1.10
   0   1  -9    9.40    1.40
   0  -1   9   41.70   20.90
   0  -1   9   12.60    1.20
   0  -1   9   11.60    1.50
   0  -1   9   10.40    1.10
  -1   1  -9   -0.50    0.70
  -1   1  -9    0.60    0.90
   1  -1   9    0.10    0.70
   1  -1   9    0.00    0.60
   1  -1   9   -0.10    0.50
  -2   1  -9   27.60    2.00
  -2   1  -9   27.70    1.90
   2  -1   9   27.90    1.50
   2  -1   9   26.30    2.50
   2  -1   9   28.80    1.70
  -3   1  -9   59.59    3.80
  -3   1  -9   65.39    2.50
   3  -1   9   60.09    2.70
   3  -1   9   63.69    2.60
   3  -1   9   63.19    2.40
  -4   1  -9    0.00    1.10
  -4   1  -9    0.30    0.80
   4  -1   9    1.30    0.90
   4  -1   9    1.00    0.80
   4  -1   9    0.10    1.40
  -5   1  -9    1.60    1.40
  -5   1  -9   -1.40    0.90
   5  -1   9    2.00    1.20
   5  -1   9    2.40    1.00
   5  -1   9    1.00    1.00
  -6   1  -9   -1.10    1.20
  -6   1  -9   -0.70    1.70
   6  -1   9    0.10    1.30
   6  -1   9    1.30    1.40
   6  -1   9   -2.20    1.30
   5   0  -9    0.80    2.20
   5   0  -9   -3.10    2.30
  -5   0   9    0.30    1.70
  -5   0   9    4.00    1.80
   4   0  -9   -0.20    1.80
  -4   0   9    1.80    1.30
  -4   0   9    3.00    1.30
  -4   0   9    3.40    1.40
   3   0  -9    3.30    1.50
  -3   0   9    1.90    1.00
  -3   0   9    0.80    1.10
   2   0  -9  -11.80   25.00
  -2   0   9   57.79   24.70
   1   0  -9   36.40   18.00
   1   0  -9    1.20    0.60
   1   0  -9    1.40    1.30
  -1   0   9    0.30    0.70
  -1   0   9    1.70    0.70
  -1   0   9    3.10    0.70
  -1   0   9  -10.20   21.20
   0   0  -9    1.70    0.60
   0   0  -9    1.20    1.00
   0   0   9    1.00    0.70
   0   0   9    3.90   19.70
   0   0   9    0.70    0.60
   0   0   9    1.10    0.60
  -1   0  -9   17.20    1.40
  -1   0  -9    9.10   14.80
  -1   0  -9   16.30    1.70
   1   0   9   16.30    1.20
   1   0   9   10.30   20.20
   1   0   9   14.00    1.20
   1   0   9   14.40    1.50
  -2   0  -9   12.50    1.50
  -2   0  -9   -1.90   24.40
  -2   0  -9   12.30    1.60
   2   0   9   12.00    1.20
   2   0   9    8.90    1.10
   2   0   9   11.00    1.30
  -3   0  -9   28.70    2.20
  -3   0  -9   29.10    1.70
   3   0   9   32.20    1.80
   3   0   9   29.90    1.80
   3   0   9   28.50    2.80
  -4   0  -9   12.70    1.30
  -4   0  -9   11.40    1.70
   4   0   9   11.90    1.50
   4   0   9   10.10    1.50
   4   0   9   12.80    1.60
  -5   0  -9   -1.50    1.30
  -5   0  -9   -0.10    0.80
   5   0   9    0.20    1.10
   5   0   9    1.60    1.20
   5   0   9    0.20    1.00
  -6   0  -9   -0.10    1.50
  -6   0  -9   -0.50    1.00
   6   0   9   -1.10    1.30
   6   0   9   -0.90    1.30
   6   0   9    0.50    1.30
  -7   0  -9   -0.10    1.40
  -7   0  -9    0.20    2.10
   7   0   9    0.40    1.80
   7   0   9   -2.90    1.50
   7   0   9   -1.00    1.70
   5  -1  -9   10.70    2.50
   5  -1  -9    4.80    2.50
  -5   1   9    6.20    1.70
  -5   1   9    4.20    1.90
   4  -1  -9    2.70    1.90
  -4   1   9    0.80    1.40
  -4   1   9   -0.10    1.40
   3  -1  -9   -1.60    1.50
  -3   1   9    0.10    1.00
  -3   1   9    0.20    1.10
  -3   1   9    0.70    1.00
   2  -1  -9    0.80   24.90
   2  -1  -9    0.00    1.30
  -2   1   9    0.90    0.90
  -2   1   9  -44.80   22.70
  -2   1   9    1.00    0.90
  -2   1   9    0.30    0.70
   1  -1  -9    0.40   15.60
   1  -1  -9    5.40    0.70
   1  -1  -9    4.00    1.30
  -1   1   9   -1.10   15.60
  -1   1   9    5.30    0.70
  -1   1   9    6.30    1.00
   0  -1  -9   18.90    1.90
   0  -1  -9   14.60    1.20
   0  -1  -9   23.20   15.70
   0   1   9  -10.90   19.00
   0   1   9   16.20    1.10
   0   1   9   17.10    1.50
   0   1   9   14.70    1.50
  -1  -1  -9   32.80   19.40
  -1  -1  -9   20.10    1.80
  -1  -1  -9   21.30    1.50
   1   1   9   18.00    1.60
   1   1   9   -1.60   14.50
   1   1   9   18.20    1.20
   1   1   9   18.70    1.40
  -2  -1  -9   32.60    2.00
  -2  -1  -9   30.00    2.00
   2   1   9   30.40    1.60
   2   1   9   28.30    1.80
   2   1   9   30.60    1.80
   2   1   9   33.80   20.70
  -3  -1  -9   40.30    2.10
  -3  -1  -9   42.00    2.70
   3   1   9   44.80    2.00
   3   1   9   40.90    2.10
   3   1   9   42.30    2.20
  -4  -1  -9   -0.50    0.60
  -4  -1  -9   -0.30    1.20
   4   1   9    1.80    0.90
   4   1   9    0.70    0.90
   4   1   9   -0.30    0.80
  -5  -1  -9    0.20    0.80
  -5  -1  -9    0.80    1.50
   5   1   9   -1.30    0.90
   5   1   9    1.20    1.10
   5   1   9    0.40    1.10
  -6  -1  -9    2.20    1.10
  -6  -1  -9   -2.00    1.70
   6   1   9   -1.20    1.30
   6   1   9    0.30    1.30
   6   1   9   -2.50    1.20
  -7  -1  -9    0.80    2.10
   7   1   9    3.10    1.80
   7   1   9    1.70    1.70
   7   1   9    3.10    1.90
   5  -2  -9    0.20    2.30
  -5   2   9    3.10    1.80
  -5   2   9   -0.20    1.80
   4  -2  -9    0.30    1.80
  -4   2   9   -0.60    1.30
  -4   2   9   -3.00    1.40
   3  -2  -9   -0.70    1.60
  -3   2   9   -0.50    1.10
  -3   2   9    0.30    1.20
   2  -2  -9   -0.30    1.30
  -2   2   9   -0.50    0.90
  -2   2   9    1.70    1.00
   1  -2  -9  -21.50   22.00
   1  -2  -9    1.80    1.10
  -1   2   9   -5.30   20.60
   0  -2  -9   10.40    1.50
   0  -2  -9  -16.50   21.00
   0  -2  -9   10.90    1.20
   0   2   9   38.50   19.00
   0   2   9   10.60    1.00
   0   2   9   11.80    1.50
   0   2   9   12.30    1.40
  -1  -2  -9   15.90   15.30
  -1  -2  -9   21.20    1.60
  -1  -2  -9   25.90    2.00
   1   2   9   21.80    1.60
   1   2   9   22.50    1.20
   1   2   9   23.40    1.60
   1   2   9    8.80   18.90
  -2  -2  -9   -1.20   20.60
  -2  -2  -9   22.20    1.80
  -2  -2  -9   21.70    1.80
   2   2   9   22.40    1.70
   2   2   9    1.10   19.10
   2   2   9   21.10    1.30
   2   2   9   21.70    1.60
  -3  -2  -9   54.09    1.90
  -3  -2  -9   53.79    2.40
  -3  -2  -9   60.29    3.10
   3   2   9   55.49    2.50
   3   2   9   55.29    2.20
  -4  -2  -9    9.40    1.00
  -4  -2  -9    7.80    1.70
   4   2   9   10.20    1.40
   4   2   9    9.30    1.40
   4   2   9   11.70    1.40
  -5  -2  -9    1.80    1.50
   5   2   9    0.60    1.00
   5   2   9   -0.60    1.00
  -6  -2  -9    1.70    1.80
  -6  -2  -9    1.10    1.00
   6   2   9    1.80    1.20
   6   2   9   -0.60    1.30
   6   2   9    1.40    1.40
  -7  -2  -9    4.00    2.80
   4  -3  -9   -1.80    1.90
  -4   3   9    2.90    1.50
  -4   3   9    1.20    1.70
   3  -3  -9    1.20    1.60
  -3   3   9    4.50    1.40
  -3   3   9    1.70    1.20
   2  -3  -9    8.10    1.70
  -2   3   9    8.10    1.30
  -2   3   9   10.60    1.60
   1  -3  -9  -38.70   23.40
  -1   3   9    3.30   16.00
  -1   3   9    1.70    0.90
   0  -3  -9   45.10    2.00
   0  -3  -9   11.70   20.90
   0  -3  -9   45.00    2.80
   0   3   9   45.20    2.30
   0   3   9   19.40   19.80
   0   3   9   45.00    2.40
  -1  -3  -9  -13.70   21.30
   1   3   9   -3.60   18.90
  -2  -3  -9   11.00   22.90
  -2  -3  -9   28.70    2.00
  -2  -3  -9   27.70    2.10
   2   3   9   29.10    1.40
   2   3   9   -1.30   19.40
   2   3   9   32.20    1.70
  -3  -3  -9   19.40    1.10
  -3  -3  -9   18.00    1.80
  -3  -3  -9   19.00    2.10
   3   3   9   18.80    1.70
   3   3   9   17.30    1.40
   3   3   9   20.70    1.60
  -4  -3  -9    8.10    1.60
  -4  -3  -9    7.40    0.80
   4   3   9    7.00    1.80
   4   3   9    9.90    1.50
   4   3   9    7.10    1.10
  -5  -3  -9   -2.60    1.50
  -5  -3  -9   -0.70    0.80
   5   3   9    1.30    1.20
   5   3   9   -0.60    1.00
   5   3   9    0.40    1.10
  -6  -3  -9   -0.10    1.90
  -6  -3  -9    0.30    1.10
   6   3   9   -1.40    1.50
   6   3   9   -1.60    1.20
   4  -4  -9   12.70    2.50
  -4   4   9   12.80    2.00
  -4   4   9   14.80    2.50
   3  -4  -9    9.30    2.20
  -3   4   9   11.70    1.90
  -3   4   9    7.10    1.50
   2  -4  -9    1.90    1.50
  -2   4   9   -1.80    1.00
  -2   4   9    0.30    1.20
   1  -4  -9   -0.60    1.30
  -1   4   9    0.50    1.00
   0  -4  -9   10.70    1.30
   0  -4  -9   11.70    1.80
   0   4   9    1.10   21.20
   0   4   9   12.10    1.70
   0   4   9   11.00    1.40
  -1  -4  -9   55.29    2.50
  -1  -4  -9   61.19    3.10
  -1  -4  -9   69.69   25.50
   1   4   9   27.40   20.30
   1   4   9   61.49    2.50
   1   4   9   60.19    2.80
  -2  -4  -9   10.70    1.50
  -2  -4  -9   11.60    1.60
  -2  -4  -9    4.60   23.50
   2   4   9   11.20    1.30
   2   4   9   11.20    1.50
   2   4   9   25.00   15.90
  -3  -4  -9   49.99    2.70
  -3  -4  -9   56.09    3.30
   3   4   9   60.69    2.40
   3   4   9   55.49    2.70
  -4  -4  -9    0.70    0.70
  -4  -4  -9    1.40    1.50
   4   4   9    0.10    0.90
   4   4   9    0.50    0.80
   4   4   9    1.70    1.10
  -5  -4  -9    2.30    1.70
  -5  -4  -9   -0.50    0.90
   5   4   9   -1.00    1.20
   5   4   9    0.70    1.10
   5   4   9   -0.70    1.20
  -6  -4  -9    1.90    1.20
  -6  -4  -9    0.90    2.10
   6   4   9   -1.60    1.40
   6   4   9    0.50    1.30
   4  -5  -9    5.00    2.40
  -4   5   9    1.10    2.00
  -4   5   9   -0.90    1.90
   3  -5  -9    1.70    2.10
  -3   5   9   -0.40    1.40
  -3   5   9    1.90    1.60
   2  -5  -9    3.70    1.80
  -2   5   9    5.90    1.60
  -2   5   9    5.30    1.20
   1  -5  -9    0.80    1.50
  -1   5   9    0.40    1.10
   0  -5  -9   11.20    1.50
   0  -5  -9   12.30    1.90
   0   5   9   11.00    1.60
   0   5   9   10.40    1.40
  -1  -5  -9   -0.10    1.00
  -1  -5  -9    3.10    1.30
   1   5   9    0.00    0.90
   1   5   9    1.00    0.80
  -2  -5  -9    2.60    1.20
  -2  -5  -9    0.90    1.10
  -2  -5  -9  -16.50   25.30
   2   5   9    0.00    0.80
   2   5   9    3.00    1.10
   2   5   9    1.70   17.90
  -3  -5  -9    5.30    1.30
  -3  -5  -9    8.50    1.50
   3   5   9    8.30    1.10
   3   5   9    9.20    1.40
  -4  -5  -9   15.30    2.30
   4   5   9   16.50    1.70
   4   5   9   15.60    2.00
  -5  -5  -9   -2.00    1.80
   5   5   9    0.90    1.30
   5   5   9   -1.00    1.10
  -6  -5  -9    2.40    2.20
   6   5   9    0.40    1.60
   3  -6  -9   -2.90    2.20
  -3   6   9    0.20    1.90
  -3   6   9    3.20    1.70
   2  -6  -9   -0.40    1.80
  -2   6   9    2.60    1.40
  -2   6   9    1.30    1.50
   1  -6  -9    2.50    1.80
  -1   6   9    0.10    1.20
  -1   6   9    2.30    2.00
   0  -6  -9   26.50    1.90
   0  -6  -9   28.10    3.00
   0   6   9   23.40    2.20
   0   6   9   23.30    1.90
  -1  -6  -9    5.20    1.10
  -1  -6  -9    3.70    1.60
   1   6   9    4.70    1.20
   1   6   9    5.00    1.00
  -2  -6  -9    1.80    1.30
  -2  -6  -9    2.10    1.60
   2   6   9   -0.10    0.90
   2   6   9    0.40    1.20
  -3  -6  -9    2.60    1.30
  -3  -6  -9    2.20    1.40
   3   6   9    0.50    1.20
   3   6   9    0.80    0.90
  -4  -6  -9    0.60    1.80
   4   6   9   -0.50    1.20
  -5  -6  -9   -0.60    2.00
   5   6   9    2.40    1.50
   3  -7  -9    2.90    2.80
   2  -7  -9    1.70    2.20
  -2   7   9    0.90    1.60
  -2   7   9   -1.40    1.70
   1  -7  -9    0.10    1.80
  -1   7   9   -0.30    1.50
  -1   7   9   -0.30    1.30
   0  -7  -9    8.50    2.00
   0   7   9    9.40    1.60
   0   7   9    8.30    1.30
  -1  -7  -9    9.10    1.40
  -1  -7  -9    9.30    1.90
   1   7   9    7.70    1.60
  -2  -7  -9    2.70    1.40
  -2  -7  -9   -1.00    1.60
   2   7   9   -0.30    1.30
  -3  -7  -9    2.50    1.80
  -3  -7  -9    0.80    1.60
   3   7   9    3.40    1.40
  -4  -7  -9   -0.40    1.90
   4   7   9    2.30    1.50
  -5  -7  -9    3.00    2.40
   5   7   9    2.20    1.70
  -2   8   9    3.80    2.50
   1  -8  -9   -1.30    2.00
  -1   8   9    1.70    1.80
   0  -8  -9    4.50    2.10
   0   8   9    6.00    1.80
  -1  -8  -9   -2.00    1.50
  -1  -8  -9    0.00    1.90
   1   8   9    4.00    1.60
  -2  -8  -9    2.70    1.60
  -2  -8  -9    4.70    1.90
   2   8   9    5.00    1.60
  -3  -8  -9   -1.70    1.80
  -3  -8  -9   -0.70    2.10
   3   8   9    1.20    1.60
  -4  -8  -9   -2.50    2.10
   4   8   9    1.50    1.70
  -1  -9  -9   -0.20    2.20
   1   9   9    7.20    1.90
  -2  -9  -9    7.50    2.30
  -2  -9  -9   11.80    2.00
   2   9   9    3.70    1.90
  -1   7 -10    3.30    1.50
  -1   7 -10    2.60    1.80
   1  -7  10    4.20    1.50
   1  -7  10    9.30    2.20
   1  -7  10    3.40    1.30
   1   6 -10    0.00    1.70
  -1  -6  10   -0.80    1.40
  -1  -6  10    1.50    1.70
  -1  -6  10   -2.70    1.30
   0   6 -10   -0.60    1.20
   0   6 -10    3.00    1.70
   0  -6  10    0.60    1.20
   0  -6  10    2.10    1.40
   0  -6  10    0.80    1.70
  -1   6 -10    2.40    1.20
  -1   6 -10    4.60    1.60
   1  -6  10    7.50    1.80
   1  -6  10    5.10    1.40
   1  -6  10    6.20    1.30
  -2   6 -10   -2.20    1.40
   2  -6  10   -1.10    1.20
   2  -6  10    0.30    1.50
   2  -6  10   -0.40    1.70
  -3   6 -10   -1.10    1.70
   3  -6  10    1.30    2.10
   3  -6  10    1.60    1.50
   3  -6  10   -0.70    1.40
   2   5 -10    1.30    1.80
  -2  -5  10    2.70    1.40
  -2  -5  10    1.30    1.40
   1   5 -10    0.50    1.70
  -1  -5  10   -0.90    1.20
  -1  -5  10    1.20    1.50
  -1  -5  10   -0.80    1.10
   0   5 -10   -0.50    1.00
   0   5 -10    3.50    1.60
   0  -5  10    1.80    1.20
   0  -5  10    1.00    1.50
   0  -5  10    0.50    1.20
  -1   5 -10    1.60    1.40
  -1   5 -10    0.20    1.00
   1  -5  10   -1.40    1.10
   1  -5  10    1.30    1.10
   1  -5  10    0.50    1.40
  -2   5 -10    1.90    1.40
  -2   5 -10    2.30    1.30
   2  -5  10    3.10    1.20
   2  -5  10   -1.10    1.60
   2  -5  10    3.60    1.20
  -3   5 -10   17.00    2.70
   3  -5  10   13.00    1.80
   3  -5  10   12.90    1.80
  -4   5 -10    0.10    1.60
   4  -5  10    1.60    1.40
   4  -5  10    1.40    1.40
   3   4 -10    7.80    2.10
  -3  -4  10    6.40    1.70
  -3  -4  10    5.10    1.50
   2   4 -10    1.30    1.70
  -2  -4  10    1.80    1.20
  -2  -4  10    3.00    1.40
   1   4 -10    1.40    0.90
   1   4 -10   -2.60    1.40
  -1  -4  10   -1.80    1.30
  -1  -4  10   -1.90    1.10
  -1  -4  10    0.00    1.00
   0   4 -10   -0.30    0.90
   0   4 -10    0.60    1.30
   0  -4  10    0.10    1.10
   0  -4  10   -0.50    1.30
   0  -4  10   -0.10    1.00
  -1   4 -10   11.00    1.60
   1  -4  10    9.60    1.40
   1  -4  10    9.00    1.70
   1  -4  10   10.60    1.40
  -2   4 -10    4.80    1.30
  -2   4 -10    1.20    1.20
   2  -4  10    3.70    1.10
   2  -4  10    3.20    1.10
  -3   4 -10    2.90    1.40
   3  -4  10    3.70    1.20
   3  -4  10    4.40    1.20
  -4   4 -10    7.20    1.80
   4  -4  10    8.70    1.50
   4  -4  10    9.20    1.60
  -5   4 -10   -1.20    1.70
   5  -4  10    0.00    1.60
   5  -4  10    0.30    1.60
   3   3 -10    4.80    2.00
  -3  -3  10   -0.60    1.50
  -3  -3  10    3.20    1.40
   2   3 -10    2.30    1.60
  -2  -3  10    2.70    1.30
  -2  -3  10    3.10    1.20
   1   3 -10   16.60    2.50
   1   3 -10   16.00    1.50
  -1  -3  10   16.90    1.80
  -1  -3  10   15.30    1.90
  -1  -3  10   14.90    2.00
   0   3 -10    0.20    1.20
   0   3 -10    3.10    0.90
   0  -3  10    2.30    1.20
   0  -3  10    2.00    1.10
   0  -3  10    1.30    0.90
  -1   3 -10    7.20    1.10
  -1   3 -10    7.30    1.50
   1  -3  10    8.20    1.30
   1  -3  10    7.90    1.20
  -2   3 -10    1.10    1.10
  -2   3 -10    1.60    1.10
   2  -3  10   -0.60    0.70
   2  -3  10   -0.40    1.00
   2  -3  10    1.40    0.90
  -3   3 -10   -0.30    1.30
   3  -3  10   -0.10    0.80
   3  -3  10   -0.40    1.00
   3  -3  10   -0.10    1.00
  -4   3 -10    6.70    1.60
   4  -3  10    3.60    1.20
   4  -3  10    3.90    1.00
   4  -3  10    4.30    1.30
  -5   3 -10    0.60    1.80
   5  -3  10    1.00    1.50
   5  -3  10    3.30    1.50
   5  -3  10    0.50    1.10
   4   2 -10   -5.20    2.40
  -4  -2  10    0.50    1.70
  -4  -2  10   -0.20    1.60
   3   2 -10    6.80    2.00
  -3  -2  10    3.90    1.40
  -3  -2  10    3.10    1.60
   2   2 -10    2.40    1.60
  -2  -2  10    8.30    1.40
  -2  -2  10    6.30    1.30
   1   2 -10    1.50    1.40
   1   2 -10    0.90    0.80
  -1  -2  10    2.50    1.10
  -1  -2  10    2.80    0.90
  -1  -2  10    1.50    1.00
   0   2 -10    5.00    0.80
   0  -2  10    5.10    0.80
   0  -2  10    4.10    0.90
   0  -2  10    5.40    1.10
   0  -2  10    5.80    1.20
  -1   2 -10    0.20    0.90
  -1   2 -10    1.30    1.20
   1  -2  10    1.20    0.70
   1  -2  10    1.30    0.90
   1  -2  10    0.60    0.80
  -2   2 -10    1.20    1.10
  -2   2 -10   -0.40    1.00
   2  -2  10    0.70    0.90
   2  -2  10   -0.40    0.90
   2  -2  10    0.50    0.70
  -3   2 -10    7.70    1.50
   3  -2  10    9.10    1.30
   3  -2  10    9.90    1.40
  -4   2 -10    3.00    1.50
   4  -2  10    1.90    1.20
   4  -2  10    3.10    1.20
   4  -2  10    2.80    0.90
  -5   2 -10    0.90    1.60
   5  -2  10   -1.20    1.00
   5  -2  10    0.50    1.40
   5  -2  10   -0.40    1.30
  -6   2 -10    0.50    2.40
  -6   2 -10   -0.20    1.30
   6  -2  10   -0.10    1.70
   6  -2  10   -0.90    1.60
   6  -2  10   -0.40    1.40
   4   1 -10   -1.80    2.10
  -4  -1  10    4.00    1.70
   3   1 -10    6.80    2.00
  -3  -1  10    3.80    1.30
  -3  -1  10    8.00    1.70
  -3  -1  10    6.80    1.40
   2   1 -10    0.20    1.60
  -2  -1  10   -0.80    1.10
  -2  -1  10   -0.60    0.90
  -2  -1  10    0.00    1.10
   1   1 -10   -0.50    1.40
  -1  -1  10    1.90    0.80
  -1  -1  10    1.30    0.80
  -1  -1  10    2.50    1.20
  -1  -1  10    1.30    1.00
   0   1 -10    1.20    1.20
   0   1 -10    1.70    0.70
   0  -1  10    2.30    0.90
   0  -1  10   -0.30    0.70
   0  -1  10    1.00    0.70
  -1   1 -10    0.60    1.10
  -1   1 -10   -0.30    0.80
   1  -1  10    0.30    0.70
   1  -1  10   -0.50    0.90
   1  -1  10   -1.50    0.70
  -2   1 -10   -1.10    1.00
   2  -1  10   -0.40    0.70
   2  -1  10   -0.10    0.70
   2  -1  10    0.60    0.80
  -3   1 -10    6.50    1.50
   3  -1  10   10.60    1.30
   3  -1  10    7.10    1.10
  -4   1 -10    1.50    1.50
   4  -1  10    0.30    1.10
   4  -1  10    0.90    0.90
   4  -1  10    1.50    1.00
  -5   1 -10    0.90    1.00
  -5   1 -10    1.60    1.80
   5  -1  10    2.00    1.30
   5  -1  10   -1.00    1.20
   5  -1  10    0.80    1.10
  -6   1 -10    0.90    2.10
  -6   1 -10    0.50    1.20
   6  -1  10   -0.80    1.60
   6  -1  10    1.40    1.50
   6  -1  10   -2.20    1.40
   4   0 -10   -2.70    2.10
  -4   0  10   -0.40    1.60
  -4   0  10   -3.70    1.70
   3   0 -10   -1.80    1.70
  -3   0  10    1.60    1.40
  -3   0  10   -0.80    1.30
   2   0 -10    0.20    1.50
  -2   0  10   -0.80    0.90
   1   0 -10    5.20    1.50
  -1   0  10    6.10    1.20
  -1   0  10    5.70    0.90
  -1   0  10    5.80    1.10
   0   0 -10    1.50    1.20
   0   0 -10    3.30    0.80
   0   0  10    3.30    0.80
   0   0  10    2.90    0.80
   0   0  10    3.10    1.00
  -1   0 -10    9.60    1.30
  -1   0 -10   12.60    2.00
   1   0  10   12.00    1.50
   1   0  10   10.70    1.20
   1   0  10   14.10    1.30
  -2   0 -10    4.50    1.00
  -2   0 -10    5.40    1.20
   2   0  10    5.40    1.10
   2   0  10    4.60    0.90
   2   0  10    5.30    0.90
  -3   0 -10    8.20    1.50
   3   0  10    7.90    1.00
   3   0  10    8.40    1.10
   3   0  10    8.20    1.30
  -4   0 -10    3.10    1.50
   4   0  10    2.20    1.00
   4   0  10    0.60    1.00
   4   0  10    0.30    0.90
  -5   0 -10    4.30    0.90
  -5   0 -10    6.60    1.80
   5   0  10    3.50    1.30
   5   0  10    3.90    1.20
   5   0  10    2.20    1.20
  -6   0 -10    6.00    2.10
  -6   0 -10    4.50    1.20
   6   0  10    5.50    1.50
   6   0  10    5.00    1.60
   6   0  10   10.70    1.80
   4  -1 -10    2.00    2.30
  -4   1  10    2.60    1.60
  -4   1  10    1.90    1.60
   3  -1 -10    3.10    1.90
  -3   1  10    0.40    1.30
  -3   1  10    2.10    1.40
   2  -1 -10    1.90    1.70
  -2   1  10    2.10    1.10
  -2   1  10   -0.90    1.00
   1  -1 -10  -47.90   30.00
  -1   1  10    1.10   20.30
   0  -1 -10  -51.19   25.60
   0  -1 -10    1.50    0.80
   0  -1 -10    1.70    1.20
   0   1  10    1.80    0.80
   0   1  10    0.40    0.60
   0   1  10    0.70    0.80
  -1  -1 -10   12.70    1.40
  -1  -1 -10   12.90    1.90
   1   1  10   11.80    1.20
   1   1  10    9.50    1.30
   1   1  10   12.50    1.50
  -2  -1 -10    2.70    1.10
  -2  -1 -10   -0.10    1.10
   2   1  10    0.80    0.70
   2   1  10    0.80    0.90
  -3  -1 -10    6.70    1.40
   3   1  10    4.20    1.10
   3   1  10    6.80    1.00
   3   1  10    6.30    1.20
  -4  -1 -10    1.20    1.40
  -4  -1 -10   -0.70    0.70
   4   1  10    1.20    1.00
   4   1  10    1.80    1.10
   4   1  10   -0.20    0.90
  -5  -1 -10   -1.20    1.50
  -5  -1 -10    0.10    0.90
   5   1  10    1.70    1.20
   5   1  10   -0.60    1.30
   5   1  10    0.30    1.20
  -6  -1 -10    0.80    2.00
  -6  -1 -10   -0.80    1.10
   6   1  10    1.30    1.50
   6   1  10    0.10    1.60
   6   1  10   -0.30    1.60
   4  -2 -10    4.70    2.40
  -4   2  10    0.40    1.70
  -4   2  10    4.70    1.80
   3  -2 -10    1.30    1.90
  -3   2  10    2.00    1.40
  -3   2  10    2.80    1.40
   2  -2 -10    1.60    1.60
  -2   2  10    1.70    1.20
  -2   2  10    0.00    1.20
   1  -2 -10   -0.10    1.50
  -1   2  10    0.40    1.00
  -1   2  10    3.10    1.00
   0  -2 -10    4.00    1.40
   0  -2 -10    2.50   26.00
   0  -2 -10    4.20    0.90
   0   2  10    5.20    1.10
   0   2  10    2.10   24.70
   0   2  10    4.90    1.10
  -1  -2 -10   -1.10    1.10
  -1  -2 -10   -0.60    0.90
  -1  -2 -10  -17.90   30.10
   1   2  10   -0.30    0.60
   1   2  10    0.60    0.90
   1   2  10   -0.80    0.80
  -2  -2 -10   -1.00    1.10
  -2  -2 -10   -2.10    1.00
   2   2  10    1.20    1.00
   2   2  10    0.40    0.80
   2   2  10   -1.40    0.70
  -3  -2 -10    6.00    1.40
   3   2  10    7.70    1.30
   3   2  10    5.10    0.90
   3   2  10    5.70    1.10
  -4  -2 -10    0.20    0.70
  -4  -2 -10    0.20    1.50
   4   2  10    1.30    1.00
   4   2  10   -0.40    1.10
   4   2  10    0.80    1.00
  -5  -2 -10    0.50    0.90
  -5  -2 -10   -1.20    1.80
   5   2  10    1.20    1.30
   5   2  10    0.70    1.20
   5   2  10    2.00    1.20
  -6  -2 -10   -0.70    1.20
  -6  -2 -10    3.80    2.30
   6   2  10    0.70    1.60
   6   2  10   -0.50    1.40
   6   2  10    1.30    1.60
   3  -3 -10    1.50    2.00
  -3   3  10   -0.70    1.60
  -3   3  10    2.50    1.50
   2  -3 -10    4.60    1.90
  -2   3  10    5.40    1.30
  -2   3  10    2.80    1.40
   1  -3 -10    1.10    1.60
  -1   3  10   -0.50    1.00
  -1   3  10   -0.60    1.10
   0  -3 -10  -12.10   26.30
   0  -3 -10   10.00    1.70
   0  -3 -10   11.70    1.40
   0   3  10   16.40    1.80
   0   3  10    9.60    1.40
   0   3  10    4.30   19.20
  -1  -3 -10  -17.90   26.80
  -1  -3 -10    1.10    0.90
  -1  -3 -10    2.20    1.30
   1   3  10   -1.30   25.00
   1   3  10    1.00    1.00
  -2  -3 -10   -0.30    1.20
  -2  -3 -10   -1.10    1.00
   2   3  10   -0.30    0.80
   2   3  10   -0.30    1.00
  -3  -3 -10   23.90    2.40
   3   3  10   27.00    2.00
   3   3  10   22.80    1.80
  -4  -3 -10   -0.10    1.50
   4   3  10    0.20    1.20
   4   3  10    0.70    1.00
   4   3  10   -0.10    1.00
  -5  -3 -10    5.40    2.00
  -5  -3 -10    5.70    1.00
   5   3  10    5.70    1.40
   5   3  10    4.80    1.40
   5   3  10    6.10    1.30
  -6  -3 -10    4.90    1.20
  -6  -3 -10    4.40    2.30
   6   3  10    3.70    1.50
   6   3  10    2.30    1.70
   6   3  10    3.90    1.70
   3  -4 -10    0.20    2.30
  -3   4  10    4.10    1.60
  -3   4  10    2.20    1.80
   2  -4 -10    6.90    2.10
  -2   4  10    5.60    1.40
  -2   4  10    6.00    1.70
   1  -4 -10    6.60    1.80
  -1   4  10    6.70    1.30
  -1   4  10    5.50    1.40
   0  -4 -10   -0.30    1.50
   0   4  10   -1.10    1.10
   0   4  10   -0.40    0.90
  -1  -4 -10   15.10    2.40
  -1  -4 -10   13.60    1.80
   1   4  10   16.30    1.90
   1   4  10   15.80    1.70
   1   4  10   20.80   31.40
  -2  -4 -10   14.70    2.30
  -2  -4 -10   15.70    2.10
   2   4  10   16.00    1.70
   2   4  10   14.60    1.80
  -3  -4 -10   -0.50    1.20
   3   4  10   -1.10    1.20
   3   4  10   -0.20    0.90
  -4  -4 -10    9.30    1.90
   4   4  10   10.10    1.60
   4   4  10    6.50    1.30
  -5  -4 -10    1.70    2.10
   5   4  10    0.80    1.20
   5   4  10    2.10    1.40
   3  -5 -10   -4.30    2.20
  -3   5  10    0.20    2.00
  -3   5  10    1.10    1.80
   2  -5 -10    2.80    2.20
  -2   5  10    4.00    1.70
  -2   5  10    4.90    1.50
   1  -5 -10    2.50    1.80
  -1   5  10    1.70    1.40
  -1   5  10   -0.40    1.20
   0  -5 -10    8.10    1.90
   0   5  10    8.90    1.30
   0   5  10    6.70    1.50
  -1  -5 -10   -0.90    1.10
  -1  -5 -10    1.90    1.50
   1   5  10   -0.80    1.00
   1   5  10   -1.00    1.20
  -2  -5 -10   -1.30    1.20
  -2  -5 -10    0.30    1.50
   2   5  10   -0.80    1.70
   2   5  10    1.50    1.20
  -3  -5 -10   11.50    1.60
   3   5  10    9.00    1.30
   3   5  10    9.10    1.60
  -4  -5 -10   -1.40    1.70
   4   5  10    1.00    1.10
   4   5  10   -0.50    1.40
  -5  -5 -10   -1.10    2.10
   5   5  10    2.00    1.60
   5   5  10    2.40    2.00
   2  -6 -10   10.40    2.70
  -2   6  10    7.40    2.10
  -2   6  10    7.90    1.80
   1  -6 -10    6.60    2.20
  -1   6  10    4.30    1.70
  -1   6  10    1.60    1.40
   0  -6 -10    0.50    1.70
   0   6  10    0.50    1.40
   0   6  10    2.00    1.20
  -1  -6 -10   -0.20    1.70
  -1  -6 -10   -3.00    1.30
   1   6  10   -1.80    1.00
   1   6  10    1.80    1.40
  -2  -6 -10   -0.90    1.70
  -2  -6 -10   -0.60    1.40
   2   6  10    0.10    1.20
   2   6  10    0.30    1.30
  -3  -6 -10    8.90    1.60
   3   6  10    7.60    1.60
  -4  -6 -10   -0.30    1.90
   4   6  10   -0.30    1.60
   1  -7 -10   -0.20    2.30
  -1   7  10    1.70    2.80
  -1   7  10   -1.10    1.80
   0  -7 -10   -1.10    2.10
   0   7  10    2.30    1.60
  -1  -7 -10   -2.80    1.90
   1   7  10    0.20    1.40
  -2  -7 -10    7.10    2.10
  -2  -7 -10    8.30    1.70
   2   7  10    7.00    1.70
  -3  -7 -10    1.30    1.70
   3   7  10    0.10    1.60
  -1  -8 -10   -3.10    2.30
   1   8  10   -0.20    1.80
   0   5 -11    2.80    1.90
   0   5 -11    0.00    1.30
   0  -5  11    0.80    1.50
   0  -5  11    1.80    1.80
   0  -5  11    1.20    1.40
  -1   5 -11    4.70    1.20
  -1   5 -11    6.90    1.90
   1  -5  11    7.60    1.50
   1  -5  11    4.20    1.60
   1  -5  11    6.10    1.90
  -2   5 -11    1.50    1.40
   2  -5  11   -1.90    1.50
   2  -5  11    0.80    1.40
   2  -5  11    1.30    2.00
   1   4 -11    2.90    1.80
  -1  -4  11    0.80    1.40
  -1  -4  11    1.20    1.50
   0   4 -11    2.70    1.10
   0   4 -11    5.70    1.80
   0  -4  11    4.40    1.60
   0  -4  11    5.90    1.50
   0  -4  11    2.20    1.20
  -1   4 -11   -0.90    1.60
  -1   4 -11   -0.30    1.10
   1  -4  11    2.20    1.10
   1  -4  11    2.30    1.70
   1  -4  11    2.60    1.40
  -2   4 -11   11.00    1.50
   2  -4  11    9.40    1.60
   2  -4  11    8.90    1.60
  -3   4 -11    5.10    1.70
   3  -4  11    3.00    1.50
   3  -4  11    3.50    1.50
   2   3 -11    5.20    2.10
  -2  -3  11    4.50    1.70
  -2  -3  11    6.70    1.60
   1   3 -11   10.20    2.00
  -1  -3  11    8.10    1.80
  -1  -3  11    8.20    1.40
   0   3 -11   -0.50    1.50
   0   3 -11   -2.30    1.00
   0  -3  11    0.40    1.10
   0  -3  11    0.20    1.20
   0  -3  11    1.40    1.40
  -1   3 -11   15.90    1.90
  -1   3 -11   16.80    2.70
   1  -3  11   19.50    2.00
   1  -3  11   21.00    2.20
   1  -3  11   18.40    2.70
  -2   3 -11   -1.60    1.10
   2  -3  11    0.10    1.20
   2  -3  11    1.60    1.10
  -3   3 -11    2.60    1.40
   3  -3  11    4.00    1.30
   3  -3  11    4.80    1.40
  -4   3 -11    8.70    2.00
   4  -3  11    9.80    1.70
   4  -3  11   10.90    1.70
   2   2 -11   11.20    2.40
  -2  -2  11   10.30    1.60
  -2  -2  11   10.90    1.90
   1   2 -11    2.90    1.80
  -1  -2  11    0.70    1.30
  -1  -2  11    1.80    1.10
   0   2 -11    0.60    1.50
   0   2 -11   -0.60    0.90
   0  -2  11   -1.20    1.00
   0  -2  11   -0.90    1.10
   0  -2  11   -1.30    1.30
  -1   2 -11    0.50    1.30
  -1   2 -11    1.00    1.00
   1  -2  11    0.40    0.90
   1  -2  11   -1.90    1.10
   1  -2  11    2.90    1.00
  -2   2 -11    7.80    1.30
   2  -2  11    9.00    1.40
   2  -2  11    8.00    1.10
  -3   2 -11    1.60    1.40
   3  -2  11    4.50    1.20
   3  -2  11    4.10    1.30
   3  -2  11    3.10    1.00
  -4   2 -11    1.20    1.70
   4  -2  11   -1.00    1.20
   4  -2  11    0.10    1.30
   4  -2  11    0.40    1.10
  -5   2 -11   -0.50    1.90
   3   1 -11    2.80    2.30
  -3  -1  11   -0.70    1.90
   2   1 -11   21.50    3.30
  -2  -1  11   17.50    2.50
  -2  -1  11   20.30    2.70
   1   1 -11    7.90    1.90
  -1  -1  11    9.90    1.80
  -1  -1  11   11.00    1.60
   0   1 -11    0.60    0.90
   0   1 -11   -1.20    1.40
   0  -1  11    0.40    0.90
   0  -1  11    0.00    1.10
   0  -1  11   -1.00    0.90
  -1   1 -11   16.00    2.50
  -1   1 -11   10.30    1.60
   1  -1  11   11.40    1.40
   1  -1  11   11.60    1.60
  -2   1 -11    0.50    1.10
   2  -1  11    0.60    0.90
   2  -1  11    3.90    1.00
   2  -1  11    2.00    1.10
  -3   1 -11    2.10    1.30
   3  -1  11    0.80    1.10
   3  -1  11    1.20    0.90
   3  -1  11   -0.70    1.00
  -4   1 -11    1.50    1.70
   4  -1  11   -1.00    1.20
   4  -1  11   -1.50    1.10
   4  -1  11    0.90    1.20
  -5   1 -11   -2.90    1.90
   5  -1  11   -2.60    1.40
   5  -1  11   -0.30    1.20
   5  -1  11    1.10    1.40
   3   0 -11    0.10    2.30
  -3   0  11    2.40    1.70
  -3   0  11   -1.80    1.60
   2   0 -11    2.20    1.90
  -2   0  11    1.50    1.30
  -2   0  11   -2.20    1.40
   1   0 -11    5.20    1.80
  -1   0  11    8.50    1.40
  -1   0  11    4.40    1.10
   0   0 -11   -0.10    1.50
   0   0  11   -0.50    0.90
   0   0  11    1.00    1.00
   0   0  11   -1.70    0.90
  -1   0 -11    4.60    1.40
  -1   0 -11    4.20    1.00
   1   0  11    4.10    0.90
   1   0  11    4.70    1.20
   1   0  11    5.90    1.00
  -2   0 -11    3.50    1.10
  -2   0 -11    5.30    1.50
   2   0  11    2.50    1.10
   2   0  11    4.20    1.10
   2   0  11    3.00    0.90
  -3   0 -11    3.20    1.40
   3   0  11    2.90    1.10
   3   0  11    4.00    1.00
   3   0  11    3.90    1.00
  -4   0 -11   -2.80    1.60
   4   0  11   -0.70    1.20
   4   0  11   -0.10    1.10
   4   0  11    2.30    1.20
  -5   0 -11    2.70    2.00
   5   0  11    2.30    1.50
   5   0  11   -0.30    1.40
   5   0  11    1.20    1.30
   3  -1 -11    0.50    2.30
  -3   1  11    4.20    1.80
  -3   1  11    3.90    1.60
   2  -1 -11   15.30    2.40
  -2   1  11   17.20    2.00
  -2   1  11   20.20    2.40
   1  -1 -11    5.60    1.80
  -1   1  11   -0.40    1.10
  -1   1  11    2.60    1.20
   0  -1 -11    6.30    1.70
   0   1  11    1.80    1.20
   0   1  11    3.20    1.00
  -1  -1 -11   -0.70    1.40
  -1  -1 -11   -0.30    1.00
   1   1  11    1.60    1.00
   1   1  11   -0.10    1.10
  -2  -1 -11    1.40    1.40
  -2  -1 -11    1.50    1.10
   2   1  11   -0.80    0.90
   2   1  11   -0.20    0.80
   2   1  11   -2.30    1.00
  -3  -1 -11   -0.80    1.30
   3   1  11   -0.40    1.00
   3   1  11    1.60    1.10
   3   1  11   -0.80    1.10
  -4  -1 -11    2.00    1.60
   4   1  11    1.80    1.20
   4   1  11    1.90    1.20
   4   1  11    3.60    1.30
  -5  -1 -11    0.30    2.00
  -5  -1 -11    0.50    1.10
   5   1  11    0.70    1.40
   5   1  11   -2.00    1.30
   5   1  11    2.50    1.50
   3  -2 -11   -4.10    2.30
  -3   2  11   -0.20    1.70
  -3   2  11   -2.30    1.70
   2  -2 -11    9.90    2.20
  -2   2  11    9.10    1.80
  -2   2  11   11.00    1.60
   1  -2 -11    6.10    1.80
  -1   2  11    5.80    1.20
  -1   2  11    5.20    1.40
   0  -2 -11   -1.00    1.50
   0   2  11    2.00    1.00
   0   2  11    0.50    1.10
  -1  -2 -11    7.40    1.20
   1   2  11    8.10    1.40
   1   2  11    8.80    1.40
  -2  -2 -11    1.40    1.40
  -2  -2 -11    2.70    1.20
   2   2  11    2.00    1.10
   2   2  11    0.20    1.10
  -3  -2 -11    5.20    1.40
   3   2  11    3.50    1.30
   3   2  11    3.70    1.20
  -4  -2 -11    0.00    1.60
   4   2  11    1.50    1.30
   4   2  11   -0.10    1.40
  -5  -2 -11    0.20    2.00
   5   2  11   -0.80    1.30
   5   2  11    0.50    1.60
   2  -3 -11    2.70    2.10
  -2   3  11    2.10    1.60
  -2   3  11    1.10    1.50
   1  -3 -11    1.00    1.90
  -1   3  11   -1.10    1.20
  -1   3  11    0.90    1.30
   0  -3 -11   -0.10    1.60
   0   3  11    1.30    1.20
   0   3  11   -0.40    1.10
  -1  -3 -11    1.40    1.60
  -1  -3 -11    1.00    1.10
   1   3  11   -0.80    1.10
   1   3  11   -0.30    1.00
  -2  -3 -11    3.10    1.30
  -2  -3 -11    1.00    1.50
   2   3  11    2.50    1.20
   2   3  11    1.70    1.10
  -3  -3 -11   18.20    2.40
   3   3  11   12.80    1.90
   3   3  11   10.00    1.70
  -4  -3 -11   -1.20    1.70
   4   3  11    0.20    1.40
   4   3  11   -0.70    1.30
  -5  -3 -11    1.80    2.30
   5   3  11    1.30    1.40
   5   3  11    4.80    1.70
   2  -4 -11    2.70    2.30
  -2   4  11    3.00    1.90
  -2   4  11   -0.50    1.60
   1  -4 -11    2.20    1.90
  -1   4  11    2.20    1.50
  -1   4  11    1.90    1.40
   0  -4 -11   -1.70    1.70
   0   4  11   -1.00    1.30
   0   4  11   -1.40    1.10
  -1  -4 -11   -2.30    1.60
   1   4  11    0.20    1.30
   1   4  11   -1.00    1.00
  -2  -4 -11   19.50    3.20
  -2  -4 -11   19.50    2.30
   2   4  11   15.40    2.10
   2   4  11   15.30    2.30
  -3  -4 -11    4.70    1.50
   3   4  11    2.60    1.40
   3   4  11    1.20    1.20
  -4  -4 -11    3.80    1.80
   4   4  11    5.30    1.40
   4   4  11    6.00    1.70
   1  -5 -11   -1.70    2.20
  -1   5  11   -0.50    1.50
  -1   5  11   -3.50    1.70
   0  -5 -11    0.00    2.00
   0   5  11   -0.70    1.30
   0   5  11   -2.00    1.50
  -1  -5 -11    1.00    1.90
   1   5  11   -0.10    1.50
   1   5  11   -0.10    1.20
  -2  -5 -11    1.30    2.00
  -2  -5 -11   -0.30    1.50
   2   5  11    3.40    1.50
   2   5  11    0.40    1.10
  -3  -5 -11   17.60    2.70
   3   5  11    8.30    1.80
   3   5  11   10.10    1.50
  -4  -5 -11    2.10    1.80
   4   5  11    4.90    1.50
   4   5  11    2.70    1.70
   0  -6 -11    0.70    2.30
   0   6  11    0.60    1.50
   0   6  11   -0.10    1.60
  -1  -6 -11    0.20    2.20
   1   6  11    1.50    1.40
   1   6  11    0.40    1.70
  -2  -6 -11   -2.80    1.70
   2   6  11    0.30    1.60
  -3  -6 -11    5.00    1.80
   3   6  11    5.00    2.00
  -1   3 -12   -1.70    2.30
  -1   3 -12    1.00    1.30
   1  -3  12    1.10    1.50
   1  -3  12   -0.40    1.20
   1  -3  12   -3.00    1.80
   2  -3  12    3.30    1.50
   2  -3  12   -1.50    1.70
   0   2 -12   -0.70    1.80
   0  -2  12   -0.80    1.30
   0  -2  12    0.40    1.30
  -1   2 -12    1.10    1.70
  -1   2 -12    1.00    1.30
   1  -2  12   -0.70    1.40
   1  -2  12    1.30    1.20
  -2   2 -12    0.10    1.30
   2  -2  12    0.70    1.40
   2  -2  12   -0.20    1.30
  -3   2 -12    6.40    1.50
   3  -2  12    5.20    1.40
   3  -2  12    4.30    1.60
   1   1 -12    0.20    2.10
  -1  -1  12    3.60    1.60
   0   1 -12    6.50    2.00
   0  -1  12    3.10    1.50
  -1   1 -12    2.30    1.70
  -1   1 -12    0.50    1.20
   1  -1  12   -0.30    1.20
   1  -1  12    1.40    1.30
   1  -1  12    0.70    1.10
  -2   1 -12    2.60    1.30
   2  -1  12    2.20    1.20
   2  -1  12    4.20    1.20
   2  -1  12    2.80    1.40
  -3   1 -12    3.40    1.60
   3  -1  12    4.50    1.20
   3  -1  12    3.20    1.40
   3  -1  12    1.40    1.30
   1   0 -12    1.70    2.00
  -1   0  12    0.00    1.40
  -1   0  12    0.60    1.50
   0   0 -12    4.10    2.00
   0   0  12   -0.50    1.20
   0   0  12    0.30    1.40
  -1   0 -12    1.90    1.60
  -1   0 -12   -0.40    1.70
   1   0  12   -0.20    1.30
   1   0  12    1.80    1.10
  -2   0 -12    2.40    1.30
   2   0  12    3.90    1.10
   2   0  12    1.60    1.30
  -3   0 -12    1.90    1.50
   3   0  12   -0.40    1.30
   3   0  12    1.10    1.20
   3   0  12    0.00    1.40
  -1   1  12    8.40    1.50
  -1   1  12    8.60    1.70
   0  -1 -12    1.60    2.00
   0   1  12    1.70    1.40
   0   1  12    0.20    1.20
  -1  -1 -12   -1.60    1.80
   1   1  12    0.00    1.10
   1   1  12    0.20    1.40
  -2  -1 -12    0.30    1.40
   2   1  12   -0.70    1.30
   2   1  12    0.20    1.10
  -3  -1 -12    3.60    1.60
   3   1  12    4.20    1.40
   3   1  12    4.40    1.30
  -4  -1 -12   -0.30    1.80
   1  -2 -12    0.10    2.20
  -1   2  12    2.40    1.50
  -1   2  12    2.60    1.70
   0  -2 -12    4.50    2.10
   0   2  12    5.90    1.30
   0   2  12    4.80    1.50
  -1  -2 -12   -2.40    1.80
   1   2  12   -1.20    1.20
   1   2  12    1.70    1.20
  -2  -2 -12    8.70    1.60
   2   2  12   14.60    2.00
   2   2  12   11.90    1.70
  -3  -2 -12   -0.70    1.60
   3   2  12    0.40    1.40
   3   2  12   -0.50    1.30
   0  -3 -12    0.20    2.10
   0   3  12   -0.90    1.40
   0   3  12    2.00    1.30
  -1  -3 -12    3.70    2.00
   1   3  12    1.30    1.40
   1   3  12    2.20    1.40
  -2  -3 -12   -0.90    1.50
   2   3  12    2.40    1.40
   2   3  12   -0.60    1.30
  -3  -3 -12    3.30    1.70
   3   3  12    2.60    1.50
   3   3  12    2.30    1.40
   0  -4 -12    3.60    2.20
   0   4  12    1.70    1.60
   0   4  12    5.00    1.50
   1   4  12   -1.00    1.40
   1   4  12   -0.60    1.60
   2   4  12    3.80    1.50
   2   4  12    5.50    1.60
   0   0   0    0.00    0.00


_computing_structure_solution     'SHELXT 2014/5 (Sheldrick, 2014)'
_computing_structure_solution     'SHELXT 2014/5 (Sheldrick, 2014)'
;
_shelx_hkl_checksum              73086
loop_
_space_group_symop_operation_xyz
'x, y, z'
'-x, -y, -z'
loop_
_atom_site_label
_atom_site_type_symbol
_atom_site_fract_x
_atom_site_fract_y
_atom_site_fract_z
_atom_site_U_iso_or_equiv
_atom_site_adp_type
_atom_site_occupancy
_atom_site_site_symmetry_order
_atom_site_calc_flag
_atom_site_refinement_flags_posn
_atom_site_refinement_flags_adp
O2 O 0.6108(2) 0.18042(17) 0.27554(17) 0.0584(4) Uani 1 1 d . .
O1 O 0.5604(3) 0.16573(18) 0.50966(18) 0.0668(5) Uani 1 1 d . .
C1 C 0.1809(3) 0.23864(19) 0.27970(19) 0.0412(4) Uani 1 1 d . .
H1 H 0.0510 0.1987 0.2643 0.049 Uiso 1 1 calc R U
C9 C 0.3259(3) 0.22592(19) 0.14262(19) 0.0428(4) Uani 1 1 d . .
C2 C 0.2680(3) 0.13610(19) 0.39119(18) 0.0418(4) Uani 1 1 d . .
H2 H 0.2633 0.0380 0.3579 0.050 Uiso 1 1 calc R U
C3 C 0.4887(3) 0.1632(2) 0.4013(2) 0.0482(5) Uani 1 1 d . .
N1 N 0.0494(4) 0.1324(3) 0.6425(2) 0.0739(6) Uani 1 1 d . .
C4 C 0.5293(3) 0.1917(2) 0.1464(2) 0.0490(4) Uani 1 1 d . .
C10 C 0.1351(3) 0.3941(2) 0.3281(2) 0.0537(5) Uani 1 1 d . .
H10 H 0.0447 0.3865 0.4197 0.064 Uiso 1 1 calc R U
C13 C 0.1472(3) 0.1353(2) 0.5330(2) 0.0523(5) Uani 1 1 d . .
C8 C 0.2636(4) 0.2396(2) 0.0083(2) 0.0585(5) Uani 1 1 d . .
H8 H 0.1273 0.2610 0.0016 0.070 Uiso 1 1 calc R U
C5 C 0.6660(4) 0.1707(3) 0.0242(3) 0.0685(7) Uani 1 1 d . .
H5 H 0.8017 0.1460 0.0300 0.082 Uiso 1 1 calc R U
C7 C 0.3989(5) 0.2220(3) -0.1143(2) 0.0736(7) Uani 1 1 d . .
H7 H 0.3545 0.2341 -0.2029 0.088 Uiso 1 1 calc R U
C6 C 0.5988(5) 0.1868(3) -0.1061(3) 0.0766(8) Uani 1 1 d . .
H6 H 0.6898 0.1737 -0.1892 0.092 Uiso 1 1 calc R U
C11 C 0.3214(4) 0.4741(3) 0.3529(3) 0.0759(7) Uani 1 1 d . .
H11A H 0.4179 0.4783 0.2668 0.114 Uiso 1 1 calc R U
H11B H 0.3826 0.4244 0.4279 0.114 Uiso 1 1 calc R U
H11C H 0.2820 0.5706 0.3798 0.114 Uiso 1 1 calc R U
C12 C 0.0194(5) 0.4809(3) 0.2243(3) 0.0833(8) Uani 1 1 d . .
H12A H -0.0247 0.5721 0.2632 0.125 Uiso 1 1 calc R U
H12B H -0.0974 0.4281 0.2088 0.125 Uiso 1 1 calc R U
H12C H 0.1070 0.4973 0.1351 0.125 Uiso 1 1 calc R U
loop_
_atom_site_aniso_label
_atom_site_aniso_U_11
_atom_site_aniso_U_22
_atom_site_aniso_U_33
_atom_site_aniso_U_23
_atom_site_aniso_U_13
_atom_site_aniso_U_12
O2 0.0387(7) 0.0683(10) 0.0688(10) 0.0027(7) -0.0122(7) -0.0015(6)
O1 0.0737(11) 0.0620(10) 0.0727(10) 0.0027(8) -0.0394(9) -0.0018(8)
C1 0.0387(9) 0.0425(9) 0.0430(9) 0.0003(7) -0.0087(7) -0.0003(7)
C9 0.0471(10) 0.0381(9) 0.0431(9) -0.0010(7) -0.0056(7) -0.0047(7)
C2 0.0465(10) 0.0380(9) 0.0411(9) -0.0001(7) -0.0078(7) -0.0023(7)
C3 0.0489(10) 0.0411(10) 0.0573(11) 0.0031(8) -0.0185(9) 0.0000(7)
N1 0.0821(15) 0.0831(15) 0.0537(11) -0.0041(10) 0.0011(10) -0.0118(11)
C4 0.0458(10) 0.0470(10) 0.0531(11) -0.0008(8) -0.0028(8) -0.0060(8)
C10 0.0601(12) 0.0445(10) 0.0558(11) -0.0034(8) -0.0077(9) 0.0098(9)
C13 0.0597(12) 0.0499(11) 0.0476(11) 0.0005(8) -0.0088(9) -0.0073(9)
C8 0.0682(14) 0.0604(13) 0.0485(11) 0.0015(9) -0.0136(10) -0.0093(10)
C5 0.0534(12) 0.0647(14) 0.0812(17) -0.0100(12) 0.0142(12) -0.0077(10)
C7 0.100(2) 0.0757(17) 0.0439(12) -0.0035(11) -0.0039(12) -0.0201(14)
C6 0.094(2) 0.0685(16) 0.0593(14) -0.0142(12) 0.0232(14) -0.0182(14)
C11 0.0958(19) 0.0430(12) 0.0969(19) -0.0146(12) -0.0369(16) 0.0021(11)
C12 0.0886(19) 0.0602(15) 0.105(2) 0.0002(14) -0.0355(16) 0.0251(13)
loop_
_atom_type_symbol
_atom_type_description
_atom_type_scat_dispersion_real
_atom_type_scat_dispersion_imag
_atom_type_scat_source
C C 0.0033 0.0016 'International Tables Vol C Tables 4.2.6.8 and 6.1.1.4'
H H 0.0000 0.0000 'International Tables Vol C Tables 4.2.6.8 and 6.1.1.4'
N N 0.0061 0.0033 'International Tables Vol C Tables 4.2.6.8 and 6.1.1.4'
O O 0.0106 0.0060 'International Tables Vol C Tables 4.2.6.8 and 6.1.1.4'
loop_
_geom_angle_atom_site_label_1
_geom_angle_atom_site_label_2
_geom_angle_atom_site_label_3
_geom_angle
C3 O2 C4 120.94(15)
C9 C1 C10 115.40(16)
C9 C1 C2 105.89(14)
C10 C1 C2 114.13(15)
C9 C1 H1 107.0
C10 C1 H1 107.0
C2 C1 H1 107.0
C4 C9 C8 116.76(19)
C4 C9 C1 120.02(17)
C8 C9 C1 123.12(18)
C13 C2 C3 110.00(16)
C13 C2 C1 113.74(15)
C3 C2 C1 113.12(15)
C13 C2 H2 106.5
C3 C2 H2 106.5
C1 C2 H2 106.5
O1 C3 O2 119.38(19)
O1 C3 C2 125.4(2)
O2 C3 C2 115.14(16)
C5 C4 C9 122.3(2)
C5 C4 O2 115.9(2)
C9 C4 O2 121.72(18)
C11 C10 C12 110.5(2)
C11 C10 C1 114.13(17)
C12 C10 C1 110.91(19)
C11 C10 H10 107.0
C12 C10 H10 107.0
C1 C10 H10 107.0
N1 C13 C2 178.2(2)
C7 C8 C9 121.5(2)
C7 C8 H8 119.2
C9 C8 H8 119.2
C6 C5 C4 119.0(2)
C6 C5 H5 120.5
C4 C5 H5 120.5
C6 C7 C8 119.9(2)
C6 C7 H7 120.0
C8 C7 H7 120.0
C7 C6 C5 120.4(2)
C7 C6 H6 119.8
C5 C6 H6 119.8
C10 C11 H11A 109.5
C10 C11 H11B 109.5
H11A C11 H11B 109.5
C10 C11 H11C 109.5
H11A C11 H11C 109.5
H11B C11 H11C 109.5
C10 C12 H12A 109.5
C10 C12 H12B 109.5
H12A C12 H12B 109.5
C10 C12 H12C 109.5
H12A C12 H12C 109.5
H12B C12 H12C 109.5
loop_
_geom_bond_atom_site_label_1
_geom_bond_atom_site_label_2
_geom_bond_distance
O2 C3 1.343(3)
O2 C4 1.407(2)
O1 C3 1.195(2)
C1 C9 1.506(2)
C1 C10 1.542(3)
C1 C2 1.547(2)
C1 H1 0.9800
C9 C4 1.381(3)
C9 C8 1.394(3)
C2 C13 1.460(3)
C2 C3 1.508(3)
C2 H2 0.9800
N1 C13 1.139(3)
C4 C5 1.380(3)
C10 C11 1.511(3)
C10 C12 1.519(3)
C10 H10 0.9800
C8 C7 1.373(3)
C8 H8 0.9300
C5 C6 1.373(4)
C5 H5 0.9300
C7 C6 1.368(4)
C7 H7 0.9300
C6 H6 0.9300
C11 H11A 0.9600
C11 H11B 0.9600
C11 H11C 0.9600
C12 H12A 0.9600
C12 H12B 0.9600
C12 H12C 0.9600
