#------------------------------------------------------------------------------
#$Date: 2020-02-14 02:29:05 +0200 (Fri, 14 Feb 2020) $
#$Revision: 248140 $
#$URL: file:///home/coder/svn-repositories/cod/cif/4/03/79/4037923.cif $
#------------------------------------------------------------------------------
#
# This file is available in the Crystallography Open Database (COD),
# http://www.crystallography.net/
#
# All data on this site have been placed in the public domain by the
# contributors.
#
data_4037923
loop_
_publ_author_name
'Nikahd, Maryam'
'Mikusek, Jiri'
'Yu, Li-Juan'
'Coote, Michelle L.'
'Banwell, Martin G.'
'Ma, Chenxi'
'Gardiner, Michael G.'
_publ_section_title
;
 Exploiting Chitin as a Source of Biologically Fixed Nitrogen: Formation
 and Full Characterization of Small-Molecule Hetero- and Carbocyclic
 Pyrolysis Products.
;
_journal_name_full               'The Journal of organic chemistry'
_journal_paper_doi               10.1021/acs.joc.9b03438
_journal_year                    2020
_chemical_formula_moiety         'C2 F3 O2, C5 H6 N O'
_chemical_formula_sum            'C7 H6 F3 N O3'
_chemical_formula_weight         209.13
_space_group_crystal_system      triclinic
_space_group_IT_number           2
_space_group_name_Hall           '-P 1'
_space_group_name_H-M_alt        'P -1'
_atom_sites_solution_hydrogens   geom
_atom_sites_solution_primary     dual
_audit_creation_date             2019-06-27
_audit_creation_method
;
Olex2 1.2
(compiled 2018.05.29 svn.r3508 for OlexSys, GUI svn.r5506)
;
_cell_angle_alpha                103.85(2)
_cell_angle_beta                 94.753(18)
_cell_angle_gamma                95.55(2)
_cell_formula_units_Z            2
_cell_length_a                   6.2250(14)
_cell_length_b                   7.862(3)
_cell_length_c                   8.7433(18)
_cell_measurement_reflns_used    393
_cell_measurement_temperature    150.01(10)
_cell_measurement_theta_max      69.9910
_cell_measurement_theta_min      7.1820
_cell_volume                     411.0(2)
_computing_cell_refinement       'CrysAlisPro 1.171.40.35a (Rigaku OD, 2018)'
_computing_data_collection       'CrysAlisPro 1.171.40.35a (Rigaku OD, 2018)'
_computing_data_reduction        'CrysAlisPro 1.171.40.35a (Rigaku OD, 2018)'
_computing_molecular_graphics    'Olex2 (Dolomanov et al., 2009)'
_computing_publication_material  'Olex2 (Dolomanov et al., 2009)'
_computing_structure_refinement  'ShelXL (Sheldrick, 2015)'
_computing_structure_solution    'ShelXT (Sheldrick, 2015)'
_diffrn_ambient_environment      N~2~
_diffrn_ambient_temperature      150.01(10)
_diffrn_detector                 'CCD plate'
_diffrn_detector_area_resol_mean 8.1297
_diffrn_detector_type            EosS2
_diffrn_measured_fraction_theta_full 0.948
_diffrn_measured_fraction_theta_max 0.948
_diffrn_measurement_details
;
List of Runs (angles in degrees, time in seconds):

  # Type    Start    End  Width  t~exp~   \w     \q     \k     \f   Frames
--------------------------------------------------------------------------
  1  \w    -52.00  33.00   1.00    7.50    --  -36.03  38.00   0.00   85
  2  \w    -96.00  33.00   1.00    7.50    --  -36.03   0.00 -30.00  129
  3  \w     30.00  81.00   1.00    7.50    --   36.03-125.00 -90.00   51
  4  \w      8.00  57.00   1.00    7.50    --   36.03 -99.00 150.00   49
  5  \w     32.00  76.00   1.00    7.50    --   36.03-125.00  60.00   44
  6  \w     40.00 120.00   1.00   31.00    --  105.15 -61.00-150.00   80
  7  \w     37.00 101.00   1.00   31.00    --  105.15 -30.00 120.00   64
  8  \w     89.00 171.00   1.00   31.00    --  105.15  30.00  60.00   82
  9  \w     87.00 162.00   1.00   31.00    --  105.15  61.00 150.00   75
 10  \w     37.00 123.00   1.00   31.00    --  105.15 -45.00 -30.00   86
 11  \w     62.00 110.00   1.00   31.00    --  105.15 178.00-150.00   48
 12  \w     60.00 100.00   1.00   31.00    --  105.15 -95.00  60.00   40
 13  \w     73.00 105.00   1.00   31.00    --  105.15 -95.00-180.00   32
 14  \w     37.00 108.00   1.00   31.00    --  105.15-111.00   0.00   71
 15  \w     90.00 162.00   1.00   31.00    --  105.15  45.00 -60.00   72
 16  \w     67.00 124.00   1.00   31.00    --  105.15 -77.00  90.00   57
;
_diffrn_measurement_device       'four-circle diffractometer'
_diffrn_measurement_device_type  'SuperNova, Dual, Cu at home/near, EosS2'
_diffrn_measurement_method       '\w scans'
_diffrn_orient_matrix_type
'CrysAlisPro convention (1999,Acta A55,543-557)'
_diffrn_orient_matrix_UB_11      -0.1524450000
_diffrn_orient_matrix_UB_12      -0.1107867000
_diffrn_orient_matrix_UB_13      -0.1446949000
_diffrn_orient_matrix_UB_21      0.0074372000
_diffrn_orient_matrix_UB_22      0.1594268000
_diffrn_orient_matrix_UB_23      -0.0739554000
_diffrn_orient_matrix_UB_31      0.1981963000
_diffrn_orient_matrix_UB_32      -0.0602955000
_diffrn_orient_matrix_UB_33      -0.0832401000
_diffrn_radiation_monochromator  mirror
_diffrn_radiation_probe          x-ray
_diffrn_radiation_type           CuK\a
_diffrn_radiation_wavelength     1.54184
_diffrn_reflns_av_R_equivalents  0.0588
_diffrn_reflns_av_unetI/netI     0.1509
_diffrn_reflns_Laue_measured_fraction_full 0.948
_diffrn_reflns_Laue_measured_fraction_max 0.948
_diffrn_reflns_limit_h_max       7
_diffrn_reflns_limit_h_min       -6
_diffrn_reflns_limit_k_max       9
_diffrn_reflns_limit_k_min       -9
_diffrn_reflns_limit_l_max       10
_diffrn_reflns_limit_l_min       -10
_diffrn_reflns_number            1947
_diffrn_reflns_point_group_measured_fraction_full 0.948
_diffrn_reflns_point_group_measured_fraction_max 0.948
_diffrn_reflns_theta_full        66.596
_diffrn_reflns_theta_max         66.596
_diffrn_reflns_theta_min         5.242
_diffrn_source                   'micro-focus sealed X-ray tube'
_diffrn_source_type              'SuperNova (Cu) X-ray Source'
_exptl_absorpt_coefficient_mu    1.563
_exptl_absorpt_correction_T_max  1.00000
_exptl_absorpt_correction_T_min  0.49973
_exptl_absorpt_correction_type   multi-scan
_exptl_absorpt_process_details
;
CrysAlisPro 1.171.40.35a (Rigaku Oxford Diffraction, 2018)
Empirical absorption correction using spherical harmonics,
 implemented in SCALE3 ABSPACK scaling algorithm.
;
_exptl_crystal_colour            colourless
_exptl_crystal_colour_primary    colourless
_exptl_crystal_density_diffrn    1.690
_exptl_crystal_description       needle
_exptl_crystal_F_000             212
_exptl_crystal_size_max          0.084
_exptl_crystal_size_mid          0.023
_exptl_crystal_size_min          0.011
_refine_diff_density_max         0.424
_refine_diff_density_min         -0.469
_refine_diff_density_rms         0.101
_refine_ls_extinction_method     none
_refine_ls_goodness_of_fit_ref   1.024
_refine_ls_hydrogen_treatment    constr
_refine_ls_matrix_type           full
_refine_ls_number_parameters     128
_refine_ls_number_reflns         1393
_refine_ls_number_restraints     0
_refine_ls_restrained_S_all      1.024
_refine_ls_R_factor_all          0.1294
_refine_ls_R_factor_gt           0.0856
_refine_ls_shift/su_max          0.000
_refine_ls_shift/su_mean         0.000
_refine_ls_structure_factor_coef Fsqd
_refine_ls_weighting_details
'w=1/[\s^2^(Fo^2^)+(0.0795P)^2^] where P=(Fo^2^+2Fc^2^)/3'
_refine_ls_weighting_scheme      calc
_refine_ls_wR_factor_gt          0.2063
_refine_ls_wR_factor_ref         0.2456
_reflns_Friedel_coverage         0.000
_reflns_number_gt                788
_reflns_number_total             1393
_reflns_threshold_expression     'I > 2\s(I)'
_cod_data_source_file            jo9b03438_si_002.cif
_cod_data_source_block           mn-24h2scaledfiltered
_cod_original_cell_volume        411.04(19)
_cod_database_code               4037923
_shelx_shelxl_version_number     2016/6
_chemical_oxdiff_formula         C7H6F3N1O3
_shelx_space_group_comment
;
The symmetry employed for this shelxl refinement is uniquely defined
by the following loop, which should always be used as a source of
symmetry information in preference to the above space-group names.
They are only intended as comments.
;
_reflns_odcompleteness_completeness 95.03
_reflns_odcompleteness_iscentric 1
_reflns_odcompleteness_theta     66.49
_olex2_refinement_description
;
1. Fixed Uiso
 At 1.2 times of:
  All C(H) groups, All N(H) groups
 At 1.5 times of:
  All O(H) groups
2.a Aromatic/amide H refined with riding coordinates:
 N1(H1A), C1(H1B), C3(H3), C4(H4), C5(H5)
2.b Idealised tetrahedral OH refined as rotating group:
 O1(H1)
;
_shelx_res_file
;
TITL mn-24h2scaledfiltered_a.res in P-1
    mn-24h2scaledfiltered.res
    created by SHELXL-2016/6 at 16:13:03 on 26-Jun-2019
REM Old TITL MN-24h2scaledfiltered in P-1
REM SHELXT solution in P-1
REM R1 0.228, Rweak 0.035, Alpha 0.063, Orientation as input
REM Formula found by SHELXT: C7 N O3 F3
CELL 1.54184 6.225 7.8624 8.7433 103.852 94.753 95.548
ZERR 2 0.0014 0.0025 0.0018 0.023 0.018 0.022
LATT 1
SFAC C H F N O
UNIT 14 12 6 2 6

L.S. 4
PLAN  20
BOND $H
list 4
fmap 2
ACTA
SHEL 10 0.84
OMIT -1 1 5
OMIT -3 1 5
OMIT 1 -2 1
REM <olex2.extras>
REM <HklSrc "%.\\MN-24h2scaledfiltered.hkl">
REM </olex2.extras>

WGHT    0.079500
FVAR       0.77789
F1    3    1.211492    0.867279    0.622655    11.00000    0.04282    0.08003 =
         0.03733   -0.01059    0.01353   -0.03003
F2    3    1.200803    0.935308    0.398848    11.00000    0.04321    0.04208 =
         0.08599    0.02668    0.00876   -0.01087
F3    3    1.373382    0.723301    0.436893    11.00000    0.02464    0.05074 =
         0.05267    0.00993    0.01442   -0.00192
O2    5    0.979252    0.600527    0.257829    11.00000    0.02779    0.05387 =
         0.02993    0.00285    0.00818   -0.01398
O3    5    0.851546    0.650856    0.496831    11.00000    0.02685    0.04433 =
         0.03377    0.00709    0.01437   -0.00743
C6    1    0.984229    0.669440    0.402687    11.00000    0.02006    0.03437 =
         0.03410    0.00690    0.00396   -0.00232
C7    1    1.194517    0.799348    0.465041    11.00000    0.02680    0.03900 =
         0.03682    0.01018    0.00939   -0.00846
O1    5    0.105116    0.197532    0.194720    11.00000    0.03572    0.04704 =
         0.03948    0.00636    0.01534   -0.01378
AFIX 147
H1    2    0.127896    0.246109    0.289594    11.00000   -1.50000
AFIX   0
N1    4    0.636949    0.373885    0.126275    11.00000    0.02821    0.03780 =
         0.03777    0.00857    0.00391   -0.01133
AFIX  43
H1A   2    0.748617    0.443123    0.177709    11.00000   -1.20000
AFIX   0
C1    1    0.463849    0.345489    0.204150    11.00000    0.03614    0.03168 =
         0.03034    0.00759    0.01351   -0.00280
AFIX  43
H1B   2    0.467160    0.399750    0.311373    11.00000   -1.20000
AFIX   0
C2    1    0.279431    0.234267    0.123252    11.00000    0.03054    0.03548 =
         0.03211    0.01209    0.01677   -0.00214
C3    1    0.282552    0.156270   -0.035293    11.00000    0.03540    0.04213 =
         0.03404    0.00700    0.01251   -0.01215
AFIX  43
H3    2    0.161523    0.082317   -0.091614    11.00000   -1.20000
AFIX   0
C4    1    0.465349    0.186560   -0.113231    11.00000    0.03881    0.04685 =
         0.03259    0.00819    0.00695   -0.01305
AFIX  43
H4    2    0.467753    0.132499   -0.219932    11.00000   -1.20000
AFIX   0
C5    1    0.641952    0.299113   -0.026912    11.00000    0.02969    0.04255 =
         0.03843    0.00969    0.01263   -0.01068
AFIX  43
H5    2    0.764450    0.322592   -0.076019    11.00000   -1.20000
AFIX   0
HKLF 4




REM  mn-24h2scaledfiltered_a.res in P-1
REM R1 =  0.0856 for     788 Fo > 4sig(Fo)  and  0.1294 for all    1393 data
REM    128 parameters refined using      0 restraints

END

WGHT      0.0795      0.0000

REM Highest difference peak  0.424,  deepest hole -0.469,  1-sigma level  0.101
Q1    1   0.8462  0.5608  0.3195  11.00000  0.05    0.42
Q2    1  -0.0162  0.1326  0.3174  11.00000  0.05    0.35
Q3    1   0.5141  0.4491  0.3927  11.00000  0.05    0.35
Q4    1   1.3452  0.8658  0.3924  11.00000  0.05    0.34
Q5    1   1.6041  0.7096  0.3646  11.00000  0.05    0.32
Q6    1   0.3981  0.0077 -0.0212  11.00000  0.05    0.32
Q7    1   1.3968  0.8038  0.6043  11.00000  0.05    0.30
Q8    1   0.9962  0.5224  0.0769  11.00000  0.05    0.29
Q9    1   0.8460  0.4965  0.1673  11.00000  0.05    0.29
Q10   1   1.6041  0.7718  0.4868  11.00000  0.05    0.29
Q11   1   0.8082  0.3161  0.1362  11.00000  0.05    0.28
Q12   1   0.8179  0.3828 -0.0579  11.00000  0.05    0.28
Q13   1   0.1375  0.2830  0.3816  11.00000  0.05    0.28
Q14   1   0.1234  0.1101  0.0342  11.00000  0.05    0.28
Q15   1   0.1564  0.0331 -0.1013  11.00000  0.05    0.27
Q16   1   0.4909  0.2603  0.0319  11.00000  0.05    0.27
Q17   1   1.2573  1.0696  0.5618  11.00000  0.05    0.26
Q18   1   0.2934  0.0801 -0.2114  11.00000  0.05    0.26
Q19   1   1.1890  1.0229  0.5676  11.00000  0.05    0.26
Q20   1   1.0032  0.7793  0.5621  11.00000  0.05    0.26
;
_shelx_res_checksum              72193
_shelx_hkl_file
;
   0   0   1  202.65   13.72
   0   0   2  345.10   25.01
   0   0   3  310.48   29.67
   0   0   4   27.67   10.83
   0   0   5   90.61   23.20
   0   0   6   23.03   13.80
   0   0  -7   -1.11    1.57
   0   0  -7    6.56    4.16
   0   0  -8   41.28    9.28
   0   0  -8   38.85   10.45
   0   0  -9   -0.58    1.37
   0   0  10    6.32    3.08
   0   0 -10    6.25    2.75
   0   1 -10    3.00    2.35
   0  -1  10    0.93    1.73
   0  -1   9    9.96    4.43
   0   1  -9   13.75    5.05
   0   1  -8   27.76    7.70
   0   1  -7   13.91    5.11
   0   1  -7   16.38    7.54
   0  -1   6   41.61   21.76
   0  -1   5  172.40   29.86
   0  -1   4  324.63   36.77
   0  -1   3   77.66   15.24
   0  -1   2 1065.25   44.90
   0  -1   1   -0.46    1.91
   0  -1   1   -1.31    1.15
   0  -1   0    3.01    1.45
   0  -1   0    2.70    1.02
   0   1   1   94.92   15.02
   0  -1  -1  110.35   11.51
   0   1   2  134.62   19.13
   0   1   3  825.90   56.86
   0   1   4  119.29   25.60
   0   1   5  906.73   82.88
   0  -1  -5  915.86   64.74
   0  -1  -6   43.20   10.07
   0  -1  -6   29.81   13.91
   0  -1  -7    0.42    2.10
   0  -1  -8    5.87    4.75
   0  -1  -8    6.04    4.56
   0  -1  -9    7.92    3.59
   0  -1 -10    4.59    2.44
   0  -2  10   14.67    4.21
   0   2 -10   21.34    4.92
   0   2  -9   11.46    4.75
   0  -2   9    4.81    2.80
   0   2  -8   24.19    6.88
   0  -2   8   14.99    5.23
   0   2  -7   15.01    5.64
   0  -2   6    8.06    6.86
   0  -2   5    6.04    7.11
   0  -2   4   13.35    6.03
   0  -2   3   64.50   14.16
   0  -2   2 1393.36   56.35
   0  -2   1   -2.05    2.70
   0  -2   1    1.71    2.91
   0  -2   0 1520.58   47.30
   0  -2   0 1510.56   35.46
   0  -2  -1   56.77   10.88
   0  -2  -2   24.79    8.02
   0  -2  -3  407.96   39.80
   0  -2  -4   13.28   15.72
   0  -2  -5    9.30    6.85
   0  -2  -6   51.46   11.17
   0  -2  -7    5.97    4.51
   0  -2  -8    1.92    2.20
   0  -2  -8    3.98    2.25
   0  -2  -9    5.51    3.09
   0  -3  10    8.81    3.85
   0   3 -10    6.99    2.33
   0   3  -9   -0.65    1.88
   0  -3   9    3.43    3.00
   0   3  -8    3.50    3.93
   0  -3   8   -1.24    1.26
   0  -3   7   45.47   10.57
   0   3  -7   58.07   10.38
   0  -3   6   24.92   14.75
   0  -3   5    0.12    1.30
   0  -3   4   12.78    7.53
   0  -3   3   67.27   16.49
   0  -3   2   21.95    8.42
   0  -3   2   18.48    8.44
   0  -3   1  288.51   20.47
   0  -3   1  348.63   30.10
   0  -3   1  392.21   33.05
   0  -3   0   57.38   12.14
   0  -3  -1   12.87    6.77
   0  -3  -2   76.90   17.27
   0  -3  -3  251.29   34.34
   0  -3  -4   52.92   17.84
   0  -3  -5    1.34    2.50
   0  -3  -5    0.59    1.30
   0  -3  -6   -0.33    1.79
   0  -3  -7    3.03    3.91
   0  -3  -8    3.58    1.58
   0  -3  -8    4.41    3.42
   0  -3  -9    2.60    1.43
   0   4 -10    7.49    2.94
   0  -4  10    2.32    2.12
   0   4  -9   59.95    9.64
   0  -4   9   36.21    8.48
   0  -4   8   94.89   16.01
   0   4  -8   99.96   13.32
   0   4  -7   31.94    7.58
   0  -4   7   26.15    8.87
   0  -4   6   50.88   10.99
   0   4  -6   48.67    9.41
   0  -4   5    4.77   10.17
   0  -4   4   40.74   14.87
   0  -4   3  204.93   30.22
   0  -4   2  376.66   41.15
   0  -4   1   26.63    9.92
   0  -4   1   34.45   12.63
   0  -4   0  209.61   29.55
   0  -4  -1   56.74   15.89
   0  -4  -2   41.57   14.97
   0  -4  -3   39.67   15.81
   0  -4  -4   47.65   10.83
   0  -4  -5    2.13    3.42
   0  -4  -6   19.47    7.30
   0  -4  -7   13.46    6.02
   0  -4  -8    1.14    0.70
   0  -5  10    2.29    1.51
   0   5  -9   17.44    5.07
   0  -5   9   15.18    6.08
   0  -5   8   13.36    6.13
   0   5  -8   24.77    6.96
   0  -5   7   -0.86    2.70
   0   5  -7    0.12    2.42
   0  -5   6    0.69    2.55
   0   5  -6    3.00    3.44
   0  -5   5   58.08   11.90
   0   5  -5   53.71    9.94
   0  -5   4   97.55   25.77
   0  -5   3  171.57   32.88
   0  -5   2   -1.16    3.36
   0  -5   2    5.04    6.88
   0  -5   1    8.35    6.73
   0  -5   1    3.31    1.65
   0  -5   0   23.53   12.91
   0  -5  -1  160.79   32.85
   0  -5  -2  197.47   37.65
   0  -5  -2  205.66   22.46
   0  -5  -3   42.99   10.38
   0  -5  -4    7.92    3.19
   0  -5  -5   30.78    9.99
   0  -5  -6    3.05    2.14
   0  -6   9    3.97    2.47
   0  -6   8   -0.93    1.96
   0   6  -8   -2.54    2.52
   0  -6   7    1.74    2.06
   0   6  -7    0.35    1.20
   0  -6   6   22.62    8.71
   0   6  -6   33.10    8.32
   0  -6   5   -1.14    2.33
   0   6  -5    1.79    1.87
   0  -6   4    3.81    4.69
   0   6  -4    2.50    2.17
   0  -6   3    9.64    5.75
   0   6  -3    5.59    4.06
   0  -6   2  148.17   35.51
   0  -6   2  173.15   23.38
   0  -6   2  119.04   33.13
   0  -6   1   24.47    8.96
   0  -6   1   36.10   17.42
   0  -6   1   15.34   13.36
   0   6   0   13.96    6.20
   0  -6   0    8.28    4.68
   0   6   1   -1.85    1.39
   0  -6  -1    4.39    4.24
   0  -6  -2   13.65    6.46
   0   6   2   16.95    6.95
   0  -6  -3    5.01    4.26
   0  -6  -4   15.70    6.41
   0  -6  -5    1.87    2.20
   0  -7   8    7.69    4.12
   0  -7   7   10.70    5.27
   0  -7   6    4.10    4.27
   0   7  -6    2.05    1.77
   0  -7   5   12.07    6.43
   0   7  -5   10.36    4.20
   0  -7   4    2.22    3.04
   0  -7   3    4.62    4.86
   0   7  -2    3.33    4.34
   0  -7   2    6.37    6.99
   0   7  -1    2.24    3.96
   0   7   0   36.60   10.53
   0   7   1   10.70    4.95
   0  -7  -1    7.24    4.32
   0  -7  -2    2.43    2.44
   0   7   2    7.16    5.02
   0  -7  -3  180.45   19.76
   0  -7  -4    6.15    3.29
   0  -8   7    2.17    2.45
   0  -8   6   -0.82    1.46
   0  -8   5   33.12    9.33
   0   8  -5   28.57    7.60
   0  -8   4    3.73    3.19
   0   8  -4    1.76    1.78
   0   8  -3    2.57    0.97
   0   8  -2   23.18    8.69
   0   8  -1    3.99    3.68
   0   8   0    1.11    2.35
   0   8   1   23.83    8.18
   0  -8  -1   22.42    6.23
   0  -8  -3   -0.62    0.85
   0   9  -5   -0.25    0.63
   0   9  -4   -0.16    0.98
   0   9  -4    1.02    0.88
   0   9  -3    1.14    1.13
   0   9  -2   -0.35    1.50
   0   9  -1    1.27    2.28
   0   9   0   -2.22    2.45
   0  -9   0    0.56    0.83
  -1   9   0   10.06    3.96
  -1   9  -1    8.04    4.41
  -1   9  -2   -1.69    1.48
  -1   9  -3    3.04    1.76
  -1   9  -4    1.15    0.78
  -1   9  -5    0.90    0.73
   1  -8  -3   -0.71    0.67
   1  -8  -2    1.48    0.95
   1  -8  -2    5.14    2.27
   1  -8  -1    0.72    1.92
   1  -8  -1    5.20    3.21
  -1   8   1    1.36    2.11
  -1   8   0    8.06    4.94
   1  -8   0   17.96    5.78
  -1   8  -1   30.34    8.91
  -1   8  -2   10.66    5.92
   1  -8   3   74.36   15.62
   1  -8   4    2.87    3.38
   1  -8   5    1.84    2.93
   1  -8   6    1.69    1.77
   1  -8   7    5.55    3.26
   1  -7  -4    9.42    4.36
   1  -7  -4    8.60    3.33
   1  -7  -3   -0.90    1.43
   1  -7  -3   -1.55    1.03
   1  -7  -2   46.45   11.04
  -1   7   1    1.07    2.22
   1  -7  -1   -1.82    2.60
   1  -7   0    2.93    2.15
  -1   7   0   10.62    5.91
   1  -7   1   78.20   12.91
   1  -7   2    8.47    5.36
   1  -7   3    2.01    1.05
   1  -7   4   -0.03    1.65
   1  -7   5    3.82    3.80
   1  -7   6   -1.41    1.35
   1  -7   7    2.03    3.44
   1  -7   8    2.05    2.01
   1  -6  -5   13.92    5.00
   1  -6  -4    3.81    1.93
   1  -6  -4   -0.98    3.02
   1  -6  -3   16.16    6.53
   1  -6  -2   16.70    7.37
  -1   6   1   24.44    7.78
   1  -6  -1   18.75    5.97
   1  -6   0   15.97    6.72
   1  -6   1   25.15    7.41
   1  -6   1   19.92   11.56
   1  -6   1   27.84    9.13
   1  -6   2   12.88    9.79
   1  -6   2   13.46    5.67
   1  -6   3   11.60    5.69
   1  -6   4   -1.74    4.09
   1  -6   5    8.93    5.52
   1  -6   6    9.32    5.26
   1  -6   7    6.36    4.88
   1  -6   8   -0.18    1.12
   1  -6   9   -0.90    2.70
   1  -5  -7    4.53    2.54
   1  -5  -6    4.34    3.12
   1  -5  -5    2.42    0.83
   1  -5  -5    4.50    3.11
   1  -5  -4    9.66    5.32
   1  -5  -3   15.15    6.30
   1  -5  -2   64.45   20.33
   1  -5  -2   55.38   10.61
   1  -5  -1    7.58    9.52
   1  -5   0    4.24    7.29
   1  -5   0   -2.47    2.33
   1  -5   1   81.26   22.83
   1  -5   1   83.61   20.76
   1  -5   2  130.04   28.50
   1  -5   2  148.74   28.94
   1  -5   3   12.32    9.03
   1  -5   4    0.54    2.50
   1  -5   5   11.62    5.94
   1  -5   6    4.76    2.83
   1  -5   7   -1.51    2.22
   1  -5   8    7.58    4.93
   1  -5   9   -0.48    0.93
   1  -5  10    0.92    1.83
   1  -4  -8    3.31    1.46
   1  -4  -6   19.73    8.62
   1  -4  -5   75.60   13.05
   1  -4  -5   53.77   11.59
   1  -4  -4   19.73    5.80
   1  -4  -3   25.62   12.10
   1  -4  -2    4.87    5.71
   1  -4  -1  359.80   39.80
   1  -4   0  326.43   37.41
   1  -4   0  308.21   34.19
   1  -4   1  168.87   25.93
   1  -4   1  167.16   26.64
   1  -4   2  200.19   29.08
   1  -4   2  171.44   28.03
   1  -4   3  430.18   45.98
   1  -4   4   55.41   18.18
   1  -4   5    4.30    6.95
   1  -4   6   22.32    7.37
   1  -4   7    3.29    3.15
   1  -4   8    1.43    2.94
   1  -4   9   -0.74    2.44
   1  -4  10    3.86    2.66
   1  -3  -9    1.88    1.91
   1  -3  -8   19.21    5.73
   1  -3  -7    0.11    3.64
   1  -3  -6    3.69    4.47
   1  -3  -6    7.88    3.69
   1  -3  -5    6.35    3.04
   1  -3  -5    2.71    2.64
   1  -3  -4  168.70   28.90
   1  -3  -4  152.02   37.91
   1  -3  -3   62.97   19.58
   1  -3  -3   70.40   16.54
   1  -3  -2   25.94   10.94
   1  -3  -2   37.17   11.34
   1  -3  -1   42.09    9.97
   1  -3  -1   63.07   13.44
   1  -3   0   65.32   10.64
   1  -3   0   89.81   16.71
   1  -3   0  115.24   16.99
   1  -3   0  108.07   18.38
   1  -3   1  795.94   49.19
   1  -3   1  803.89   45.76
   1  -3   2  528.35   40.77
   1  -3   3   27.50   11.23
   1  -3   4  194.16   33.23
   1  -3   5  321.69   48.88
   1  -3   6   69.79   12.60
   1  -3   6   54.10   21.38
   1  -3   7   10.47    5.49
   1  -3   8   11.03    5.25
  -1   3  -8   11.54    4.54
   1  -3   9    6.71    3.38
   1  -3  10    5.10    3.03
   1  -2  -9   21.89    5.81
   1  -2  -8    1.18    2.96
   1  -2  -7   73.21   12.91
   1  -2  -6    2.41    1.69
   1  -2  -5   33.33   17.53
   1  -2  -4  108.44   20.71
   1  -2  -4  101.01   28.03
   1  -2  -3   11.46    5.50
   1  -2  -2  179.76   19.57
   1  -2  -2  194.48   23.91
   1  -2  -1   12.91    5.94
   1  -2  -1   19.21    6.31
   1  -2  -1   19.88    5.51
   1  -2   0   15.09    7.04
   1  -2   0   34.85    9.43
   1  -2   0   28.26   10.26
   1  -2   0   15.71    7.72
   1  -2   1 9999.00  151.63
   1  -2   1 9990.70  133.77
   1  -2   2  401.74   32.64
   1  -2   3    3.69    2.61
   1  -2   4  106.44   24.79
   1  -2   5   11.92   12.00
   1  -2   6   40.71   17.96
  -1   2  -7   49.24   11.53
  -1   2  -7   58.49   10.46
   1  -2   8   10.17    5.59
  -1   2  -8   21.87    6.60
  -1   2  -9   40.76    8.16
   1  -2   9   36.71    8.99
   1  -2  10    1.84    1.58
   1  -1 -10    7.26    3.05
   1  -1  -9    1.03    1.86
   1  -1  -8    7.81    4.27
   1  -1  -7   67.75   12.65
   1  -1  -6    0.67    1.91
   1  -1  -6    4.48    2.95
   1  -1  -5  456.33   57.81
   1  -1  -4   41.83   11.14
  -1   1   4   28.83    9.41
  -1   1   3  336.97   30.30
   1  -1  -3  339.66   26.78
   1  -1  -2  164.66   20.43
   1  -1  -2  160.24   14.66
  -1   1   2  140.69   16.01
   1  -1  -1  956.07   30.57
   1  -1   0   42.69    5.40
   1  -1   0   38.47    6.86
   1  -1   1  296.10   21.27
   1  -1   2   31.08    9.65
   1  -1   3   30.22   10.84
   1  -1   4   42.98   15.47
   1  -1   5    4.84    5.67
   1  -1   6  168.14   39.35
  -1   1  -7    5.04    4.18
  -1   1  -7    0.63    2.60
  -1   1  -8   11.11    5.36
  -1   1  -8    8.64    4.07
  -1   1  -9    0.70    1.37
   1  -1   9    1.82    2.18
   1  -1  10   11.72    3.93
  -1   1 -10   10.65    2.80
   1   0 -10    5.24    2.70
  -1   0   9   99.67   13.58
   1   0  -9   97.65   13.36
   1   0  -8    0.11    2.30
   1   0  -7    1.98    3.77
   1   0  -6   22.40   11.79
   1   0  -5  118.36   25.52
  -1   0   4   36.83   10.68
   1   0  -3   42.93    7.88
  -1   0   3   46.13    9.86
  -1   0   2  193.94   15.53
   1   0  -2  201.88   16.32
   1   0  -2  195.68   11.28
   1   0  -1  548.89   25.90
  -1   0   1  550.64   13.56
   1   0   0   40.29    5.77
   1   0   1 1082.23   32.17
   1   0   1 1087.19   41.02
   1   0   2   19.11    6.97
   1   0   3    1.00    3.50
   1   0   4  461.55   49.90
   1   0   5   24.88   14.46
  -1   0  -6    9.40    5.50
   1   0   6    5.41    6.34
  -1   0  -7   54.35   12.30
  -1   0  -8   14.99    6.03
  -1   0  -8    9.15    5.43
  -1   0  -9   11.92    4.20
   1   0  10    1.05    0.95
   1   1 -10   -0.93    0.98
  -1  -1   9    0.17    1.25
   1   1  -9    1.51    2.19
   1   1  -8   24.49    7.41
   1   1  -7   41.36    9.51
   1   1  -6   29.07   13.70
  -1  -1   5  150.29   26.26
   1   1  -5  150.50   26.20
  -1  -1   4  667.46   46.73
   1   1  -4  665.72   49.76
   1   1  -3  313.40   26.41
   1   1  -3  284.55   25.46
  -1  -1   3  310.77   25.61
  -1  -1   2  357.11   22.24
   1   1  -2  355.02   22.00
  -1  -1   1  211.48   10.14
   1   1   0   82.88    8.50
   1   1   1  329.69   30.29
   1   1   2   43.93   12.72
   1   1   3    4.09    7.13
   1   1   4   65.80   20.62
   1   1   5  141.55   35.85
  -1  -1  -6   10.18    5.37
  -1  -1  -7   -4.28    3.49
  -1  -1  -8   -2.68    1.92
  -1  -1  -8    1.73    2.38
  -1  -1  -9    9.06    3.44
   1   2 -10    1.34    2.20
   1   2  -9    6.70    3.30
  -1  -2   9    8.50    3.96
  -1  -2   8   47.66   10.28
   1   2  -8   58.67   11.54
   1   2  -7  149.37   17.89
  -1  -2   7  140.01   18.19
   1   2  -5    8.58    6.81
  -1  -2   5   11.44    6.21
   1   2  -4    1.14    2.97
  -1  -2   4    2.16    3.60
   1   2  -3   14.69    4.93
  -1  -2   3   14.94    6.61
  -1  -2   2   66.05    9.86
  -1  -2   2   74.20   13.08
  -1  -2   1  281.48   20.28
  -1  -2   0  322.86   25.81
  -1  -2  -1 2808.31   90.20
  -1  -2  -2   63.88   16.85
  -1  -2  -3  135.64   26.36
   1   2   3  111.97   27.70
  -1  -2  -4   38.89   19.04
   1   2   4   33.76   17.01
  -1  -2  -5   23.26   13.00
  -1  -2  -5   18.04    6.64
  -1  -2  -6   75.17   14.12
  -1  -2  -7   26.58    8.47
  -1  -2  -8    5.46    3.10
  -1  -2  -8   14.31    4.66
  -1  -2  -9   -0.63    1.09
   1   3 -10    7.93    2.44
  -1  -3   9    6.85    3.77
   1   3  -9   11.18    4.57
  -1  -3   8  165.30   20.85
   1   3  -8  175.59   19.07
  -1  -3   7    9.82    5.74
   1   3  -7   11.03    5.09
   1   3  -6   40.58    8.72
  -1  -3   6   23.12   12.54
  -1  -3   5   35.15   13.35
  -1  -3   4  101.21   21.14
  -1  -3   3  189.06   27.08
  -1  -3   2  209.24   24.48
  -1  -3   2  230.04   29.01
  -1  -3   1  340.70   29.78
  -1  -3   0   54.52   13.18
  -1  -3  -1   78.15   17.32
  -1  -3  -2   80.10   20.53
  -1  -3  -3   18.64   11.00
  -1  -3  -4  461.04   57.09
  -1  -3  -5   -0.63    1.62
  -1  -3  -6  147.35   20.85
  -1  -3  -7    9.25    5.19
  -1  -3  -8   13.88    4.44
  -1  -3  -8   17.90    5.75
   1   4 -10    7.38    2.59
  -1  -4   9  115.30   15.69
   1   4  -9  116.01   14.06
   1   4  -8    1.83    1.10
  -1  -4   8    3.65    0.92
  -1  -4   7   10.28    5.38
   1   4  -7   11.49    4.66
  -1  -4   6   52.93   11.27
   1   4  -6   58.29   10.26
  -1  -4   5  251.34   42.05
  -1  -4   4   33.54   14.49
  -1  -4   3  153.36   28.70
  -1  -4   2  117.42   22.84
  -1  -4   2  123.67   26.20
  -1  -4   1  471.98   45.03
  -1  -4   0   39.65   13.97
  -1  -4  -1  115.52   24.09
  -1  -4  -2    2.37    6.14
  -1  -4  -3   43.65   12.80
  -1  -4  -3   19.44   11.03
  -1  -4  -4   68.90   13.58
  -1  -4  -5   12.74    6.61
  -1  -4  -6   13.86    5.29
  -1  -4  -7   -2.72    2.96
  -1  -4  -8   19.93    4.47
   1   5 -10    4.58    2.11
   1   5  -9   26.92    6.11
  -1  -5   8   88.92   15.72
   1   5  -8   91.20   12.98
  -1  -5   7    0.42    2.24
   1   5  -7    2.88    3.88
  -1  -5   6    0.16    1.42
   1   5  -6   -2.33    2.88
  -1  -5   5   44.35   10.75
   1   5  -5   56.65   10.63
  -1  -5   4  107.26   29.14
  -1  -5   3   27.57   14.25
  -1  -5   2   28.99   15.13
  -1  -5   2   13.85    9.37
  -1  -5   1   27.91   13.69
  -1  -5   1   30.10   15.93
  -1  -5   0   97.20   25.46
   1   5   1  114.75   16.08
  -1  -5  -1   76.87   23.02
  -1  -5  -2    9.00    5.59
   1   5   2    8.93    4.92
  -1  -5  -3    3.59    5.06
   1   5   3    4.15    4.23
  -1  -5  -3    7.81    6.51
  -1  -5  -4  389.69   31.68
  -1  -5  -5   11.25    5.03
  -1  -5  -6   -1.64    1.89
   1   6  -9   20.69    4.57
  -1  -6   8   13.38    5.73
   1   6  -8   13.90    4.68
  -1  -6   7   12.47    6.46
   1   6  -7   14.27    5.52
  -1  -6   6   -0.05    0.80
   1   6  -6    4.93    3.55
   1   6  -5   22.86    8.52
  -1  -6   5   17.57    6.56
   1   6  -5   20.62    6.99
   1   6  -4    5.01    2.90
   1   6  -4    2.49    3.21
  -1  -6   4    1.06    3.03
   1   6  -3  171.36   19.76
   1   6  -3  170.74   18.27
  -1  -6   3  157.27   20.50
  -1  -6   2  104.35   17.71
   1   6  -2  119.65   17.20
   1   6  -1  144.32   19.07
   1   6   0   22.39    7.93
   1   6   1    3.97    3.63
   1   6   2   17.43    8.36
  -1  -6  -2   35.87   13.08
   1   6   3   26.70    7.61
  -1  -6  -5    0.50    1.91
   1   7  -8    0.29    1.23
  -1  -7   7    0.67    1.03
   1   7  -7    0.03    1.54
  -1  -7   6   28.21    9.10
   1   7  -6   36.24    8.24
  -1  -7   5    5.14    4.23
   1   7  -5    2.40    1.91
   1   7  -5    5.23    4.39
  -1  -7   4    6.56    5.26
   1   7  -4    6.22    3.52
   1   7  -3   14.38    6.27
  -1  -7   3    9.71    5.01
   1   7  -2    9.17    4.96
   1   7  -1    1.95    2.82
   1   7   0   13.47    7.08
   1   7   1   17.31    7.44
   1   7   2   78.35   14.13
  -1  -7  -4    3.58    2.98
  -1  -8   6    2.32    2.57
   1   8  -5    5.92    3.43
  -1  -8   5    4.58    3.85
   1   8  -4   -3.51    2.27
   1   8  -3    0.06    2.64
   1   8  -2    5.25    4.10
   1   8  -1    7.03    3.84
   1   8   0   -2.32    2.21
   1   8   1    1.39    2.28
   1   8   2   -1.65    1.70
   1   9  -4   -1.22    0.56
   1   9  -4    0.48    1.12
   1   9  -3    1.07    0.65
   1   9  -3   -1.30    1.16
   1   9  -2   -2.11    0.99
   1   9  -1    4.86    3.04
   1   9   0   -0.79    1.50
   2  -9   0    1.68    1.68
  -2   9  -1    1.53    0.85
   2  -9   1    5.03    2.88
  -2   9  -2    9.31    4.11
  -2   9  -3    4.53    2.29
  -2   9  -4    1.22    1.24
  -2   9  -5    0.33    0.78
   2  -8  -3    2.60    2.65
   2  -8  -2   -0.33    1.39
   2  -8  -2    2.26    2.22
   2  -8  -1    4.76    3.49
   2  -8  -1    1.57    1.68
  -2   8   0   -2.33    2.15
   2  -8   0    0.17    1.31
  -2   8  -1    4.87    3.33
   2  -8   1    1.60    1.86
   2  -8   2   -1.97    2.17
   2  -8   3   16.20    7.12
   2  -8   4    3.00    3.43
   2  -8   5    5.83    4.59
   2  -8   6    5.50    4.04
   2  -8   7   -2.20    1.19
   2  -7  -5    1.34    1.64
   2  -7  -4    6.98    2.70
   2  -7  -3    1.48    2.28
   2  -7  -3    5.33    3.93
   2  -7  -2    1.50    1.51
   2  -7  -2    4.50    4.81
  -2   7   1   29.77    7.87
   2  -7  -1   35.11   10.06
   2  -7  -1   48.14   11.41
   2  -7   0    1.34    3.15
   2  -7   1    8.37    4.76
   2  -7   2   -2.47    3.29
   2  -7   2    2.25    3.54
   2  -7   3    7.56    5.44
   2  -7   3   -1.00    1.26
   2  -7   4    5.98    6.05
   2  -7   5   -1.69    2.22
   2  -7   6    3.30    4.83
   2  -7   7    1.63    2.91
   2  -7   8    4.83    1.87
   2  -6  -6    3.41    2.94
   2  -6  -5    2.37    2.12
   2  -6  -4    2.23    3.46
   2  -6  -4    6.92    4.12
   2  -6  -3   14.03    6.33
   2  -6  -3   28.35    9.04
   2  -6  -2   -0.67    1.23
   2  -6  -2   -2.72    4.10
   2  -6  -1    3.51    4.39
   2  -6   0    4.31    4.96
   2  -6   1    4.30    3.87
   2  -6   1    2.32    1.93
   2  -6   2  162.33   20.93
   2  -6   2  147.03   18.62
   2  -6   3   29.78    8.33
   2  -6   3   25.46    9.14
   2  -6   4  108.13   18.43
   2  -6   4  111.58   16.21
   2  -6   5    0.37    1.53
   2  -6   6   18.70    8.39
   2  -6   7    0.62    3.07
   2  -6   8    4.12    3.65
   2  -6   9    4.37    3.25
   2  -5  -7   16.50    5.06
   2  -5  -5   30.30    8.33
   2  -5  -5   40.13   10.49
   2  -5  -4   -0.73    2.20
   2  -5  -4    3.81    3.39
   2  -5  -3   24.75    7.33
   2  -5  -3   30.66    8.59
   2  -5  -2   19.98   12.89
   2  -5  -2   27.15    8.64
   2  -5  -1   30.54   16.21
   2  -5   0    4.31    8.15
   2  -5   1    5.76    9.62
   2  -5   2  326.51   43.33
   2  -5   3   38.55   16.42
   2  -5   4   17.25    7.26
   2  -5   4   10.90   10.68
   2  -5   5    0.51    1.86
   2  -5   6   10.46    6.54
   2  -5   7   44.43   12.04
   2  -5   8    3.22    4.05
   2  -5   9    3.83    2.55
   2  -4  -7    1.78    1.57
   2  -4  -5    4.28    3.71
   2  -4  -5    2.71    2.27
   2  -4  -4    2.07    1.93
   2  -4  -4    2.25    3.05
   2  -4  -3    0.00    3.82
   2  -4  -2  152.22   28.64
   2  -4  -1  126.81   26.50
   2  -4  -1  111.53   26.73
   2  -4   0    1.69    4.81
   2  -4   0    0.22    4.98
   2  -4   1    8.97    5.99
   2  -4   1    7.71    5.33
   2  -4   2  943.34   77.66
   2  -4   2  959.57   64.85
   2  -4   3  133.29   27.46
   2  -4   4   -0.10    6.75
   2  -4   5   32.23    8.99
   2  -4   5   25.05   15.92
   2  -4   6    0.56    3.33
   2  -4   7   15.24    7.47
   2  -4   8    5.35    3.90
   2  -4   9    1.46    2.47
   2  -3  -8   15.00    4.37
   2  -3  -7   13.35    6.74
   2  -3  -7   28.00    6.40
   2  -3  -5   31.54    7.99
   2  -3  -4   63.50   25.65
   2  -3  -3   38.66   15.39
   2  -3  -3   50.74   14.72
   2  -3  -2   43.12   13.85
   2  -3  -2   66.54   16.73
   2  -3  -1    1.87    1.19
   2  -3  -1    1.09    2.75
   2  -3  -1   -0.66    2.38
   2  -3   0    3.17    2.89
   2  -3   0    1.85    2.69
   2  -3   0    4.68    4.96
   2  -3   1   51.64   11.81
   2  -3   1   62.75   17.46
   2  -3   2   -0.61    2.13
   2  -3   3   50.66   15.45
   2  -3   4   24.62   13.86
   2  -3   5    8.84   10.88
   2  -3   6   10.63    5.27
   2  -3   7    9.32    6.01
   2  -3   8    6.34    3.71
   2  -3   9   10.43    5.06
   2  -3  10    9.04    3.69
   2  -2  -9    2.49    2.09
   2  -2  -8   29.34    6.57
   2  -2  -7    3.01    2.09
   2  -2  -7    3.58    3.04
   2  -2  -5   21.64   14.94
   2  -2  -4   20.12   10.72
   2  -2  -3  122.93   22.25
   2  -2  -3  138.61   18.89
   2  -2  -2  308.24   27.96
   2  -2  -2  345.30   38.04
   2  -2  -2  314.28   33.24
   2  -2  -1  120.30   18.72
   2  -2  -1  109.17   17.05
   2  -2  -1  121.66   22.08
   2  -2   0  795.33   59.44
   2  -2   0  803.66   35.08
   2  -2   1  469.90   34.28
   2  -2   2   92.00   18.25
   2  -2   3   85.19   20.66
   2  -2   4   60.80   20.31
   2  -2   5    2.23    6.02
   2  -2   6    3.14    0.52
   2  -2   7   -1.28    2.02
   2  -2   8    3.25    4.25
   2  -2   9    2.88    1.86
   2  -2  10   16.88    4.92
   2  -1  -9    7.78    4.03
   2  -1  -8    4.08    2.71
   2  -1  -7   41.69    9.12
   2  -1  -6   33.40    8.76
   2  -1  -6   40.20    8.04
   2  -1  -5   90.00   23.06
   2  -1  -4   48.68   16.19
   2  -1  -3  185.17   25.33
   2  -1  -2    9.16    6.24
   2  -1  -2    6.51    4.87
   2  -1  -2   10.30    3.76
   2  -1  -1  481.30   35.46
   2  -1  -1  482.43   39.44
   2  -1   0    9.62    3.96
   2  -1   0   22.57   10.65
   2  -1   1   42.15    9.53
   2  -1   2  193.69   24.51
   2  -1   3  366.65   40.16
   2  -1   4   80.77   21.97
   2  -1   5   20.09   15.77
   2  -1   6   42.26    8.28
  -2   1  -6   45.19   10.42
  -2   1  -7   60.23   12.79
  -2   1  -8   15.86    6.57
   2  -1   9    3.35    2.38
   2   0 -10    5.50    2.42
   2   0  -9    2.54    3.29
   2   0  -8   24.96    6.96
   2   0  -7   -1.20    2.17
   2   0  -6   22.83   13.42
   2   0  -6   45.21    8.69
   2   0  -5   58.33   17.66
   2   0  -4   68.09   16.99
   2   0  -3   98.53   16.95
   2   0  -3   98.08   17.49
   2   0  -2  131.87   18.89
   2   0  -2  124.14   18.02
   2   0  -2  127.97   19.86
   2   0  -1  200.90   23.21
   2   0  -1  195.92   22.23
   2   0   0  177.76   18.55
   2   0   0  178.88   22.35
   2   0   0  178.70   23.22
   2   0   1   15.79    6.66
   2   0   1   10.69    3.69
   2   0   2 1196.09   65.82
   2   0   2 1227.64   49.45
   2   0   3   12.68    7.49
   2   0   4   72.50   22.34
   2   0   5   18.89   14.84
  -2   0  -6    8.04    5.03
  -2   0  -7    0.70    2.34
  -2   0  -7    0.92    1.88
  -2   0  -8    0.68    2.09
   2   0   9    7.31    3.51
   2   1 -10    0.27    0.48
   2   1  -9    0.84    1.33
   2   1  -8    3.39    2.72
   2   1  -7  182.79   19.31
   2   1  -6  206.93   37.69
   2   1  -5   13.52    7.57
   2   1  -4  232.57   29.40
   2   1  -4  231.69   28.18
   2   1  -3   18.56    8.04
   2   1  -3   17.29    6.63
   2   1  -2   54.31   12.01
  -2  -1   2   54.41    8.80
   2   1  -1  169.82   23.04
   2   1  -1  164.75   19.16
  -2  -1   1  151.93   10.56
   2   1   0 2151.96   80.00
   2   1   0 2152.18   69.16
   2   1   1  314.32   35.65
   2   1   1  332.50   29.72
   2   1   2   -3.26    2.56
   2   1   2    4.66    5.74
   2   1   3   41.42   15.22
   2   1   4    1.33    4.52
   2   1   5  305.75   59.17
  -2  -1  -5  316.48   26.57
  -2  -1  -6   12.58    7.07
  -2  -1  -7  166.87   20.90
  -2  -1  -8   -0.87    0.72
  -2  -1  -8   -0.11    1.28
   2   1   9   10.49    3.41
   2   2 -10   -1.14    1.58
   2   2  -9    2.37    2.12
   2   2  -8  365.86   27.39
   2   2  -7    6.74    3.42
   2   2  -6    2.12    3.39
   2   2  -4    2.55    3.77
   2   2  -4    4.12    2.52
   2   2  -3  109.37   20.75
  -2  -2   3  123.99   18.95
  -2  -2   2   50.38   12.01
  -2  -2   1   30.92    6.47
  -2  -2   0  820.84   43.86
  -2  -2  -1   68.27   14.65
  -2  -2  -4   21.68   13.34
  -2  -2  -5  327.02   29.30
  -2  -2  -6   17.25    8.16
  -2  -2  -7    2.94    2.91
  -2  -2  -8   -0.35    0.84
  -2  -2  -8    0.51    1.23
   2   3 -10    8.09    3.20
   2   3  -9   10.88    4.35
   2   3  -8   13.03    5.94
   2   3  -7   84.72   12.97
   2   3  -6   59.70   10.68
  -2  -3   4   33.90   13.54
  -2  -3   3  665.53   56.95
  -2  -3   2    4.53    5.52
  -2  -3   1  391.64   30.09
  -2  -3   0  345.68   32.28
  -2  -3  -1   22.56    9.71
  -2  -3  -2   -0.49    2.76
  -2  -3  -3    2.97    5.22
   2   3   4   15.68    5.99
  -2  -3  -4   22.97    8.75
  -2  -3  -5  565.46   39.47
  -2  -3  -6   -3.88    4.56
  -2  -3  -7   15.23    6.17
  -2  -3  -8    7.24    2.33
  -2  -3  -8    9.73    3.87
   2   4 -10    0.41    1.05
   2   4  -9   20.43    5.80
   2   4  -8   33.52    8.28
   2   4  -7  125.06   16.28
   2   4  -6   36.16   10.39
   2   4  -6   51.60   10.26
   2   4  -5   47.24   11.84
   2   4  -5   50.64    9.98
  -2  -4   4   64.06   21.74
  -2  -4   3    4.14    5.84
  -2  -4   2  142.28   29.87
  -2  -4   0   40.78   12.82
  -2  -4  -1   37.45   14.23
  -2  -4  -2   12.98    4.87
   2   4   2   11.71    4.56
  -2  -4  -2    6.71    8.13
   2   4   3   96.37   13.95
  -2  -4  -3   98.74   15.78
  -2  -4  -4   31.27    9.33
   2   4   4   35.31    8.51
  -2  -4  -5   58.01   12.76
  -2  -4  -6   -1.87    1.54
  -2  -4  -7   -0.19    1.90
   2   5  -9   12.21    3.97
   2   5  -8   67.58   11.80
   2   5  -7    8.15    4.35
   2   5  -6    1.93    3.19
   2   5  -6    0.73    2.74
   2   5  -5   17.08    7.71
   2   5  -5   17.09    5.74
   2   5  -4   89.60   14.08
   2   5  -3   98.96   14.27
  -2  -5   3   95.21   27.63
   2   5  -2   94.65   13.35
  -2  -5   2   77.68   24.46
   2   5  -1   55.79   11.02
   2   5   0   67.93   12.55
   2   5   1   66.25   13.44
  -2  -5  -1   57.73   14.02
  -2  -5  -2   17.07    6.67
   2   5   2   12.99    6.35
   2   5   3   95.46   15.44
  -2  -5  -3   89.20   14.90
   2   5   4   17.08    5.76
  -2  -5  -4   27.18    8.28
  -2  -5  -5    7.92    4.11
  -2  -5  -6    2.47    1.94
   2   6  -9    3.24    2.25
   2   6  -8    8.94    3.78
   2   6  -7   41.18    8.80
   2   6  -6   12.15    6.18
   2   6  -6   26.41    7.41
   2   6  -5   44.03   10.60
   2   6  -5   41.41    9.56
   2   6  -4  154.87   19.59
   2   6  -3   11.36    5.65
   2   6  -2    7.45    4.53
   2   6  -1    6.84    5.60
   2   6   0    9.27    5.40
  -2  -6   0    9.80    5.17
  -2  -6  -1   22.22    7.56
   2   6   1   22.32    7.38
   2   6   2   48.15   11.33
  -2  -6  -2   43.61   10.72
   2   6   3    7.79    4.99
  -2  -6  -3    7.45    3.89
  -2  -6  -4    3.28    2.91
   2   7  -7   13.59    4.18
   2   7  -6    2.28    1.71
   2   7  -6    3.02    1.73
   2   7  -5   13.03    6.25
   2   7  -4   -5.03    3.49
   2   7  -3   70.29   13.37
   2   7  -2   22.76    8.61
   2   7  -1   26.21    9.35
   2   7   0   -1.06    3.11
   2   7   1    2.37    1.16
   2   7   2    0.37    1.23
   2   7   3    2.29    1.74
   2   8  -6    2.12    1.55
   2   8  -5    3.79    2.52
   2   8  -4   73.96   12.98
   2   8  -3    8.93    4.10
   2   8  -3   10.64    4.36
   2   8  -2   10.40    4.81
   2   8  -1   28.81    7.93
   2   8   0    5.64    3.72
   2   8   1    1.57    2.09
   2   9  -3   -1.51    1.08
  -3   9  -2    0.07    1.15
  -3   9  -3    8.76    3.60
  -3   9  -4    0.19    1.35
   3  -8  -3    3.16    1.91
   3  -8  -2   21.37    5.84
   3  -8  -1   -0.44    1.61
  -3   8   0   -0.91    1.61
   3  -8   0    2.52    2.42
   3  -8   1    1.82    2.01
   3  -8   2    2.78    2.11
   3  -8   3   15.28    5.21
   3  -8   4   32.55    8.24
   3  -8   4   24.91    5.99
   3  -8   5   27.91    7.25
   3  -7  -4    1.55    0.82
   3  -7  -4    1.83    1.56
   3  -7  -3   -0.41    1.16
   3  -7  -2    4.01    2.25
   3  -7  -1    2.05    2.38
   3  -7   0   82.00   14.73
   3  -7   1   23.68    7.82
   3  -7   2    3.97    2.88
   3  -7   3  123.63   17.05
   3  -7   3  122.71   17.63
   3  -7   4    1.80    3.54
   3  -7   4    1.07    2.46
   3  -7   5    6.81    3.20
   3  -7   5    4.95    3.60
   3  -7   6   -4.79    3.41
   3  -7   7    1.24    1.01
   3  -6  -6    1.81    1.67
   3  -6  -5    8.81    3.55
   3  -6  -5   13.84    4.48
   3  -6  -4    5.73    3.45
   3  -6  -3   22.58    8.11
   3  -6  -2   21.80    7.80
   3  -6  -2   29.78    9.14
   3  -6  -1    2.09    3.17
   3  -6   0    4.73    5.37
   3  -6   1    4.03    2.96
   3  -6   2   -1.13    1.45
   3  -6   3  237.33   25.25
   3  -6   4    2.08    2.30
   3  -6   4    3.76    4.36
   3  -6   5   53.91   11.97
   3  -6   5   40.87   10.44
   3  -6   6   29.96    8.77
   3  -6   6   30.67    8.10
   3  -6   7    0.75    1.47
   3  -6   8    8.34    3.99
   3  -5  -7    4.91    3.03
   3  -5  -6    5.61    2.97
   3  -5  -5    8.82    5.42
   3  -5  -4    5.48    4.56
   3  -5  -3    5.15    3.37
   3  -5  -3   -1.97    3.35
   3  -5  -2    4.96    3.07
   3  -5  -2    6.71    4.25
   3  -5  -1    1.39    3.01
   3  -5   0   29.33   11.73
   3  -5   0   31.47    9.03
   3  -5   1   90.82   16.73
   3  -5   1   78.88   13.74
   3  -5   4    4.03    3.17
   3  -5   5    2.92    1.96
   3  -5   6    5.93    4.52
   3  -5   7    3.66    0.73
   3  -5   8    6.50    3.36
   3  -4  -7    2.98    2.78
   3  -4  -6    2.60    2.11
   3  -4  -4   30.93    9.05
   3  -4  -3   14.42    5.37
   3  -4  -3   23.90    6.97
   3  -4  -2   54.10   13.06
   3  -4  -1   33.35   17.16
   3  -4   0    0.00    2.67
   3  -4   1   32.35   15.32
   3  -4   2   53.39   21.82
   3  -4   3    9.10   13.09
   3  -4   4   -3.07    4.80
   3  -4   5    2.13    3.20
   3  -4   6   41.99   10.94
   3  -4   7   12.06    5.53
   3  -4   8    4.05    3.20
   3  -4   9    2.07    1.52
   3  -3  -8  -11.52    3.62
   3  -3  -7    8.08    4.05
   3  -3  -6  118.41   15.72
   3  -3  -3    6.42    7.44
   3  -3  -2   45.70   18.20
   3  -3  -1   85.62   24.49
   3  -3   0  298.16   44.82
   3  -3   1   13.09    9.48
   3  -3   3  128.18   28.31
   3  -3   4   98.97   27.74
   3  -3   5    2.14    2.22
   3  -3   5    4.62    4.11
   3  -3   6    2.51    0.81
   3  -3   7   34.21    9.47
   3  -3   8   24.67    6.97
   3  -3   9   -0.06    1.69
   3  -2  -8  -12.40    4.07
   3  -2  -7   20.89    7.94
   3  -2  -6    1.98    3.14
   3  -2  -5  161.94   18.26
   3  -2  -4   22.13   12.27
   3  -2  -3   24.09   12.27
   3  -2  -2   22.64   12.05
   3  -2  -1  222.42   35.53
   3  -2   0   -1.03    4.49
   3  -2   1  193.95   38.82
   3  -2   2  253.32   32.76
   3  -2   3   35.76   14.24
   3  -2   4  106.82   27.37
   3  -2   5   41.42    9.79
   3  -2   6   37.53    9.17
   3  -2   6   28.13    8.01
   3  -2   7    5.47    3.00
   3  -2   8    4.43    2.46
   3  -2   9    5.95    2.54
   3  -1  -9    7.75    3.36
   3  -1  -7   95.89   14.11
   3  -1  -6  428.81   30.74
   3  -1  -5  161.08   21.61
   3  -1  -5  193.79   37.17
   3  -1  -4   41.61   15.39
   3  -1  -3  151.10   27.23
   3  -1  -2  300.64   40.65
   3  -1  -1   43.67   14.60
   3  -1   0   76.35   20.94
   3  -1   1  141.34   21.96
   3  -1   1  145.95   29.72
   3  -1   2    7.73    6.78
   3  -1   3    6.59    5.65
   3  -1   4   56.21   20.42
   3  -1   5   21.53    7.53
   3  -1   6    4.29    1.87
   3  -1   7   69.42   12.16
   3  -1   7   60.86   11.23
   3  -1   8   35.20    7.64
   3  -1   9    2.41    1.95
   3   0  -9    2.07    2.09
   3   0  -8    4.12    3.52
   3   0  -7  390.52   27.49
   3   0  -7  385.32   25.78
   3   0  -6   34.94   10.01
   3   0  -5    8.75    5.90
   3   0  -4   20.07   11.38
   3   0  -4   17.36    9.66
   3   0  -3   28.85   11.41
   3   0  -2   38.96   13.07
   3   0  -2   46.24   14.63
   3   0  -1  347.47   40.39
   3   0  -1  381.82   40.02
   3   0   0   15.78    8.78
   3   0   0   13.23    8.68
   3   0   1  129.95   24.77
   3   0   1  124.90   22.77
   3   0   1  111.61   24.52
   3   0   2   11.73    8.19
   3   0   2   14.61    8.89
   3   0   3   59.28   19.43
   3   0   4   23.85   14.38
   3   0   5    4.77    3.89
  -3   0  -5    0.83    1.58
   3   0   6  178.29   21.13
  -3   0  -6  168.38   20.29
   3   0   7    6.40    3.58
  -3   0  -7    7.01    4.22
   3   0   8   -1.15    1.86
  -3   0  -8    0.23    0.88
   3   1 -10   15.47    4.25
   3   1  -9   36.25    6.60
   3   1  -8   55.28    9.78
   3   1  -7    2.64    3.37
   3   1  -6    8.64    3.77
   3   1  -6   20.37    6.26
   3   1  -5  362.21   48.21
   3   1  -4  214.14   31.45
   3   1  -3    3.23    5.03
   3   1  -2  736.32   56.72
   3   1  -1   35.29   13.36
   3   1  -1   38.51   12.27
   3   1   0  575.42   48.86
   3   1   0  573.69   45.23
   3   1   1  207.59   28.62
   3   1   1  219.94   31.12
   3   1   2    0.26    7.35
   3   1   3    2.78    5.00
  -3  -1  -4    2.41    3.49
   3   1   4    5.75   11.02
   3   1   5    4.06    4.39
  -3  -1  -5    4.34    2.81
   3   1   6  108.80   16.16
  -3  -1  -6  107.12   16.26
  -3  -1  -7   15.73    5.94
   3   1   8   -2.40    2.11
  -3  -1  -8   -0.11    0.88
   3   2 -10   14.51    4.24
   3   2  -9   -2.19    2.46
   3   2  -8    0.81    1.93
   3   2  -7  159.62   17.09
   3   2  -6   19.65    7.60
   3   2  -6   11.52    4.78
   3   2  -5   66.11   11.49
   3   2  -4  363.19   43.26
   3   2  -3   64.75   19.40
   3   2  -2   74.11   21.52
   3   2  -1   88.12   22.88
   3   2   0  161.66   27.99
  -3  -2  -1   19.70    8.38
   3   2   1   15.14    8.40
  -3  -2  -2   50.83   17.42
  -3  -2  -3    7.23    6.15
   3   2   3    9.34    4.47
  -3  -2  -3   14.25    6.11
   3   2   4   98.54   14.73
  -3  -2  -4  108.13   16.98
  -3  -2  -5   87.48   15.34
  -3  -2  -6   45.38   10.74
  -3  -2  -7    2.05    0.70
  -3  -2  -8    1.26    1.54
   3   3  -9    6.62    4.42
   3   3  -9    1.09    1.88
   3   3  -8    3.08    3.23
   3   3  -7   43.17    9.89
   3   3  -7   26.84    6.88
   3   3  -6   36.84    9.71
   3   3  -6   36.92    8.41
   3   3  -5   11.57    4.03
   3   3  -5   18.71    5.42
   3   3  -4  100.17   25.77
   3   3  -3   50.41   20.87
   3   3  -2   29.56   16.33
   3   3  -1    5.86    9.93
   3   3   0    2.72    5.17
   3   3   1  111.29   26.16
  -3  -3  -2   12.62    6.09
   3   3   2   10.21    4.50
  -3  -3  -2    3.42    5.91
  -3  -3  -3   29.92    8.81
   3   3   3   27.29    7.63
   3   3   4    2.52    1.30
  -3  -3  -4    7.64    6.42
  -3  -3  -5   -0.37    3.80
  -3  -3  -6   -0.96    3.66
  -3  -3  -7    0.95    1.33
   3   4  -9    0.22    0.63
   3   4  -8   -1.18    2.18
   3   4  -7   23.76    9.05
   3   4  -7   25.60    7.28
   3   4  -6   14.26    7.04
   3   4  -6   19.12    6.72
   3   4  -5   13.74    6.60
   3   4  -5   10.53    5.34
   3   4  -4    1.52    1.33
   3   4  -4    0.53    1.91
   3   4  -3  156.94   39.28
   3   4  -3  199.82   19.97
   3   4  -3  196.45   18.71
  -3  -4   2    3.57    5.88
   3   4  -2   -4.00    6.91
   3   4  -2   -1.51    2.97
   3   4  -1   13.36   11.88
   3   4   0   59.21   11.07
   3   4   0   28.88   16.96
   3   4   1   42.46    9.91
  -3  -4  -2    7.36    5.93
   3   4   2   10.25    6.26
  -3  -4  -3    4.48    6.28
   3   4   3    5.91    6.16
  -3  -4  -4   -2.01    2.42
   3   4   4    1.48    2.87
  -3  -4  -5   -2.15    3.37
  -3  -4  -6    9.36    3.46
   3   5  -9   24.31    5.18
   3   5  -8   46.60    8.24
   3   5  -7    5.62    3.55
   3   5  -7    2.91    2.44
   3   5  -6  109.48   16.32
   3   5  -6  107.42   14.85
   3   5  -5   27.02    8.29
   3   5  -5   29.38    7.61
   3   5  -4   37.62    9.75
   3   5  -4   26.46    7.82
   3   5  -3   14.09    6.52
   3   5  -3   14.68    5.68
   3   5  -2  150.34   18.41
   3   5  -1    0.55    2.47
   3   5   0    6.80    3.90
  -3  -5  -1   14.84    7.71
   3   5   1   27.25    8.89
  -3  -5  -2    5.27    3.59
   3   5   2   13.41    5.96
   3   5   3    4.64    4.46
  -3  -5  -3    7.31    6.54
   3   5   4   -0.16    1.14
  -3  -5  -4   -0.39    2.18
  -3  -5  -5   -2.29    1.86
   3   6  -8    9.98    3.10
   3   6  -7    6.16    3.46
   3   6  -7    6.21    3.37
   3   6  -6    0.50    1.14
   3   6  -6   -0.37    1.41
   3   6  -5    2.80    3.48
   3   6  -5    1.35    2.56
   3   6  -4   88.57   14.14
   3   6  -3  471.12   33.17
   3   6  -2    3.91    4.00
   3   6  -2    4.78    3.69
   3   6  -1   71.29   13.68
   3   6   0   73.21   13.67
  -3  -6   0   63.43   14.79
  -3  -6  -1   18.24    7.34
   3   6   1   13.63    6.67
   3   6   2    2.36    3.39
  -3  -6  -2    1.49    1.33
   3   6   3    2.74    1.06
  -3  -6  -3    3.56    2.70
  -3  -6  -4   29.38    6.52
   3   7  -7    9.69    3.21
   3   7  -6    8.74    3.83
   3   7  -5   22.80    6.49
   3   7  -4   65.79   11.89
   3   7  -3   65.54   11.91
   3   7  -3   79.44   13.45
   3   7  -2    3.21    2.55
   3   7  -2    2.32    4.17
  -3  -7   1    0.53    1.60
   3   7  -1    0.82    2.64
   3   7  -1   -0.31    1.96
   3   7   0    3.98    3.29
  -3  -7   0   10.74    4.26
   3   7   0    5.36    3.18
  -3  -7  -1    9.94    4.57
   3   7   1   11.47    4.88
   3   7   2   31.35    6.52
   3   8  -5    0.85    1.80
   3   8  -4    7.85    3.63
   3   8  -3    5.99    3.24
   3   8  -2    4.98    2.96
   3   8  -2    5.73    3.29
   3   8  -1    3.06    2.12
   3   8  -1    2.80    1.07
   3   8   0   27.66    5.95
   4  -8  -1    5.74    3.16
   4  -8   0   -2.40    2.46
   4  -8   1    4.33    2.61
   4  -8   2    4.95    3.09
   4  -8   3    2.86    2.07
   4  -8   4   10.52    3.78
   4  -7  -3    8.23    3.05
   4  -7  -2    7.68    3.38
   4  -7  -1    0.12    1.00
   4  -7   0    0.54    0.92
   4  -7   1    8.52    5.28
   4  -7   2   13.49    5.65
   4  -7   3   19.40    6.46
   4  -7   4   19.31    7.01
   4  -7   5    0.86    1.05
   4  -7   6    0.23    1.48
   4  -6  -5    8.52    3.18
   4  -6  -4    4.34    3.28
   4  -6  -4    1.72    2.18
   4  -6  -3    2.74    2.39
   4  -6  -3    6.68    4.06
   4  -6  -2   -1.46    2.47
   4  -6  -1    5.04    3.35
   4  -6   0    0.19    2.64
   4  -6   1   22.86    8.00
   4  -6   2    7.87    3.95
   4  -6   3    3.98    3.16
   4  -6   4    4.04    3.66
   4  -6   5    5.73    4.12
   4  -6   6    3.91    3.43
   4  -6   7    3.62    2.42
   4  -5  -6    3.72    2.46
   4  -5  -5   25.79    6.37
   4  -5  -4    1.89    2.65
   4  -5  -3   34.02    8.97
   4  -5  -3   40.78    9.43
   4  -5  -2    2.54    1.91
   4  -5  -2    5.39    3.81
   4  -5  -1    6.97    7.06
   4  -5  -1    5.82    3.65
   4  -5   0   31.87   11.18
   4  -5   0   28.11    8.57
   4  -5   1   -1.53    4.19
   4  -5   1    2.41    4.63
   4  -5   2    4.22    4.75
   4  -5   2    4.18    3.91
   4  -4  -7   -5.52    2.50
   4  -4  -6    0.83    2.50
   4  -4  -5   66.77   10.66
   4  -4  -4   26.87    7.61
   4  -4  -3    0.39    2.21
   4  -4  -3    1.74    1.23
   4  -4  -2    2.19    0.85
   4  -4  -2    5.23    5.89
   4  -4  -2    2.64    2.98
   4  -4  -1   -0.94    1.38
   4  -4  -1    3.96    3.70
   4  -4   0   47.67   12.95
   4  -4   0   57.79   11.84
   4  -4   1    3.26    1.16
   4  -4   2    2.79    4.51
   4  -3  -7    5.25    2.02
   4  -3  -6   93.34   13.11
   4  -3  -5  253.66   22.41
   4  -3  -4    0.36    2.36
   4  -3  -4   -1.19    3.79
   4  -3  -3   98.73   14.45
   4  -3  -3   96.00   18.68
   4  -3  -2   95.61   14.65
   4  -3  -2   95.65   19.70
   4  -3  -2  114.93   33.08
   4  -3  -1   32.13   11.07
   4  -3  -1   23.68   15.03
   4  -3   0   11.47   12.54
   4  -3   1   -0.69    3.10
   4  -3   2   55.10   11.98
   4  -3   2   50.76   20.81
   4  -3   3    4.81    3.17
   4  -3   4    7.95    4.90
   4  -3   5    3.02    3.51
   4  -2  -8   22.24    5.05
   4  -2  -7   27.32    6.39
   4  -2  -6   41.18    9.17
   4  -2  -6   30.88    8.63
   4  -2  -5  199.30   20.60
   4  -2  -5  183.85   20.97
   4  -2  -4    4.60    3.41
   4  -2  -4   -3.67    2.76
   4  -2  -3   39.21    8.71
   4  -2  -3   29.65    9.82
   4  -2  -2   75.38   26.28
   4  -2  -1  290.14   49.20
   4  -2   0  367.04   54.40
   4  -2   1   15.42   11.12
   4  -2   2   25.55   14.51
   4  -2   3    2.39    2.44
   4  -2   3    4.14    3.56
   4  -2   3    0.86    5.60
   4  -2   4   37.67   10.21
   4  -2   5    0.87    1.11
   4  -2   6    1.09    3.73
   4  -1  -8   18.39    5.65
   4  -1  -8   -3.47    2.92
   4  -1  -7    8.55    1.77
   4  -1  -7   22.86    9.26
   4  -1  -6    0.61    2.27
   4  -1  -6   15.51    7.78
   4  -1  -5    3.09    1.17
   4  -1  -5   12.55    6.50
   4  -1  -4   30.47    8.43
   4  -1  -4   31.00    8.48
   4  -1  -2  413.03   55.54
   4  -1  -1    5.48    5.33
   4  -1   0  121.46   28.39
   4  -1   1  121.68   28.93
   4  -1   2    0.25    3.92
   4  -1   3   67.57   13.83
   4  -1   3   68.90   12.77
   4  -1   4   41.99   11.15
   4  -1   5    7.70    5.27
   4  -1   6    0.50    0.99
   4  -1   7   18.56    6.35
   4   0  -9   -2.22    2.44
   4   0  -8   58.18   10.34
   4   0  -8   19.29    7.10
   4   0  -7   19.73    7.62
   4   0  -7   15.17    6.22
   4   0  -6   42.36    9.89
   4   0  -6   49.62   11.56
   4   0  -5   32.36    7.62
   4   0  -5   39.15    9.73
   4   0  -4    2.70    0.89
   4   0  -4   19.72    6.27
   4   0  -3  118.39   26.97
   4   0  -2   11.01    8.45
   4   0  -2   10.06    8.15
   4   0  -1   -0.74    2.13
   4   0  -1   -3.87    5.56
   4   0   0   -0.62    3.31
   4   0   0    0.71    2.75
   4   0   1    6.84    8.84
   4   0   1    7.74    8.74
   4   0   2  102.80   25.34
   4   0   3   41.15   10.37
   4   0   4   33.09   10.21
   4   0   5   45.99   11.51
   4   0   6   15.98    6.60
   4   0   7    1.89    2.75
   4   1  -9    1.81    0.49
   4   1  -8   13.67    6.61
   4   1  -7   38.58   12.91
   4   1  -7    0.64    0.91
   4   1  -6   33.97   10.71
   4   1  -6   16.03    6.82
   4   1  -5   63.72   12.10
   4   1  -5   51.06   10.91
   4   1  -5   53.91   11.02
   4   1  -4   14.22    7.59
   4   1  -4    2.86    5.86
   4   1  -4    4.35    3.10
   4   1  -4    5.98    3.31
   4   1  -3    0.73    3.48
   4   1  -2   24.76   12.47
   4   1  -1    4.02    4.73
   4   1   0   14.36    8.71
   4   1   1    2.93    4.61
   4   1   2   96.93   14.09
  -4  -1  -3   13.99    5.58
  -4  -1  -4    0.04    1.30
   4   1   5   50.13   12.77
  -4  -1  -5   56.63   11.22
   4   1   6    7.41    4.30
  -4  -1  -6    5.68    2.77
   4   1   7   -1.85    0.81
   4   2  -9    5.16    2.45
   4   2  -8   10.44    5.73
   4   2  -7    3.34    4.07
   4   2  -6   70.05   14.97
   4   2  -6   61.54   12.10
   4   2  -5   -5.53    2.85
   4   2  -5    6.12    4.19
   4   2  -4  147.86   17.00
   4   2  -4  139.04   16.25
   4   2  -3   10.69    8.13
   4   2  -3   17.12    5.89
   4   2  -3   19.47    6.36
   4   2  -2   81.36   24.93
   4   2  -1   10.20    8.71
   4   2   0   24.31   13.31
   4   2   1    4.54    3.61
  -4  -2  -2   -1.73    2.32
   4   2   2   -3.97    3.05
  -4  -2  -3    3.76    4.44
   4   2   3   -2.81    3.73
  -4  -2  -4   10.46    5.15
   4   2   5    5.01    3.89
  -4  -2  -5   -1.17    0.74
   4   2   6    0.85    0.79
  -4  -2  -6   -0.51    1.32
   4   3  -9   -0.52    0.89
   4   3  -8   64.55   10.57
   4   3  -8   70.15    9.07
   4   3  -7   33.31    8.71
   4   3  -7   43.80    8.37
   4   3  -6    9.02    4.36
   4   3  -6   13.79    5.96
   4   3  -6   12.07    4.99
   4   3  -5    2.84    2.29
   4   3  -5    8.31    4.21
   4   3  -4   55.21   10.61
   4   3  -4   51.83   10.09
   4   3  -3  225.15   21.34
   4   3  -3  231.92   22.83
   4   3  -2  169.74   20.37
   4   3  -1  122.57   16.75
   4   3   0  123.55   16.11
   4   3   1  187.06   21.25
   4   3   2   86.93   15.29
  -4  -3  -2   88.15   15.87
  -4  -3  -3    2.36    3.16
   4   3   3   -0.98    3.18
  -4  -3  -4   12.18    7.53
   4   3   5    1.06    1.96
  -4  -3  -5   -0.49    2.25
  -4  -3  -6    1.64    1.47
   4   4  -8    4.55    2.43
   4   4  -7    8.73    4.65
   4   4  -7    2.87    2.19
   4   4  -6   93.35   14.74
   4   4  -6   82.09   12.07
   4   4  -5    4.63    1.86
   4   4  -5    9.42    3.66
   4   4  -4   19.37    6.33
   4   4  -4   17.63    5.74
   4   4  -3  204.90   21.58
   4   4  -2  340.41   29.60
   4   4  -1  185.98   20.32
   4   4  -1  184.54   21.54
   4   4   0    4.06    3.59
  -4  -4  -1   -2.27    4.69
   4   4   1    3.15    3.40
  -4  -4  -2   34.74   10.00
   4   4   2   44.83   10.47
  -4  -4  -3    6.82    5.54
   4   4   3   12.02    5.34
  -4  -4  -4   12.74    5.79
   4   4   5   74.35    9.28
  -4  -4  -5   76.67   10.91
   4   5  -8    2.91    1.53
   4   5  -7    1.82    1.37
   4   5  -7    1.36    1.84
   4   5  -6   18.04    6.31
   4   5  -6   19.02    5.61
   4   5  -5   15.37    5.58
   4   5  -5   12.46    5.26
   4   5  -4   12.71    4.39
   4   5  -3  190.69   20.23
   4   5  -2   96.20   14.29
   4   5  -2   92.58   16.59
   4   5  -1   12.39    5.25
   4   5  -1   12.71    5.46
   4   5   0    1.31    2.67
  -4  -5  -1    1.81    3.33
   4   5   1    1.68    3.21
   4   5   2    5.69    5.04
  -4  -5  -2    4.31    3.78
  -4  -5  -3    6.40    4.87
   4   5   4    7.18    2.84
  -4  -5  -4   11.30    3.94
   4   6  -7    7.84    3.05
   4   6  -6    6.01    2.89
   4   6  -5    2.70    2.33
   4   6  -4    4.66    1.92
   4   6  -3   -0.11    2.76
   4   6  -2    3.57    2.62
   4   6  -2    1.04    2.45
   4   6  -1   15.90    5.74
   4   6  -1    9.53    5.20
  -4  -6   0    1.37    2.30
   4   6   0   -2.29    2.16
  -4  -6  -1   15.30    5.05
   4   6   1   20.25    6.30
  -4  -6  -2    4.98    3.01
   4   6   2    4.10    1.68
   4   7  -6    5.34    2.44
   4   7  -5    8.11    3.18
   4   7  -4    6.44    2.97
   4   7  -3    7.73    2.99
  -4  -7   2   33.85    7.79
   4   7  -2   29.32    6.37
   4   7  -2   16.15    4.90
  -4  -7   1    6.79    3.05
   4   7  -1    9.11    3.82
   4   7   0    2.80    2.03
  -4  -7   0    4.09    2.68
   5  -7  -1   -3.77    2.78
   5  -7   0    3.63    2.39
   5  -7   1    6.55    3.38
   5  -7   2    1.32    1.66
   5  -7   3    2.59    2.92
   5  -7   4   -2.00    2.28
   5  -6  -2    3.86    2.73
   5  -6  -1    9.45    4.32
   5  -6   0    1.92    2.84
   5  -6   1   -0.52    1.87
   5  -6   2    4.50    3.35
   5  -6   3    1.53    2.53
   5  -6   4    5.45    3.80
   5  -6   5    9.87    3.80
   5  -5  -5   12.07    3.66
   5  -5  -4   18.06    5.97
   5  -5  -3   22.88    6.94
   5  -5  -2   -0.09    1.05
   5  -5  -1    3.47    4.61
   5  -5  -1    5.94    4.02
   5  -5   0    9.71    6.72
   5  -5   0   11.90    5.10
   5  -5   1   30.53   11.37
   5  -5   1   28.96    8.40
   5  -5   2    6.34    4.58
   5  -5   2    7.07    5.74
   5  -5   3   43.05   10.19
   5  -4  -6    2.92    1.77
   5  -4  -5   11.25    4.00
   5  -4  -4   43.94    9.32
   5  -4  -3   19.93    6.77
   5  -4  -3   20.67    9.27
   5  -4  -2    5.87    5.42
   5  -4  -1   -0.85    2.87
   5  -4  -1   -1.33    1.26
   5  -4   0    3.33    3.46
   5  -4   0    4.82    3.39
   5  -4   1   -0.95    1.99
   5  -4   1    1.25    2.26
   5  -4   2   78.87   17.39
   5  -3  -7    7.00    2.83
   5  -3  -6   -0.38    1.83
   5  -3  -5  -15.16    5.06
   5  -3  -4    5.84    3.71
   5  -3  -4    1.09    0.74
   5  -3  -3   14.30    5.87
   5  -3  -3    8.73    5.77
   5  -3  -2    2.88    3.50
   5  -3  -1   38.75   12.53
   5  -3   0    3.74    3.78
   5  -3   0   10.77    6.68
   5  -3   1   12.61    7.01
   5  -3   2   35.58   10.53
   5  -3   3   10.14    5.47
   5  -2  -7   10.10    4.08
   5  -2  -6   -1.69    2.51
   5  -2  -6    9.83    5.36
   5  -2  -5    3.37    1.51
   5  -2  -5   27.27    8.43
   5  -2  -4    0.42    3.55
   5  -2  -4    4.54    5.23
   5  -2  -3  -14.17    6.13
   5  -2  -3   -2.86    5.17
   5  -2  -3   -2.48    2.68
   5  -2  -2   -6.99    4.61
   5  -2  -2   14.91    7.24
   5  -2  -1    5.95    4.45
   5  -2   0    9.05    5.02
   5  -2   1   39.56   10.57
   5  -2   2   11.61    8.23
   5  -2   2    1.42    2.01
   5  -2   3   24.20    8.21
   5  -2   3   28.87    8.71
   5  -2   4    7.00    5.43
   5  -2   5    7.71    4.25
   5  -1  -7   48.17    9.07
   5  -1  -7   17.34    6.49
   5  -1  -6   33.00    8.94
   5  -1  -6   41.07    9.82
   5  -1  -5  128.24   16.54
   5  -1  -5  127.14   18.55
   5  -1  -4  204.56   21.19
   5  -1  -4  230.61   22.93
   5  -1  -3   -1.44    2.08
   5  -1  -3    3.07    4.11
   5  -1  -3    4.23    4.55
   5  -1  -2   -1.96    1.83
   5  -1  -2   17.20    6.53
   5  -1  -2    9.87    5.99
   5  -1  -1   24.09    7.81
   5  -1  -1   47.69   11.32
   5  -1   0   95.32   15.38
   5  -1   1   30.20   10.19
   5  -1   2   48.47   11.39
   5  -1   2   32.27    8.69
   5  -1   3    6.92    5.37
   5  -1   3   -1.96    1.41
   5  -1   4    0.61    1.26
   5  -1   5    0.72    2.55
   5  -1   6    2.14    2.32
   5   0  -8    0.69    1.15
   5   0  -7    4.77    2.54
   5   0  -6  120.28   17.19
   5   0  -6   67.69   12.73
   5   0  -5   42.55   12.57
   5   0  -5    7.87    4.01
   5   0  -4   42.32   10.65
   5   0  -4   14.08    6.19
   5   0  -3   43.40   12.10
   5   0  -3    7.27    6.15
   5   0  -2  147.57   18.06
   5   0  -2  170.47   20.69
   5   0  -1  352.44   28.86
   5   0  -1  348.33   28.33
   5   0   0  133.95   18.28
   5   0   1  121.46   17.28
   5   0   1  117.26   15.83
   5   0   2    4.32    3.62
   5   0   2    2.29    3.67
   5   0   3   30.10    9.28
   5   0   3   24.17    8.10
   5   0   4    2.79    0.67
   5   0   5   27.93    7.89
   5   0   6    3.53    2.26
   5   1  -8    9.77    2.90
   5   1  -7   94.38   13.70
   5   1  -6   59.31   12.06
   5   1  -5    4.48    3.59
   5   1  -4   74.83   13.53
   5   1  -3   -2.80    3.17
   5   1  -3    0.32    3.43
   5   1  -2    8.72    5.45
   5   1  -2   -0.56    2.72
   5   1  -1  470.01   34.54
   5   1   0  106.17   15.92
   5   1   1   14.47    5.84
   5   1   2    9.74    6.08
   5   1   3   10.29    4.95
   5   1   4   38.21    9.64
   5   1   5    6.42    3.89
   5   1   6    2.23    2.17
   5   2  -8   31.36    6.67
   5   2  -7    3.07    3.13
   5   2  -6   -3.17    2.86
   5   2  -5  187.17   21.29
   5   2  -4   14.74    7.41
   5   2  -4   15.57    6.30
   5   2  -3   69.58   12.75
   5   2  -3   69.14   13.70
   5   2  -2  356.07   28.23
   5   2  -2  350.08   28.74
   5   2  -1  259.87   26.04
   5   2   0   53.68   11.02
   5   2   1    8.07    5.29
  -5  -2  -1   10.60    5.47
  -5  -2  -2   11.55    5.67
  -5  -2  -3   12.80    4.85
   5   2   4   15.36    5.73
  -5  -2  -4   11.07    3.92
   5   2   5   -0.09    0.38
  -5  -2  -5   -0.92    1.40
   5   3  -8   37.76    6.45
   5   3  -7   26.52    6.91
   5   3  -6    5.46    4.25
   5   3  -5    3.18    2.84
   5   3  -5   -2.91    3.45
   5   3  -4   37.95    9.12
   5   3  -4   32.98    8.87
   5   3  -3   34.01    9.52
   5   3  -3   13.07    5.06
   5   3  -2  201.72   21.78
   5   3  -1   57.83   12.68
   5   3   0   68.93   11.73
   5   3   0   64.01   12.27
  -5  -3  -1    5.05    3.59
  -5  -3  -2    1.89    2.19
  -5  -3  -3    9.15    4.57
   5   3   4    0.57    1.12
  -5  -3  -4    0.63    0.51
   5   3   5   13.62    3.83
   5   4  -6   -2.81    2.04
   5   4  -5   54.50    9.55
   5   4  -4   46.19    9.29
   5   4  -3  157.84   18.44
   5   4  -2   84.19   14.12
   5   4  -2   74.51   12.81
   5   4  -1    0.10    0.86
   5   4   0   16.47    5.93
  -5  -4  -1    0.68    3.40
  -5  -4  -2    2.26    2.27
  -5  -4  -3   11.87    4.68
   5   4   3    8.97    3.76
   5   4   4    2.77    2.02
  -5  -4  -4    6.70    3.10
   5   5  -6    2.17    2.31
   5   5  -5    2.96    1.99
   5   5  -4    3.61    3.17
   5   5  -3   -4.47    3.41
   5   5  -3    0.01    1.75
   5   5  -1    0.12    1.02
  -5  -5   0    7.61    4.53
   5   5   0    5.81    2.79
  -5  -5  -1   44.57    8.97
  -5  -5  -2    7.68    3.35
   5   6  -5    3.57    2.24
   5   6  -4    6.09    2.69
   5   6  -3    5.00    2.35
  -5  -6   2   16.52    6.10
  -5  -6   1   32.48    7.75
  -5  -6   0    5.13    2.05
   6  -6   0    1.03    0.73
   6  -6   1    4.33    2.62
   6  -6   2    1.65    1.13
   6  -6   3   12.08    4.00
   6  -5   0    1.61    3.69
   6  -5   0    0.94    1.52
   6  -5   1    7.47    6.24
   6  -5   1    8.84    4.19
   6  -5   2    4.06    3.25
   6  -5   3    0.39    1.43
   6  -5   4    1.09    1.79
   6  -4  -4   26.74    6.11
   6  -4  -2   10.65    6.49
   6  -4  -1   17.04    7.83
   6  -4   0   13.86    7.76
   6  -4   1    0.42    2.64
   6  -4   1    2.79    2.50
   6  -4   2   12.60    5.30
   6  -4   2   17.94    7.26
   6  -4   3    2.69    1.29
   6  -3  -5   29.93    6.76
   6  -3  -4   23.72    6.58
   6  -3  -3   14.16    7.01
   6  -3  -2    6.62    4.86
   6  -3  -1   -1.02    4.32
   6  -3   0   46.10   10.96
   6  -3   0   38.37   12.59
   6  -3   1   -2.92    4.49
   6  -3   1   -1.07    4.08
   6  -3   2   19.96    9.14
   6  -2  -5  123.53   14.12
   6  -2  -5  122.32   14.13
   6  -2  -4   31.29    9.10
   6  -2  -4    5.29    4.08
   6  -2  -3   91.75   13.14
   6  -2  -3   30.63    9.71
   6  -2  -2    5.93    4.31
   6  -2  -2   -1.43    4.99
   6  -2  -1   21.43    7.65
   6  -2   0   10.87    6.38
   6  -2   1    9.74    6.32
   6  -2   2   12.05    5.06
   6  -2   3    4.21    3.09
   6  -1  -6   27.03    7.44
   6  -1  -5   22.03    7.64
   6  -1  -4   28.01    8.95
   6  -1  -3   54.73   11.14
   6  -1  -3   38.73   11.16
   6  -1  -2   28.34    9.51
   6  -1  -1   47.77   11.40
   6  -1   0  303.74   27.88
   6  -1   1   28.13    9.57
   6  -1   2   16.10    6.87
   6  -1   2   20.02    6.22
   6  -1   3    9.99    4.59
   6  -1   4    2.97    2.66
   6  -1   5    2.15    1.96
   6   0  -7   48.04    7.31
   6   0  -6   30.77    7.62
   6   0  -5   51.32   10.92
   6   0  -4    6.69    3.84
   6   0  -4   24.48    9.44
   6   0  -3   38.03    9.62
   6   0  -3   61.17   13.94
   6   0  -2    4.10    1.54
   6   0  -1   86.83   15.05
   6   0   0   51.06   12.99
   6   0   1    4.40    6.06
   6   0   2   29.88    8.17
   6   0   2   24.32    7.17
   6   0   3   21.27    6.45
   6   0   4    2.00    2.32
   6   0   5   16.75    4.74
   6   1  -7   14.47    4.48
   6   1  -6   -0.31    1.48
   6   1  -6   10.99    5.33
   6   1  -5    0.49    1.75
   6   1  -5   16.64    6.57
   6   1  -4   -2.21    3.64
   6   1  -4   20.88    8.17
   6   1  -3   26.67    7.69
   6   1  -2   87.09   14.96
   6   1  -1    4.33    4.86
   6   1   0  142.68   19.35
   6   1   1   -0.45    2.84
   6   1   1    1.01    0.87
   6   1   2    4.71    3.75
   6   1   2    5.96    2.99
   6   1   3    5.81    3.62
   6   1   4    6.16    3.61
   6   2  -7   32.21    5.71
   6   2  -6   -3.70    2.90
   6   2  -6   13.40    5.44
   6   2  -5   -2.00    3.34
   6   2  -5   24.69    8.03
   6   2  -4   11.73    3.84
   6   2  -3   -0.69    0.80
   6   2  -2   27.38    9.17
   6   2  -1    5.85    4.40
   6   2   0   13.28    5.97
   6   2   1    5.48    4.20
   6   2   1    6.24    4.00
   6   2   2    3.06    2.03
   6   2   3   20.64    5.72
   6   2   4    3.85    2.30
   6   3  -6   16.21    4.76
   6   3  -5   -1.72    2.86
   6   3  -4   14.43    4.62
   6   3  -3   16.48    4.53
   6   3  -2    0.03    2.86
   6   3  -1    6.72    3.86
  -6  -3   0   12.04    6.14
  -6  -3  -1   -1.46    1.16
   6   3   1    1.15    1.78
  -6  -3  -2    8.35    3.66
   6   3   2    4.32    2.36
   6   3   3   -2.37    1.92
   6   4  -5   15.95    4.48
   6   4  -4    3.60    2.52
   6   4  -3    6.03    3.15
   6   4  -2    1.98    1.81
  -6  -4   1   12.44    5.06
  -6  -4   0    5.64    3.18
  -6  -4  -1   29.03    6.19
   6   4   1   26.73    5.48
  -6  -5   3   -0.65    1.09
  -6  -5   2    9.90    3.92
  -6  -5   1   26.70    5.51
   7  -4  -1    0.18    1.09
   7  -4   0    2.03    2.22
   7  -4   1    3.32    2.96
   7  -3  -2    4.58    3.18
   7  -3  -1    1.69    2.77
   7  -3   0    2.15    3.09
   7  -3   1   28.85    8.40
   7  -3   2   16.59    5.39
   7  -2  -3   16.88    5.86
   7  -2  -2    2.37    3.38
   7  -2  -1   -0.54    2.00
   7  -2  -1   -1.65    3.37
   7  -2   0   14.81    4.95
   7  -2   0   14.34    7.06
   7  -2   1   -3.81    3.71
   7  -2   2    0.64    0.79
   7  -1  -3    5.88    4.37
   7  -1  -3    0.96    2.00
   7  -1  -2    9.22    5.02
   7  -1  -2    4.89    3.54
   7  -1  -1   20.32    6.96
   7  -1   0    5.92    4.19
   7  -1   1    2.45    1.22
   7   0  -4   17.61    5.39
   7   0  -3    8.12    4.13
   7   0  -3    1.84    1.57
   7   0  -2    5.40    3.42
   7   0  -1    7.95    4.44
   7   0   0    8.43    3.76
   7   0   1    6.26    3.04
   7   1  -4    4.52    3.42
   7   1  -3    4.48    3.65
   7   1  -3    0.28    1.22
   7   1  -2    5.81    3.95
   7   1  -1   21.82    5.99
   7   1   0   20.98    6.06
   7   1   1   17.27    4.53
   7   2  -4    3.46    2.66
   7   2  -3    3.23    2.88
   7   2  -2    3.03    2.64
   7   2  -1    4.24    2.54
   7   2   0   24.27    5.50
   0   0   0    0.00    0.00


TITL MN-24h2scaledfiltered in P-1
REM P-1 (#2 in standard setting)
CELL 1.54184   6.225034   7.862445   8.743328 103.8524  94.7529  95.5484
ZERR    2.00   0.001405   0.002539   0.001835   0.0234   0.0180   0.0223
LATT  1
SFAC C H N O F
UNIT 14.00 12.00 2.00 6.00 6.00
TREF
HKLF 4
END
_computing_structure_solution     'SHELXT 2014/5 (Sheldrick, 2014)'
;
_shelx_hkl_checksum              45812
_ins_header
;
TITL MN-24h2scaledfiltered in P-1 
REM P-1 (#2 in standard setting)
CELL 1.54184   6.225034   7.862445   8.743328 103.8524  94.7529  95.5484
ZERR    2.00   0.001405   0.002539   0.001835   0.0234   0.0180   0.0223
LATT  1
SFAC C H N O F
UNIT 14.00 12.00 2.00 6.00 6.00
TREF
HKLF 4
END
;
_olex2_date_sample_data_collection 2019-05-30
_olex2_date_sample_submission    2019-05-29
_olex2_diffrn_ambient_temperature_device 'Oxford Cryosystems'
_olex2_exptl_crystal_mounting_method
'The crystal was mounted on a MITIGEN holder with oil'
_olex2_submission_special_instructions 'No special instructions were received'
_oxdiff_exptl_absorpt_empirical_details
;
Empirical correction (ABSPACK) includes:
- Absorption correction using spherical harmonics
- Frame scaling
;
_oxdiff_exptl_absorpt_empirical_full_max 1.649
_oxdiff_exptl_absorpt_empirical_full_min 0.646
loop_
_space_group_symop_operation_xyz
'x, y, z'
'-x, -y, -z'
loop_
_atom_site_label
_atom_site_type_symbol
_atom_site_fract_x
_atom_site_fract_y
_atom_site_fract_z
_atom_site_U_iso_or_equiv
_atom_site_adp_type
_atom_site_occupancy
_atom_site_site_symmetry_order
_atom_site_calc_flag
_atom_site_refinement_flags_posn
_atom_site_refinement_flags_adp
_atom_site_refinement_flags_occupancy
_atom_site_disorder_assembly
_atom_site_disorder_group
F1 F 1.2115(7) 0.8673(6) 0.6227(5) 0.0597(13) Uani 1 1 d . . . . .
F2 F 1.2008(7) 0.9353(5) 0.3988(6) 0.0562(12) Uani 1 1 d . . . . .
F3 F 1.3734(6) 0.7233(5) 0.4369(5) 0.0430(10) Uani 1 1 d . . . . .
O2 O 0.9793(7) 0.6005(6) 0.2578(5) 0.0395(11) Uani 1 1 d . . . . .
O3 O 0.8515(7) 0.6509(6) 0.4968(5) 0.0356(10) Uani 1 1 d . . . . .
C6 C 0.9842(9) 0.6694(7) 0.4027(7) 0.0301(12) Uani 1 1 d . . . . .
C7 C 1.1945(10) 0.7993(8) 0.4650(7) 0.0346(13) Uani 1 1 d . . . . .
O1 O 0.1051(7) 0.1975(6) 0.1947(5) 0.0421(12) Uani 1 1 d . . . . .
H1 H 0.127896 0.246109 0.289594 0.063 Uiso 1 1 calc GR . . . .
N1 N 0.6369(8) 0.3739(7) 0.1263(6) 0.0358(12) Uani 1 1 d . . . . .
H1A H 0.748617 0.443123 0.177709 0.043 Uiso 1 1 calc R . . . .
C1 C 0.4638(10) 0.3455(7) 0.2041(7) 0.0326(13) Uani 1 1 d . . . . .
H1B H 0.467160 0.399750 0.311373 0.039 Uiso 1 1 calc R . . . .
C2 C 0.2794(10) 0.2343(8) 0.1233(7) 0.0317(13) Uani 1 1 d . . . . .
C3 C 0.2826(10) 0.1563(8) -0.0353(7) 0.0383(14) Uani 1 1 d . . . . .
H3 H 0.161523 0.082317 -0.091614 0.046 Uiso 1 1 calc R . . . .
C4 C 0.4653(11) 0.1866(9) -0.1132(7) 0.0408(15) Uani 1 1 d . . . . .
H4 H 0.467753 0.132499 -0.219932 0.049 Uiso 1 1 calc R . . . .
C5 C 0.6420(10) 0.2991(8) -0.0269(7) 0.0375(14) Uani 1 1 d . . . . .
H5 H 0.764450 0.322592 -0.076019 0.045 Uiso 1 1 calc R . . . .
loop_
_atom_site_aniso_label
_atom_site_aniso_U_11
_atom_site_aniso_U_22
_atom_site_aniso_U_33
_atom_site_aniso_U_23
_atom_site_aniso_U_13
_atom_site_aniso_U_12
F1 0.043(2) 0.080(3) 0.037(2) -0.011(2) 0.0135(17) -0.030(2)
F2 0.043(2) 0.042(2) 0.086(3) 0.027(2) 0.009(2) -0.0109(17)
F3 0.0246(18) 0.051(2) 0.053(2) 0.0099(18) 0.0144(15) -0.0019(15)
O2 0.028(2) 0.054(3) 0.030(2) 0.003(2) 0.0082(16) -0.0140(19)
O3 0.027(2) 0.044(2) 0.034(2) 0.0071(18) 0.0144(17) -0.0074(17)
C6 0.020(3) 0.034(3) 0.034(3) 0.007(2) 0.004(2) -0.002(2)
C7 0.027(3) 0.039(3) 0.037(3) 0.010(2) 0.009(2) -0.008(2)
O1 0.036(3) 0.047(3) 0.039(2) 0.006(2) 0.0153(19) -0.014(2)
N1 0.028(3) 0.038(3) 0.038(3) 0.009(2) 0.004(2) -0.011(2)
C1 0.036(3) 0.032(3) 0.030(3) 0.008(2) 0.014(2) -0.003(2)
C2 0.031(3) 0.035(3) 0.032(3) 0.012(2) 0.017(2) -0.002(2)
C3 0.035(3) 0.042(3) 0.034(3) 0.007(3) 0.013(3) -0.012(3)
C4 0.039(3) 0.047(4) 0.033(3) 0.008(3) 0.007(3) -0.013(3)
C5 0.030(3) 0.043(3) 0.038(3) 0.010(3) 0.013(2) -0.011(2)
loop_
_atom_type_symbol
_atom_type_description
_atom_type_scat_dispersion_real
_atom_type_scat_dispersion_imag
_atom_type_scat_source
C C 0.0181 0.0091 'International Tables Vol C Tables 4.2.6.8 and 6.1.1.4'
H H 0.0000 0.0000 'International Tables Vol C Tables 4.2.6.8 and 6.1.1.4'
F F 0.0727 0.0534 'International Tables Vol C Tables 4.2.6.8 and 6.1.1.4'
N N 0.0311 0.0180 'International Tables Vol C Tables 4.2.6.8 and 6.1.1.4'
O O 0.0492 0.0322 'International Tables Vol C Tables 4.2.6.8 and 6.1.1.4'
loop_
_exptl_crystal_face_index_h
_exptl_crystal_face_index_k
_exptl_crystal_face_index_l
_exptl_crystal_face_perp_dist
1 -4 5 0.0055
1 4 0 0.0331
-1 -4 0 0.0331
3 -3 -3 0.0116
-3 3 3 0.0116
-1 4 -5 0.0055
loop_
_geom_angle_atom_site_label_1
_geom_angle_atom_site_label_2
_geom_angle_atom_site_label_3
_geom_angle
_geom_angle_site_symmetry_1
_geom_angle_site_symmetry_3
_geom_angle_publ_flag
O2 C6 C7 111.0(5) . . ?
O3 C6 O2 130.5(5) . . ?
O3 C6 C7 118.5(5) . . ?
F1 C7 C6 112.4(4) . . ?
F2 C7 F1 106.7(5) . . ?
F2 C7 C6 111.3(5) . . ?
F3 C7 F1 105.9(5) . . ?
F3 C7 F2 107.5(4) . . ?
F3 C7 C6 112.6(5) . . ?
C2 O1 H1 109.5 . . ?
C1 N1 H1A 118.6 . . ?
C5 N1 H1A 118.6 . . ?
C5 N1 C1 122.7(5) . . ?
N1 C1 H1B 120.1 . . ?
N1 C1 C2 119.9(5) . . ?
C2 C1 H1B 120.1 . . ?
O1 C2 C1 122.7(5) . . ?
O1 C2 C3 119.4(5) . . ?
C3 C2 C1 117.9(5) . . ?
C2 C3 H3 119.5 . . ?
C2 C3 C4 121.1(5) . . ?
C4 C3 H3 119.5 . . ?
C3 C4 H4 120.9 . . ?
C5 C4 C3 118.2(6) . . ?
C5 C4 H4 120.9 . . ?
N1 C5 C4 120.2(5) . . ?
N1 C5 H5 119.9 . . ?
C4 C5 H5 119.9 . . ?
loop_
_geom_bond_atom_site_label_1
_geom_bond_atom_site_label_2
_geom_bond_distance
_geom_bond_site_symmetry_2
_geom_bond_publ_flag
F1 C7 1.345(7) . ?
F2 C7 1.331(7) . ?
F3 C7 1.327(7) . ?
O2 C6 1.249(7) . ?
O3 C6 1.236(7) . ?
C6 C7 1.553(7) . ?
O1 H1 0.8200 . ?
O1 C2 1.338(6) . ?
N1 H1A 0.8600 . ?
N1 C1 1.350(7) . ?
N1 C5 1.332(8) . ?
C1 H1B 0.9300 . ?
C1 C2 1.399(8) . ?
C2 C3 1.378(8) . ?
C3 H3 0.9300 . ?
C3 C4 1.403(8) . ?
C4 H4 0.9300 . ?
C4 C5 1.384(8) . ?
C5 H5 0.9300 . ?
loop_
_exptl_oxdiff_crystal_face_indexfrac_h
_exptl_oxdiff_crystal_face_indexfrac_k
_exptl_oxdiff_crystal_face_indexfrac_l
_exptl_oxdiff_crystal_face_x
_exptl_oxdiff_crystal_face_y
_exptl_oxdiff_crystal_face_z
0.8751 -3.5085 4.7339 -0.4297 -0.9029 -0.0091
1.3768 4.3564 0.2312 -0.7260 0.6877 -0.0090
-1.3768 -4.3564 -0.2312 0.7260 -0.6877 0.0090
2.9133 -2.6619 -2.5659 0.2220 -0.2129 0.9515
-2.9133 2.6619 2.5659 -0.2220 0.2129 -0.9515
-0.8751 3.5085 -4.7339 0.4297 0.9029 0.0091
loop_
_hkl_oxdiff_h
_hkl_oxdiff_k
_hkl_oxdiff_l
_hkl_oxdiff_f2
_hkl_oxdiff_sig
_hkl_oxdiff_ba
0 0 1 20267.5 1372.33 2
0 0 2 34513.2 2501.21 2
0 0 3 31051.0 2967.10 2
0 0 4 2767.29 1083.59 2
0 0 5 9061.58 2319.77 2
0 0 6 2303.50 1380.16 2
0 0 -7 -111.259 157.388 9
0 0 -7 655.690 415.893 10
0 0 -8 4128.55 927.870 10
0 0 -8 3885.22 1045.01 9
0 0 -9 -57.8185 137.487 10
0 0 10 631.906 307.827 8
0 0 -10 625.534 275.285 10
0 1 -10 299.686 234.683 10
0 -1 10 92.7648 173.269 8
0 -1 9 995.827 443.499 8
0 1 -9 1374.64 505.242 10
0 1 -8 2776.06 769.844 10
0 1 -7 1391.09 511.475 10
0 1 -7 1638.17 754.270 9
0 -1 6 4161.25 2176.30 2
0 -1 5 17241.9 2986.46 2
0 -1 4 32466.0 3677.26 2
0 -1 3 7766.59 1523.86 2
0 -1 2 106536. 4489.99 2
0 -1 1 -45.7473 190.672 2
0 -1 1 -130.586 115.274 1
0 -1 0 300.571 145.239 1
0 -1 0 270.114 101.895 3
0 1 1 9492.74 1502.63 2
0 -1 -1 11036.2 1151.13 1
0 1 2 13463.1 1913.09 2
0 1 3 82597.8 5686.35 2
0 1 4 11929.8 2560.74 2
0 1 5 90681.9 8288.47 2
0 -1 -5 91594.7 6474.66 1
0 -1 -6 4320.61 1007.19 9
0 -1 -6 2981.57 1391.05 1
0 -1 -7 41.5740 209.922 9
0 -1 -8 586.585 474.606 9
0 -1 -8 603.810 456.505 10
0 -1 -9 792.406 359.119 10
0 -1 -10 459.316 243.525 10
0 -2 10 1467.29 421.300 8
0 2 -10 2133.92 491.929 10
0 2 -9 1145.68 475.447 10
0 -2 9 481.453 279.983 8
0 2 -8 2419.67 687.787 10
0 -2 8 1498.95 522.701 8
0 2 -7 1500.74 564.124 10
0 -2 6 806.333 686.083 2
0 -2 5 604.271 711.512 2
0 -2 4 1335.32 603.001 2
0 -2 3 6450.41 1415.97 2
0 -2 2 139350. 5635.09 2
0 -2 1 -204.824 269.832 2
0 -2 1 171.332 291.310 1
0 -2 0 152073. 4730.01 1
0 -2 0 151071. 3546.61 3
0 -2 -1 5677.52 1088.53 1
0 -2 -2 2479.22 802.540 1
0 -2 -3 40800.1 3980.08 1
0 -2 -4 1328.37 1572.11 1
0 -2 -5 930.503 684.817 1
0 -2 -6 5146.84 1117.16 9
0 -2 -7 597.011 450.860 9
0 -2 -8 191.553 220.242 9
0 -2 -8 397.956 225.375 10
0 -2 -9 551.392 308.842 10
0 -3 10 880.857 384.606 8
0 3 -10 699.430 232.757 10
0 3 -9 -64.5438 188.324 10
0 -3 9 343.340 300.247 8
0 3 -8 349.936 393.051 10
0 -3 8 -123.895 126.134 8
0 -3 7 4547.80 1056.68 8
0 3 -7 5808.07 1037.79 10
0 -3 6 2492.24 1474.84 2
0 -3 5 12.2667 130.277 2
0 -3 4 1278.11 753.328 2
0 -3 3 6727.49 1649.60 2
0 -3 2 2195.29 842.336 2
0 -3 2 1847.96 843.657 1
0 -3 1 28854.3 2047.54 3
0 -3 1 34866.8 3010.49 1
0 -3 1 39225.3 3304.87 2
0 -3 0 5738.78 1214.48 1
0 -3 -1 1287.46 677.055 1
0 -3 -2 7690.35 1726.95 1
0 -3 -3 25131.5 3434.73 1
0 -3 -4 5292.93 1784.21 1
0 -3 -5 134.203 249.929 6
0 -3 -5 59.4297 129.808 9
0 -3 -6 -32.9786 179.496 9
0 -3 -7 302.840 391.343 9
0 -3 -8 358.048 157.859 10
0 -3 -8 440.571 342.497 9
0 -3 -9 259.796 143.308 10
0 4 -10 748.739 294.154 10
0 -4 10 232.053 212.444 8
0 4 -9 5995.12 963.691 10
0 -4 9 3621.18 848.240 8
0 -4 8 9489.55 1601.03 8
0 4 -8 9996.69 1331.78 10
0 4 -7 3194.47 757.733 10
0 -4 7 2615.67 886.778 8
0 -4 6 5088.18 1099.54 8
0 4 -6 4867.74 941.122 10
0 -4 5 477.533 1016.92 2
0 -4 4 4074.11 1487.49 2
0 -4 3 20494.6 3022.26 2
0 -4 2 37669.8 4115.15 1
0 -4 1 2662.80 992.381 1
0 -4 1 3445.00 1263.42 2
0 -4 0 20963.3 2955.28 1
0 -4 -1 5675.03 1588.95 1
0 -4 -2 4157.86 1496.77 1
0 -4 -3 3967.47 1581.45 1
0 -4 -4 4765.10 1083.35 6
0 -4 -5 212.781 341.882 9
0 -4 -6 1946.76 730.095 9
0 -4 -7 1346.63 602.069 9
0 -4 -8 113.664 70.1597 10
0 -5 10 229.413 150.838 8
0 5 -9 1744.30 506.628 10
0 -5 9 1518.27 608.026 8
0 -5 8 1336.25 613.406 8
0 5 -8 2476.86 696.066 10
0 -5 7 -85.5219 270.360 8
0 5 -7 12.2939 241.877 10
0 -5 6 69.0811 255.116 8
0 5 -6 299.977 343.775 10
0 -5 5 5808.58 1190.25 8
0 5 -5 5371.82 994.115 10
0 -5 4 9755.51 2577.03 2
0 -5 3 17158.9 3288.20 2
0 -5 2 -116.163 336.367 1
0 -5 2 503.826 687.688 2
0 -5 1 835.421 673.491 1
0 -5 1 331.510 165.192 2
0 -5 0 2353.29 1290.77 1
0 -5 -1 16080.7 3284.86 1
0 -5 -2 19748.6 3765.19 1
0 -5 -2 20567.8 2245.83 6
0 -5 -3 4299.15 1038.38 6
0 -5 -4 792.066 318.752 6
0 -5 -5 3078.18 999.464 14
0 -5 -6 304.802 214.269 14
0 -6 9 397.003 246.576 8
0 -6 8 -93.0030 196.151 8
0 6 -8 -254.345 252.110 10
0 -6 7 173.902 205.693 8
0 6 -7 35.1430 120.159 10
0 -6 6 2262.48 871.364 8
0 6 -6 3310.71 831.742 10
0 -6 5 -114.076 232.925 8
0 6 -5 179.492 187.096 10
0 -6 4 381.536 468.679 8
0 6 -4 249.980 217.258 10
0 -6 3 964.118 574.613 8
0 6 -3 559.472 406.277 10
0 -6 2 14818.0 3551.16 2
0 -6 2 17317.2 2338.63 8
0 -6 2 11905.6 3313.32 1
0 -6 1 2447.35 896.483 8
0 -6 1 3610.64 1742.57 2
0 -6 1 1534.61 1335.70 1
0 6 0 1395.67 620.479 15
0 -6 0 827.797 467.603 6
0 6 1 -185.452 138.927 15
0 -6 -1 438.655 424.032 6
0 -6 -2 1364.95 646.426 6
0 6 2 1695.35 694.912 15
0 -6 -3 501.540 426.514 6
0 -6 -4 1570.33 641.507 6
0 -6 -5 187.193 219.736 14
0 -7 8 769.556 412.088 8
0 -7 7 1070.26 526.900 8
0 -7 6 410.415 426.791 8
0 7 -6 205.396 176.523 10
0 -7 5 1206.87 643.166 8
0 7 -5 1036.23 420.521 10
0 -7 4 221.631 303.753 8
0 -7 3 461.722 485.874 8
0 7 -2 332.838 433.992 15
0 -7 2 637.560 699.228 8
0 7 -1 223.756 395.606 15
0 7 0 3660.85 1053.31 15
0 7 1 1070.44 494.641 15
0 -7 -1 723.925 431.826 6
0 -7 -2 243.355 244.164 6
0 7 2 716.257 502.313 15
0 -7 -3 18046.7 1975.92 6
0 -7 -4 615.140 328.602 14
0 -8 7 216.579 244.577 8
0 -8 6 -81.6499 146.234 8
0 -8 5 3312.18 933.367 8
0 8 -5 2857.03 760.515 15
0 -8 4 372.868 318.887 8
0 8 -4 175.851 177.615 15
0 8 -3 256.845 97.0556 15
0 8 -2 2318.51 868.787 15
0 8 -1 399.120 367.923 15
0 8 0 111.206 235.036 15
0 8 1 2383.32 817.748 15
0 -8 -1 2242.10 623.172 6
0 -8 -3 -61.5782 84.6396 14
0 9 -5 -24.8567 63.0020 15
0 9 -4 -15.5543 97.6326 15
0 9 -4 101.538 87.5398 11
0 9 -3 113.782 113.405 15
0 9 -2 -34.9813 150.047 15
0 9 -1 126.531 228.094 15
0 9 0 -222.180 245.166 15
0 -9 0 56.0401 82.9095 14
-1 9 0 1005.73 395.858 15
-1 9 -1 803.680 441.431 15
-1 9 -2 -168.989 148.105 15
-1 9 -3 303.596 175.814 15
-1 9 -4 114.830 77.9699 15
-1 9 -5 90.4103 72.5442 15
1 -8 -3 -71.3760 66.8032 14
1 -8 -2 148.136 94.5515 6
1 -8 -2 514.501 227.484 14
1 -8 -1 72.0854 192.464 6
1 -8 -1 519.597 321.282 14
-1 8 1 136.026 211.401 15
-1 8 0 806.483 494.480 15
1 -8 0 1795.69 578.032 6
-1 8 -1 3034.63 891.052 15
-1 8 -2 1065.94 591.599 15
1 -8 3 7437.03 1562.10 8
1 -8 4 286.538 337.965 8
1 -8 5 184.294 293.265 8
1 -8 6 169.235 177.042 8
1 -8 7 555.344 326.525 8
1 -7 -4 941.712 436.240 6
1 -7 -4 860.228 332.792 14
1 -7 -3 -90.1399 143.034 14
1 -7 -3 -155.162 102.539 6
1 -7 -2 4645.03 1104.52 6
-1 7 1 106.655 221.637 15
1 -7 -1 -182.312 260.462 6
1 -7 0 293.451 214.702 6
-1 7 0 1062.50 591.221 15
1 -7 1 7820.47 1291.17 6
1 -7 2 847.286 535.808 8
1 -7 3 201.277 105.076 8
1 -7 4 -3.42117 165.023 8
1 -7 5 381.879 379.704 8
1 -7 6 -140.888 135.513 8
1 -7 7 202.938 344.211 8
1 -7 8 205.513 201.145 8
1 -6 -5 1391.98 500.083 14
1 -6 -4 380.906 193.204 6
1 -6 -4 -98.1049 302.090 14
1 -6 -3 1615.84 653.425 6
1 -6 -2 1669.74 737.083 6
-1 6 1 2444.22 777.724 15
1 -6 -1 1875.13 596.867 6
1 -6 0 1596.79 671.841 6
1 -6 1 2515.20 740.875 6
1 -6 1 1991.76 1156.32 2
1 -6 1 2784.24 912.675 8
1 -6 2 1288.13 978.616 2
1 -6 2 1346.45 567.072 8
1 -6 3 1159.94 569.518 8
1 -6 4 -173.586 409.085 8
1 -6 5 893.406 551.811 8
1 -6 6 931.873 526.507 8
1 -6 7 636.317 488.176 8
1 -6 8 -18.1944 112.491 8
1 -6 9 -89.7129 269.838 8
1 -5 -7 453.248 254.216 10
1 -5 -6 434.023 311.744 14
1 -5 -5 241.839 83.3275 14
1 -5 -5 449.812 311.187 6
1 -5 -4 965.916 531.691 6
1 -5 -3 1515.22 630.268 6
1 -5 -2 6445.62 2033.11 1
1 -5 -2 5538.62 1060.83 6
1 -5 -1 757.917 952.097 1
1 -5 0 423.732 729.036 1
1 -5 0 -247.322 232.524 2
1 -5 1 8127.19 2283.18 1
1 -5 1 8361.92 2075.97 2
1 -5 2 13005.2 2849.89 1
1 -5 2 14875.1 2894.19 2
1 -5 3 1232.36 903.511 2
1 -5 4 54.3463 249.997 2
1 -5 5 1162.19 594.443 8
1 -5 6 475.896 283.361 8
1 -5 7 -151.271 221.623 8
1 -5 8 758.155 493.160 8
1 -5 9 -47.8048 93.3372 8
1 -5 10 91.9666 183.223 8
1 -4 -8 330.852 146.416 10
1 -4 -6 1973.18 862.229 14
1 -4 -5 7560.37 1304.79 6
1 -4 -5 5377.68 1158.98 14
1 -4 -4 1973.38 579.646 6
1 -4 -3 2562.29 1209.73 1
1 -4 -2 487.529 571.326 1
1 -4 -1 35983.2 3980.21 1
1 -4 0 32645.8 3740.97 1
1 -4 0 30824.3 3419.51 2
1 -4 1 16888.5 2593.36 2
1 -4 1 16717.7 2664.29 1
1 -4 2 20021.1 2908.67 2
1 -4 2 17145.9 2803.55 1
1 -4 3 43022.5 4598.82 2
1 -4 4 5541.14 1818.11 2
1 -4 5 429.855 695.167 2
1 -4 6 2232.36 736.847 8
1 -4 7 328.540 315.466 8
1 -4 8 143.274 294.351 8
1 -4 9 -73.7285 244.109 8
1 -4 10 386.145 266.123 8
1 -3 -9 188.429 191.234 10
1 -3 -8 1920.77 572.635 10
1 -3 -7 10.5101 363.826 9
1 -3 -6 368.721 447.063 14
1 -3 -6 788.334 368.908 9
1 -3 -5 634.661 303.787 6
1 -3 -5 271.153 264.272 14
1 -3 -4 16871.9 2889.96 1
1 -3 -4 15203.3 3791.49 5
1 -3 -3 6297.94 1958.26 5
1 -3 -3 7040.56 1653.70 1
1 -3 -2 2593.96 1094.54 5
1 -3 -2 3717.53 1133.88 1
1 -3 -1 4209.75 997.293 5
1 -3 -1 6307.81 1344.23 1
1 -3 0 6532.32 1063.70 5
1 -3 0 8982.27 1670.98 3
1 -3 0 11525.3 1699.24 2
1 -3 0 10807.8 1838.09 1
1 -3 1 79602.2 4919.33 1
1 -3 1 80396.9 4576.46 2
1 -3 2 52840.3 4077.43 2
1 -3 3 2750.10 1123.52 2
1 -3 4 19418.2 3322.88 2
1 -3 5 32171.8 4888.98 2
1 -3 6 6979.28 1260.36 8
1 -3 6 5410.16 2137.83 2
1 -3 7 1046.97 549.334 8
1 -3 8 1102.83 525.408 8
-1 3 -8 1153.69 453.989 10
1 -3 9 670.573 338.483 8
1 -3 10 509.682 302.843 8
1 -2 -9 2188.94 581.547 10
1 -2 -8 118.366 296.095 10
1 -2 -7 7321.40 1290.83 9
1 -2 -6 241.421 168.768 9
1 -2 -5 3333.83 1752.96 5
1 -2 -4 10844.7 2071.46 1
1 -2 -4 10101.8 2803.14 5
1 -2 -3 1145.78 550.515 1
1 -2 -2 17977.7 1956.74 1
1 -2 -2 19449.9 2391.02 5
1 -2 -1 1291.28 593.703 3
1 -2 -1 1921.05 631.485 1
1 -2 -1 1988.19 551.202 5
1 -2 0 1509.39 704.347 5
1 -2 0 3485.81 942.745 2
1 -2 0 2826.45 1026.29 1
1 -2 0 1570.75 772.492 3
1 -2 1 999999. 15164.2 1
1 -2 1 999169. 13378.5 2
1 -2 2 40178.1 3264.66 2
1 -2 3 369.095 260.885 2
1 -2 4 10645.2 2478.99 2
1 -2 5 1192.34 1200.04 2
1 -2 6 4071.00 1796.54 2
-1 2 -7 4924.75 1153.57 9
-1 2 -7 5849.22 1046.36 10
1 -2 8 1017.35 558.978 8
-1 2 -8 2187.55 660.253 10
-1 2 -9 4076.13 815.746 10
1 -2 9 3671.58 899.504 8
1 -2 10 183.596 158.054 8
1 -1 -10 725.705 304.818 10
1 -1 -9 103.419 185.542 10
1 -1 -8 781.399 427.293 10
1 -1 -7 6776.16 1264.98 9
1 -1 -6 67.1413 190.695 5
1 -1 -6 447.750 294.919 9
1 -1 -5 45638.0 5781.55 5
1 -1 -4 4183.27 1114.26 1
-1 1 4 2883.36 940.742 2
-1 1 3 33700.4 3030.16 2
1 -1 -3 33969.5 2678.17 1
1 -1 -2 16467.4 2042.75 5
1 -1 -2 16025.2 1466.21 1
-1 1 2 14070.6 1601.24 2
1 -1 -1 95616.6 3057.19 1
1 -1 0 4269.23 539.832 2
1 -1 0 3847.65 686.448 1
1 -1 1 29612.8 2127.26 2
1 -1 2 3108.56 965.289 2
1 -1 3 3022.77 1083.85 2
1 -1 4 4298.58 1547.16 2
1 -1 5 484.159 567.495 2
1 -1 6 16816.0 3935.50 2
-1 1 -7 504.250 417.960 9
-1 1 -7 62.7163 260.440 10
-1 1 -8 1111.58 536.338 10
-1 1 -8 863.731 407.186 9
-1 1 -9 70.4632 136.637 10
1 -1 9 182.424 218.322 8
1 -1 10 1172.29 392.575 8
-1 1 -10 1064.74 279.865 10
1 0 -10 523.719 270.252 10
-1 0 9 9967.69 1357.82 8
1 0 -9 9766.27 1336.35 10
1 0 -8 11.4863 230.499 10
1 0 -7 198.415 377.198 10
1 0 -6 2239.79 1179.45 5
1 0 -5 11837.2 2552.56 5
-1 0 4 3683.00 1068.11 2
1 0 -3 4293.14 788.278 4
-1 0 3 4613.31 985.927 2
-1 0 2 19395.7 1553.57 2
1 0 -2 20189.9 1632.61 4
1 0 -2 19569.8 1128.12 1
1 0 -1 54894.4 2590.46 4
-1 0 1 55069.5 1356.47 2
1 0 0 4029.43 577.415 2
1 0 1 108234. 3217.76 4
1 0 1 108730. 4102.17 2
1 0 2 1911.12 697.320 2
1 0 3 99.9305 350.041 2
1 0 4 46160.0 4990.15 2
1 0 5 2487.86 1445.72 2
-1 0 -6 940.008 550.349 9
1 0 6 540.880 634.426 2
-1 0 -7 5435.48 1230.58 9
-1 0 -8 1499.17 602.774 10
-1 0 -8 914.732 543.205 9
-1 0 -9 1192.01 420.032 10
1 0 10 105.101 95.4091 8
1 1 -10 -93.1702 98.1189 10
-1 -1 9 17.1685 125.084 8
1 1 -9 150.988 219.014 10
1 1 -8 2449.73 741.063 10
1 1 -7 4136.23 951.514 10
1 1 -6 2907.49 1370.14 5
-1 -1 5 15030.3 2626.59 2
1 1 -5 15051.3 2620.22 5
-1 -1 4 66752.5 4673.65 2
1 1 -4 66578.4 4976.89 5
1 1 -3 31343.0 2641.28 5
1 1 -3 28458.0 2545.82 4
-1 -1 3 31079.9 2561.10 2
-1 -1 2 35714.3 2224.54 2
1 1 -2 35505.8 2200.29 5
-1 -1 1 21150.4 1013.62 1
1 1 0 8289.02 849.639 3
1 1 1 32972.3 3028.99 2
1 1 2 4393.52 1271.86 2
1 1 3 409.256 713.257 2
1 1 4 6580.26 2061.71 2
1 1 5 14156.4 3585.03 2
-1 -1 -6 1017.94 537.406 9
-1 -1 -7 -428.410 349.498 9
-1 -1 -8 -267.881 191.852 10
-1 -1 -8 173.297 237.713 9
-1 -1 -9 906.013 344.529 10
1 2 -10 134.413 219.601 10
1 2 -9 670.464 330.252 10
-1 -2 9 850.572 395.787 8
-1 -2 8 4766.71 1027.68 8
1 2 -8 5867.91 1153.87 10
1 2 -7 14938.2 1788.82 10
-1 -2 7 14002.4 1819.45 8
1 2 -5 858.141 680.571 5
-1 -2 5 1144.15 621.030 2
1 2 -4 113.733 296.917 5
-1 -2 4 215.548 360.016 2
1 2 -3 1469.49 492.972 5
-1 -2 3 1494.34 660.852 2
-1 -2 2 6605.71 985.934 1
-1 -2 2 7421.20 1308.55 2
-1 -2 1 28150.4 2027.95 1
-1 -2 0 32289.0 2581.31 1
-1 -2 -1 280859. 9021.32 1
-1 -2 -2 6389.11 1684.75 1
-1 -2 -3 13565.7 2636.32 1
1 2 3 11198.1 2770.49 2
-1 -2 -4 3889.44 1904.62 1
1 2 4 3376.17 1701.39 2
-1 -2 -5 2325.85 1299.75 1
-1 -2 -5 1804.17 663.745 9
-1 -2 -6 7517.93 1412.08 9
-1 -2 -7 2658.13 847.575 9
-1 -2 -8 545.842 309.702 10
-1 -2 -8 1431.16 465.798 9
-1 -2 -9 -62.9366 109.502 10
1 3 -10 793.474 243.620 10
-1 -3 9 684.610 377.502 8
1 3 -9 1118.55 457.130 10
-1 -3 8 16531.2 2085.20 8
1 3 -8 17560.8 1907.65 10
-1 -3 7 981.766 574.379 8
1 3 -7 1102.89 508.838 10
1 3 -6 4058.85 872.490 10
-1 -3 6 2312.49 1254.52 2
-1 -3 5 3514.99 1335.30 2
-1 -3 4 10122.2 2114.52 2
-1 -3 3 18908.1 2708.27 2
-1 -3 2 20926.0 2448.08 1
-1 -3 2 23006.6 2900.83 2
-1 -3 1 34073.3 2978.65 1
-1 -3 0 5452.98 1317.73 1
-1 -3 -1 7815.65 1732.43 1
-1 -3 -2 8010.44 2052.86 1
-1 -3 -3 1864.57 1099.90 1
-1 -3 -4 46108.1 5709.46 1
-1 -3 -5 -62.8296 161.773 9
-1 -3 -6 14736.3 2085.69 9
-1 -3 -7 925.074 518.737 9
-1 -3 -8 1388.46 443.678 10
-1 -3 -8 1789.71 575.258 9
1 4 -10 737.830 258.668 10
-1 -4 9 11531.5 1569.52 8
1 4 -9 11602.2 1406.26 10
1 4 -8 183.034 109.591 10
-1 -4 8 364.998 92.0198 8
-1 -4 7 1028.12 537.746 8
1 4 -7 1148.80 466.330 10
-1 -4 6 5293.43 1127.45 8
1 4 -6 5829.27 1026.39 10
-1 -4 5 25136.0 4205.74 2
-1 -4 4 3354.61 1449.04 2
-1 -4 3 15337.4 2870.66 2
-1 -4 2 11743.1 2284.54 1
-1 -4 2 12368.2 2620.20 2
-1 -4 1 47202.8 4503.59 1
-1 -4 0 3965.72 1397.49 1
-1 -4 -1 11553.1 2409.01 1
-1 -4 -2 237.412 613.871 1
-1 -4 -3 4365.66 1279.93 6
-1 -4 -3 1944.25 1102.97 1
-1 -4 -4 6890.28 1358.06 9
-1 -4 -5 1273.96 660.613 9
-1 -4 -6 1386.63 529.046 9
-1 -4 -7 -272.504 296.494 9
-1 -4 -8 1993.07 447.514 10
1 5 -10 458.538 211.386 10
1 5 -9 2692.19 611.114 10
-1 -5 8 8893.06 1571.91 8
1 5 -8 9121.13 1297.86 10
-1 -5 7 41.5729 223.570 8
1 5 -7 287.722 388.003 10
-1 -5 6 15.7710 141.662 8
1 5 -6 -232.818 288.285 10
-1 -5 5 4435.32 1074.67 8
1 5 -5 5665.86 1063.03 10
-1 -5 4 10726.7 2914.05 2
-1 -5 3 2756.89 1425.13 2
-1 -5 2 2899.61 1513.20 2
-1 -5 2 1385.06 937.222 1
-1 -5 1 2791.37 1368.90 1
-1 -5 1 3010.27 1593.13 2
-1 -5 0 9721.31 2546.70 1
1 5 1 11476.1 1608.34 15
-1 -5 -1 7687.40 2301.84 1
-1 -5 -2 899.853 559.139 6
1 5 2 893.171 492.067 15
-1 -5 -3 359.182 505.650 9
1 5 3 415.525 423.083 15
-1 -5 -3 780.706 651.164 6
-1 -5 -4 38972.8 3168.53 9
-1 -5 -5 1125.34 503.078 9
-1 -5 -6 -163.756 189.072 9
1 6 -9 2069.61 457.542 10
-1 -6 8 1337.72 572.836 8
1 6 -8 1390.47 468.426 10
-1 -6 7 1247.05 646.445 8
1 6 -7 1427.14 552.376 10
-1 -6 6 -5.13549 80.3526 8
1 6 -6 492.965 355.534 10
1 6 -5 2285.84 851.612 11
-1 -6 5 1757.02 656.053 8
1 6 -5 2062.52 699.138 10
1 6 -4 500.688 289.986 15
1 6 -4 249.267 320.920 10
-1 -6 4 105.734 302.900 8
1 6 -3 17138.0 1976.41 15
1 6 -3 17076.0 1827.14 10
-1 -6 3 15728.1 2050.05 8
-1 -6 2 10436.2 1771.45 8
1 6 -2 11966.6 1719.78 15
1 6 -1 14433.9 1907.19 15
1 6 0 2239.61 792.996 15
1 6 1 396.980 362.953 15
1 6 2 1743.05 835.810 15
-1 -6 -2 3586.91 1308.14 6
1 6 3 2670.19 761.398 15
-1 -6 -5 49.5869 191.270 14
1 7 -8 28.9481 122.580 10
-1 -7 7 67.2456 103.190 8
1 7 -7 3.09630 153.949 10
-1 -7 6 2820.79 910.264 8
1 7 -6 3624.10 823.933 10
-1 -7 5 514.198 422.662 8
1 7 -5 240.417 190.735 10
1 7 -5 522.587 438.899 11
-1 -7 4 656.303 525.656 8
1 7 -4 621.902 352.352 15
1 7 -3 1438.05 627.189 15
-1 -7 3 971.587 500.821 8
1 7 -2 917.505 496.535 15
1 7 -1 194.670 281.992 15
1 7 0 1346.79 708.496 15
1 7 1 1731.49 743.708 15
1 7 2 7835.32 1413.56 15
-1 -7 -4 358.221 297.960 14
-1 -8 6 231.990 257.119 8
1 8 -5 591.740 342.931 11
-1 -8 5 457.796 384.684 8
1 8 -4 -350.815 226.730 15
1 8 -3 5.56993 264.412 15
1 8 -2 525.235 409.635 15
1 8 -1 703.478 384.359 15
1 8 0 -231.836 221.501 15
1 8 1 139.332 227.827 15
1 8 2 -165.492 170.371 15
1 9 -4 -121.587 56.1199 15
1 9 -4 48.0610 112.511 11
1 9 -3 106.911 64.8929 15
1 9 -3 -129.810 115.792 11
1 9 -2 -211.504 99.3084 15
1 9 -1 485.799 304.467 15
1 9 0 -79.4157 149.652 15
2 -9 0 168.071 167.899 6
-2 9 -1 153.474 85.2216 15
2 -9 1 502.722 287.771 6
-2 9 -2 931.579 410.932 15
-2 9 -3 452.658 229.455 15
-2 9 -4 122.478 124.043 15
-2 9 -5 33.1456 77.8623 15
2 -8 -3 259.922 264.553 6
2 -8 -2 -32.8926 138.585 14
2 -8 -2 225.800 221.687 6
2 -8 -1 476.547 349.000 6
2 -8 -1 157.322 167.922 14
-2 8 0 -232.889 215.422 15
2 -8 0 17.4014 130.959 6
-2 8 -1 486.706 333.491 15
2 -8 1 159.703 186.295 6
2 -8 2 -197.345 216.776 6
2 -8 3 1620.47 712.028 8
2 -8 4 300.229 342.885 8
2 -8 5 583.332 458.630 8
2 -8 6 550.359 403.554 8
2 -8 7 -220.126 119.206 8
2 -7 -5 134.323 163.861 14
2 -7 -4 698.385 270.356 6
2 -7 -3 148.336 228.449 14
2 -7 -3 533.134 393.368 6
2 -7 -2 150.064 151.487 14
2 -7 -2 449.550 480.897 6
-2 7 1 2977.25 786.578 15
2 -7 -1 3511.46 1006.29 14
2 -7 -1 4814.72 1141.07 6
2 -7 0 133.783 314.944 6
2 -7 1 837.008 475.625 6
2 -7 2 -246.859 329.418 8
2 -7 2 225.325 354.416 6
2 -7 3 756.258 544.527 8
2 -7 3 -100.232 125.684 6
2 -7 4 597.590 605.405 8
2 -7 5 -169.280 222.038 8
2 -7 6 330.387 482.548 8
2 -7 7 162.745 291.242 8
2 -7 8 483.151 186.949 8
2 -6 -6 341.074 294.143 14
2 -6 -5 236.972 212.484 6
2 -6 -4 222.800 346.114 14
2 -6 -4 691.743 412.167 6
2 -6 -3 1403.13 633.171 14
2 -6 -3 2835.73 904.239 6
2 -6 -2 -67.2700 123.407 14
2 -6 -2 -272.299 409.856 6
2 -6 -1 350.722 439.137 6
2 -6 0 431.209 496.103 6
2 -6 1 429.686 387.256 8
2 -6 1 231.553 193.493 6
2 -6 2 16234.3 2092.90 8
2 -6 2 14704.9 1861.86 6
2 -6 3 2978.40 833.451 6
2 -6 3 2545.98 914.061 8
2 -6 4 10813.8 1843.58 8
2 -6 4 11159.3 1620.85 6
2 -6 5 36.5116 152.593 8
2 -6 6 1870.41 838.848 8
2 -6 7 62.4218 307.402 8
2 -6 8 411.605 364.713 8
2 -6 9 437.124 325.325 8
2 -5 -7 1650.59 505.776 14
2 -5 -5 3030.14 833.463 14
2 -5 -5 4013.70 1049.16 6
2 -5 -4 -72.9384 220.044 14
2 -5 -4 381.286 338.975 6
2 -5 -3 2475.30 732.593 14
2 -5 -3 3066.79 858.808 6
2 -5 -2 1997.73 1288.69 1
2 -5 -2 2714.96 864.544 6
2 -5 -1 3054.55 1621.10 1
2 -5 0 430.812 814.788 1
2 -5 1 576.291 962.069 1
2 -5 2 32653.9 4333.68 2
2 -5 3 3855.77 1642.58 2
2 -5 4 1725.34 726.481 8
2 -5 4 1089.92 1067.83 2
2 -5 5 50.6697 185.778 8
2 -5 6 1046.19 654.064 8
2 -5 7 4443.23 1204.45 8
2 -5 8 322.140 404.609 8
2 -5 9 382.743 255.086 8
2 -4 -7 177.833 156.679 14
2 -4 -5 428.331 371.302 6
2 -4 -5 270.937 226.526 14
2 -4 -4 207.335 192.625 14
2 -4 -4 224.645 304.833 6
2 -4 -3 0.33694 381.829 1
2 -4 -2 15223.9 2864.69 1
2 -4 -1 12681.8 2649.85 1
2 -4 -1 11154.5 2673.69 3
2 -4 0 168.647 481.264 1
2 -4 0 22.0805 497.971 3
2 -4 1 897.345 598.666 2
2 -4 1 771.330 532.685 3
2 -4 2 94343.5 7767.06 3
2 -4 2 95966.7 6485.26 2
2 -4 3 13330.2 2746.47 2
2 -4 4 -10.1859 674.738 2
2 -4 5 3222.85 898.731 8
2 -4 5 2504.96 1592.33 2
2 -4 6 55.6339 333.258 8
2 -4 7 1524.00 747.337 8
2 -4 8 535.387 389.672 8
2 -4 9 146.025 247.057 8
2 -3 -8 1500.22 437.483 10
2 -3 -7 1335.55 674.508 14
2 -3 -7 2799.87 640.194 10
2 -3 -5 3154.73 799.294 14
2 -3 -4 6350.87 2565.34 5
2 -3 -3 3866.85 1538.71 5
2 -3 -3 5074.10 1471.94 1
2 -3 -2 4312.49 1384.84 5
2 -3 -2 6654.98 1673.02 1
2 -3 -1 186.686 118.957 1
2 -3 -1 109.248 274.546 5
2 -3 -1 -65.5707 237.629 3
2 -3 0 317.204 289.406 2
2 -3 0 185.197 269.139 3
2 -3 0 467.858 496.210 1
2 -3 1 5164.28 1181.01 2
2 -3 1 6275.78 1746.09 3
2 -3 2 -60.8097 213.349 2
2 -3 3 5066.86 1544.76 2
2 -3 4 2462.06 1385.94 2
2 -3 5 883.899 1088.28 2
2 -3 6 1062.73 527.314 8
2 -3 7 932.267 601.322 8
2 -3 8 633.949 370.621 8
2 -3 9 1042.63 506.296 8
2 -3 10 904.360 369.256 8
2 -2 -9 249.487 208.784 10
2 -2 -8 2933.98 656.671 10
2 -2 -7 301.266 209.417 14
2 -2 -7 357.680 303.744 10
2 -2 -5 2164.67 1493.98 5
2 -2 -4 2012.25 1072.04 5
2 -2 -3 12294.7 2225.44 5
2 -2 -3 13861.9 1889.05 1
2 -2 -2 30827.2 2796.42 1
2 -2 -2 34533.4 3804.17 3
2 -2 -2 31431.5 3323.93 5
2 -2 -1 12031.1 1872.37 5
2 -2 -1 10918.2 1705.40 1
2 -2 -1 12167.7 2208.59 3
2 -2 0 79540.4 5944.40 3
2 -2 0 80373.6 3508.54 2
2 -2 1 46994.8 3428.14 2
2 -2 2 9200.87 1824.80 2
2 -2 3 8519.68 2065.94 2
2 -2 4 6080.77 2030.99 2
2 -2 5 223.342 602.131 2
2 -2 6 314.165 52.1367 7
2 -2 7 -128.222 202.365 8
2 -2 8 324.653 425.232 8
2 -2 9 288.431 186.340 8
2 -2 10 1687.97 491.778 8
2 -1 -9 778.415 403.231 10
2 -1 -8 407.980 270.891 10
2 -1 -7 4169.59 911.827 10
2 -1 -6 3339.97 876.061 14
2 -1 -6 4020.11 803.845 10
2 -1 -5 9001.23 2306.55 5
2 -1 -4 4868.65 1618.88 5
2 -1 -3 18519.0 2533.55 5
2 -1 -2 915.965 624.020 5
2 -1 -2 651.335 486.969 3
2 -1 -2 1029.71 376.346 1
2 -1 -1 48134.9 3546.08 5
2 -1 -1 48247.5 3944.72 3
2 -1 0 961.862 396.252 2
2 -1 0 2257.44 1065.33 3
2 -1 1 4215.18 952.608 2
2 -1 2 19370.6 2451.34 2
2 -1 3 36668.8 4016.74 2
2 -1 4 8077.96 2197.57 2
2 -1 5 2008.78 1577.18 2
2 -1 6 4226.61 827.903 7
-2 1 -6 4519.53 1041.75 9
-2 1 -7 6023.50 1279.55 9
-2 1 -8 1586.21 657.308 9
2 -1 9 334.857 238.252 8
2 0 -10 549.602 241.541 10
2 0 -9 253.538 329.499 10
2 0 -8 2496.48 695.816 10
2 0 -7 -120.355 216.878 10
2 0 -6 2283.33 1341.67 5
2 0 -6 4521.56 869.364 10
2 0 -5 5833.36 1765.90 5
2 0 -4 6810.14 1699.20 5
2 0 -3 9854.04 1694.85 5
2 0 -3 9808.60 1749.48 4
2 0 -2 13188.1 1889.07 5
2 0 -2 12415.2 1802.05 4
2 0 -2 12798.5 1986.19 3
2 0 -1 20092.2 2321.35 4
2 0 -1 19593.9 2223.35 3
2 0 0 17777.5 1855.64 2
2 0 0 17889.8 2234.77 4
2 0 0 17871.7 2322.34 3
2 0 1 1579.52 666.151 4
2 0 1 1069.51 369.072 2
2 0 2 119621. 6582.32 2
2 0 2 122776. 4945.84 4
2 0 3 1268.41 748.739 2
2 0 4 7250.30 2234.61 2
2 0 5 1889.39 1484.39 2
-2 0 -6 803.645 503.270 9
-2 0 -7 69.8417 234.300 10
-2 0 -7 92.0095 187.691 9
-2 0 -8 67.5950 208.935 9
2 0 9 730.667 351.516 8
2 1 -10 27.4037 48.1944 10
2 1 -9 83.8931 132.743 10
2 1 -8 338.732 271.740 10
2 1 -7 18280.7 1931.37 10
2 1 -6 20695.1 3769.50 5
2 1 -5 1351.72 757.111 5
2 1 -4 23259.4 2940.68 5
2 1 -4 23170.8 2817.95 4
2 1 -3 1855.89 804.094 5
2 1 -3 1729.10 663.066 4
2 1 -2 5431.65 1201.07 4
-2 -1 2 5441.62 880.460 2
2 1 -1 16983.8 2303.95 4
2 1 -1 16476.3 1916.39 3
-2 -1 1 15194.6 1055.65 1
2 1 0 215217. 8000.36 4
2 1 0 215239. 6916.34 3
2 1 1 31435.0 3565.44 2
2 1 1 33253.4 2972.58 4
2 1 2 -326.168 255.710 4
2 1 2 465.829 574.118 2
2 1 3 4142.72 1522.37 2
2 1 4 132.550 452.126 2
2 1 5 30578.4 5917.78 2
-2 -1 -5 31650.9 2657.23 9
-2 -1 -6 1257.81 707.301 9
-2 -1 -7 16688.9 2089.94 9
-2 -1 -8 -86.8758 72.4287 10
-2 -1 -8 -11.2404 127.822 9
2 1 9 1049.23 340.548 8
2 2 -10 -114.054 157.933 10
2 2 -9 236.854 212.184 10
2 2 -8 36589.5 2739.24 10
2 2 -7 674.228 341.703 10
2 2 -6 212.384 339.342 10
2 2 -4 254.982 377.498 4
2 2 -4 411.701 252.399 5
2 2 -3 10938.1 2075.19 4
-2 -2 3 12399.8 1895.32 2
-2 -2 2 5038.46 1201.32 2
-2 -2 1 3092.11 646.892 1
-2 -2 0 82091.7 4386.19 1
-2 -2 -1 6827.49 1465.16 1
-2 -2 -4 2167.83 1333.98 1
-2 -2 -5 32705.3 2930.62 9
-2 -2 -6 1724.84 816.288 9
-2 -2 -7 294.262 291.446 9
-2 -2 -8 -34.7560 84.1896 10
-2 -2 -8 51.3286 123.396 9
2 3 -10 809.546 320.151 10
2 3 -9 1087.83 434.661 10
2 3 -8 1302.91 594.384 10
2 3 -7 8473.05 1296.91 10
2 3 -6 5970.56 1067.77 10
-2 -3 4 3390.04 1354.39 2
-2 -3 3 66559.2 5696.04 2
-2 -3 2 453.358 551.744 2
-2 -3 1 39167.9 3009.46 1
-2 -3 0 34571.5 3228.14 1
-2 -3 -1 2256.05 971.071 1
-2 -3 -2 -48.6596 276.508 1
-2 -3 -3 297.433 521.841 1
2 3 4 1568.10 599.502 15
-2 -3 -4 2297.71 874.850 9
-2 -3 -5 56551.4 3947.40 9
-2 -3 -6 -387.725 456.459 9
-2 -3 -7 1522.76 617.121 9
-2 -3 -8 724.501 233.103 10
-2 -3 -8 972.794 387.287 9
2 4 -10 41.2154 105.117 10
2 4 -9 2043.00 580.363 10
2 4 -8 3352.68 827.627 10
2 4 -7 12507.6 1627.79 10
2 4 -6 3616.81 1038.90 11
2 4 -6 5160.09 1026.45 10
2 4 -5 4724.16 1183.90 11
2 4 -5 5064.01 997.824 10
-2 -4 4 6406.70 2173.75 2
-2 -4 3 413.730 584.134 2
-2 -4 2 14229.2 2987.20 2
-2 -4 0 4078.76 1281.77 1
-2 -4 -1 3745.05 1423.55 1
-2 -4 -2 1298.22 487.208 9
2 4 2 1170.79 456.165 15
-2 -4 -2 670.761 813.148 1
2 4 3 9638.14 1395.22 15
-2 -4 -3 9874.65 1578.28 9
-2 -4 -4 3126.96 932.950 9
2 4 4 3531.18 851.479 15
-2 -4 -5 5801.78 1276.27 9
-2 -4 -6 -186.548 154.335 9
-2 -4 -7 -19.2499 190.386 9
2 5 -9 1221.15 396.815 10
2 5 -8 6758.72 1180.19 10
2 5 -7 815.397 435.115 10
2 5 -6 192.686 318.552 11
2 5 -6 72.8297 274.116 10
2 5 -5 1708.46 771.096 11
2 5 -5 1709.41 574.457 10
2 5 -4 8961.03 1408.29 10
2 5 -3 9897.23 1427.32 10
-2 -5 3 9522.38 2763.04 2
2 5 -2 9465.87 1335.47 10
-2 -5 2 7768.58 2446.06 2
2 5 -1 5579.78 1101.66 15
2 5 0 6793.18 1255.50 15
2 5 1 6625.56 1344.62 15
-2 -5 -1 5773.61 1402.62 9
-2 -5 -2 1706.82 667.052 9
2 5 2 1298.74 634.795 15
2 5 3 9547.39 1543.69 15
-2 -5 -3 8920.84 1490.53 9
2 5 4 1708.28 575.626 15
-2 -5 -4 2718.50 827.963 9
-2 -5 -5 792.035 410.945 9
-2 -5 -6 246.785 194.467 9
2 6 -9 324.297 224.752 10
2 6 -8 893.812 378.160 10
2 6 -7 4118.28 880.511 10
2 6 -6 1215.36 618.242 11
2 6 -6 2640.82 740.726 10
2 6 -5 4403.17 1059.77 11
2 6 -5 4141.67 956.283 10
2 6 -4 15488.5 1958.99 10
2 6 -3 1136.32 564.687 15
2 6 -2 745.404 453.246 15
2 6 -1 683.866 560.245 15
2 6 0 927.474 539.757 15
-2 -6 0 980.589 516.744 9
-2 -6 -1 2222.25 755.760 9
2 6 1 2232.00 738.152 15
2 6 2 4815.95 1133.22 15
-2 -6 -2 4361.24 1072.53 9
2 6 3 779.021 499.414 15
-2 -6 -3 745.256 389.509 9
-2 -6 -4 328.032 291.509 9
2 7 -7 1358.82 418.021 10
2 7 -6 227.579 170.937 11
2 7 -6 302.347 172.648 10
2 7 -5 1302.95 624.933 11
2 7 -4 -502.813 348.757 11
2 7 -3 7029.92 1337.21 15
2 7 -2 2275.86 860.904 15
2 7 -1 2620.80 934.610 15
2 7 0 -106.015 310.848 15
2 7 1 237.490 116.121 15
2 7 2 37.4898 123.123 15
2 7 3 229.150 174.173 15
2 8 -6 212.120 155.067 11
2 8 -5 379.121 252.482 11
2 8 -4 7396.36 1298.51 11
2 8 -3 893.143 410.341 15
2 8 -3 1064.16 436.405 11
2 8 -2 1039.66 481.251 15
2 8 -1 2880.84 793.002 15
2 8 0 564.447 372.381 15
2 8 1 156.904 209.481 15
2 9 -3 -150.755 107.689 11
-3 9 -2 7.01968 115.068 15
-3 9 -3 875.840 359.891 15
-3 9 -4 19.0447 134.568 15
3 -8 -3 316.227 190.854 6
3 -8 -2 2137.44 584.274 6
3 -8 -1 -43.7963 161.382 6
-3 8 0 -91.2363 160.676 15
3 -8 0 252.408 241.998 6
3 -8 1 181.693 201.147 6
3 -8 2 277.537 210.536 6
3 -8 3 1527.89 521.391 6
3 -8 4 3255.19 823.600 8
3 -8 4 2491.59 598.954 6
3 -8 5 2791.40 724.988 8
3 -7 -4 155.372 81.6935 6
3 -7 -4 182.542 155.601 14
3 -7 -3 -40.7863 115.929 6
3 -7 -2 400.838 225.082 6
3 -7 -1 205.334 238.275 6
3 -7 0 8200.56 1473.52 6
3 -7 1 2368.16 781.856 6
3 -7 2 396.899 287.552 6
3 -7 3 12363.9 1705.56 8
3 -7 3 12271.8 1763.64 6
3 -7 4 179.610 353.619 8
3 -7 4 106.518 246.135 6
3 -7 5 681.288 320.100 8
3 -7 5 495.253 360.127 6
3 -7 6 -478.749 340.854 8
3 -7 7 123.555 101.193 8
3 -6 -6 181.441 167.332 14
3 -6 -5 881.516 354.690 14
3 -6 -5 1383.75 447.580 6
3 -6 -4 572.710 344.588 6
3 -6 -3 2258.33 811.279 6
3 -6 -2 2179.75 779.719 14
3 -6 -2 2978.20 913.809 6
3 -6 -1 209.137 316.656 6
3 -6 0 473.219 537.179 6
3 -6 1 402.910 295.907 6
3 -6 2 -113.298 144.935 6
3 -6 3 23735.6 2525.44 6
3 -6 4 208.341 230.429 8
3 -6 4 376.465 435.557 6
3 -6 5 5391.15 1197.38 8
3 -6 5 4087.71 1044.22 6
3 -6 6 2996.78 876.607 8
3 -6 6 3067.04 809.636 6
3 -6 7 74.8670 146.971 8
3 -6 8 834.403 398.796 8
3 -5 -7 490.907 302.913 14
3 -5 -6 561.159 297.049 14
3 -5 -5 881.602 542.500 6
3 -5 -4 547.793 456.328 6
3 -5 -3 515.046 337.442 14
3 -5 -3 -196.939 334.547 6
3 -5 -2 495.581 307.164 14
3 -5 -2 671.559 424.611 6
3 -5 -1 138.679 301.435 6
3 -5 0 2933.59 1172.67 13
3 -5 0 3147.69 903.029 6
3 -5 1 9082.98 1673.03 13
3 -5 1 7888.93 1373.72 6
3 -5 4 402.727 317.320 8
3 -5 5 291.868 195.650 8
3 -5 6 593.275 452.210 8
3 -5 7 365.692 73.2074 8
3 -5 8 650.509 336.368 8
3 -4 -7 297.789 277.696 14
3 -4 -6 259.974 211.292 14
3 -4 -4 3093.02 905.554 6
3 -4 -3 1442.53 536.922 14
3 -4 -3 2390.06 697.558 6
3 -4 -2 5410.60 1306.44 13
3 -4 -1 3335.25 1716.37 3
3 -4 0 0.38375 266.750 3
3 -4 1 3235.31 1532.27 3
3 -4 2 5339.63 2182.49 3
3 -4 3 910.093 1309.59 3
3 -4 4 -307.247 479.935 2
3 -4 5 212.803 319.749 8
3 -4 6 4198.99 1094.44 8
3 -4 7 1206.16 553.540 8
3 -4 8 404.759 319.606 8
3 -4 9 207.385 152.161 8
3 -3 -8 -1151.90 362.213 14
3 -3 -7 807.684 405.216 14
3 -3 -6 11841.8 1572.03 14
3 -3 -3 641.590 744.224 5
3 -3 -2 4570.25 1820.48 3
3 -3 -1 8563.12 2449.52 3
3 -3 0 29819.2 4481.96 3
3 -3 1 1309.20 948.254 3
3 -3 3 12819.6 2830.99 2
3 -3 4 9898.19 2774.42 2
3 -3 5 213.848 222.170 8
3 -3 5 462.280 411.515 7
3 -3 6 250.536 80.6957 8
3 -3 7 3421.37 946.979 8
3 -3 8 2466.77 696.764 8
3 -3 9 -5.96868 169.433 8
3 -2 -8 -1240.30 406.818 14
3 -2 -7 2089.36 794.072 14
3 -2 -6 198.238 313.921 14
3 -2 -5 16195.4 1826.28 14
3 -2 -4 2212.72 1227.39 5
3 -2 -3 2409.72 1227.57 5
3 -2 -2 2264.22 1204.88 3
3 -2 -1 22244.7 3553.71 3
3 -2 0 -103.019 448.801 3
3 -2 1 19396.7 3881.96 3
3 -2 2 25334.4 3275.91 2
3 -2 3 3576.10 1424.15 2
3 -2 4 10682.9 2737.09 2
3 -2 5 4142.84 979.279 7
3 -2 6 3753.66 917.188 8
3 -2 6 2813.77 801.071 7
3 -2 7 547.008 300.196 8
3 -2 8 443.528 245.587 8
3 -2 9 594.789 254.453 8
3 -1 -9 775.288 335.745 12
3 -1 -7 9590.40 1410.74 14
3 -1 -6 42885.6 3074.44 14
3 -1 -5 16109.1 2160.97 14
3 -1 -5 19380.9 3717.23 5
3 -1 -4 4161.24 1539.13 5
3 -1 -3 15111.2 2722.95 5
3 -1 -2 30067.0 4065.52 3
3 -1 -1 4367.04 1460.55 3
3 -1 0 7635.96 2093.91 3
3 -1 1 14135.0 2196.27 2
3 -1 1 14596.1 2972.12 3
3 -1 2 773.340 677.643 2
3 -1 3 658.827 564.632 2
3 -1 4 5621.67 2041.76 2
3 -1 5 2153.29 752.720 7
3 -1 6 428.899 187.388 7
3 -1 7 6942.84 1215.82 8
3 -1 7 6086.27 1123.31 7
3 -1 8 3520.64 764.110 8
3 -1 9 240.863 194.917 8
3 0 -9 207.050 208.803 10
3 0 -8 411.976 352.450 10
3 0 -7 39055.4 2749.12 14
3 0 -7 38536.3 2577.80 10
3 0 -6 3494.74 1000.77 14
3 0 -5 874.990 589.573 5
3 0 -4 2006.91 1138.31 5
3 0 -4 1735.97 965.673 4
3 0 -3 2884.81 1140.66 4
3 0 -2 3896.68 1307.27 4
3 0 -2 4624.18 1463.63 3
3 0 -1 34750.7 4039.55 4
3 0 -1 38185.4 4002.07 3
3 0 0 1577.66 878.394 4
3 0 0 1323.14 868.287 3
3 0 1 12996.6 2476.92 2
3 0 1 12491.0 2276.87 4
3 0 1 11161.7 2452.00 3
3 0 2 1173.06 819.208 4
3 0 2 1460.74 889.163 2
3 0 3 5929.07 1943.14 2
3 0 4 2385.61 1438.07 2
3 0 5 477.128 389.097 7
-3 0 -5 83.2918 158.294 9
3 0 6 17830.3 2112.75 7
-3 0 -6 16840.0 2029.20 9
3 0 7 640.521 358.158 7
-3 0 -7 701.021 422.139 9
3 0 8 -114.964 186.428 8
-3 0 -8 22.7105 88.1612 9
3 1 -10 1546.67 425.486 12
3 1 -9 3625.30 659.793 10
3 1 -8 5528.43 977.710 10
3 1 -7 263.687 337.059 10
3 1 -6 864.209 377.445 14
3 1 -6 2037.12 625.708 10
3 1 -5 36224.3 4821.91 5
3 1 -4 21415.7 3145.60 4
3 1 -3 323.327 502.647 4
3 1 -2 73639.0 5672.69 4
3 1 -1 3529.22 1336.46 4
3 1 -1 3850.99 1227.35 3
3 1 0 57548.0 4886.71 4
3 1 0 57374.3 4523.22 3
3 1 1 20761.2 2862.71 4
3 1 1 21996.5 3112.04 3
3 1 2 26.3914 735.438 2
3 1 3 278.384 500.442 2
-3 -1 -4 240.653 349.145 9
3 1 4 574.734 1102.21 2
3 1 5 405.955 439.057 7
-3 -1 -5 434.424 281.415 9
3 1 6 10880.9 1616.08 7
-3 -1 -6 10713.4 1626.32 9
-3 -1 -7 1573.38 593.954 9
3 1 8 -239.559 210.581 8
-3 -1 -8 -11.4235 88.1040 9
3 2 -10 1451.34 423.923 12
3 2 -9 -219.136 245.851 10
3 2 -8 81.0430 193.429 10
3 2 -7 15963.9 1709.18 10
3 2 -6 1964.90 760.540 11
3 2 -6 1151.75 478.267 10
3 2 -5 6611.84 1149.16 11
3 2 -4 36322.8 4326.74 4
3 2 -3 6475.44 1940.61 4
3 2 -2 7411.60 2152.60 4
3 2 -1 8812.45 2288.67 4
3 2 0 16167.9 2799.74 4
-3 -2 -1 1970.37 838.276 1
3 2 1 1514.00 839.732 4
-3 -2 -2 5083.57 1742.18 1
-3 -2 -3 722.577 615.355 1
3 2 3 933.988 447.022 15
-3 -2 -3 1425.38 611.514 9
3 2 4 9855.28 1472.84 15
-3 -2 -4 10813.6 1698.52 9
-3 -2 -5 8748.99 1533.87 9
-3 -2 -6 4538.60 1074.56 9
-3 -2 -7 204.635 70.1705 9
-3 -2 -8 126.367 154.041 9
3 3 -9 662.188 441.631 12
3 3 -9 109.461 188.389 10
3 3 -8 307.952 323.459 10
3 3 -7 4317.20 989.304 11
3 3 -7 2684.48 687.782 10
3 3 -6 3684.56 971.154 11
3 3 -6 3691.91 841.264 10
3 3 -5 1157.17 403.255 11
3 3 -5 1871.41 542.358 10
3 3 -4 10017.6 2577.38 4
3 3 -3 5041.60 2087.50 4
3 3 -2 2956.18 1633.27 4
3 3 -1 586.065 992.900 4
3 3 0 272.170 517.491 4
3 3 1 11130.5 2616.54 4
-3 -3 -2 1261.81 608.927 9
3 3 2 1021.46 450.419 15
-3 -3 -2 342.210 590.977 1
-3 -3 -3 2992.09 881.429 9
3 3 3 2729.39 763.296 15
3 3 4 252.063 130.020 15
-3 -3 -4 763.857 642.073 9
-3 -3 -5 -37.4196 379.820 9
-3 -3 -6 -96.0574 365.861 9
-3 -3 -7 94.6936 133.162 9
3 4 -9 21.6087 63.3059 10
3 4 -8 -117.859 218.080 10
3 4 -7 2375.76 905.025 11
3 4 -7 2559.86 727.944 10
3 4 -6 1425.70 703.587 11
3 4 -6 1911.70 671.729 10
3 4 -5 1373.66 660.242 11
3 4 -5 1053.37 534.025 10
3 4 -4 152.078 133.096 11
3 4 -4 52.9372 190.664 10
3 4 -3 15695.1 3927.90 4
3 4 -3 19983.6 1997.40 11
3 4 -3 19646.8 1870.79 10
-3 -4 2 356.571 588.428 2
3 4 -2 -399.968 690.739 4
3 4 -2 -151.010 297.121 11
3 4 -1 1335.79 1188.25 4
3 4 0 5921.53 1107.55 15
3 4 0 2888.48 1695.74 4
3 4 1 4246.19 991.086 15
-3 -4 -2 736.250 593.514 9
3 4 2 1024.67 625.615 15
-3 -4 -3 448.162 628.196 9
3 4 3 591.459 615.988 15
-3 -4 -4 -201.328 242.492 9
3 4 4 147.832 286.660 15
-3 -4 -5 -215.450 337.490 9
-3 -4 -6 936.304 346.117 9
3 5 -9 2431.64 518.241 10
3 5 -8 4660.25 824.143 10
3 5 -7 561.559 355.308 11
3 5 -7 290.873 243.861 10
3 5 -6 10948.7 1631.72 11
3 5 -6 10743.2 1484.90 10
3 5 -5 2702.47 829.178 11
3 5 -5 2938.35 761.468 10
3 5 -4 3762.77 975.430 11
3 5 -4 2645.91 781.901 10
3 5 -3 1408.77 652.299 11
3 5 -3 1468.29 568.218 10
3 5 -2 15035.5 1840.74 15
3 5 -1 55.2113 246.586 15
3 5 0 679.765 390.326 15
-3 -5 -1 1484.14 770.930 9
3 5 1 2725.37 889.245 15
-3 -5 -2 527.196 358.741 9
3 5 2 1341.12 596.205 15
3 5 3 463.727 445.880 15
-3 -5 -3 730.801 654.046 9
3 5 4 -16.1002 113.767 15
-3 -5 -4 -39.3126 217.989 9
-3 -5 -5 -229.331 186.014 9
3 6 -8 997.942 309.587 10
3 6 -7 616.147 345.959 11
3 6 -7 621.051 337.035 10
3 6 -6 49.9877 113.648 11
3 6 -6 -36.9161 141.465 10
3 6 -5 279.944 347.973 11
3 6 -5 134.819 256.070 10
3 6 -4 8858.12 1414.07 11
3 6 -3 47116.2 3317.18 11
3 6 -2 390.994 399.701 15
3 6 -2 478.150 368.653 11
3 6 -1 7129.29 1368.59 15
3 6 0 7321.83 1367.15 15
-3 -6 0 6344.10 1479.38 9
-3 -6 -1 1823.76 733.610 9
3 6 1 1363.45 667.194 15
3 6 2 236.472 338.608 15
-3 -6 -2 148.750 132.859 9
3 6 3 273.958 106.209 15
-3 -6 -3 355.561 270.114 9
-3 -6 -4 2938.52 652.413 9
3 7 -7 968.963 321.344 11
3 7 -6 874.534 383.310 11
3 7 -5 2280.49 649.413 11
3 7 -4 6579.45 1189.59 11
3 7 -3 6555.09 1191.31 15
3 7 -3 7944.65 1345.50 11
3 7 -2 320.745 254.949 15
3 7 -2 231.687 417.331 11
-3 -7 1 53.1953 159.923 9
3 7 -1 82.2085 263.856 15
3 7 -1 -30.6543 196.507 11
3 7 0 397.983 329.347 15
-3 -7 0 1073.94 425.806 9
3 7 0 535.625 318.517 11
-3 -7 -1 993.883 456.581 9
3 7 1 1147.12 487.927 15
3 7 2 3135.00 651.611 15
3 8 -5 85.2931 180.183 11
3 8 -4 785.389 363.236 11
3 8 -3 599.523 324.179 11
3 8 -2 498.467 295.768 15
3 8 -2 573.332 328.779 11
3 8 -1 305.991 211.611 15
3 8 -1 279.630 106.599 11
3 8 0 2766.45 594.900 15
4 -8 -1 573.618 316.173 6
4 -8 0 -240.349 245.677 6
4 -8 1 432.929 260.880 6
4 -8 2 494.774 309.081 6
4 -8 3 286.004 206.560 6
4 -8 4 1052.47 377.612 6
4 -7 -3 822.589 304.724 6
4 -7 -2 768.359 338.329 6
4 -7 -1 12.1737 99.9187 6
4 -7 0 53.7540 92.2436 6
4 -7 1 851.709 528.478 6
4 -7 2 1348.96 565.088 6
4 -7 3 1940.45 646.247 6
4 -7 4 1931.48 701.334 6
4 -7 5 86.0052 105.510 6
4 -7 6 23.2041 148.434 6
4 -6 -5 851.589 318.383 14
4 -6 -4 434.128 328.173 14
4 -6 -4 171.683 217.680 6
4 -6 -3 273.826 238.569 14
4 -6 -3 667.619 405.874 6
4 -6 -2 -145.695 247.043 6
4 -6 -1 503.616 334.708 6
4 -6 0 19.4494 263.963 6
4 -6 1 2285.82 800.415 6
4 -6 2 787.406 395.437 6
4 -6 3 397.901 316.469 6
4 -6 4 403.570 366.089 6
4 -6 5 573.144 412.245 6
4 -6 6 390.563 343.296 6
4 -6 7 361.723 241.944 6
4 -5 -6 372.410 245.989 14
4 -5 -5 2579.12 637.365 14
4 -5 -4 189.487 265.126 14
4 -5 -3 3402.09 897.149 14
4 -5 -3 4078.42 943.387 6
4 -5 -2 254.363 191.098 14
4 -5 -2 538.695 380.886 6
4 -5 -1 696.865 706.340 13
4 -5 -1 581.842 365.236 6
4 -5 0 3187.25 1118.29 13
4 -5 0 2811.65 857.265 6
4 -5 1 -153.143 419.283 6
4 -5 1 240.811 463.435 13
4 -5 2 421.884 475.438 13
4 -5 2 418.086 391.523 6
4 -4 -7 -551.571 249.574 14
4 -4 -6 83.3263 250.483 14
4 -4 -5 6677.35 1066.17 14
4 -4 -4 2686.78 760.745 14
4 -4 -3 39.4719 221.029 14
4 -4 -3 174.220 122.943 13
4 -4 -2 218.746 84.5124 14
4 -4 -2 523.503 589.170 13
4 -4 -2 264.461 297.614 6
4 -4 -1 -93.9013 137.539 13
4 -4 -1 396.020 369.579 6
4 -4 0 4767.19 1295.60 13
4 -4 0 5779.09 1184.34 6
4 -4 1 326.321 115.740 13
4 -4 2 278.732 451.475 13
4 -3 -7 525.397 202.461 14
4 -3 -6 9334.69 1311.21 14
4 -3 -5 25368.6 2241.33 14
4 -3 -4 35.8672 236.446 14
4 -3 -4 -119.252 378.563 13
4 -3 -3 9874.03 1444.86 14
4 -3 -3 9601.04 1868.66 13
4 -3 -2 9562.17 1464.68 14
4 -3 -2 9566.05 1969.86 13
4 -3 -2 11494.5 3308.20 3
4 -3 -1 3213.06 1107.04 13
4 -3 -1 2368.32 1502.67 3
4 -3 0 1147.47 1254.33 3
4 -3 1 -69.2282 309.890 3
4 -3 2 5510.41 1198.12 16
4 -3 2 5076.65 2081.58 3
4 -3 3 481.019 316.876 7
4 -3 4 794.678 489.976 7
4 -3 5 302.059 350.651 7
4 -2 -8 2223.87 505.402 14
4 -2 -7 2732.27 639.256 14
4 -2 -6 4118.33 917.354 14
4 -2 -6 3088.52 863.290 12
4 -2 -5 19931.5 2060.58 14
4 -2 -5 18386.8 2096.89 12
4 -2 -4 459.990 340.770 14
4 -2 -4 -366.697 276.245 12
4 -2 -3 3921.87 871.280 14
4 -2 -3 2965.77 981.900 13
4 -2 -2 7539.05 2628.58 3
4 -2 -1 29016.6 4920.07 3
4 -2 0 36708.1 5440.98 3
4 -2 1 1542.50 1112.42 3
4 -2 2 2554.82 1450.77 3
4 -2 3 239.339 244.048 16
4 -2 3 413.950 356.367 7
4 -2 3 85.9497 559.825 3
4 -2 4 3767.57 1021.59 7
4 -2 5 86.6351 110.736 7
4 -2 6 108.609 373.409 7
4 -1 -8 1839.53 565.078 14
4 -1 -8 -346.884 291.790 12
4 -1 -7 854.667 176.706 14
4 -1 -7 2285.81 926.344 12
4 -1 -6 61.2002 227.205 14
4 -1 -6 1551.34 777.817 12
4 -1 -5 309.444 116.708 14
4 -1 -5 1255.43 650.353 12
4 -1 -4 3047.30 842.742 14
4 -1 -4 3100.14 848.094 12
4 -1 -2 41306.9 5554.57 3
4 -1 -1 548.199 532.647 3
4 -1 0 12147.0 2838.93 3
4 -1 1 12169.2 2893.68 3
4 -1 2 24.9109 391.812 3
4 -1 3 6757.20 1382.88 16
4 -1 3 6890.90 1277.21 7
4 -1 4 4199.34 1115.53 7
4 -1 5 769.975 527.449 7
4 -1 6 49.5667 99.4430 7
4 -1 7 1856.67 635.516 7
4 0 -9 -221.827 243.797 12
4 0 -8 5818.90 1034.39 14
4 0 -8 1929.67 710.534 12
4 0 -7 1972.93 762.053 14
4 0 -7 1517.44 622.017 12
4 0 -6 4236.40 988.836 14
4 0 -6 4962.18 1155.92 12
4 0 -5 3236.27 762.201 14
4 0 -5 3915.34 972.993 12
4 0 -4 270.370 89.0699 14
4 0 -4 1972.57 626.933 12
4 0 -3 11840.5 2697.05 4
4 0 -2 1100.87 844.627 4
4 0 -2 1005.99 815.432 3
4 0 -1 -73.9269 212.559 4
4 0 -1 -387.406 556.263 3
4 0 0 -61.6335 331.089 4
4 0 0 71.4452 275.457 3
4 0 1 683.779 884.573 4
4 0 1 774.297 873.735 3
4 0 2 10280.7 2534.08 3
4 0 3 4115.42 1036.76 16
4 0 4 3309.59 1020.98 7
4 0 5 4599.00 1151.15 7
4 0 6 1598.28 659.711 7
4 0 7 189.337 275.447 7
4 1 -9 181.495 48.9784 12
4 1 -8 1367.15 661.196 12
4 1 -7 3857.90 1291.22 14
4 1 -7 64.1493 90.7084 12
4 1 -6 3397.42 1071.12 14
4 1 -6 1602.96 682.062 12
4 1 -5 6372.63 1209.69 14
4 1 -5 5106.37 1091.26 12
4 1 -5 5391.65 1102.15 11
4 1 -4 1422.40 759.235 14
4 1 -4 285.754 586.296 4
4 1 -4 435.386 310.233 12
4 1 -4 597.779 330.749 11
4 1 -3 72.8325 348.008 4
4 1 -2 2476.17 1247.46 4
4 1 -1 401.781 473.047 4
4 1 0 1436.14 870.804 4
4 1 1 293.367 460.585 4
4 1 2 9694.09 1409.48 15
-4 -1 -3 1398.82 558.511 9
-4 -1 -4 4.10670 129.910 9
4 1 5 5013.32 1276.93 7
-4 -1 -5 5663.84 1121.82 9
4 1 6 741.314 430.488 7
-4 -1 -6 568.379 276.564 9
4 1 7 -184.655 81.1885 7
4 2 -9 515.751 245.230 12
4 2 -8 1043.76 572.887 12
4 2 -7 334.518 407.003 12
4 2 -6 7005.58 1497.40 12
4 2 -6 6154.63 1210.59 11
4 2 -5 -553.005 285.347 12
4 2 -5 612.376 418.601 11
4 2 -4 14787.8 1700.41 12
4 2 -4 13905.3 1624.82 11
4 2 -3 1069.43 813.011 4
4 2 -3 1712.30 589.281 12
4 2 -3 1946.94 636.502 11
4 2 -2 8136.53 2493.28 4
4 2 -1 1019.79 870.922 4
4 2 0 2430.96 1331.20 4
4 2 1 453.932 361.403 15
-4 -2 -2 -172.689 232.192 9
4 2 2 -396.955 304.891 15
-4 -2 -3 376.126 444.525 9
4 2 3 -280.790 373.378 15
-4 -2 -4 1045.86 514.589 9
4 2 5 501.306 389.462 7
-4 -2 -5 -117.308 73.5448 9
4 2 6 84.7053 79.3508 7
-4 -2 -6 -51.3583 132.440 9
4 3 -9 -52.1173 88.8715 12
4 3 -8 6455.14 1057.36 12
4 3 -8 7015.55 906.710 10
4 3 -7 3331.67 870.837 12
4 3 -7 4380.03 837.500 10
4 3 -6 901.892 435.632 12
4 3 -6 1379.43 595.926 11
4 3 -6 1206.87 499.514 10
4 3 -5 283.926 229.177 12
4 3 -5 830.727 420.902 11
4 3 -4 5521.83 1060.85 12
4 3 -4 5183.94 1009.56 11
4 3 -3 22517.4 2134.33 12
4 3 -3 23194.6 2283.65 11
4 3 -2 16976.0 2036.75 11
4 3 -1 12257.9 1675.58 15
4 3 0 12356.0 1611.06 15
4 3 1 18708.1 2125.67 15
4 3 2 8694.34 1529.04 15
-4 -3 -2 8815.89 1587.58 9
-4 -3 -3 236.025 315.940 9
4 3 3 -98.3238 317.809 15
-4 -3 -4 1217.63 753.540 9
4 3 5 106.479 195.680 7
-4 -3 -5 -48.6932 225.387 9
-4 -3 -6 164.134 147.218 9
4 4 -8 455.118 243.045 10
4 4 -7 873.560 464.626 11
4 4 -7 287.419 219.165 10
4 4 -6 9335.46 1473.93 11
4 4 -6 8209.84 1206.77 10
4 4 -5 463.245 186.231 11
4 4 -5 942.249 366.141 10
4 4 -4 1936.88 633.522 11
4 4 -4 1763.48 574.300 10
4 4 -3 20491.7 2158.65 11
4 4 -2 34044.1 2960.29 11
4 4 -1 18599.8 2032.60 15
4 4 -1 18456.3 2154.35 11
4 4 0 405.971 358.861 15
-4 -4 -1 -227.122 468.825 9
4 4 1 315.314 339.747 15
-4 -4 -2 3474.27 1000.24 9
4 4 2 4483.55 1046.65 15
-4 -4 -3 682.202 553.673 9
4 4 3 1202.28 533.933 15
-4 -4 -4 1273.96 579.173 9
4 4 5 7436.09 927.940 7
-4 -4 -5 7667.95 1091.45 9
4 5 -8 290.724 152.664 10
4 5 -7 182.386 137.165 11
4 5 -7 135.962 184.264 10
4 5 -6 1804.15 631.030 11
4 5 -6 1902.28 561.295 10
4 5 -5 1536.98 557.937 11
4 5 -5 1246.62 525.856 10
4 5 -4 1271.32 438.845 11
4 5 -3 19071.2 2023.66 11
4 5 -2 9620.78 1429.36 15
4 5 -2 9258.55 1659.47 11
4 5 -1 1239.45 525.149 15
4 5 -1 1271.09 545.860 11
4 5 0 131.218 267.320 15
-4 -5 -1 181.180 333.117 9
4 5 1 167.788 320.949 15
4 5 2 569.011 504.116 15
-4 -5 -2 431.522 378.378 9
-4 -5 -3 640.404 487.223 9
4 5 4 718.485 283.530 7
-4 -5 -4 1129.71 393.622 9
4 6 -7 784.054 304.613 11
4 6 -6 600.595 288.611 11
4 6 -5 270.521 232.920 11
4 6 -4 465.851 191.834 11
4 6 -3 -10.6442 275.764 11
4 6 -2 356.844 261.810 15
4 6 -2 103.589 244.766 11
4 6 -1 1589.89 574.007 15
4 6 -1 953.514 519.588 11
-4 -6 0 136.755 229.759 9
4 6 0 -228.862 215.805 15
-4 -6 -1 1529.77 505.473 9
4 6 1 2024.97 630.051 15
-4 -6 -2 498.246 301.147 9
4 6 2 410.070 167.897 15
4 7 -6 533.842 244.336 11
4 7 -5 811.513 318.240 11
4 7 -4 644.484 296.952 11
4 7 -3 773.408 299.357 11
-4 -7 2 3385.56 779.509 9
4 7 -2 2931.97 637.083 15
4 7 -2 1614.80 489.647 11
-4 -7 1 679.078 305.359 9
4 7 -1 911.175 382.528 15
4 7 0 279.939 203.017 15
-4 -7 0 408.585 267.974 9
5 -7 -1 -377.160 278.522 6
5 -7 0 363.277 239.028 6
5 -7 1 654.944 337.797 6
5 -7 2 131.831 165.614 6
5 -7 3 258.742 292.084 6
5 -7 4 -200.075 228.515 6
5 -6 -2 385.857 273.137 6
5 -6 -1 944.722 432.367 6
5 -6 0 191.758 283.986 6
5 -6 1 -51.7637 187.344 6
5 -6 2 449.838 334.776 6
5 -6 3 153.305 252.863 6
5 -6 4 545.447 380.512 6
5 -6 5 987.281 380.084 6
5 -5 -5 1207.17 366.400 14
5 -5 -4 1806.33 596.657 14
5 -5 -3 2287.81 693.598 14
5 -5 -2 -8.84399 105.123 6
5 -5 -1 346.848 460.975 13
5 -5 -1 594.110 402.231 6
5 -5 0 971.364 672.366 13
5 -5 0 1190.45 510.041 6
5 -5 1 3053.48 1137.51 13
5 -5 1 2896.13 840.380 6
5 -5 2 634.340 457.745 6
5 -5 2 707.021 574.100 13
5 -5 3 4305.34 1019.51 6
5 -4 -6 292.290 176.764 14
5 -4 -5 1124.75 399.630 14
5 -4 -4 4394.93 931.721 14
5 -4 -3 1993.69 677.035 14
5 -4 -3 2067.36 927.214 13
5 -4 -2 587.401 542.013 13
5 -4 -1 -85.0985 286.780 13
5 -4 -1 -133.069 126.510 6
5 -4 0 333.116 346.492 13
5 -4 0 482.462 338.860 6
5 -4 1 -94.8035 198.630 6
5 -4 1 124.641 226.519 13
5 -4 2 7888.21 1739.18 13
5 -3 -7 700.077 283.406 14
5 -3 -6 -37.8966 183.030 14
5 -3 -5 -1515.83 505.685 14
5 -3 -4 584.161 371.132 14
5 -3 -4 108.925 74.3998 13
5 -3 -3 1430.63 587.448 14
5 -3 -3 873.035 577.123 13
5 -3 -2 288.274 349.746 13
5 -3 -1 3875.48 1252.97 13
5 -3 0 373.900 378.423 6
5 -3 0 1077.26 668.144 16
5 -3 1 1260.96 701.334 16
5 -3 2 3558.67 1052.80 16
5 -3 3 1014.17 547.503 7
5 -2 -7 1009.66 408.180 14
5 -2 -6 -169.459 250.939 14
5 -2 -6 982.885 535.630 12
5 -2 -5 337.342 151.158 14
5 -2 -5 2727.77 842.916 12
5 -2 -4 41.9574 355.157 14
5 -2 -4 454.353 523.060 13
5 -2 -3 -1416.72 613.042 14
5 -2 -3 -286.102 516.647 13
5 -2 -3 -247.861 267.980 12
5 -2 -2 -698.757 461.453 14
5 -2 -2 1490.74 723.909 12
5 -2 -1 595.030 445.260 16
5 -2 0 905.407 502.326 16
5 -2 1 3956.04 1056.87 16
5 -2 2 1161.37 823.110 16
5 -2 2 142.203 201.506 7
5 -2 3 2419.79 820.913 16
5 -2 3 2887.27 871.240 7
5 -2 4 700.165 543.268 7
5 -2 5 770.896 424.788 7
5 -1 -7 4817.59 907.498 14
5 -1 -7 1734.62 648.851 12
5 -1 -6 3300.18 894.510 14
5 -1 -6 4107.74 982.402 12
5 -1 -5 12824.9 1654.27 14
5 -1 -5 12715.5 1855.61 12
5 -1 -4 20458.4 2119.53 14
5 -1 -4 23063.3 2293.11 12
5 -1 -3 -143.961 207.635 16
5 -1 -3 306.801 411.163 14
5 -1 -3 422.976 455.487 12
5 -1 -2 -195.995 182.770 16
5 -1 -2 1720.30 652.589 14
5 -1 -2 986.814 598.976 12
5 -1 -1 2409.13 781.519 16
5 -1 -1 4769.86 1132.21 12
5 -1 0 9533.05 1538.09 16
5 -1 1 3019.80 1018.63 16
5 -1 2 4847.71 1139.59 16
5 -1 2 3227.73 869.151 7
5 -1 3 692.551 536.729 16
5 -1 3 -196.218 141.332 7
5 -1 4 61.3841 126.481 7
5 -1 5 72.3033 255.195 7
5 -1 6 213.698 231.787 7
5 0 -8 68.8040 115.328 12
5 0 -7 477.341 253.800 12
5 0 -6 12028.8 1718.72 14
5 0 -6 6770.03 1273.11 12
5 0 -5 4255.78 1257.00 14
5 0 -5 787.391 400.899 12
5 0 -4 4232.37 1065.44 14
5 0 -4 1408.28 618.796 12
5 0 -3 4339.93 1210.24 14
5 0 -3 726.664 614.876 12
5 0 -2 14758.1 1806.46 16
5 0 -2 17048.9 2069.61 12
5 0 -1 35247.3 2886.29 16
5 0 -1 34836.4 2833.55 12
5 0 0 13396.2 1828.60 16
5 0 1 12147.0 1728.63 16
5 0 1 11726.7 1582.94 7
5 0 2 432.241 362.009 16
5 0 2 229.125 367.082 7
5 0 3 3009.80 928.032 16
5 0 3 2417.03 809.736 7
5 0 4 279.020 67.0947 7
5 0 5 2793.67 788.782 7
5 0 6 353.177 226.446 7
5 1 -8 977.232 290.264 12
5 1 -7 9438.66 1370.33 12
5 1 -6 5931.34 1205.65 12
5 1 -5 447.626 359.004 12
5 1 -4 7483.96 1352.81 12
5 1 -3 -280.413 316.723 12
5 1 -3 32.1295 342.563 11
5 1 -2 872.194 545.271 12
5 1 -2 -55.7659 271.722 11
5 1 -1 47005.4 3454.43 16
5 1 0 10618.2 1592.49 16
5 1 1 1447.44 583.851 16
5 1 2 973.967 608.549 16
5 1 3 1029.46 494.575 7
5 1 4 3821.30 964.157 7
5 1 5 642.484 388.939 7
5 1 6 223.393 217.004 7
5 2 -8 3136.44 667.542 12
5 2 -7 306.887 313.060 12
5 2 -6 -316.775 286.044 12
5 2 -5 18718.8 2129.40 12
5 2 -4 1474.23 740.927 12
5 2 -4 1556.82 629.739 11
5 2 -3 6958.77 1275.37 12
5 2 -3 6914.67 1370.58 11
5 2 -2 35610.6 2823.56 12
5 2 -2 35011.4 2873.86 11
5 2 -1 25989.6 2604.19 16
5 2 0 5368.94 1102.43 16
5 2 1 806.879 528.879 16
-5 -2 -1 1059.67 547.332 9
-5 -2 -2 1154.93 566.692 9
-5 -2 -3 1280.26 484.770 9
5 2 4 1535.71 572.909 7
-5 -2 -4 1106.68 391.893 9
5 2 5 -9.32742 38.4748 7
-5 -2 -5 -91.9120 139.883 9
5 3 -8 3776.71 644.891 12
5 3 -7 2652.51 691.153 12
5 3 -6 545.813 424.627 12
5 3 -5 317.773 283.985 12
5 3 -5 -290.995 344.977 11
5 3 -4 3794.98 912.376 12
5 3 -4 3298.34 887.410 11
5 3 -3 3401.53 951.849 12
5 3 -3 1307.06 506.448 11
5 3 -2 20174.4 2178.21 11
5 3 -1 5783.29 1267.69 16
5 3 0 6894.01 1173.47 16
5 3 0 6402.00 1227.19 15
-5 -3 -1 505.508 359.003 9
-5 -3 -2 189.481 219.431 9
-5 -3 -3 915.558 457.250 9
5 3 4 56.6981 111.748 7
-5 -3 -4 63.4492 51.1931 9
5 3 5 1361.79 382.735 7
5 4 -6 -280.807 204.114 11
5 4 -5 5451.03 955.369 11
5 4 -4 4618.98 929.480 11
5 4 -3 15785.8 1844.55 11
5 4 -2 8419.60 1412.04 16
5 4 -2 7451.76 1281.17 11
5 4 -1 9.88137 86.4085 15
5 4 0 1647.11 593.536 15
-5 -4 -1 68.0809 339.603 9
-5 -4 -2 225.860 226.524 9
-5 -4 -3 1186.62 468.446 9
5 4 3 897.233 375.827 7
5 4 4 277.212 201.843 7
-5 -4 -4 670.101 310.171 9
5 5 -6 217.099 231.357 11
5 5 -5 296.456 199.465 11
5 5 -4 361.407 317.476 11
5 5 -3 -446.971 340.789 16
5 5 -3 1.17567 174.985 11
5 5 -1 11.6996 102.068 15
-5 -5 0 760.762 453.093 9
5 5 0 580.818 278.914 15
-5 -5 -1 4457.80 896.742 9
-5 -5 -2 768.176 334.751 9
5 6 -5 357.526 223.868 11
5 6 -4 608.846 269.431 11
5 6 -3 500.439 234.859 11
-5 -6 2 1651.71 610.443 9
-5 -6 1 3248.46 775.163 9
-5 -6 0 512.886 205.124 9
6 -6 0 103.098 72.7494 6
6 -6 1 433.190 261.945 6
6 -6 2 165.044 112.527 6
6 -6 3 1208.01 399.911 6
6 -5 0 160.820 369.382 13
6 -5 0 93.5695 152.250 6
6 -5 1 747.130 624.127 13
6 -5 1 884.233 419.271 6
6 -5 2 406.534 325.231 6
6 -5 3 38.8840 142.863 6
6 -5 4 108.900 179.482 6
6 -4 -4 2674.14 611.134 14
6 -4 -2 1064.88 649.191 13
6 -4 -1 1704.46 782.841 13
6 -4 0 1386.35 776.304 13
6 -4 1 41.9340 263.987 13
6 -4 1 278.732 249.571 6
6 -4 2 1260.53 529.851 6
6 -4 2 1794.48 726.437 13
6 -4 3 269.055 128.685 6
6 -3 -5 2993.49 675.809 14
6 -3 -4 2372.15 657.961 14
6 -3 -3 1415.68 700.869 13
6 -3 -2 661.605 486.387 13
6 -3 -1 -102.369 432.018 13
6 -3 0 4610.01 1096.39 16
6 -3 0 3837.70 1259.16 13
6 -3 1 -292.150 449.368 16
6 -3 1 -107.500 408.157 13
6 -3 2 1995.94 914.245 13
6 -2 -5 12353.8 1412.09 14
6 -2 -5 12233.2 1412.70 12
6 -2 -4 3128.92 909.965 14
6 -2 -4 529.293 408.310 13
6 -2 -3 9176.05 1313.66 14
6 -2 -3 3063.72 970.941 13
6 -2 -2 593.011 430.745 16
6 -2 -2 -143.206 499.203 13
6 -2 -1 2143.47 764.601 16
6 -2 0 1087.36 637.962 16
6 -2 1 974.397 632.085 16
6 -2 2 1205.33 505.721 16
6 -2 3 420.711 309.372 7
6 -1 -6 2703.21 744.428 12
6 -1 -5 2202.72 764.164 12
6 -1 -4 2801.36 895.229 12
6 -1 -3 5473.15 1114.37 16
6 -1 -3 3873.30 1115.88 13
6 -1 -2 2834.41 951.244 16
6 -1 -1 4777.36 1140.26 16
6 -1 0 30376.9 2787.85 16
6 -1 1 2813.08 957.417 16
6 -1 2 1609.71 687.548 16
6 -1 2 2001.95 622.195 7
6 -1 3 999.474 458.944 7
6 -1 4 296.858 265.989 7
6 -1 5 215.069 195.859 7
6 0 -7 4804.74 731.238 12
6 0 -6 3076.85 762.071 12
6 0 -5 5132.76 1092.25 12
6 0 -4 669.498 383.763 16
6 0 -4 2448.49 944.090 12
6 0 -3 3803.79 961.769 16
6 0 -3 6117.83 1394.12 12
6 0 -2 409.939 154.384 16
6 0 -1 8683.84 1504.88 16
6 0 0 5106.61 1299.06 16
6 0 1 440.365 606.275 16
6 0 2 2987.89 817.365 16
6 0 2 2432.46 717.069 7
6 0 3 2127.46 645.173 7
6 0 4 200.332 232.349 7
6 0 5 1675.66 474.172 7
6 1 -7 1446.85 448.251 12
6 1 -6 -31.3075 147.988 16
6 1 -6 1099.30 532.943 12
6 1 -5 48.9452 175.230 16
6 1 -5 1663.96 657.296 12
6 1 -4 -221.457 364.144 16
6 1 -4 2088.20 817.088 12
6 1 -3 2667.44 768.957 16
6 1 -2 8709.96 1495.89 16
6 1 -1 432.684 485.857 16
6 1 0 14269.4 1934.81 16
6 1 1 -45.4913 283.707 16
6 1 1 101.303 87.2667 7
6 1 2 471.081 374.937 16
6 1 2 595.871 298.613 7
6 1 3 580.875 361.689 7
6 1 4 616.167 361.082 7
6 2 -7 3221.07 570.679 12
6 2 -6 -369.723 290.313 16
6 2 -6 1340.25 543.634 12
6 2 -5 -200.024 333.711 16
6 2 -5 2469.24 802.925 12
6 2 -4 1173.00 383.859 16
6 2 -3 -68.5091 80.4389 16
6 2 -2 2738.59 917.238 16
6 2 -1 585.226 439.806 16
6 2 0 1328.51 596.711 16
6 2 1 547.678 419.762 16
6 2 1 624.047 399.676 7
6 2 2 305.646 202.860 7
6 2 3 2064.15 572.027 7
6 2 4 384.671 230.026 7
6 3 -6 1621.59 476.083 16
6 3 -5 -171.862 285.997 16
6 3 -4 1443.02 461.891 16
6 3 -3 1648.34 453.157 16
6 3 -2 3.25340 286.221 16
6 3 -1 671.678 386.327 16
-6 -3 0 1203.72 614.216 9
-6 -3 -1 -146.362 116.340 9
6 3 1 115.182 177.895 7
-6 -3 -2 834.879 365.585 9
6 3 2 432.144 235.561 7
6 3 3 -236.858 192.029 7
6 4 -5 1594.84 448.328 16
6 4 -4 359.848 251.996 16
6 4 -3 603.026 315.428 16
6 4 -2 198.388 181.401 16
-6 -4 1 1243.71 506.262 9
-6 -4 0 564.293 318.124 9
-6 -4 -1 2902.80 618.775 9
6 4 1 2673.20 547.801 7
-6 -5 3 -65.3331 109.461 9
-6 -5 2 990.425 392.254 9
-6 -5 1 2670.55 550.589 9
7 -4 -1 18.4160 108.635 13
7 -4 0 202.933 221.998 13
7 -4 1 332.031 296.247 13
7 -3 -2 458.241 317.647 13
7 -3 -1 168.995 277.071 13
7 -3 0 214.722 309.094 13
7 -3 1 2885.31 840.108 13
7 -3 2 1658.73 539.122 13
7 -2 -3 1687.67 586.433 13
7 -2 -2 236.908 338.146 13
7 -2 -1 -53.9674 199.766 16
7 -2 -1 -165.155 336.581 13
7 -2 0 1481.40 495.535 16
7 -2 0 1433.71 705.696 13
7 -2 1 -380.539 370.537 13
7 -2 2 64.3892 78.6915 13
7 -1 -3 587.906 437.365 16
7 -1 -3 96.4330 200.211 13
7 -1 -2 921.877 501.771 16
7 -1 -2 489.113 353.546 13
7 -1 -1 2031.79 696.199 16
7 -1 0 591.560 418.821 16
7 -1 1 244.939 122.342 16
7 0 -4 1761.58 538.566 16
7 0 -3 812.422 412.707 16
7 0 -3 184.190 157.062 13
7 0 -2 539.854 342.402 16
7 0 -1 795.182 444.395 16
7 0 0 842.723 376.251 16
7 0 1 626.283 304.135 16
7 1 -4 452.029 342.142 16
7 1 -3 447.743 365.256 16
7 1 -3 28.3222 122.344 13
7 1 -2 580.684 394.954 16
7 1 -1 2182.59 598.681 16
7 1 0 2098.64 606.324 16
7 1 1 1726.94 453.027 16
7 2 -4 345.641 265.721 16
7 2 -3 323.473 288.000 16
7 2 -2 303.528 263.840 16
7 2 -1 424.523 254.456 16
7 2 0 2427.11 550.471 16
