#------------------------------------------------------------------------------
#$Date: 2019-11-24 00:41:16 +0200 (Sun, 24 Nov 2019) $
#$Revision: 235811 $
#$URL: file:///home/coder/svn-repositories/cod/cif/4/03/72/4037212.cif $
#------------------------------------------------------------------------------
#
# This file is available in the Crystallography Open Database (COD),
# http://www.crystallography.net/
#
# All data on this site have been placed in the public domain by the
# contributors.
#
data_4037212
loop_
_publ_author_name
'Pigulski, Bart\/lomiej'
'Arendt, Agata'
'Tomilin, Denis N.'
'Sobenina, Lyubov N.'
'Trofimov, Boris A.'
'Szafert, S\/lawomir'
_publ_section_title
;
 Transition-Metal Free Mechanochemical Approach to Polyyne Substituted
 Pyrroles.
;
_journal_issue                   19
_journal_name_full               'The Journal of organic chemistry'
_journal_page_first              9188
_journal_page_last               9198
_journal_paper_doi               10.1021/acs.joc.6b01732
_journal_volume                  81
_journal_year                    2016
_chemical_formula_moiety         'C22 H16 N2'
_chemical_formula_sum            'C22 H16 N2'
_chemical_formula_weight         308.37
_space_group_crystal_system      triclinic
_space_group_IT_number           2
_space_group_name_Hall           '-P 1'
_space_group_name_H-M_alt        'P -1'
_atom_sites_solution_hydrogens   geom
_audit_creation_method           SHELXL-2013
_cell_angle_alpha                93.97(3)
_cell_angle_beta                 103.51(3)
_cell_angle_gamma                107.90(3)
_cell_formula_units_Z            2
_cell_length_a                   7.361(2)
_cell_length_b                   7.922(2)
_cell_length_c                   15.443(5)
_cell_measurement_reflns_used    2669
_cell_measurement_temperature    100(2)
_cell_measurement_theta_max      36.5223
_cell_measurement_theta_min      2.9560
_cell_volume                     823.5(5)
_computing_structure_refinement  'SHELXL-2013 (Sheldrick, 2013)'
_diffrn_ambient_temperature      100(2)
_diffrn_detector_area_resol_mean 8.3359
_diffrn_measured_fraction_theta_full 0.992
_diffrn_measured_fraction_theta_max 0.992
_diffrn_measurement_device_type  'Kuma KM-4 CCD'
_diffrn_measurement_method       '/w scans'
_diffrn_radiation_type           MoK\a
_diffrn_radiation_wavelength     0.71073
_diffrn_reflns_av_R_equivalents  0.0310
_diffrn_reflns_av_unetI/netI     0.0532
_diffrn_reflns_Laue_measured_fraction_full 0.992
_diffrn_reflns_Laue_measured_fraction_max 0.992
_diffrn_reflns_limit_h_max       7
_diffrn_reflns_limit_h_min       -9
_diffrn_reflns_limit_k_max       10
_diffrn_reflns_limit_k_min       -10
_diffrn_reflns_limit_l_max       19
_diffrn_reflns_limit_l_min       -19
_diffrn_reflns_number            7476
_diffrn_reflns_point_group_measured_fraction_full 0.992
_diffrn_reflns_point_group_measured_fraction_max 0.992
_diffrn_reflns_theta_full        27.000
_diffrn_reflns_theta_max         26.999
_diffrn_reflns_theta_min         2.962
_diffrn_source                   'Enhance (Mo) X-ray Source'
_exptl_absorpt_coefficient_mu    0.073
_exptl_absorpt_correction_type   none
_exptl_crystal_colour            yellow
_exptl_crystal_density_diffrn    1.244
_exptl_crystal_description       plates
_exptl_crystal_F_000             324
_exptl_crystal_size_max          0.400
_exptl_crystal_size_mid          0.200
_exptl_crystal_size_min          0.040
_refine_diff_density_max         0.332
_refine_diff_density_min         -0.200
_refine_diff_density_rms         0.063
_refine_ls_extinction_method     none
_refine_ls_goodness_of_fit_ref   0.898
_refine_ls_hydrogen_treatment    constr
_refine_ls_matrix_type           full
_refine_ls_number_parameters     303
_refine_ls_number_reflns         3575
_refine_ls_number_restraints     27
_refine_ls_restrained_S_all      1.005
_refine_ls_R_factor_all          0.1078
_refine_ls_R_factor_gt           0.0607
_refine_ls_shift/su_max          0.002
_refine_ls_shift/su_mean         0.000
_refine_ls_structure_factor_coef Fsqd
_refine_ls_weighting_details
'w=1/[\s^2^(Fo^2^)+(0.0984P)^2^] where P=(Fo^2^+2Fc^2^)/3'
_refine_ls_weighting_scheme      calc
_refine_ls_wR_factor_gt          0.1444
_refine_ls_wR_factor_ref         0.1626
_reflns_Friedel_coverage         0.000
_reflns_number_gt                1949
_reflns_number_total             3575
_reflns_threshold_expression     'I > 2\s(I)'
_cod_data_source_file            jo6b01732_si_001.cif
_cod_data_source_block           1-C6THI-Me
_cod_original_cell_volume        823.5(4)
_cod_database_code               4037212
_shelx_space_group_comment
;
The symmetry employed for this shelxl refinement is uniquely defined
by the following loop, which should always be used as a source of
symmetry information in preference to the above space-group names.
They are only intended as comments.
;
_shelx_estimated_absorpt_t_min   0.971
_shelx_estimated_absorpt_t_max   0.997
_shelxl_version_number           2013-4
_shelx_res_file
;
TITL tom35 in P-1
CELL 0.71073 7.361 7.922 15.443 93.97 103.51 107.9
ZERR 2 0.002 0.002 0.005 0.03 0.03 0.03
LATT 1
SFAC C H N
UNIT 44 32 4
SADI C18 C19 C18' C19' C19 C20 C19' C20' C20 C21 C20' C21'
L.S. 10
PLAN  20
BOND $H
FMAP 2
ACTA 54
OMIT -4 54
TEMP -173
SIZE 0.40 0.20 0.04
BOND $H
CONF

WGHT    0.098400
FVAR       5.74711   0.72762
C5    1    0.228865   -0.119243    1.040685    11.00000    0.03224    0.04391 =
         0.03387    0.00492    0.00931    0.01491
C6    1    0.219693   -0.233123    1.089110    11.00000    0.02849    0.04270 =
         0.03631    0.00228    0.00731    0.01267
C7    1    0.207728   -0.373309    1.143274    11.00000    0.02283    0.03700 =
         0.03771    0.00552    0.00630    0.00632
C4    1    0.238769    0.005551    0.984058    11.00000    0.03458    0.04725 =
         0.03292    0.00667    0.01117    0.01556
C8    1    0.189695   -0.347342    1.230401    11.00000    0.03616    0.03400 =
         0.04062    0.00398    0.00771    0.00987
AFIX  43
H8    2    0.186337   -0.235216    1.254740    11.00000   -1.20000
AFIX   0
C11   1    0.197247   -0.675959    1.158760    11.00000    0.03387    0.03667 =
         0.06465    0.00605    0.01703    0.01140
AFIX  43
H11   2    0.199244   -0.788575    1.134333    11.00000   -1.20000
AFIX   0
C10   1    0.181053   -0.649502    1.245344    11.00000    0.02650    0.03854 =
         0.05915    0.01533    0.01042    0.00809
C12   1    0.210490   -0.539835    1.107788    11.00000    0.03316    0.04142 =
         0.04628    0.00489    0.01152    0.01103
AFIX  43
H12   2    0.221598   -0.558567    1.048085    11.00000   -1.20000
AFIX   0
C13   1    0.162654   -0.794178    1.297668    11.00000    0.03429    0.05381 =
         0.08269    0.02895    0.01863    0.01544
C9    1    0.176675   -0.484587    1.281512    11.00000    0.04011    0.05081 =
         0.03732    0.00935    0.01029    0.01052
AFIX  43
H9    2    0.164763   -0.467004    1.341140    11.00000   -1.20000
AFIX   0
N1    3    0.145548   -0.912021    1.338382    11.00000    0.05074    0.07122 =
         0.11640    0.05271    0.02943    0.02148
C3    1    0.249135    0.113200    0.931745    11.00000    0.03343    0.05259 =
         0.03713    0.00909    0.01096    0.01699
SAME 0.02 0.04 C16 C17 C18 C21
SAME 0.02 0.04 C16' C17' C18' C21'
PART 1
C2    1    0.259050    0.217775    0.869600    21.00000    0.03326    0.03004 =
         0.04006    0.00835    0.01134    0.01199
C1    1    0.270838    0.317986    0.811866    21.00000    0.02775    0.03669 =
         0.03114    0.00219    0.00709    0.01028
C14   1    0.282641    0.431771    0.748015    21.00000    0.03060    0.03612 =
         0.02848    0.01198    0.00981    0.01115
C16   1    0.282578    0.557181    0.619723    21.00000    0.03551    0.04186 =
         0.02572    0.01404    0.01313    0.01421
C15   1    0.258211    0.397810    0.655707    21.00000    0.04228    0.02999 =
         0.03406    0.00419    0.01384    0.01332
AFIX  43
H15   2    0.229254    0.283131    0.622230    21.00000   -1.20000
AFIX   0
C17   1    0.322389    0.691926    0.690276    21.00000    0.03141    0.04087 =
         0.04052    0.01117    0.01868    0.01245
C18   1    0.355300    0.890125    0.686398    21.00000    0.03379    0.06585 =
         0.06687    0.03125    0.02216    0.00590
AFIX  23
H18A  2    0.239727    0.918602    0.697066    21.00000   -1.20000
H18B  2    0.473643    0.962528    0.735075    21.00000   -1.20000
AFIX   0
C21   1    0.271433    0.600622    0.525979    21.00000    0.04298    0.07900 =
         0.03882    0.04079    0.02123    0.02331
AFIX  23
H21A  2    0.158008    0.508558    0.482174    21.00000   -1.20000
H21B  2    0.394531    0.603617    0.509615    21.00000   -1.20000
AFIX   0
C19   1    0.383689    0.940794    0.597811    21.00000    0.04776    0.06998 =
         0.07340    0.03472    0.02518    0.01746
AFIX  23
H19A  2    0.522114    0.958981    0.596394    21.00000   -1.20000
H19B  2    0.356520    1.054141    0.588849    21.00000   -1.20000
AFIX   0
C20   1    0.243759    0.792503    0.524742    21.00000    0.05437    0.05977 =
         0.05529    0.03093    0.01255    0.01329
AFIX  23
H20A  2    0.255895    0.830657    0.466048    21.00000   -1.20000
H20B  2    0.107039    0.778286    0.527698    21.00000   -1.20000
AFIX   0
C22   1    0.343574    0.706019    0.857210    21.00000    0.03492    0.04951 =
         0.03653   -0.01081    0.00882    0.00974
AFIX 137
H22A  2    0.429781    0.663673    0.902502    21.00000   -1.50000
H22B  2    0.212954    0.677851    0.868804    21.00000   -1.50000
H22C  2    0.402159    0.836134    0.860474    21.00000   -1.50000
AFIX   0
N2    3    0.322484    0.617313    0.767689    21.00000    0.03154    0.02853 =
         0.03334    0.00294    0.01129    0.00511
PART 0
PART 2
C12'  1    0.271662    0.273469    0.879960   -21.00000    0.03511
C13'  1    0.285004    0.383750    0.837278   -21.00000    0.04584
C14'  1    0.298182    0.526872    0.777779   -21.00000    0.02890    0.03877 =
         0.05326    0.00250    0.00874    0.00719
C15'  1    0.324843    0.696440    0.799813   -21.00000    0.03013    0.05077 =
         0.06172   -0.00796    0.00952   -0.00120
AFIX  43
H151  2    0.342558    0.760597    0.857155   -21.00000   -1.20000
AFIX   0
C16'  1    0.320427    0.761963    0.713767   -21.00000    0.02264    0.08852 =
         0.04333    0.01172    0.01644    0.01582
C17'  1    0.300845    0.625562    0.652083   -21.00000    0.03374
C18'  1    0.289351    0.611161    0.555338   -21.00000    0.07102
AFIX  23
H181  2    0.149797    0.544852    0.521985   -21.00000   -1.20000
H182  2    0.368654    0.535941    0.543244   -21.00000   -1.20000
AFIX   0
C21'  1    0.347462    0.918284    0.677290   -21.00000    0.10484
AFIX  23
H211  2    0.490858    0.987628    0.693121   -21.00000   -1.20000
H212  2    0.281181    0.991659    0.703925   -21.00000   -1.20000
AFIX   0
C19'  1    0.354922    0.777909    0.515844   -21.00000    0.02877    0.06123 =
         0.03981    0.01191    0.01983    0.01244
AFIX  23
H191  2    0.294403    0.761774    0.450143   -21.00000   -1.20000
H192  2    0.500927    0.831044    0.529666   -21.00000   -1.20000
AFIX   0
C20'  1    0.262889    0.883242    0.572010   -21.00000    0.03556    0.02227 =
         0.04106    0.00893    0.01334   -0.00396
AFIX  23
H201  2    0.118916    0.816933    0.557643   -21.00000   -1.20000
H202  2    0.278564    1.000992    0.551146   -21.00000   -1.20000
AFIX   0
C22'  1    0.263294    0.306286    0.647879   -21.00000    0.04951    0.07228 =
         0.04020    0.01063    0.01185    0.01264
AFIX 137
H221  2    0.377691    0.270959    0.675168   -21.00000   -1.50000
H222  2    0.255876    0.313988    0.584155   -21.00000   -1.50000
H223  2    0.141752    0.216706    0.652958   -21.00000   -1.50000
AFIX   0
N2'   3    0.283785    0.471210    0.692003   -21.00000    0.03110    0.02912 =
         0.09274   -0.02667    0.00848    0.00480
PART 0

HKLF 4

REM  tom35 in P-1
REM R1 =  0.0607 for    1949 Fo > 4sig(Fo)  and  0.1078 for all    3575 data
REM    303 parameters refined using     27 restraints

END

WGHT      0.0982      0.0000

REM Highest difference peak  0.332,  deepest hole -0.200,  1-sigma level  0.063
Q1    1   0.1863 -0.8209  1.3957  11.00000  0.05    0.33
Q2    1   0.3294  0.9831  0.6935  11.00000  0.05    0.29
Q3    1   0.1891 -0.7185  1.3508  11.00000  0.05    0.28
Q4    1   0.2086 -0.5795  1.2834  11.00000  0.05    0.24
Q5    1   0.2851  0.3747  0.7772  11.00000  0.05    0.24
Q6    1   0.2331 -0.3555  1.1902  11.00000  0.05    0.23
Q7    1   0.2783  0.6775  0.6489  11.00000  0.05    0.22
Q8    1   0.2612 -0.1054  1.0952  11.00000  0.05    0.21
Q9    1   0.2168 -0.3006  1.1193  11.00000  0.05    0.20
Q10   1   0.2931  0.1416  0.9918  11.00000  0.05    0.19
Q11   1   0.3366  0.5899  0.6465  11.00000  0.05    0.19
Q12   1   0.2998  0.4577  0.8802  11.00000  0.05    0.19
Q13   1   0.2687  0.0085  1.0384  11.00000  0.05    0.19
Q14   1   0.1842 -0.6416  1.2058  11.00000  0.05    0.18
Q15   1   0.2395 -0.4369  1.1233  11.00000  0.05    0.18
Q16   1   0.3102  0.4771  0.4946  11.00000  0.05    0.18
Q17   1   0.3028  0.5640  0.7284  11.00000  0.05    0.18
Q18   1   0.2983  0.3059  0.9357  11.00000  0.05    0.17
Q19   1   0.2140 -0.4294  1.2581  11.00000  0.05    0.17
Q20   1   0.3013  0.6666  0.5739  11.00000  0.05    0.17
;
_shelx_res_checksum              45497
_shelx_hkl_file
;
   0   0  -3 565.467 55.6356   1
   0   0  -3 554.742 58.7177   0
   0   0   3 564.493 64.5287   3
   0   0   4 87.9573 74.1575   3
   0   0  -4 45.0411 61.6508   1
   0   0  -4 101.003 57.4257   0
   0   0   5 26285.3 179.677   3
   0   0  -5 26650.3 175.442   0
   0   0  -6 1926.51 79.1064   1
   0   0   6 1915.24 93.5782   3
   0   0  -7 322.101 68.7171   1
   0   0   7 293.524 85.7522   3
   0   0  -7 278.022 42.0276   2
   0   0  -8 4278.63 107.933   1
   0   0   8 4292.28 117.698   3
   0   0  -8 3919.28 71.9407   2
   0   0   9 665.369 94.3569   3
   0   0  -9 487.773 77.7644   1
   0   0  -9 461.236 51.9251   2
   0   0 -10 1558.18 102.969   1
   0   0  10 1271.94 106.298   3
   0   0  11 2518.14 127.264   3
   0   0 -11 2518.76 122.002   1
   0   0  12 94.4084 119.901   3
   0   0 -12 112.376 106.638   1
   0   0 -13 1483.00 126.873   1
   0   0  13 1403.38 140.835   3
   0   0 -14 33.2443 112.124   1
   0   0  14 82.8462 127.461   3
   0   0 -15 90.9882 122.987   1
   0   0  15 239.440 135.028   3
   0   0  16 23.8507 147.706   3
   0   0 -16 91.8802 129.045   1
   0   0 -17-8.01000 134.284   1
   0   0  17 63.7288 148.252   3
   0   0 -18 244.537 130.618   1
   0   0 -19 379.814 163.033   1
   0   1 -19 115.866 136.189   1
   0  -1  19 50.8821 173.591   3
   0  -1  18 271.857 146.702   3
   0   1 -18 170.248 128.727   1
   0   1 -17 61.1465 132.162   1
   0  -1  17-2.52404 154.637   3
   0  -1  16 152.624 142.898   3
   0   1 -16-13.3011 123.740   1
   0   1 -15 401.977 126.511   1
   0  -1  15 572.109 141.798   3
   0  -1  14 584.236 125.096   3
   0   1 -14 356.089 107.747   1
   0  -1  13 146.652 128.463   3
   0   1 -13 31.3288 105.551   1
   0   1 -12 1457.42 126.648   1
   0  -1  12 1848.78 142.109   3
   0   1 -11 286.728 102.306   0
   0  -1  11 548.604 131.751   3
   0   1 -11 281.820 97.5972   1
   0   1 -10 1422.15 105.379   0
   0   1 -10 1290.68 106.199   1
   0  -1  10 1240.27 133.065   3
   0   1  -9 68.7537 80.0393   0
   0   1  -9-40.8722 85.4576   1
   0  -1   9 45.4839 107.483   3
   0   1  -8 12161.9 147.272   0
   0   1  -8 12654.1 169.884   1
   0  -1   8 12102.4 184.702   3
   0  -1   7 11123.6 164.408   3
   0   1  -7 10595.7 139.289   1
   0   1  -7 11533.1 139.339   0
   0  -1   6 9877.52 148.471   3
   0   1  -6 9305.50 121.189   1
   0   1  -5 860.290 67.4555   1
   0  -1   5 1070.05 94.9726   3
   0   1  -4 3683.76 72.6626   0
   0  -1   4 3812.15 101.356   3
   0   1  -4 3259.54 72.2170   1
   0   1  -3 18882.6 108.594   0
   0   1  -3 19060.8 126.747   1
   0  -1   3 19101.3 141.622   3
   0   1  -2 2789.30 56.3495   1
   0   1   1 5663.58 72.6092   0
   0  -1  -1 5839.29 58.7480   2
   0  -1  -2 303208. 1503.90   1
   0  -1  -2 294753. 1535.06   2
   0  -1  -3 111919. 1024.62   2
   0   1   3 114489. 226.707   3
   0   1   4 804.912 52.0334   3
   0  -1  -4 1025.48 60.0674   1
   0  -1  -5 3150.39 73.0517   2
   0  -1  -5 3506.28 83.4554   1
   0  -1  -6 25500.0 185.368   1
   0  -1  -6 24834.0 159.404   2
   0   1   7 1135.09 78.3840   3
   0  -1  -7 1181.33 67.1254   2
   0  -1  -7 1268.40 73.7374   1
   0  -1  -8 14223.4 165.895   1
   0   1   8 14346.1 166.419   3
   0   1   9 430.239 97.5561   3
   0  -1  -9 428.664 78.8446   1
   0  -1  -9 301.751 54.1930   2
   0  -1 -10 1278.70 80.7358   2
   0   1  10 1528.10 117.562   3
   0  -1 -10 1314.29 101.070   1
   0   1  11 1594.75 130.145   3
   0  -1 -11 1657.96 118.469   1
   0   1  12 2314.88 140.309   3
   0  -1 -12 2469.74 137.573   1
   0  -1 -13 519.421 114.826   1
   0   1  13 431.744 125.922   3
   0  -1 -14 91.3884 124.190   1
   0   1  14 217.252 129.993   3
   0  -1 -15 189.256 139.501   1
   0  -1 -16 336.716 155.562   1
   0  -1 -17 194.575 153.151   1
   0  -1 -18 87.5490 146.568   1
   0  -1 -19-16.6252 173.751   1
   0  -2  19 27.3423 172.325   3
   0   2 -19 105.890 145.206   1
   0  -2  18 1051.21 180.721   3
   0   2 -18 897.786 134.691   1
   0   2 -17-94.3910 133.428   1
   0  -2  17 76.2466 149.867   3
   0  -2  16 206.857 149.677   3
   0   2 -16 89.5613 126.403   1
   0  -2  15 353.611 143.303   3
   0   2 -15 278.300 126.571   1
   0  -2  14 916.141 139.527   3
   0   2 -14 920.941 121.415   1
   0   2 -13 59.6995 110.097   1
   0  -2  13 249.481 136.307   3
   0   2 -12 886.709 107.436   0
   0   2 -12 1016.00 127.894   1
   0  -2  12 695.884 161.831   3
   0   2 -11 50.4091 90.0787   0
   0   2 -11-11.6432 103.889   1
   0  -2  11-37.9978 145.763   3
   0   2 -10 1594.76 97.1367   0
   0   2 -10 1650.11 74.9605   4
   0  -2  10 1678.86 148.387   3
   0   2 -10 1684.24 104.811   1
   0   2  -9 1090.23 86.4709   0
   0   2  -9 983.350 84.9400   1
   0  -2   9 1054.55 123.978   3
   0  -2   8 1592.12 116.709   3
   0  -2   8 1338.03 46.0140   2
   0   2  -8 1399.97 84.2747   1
   0   2  -8 1353.10 75.5790   0
   0  -2   7 902.101 44.6026   2
   0  -2   7 888.861 106.023   3
   0   2  -7 758.705 73.4838   1
   0   2  -7 849.439 71.7292   0
   0  -2   6 9668.51 151.820   3
   0   2  -6 8963.20 123.132   1
   0  -2   6 9575.73 86.2235   2
   0   2  -5 6642.94 108.717   1
   0  -2   5 6463.93 123.794   3
   0  -2   5 4629.62 65.4647   2
   0  -2   4 2196.45 54.9037   2
   0   2  -4 2204.60 60.4465   0
   0  -2   4 3572.39 102.608   3
   0   2  -4 3180.93 86.0972   1
   0   2  -3 9817.32 97.5021   0
   0  -2   3 9812.94 95.9744   2
   0  -2   2 15967.9 108.182   2
   0   2  -2 16578.7 121.515   0
   0  -2   1 49.2336 56.7614   2
   0   2  -1 73.1567 60.4800   0
   0  -2   0 836.887 56.3061   1
   0   2   0 768.259 68.0081   0
   0  -2  -1 11288.1 111.443   2
   0  -2  -1 10531.8 94.5127   1
   0   2   1 10730.2 119.871   0
   0  -2  -2 41212.0 188.258   1
   0   2   2 41493.9 214.636   0
   0  -2  -3 79043.7 282.303   1
   0  -2  -3 81489.5 270.074   2
   0   2   4 5538.80 69.9083   3
   0  -2  -4 5699.22 94.4601   1
   0  -2  -4 4742.07 90.6449   2
   0  -2  -5 30707.9 193.584   2
   0  -2  -5 32165.2 192.578   1
   0  -2  -6 157.055 65.8514   1
   0   2   6 168.781 51.6426   3
   0  -2  -6 133.263 63.2230   2
   0   2   7 546.408 59.3397   3
   0  -2  -7 670.982 71.1778   2
   0   2   8 363.720 76.3064   3
   0  -2  -8 462.798 80.8172   1
   0  -2  -8 308.241 70.7434   2
   0  -2  -9 988.327 101.791   1
   0  -2  -9 593.351 75.8895   2
   0   2   9 910.186 96.6770   3
   0   2  10-39.5134 99.3517   3
   0  -2 -10 72.1622 74.3939   2
   0  -2 -10-10.6952 100.660   1
   0  -2 -11 691.215 113.452   1
   0  -2 -12 96.1963 114.961   1
   0  -2 -13 477.335 120.863   1
   0  -2 -14 30.4645 131.514   1
   0  -2 -15 5.50676 132.797   1
   0  -2 -16 261.056 142.053   1
   0  -2 -17 121.301 138.028   1
   0  -2 -18 195.804 150.606   1
   0   3 -19 150.597 152.344   1
   0  -3  19 67.7785 172.163   3
   0  -3  18 147.589 138.344   3
   0   3 -18 197.733 144.265   1
   0   3 -17-110.466 131.740   1
   0  -3  17 172.295 159.560   3
   0   3 -16-37.5225 126.004   1
   0  -3  16 189.492 153.415   3
   0   3 -15 491.691 134.450   1
   0  -3  15 401.881 156.628   3
   0   3 -14 140.440 133.255   1
   0  -3  14 330.465 155.365   3
   0   3 -13 3602.52 154.911   1
   0  -3  13 3356.47 185.420   3
   0   3 -12 3704.68 149.534   1
   0  -3  12 3783.24 196.501   3
   0   3 -12 3017.38 94.7406   4
   0  -3  11 109.149 158.562   3
   0   3 -11-7.44131 92.1410   1
   0   3 -11-8.17128 64.4578   4
   0  -3  10 319.354 145.244   3
   0   3 -10 359.610 93.9108   1
   0   3 -10 340.574 83.2885   0
   0   3 -10 263.687 65.0640   4
   0   3  -9 331.595 80.8893   0
   0   3  -9 271.726 62.5509   4
   0   3  -9 355.093 82.2575   1
   0  -3   9 414.534 133.203   3
   0   3  -8 2448.58 75.7979   4
   0   3  -8 2242.36 93.9370   0
   0  -3   8 2380.64 136.627   3
   0  -3   8 2512.76 65.8302   2
   0   3  -8 1950.26 95.2941   1
   0  -3   7 4941.65 142.053   3
   0   3  -7 4755.22 116.531   1
   0   3  -7 4410.09 96.0047   0
   0  -3   6 5646.41 135.964   3
   0   3  -6 5665.80 99.0003   0
   0   3  -6 5916.10 123.451   1
   0   3  -5 17518.4 171.362   1
   0   3  -5 17922.0 150.931   0
   0  -3   5 17470.0 186.162   3
   0   3  -4 364.587 61.2626   1
   0  -3   4 497.015 63.4985   2
   0   3  -4 364.054 70.7600   0
   0  -3   4 322.250 84.9719   3
   0   3  -3 208.479 62.3851   0
   0  -3   3 164.324 54.4383   2
   0   3  -2 36615.5 211.776   0
   0  -3   2 35941.4 207.634   2
   0   3  -1 9192.43 126.085   0
   0  -3   1 9752.92 125.866   2
   0  -3   0 5244.71 106.686   2
   0   3   0 4985.18 105.663   0
   0  -3  -1 197.912 64.1453   2
   0  -3  -1 150.551 50.5915   1
   0   3   1 195.010 77.8936   0
   0  -3  -2 1531.70 67.6057   1
   0   3   2 1823.52 39.7443   3
   0   3   2 2102.28 98.0327   0
   0  -3  -2 1746.50 82.2325   2
   0   3   3 19799.8 100.069   3
   0  -3  -3 17664.2 168.442   2
   0  -3  -3 19650.3 160.450   1
   0   3   3 18215.9 186.959   0
   0   3   4 1237.73 48.3259   3
   0   3   4 1267.69 101.012   0
   0  -3  -4 941.648 78.7780   2
   0  -3  -4 1137.39 71.1529   1
   0   3   5 21938.7 127.766   3
   0   3   5 22055.7 222.284   0
   0   3   6 2280.97 62.1831   3
   0  -3  -6 2127.33 94.2017   2
   0  -3  -6 2402.03 86.5294   1
   0  -3  -7 4955.24 115.636   2
   0  -3  -7 5924.61 124.821   1
   0  -3  -8 8632.39 151.555   2
   0  -3  -8 9812.95 160.161   1
   0  -3  -9 3808.17 125.415   1
   0  -3  -9 3896.57 123.145   2
   0  -3 -10 2803.71 122.784   2
   0  -3 -10 2573.79 115.904   1
   0  -3 -11 2403.03 117.802   1
   0  -3 -11 2128.41 118.370   2
   0  -3 -12 290.385 103.196   1
   0  -3 -13 55.5625 101.040   1
   0  -3 -14 31.6916 115.230   1
   0  -3 -15 116.534 102.726   1
   0  -3 -16 5.76501 127.588   1
   0  -3 -17 118.439 137.489   1
   0   4 -18 22.9934 147.211   1
   0  -4  18 172.074 169.555   3
   0  -4  17 243.368 142.168   3
   0   4 -17 116.302 141.416   1
   0  -4  16 389.153 164.872   3
   0   4 -16 479.881 147.468   1
   0   4 -15-48.1082 139.299   1
   0  -4  15 34.9577 163.699   3
   0  -4  14 29.1082 169.194   3
   0   4 -14-46.8113 89.3371   4
   0   4 -14 41.9568 118.191   1
   0   4 -13-12.7472 84.2099   4
   0  -4  13-12.3943 159.680   3
   0   4 -13 30.3755 108.490   1
   0   4 -12 1119.41 90.7140   4
   0   4 -12 1093.15 111.744   1
   0  -4  12 971.128 162.236   3
   0  -4  11 154.177 159.434   3
   0   4 -11 150.946 102.479   1
   0   4 -11 193.529 85.7081   4
   0   4 -10 20232.5 173.996   4
   0  -4  10 19420.8 290.428   3
   0   4 -10 19533.4 235.290   1
   0   4  -9 324.343 68.0562   4
   0   4  -9 396.647 88.6381   0
   0  -4   9 459.639 148.750   3
   0   4  -9 441.636 101.323   1
   0   4  -8 4709.26 114.817   0
   0  -4   8 5412.07 105.473   2
   0   4  -8 5294.54 142.035   1
   0  -4   8 5080.50 171.241   3
   0  -4   7 5546.65 105.807   2
   0   4  -7 5876.16 143.172   1
   0  -4   7 5516.03 157.886   3
   0   4  -7 4938.48 110.625   0
   0   4  -6 1434.54 87.5912   0
   0  -4   6 1719.01 86.8958   2
   0  -4   6 1561.13 116.033   3
   0   4  -6 1345.92 98.0277   1
   0   4  -6 1807.28 84.7439   4
   0   4  -5 16529.5 145.384   4
   0   4  -5 15884.0 175.600   0
   0   4  -5 14637.1 174.007   1
   0  -4   5 13987.9 180.529   3
   0  -4   5 15921.1 172.621   2
   0   4  -4 797.672 78.2099   0
   0  -4   4 759.093 95.1638   3
   0  -4   4 790.062 76.9225   2
   0  -4   3 786.085 68.1044   2
   0   4  -3 766.397 82.9567   0
   0   4  -2 791.385 86.7954   0
   0  -4   2 930.090 82.3124   2
   0   4  -1 7926.79 134.200   0
   0  -4   1 7514.91 134.586   2
   0  -4   0 4628.03 116.097   2
   0   4   0 4611.84 113.618   0
   0  -4  -1 2195.74 97.7716   2
   0  -4  -1 2340.68 85.1391   1
   0   4   1 2203.42 104.743   0
   0  -4  -2 3610.59 94.3623   1
   0   4   2 3412.51 120.001   0
   0  -4  -2 3423.90 111.794   2
   0  -4  -3 1562.34 95.8661   2
   0   4   3 1616.48 111.451   0
   0  -4  -3 1581.20 78.0990   1
   0  -4  -4 2080.63 90.6565   1
   0   4   4 2334.71 126.244   0
   0  -4  -4 2045.33 109.346   2
   0  -4  -5 121.241 97.7966   2
   0   4   5 79.8596 110.889   0
   0  -4  -5 5.02640 68.0697   1
   0  -4  -6 1869.02 118.539   2
   0   4   6 1925.90 138.570   0
   0  -4  -6 1988.22 95.1158   1
   0  -4  -7 2437.30 127.662   2
   0  -4  -7 2543.01 106.827   1
   0   4   7 2419.07 150.220   0
   0  -4  -8 254.680 95.3943   1
   0   4   8 254.681 140.913   0
   0  -4  -8 259.082 113.543   2
   0  -4  -9 240.352 112.160   2
   0   4   9 288.007 147.457   0
   0  -4  -9 55.2289 98.5389   1
   0  -4 -10 3101.00 135.167   1
   0   4  10 3278.56 176.649   0
   0  -4 -10 3059.60 141.001   2
   0  -4 -11 7566.37 181.383   1
   0  -4 -11 7112.75 182.005   2
   0   4  12 99.7713 157.660   0
   0  -4 -12-23.8075 109.968   1
   0   4  13 293.207 171.095   0
   0  -4 -13 134.585 103.121   1
   0   4  14 98.5235 175.817   0
   0   4  15 96.7239 155.083   0
   0   4  16 549.679 190.955   0
   0   4  17 369.664 192.369   0
   0   5 -18 344.453 159.760   1
   0   5 -17 77.8131 155.942   1
   0  -5  17 179.814 170.275   3
   0   5 -16 430.445 107.438   4
   0   5 -16 493.568 149.926   1
   0  -5  16 431.643 175.223   3
   0  -5  15 18.2055 177.949   3
   0   5 -15 68.5968 95.3490   4
   0   5 -15-2.27324 137.623   1
   0   5 -14 132.783 118.123   1
   0  -5  14 108.832 183.096   3
   0   5 -14 142.491 98.9473   4
   0   5 -13-10.0726 110.761   1
   0  -5  13 128.292 171.840   3
   0   5 -13 46.1927 93.8571   4
   0  -5  12 356.075 162.517   3
   0   5 -12 441.816 90.9609   4
   0   5 -12 337.942 109.996   1
   0   5 -11 1997.42 122.697   1
   0  -5  11 2045.59 168.918   3
   0   5 -11 2499.96 102.386   4
   0  -5  10 210.976 151.420   3
   0   5 -10 149.361 85.5209   4
   0   5 -10 61.6267 98.5418   1
   0   5  -9 242.881 104.619   1
   0   5  -9 312.736 91.1480   4
   0  -5   9 309.720 154.354   3
   0  -5   8 6435.23 194.830   3
   0   5  -8 7222.79 136.021   4
   0   5  -8 7171.89 173.797   1
   0   5  -8 6411.51 140.534   0
   0   5  -7 244.724 109.074   1
   0  -5   7 254.065 130.072   3
   0  -5   7 311.378 95.6488   2
   0   5  -7 336.112 93.3383   0
   0   5  -7 313.805 83.1552   4
   0   5  -6 1171.05 104.937   0
   0   5  -6 1001.62 84.7439   4
   0  -5   6 1121.60 133.765   3
   0   5  -6 1093.70 106.089   1
   0  -5   6 1471.18 108.211   2
   0   5  -5 632.236 104.059   0
   0   5  -5 507.291 86.6385   1
   0   5  -5 666.349 85.8988   4
   0  -5   5 525.262 117.445   3
   0  -5   5 703.188 103.893   2
   0  -5   4 1294.44 97.6334   2
   0  -5   4 1419.06 108.590   3
   0   5  -4 1359.85 90.3561   4
   0   5  -4 1230.31 98.0810   0
   0  -5   3 13.7645 78.3289   3
   0   5  -3-67.9965 101.391   0
   0  -5   3 107.827 76.2298   2
   0  -5   2 1350.72 97.1956   2
   0   5  -2 1294.77 113.320   0
   0  -5   1 749.140 101.798   2
   0   5  -1 974.455 109.591   0
   0  -5   0 133.653 94.9717   2
   0   5   0 132.192 97.2905   0
   0   5   1 264.585 106.497   0
   0  -5  -1 164.399 102.357   2
   0  -5  -1 234.188 79.4008   1
   0   5   2 739.485 121.974   0
   0  -5  -2 723.581 87.0789   1
   0  -5  -2 772.799 106.183   2
   0  -5  -3 3887.68 117.025   1
   0  -5  -3 3784.32 148.566   2
   0   5   3 3400.31 153.122   0
   0  -5  -4 1805.71 99.4325   1
   0  -5  -4 1630.07 126.207   2
   0   5   4 1633.07 140.724   0
   0  -5  -5 389.178 117.519   2
   0   5   5 150.354 134.071   0
   0  -5  -5 461.924 92.4128   1
   0  -5  -6 1012.15 98.0530   1
   0  -5  -6 1103.35 135.126   2
   0   5   6 909.638 147.775   0
   0   5   7 348.508 142.356   0
   0  -5  -7 208.121 83.3830   1
   0  -5  -7 146.866 121.397   2
   0   5   8 3037.97 174.689   0
   0  -5  -8 2922.01 118.495   1
   0  -5  -8 2996.45 155.001   2
   0   5   9 584.970 157.597   0
   0  -5  -9 658.473 135.143   2
   0   5  10 116.882 158.096   0
   0  -5 -10 72.1483 126.309   2
   0   5  11 241.374 167.498   0
   0  -5 -11 45.8539 112.827   2
   0   5  12 548.107 176.017   0
   0   5  13 359.037 184.958   0
   0   5  14 189.083 191.524   0
   0   5  15-20.1578 191.800   0
   0   6 -17 316.974 165.421   1
   0   6 -17 176.279 121.216   4
   0  -6  17 230.448 177.672   3
   0   6 -16 364.472 114.544   4
   0   6 -16 250.106 140.784   1
   0  -6  16 602.950 186.745   3
   0  -6  15 260.044 187.033   3
   0   6 -15 438.389 141.157   1
   0   6 -15 635.870 115.023   4
   0   6 -14 151.425 103.669   4
   0   6 -14 105.159 119.921   1
   0  -6  14 236.607 184.816   3
   0  -6  13 441.648 187.327   3
   0   6 -13 520.058 105.577   4
   0   6 -13 450.736 123.988   1
   0   6 -12 251.806 92.6723   4
   0   6 -12 141.687 115.583   1
   0  -6  12 231.594 181.759   3
   0   6 -11 61.7125 108.526   1
   0   6 -11 47.5241 88.2257   4
   0  -6  11 24.0270 166.759   3
   0   6 -10 591.564 109.978   1
   0   6 -10 708.666 98.6958   4
   0  -6  10 386.910 156.624   3
   0   6  -9-13.4632 93.6121   4
   0  -6   9 117.760 138.471   3
   0   6  -9 113.010 110.918   1
   0   6  -8 31.3301 96.6664   4
   0  -6   8-85.8763 134.213   3
   0   6  -8-25.0545 112.976   1
   0   6  -7 2605.39 133.623   1
   0   6  -7 2643.84 122.174   0
   0  -6   7 3117.34 145.737   2
   0   6  -7 2951.92 120.691   4
   0  -6   7 2958.91 158.701   3
   0  -6   6 953.558 140.512   3
   0   6  -6 1092.28 114.441   1
   0   6  -6 1131.35 132.793   0
   0  -6   6 1127.86 126.542   2
   0   6  -6 1294.27 104.710   4
   0   6  -5 16729.5 188.335   4
   0  -6   5 17885.0 239.086   2
   0   6  -5 17697.2 239.480   0
   0  -6   4 3884.81 143.272   2
   0   6  -4 3943.28 123.093   4
   0  -6   4 3875.72 141.979   3
   0   6  -4 4045.75 146.473   0
   0  -6   3 4166.87 138.208   2
   0   6  -3 4372.61 159.580   0
   0   6  -2 5542.01 166.645   0
   0  -6   2 4424.54 132.748   2
   0   6  -1 447.892 128.569   0
   0  -6   1 501.031 112.073   2
   0   6   0-13.2902 123.597   0
   0  -6   0-15.7818 115.324   2
   0   6   1 942.707 130.041   0
   0  -6  -1 1042.69 133.546   2
   0  -6  -2 38.4023 121.292   2
   0   6   2 167.598 125.446   0
   0  -6  -3 229.310 123.338   2
   0   6   3 75.4445 134.588   0
   0   6   4 143.498 139.087   0
   0  -6  -4 136.028 115.563   2
   0   6   5 1721.68 159.321   0
   0  -6  -5 1615.86 142.663   2
   0   6   6-9.66594 145.470   0
   0  -6  -6 67.2741 121.006   2
   0   6   7 100.488 153.625   0
   0  -6  -7-6.17369 132.029   2
   0  -6  -8-42.9317 135.613   2
   0   6   8 146.644 165.135   0
   0  -6  -9 14.0618 142.509   2
   0   6   9-29.2824 169.432   0
   0   6  10 725.352 188.238   0
   0  -6 -10 586.315 150.114   2
   0  -6 -11-0.54770 124.677   2
   0   6  11 78.5912 186.170   0
   0  -6 -12 255.013 148.223   2
   0   6  12 251.643 199.600   0
   0   6  13 23.2356 205.448   0
   0   7 -18 127.152 132.037   4
   0   7 -17 491.875 130.064   4
   0   7 -16 398.210 143.087   1
   0   7 -16 628.637 128.520   4
   0  -7  15 332.820 183.515   3
   0   7 -15 87.2413 129.877   1
   0   7 -15-4.20026 121.414   4
   0   7 -14 73.6553 99.1544   1
   0  -7  14 86.3421 181.722   3
   0   7 -14 58.2602 115.171   4
   0   7 -13 306.268 108.474   4
   0   7 -13 188.079 105.152   1
   0  -7  13 271.976 178.850   3
   0   7 -12 268.338 110.419   1
   0   7 -12 334.693 105.613   4
   0  -7  12 159.714 175.941   3
   0  -7  11 180.987 172.015   3
   0   7 -11 54.8575 107.514   1
   0   7 -11 325.338 103.788   4
   0  -7  10 140.005 151.399   3
   0   7 -10-20.3140 101.956   4
   0   7 -10 29.9727 101.882   1
   0  -7   9-41.4912 136.599   3
   0   7  -9-16.7997 96.8669   1
   0   7  -9 25.4746 104.784   4
   0   7  -8 238.032 115.391   1
   0  -7   8 116.722 146.137   3
   0   7  -8 267.232 103.283   4
   0   7  -7 104.802 107.866   1
   0   7  -7 185.376 97.9182   4
   0  -7   7 117.441 121.093   2
   0   7  -6 26.5167 93.0702   4
   0  -7   6 185.648 118.946   2
   0   7  -6 29.7499 102.177   1
   0   7  -6 54.9420 117.508   0
   0  -7   5 16.3724 113.996   2
   0   7  -5-7.03649 93.2927   4
   0   7  -5 79.7372 113.909   0
   0   7  -5 65.9833 89.6627   1
   0  -7   4 202.104 117.024   2
   0   7  -4 191.956 118.952   0
   0   7  -4 381.871 95.0806   4
   0  -7   3 5387.55 163.560   2
   0   7  -3 5597.25 182.948   0
   0   7  -2 7210.65 198.733   0
   0  -7   2 5857.24 163.410   2
   0   7  -1 929.208 141.493   0
   0  -7   1 772.948 111.558   2
   0   7   0 1127.23 143.743   0
   0  -7   0 1151.15 117.833   2
   0  -7  -1-48.4586 115.565   2
   0   7   1 50.5826 131.164   0
   0   7   2 54.6965 132.929   0
   0  -7  -2-21.5826 122.773   2
   0   7   3 767.451 141.029   0
   0  -7  -3 757.863 138.873   2
   0  -7  -4 546.455 142.619   2
   0   7   4 800.117 159.215   0
   0   7   5 1534.35 170.719   0
   0  -7  -5 1587.05 161.506   2
   0  -7  -6 379.395 153.672   2
   0   7   6 158.569 164.477   0
   0  -7  -7 84.9458 157.622   2
   0   7   7-99.9097 171.075   0
   0   7   8 170.131 177.318   0
   0  -7  -8-17.7521 156.741   2
   0   7   9 136.011 183.215   0
   0  -7  -9 17.3023 158.820   2
   0  -7 -10-74.8669 140.369   2
   0   7  10 58.9438 197.234   0
   0  -7 -11 13.6040 165.984   2
   0   7  11 76.2516 196.685   0
   0  -7 -12-96.7791 164.901   2
   0   8 -19 55.2111 136.213   4
   0   8 -18 56.5054 121.662   4
   0   8 -17 51.7469 133.008   4
   0   8 -16 67.6573 131.514   4
   0   8 -15 93.2527 128.429   4
   0  -8  14 555.086 186.254   3
   0   8 -14 611.161 129.531   4
   0  -8  13 311.273 190.337   3
   0   8 -13 436.398 121.144   4
   0  -8  12 12.7264 183.318   3
   0   8 -12 142.104 112.192   4
   0   8 -11 6.89765 113.481   4
   0   8 -10 587.600 116.974   4
   0   8  -9-2.26705 108.030   4
   0   8  -8 75.2845 109.972   4
   0   8  -7 205.235 109.945   4
   0  -8   6 52.4760 132.675   2
   0   8  -6-49.5025 102.603   4
   0   8  -5 67.2748 101.723   4
   0  -8   5-15.0006 132.718   2
   0   8  -4 28.2862 105.262   4
   0  -8   4 22.9590 136.468   2
   0   8  -4 143.085 126.135   0
   0   8  -3 240.739 144.451   0
   0   8  -3 228.083 104.950   4
   0  -8   3 212.069 136.136   2
   0  -8   2 1332.10 141.775   2
   0   8  -2 1905.15 168.944   0
   0  -8   1 274.244 125.700   2
   0   8  -1 221.817 160.135   0
   0  -8   0 165.758 123.211   2
   0   8   0 281.551 161.602   0
   0   8   1 547.265 163.060   0
   0  -8  -1 432.308 122.451   2
   0  -8  -2 78.7982 129.302   2
   0   8   2 35.1067 164.639   0
   0  -8  -3 95.2671 138.745   2
   0   8   3 272.998 162.224   0
   0   8   4 394.305 164.046   0
   0  -8  -4 249.198 146.756   2
   0   8   5 231.695 162.971   0
   0  -8  -5 5.03293 147.203   2
   0  -8  -6 115.663 161.655   2
   0   8   6 203.285 143.496   0
   0   8   7 260.725 179.078   0
   0  -8  -7 59.6623 164.556   2
   0   8   8 34.6388 192.138   0
   0  -8  -8-119.090 173.239   2
   0  -8  -9 176.269 165.257   2
   0   9 -19-20.5940 136.840   4
   0   9 -18-92.5053 137.769   4
   0   9 -17 49.8298 139.908   4
   0   9 -16 397.056 150.351   4
   0   9 -15 694.805 148.270   4
   0   9 -14 517.025 140.802   4
   0   9 -13 214.307 129.433   4
   0   9 -12 631.071 135.807   4
   0   9 -11 216.636 132.898   4
   0   9 -10-3.46035 125.956   4
   0   9  -9 14.8182 123.593   4
   0   9  -8 256.924 124.643   4
   0   9  -7 602.653 130.493   4
   0   9  -6 148.129 120.487   4
   0   9  -5 125.434 112.703   4
   0  -9   5-91.9684 148.924   2
   0   9  -4-11.7672 112.112   4
   0  -9   4-80.2248 146.513   2
   0   9  -3 295.519 148.996   0
   0   9  -3 136.026 117.197   4
   0  -9   3 37.0069 150.470   2
   0   9  -2 56.3034 159.368   0
   0  -9   2 84.8747 149.662   2
   0  -9   1 159.763 135.795   2
   0   9  -1 27.5633 154.305   0
   0  -9   0 770.820 131.716   2
   0   9   0 1219.06 184.612   0
   0   9   1 1028.73 186.669   0
   0  -9  -1 651.094 131.656   2
   0  -9  -2 55.7722 135.179   2
   0   9   2 217.355 150.903   0
   0  -9  -3 84.6387 144.505   2
   0   9   3 39.3302 151.214   0
   0  -9  -4 307.831 147.379   2
   0   9   4 360.809 188.107   0
   0  10 -18 138.116 144.512   4
   0  10 -17 4.18407 135.160   4
   0  10 -16 172.994 125.767   4
   0  10 -15 309.502 144.022   4
   0  10 -14 595.095 148.164   4
   0  10 -13 26.1392 137.626   4
   0  10 -12 383.369 141.650   4
   0  10 -11 94.9203 137.982   4
   0  10 -10 26.9049 137.732   4
   0  10  -9-116.217 139.205   4
   0  10  -8 6.91455 136.208   4
   0  10  -7 461.857 141.115   4
   0  10  -6 12.9991 136.701   4
   0  10  -5 590.598 137.443   4
   0 -10   4 56.4107 165.820   2
   0  10  -4-19.1532 132.913   4
   0  10  -3 166.791 134.375   4
   0  10  -2 138.812 134.260   4
   0  10  -1 88.2077 133.649   4
   0  10  -1 72.4927 184.316   0
   0  11 -15 52.2923 141.284   4
   0  11 -14 122.450 123.282   4
   0  11 -13 101.789 119.142   4
   0  11 -12 78.5893 119.920   4
   0  11 -11 285.209 140.814   4
   0  11 -10 58.5456 141.759   4
   0  11  -9 104.331 143.801   4
   0  11  -8-55.5849 142.954   4
   0  11  -7 30.0283 144.225   4
   0  11  -6 344.546 147.139   4
   0  11  -5 213.904 150.878   4
   0  11  -4-60.1772 142.336   4
   0  11  -3 133.764 144.983   4
   0  11  -2-67.6458 141.223   4
   0  11  -1 57.4942 136.994   4
   0  11   0 11.7436 142.541   4
   0  11   1 145.757 140.047   4
   0  12 -10 70.2146 143.502   4
   0  12  -9 39.0737 141.862   4
   0  12  -8-20.8701 147.352   4
   0  12  -7-61.7695 153.845   4
   0  12  -6-10.7074 151.340   4
   0  12  -5-70.5808 154.882   4
   0  12  -4 49.7924 157.445   4
   0  12  -3-59.8428 151.950   4
   0  12  -2 2.05512 144.235   4
   0  12  -1-55.0860 117.309   4
   0  12   0 97.8955 132.239   4
   0  12   1-35.0548 145.959   4
   0  12   2 90.6690 142.868   4
  -1  12   1 69.2308 131.486   4
  -1  12   0 50.1594 133.045   4
  -1  12  -1 144.104 121.495   4
  -1  12  -2 1.31947 135.666   4
  -1  12  -3 125.919 150.461   4
  -1  12  -4 367.904 148.728   4
  -1  12  -5 104.534 139.478   4
  -1  12  -6 233.411 149.264   4
  -1  12  -7 77.4382 144.197   4
  -1  12  -8 242.490 148.203   4
  -1  12  -9 48.8300 138.503   4
  -1  12 -10 79.9567 140.404   4
  -1  12 -11-48.1647 138.655   4
  -1  11   2 76.1846 134.320   4
  -1  11   1 142.214 116.841   4
  -1  11   0 73.4317 135.103   4
  -1  11  -1 249.902 136.587   4
  -1  11  -2 144.755 133.836   4
  -1  11  -3 328.229 143.958   4
  -1  11  -4 76.7299 136.885   4
  -1  11  -5 32.9543 143.172   4
  -1  11  -6 161.110 141.881   4
  -1  11  -7 24.7390 134.821   4
  -1  11  -8 7.25756 139.352   4
  -1  11  -9 32.1490 138.558   4
  -1  11 -10 20.0829 135.572   4
  -1  11 -11-31.0884 139.389   4
  -1  11 -12 148.254 140.422   4
  -1  11 -13-16.4252 118.619   4
  -1  11 -14 180.764 127.272   4
  -1  11 -15 74.8994 152.304   4
  -1  10   2 778.664 134.076   4
  -1  10   1 273.082 128.760   4
  -1  10   1 215.547 182.509   0
  -1  10   0-149.865 179.763   0
  -1  10   0-17.7125 123.436   4
   1 -10   0 171.229 143.466   2
  -1  10  -1 1051.19 178.839   0
   1 -10   1 838.558 153.015   2
  -1  10  -1 595.247 131.186   4
   1 -10   2 141.374 145.233   2
  -1  10  -2 345.157 175.842   0
  -1  10  -2-0.97510 119.592   4
  -1  10  -3 252.542 129.957   4
  -1  10  -3 341.277 181.419   0
   1 -10   3 341.580 155.908   2
  -1  10  -4 152.748 131.598   4
  -1  10  -5 474.603 131.507   4
  -1  10  -6 39.0850 123.344   4
  -1  10  -7 80.0567 130.281   4
  -1  10  -8 127.127 132.578   4
  -1  10  -9-34.1959 131.852   4
  -1  10 -10 51.4778 124.793   4
  -1  10 -11-62.7510 125.270   4
  -1  10 -12 269.051 138.228   4
  -1  10 -13 104.901 137.142   4
  -1  10 -14 607.904 153.604   4
  -1  10 -15 702.995 151.744   4
  -1  10 -16-47.6599 127.217   4
  -1  10 -17 143.473 124.238   4
  -1  10 -18 98.2841 145.280   4
   1  -9  -6-16.3857 185.122   2
  -1   9   6 326.350 205.278   0
   1  -9  -5-98.4166 171.602   2
  -1   9   5 26.3774 177.527   0
  -1   9   4 5.96691 149.687   0
   1  -9  -4-157.614 169.410   2
   1  -9  -3 114.399 138.733   2
  -1   9   3 191.624 148.910   0
   1  -9  -2 232.851 154.912   2
  -1   9   2 372.075 173.094   0
   1  -9  -1 296.118 147.971   2
  -1   9   1 93.4807 173.743   0
   1  -9   0 200.884 137.543   2
  -1   9   0 385.298 114.164   4
  -1   9   0 104.780 157.818   0
   1  -9   1 275.448 126.475   2
  -1   9  -1 399.548 164.053   0
  -1   9  -1 127.910 109.173   4
  -1   9  -2 225.824 155.209   0
   1  -9   2 223.860 123.237   2
  -1   9  -2 121.796 105.618   4
  -1   9  -3 143.190 125.632   0
  -1   9  -3-52.2559 106.480   4
   1  -9   3 10.3581 109.514   2
  -1   9  -4-34.7705 147.892   0
   1  -9   4 4.79473 124.584   2
  -1   9  -4 30.1720 112.497   4
  -1   9  -5 62.5326 156.889   0
  -1   9  -5-32.8337 112.582   4
  -1   9  -6 416.429 117.382   4
  -1   9  -7-13.6714 113.681   4
  -1   9  -8 1097.62 126.360   4
  -1   9  -9 45.2955 119.669   4
  -1   9 -10 63.9194 116.290   4
  -1   9 -11 125.119 119.307   4
  -1   9 -12 66.8849 122.668   4
  -1   9 -13 43.0826 133.182   4
  -1   9 -14 753.592 147.022   4
  -1   9 -15 45.0368 138.344   4
  -1   9 -16 727.370 153.470   4
  -1   9 -17 1607.80 163.597   4
  -1   9 -18-29.4313 140.238   4
   1  -8 -10 59.9238 174.247   2
   1  -8  -9-57.8086 167.036   2
  -1   8   9 79.5840 175.260   0
   1  -8  -8 37.1879 155.764   2
  -1   8   8 434.231 173.007   0
  -1   8   7 271.019 169.308   0
   1  -8  -7 151.403 157.011   2
   1  -8  -6-2.84075 149.853   2
  -1   8   6-55.1651 155.032   0
  -1   8   5-51.7644 160.063   0
   1  -8  -5-77.7121 148.009   2
   1  -8  -4 29.9732 143.147   2
  -1   8   4 9.95410 166.724   0
  -1   8   3 170.577 159.554   0
   1  -8  -3 66.3785 140.734   2
   1  -8  -2 189.656 136.728   2
  -1   8   2 303.042 155.431   0
  -1   8   1-9.85585 150.417   0
   1  -8  -1-79.1223 143.440   2
  -1   8   0 95.0452 155.755   0
   1  -8   0-98.1331 138.994   2
   1  -8   1 626.746 134.459   2
  -1   8  -1 553.488 149.153   0
  -1   8  -1 712.554 109.265   4
  -1   8  -2 43.5054 98.3689   4
  -1   8  -2 132.907 140.692   0
   1  -8   2 6.46059 116.816   2
  -1   8  -3 288.813 102.587   4
  -1   8  -3 129.625 135.714   0
   1  -8   3 215.726 107.422   2
  -1   8  -4 334.746 149.031   0
  -1   8  -4 222.899 100.621   4
   1  -8   4 419.965 116.973   2
  -1   8  -5 391.324 139.580   0
   1  -8   5 304.416 120.705   2
  -1   8  -5 330.329 107.483   4
  -1   8  -6 39.9589 101.999   4
  -1   8  -6 98.1592 130.537   0
  -1   8  -7 6.73603 106.140   4
  -1   8  -8 190.374 104.123   4
   1  -8   9 303.187 141.968   3
  -1   8  -9 367.486 106.896   4
  -1   8 -10 306.056 105.458   4
   1  -8  10 143.608 137.590   3
  -1   8 -11-12.9465 106.495   4
   1  -8  11-27.5813 148.886   3
   1  -8  12 24.8707 156.187   3
  -1   8 -12 46.2935 114.021   4
  -1   8 -13 87.5570 122.236   4
   1  -8  13 53.2155 182.206   3
  -1   8 -14 205.035 123.413   4
   1  -8  14 223.493 212.102   3
  -1   8 -15 259.738 129.090   4
  -1   8 -16 423.106 135.515   4
  -1   8 -17 144.868 142.027   4
   1  -7 -13 248.392 172.113   2
   1  -7 -12 43.7649 159.282   2
  -1   7  12-80.3526 197.769   0
   1  -7 -11-5.73018 131.288   2
  -1   7  11 255.864 185.223   0
   1  -7 -10 132.779 153.645   2
  -1   7  10 64.6563 175.494   0
  -1   7   9-69.9472 167.373   0
   1  -7  -9 135.818 153.879   2
  -1   7   8-31.4904 159.039   0
   1  -7  -8 85.9710 147.436   2
   1  -7  -7 320.026 142.859   2
  -1   7   7 178.444 151.986   0
  -1   7   6 128.812 145.587   0
   1  -7  -6-93.9380 135.873   2
   1  -7  -5-29.9131 133.417   2
  -1   7   5 16.5022 135.830   0
   1  -7  -4 18.5016 120.569   2
  -1   7   4 162.891 135.278   0
  -1   7   3 59.0031 134.817   0
   1  -7  -3 165.585 118.179   2
   1  -7  -2 144.716 122.763   2
  -1   7   2 219.958 138.830   0
  -1   7   1 1141.85 145.447   0
   1  -7  -1 996.933 126.904   2
   1  -7   0 30.1919 113.879   2
  -1   7   0 31.2358 126.812   0
  -1   7  -1 7529.87 204.585   0
   1  -7   1 8163.16 190.378   2
  -1   7  -2 1388.35 106.663   4
   1  -7   2 1451.97 126.963   2
  -1   7  -2 1399.44 135.583   0
  -1   7  -3 3953.24 123.366   4
   1  -7   3 3838.81 144.237   2
  -1   7  -3 3765.90 165.198   0
  -1   7  -4 474.640 137.547   0
   1  -7   4 382.485 96.6668   2
  -1   7  -4 238.478 91.0463   4
  -1   7  -5 661.317 100.351   4
  -1   7  -5 623.592 134.969   0
   1  -7   5 582.204 102.617   2
  -1   7  -6 104.806 91.2176   4
   1  -7   6 25.8873 131.166   3
  -1   7  -6 56.2258 116.987   0
  -1   7  -7-4.33495 111.291   0
  -1   7  -7 66.4919 95.2775   4
   1  -7   7-121.881 136.050   3
   1  -7   8 92.1165 137.860   3
  -1   7  -8 86.5861 94.3580   4
  -1   7  -8 35.5396 114.940   0
  -1   7  -9 70.4438 101.164   1
   1  -7   9 133.861 153.458   3
  -1   7  -9 71.8482 94.2270   4
   1  -7  10 131.207 153.353   3
  -1   7 -10 138.141 97.6292   4
  -1   7 -10 75.7428 103.554   1
   1  -7  11 229.622 170.173   3
  -1   7 -11 137.219 97.5685   4
  -1   7 -11 79.0327 91.3486   1
   1  -7  12 41.1866 186.006   3
  -1   7 -12 39.5546 96.9935   1
  -1   7 -12 89.9185 100.904   4
  -1   7 -13-10.4409 108.065   4
   1  -7  13-56.1882 185.384   3
  -1   7 -13 17.5057 100.131   1
  -1   7 -14 95.7670 120.481   1
  -1   7 -14 53.1848 113.179   4
   1  -7  14 76.2602 204.694   3
  -1   7 -15 143.001 119.670   4
   1  -7  15 274.444 216.946   3
  -1   7 -15 290.976 146.442   1
  -1   7 -16 55.9439 148.983   1
  -1   7 -16-102.019 120.437   4
  -1   6  14-15.5332 175.209   0
  -1   6  13-60.8418 182.083   0
   1  -6 -13 126.608 139.041   2
   1  -6 -12 885.303 132.717   2
  -1   6  12 1553.15 190.551   0
  -1   6  11 1371.61 189.653   0
   1  -6 -11 1233.14 152.639   2
  -1   6  10 49.0360 165.059   0
   1  -6 -10 208.213 135.585   2
  -1   6   9 230.247 158.434   0
   1  -6  -9 221.895 125.768   2
   1  -6  -8 113.653 122.163   2
  -1   6   8-34.6116 143.883   0
  -1   6   7 36.7552 141.549   0
   1  -6  -7 175.447 118.578   2
   1  -6  -6 88.2099 112.855   2
  -1   6   6 102.149 129.067   0
  -1   6   5 964.346 134.075   0
   1  -6  -5 881.157 118.604   2
  -1   6   4 429.920 126.449   0
   1  -6  -4 354.290 115.806   2
   1  -6  -3 634.572 117.271   2
  -1   6   3 770.279 128.633   0
   1  -6  -2 524.343 119.007   2
  -1   6   2 639.197 130.287   0
   1  -6  -1 847.322 118.619   2
  -1   6   1 860.654 136.604   0
  -1   6   0 29.0727 124.534   0
   1  -6   0 4.09546 107.586   2
   1  -6   1 3868.44 144.199   2
  -1   6  -1 3417.05 152.279   0
   1  -6   2 1077.52 118.269   2
  -1   6  -2 1131.58 94.9235   4
  -1   6  -2 980.394 125.403   0
  -1   6  -3 5149.82 155.517   0
  -1   6  -3 4782.15 120.541   4
   1  -6   3 4804.09 149.265   2
  -1   6  -3 4329.41 114.375   1
   1  -6   4 3405.42 127.624   2
  -1   6  -4 3671.76 114.363   1
  -1   6  -4 4261.99 159.524   0
  -1   6  -4 4107.73 119.039   4
  -1   6  -5 73.4850 116.419   0
   1  -6   5 117.209 87.0344   2
  -1   6  -5 129.124 93.7830   1
  -1   6  -5 37.7105 92.7582   4
  -1   6  -6 267.728 94.5678   4
   1  -6   6 308.001 100.330   2
  -1   6  -6 415.870 99.0814   1
  -1   6  -6 226.081 116.694   0
  -1   6  -7 11040.3 197.593   0
  -1   6  -7 10934.7 180.795   1
   1  -6   7 11042.8 222.426   3
  -1   6  -8 17.9140 87.0289   4
   1  -6   8 93.3350 134.171   3
  -1   6  -8-9.36722 91.7177   1
  -1   6  -8 11.4788 104.153   0
  -1   6  -9 4584.50 151.409   0
  -1   6  -9 4800.60 122.105   4
   1  -6   9 4476.69 178.561   3
  -1   6  -9 4066.90 135.000   1
  -1   6 -10 504.758 93.6878   4
  -1   6 -10 565.962 101.992   1
   1  -6  10 434.609 148.426   3
  -1   6 -11 43.0761 92.2667   4
   1  -6  11-57.5262 155.775   3
  -1   6 -11 11.3592 106.315   1
   1  -6  12 32.2923 174.709   3
  -1   6 -12 70.5227 108.318   1
  -1   6 -12-69.8609 94.1668   4
   1  -6  13 56.6685 182.225   3
  -1   6 -13 42.2182 100.280   4
  -1   6 -13 78.7345 127.208   1
  -1   6 -14 68.8181 105.523   4
  -1   6 -14 209.250 142.023   1
   1  -6  14 142.746 193.444   3
   1  -6  15 303.038 204.337   3
  -1   6 -15 338.696 112.119   4
  -1   6 -15 240.327 148.586   1
   1  -6  16 685.692 225.345   3
  -1   6 -16 396.285 130.968   1
  -1   6 -17-148.068 149.511   1
  -1   5  16 614.369 198.417   0
  -1   5  15-32.4179 158.665   0
  -1   5  14 103.341 171.038   0
   1  -5 -13 624.435 128.803   2
  -1   5  13 567.797 172.086   0
  -1   5  12 1010.33 174.016   0
   1  -5 -12 632.251 114.782   2
  -1   5  11 1782.18 179.526   0
   1  -5 -11 1505.08 129.577   2
  -1   5  10 1045.02 162.305   0
   1  -5 -10 954.581 110.234   2
  -1   5   9 751.617 151.047   0
   1  -5  -9 412.254 103.090   2
   1  -5  -8 522.802 102.262   2
  -1   5   8 582.959 142.366   0
   1  -5  -7 398.396 105.210   2
  -1   5   7 415.650 138.370   0
  -1   5   6 52.3928 125.309   0
   1  -5  -6 96.8039 96.8167   2
  -1   5   5 1815.29 135.307   0
   1  -5  -5 1781.17 104.333   2
   1  -5  -4 49.8491 86.6392   2
  -1   5   4-49.9184 110.170   0
  -1   5   3 144.768 103.438   0
   1  -5  -3 105.657 80.0888   2
   1  -5  -3 168.474 62.9597   1
  -1   5   2 6.07269 62.0941   3
  -1   5   2 30.5467 100.416   0
   1  -5  -2 62.2831 85.1016   2
   1  -5  -1 667.806 91.0379   2
  -1   5   1 767.321 109.759   0
  -1   5   0 433.229 100.874   0
   1  -5   0 372.890 86.5438   2
  -1   5  -1 1880.50 119.139   0
   1  -5   1 1920.71 98.6688   2
   1  -5   2 663.104 92.3776   2
  -1   5  -2 587.369 96.1234   0
  -1   5  -2 797.688 73.4457   4
  -1   5  -3 180.318 95.2544   0
  -1   5  -3 24.1243 71.4574   4
  -1   5  -3-25.5610 57.3773   1
   1  -5   3 3.44659 82.7082   2
  -1   5  -4 104.774 72.1478   1
  -1   5  -4 59.6875 67.4509   4
   1  -5   4 50.5474 82.7323   2
  -1   5  -4 161.085 102.421   0
  -1   5  -5-24.2412 85.6542   1
  -1   5  -5-30.2476 95.1163   0
  -1   5  -5 17.7353 73.8361   4
   1  -5   5 86.0260 73.2162   2
  -1   5  -6 410.519 85.8633   1
  -1   5  -6 198.496 74.4641   4
  -1   5  -6 326.274 102.572   0
   1  -5   6 400.453 82.7534   2
  -1   5  -7 4599.46 135.191   0
  -1   5  -7 3924.78 103.693   4
  -1   5  -7 4207.30 123.033   1
  -1   5  -8 1605.03 112.113   0
   1  -5   8 1672.61 158.694   3
  -1   5  -8 1825.61 95.0281   4
  -1   5  -8 1610.23 107.003   1
  -1   5  -9 24337.6 255.935   1
  -1   5  -9 26447.1 264.787   0
   1  -5   9 24753.7 309.020   3
  -1   5  -9 26056.3 209.061   4
  -1   5 -10 98.0914 99.4329   1
  -1   5 -10 149.543 108.268   0
   1  -5  10 443.535 148.584   3
  -1   5 -10 126.646 83.8940   4
  -1   5 -11 1610.00 120.821   1
  -1   5 -11 1649.10 102.695   4
   1  -5  11 1770.81 169.745   3
   1  -5  12-64.0440 161.872   3
  -1   5 -12-52.1546 116.552   1
  -1   5 -12-49.9411 84.6754   4
  -1   5 -13 485.437 131.070   1
  -1   5 -13 496.091 92.9538   4
   1  -5  13 492.459 181.724   3
  -1   5 -14 418.080 139.522   1
  -1   5 -14 302.738 100.318   4
   1  -5  14 307.662 189.859   3
  -1   5 -15 233.841 132.638   1
   1  -5  15-2.83226 198.096   3
   1  -5  16-46.3880 197.796   3
  -1   5 -16-62.8805 134.410   1
  -1   5 -17 387.582 155.017   1
   1  -5  17 279.627 211.756   3
  -1   4  16 163.098 163.254   0
  -1   4  15 80.2795 137.670   0
  -1   4  14 38.4615 154.228   0
  -1   4  13 65.4499 151.284   0
   1  -4 -12 535.636 103.914   2
  -1   4  12 702.821 147.692   0
  -1   4  11 1072.06 148.331   0
   1  -4 -11 874.447 108.365   2
  -1   4  10 786.560 139.597   0
   1  -4 -10 729.971 112.690   2
   1  -4 -10 626.764 90.4199   1
   1  -4  -9 11057.6 164.731   1
  -1   4   9 11503.5 225.427   0
   1  -4  -8 4533.61 117.164   1
  -1   4   8 4637.23 168.998   0
  -1   4   7 5311.21 162.821   0
   1  -4  -7 4521.88 138.946   2
   1  -4  -7 5111.95 118.171   1
   1  -4  -6 310.700 66.9265   1
  -1   4   6 376.143 118.875   0
   1  -4  -6 200.953 95.8361   2
  -1   4   6 404.424 69.2094   3
  -1   4   5 3029.45 85.0288   3
  -1   4   5 2840.53 124.426   0
   1  -4  -5 2829.28 81.7855   1
   1  -4  -5 2714.14 109.494   2
  -1   4   4 5603.93 139.207   0
   1  -4  -4 5103.53 119.768   2
  -1   4   3 70.8194 47.4909   3
   1  -4  -3 72.3181 75.5295   2
   1  -4  -3 38.3847 39.0633   1
  -1   4   3 49.9203 87.0165   0
   1  -4  -2 22.7542 42.5394   1
  -1   4   2-8.81690 82.2519   0
  -1   4   2 24.0969 50.2421   3
   1  -4  -2-3.79082 65.1645   2
  -1   4   1 481.268 58.2632   3
  -1   4   1 496.288 90.8553   0
   1  -4  -1 546.511 66.8833   2
   1  -4   0 124.379 57.1627   2
  -1   4   0 137.149 86.6605   0
   1  -4   1 5604.04 104.330   2
  -1   4  -1 6056.78 134.876   0
  -1   4  -2 13964.5 168.087   0
   1  -4   2 13469.4 144.422   2
  -1   4  -2 12526.2 122.883   1
  -1   4  -3 2822.80 110.531   0
   1  -4   3 2789.54 84.5827   2
  -1   4  -3 2690.45 80.1871   1
   1  -4   4 1149.74 70.6566   2
  -1   4  -4 954.374 87.4853   0
  -1   4  -4 1121.43 77.4836   1
  -1   4  -5 121.312 61.2808   4
  -1   4  -5 38.7134 64.0234   1
  -1   4  -5 152.284 76.5778   0
   1  -4   5 198.509 48.5918   2
  -1   4  -6 6391.96 101.701   4
   1  -4   6 6747.12 104.356   2
  -1   4  -6 5719.88 125.875   0
  -1   4  -6 5819.67 119.137   1
  -1   4  -7 1321.46 92.1040   1
  -1   4  -7 1383.86 95.7365   0
  -1   4  -7 1134.47 71.0337   4
  -1   4  -8 1002.95 107.707   0
  -1   4  -8 1103.76 98.2301   1
   1  -4   8 1059.23 137.830   3
  -1   4  -8 832.837 71.2734   4
   1  -4   9 4232.78 175.816   3
  -1   4  -9 4799.01 145.611   0
  -1   4  -9 4535.05 137.313   1
  -1   4 -10 2472.05 103.466   4
  -1   4 -10 2517.34 137.393   0
  -1   4 -10 2264.01 122.257   1
   1  -4  10 2295.44 167.399   3
   1  -4  11 4129.41 186.465   3
  -1   4 -11 4485.44 152.103   0
  -1   4 -11 4567.99 160.316   1
  -1   4 -11 4628.62 116.304   4
  -1   4 -12-35.9401 120.169   1
  -1   4 -12-14.3865 81.6757   4
   1  -4  12 96.2968 162.524   3
   1  -4  13 110.078 160.323   3
  -1   4 -13 27.8221 120.859   1
  -1   4 -14-55.6217 123.802   1
   1  -4  14 98.6343 183.625   3
   1  -4  15 18.4970 189.771   3
  -1   4 -15-120.119 131.054   1
   1  -4  16-23.4938 193.651   3
  -1   4 -16-16.1535 129.119   1
   1  -4  17 170.229 164.154   3
  -1   4 -17 241.660 146.597   1
  -1   4 -18-34.3878 145.820   1
   1  -4  18-38.8473 178.813   3
   1  -3 -15-2.04943 112.249   1
  -1   3  15-21.5535 138.870   0
   1  -3 -14 214.081 119.206   1
  -1   3  14 67.6491 129.301   0
  -1   3  13 214.708 142.688   0
   1  -3 -13 209.506 100.768   1
   1  -3 -12 60.2656 96.4078   1
   1  -3 -12 22.0768 91.0817   2
  -1   3  12 34.2732 128.343   0
   1  -3 -11 16.8626 100.339   2
  -1   3  11-38.7708 137.023   0
   1  -3 -11 25.2552 90.7749   1
  -1   3  10 174.780 95.6788   3
  -1   3  10 264.280 128.718   0
   1  -3 -10 252.357 99.6918   2
   1  -3 -10 255.287 91.0080   1
  -1   3   9 2541.10 141.967   0
   1  -3  -9 2398.33 102.553   1
   1  -3  -9 1919.34 117.575   2
  -1   3   9 2097.27 107.747   3
   1  -3  -8 77.7819 89.1939   2
  -1   3   8 18.9061 78.2302   3
  -1   3   8 44.4796 106.023   0
   1  -3  -8 76.8171 69.1015   1
   1  -3  -7 10880.0 131.236   1
  -1   3   7 11212.1 136.962   3
  -1   3   7 11386.2 174.969   0
   1  -3  -7 10444.5 158.750   2
   1  -3  -6 312.780 54.8123   1
  -1   3   6 246.897 60.0350   3
   1  -3  -6 307.128 79.9328   2
  -1   3   6 232.473 92.2677   0
  -1   3   5 1275.10 97.1205   0
   1  -3  -5 847.904 51.3229   1
  -1   3   5 904.740 60.4099   3
   1  -3  -5 1196.24 83.4807   2
   1  -3  -4 6870.86 91.2935   1
  -1   3   4 8876.57 142.159   0
   1  -3  -4 8252.18 129.680   2
  -1   3   4 6402.57 94.1097   3
   1  -3  -3 1670.56 82.0098   2
   1  -3  -3 1570.88 50.0836   1
  -1   3   3 1642.32 90.8697   0
  -1   3   3 1233.55 60.5037   3
   1  -3  -2 452.307 66.0039   2
  -1   3   2 326.713 53.7652   3
   1  -3  -2 444.428 38.1855   1
  -1   3   2 466.583 76.9190   0
   1  -3  -1 2717.38 81.5009   2
  -1   3   1 2998.56 98.9584   0
  -1   3   0 3970.99 107.792   0
   1  -3   0 3793.07 84.4788   2
  -1   3  -1 8266.44 79.7635   1
   1  -3   1 7708.98 92.8350   2
  -1   3  -2 76.2657 74.0321   0
  -1   3  -2-40.7660 47.6230   1
   1  -3   2 19.2496 40.3890   2
  -1   3  -3 1986.24 67.9320   1
  -1   3  -3 1943.60 85.7079   0
   1  -3   3 1434.76 54.7872   2
  -1   3  -4 17431.0 145.404   1
  -1   3  -4 18288.9 169.310   0
   1  -3   5 5244.20 69.3885   2
  -1   3  -5 4601.96 94.7012   1
  -1   3  -5 4815.01 107.401   0
  -1   3  -6 979.019 72.6030   1
   1  -3   6 1045.43 46.0442   2
  -1   3  -6 953.554 78.8011   0
  -1   3  -7 279.889 72.1318   1
  -1   3  -7 138.472 78.9593   0
  -1   3  -7 274.761 61.3927   4
  -1   3  -8-4.30434 62.9814   4
   1  -3   8-53.3769 108.685   3
  -1   3  -8 28.4822 93.9711   0
  -1   3  -8 56.5407 84.7298   1
  -1   3  -9 73.6943 91.7328   0
  -1   3  -9-2.55999 58.8050   4
  -1   3  -9 31.4809 91.9468   1
   1  -3   9 34.3442 122.147   3
  -1   3 -10 494.491 73.1994   4
   1  -3  10 688.399 138.641   3
  -1   3 -10 674.093 114.764   1
  -1   3 -10 634.927 98.1852   0
  -1   3 -11 7157.93 176.027   0
  -1   3 -11 6601.07 171.142   1
   1  -3  11 6309.32 206.891   3
  -1   3 -12 25465.1 287.690   1
   1  -3  12 25592.9 329.213   3
  -1   3 -13 51.5951 111.148   0
   1  -3  13 174.622 160.298   3
  -1   3 -13 144.123 113.014   1
   1  -3  14-69.6695 173.511   3
  -1   3 -14 160.484 114.502   1
  -1   3 -15 396.324 132.376   1
   1  -3  15 251.834 180.855   3
   1  -3  16-69.3743 174.660   3
  -1   3 -16 40.8662 129.221   1
   1  -3  17 425.747 172.386   3
  -1   3 -17 222.962 146.836   1
   1  -3  18 63.8862 137.416   3
  -1   3 -18 81.7212 143.301   1
   1  -3  19-15.5516 172.398   3
   1  -2 -19 110.354 161.022   1
   1  -2 -18-105.866 151.225   1
   1  -2 -17-31.6832 133.843   1
   1  -2 -16 77.0058 142.505   1
   1  -2 -15-86.6819 129.534   1
   1  -2 -14-20.9431 117.989   1
   1  -2 -13 921.355 120.021   1
  -1   2  13 702.371 128.907   3
   1  -2 -12 181.574 94.7807   2
  -1   2  12 229.873 126.906   3
   1  -2 -12 305.209 103.762   1
   1  -2 -11 39.1640 93.9248   2
   1  -2 -11 34.4521 88.9832   1
  -1   2  11 81.1385 113.150   3
  -1   2  10 44.3121 107.976   3
   1  -2 -10 21.9394 81.6993   1
   1  -2 -10 47.2507 87.5632   2
  -1   2   9 383.070 96.8601   3
   1  -2  -9 361.469 87.5151   2
   1  -2  -9 402.417 77.6956   1
   1  -2  -8 2281.54 86.6444   1
  -1   2   8 2602.36 105.233   3
   1  -2  -8 2334.41 99.2087   2
  -1   2   7 149.050 80.7488   3
   1  -2  -7 72.0222 72.2667   2
   1  -2  -7 50.5423 53.1166   1
  -1   2   7 104.557 87.5717   0
  -1   2   6 4894.79 113.389   0
   1  -2  -6 4836.11 87.0626   1
  -1   2   6 5223.02 106.591   3
   1  -2  -6 4723.30 103.864   2
  -1   2   5 18792.4 169.039   0
  -1   2   5 15185.0 140.647   3
   1  -2  -5 18192.6 160.276   2
   1  -2  -5 15366.8 124.689   1
   1  -2  -4 1263.59 49.3263   1
  -1   2   4 1148.96 58.6800   3
   1  -2  -4 1452.61 75.7744   2
  -1   2   3-42.0414 50.5149   3
   1  -2  -3-35.1617 62.7252   2
  -1   2   3 18.5905 74.1206   0
   1  -2  -3 11.2189 33.8076   1
   1  -2  -2 2108.87 70.0228   2
  -1   2   2 2253.56 71.4248   3
  -1   2   2 2273.64 79.4940   0
  -1   2   1 790.462 76.4344   0
   1  -2  -1 1005.09 67.9686   2
  -1   2   1 784.462 66.8800   3
  -1   2   0 168.954 79.7270   0
  -1   2   0 118.666 59.8289   3
   1  -2   0 208.684 52.0060   2
  -1   2  -1 2223.45 50.0788   1
  -1   2  -1 2261.10 85.5302   0
   1  -2   1 1530.70 55.0570   2
  -1   2  -1 1550.69 71.8912   3
  -1   2  -2 7036.22 75.9510   1
   1  -2   2 6441.64 66.3284   2
  -1   2  -3 4801.67 78.8062   1
   1  -2   3 4864.76 53.1452   2
  -1   2  -4 157.391 64.0269   0
  -1   2  -4 102.118 57.1506   1
  -1   2  -5 59.2155 72.7535   0
  -1   2  -5 113.752 65.8128   1
  -1   2  -6 17401.7 177.951   0
  -1   2  -6 17592.8 180.089   1
  -1   2  -7 1882.25 92.7151   0
  -1   2  -7 1996.79 93.6371   1
   1  -2   7 1706.86 111.298   3
   1  -2   8 38.3026 104.206   3
  -1   2  -8 27.0460 78.6213   0
  -1   2  -8 31.5036 78.2145   1
  -1   2  -9 1186.04 96.3508   1
  -1   2  -9 1446.01 116.024   0
   1  -2   9 1210.99 124.982   3
   1  -2  10 62.3923 133.576   3
  -1   2 -10 65.1402 102.491   0
  -1   2 -10 83.3997 98.3380   1
   1  -2  11 2454.46 166.321   3
  -1   2 -11 2793.76 128.052   1
  -1   2 -11 2656.88 143.568   0
  -1   2 -12 2998.82 143.816   0
  -1   2 -12 3189.91 136.213   1
   1  -2  12 3134.12 183.267   3
  -1   2 -13 4397.77 158.868   1
  -1   2 -13 4798.78 164.750   0
   1  -2  13 4524.86 197.388   3
   1  -2  14 13095.4 268.552   3
  -1   2 -14 13386.4 244.238   1
  -1   2 -15 1506.85 142.986   1
   1  -2  15 1175.75 171.091   3
   1  -2  16 260.271 156.596   3
  -1   2 -16 245.474 132.463   1
   1  -2  17 108.167 154.351   3
  -1   2 -17 176.844 136.402   1
  -1   2 -18 58.7307 146.291   1
   1  -2  18 90.7560 158.858   3
   1  -2  19 202.486 173.729   3
   1  -1 -19 594.274 166.919   1
   1  -1 -18 74.5510 137.699   1
   1  -1 -17 306.185 128.748   1
  -1   1  16 337.919 140.896   3
   1  -1 -16 314.582 125.559   1
  -1   1  15-125.800 143.849   3
   1  -1 -15 221.988 122.628   1
  -1   1  14-38.3055 132.849   3
   1  -1 -14 122.607 111.313   1
  -1   1  13 1263.71 141.222   3
   1  -1 -13 1339.78 123.061   1
  -1   1  12-28.3858 130.549   3
   1  -1 -12 3.78729 98.9301   1
  -1   1  11 1347.30 124.088   3
   1  -1 -11 1487.01 104.003   1
   1  -1 -11 1270.42 93.3125   2
  -1   1  10 867.878 112.680   3
   1  -1 -10 1126.20 92.3300   1
  -1   1   9 725.185 94.0657   3
   1  -1  -9 831.392 84.5637   1
   1  -1  -8 8811.68 134.876   1
  -1   1   8 8740.50 141.631   3
  -1   1   7 172.647 78.9638   3
   1  -1  -7 174.778 63.8795   1
   1  -1  -6 25533.1 173.395   1
  -1   1   6 25489.1 188.418   3
   1  -1  -5 239.748 51.5677   1
  -1   1   5 269.724 61.2245   3
  -1   1   4 15764.9 135.727   3
   1  -1  -4 15374.4 111.194   1
  -1   1   3 1161.69 68.8081   3
   1  -1  -3 1313.66 47.6871   1
  -1   1   3 1364.04 66.1246   0
  -1   1   2 70573.5 214.454   3
  -1   1   2 70556.3 193.320   0
  -1   1   1 19307.0 106.214   0
  -1   1   1 20177.8 118.465   3
  -1   1   0 23512.9 128.276   3
  -1   1   0 22434.5 118.066   0
  -1   1  -1 3306.45 69.5083   3
  -1   1  -1 3053.32 66.7981   0
  -1   1  -2 1311.80 52.1560   1
  -1   1  -2 1162.11 74.5223   0
  -1   1  -3 8401.59 114.802   0
  -1   1  -3 9339.83 98.5789   1
  -1   1  -4 4010.47 93.1441   0
  -1   1  -4 4572.66 86.5089   1
  -1   1  -5 5928.93 104.049   1
  -1   1  -5 6099.11 117.985   0
   1  -1   6 333.739 84.9114   3
  -1   1  -6 400.771 82.2515   0
  -1   1  -6 327.537 65.0334   1
   1  -1   7 3153.37 111.217   3
  -1   1  -7 3297.87 114.925   0
  -1   1  -7 3033.58 97.9367   1
  -1   1  -8 4474.90 133.239   0
  -1   1  -8 4022.34 113.606   1
   1  -1   8 3978.94 126.726   3
  -1   1  -9 714.951 101.973   0
  -1   1  -9 695.057 89.3253   1
   1  -1   9 726.921 116.456   3
   1  -1  10 883.081 134.775   3
  -1   1 -10 825.316 117.971   0
  -1   1 -10 596.398 100.458   1
  -1   1 -11 1522.98 137.141   0
  -1   1 -11 1561.19 115.941   1
   1  -1  11 1726.56 153.972   3
  -1   1 -12 1701.63 143.804   0
  -1   1 -12 1447.04 121.902   1
   1  -1  12 1684.25 169.408   3
   1  -1  13 1476.01 150.584   3
  -1   1 -13 1335.20 124.803   1
  -1   1 -14 81.2927 111.608   1
   1  -1  14 199.065 131.288   3
  -1   1 -15 1064.08 135.288   1
   1  -1  15 1397.01 152.509   3
   1  -1  16 1729.08 159.508   3
  -1   1 -16 1670.84 156.819   1
  -1   1 -17 264.680 132.543   1
   1  -1  17 475.897 153.311   3
  -1   1 -18 486.341 169.000   1
   1   0 -20 268.892 146.600   1
  -1   0  19 353.859 173.321   3
   1   0 -19 296.187 128.718   1
  -1   0  18 234.350 138.312   3
   1   0 -18 415.019 137.726   1
  -1   0  17 3127.77 189.206   3
   1   0 -17 3425.09 175.575   1
   1   0 -16 878.843 136.125   1
  -1   0  16 801.178 156.002   3
   1   0 -15-14.8399 110.612   1
  -1   0  15-3.96663 134.125   3
  -1   0  14 739.540 137.758   3
   1   0 -14 670.523 114.591   1
  -1   0  13 254.254 134.437   3
   1   0 -13 385.954 116.730   1
   1   0 -12 1102.95 116.482   1
  -1   0  12 1033.08 142.645   3
   1   0 -11 133.634 98.0516   1
  -1   0  11 68.6423 119.352   3
  -1   0  10 126.435 106.714   3
   1   0 -10 96.6160 86.2111   1
   1   0  -9 306.251 77.5781   1
  -1   0   9 210.674 96.3010   3
   1   0  -8 3796.77 98.2687   1
  -1   0   8 3795.92 117.093   3
  -1   0   7 9339.28 140.605   3
   1   0  -7 8839.46 119.374   1
   1   0  -6 1065.62 64.7670   1
  -1   0   6 1095.69 85.6676   3
  -1   0   5 327.077 69.4607   3
   1   0  -5 324.477 56.4582   1
  -1   0   5 344.909 50.7767   2
  -1   0   4 14620.5 113.992   2
   1   0  -4 14044.9 122.479   1
   1   0  -3 4065.11 67.8270   1
  -1   0   3 4431.37 72.9034   2
  -1   0   3 4392.27 82.4677   3
  -1   0   2 43166.6 168.278   3
  -1   0   2 42593.8 162.142   2
  -1   0   1 583.442 43.3325   3
  -1   0   1 577.495 42.0558   1
  -1   0   0 414.316 39.6552   1
  -1   0   0 351.771 43.0184   2
  -1   0  -1 30776.6 139.601   1
  -1   0  -1 30517.8 150.008   0
  -1   0  -2 57101.9 206.633   1
  -1   0  -2 59269.3 231.479   0
  -1   0  -3 9445.43 111.664   1
  -1   0  -3 9293.15 124.231   0
  -1   0  -3 9980.81 74.9934   2
  -1   0  -4 6259.01 114.767   0
  -1   0  -4 6609.85 105.686   1
  -1   0  -4 5747.66 58.6004   2
   1   0   5 1620.30 73.4210   3
  -1   0  -5 2024.53 79.7123   1
  -1   0  -5 2172.91 50.7360   2
  -1   0  -5 2106.85 96.4792   0
  -1   0  -6 967.728 45.8721   2
   1   0   6 886.419 79.9462   3
  -1   0  -6 1105.87 96.7647   0
  -1   0  -6 956.444 74.9291   1
  -1   0  -7 5622.32 75.6255   2
  -1   0  -7 5287.50 115.912   1
   1   0   7 5767.10 125.154   3
  -1   0  -7 5775.03 141.287   0
   1   0   8 1434.86 106.018   3
  -1   0  -8 1410.97 115.245   0
  -1   0  -8 1206.76 54.2221   2
  -1   0  -8 1216.40 88.8590   1
  -1   0  -9 291.197 85.7766   1
   1   0   9 308.549 114.468   3
   1   0  10 354.036 121.902   3
  -1   0 -10 423.018 98.9840   1
  -1   0 -11 1584.37 122.180   1
   1   0  11 1433.98 149.021   3
   1   0  12 375.650 121.865   3
  -1   0 -12 361.420 117.024   1
   1   0  13 55.6387 106.045   3
  -1   0 -13 19.8004 116.939   1
   1   0  14 314.775 115.383   3
  -1   0 -14 341.165 141.079   1
  -1   0 -15 121.337 141.895   1
  -1   0 -16 54.1167 157.924   1
  -1   0 -17 3106.73 194.786   1
  -1   0 -18 667.299 176.194   1
  -1  -1  20 132.781 177.758   3
  -1  -1  19-21.2230 166.482   3
   1   1 -19 118.055 121.451   1
  -1  -1  18 408.227 166.342   3
   1   1 -18 567.711 148.542   1
  -1  -1  17 765.430 167.269   3
   1   1 -17 1018.88 145.872   1
   1   1 -16 1882.94 155.882   1
  -1  -1  16 1931.67 172.884   3
  -1  -1  15 3296.72 179.227   3
   1   1 -15 3071.28 157.188   1
   1   1 -14 502.028 119.771   1
  -1  -1  14 504.091 140.835   3
  -1  -1  13 2772.74 165.369   3
   1   1 -13 2940.72 146.326   1
  -1  -1  12 114.176 130.252   3
   1   1 -12-8.11708 103.775   1
  -1  -1  11 2489.57 139.128   3
   1   1 -11 2904.83 120.911   1
  -1  -1  10 743.683 108.787   3
   1   1 -10 672.794 84.1053   1
   1   1  -9 5274.31 116.782   1
  -1  -1   9 5365.98 135.615   3
   1   1  -8 4476.76 82.0926   0
  -1  -1   8 5252.42 129.533   3
  -1  -1   8 4370.85 83.4337   2
   1   1  -8 5371.95 111.313   1
  -1  -1   7 93.3828 81.0063   3
   1   1  -7 59.1925 67.5555   1
  -1  -1   7 76.5942 44.9780   2
   1   1  -7 82.7723 46.7903   0
   1   1  -6 10449.1 82.3375   0
   1   1  -6 11193.2 142.410   1
  -1  -1   5 9288.57 123.685   3
   1   1  -5 9710.73 125.399   1
  -1  -1   4 11703.7 122.213   3
  -1  -1   4 9787.80 102.713   2
  -1  -1   3 11454.8 113.138   3
  -1  -1   3 9702.90 102.737   2
  -1  -1   2 1461.00 65.4538   2
  -1  -1   2 1431.66 65.9846   3
  -1  -1   1 15433.7 122.554   2
  -1  -1   1 15071.2 89.1704   3
  -1  -1   1 14804.8 125.550   1
  -1  -1   0 3646.38 79.8574   1
  -1  -1   0 4075.36 84.2887   2
  -1  -1  -1 710.537 56.9252   2
  -1  -1  -1 873.564 73.6573   1
  -1  -1  -2 67900.0 273.179   1
  -1  -1  -2 73326.2 226.422   2
  -1  -1  -3 678.809 66.3202   1
   1   1   3 755.215 45.2188   3
  -1  -1  -3 762.382 61.6414   2
  -1  -1  -4 11311.6 125.974   1
   1   1   4 11352.9 97.3381   3
  -1  -1  -4 12614.3 120.485   2
   1   1   5 376.133 54.7055   3
  -1  -1  -5 573.480 57.7602   2
  -1  -1  -5 490.136 65.4934   1
  -1  -1  -6 6185.39 120.336   1
  -1  -1  -6 6181.01 100.748   2
   1   1   7 7913.40 126.424   3
  -1  -1  -7 8057.06 141.322   1
   1   1   8 2513.79 102.744   3
  -1  -1  -8 2996.81 113.535   1
   1   1   9 227.620 92.2935   3
  -1  -1  -9 92.9276 90.8168   1
  -1  -1 -10 525.500 114.730   1
   1   1  10 504.530 103.201   3
  -1  -1 -11 137.978 116.485   1
   1   1  11 299.451 108.028   3
  -1  -1 -12 769.213 122.873   1
  -1  -1 -13 889.100 140.529   1
  -1  -1 -14 206.141 138.374   1
  -1  -1 -15 199.572 144.746   1
  -1  -1 -16 188.317 146.443   1
  -1  -1 -17 222.834 132.513   1
  -1  -1 -18 131.794 150.645   1
   1   2 -19 100.574 130.516   1
  -1  -2  19 74.0075 150.614   3
  -1  -2  18-42.1439 172.749   3
   1   2 -18 24.7854 133.036   1
  -1  -2  17 210.195 168.397   3
   1   2 -17 325.335 137.251   1
  -1  -2  16 361.596 162.104   3
   1   2 -16 416.820 140.609   1
  -1  -2  15 191.021 149.809   3
   1   2 -15 138.232 128.975   1
  -1  -2  14 8094.02 210.758   3
   1   2 -14 9168.94 205.084   1
  -1  -2  13 16083.0 249.298   3
   1   2 -13 17531.6 239.885   1
   1   2 -12 668.653 105.388   1
  -1  -2  12 692.864 136.542   3
   1   2 -12 631.237 69.8383   4
  -1  -2  11 4269.82 155.811   3
   1   2 -11 4695.17 136.170   1
  -1  -2  10 146.176 108.435   3
   1   2 -10 54.3991 86.8311   1
  -1  -2  10 27.5504 56.1127   2
   1   2  -9 73.5190 77.5730   1
  -1  -2   9 151.351 99.6348   3
  -1  -2   9 86.4262 52.7255   2
   1   2  -9 39.2727 57.0779   0
   1   2  -8 6172.28 87.2085   0
  -1  -2   8 6657.47 103.984   2
   1   2  -8 5803.59 127.250   1
  -1  -2   8 6001.31 144.529   3
   1   2  -7 6200.50 80.6193   0
  -1  -2   7 6943.56 106.747   2
   1   2  -7 6211.77 127.764   1
  -1  -2   7 6560.21 143.892   3
  -1  -2   6 3524.95 86.4941   2
   1   2  -6 3365.76 99.7508   1
   1   2  -6 3330.61 59.2999   0
  -1  -2   6 3360.09 114.974   3
  -1  -2   5 13476.1 134.227   2
  -1  -2   5 13015.2 158.249   3
   1   2  -5 12601.3 89.6334   0
  -1  -2   4-3.70703 56.0515   2
  -1  -2   4-78.8933 76.3275   3
   1   2  -4 24.0496 41.8437   0
  -1  -2   3 486.470 64.7028   2
  -1  -2   3 536.401 65.7982   3
   1   2  -3 422.666 46.4595   0
  -1  -2   2 3936.18 72.5441   3
  -1  -2   2 4127.69 93.1598   2
  -1  -2   1 3183.55 86.3696   1
  -1  -2   1 3662.36 58.2847   3
  -1  -2   0 551.454 62.0006   1
  -1  -2   0 764.237 67.7974   2
  -1  -2  -1 398.207 65.3101   1
  -1  -2  -1 358.881 59.9089   2
  -1  -2  -2-29.6370 66.8618   2
  -1  -2  -2 144.202 62.3188   1
  -1  -2  -3 183.671 69.9349   2
  -1  -2  -3 116.207 66.4461   1
  -1  -2  -4 413.860 77.1474   2
  -1  -2  -4 470.993 71.7814   1
  -1  -2  -5 4617.68 108.119   1
   1   2   5 4428.00 66.6670   3
  -1  -2  -5 4795.81 112.010   2
  -1  -2  -6 13614.7 162.895   2
   1   2   6 12966.3 115.157   3
  -1  -2  -6 13521.5 168.958   1
   1   2   7 1.82270 62.6310   3
  -1  -2  -7 20.8936 79.0931   1
  -1  -2  -7 13.1757 86.4986   2
  -1  -2  -8-2.54136 78.3150   2
  -1  -2  -8 6.99407 78.0188   1
  -1  -2  -9 497.420 95.5839   1
  -1  -2  -9 586.066 96.4357   2
  -1  -2 -10 172.801 96.7661   1
  -1  -2 -11 10.3725 95.1493   1
  -1  -2 -12 78.1787 107.377   1
  -1  -2 -13 332.460 118.659   1
  -1  -2 -14-33.5137 117.009   1
  -1  -2 -15 183.852 128.068   1
  -1  -2 -16 55.9935 128.111   1
  -1  -2 -17 87.9243 132.094   1
   1   3 -19-245.444 146.109   1
  -1  -3  19-63.6920 185.436   3
  -1  -3  18 91.4808 147.581   3
   1   3 -18-33.0003 148.076   1
  -1  -3  17 282.656 163.055   3
   1   3 -17 314.861 159.651   1
  -1  -3  16 265.256 157.794   3
   1   3 -16 255.974 130.935   1
  -1  -3  15 498.484 145.054   3
   1   3 -15 409.310 127.556   1
   1   3 -14 21.3667 73.3689   4
  -1  -3  14 107.613 130.598   3
   1   3 -14 25.6551 108.164   1
   1   3 -13 357.491 77.4218   4
   1   3 -13 419.673 109.349   1
  -1  -3  13 364.946 133.928   3
   1   3 -12 10806.6 194.566   1
  -1  -3  12 10212.7 219.119   3
   1   3 -11 16753.8 225.063   1
   1   3 -11 15777.8 151.318   4
  -1  -3  10 578.596 130.285   3
   1   3 -10 436.012 70.3533   4
   1   3 -10 514.717 103.230   1
  -1  -3   9 1602.36 138.174   3
   1   3  -9 1498.38 113.462   1
  -1  -3   9 1823.50 84.9877   2
   1   3  -9 1813.17 82.0806   4
  -1  -3   8-57.6773 118.591   3
   1   3  -8 39.5568 54.8582   0
  -1  -3   8 34.9894 65.6984   2
   1   3  -8-44.3159 90.1542   1
   1   3  -7 29.6676 79.3891   1
  -1  -3   7-81.6599 112.466   3
   1   3  -7 7.36440 49.1992   0
  -1  -3   7 37.7917 60.5687   2
  -1  -3   6 799.758 69.8569   2
  -1  -3   6 716.111 110.501   3
   1   3  -6 515.354 49.5559   0
  -1  -3   5 8294.06 122.624   2
  -1  -3   5 8596.30 154.548   3
  -1  -3   4 4940.39 108.599   2
  -1  -3   4 4944.75 117.503   3
  -1  -3   3 8317.78 126.508   3
   1   3  -3 7564.88 107.192   0
   1   3  -2 1810.99 77.1246   0
  -1  -3   2 2076.15 77.0393   3
  -1  -3   2 1995.96 88.0588   2
  -1  -3   1 5436.57 113.845   1
   1   3  -1 5278.02 109.591   0
  -1  -3   1 5070.47 74.3768   3
  -1  -3   1 5443.33 112.172   2
  -1  -3   0 266.585 74.6797   1
   1   3   0 302.819 78.1365   0
  -1  -3   0 408.781 68.0589   2
   1   3   1 192.142 83.0064   0
  -1  -3  -1 164.953 67.6992   2
  -1  -3  -1 166.471 67.7598   1
  -1  -3  -2 3045.33 97.9171   1
  -1  -3  -2 2730.25 100.745   2
  -1  -3  -3 284.995 85.2315   2
  -1  -3  -3 193.192 71.0856   1
  -1  -3  -4 4643.06 127.044   2
  -1  -3  -4 4545.10 111.648   1
  -1  -3  -5 7916.53 145.036   1
  -1  -3  -5 8077.39 157.268   2
  -1  -3  -6 857.119 109.152   2
  -1  -3  -6 769.339 96.0351   1
  -1  -3  -7 4722.63 144.030   2
  -1  -3  -7 5071.59 143.564   1
  -1  -3  -8 2199.19 120.109   1
  -1  -3  -8 2191.22 129.054   2
  -1  -3  -9 1039.48 114.601   1
  -1  -3  -9 1082.46 123.403   2
  -1  -3 -10 201.405 95.2473   1
  -1  -3 -10 146.409 102.872   2
  -1  -3 -11 100.189 105.119   1
  -1  -3 -12 79.9037 110.189   1
  -1  -3 -13 24.9060 125.793   1
  -1  -3 -14 80.3504 132.603   1
  -1  -3 -15-1.67958 132.087   1
  -1  -3 -16 73.9868 133.080   1
  -1  -3 -17 114.650 153.213   1
  -1  -4  18 161.936 179.859   3
   1   4 -18 204.469 169.272   1
   1   4 -17 169.846 138.543   1
  -1  -4  17 311.802 167.738   3
  -1  -4  16 69.6487 157.023   3
   1   4 -16-10.6387 132.356   1
   1   4 -15 22.2043 127.426   1
  -1  -4  15 36.5056 146.184   3
   1   4 -15-27.5819 88.7068   4
   1   4 -14 34.0073 82.6066   4
  -1  -4  14 177.100 144.698   3
   1   4 -14 154.549 122.260   1
   1   4 -13 40.7693 107.220   1
  -1  -4  13 113.329 136.852   3
   1   4 -13-12.3709 82.8623   4
  -1  -4  12 423.911 133.654   3
   1   4 -12 498.341 78.8346   4
   1   4 -12 373.077 108.361   1
  -1  -4  11 5169.78 184.826   3
   1   4 -11 4632.63 157.157   1
   1   4 -10 804.865 81.8217   4
  -1  -4  10 978.671 161.550   3
   1   4 -10 920.841 122.826   1
  -1  -4   9 775.790 153.135   3
  -1  -4   9 630.028 86.1518   2
   1   4  -9 634.356 76.6798   4
   1   4  -9 527.486 116.335   1
  -1  -4   8 8842.58 207.745   3
   1   4  -8 9041.20 175.623   1
  -1  -4   8 9878.18 155.785   2
   1   4  -7 3594.01 128.979   1
  -1  -4   7 3721.81 163.842   3
   1   4  -7 3514.75 95.2680   0
  -1  -4   7 3850.68 115.044   2
   1   4  -7 2855.43 87.1403   4
  -1  -4   6 2782.60 103.559   2
   1   4  -6 2864.39 94.1409   0
  -1  -4   6 2525.18 141.253   3
   1   4  -6 2188.64 83.2908   4
  -1  -4   5 1901.05 102.477   2
   1   4  -5 1989.74 86.1726   0
  -1  -4   5 2180.46 128.572   3
  -1  -4   4 1466.13 110.095   3
  -1  -4   4 1341.28 97.1510   2
   1   4  -4 1273.42 89.6282   0
  -1  -4   3 4412.88 120.725   2
   1   4  -3 4090.91 112.135   0
  -1  -4   2 7943.14 147.539   2
  -1  -4   2 7657.75 119.937   3
   1   4  -2 7136.09 125.839   0
   1   4  -1 266.680 86.6690   0
  -1  -4   1 240.237 58.5771   3
  -1  -4   1 264.378 74.9824   2
  -1  -4   0 29.2323 78.5026   1
   1   4   0 1.34147 91.6768   0
  -1  -4   0 16.0851 72.5345   2
   1   4   1 795.246 102.325   0
  -1  -4  -1 831.163 94.1177   1
  -1  -4  -1 582.278 80.9212   2
  -1  -4  -2 25.1763 88.3381   2
  -1  -4  -2-41.7572 75.3413   1
   1   4   2 114.843 105.960   0
  -1  -4  -3 1219.72 115.985   2
   1   4   3 1339.82 122.701   0
  -1  -4  -3 1163.95 95.4101   1
  -1  -4  -4 892.821 114.041   2
   1   4   4 1074.75 131.237   0
  -1  -4  -4 1019.75 99.2741   1
  -1  -4  -5 4165.88 150.321   2
   1   4   5 3979.78 163.808   0
  -1  -4  -5 3846.95 126.272   1
  -1  -4  -6 262.532 84.3782   1
  -1  -4  -6 256.597 125.872   2
  -1  -4  -7 2023.38 115.012   1
  -1  -4  -7 2200.49 144.992   2
  -1  -4  -8 3128.32 151.429   2
  -1  -4  -8 2889.72 123.898   1
  -1  -4  -9 5821.71 163.097   1
  -1  -4  -9 6083.65 188.594   2
  -1  -4 -10 3454.18 146.241   1
  -1  -4 -10 3450.55 159.496   2
  -1  -4 -11 136.971 118.104   1
  -1  -4 -12 1420.97 144.507   1
  -1  -4 -13 0.26417 118.003   1
  -1  -4 -14 85.4232 141.339   1
   1   4  15 53.8720 196.344   0
  -1  -4 -15-11.1894 147.571   1
  -1  -5  18 342.415 183.304   3
   1   5 -18 340.061 160.793   1
  -1  -5  17 121.206 173.866   3
   1   5 -17 129.280 145.622   1
   1   5 -16 268.354 104.167   4
   1   5 -16 143.621 134.820   1
  -1  -5  16 226.425 156.927   3
  -1  -5  15 171.755 156.163   3
   1   5 -15 383.097 104.350   4
   1   5 -15 399.649 130.197   1
  -1  -5  14 624.373 160.314   3
   1   5 -14 722.421 128.793   1
   1   5 -14 662.073 104.698   4
  -1  -5  13 128.511 146.610   3
   1   5 -13 97.8403 89.3072   4
   1   5 -13 2.98511 118.467   1
   1   5 -12 245.388 85.8825   4
  -1  -5  12 375.483 143.325   3
   1   5 -12 74.7655 116.185   1
  -1  -5  11 261.213 142.869   3
   1   5 -11 296.910 118.364   1
   1   5 -11 347.710 91.3179   4
   1   5 -10 4195.84 159.610   1
  -1  -5  10 3708.80 178.088   3
   1   5 -10 4060.95 120.641   4
  -1  -5   9 22629.9 302.636   3
   1   5  -9 26368.7 224.992   4
   1   5  -9 23976.5 288.781   1
  -1  -5   9 24881.4 252.106   2
   1   5  -8 721.721 99.4772   4
  -1  -5   8 876.271 164.026   3
   1   5  -8 687.125 117.482   1
  -1  -5   8 783.456 103.607   2
   1   5  -7-2.42437 99.0022   1
  -1  -5   7 21.0626 152.444   3
   1   5  -7 83.3355 92.4905   4
  -1  -5   7 43.4406 93.5921   2
  -1  -5   6 246.334 127.956   3
   1   5  -6 529.513 96.5596   0
   1   5  -6 481.320 91.0833   4
  -1  -5   6 511.322 107.767   2
  -1  -5   5 310.816 107.498   3
   1   5  -5 360.956 97.4028   0
  -1  -5   5 387.463 111.843   2
   1   5  -4 93.2017 97.4348   0
  -1  -5   4 35.9014 108.089   3
  -1  -5   4-4.99177 104.425   2
   1   5  -3 62.9108 106.282   0
  -1  -5   3-18.9604 101.869   2
  -1  -5   2 1086.47 110.373   2
   1   5  -2 1003.39 108.805   0
  -1  -5   1 558.617 104.072   2
   1   5  -1 550.202 108.011   0
  -1  -5   0 137.302 96.0485   1
   1   5   0 226.639 115.577   0
  -1  -5   0 339.261 97.9406   2
  -1  -5  -1 124.949 103.191   1
   1   5   1 51.3702 117.513   0
  -1  -5  -1 258.400 92.6864   2
   1   5   2 161.989 131.243   0
  -1  -5  -2 294.343 99.5817   2
  -1  -5  -2 183.797 104.360   1
  -1  -5  -3-31.1361 90.6950   1
  -1  -5  -3-5.76866 104.280   2
   1   5   3-69.4428 137.086   0
  -1  -5  -4 547.887 117.381   2
   1   5   4 739.122 148.457   0
  -1  -5  -4 497.596 95.5034   1
  -1  -5  -5 579.836 120.965   2
  -1  -5  -5 674.921 100.715   1
   1   5   5 882.532 144.249   0
  -1  -5  -6 456.389 127.000   2
  -1  -5  -6 420.171 103.045   1
   1   5   6 381.192 145.187   0
  -1  -5  -7-14.0617 125.898   2
   1   5   7 135.547 145.684   0
  -1  -5  -7 29.7085 99.5585   1
   1   5   8 228.775 160.094   0
  -1  -5  -8 166.452 99.2141   1
  -1  -5  -8 194.136 133.362   2
  -1  -5  -9 46.2947 134.895   2
   1   5   9 378.084 172.169   0
  -1  -5  -9 244.900 105.773   1
  -1  -5 -10 304.779 106.476   1
   1   5  10 305.686 183.927   0
  -1  -5 -10 109.753 118.707   2
   1   5  11 991.996 197.571   0
   1   5  12 469.397 191.376   0
   1   5  13 693.069 208.317   0
   1   5  14 354.810 201.503   0
   1   6 -17 183.995 117.360   4
   1   6 -17 510.970 146.243   1
  -1  -6  17 415.178 175.449   3
   1   6 -16 763.066 124.505   4
  -1  -6  16 730.844 172.650   3
   1   6 -16 645.091 148.561   1
  -1  -6  15 43.1883 155.603   3
   1   6 -15-2.81315 108.212   4
   1   6 -15-7.77051 134.552   1
   1   6 -14 25.3995 98.0618   4
  -1  -6  14-31.6697 148.642   3
   1   6 -14-1.48018 130.257   1
   1   6 -13 95.5953 134.096   1
  -1  -6  13 152.677 146.473   3
   1   6 -13 34.6199 98.4080   4
   1   6 -12 61.2019 100.561   4
   1   6 -12 6.66355 126.069   1
  -1  -6  12 164.320 155.387   3
   1   6 -11-8.84657 98.2270   4
  -1  -6  11 130.370 146.872   3
   1   6 -11 68.8161 133.584   1
   1   6 -10 275.697 127.848   1
  -1  -6  10 598.836 148.000   3
   1   6 -10 584.756 103.999   4
   1   6  -9 498.730 117.417   1
  -1  -6   9 686.587 149.028   3
   1   6  -9 624.004 103.470   4
   1   6  -8 2311.36 136.895   1
  -1  -6   8 2300.36 157.383   3
   1   6  -8 2609.76 114.847   4
  -1  -6   8 2715.34 134.785   2
  -1  -6   7 2553.80 133.715   2
  -1  -6   7 2290.97 153.357   3
   1   6  -7 2511.68 114.727   4
  -1  -6   6 5659.73 171.849   2
   1   6  -6 4753.40 132.213   4
   1   6  -5 128.635 109.250   0
  -1  -6   5 154.653 124.347   2
  -1  -6   4-58.4471 119.111   2
   1   6  -4 143.908 122.549   0
  -1  -6   3 9463.21 206.124   2
   1   6  -3 9705.13 200.077   0
   1   6  -2 82.4059 127.590   0
  -1  -6   2 218.885 120.662   2
  -1  -6   1 2729.29 141.240   2
   1   6  -1 3007.10 148.580   0
  -1  -6   0 976.451 121.446   2
   1   6   0 1130.08 129.348   0
   1   6   1 768.243 137.830   0
  -1  -6  -1 1177.63 114.970   2
  -1  -6  -1 1108.98 119.150   1
   1   6   2 23.1590 130.097   0
  -1  -6  -2 159.112 106.077   2
  -1  -6  -2 203.247 108.349   1
  -1  -6  -3 276.437 102.523   1
  -1  -6  -3 256.678 102.042   2
   1   6   3 309.051 140.207   0
  -1  -6  -4 101.029 105.628   1
  -1  -6  -4 171.324 108.237   2
   1   6   4 90.7344 148.963   0
  -1  -6  -5 97.6864 115.854   2
  -1  -6  -5 60.1155 97.8432   1
   1   6   5 84.9584 155.018   0
   1   6   6 94.8490 163.924   0
  -1  -6  -6 177.972 126.865   2
   1   6   7 65.3533 176.536   0
  -1  -6  -7-47.9686 133.653   2
  -1  -6  -8 150.111 134.159   2
   1   6   8 98.9390 181.985   0
   1   6   9 193.399 185.893   0
  -1  -6  -9 390.487 138.309   2
  -1  -6 -10 88.4583 111.109   2
   1   6  10 101.175 193.737   0
   1   6  11 212.597 201.922   0
   1   6  12 1295.90 222.897   0
   1   7 -17-39.5477 128.717   4
   1   7 -16 197.722 120.071   4
   1   7 -15 260.145 130.965   1
  -1  -7  15 349.596 174.275   3
   1   7 -15 318.864 122.411   4
   1   7 -14 44.2455 110.812   4
  -1  -7  14 63.7866 132.850   3
   1   7 -14-30.6323 108.525   1
   1   7 -13 34.4783 128.405   1
  -1  -7  13 46.6428 129.799   3
   1   7 -13 95.4148 113.010   4
   1   7 -12 153.971 131.165   1
  -1  -7  12 155.469 127.050   3
   1   7 -12 88.8925 109.814   4
   1   7 -11 59.4043 110.191   4
   1   7 -11 120.785 137.381   1
  -1  -7  11 181.749 136.057   3
   1   7 -10 4.69449 110.630   4
   1   7 -10-55.6954 141.039   1
   1   7  -9 176.457 119.909   1
   1   7  -9 219.351 109.395   4
   1   7  -8-27.9278 103.741   4
  -1  -7   8 61.0683 120.136   2
   1   7  -8-61.3927 118.329   1
   1   7  -7-40.9057 100.834   1
   1   7  -7 75.9192 99.1504   4
  -1  -7   7 151.602 119.738   2
   1   7  -6-0.25732 98.4474   4
  -1  -7   6 14.5821 131.470   2
  -1  -7   5 25.0687 131.800   2
   1   7  -4 666.105 130.616   0
  -1  -7   4 761.006 142.303   2
  -1  -7   3 1991.63 154.309   2
   1   7  -3 2099.74 146.993   0
   1   7  -2 917.090 145.119   0
  -1  -7   2 689.286 143.739   2
  -1  -7   1 4559.75 181.135   2
   1   7  -1 5427.25 187.831   0
   1   7   0 2805.03 165.194   0
  -1  -7   0 2193.34 151.538   2
  -1  -7  -1 199.060 119.280   2
   1   7   1 530.674 139.254   0
   1   7   2 4.96543 145.134   0
  -1  -7  -2 241.066 128.889   2
   1   7   3-174.116 156.359   0
  -1  -7  -3 79.2156 128.105   2
   1   7   4 10.6471 168.973   0
  -1  -7  -4 148.928 130.011   2
   1   7   5 131.046 175.617   0
  -1  -7  -5 102.284 126.274   2
   1   7   6-14.4883 174.109   0
  -1  -7  -6-34.2204 133.668   2
  -1  -7  -7 603.116 141.146   2
   1   7   7 570.470 182.531   0
  -1  -7  -8 56.6741 136.083   2
   1   7   8 16.0874 180.452   0
  -1  -7  -9 84.7924 123.224   2
   1   7   9 37.0958 200.805   0
  -1  -7 -10 15.9281 142.243   2
   1   8 -18 980.121 147.370   4
   1   8 -17 61.1381 129.121   4
   1   8 -16 470.003 138.792   4
   1   8 -15 72.0069 127.405   4
   1   8 -14 424.339 129.783   4
   1   8 -14 259.823 135.957   1
   1   8 -13 63.5902 125.021   4
   1   8 -13 4.23116 133.028   1
   1   8 -12-18.7545 120.520   4
   1   8 -12 6.61186 133.120   1
   1   8 -11-56.6999 125.156   4
   1   8 -11 153.297 139.638   1
   1   8 -10 399.426 133.904   1
   1   8 -10 361.817 123.961   4
   1   8  -9 48.7427 126.876   1
   1   8  -9-95.6208 120.620   4
   1   8  -8 420.491 120.886   4
  -1  -8   7 132.255 132.867   2
   1   8  -7 51.5720 113.942   4
  -1  -8   6-36.6949 137.968   2
   1   8  -6-56.8621 110.339   4
   1   8  -5-14.8603 107.639   4
  -1  -8   5 20.8354 144.179   2
  -1  -8   4 292.940 150.215   2
  -1  -8   3 255.485 150.454   2
   1   8  -2-90.0826 149.608   0
  -1  -8   2 28.8558 147.715   2
   1   8  -1 276.361 148.301   0
  -1  -8   1 205.053 147.850   2
   1   8   0 201.286 163.777   0
  -1  -8   0 68.7383 148.835   2
   1   8   1 272.547 156.014   0
  -1  -8  -1 110.637 150.345   2
  -1  -8  -2 53.0215 146.173   2
   1   8   2 105.848 154.490   0
   1   8   3 210.065 164.447   0
  -1  -8  -3 137.191 147.953   2
   1   8   4 197.928 151.176   0
  -1  -8  -4 139.229 149.034   2
   1   8   5 130.768 149.693   0
  -1  -8  -5 242.245 155.918   2
   1   8   6 38.1582 182.891   0
  -1  -8  -6 182.501 156.403   2
  -1  -8  -7 333.045 155.733   2
   1   9 -18 79.0005 143.444   4
   1   9 -17 266.255 128.998   4
   1   9 -16 1304.90 157.630   4
   1   9 -15 52.3943 136.749   4
   1   9 -14 596.167 145.180   4
   1   9 -13 103.468 137.948   4
   1   9 -12 62.9892 133.268   4
   1   9 -11 116.001 135.987   4
   1   9 -10-20.5574 136.012   4
   1   9  -9-3.71165 137.299   4
   1   9  -8 401.858 134.966   4
   1   9  -7 233.223 129.516   4
   1   9  -6 26.2078 126.228   4
  -1  -9   6 129.606 159.537   2
   1   9  -5 68.5711 121.955   4
  -1  -9   5 53.0410 161.750   2
  -1  -9   4 101.473 164.296   2
  -1  -9   3-10.2107 135.241   2
  -1  -9   2-29.3887 134.654   2
  -1  -9   1 91.1636 134.894   2
   1   9   0 659.326 186.119   0
  -1  -9   0 609.166 176.480   2
   1   9   1 144.692 189.147   0
  -1  -9  -1 108.280 169.725   2
   1   9   2 762.281 191.075   0
   1   9   3 251.788 188.072   0
   1  10 -17 328.044 145.280   4
   1  10 -16 150.155 143.236   4
   1  10 -15 149.246 137.356   4
   1  10 -14 223.264 139.824   4
   1  10 -13 607.246 147.281   4
   1  10 -12 82.1103 148.681   4
   1  10 -11-7.54846 143.353   4
   1  10 -10-13.1804 143.383   4
   1  10  -9-14.7178 146.192   4
   1  10  -8 147.773 146.880   4
   1  10  -7 314.428 145.797   4
   1  10  -6 23.8549 140.818   4
   1  10  -5 241.652 142.930   4
   1  10  -4 206.227 137.260   4
   1  10  -3 349.754 147.999   4
   1  11 -14 393.450 146.696   4
   1  11 -13 42.5043 125.159   4
   1  11 -12 298.524 121.806   4
   1  11 -11 14.3958 120.752   4
   1  11 -10-1.16847 128.895   4
   1  11  -9-51.2077 153.615   4
   1  11  -8 3.70370 150.157   4
   1  11  -7 112.564 152.592   4
   1  11  -6 112.391 149.421   4
   1  11  -5 8.17748 149.209   4
   1  11  -4 3.14277 150.446   4
   1  11  -3 89.4342 153.595   4
   1  11  -2 144.143 158.279   4
   1  11  -1 185.403 150.601   4
   1  12  -8 189.146 147.664   4
   1  12  -7 2.04577 150.961   4
   1  12  -6 3.12273 155.821   4
   1  12  -5 88.9325 156.547   4
   1  12  -4 261.475 156.969   4
   1  12  -3 106.620 153.128   4
   1  12  -2 195.092 154.912   4
   1  12  -1 31.1993 152.738   4
   1  12   0 7.05212 155.517   4
  -2  13  -2 9.77390 132.602   4
  -2  13  -3-6.43089 135.041   4
  -2  13  -4 177.817 140.466   4
  -2  13  -5 115.525 136.156   4
  -2  13  -6-15.3134 129.378   4
  -2  12  -1 36.1193 127.249   4
  -2  12  -2 66.1340 113.606   4
  -2  12  -3 9.53993 126.271   4
  -2  12  -4 177.365 136.563   4
  -2  12  -5-39.4335 137.416   4
  -2  12  -6-85.5006 136.637   4
  -2  12  -7 114.340 131.651   4
  -2  12  -8-25.7810 131.392   4
  -2  12  -9-53.9933 132.333   4
  -2  12 -10 107.455 136.121   4
  -2  12 -11 85.3002 144.495   4
  -2  12 -12 382.900 147.024   4
  -2  11   0 143.256 110.861   4
  -2  11  -1 22.5900 121.131   4
  -2  11  -2-2.17315 128.072   4
  -2  11  -3 74.7129 133.507   4
  -2  11  -4 105.284 133.289   4
  -2  11  -5 338.441 135.723   4
  -2  11  -6-104.173 132.005   4
  -2  11  -7 59.2611 131.497   4
  -2  11  -8 74.4138 130.353   4
  -2  11  -9 73.0645 128.915   4
  -2  11 -10-59.1267 128.516   4
  -2  11 -11 86.1670 136.246   4
  -2  11 -12 118.226 141.724   4
  -2  11 -13 13.4979 144.398   4
  -2  11 -14-33.8665 144.531   4
  -2  11 -15 128.230 150.603   4
  -2  10   2 546.052 179.756   0
   2 -10  -2 448.109 172.893   2
   2 -10  -1 3.69485 161.536   2
  -2  10   1 119.091 163.294   0
  -2  10   1-21.9909 115.276   4
  -2  10   0 76.4920 158.946   0
  -2  10   0 95.1705 120.769   4
   2 -10   0 133.432 153.642   2
   2 -10   1 140.705 144.105   2
  -2  10  -1 108.376 161.863   0
  -2  10  -1 81.3086 119.134   4
  -2  10  -2 192.518 176.622   0
  -2  10  -2-40.3222 121.328   4
   2 -10   2 244.378 136.054   2
  -2  10  -3-5.93578 122.682   4
  -2  10  -3-35.5790 174.928   0
  -2  10  -4 135.636 119.825   4
  -2  10  -4 88.7082 172.195   0
  -2  10  -5 255.476 123.566   4
  -2  10  -5 838.338 167.082   0
  -2  10  -6 201.351 123.002   4
  -2  10  -7 344.025 122.772   4
  -2  10  -8 169.430 120.119   4
  -2  10  -9 87.0639 119.246   4
  -2  10 -10 175.417 125.343   4
  -2  10 -11 47.5861 130.222   4
  -2  10 -12 89.5800 136.810   4
  -2  10 -13 386.952 149.202   4
  -2  10 -14 76.4014 141.397   4
  -2  10 -15 458.690 149.092   4
  -2  10 -16 63.5392 121.762   4
  -2  10 -17 49.4552 123.029   4
  -2   9   7 538.176 192.380   0
   2  -9  -7 222.714 179.109   2
  -2   9   6 268.740 179.429   0
   2  -9  -6 239.099 169.802   2
   2  -9  -5 153.411 167.716   2
  -2   9   5 135.562 174.801   0
   2  -9  -4 65.5461 131.209   2
  -2   9   4 92.0630 147.299   0
  -2   9   3 12.5433 163.046   0
   2  -9  -3 13.2063 150.146   2
  -2   9   2 80.9632 99.6274   4
  -2   9   2 16.7416 163.635   0
   2  -9  -2 27.0259 146.717   2
  -2   9   1 340.271 163.287   0
   2  -9  -1 462.577 153.448   2
  -2   9   1 336.457 109.841   4
  -2   9   0 2612.89 184.766   0
   2  -9   0 2860.54 177.641   2
  -2   9   0 2967.92 131.485   4
  -2   9  -1 759.654 162.047   0
  -2   9  -1 810.007 112.255   4
   2  -9   1 479.074 144.410   2
  -2   9  -2 0.84027 104.871   4
   2  -9   2 20.0718 125.040   2
  -2   9  -2 22.7483 162.770   0
   2  -9   3 71.9738 121.312   2
  -2   9  -3 15.7167 104.413   4
  -2   9  -3 73.3636 155.209   0
  -2   9  -4 63.4818 163.080   0
  -2   9  -4 130.414 106.878   4
  -2   9  -5-2.74127 108.787   4
  -2   9  -5 86.8946 127.938   0
  -2   9  -6 33.1046 110.383   4
  -2   9  -6 23.5289 144.303   0
  -2   9  -7 4.46860 106.377   4
  -2   9  -7 57.1021 157.310   0
  -2   9  -8 582.577 111.689   4
  -2   9  -9 419.766 114.449   4
  -2   9 -10 135.032 116.531   4
   2  -9  10 410.331 176.658   3
   2  -9  11 282.563 194.049   3
  -2   9 -11 306.946 121.948   4
  -2   9 -12 252.240 130.067   4
  -2   9 -13 403.221 136.161   4
  -2   9 -14-26.1805 136.096   4
  -2   9 -15 601.108 144.019   4
  -2   9 -16-20.7963 141.584   4
   2  -8 -11 180.267 167.676   2
   2  -8 -10 118.137 162.346   2
  -2   8  10 207.559 181.852   0
   2  -8  -9 245.589 158.870   2
  -2   8   9 288.702 180.087   0
  -2   8   8 191.184 170.273   0
   2  -8  -8 2.83569 157.371   2
   2  -8  -7-50.9722 146.330   2
  -2   8   7 210.606 167.585   0
   2  -8  -6-69.3990 147.270   2
  -2   8   6 54.4757 160.818   0
   2  -8  -5 788.152 147.666   2
  -2   8   5 1295.66 174.794   0
   2  -8  -4 66.5243 142.846   2
  -2   8   4 16.2489 154.882   0
   2  -8  -3 710.608 146.212   2
  -2   8   3 877.036 163.894   0
  -2   8   2 135.996 152.411   0
   2  -8  -2 91.0526 138.718   2
  -2   8   2 63.3233 80.0474   4
  -2   8   1 334.347 149.605   0
  -2   8   1 328.153 96.1750   4
   2  -8  -1 334.971 132.067   2
  -2   8   0 720.063 144.320   0
  -2   8   0 608.995 101.199   4
   2  -8   0 499.353 136.481   2
  -2   8  -1 343.333 138.018   0
   2  -8   1 80.4594 126.537   2
  -2   8  -1 291.916 95.6583   4
  -2   8  -2 1698.26 167.213   0
   2  -8   2 1648.94 144.408   2
  -2   8  -2 1675.93 116.613   4
  -2   8  -3 511.128 103.891   4
   2  -8   3 318.604 123.679   2
  -2   8  -3 287.002 151.451   0
   2  -8   4-23.4519 115.419   2
  -2   8  -4-16.4978 150.366   0
  -2   8  -4 9.38713 98.0567   4
  -2   8  -5 140.338 98.6475   4
  -2   8  -5 170.134 134.800   0
  -2   8  -6 19.1935 99.1124   4
  -2   8  -6-80.2898 140.876   0
  -2   8  -7 19.8574 133.478   0
  -2   8  -7 23.0283 95.6507   4
  -2   8  -8 165.534 132.824   0
   2  -8   8 157.134 147.068   3
  -2   8  -8 91.6048 99.4623   4
   2  -8   9 334.120 168.180   3
  -2   8  -9 199.460 98.9992   4
   2  -8  10 93.7898 173.428   3
  -2   8 -10 152.805 106.217   4
   2  -8  11 125.157 181.437   3
  -2   8 -11 140.037 110.065   4
  -2   8 -12 55.0789 112.894   4
   2  -8  12 34.7682 179.569   3
   2  -8  13 357.550 208.984   3
  -2   8 -13 581.729 128.319   4
  -2   8 -14 44.4070 127.804   4
  -2   8 -15 191.913 133.011   4
   2  -7 -14 165.884 152.994   2
   2  -7 -13-16.8942 149.692   2
  -2   7  13 12.8774 175.811   0
  -2   7  12 130.322 166.883   0
   2  -7 -12 86.6518 123.292   2
  -2   7  11 432.648 166.590   0
   2  -7 -11 257.746 147.207   2
  -2   7  10 263.235 155.525   0
   2  -7 -10 150.861 138.509   2
  -2   7   9 170.146 152.732   0
   2  -7  -9 84.5041 132.056   2
  -2   7   8 32.1650 148.056   0
   2  -7  -8 130.699 125.669   2
  -2   7   7 386.427 149.748   0
   2  -7  -7 249.920 125.437   2
   2  -7  -6-22.2362 119.815   2
  -2   7   6 50.8843 143.422   0
  -2   7   5 3364.71 180.831   0
   2  -7  -5 2787.12 144.573   2
   2  -7  -4 45.4538 111.696   2
  -2   7   4-20.7823 132.827   0
  -2   7   3 246.029 133.217   0
   2  -7  -3 222.713 109.975   2
   2  -7  -2 707.373 115.352   2
  -2   7   2 706.309 136.947   0
  -2   7   2 437.224 74.8203   4
  -2   7   1 48.6965 131.900   0
  -2   7   1 44.0018 78.8403   4
   2  -7  -1 114.083 108.008   2
   2  -7   0 307.197 112.490   2
  -2   7   0 313.655 129.627   0
  -2   7   0 392.251 85.8204   4
   2  -7   1 876.065 122.387   2
  -2   7  -1 896.035 132.267   0
  -2   7  -1 963.570 96.6717   4
  -2   7  -2 4507.64 181.169   0
   2  -7   2 4501.12 153.233   2
  -2   7  -2 4483.19 127.487   4
  -2   7  -3 13371.4 176.701   4
   2  -7   3 13145.6 215.339   2
  -2   7  -3 13822.3 245.642   0
  -2   7  -4 2357.68 113.257   4
  -2   7  -4 2515.32 157.353   0
   2  -7   4 2606.20 132.388   2
  -2   7  -5-56.8961 115.045   0
  -2   7  -5-19.2676 90.4752   4
  -2   7  -6 55.0667 86.4030   4
  -2   7  -6-61.3100 123.310   0
  -2   7  -7 300.802 89.0149   4
  -2   7  -7 159.386 119.465   0
  -2   7  -8 142.519 89.6636   4
  -2   7  -8 103.546 126.113   0
   2  -7   9 61.6463 164.480   3
  -2   7  -9 99.3556 92.6371   4
  -2   7  -9 117.604 131.658   0
  -2   7 -10 171.869 99.2548   4
  -2   7 -10 115.308 135.732   0
   2  -7  10 177.574 167.742   3
  -2   7 -11 72.4465 103.207   4
   2  -7  11-23.1344 170.948   3
  -2   7 -12-14.6597 103.001   4
   2  -7  12-27.6344 185.109   3
   2  -7  13 325.664 196.858   3
  -2   7 -13 557.938 113.389   4
   2  -7  14-32.0958 207.251   3
  -2   7 -14 172.393 115.374   4
  -2   7 -15-94.1357 143.098   1
  -2   7 -16 445.939 140.933   1
  -2   6  15-40.3684 178.483   0
  -2   6  14 45.3355 143.837   0
   2  -6 -14 301.377 133.887   2
  -2   6  13 323.173 175.385   0
   2  -6 -13 332.166 102.370   2
   2  -6 -12 126.147 119.483   2
  -2   6  12-59.7847 159.035   0
   2  -6 -11 106.038 120.080   2
  -2   6  11-98.4467 158.255   0
  -2   6  10 687.122 156.907   0
   2  -6 -10 688.692 131.056   2
   2  -6  -9 109.151 120.308   2
  -2   6   9 217.402 142.685   0
  -2   6   8 386.024 135.469   0
   2  -6  -8 183.443 110.348   2
   2  -6  -7 44.7397 106.180   2
  -2   6   7 206.455 124.171   0
  -2   6   6 604.468 125.319   0
   2  -6  -6 425.909 114.105   2
  -2   6   5 1307.09 142.068   0
   2  -6  -5 1045.55 119.601   2
   2  -6  -4 253.464 114.411   2
  -2   6   4 152.145 130.146   0
   2  -6  -3 624.210 110.957   2
  -2   6   3 673.558 130.044   0
   2  -6  -2 298.271 91.5735   2
  -2   6   2 190.668 126.054   0
  -2   6   2 169.132 88.9489   3
   2  -6  -1 1263.59 102.020   2
  -2   6   1 1552.76 141.132   0
  -2   6   1 1364.62 85.6302   4
  -2   6   0 84.5444 78.0464   4
  -2   6   0-117.546 116.310   0
   2  -6   0 8.68251 91.6968   2
   2  -6   1 1350.70 106.140   2
  -2   6  -1 1334.44 126.618   0
  -2   6  -1 1528.20 90.0537   4
   2  -6   2 253.961 93.2276   2
  -2   6  -2 285.317 85.8571   4
  -2   6  -2 342.641 124.011   0
  -2   6  -3 9664.66 202.024   0
   2  -6   3 9215.27 163.673   2
  -2   6  -3 9590.08 142.505   4
  -2   6  -4 147.295 86.5290   4
   2  -6   4 145.815 99.1590   2
  -2   6  -4 348.555 124.889   0
  -2   6  -5 13884.4 230.369   0
  -2   6  -5 14018.7 169.558   4
   2  -6   5 14728.3 196.067   2
  -2   6  -6 3303.35 108.121   4
  -2   6  -6 2984.93 147.521   0
  -2   6  -7 3080.13 104.929   4
  -2   6  -7 2829.50 144.125   0
  -2   6  -7 2856.26 113.230   1
  -2   6  -8 24.3176 118.091   0
  -2   6  -8-22.2390 85.6746   4
  -2   6  -8-13.3833 86.3991   1
  -2   6  -9 289.209 90.8817   4
  -2   6  -9 275.975 116.570   0
  -2   6  -9 370.038 101.955   1
  -2   6 -10 470.643 138.333   0
  -2   6 -10 381.467 95.1947   4
   2  -6  10 246.470 162.367   3
  -2   6 -10 433.096 111.389   1
  -2   6 -11 13.0635 92.6133   4
   2  -6  11-25.7915 169.240   3
  -2   6 -11 56.5362 139.540   0
  -2   6 -11 45.4815 106.439   1
   2  -6  12-5.45754 175.465   3
  -2   6 -12-0.67254 111.178   1
  -2   6 -12 31.3663 94.2587   4
   2  -6  13 69.9541 184.549   3
  -2   6 -13 38.0288 106.299   1
  -2   6 -13 96.1587 102.135   4
   2  -6  14-28.0926 197.269   3
  -2   6 -14 77.5710 115.645   1
   2  -6  15 311.648 210.547   3
  -2   6 -15 214.957 107.540   1
  -2   6 -16 280.825 143.961   1
   2  -6  16 246.429 228.823   3
  -2   5  15 98.3657 171.669   0
   2  -5 -14 26.6837 118.460   2
  -2   5  14 3.67101 136.486   0
   2  -5 -13 165.373 109.475   2
  -2   5  13 356.890 162.855   0
   2  -5 -12 913.735 131.942   2
  -2   5  12 1164.79 166.152   0
  -2   5  11 105.126 139.524   0
   2  -5 -11 23.9530 119.786   2
   2  -5 -10 9.31459 117.812   2
  -2   5  10 36.3769 139.898   0
   2  -5  -9 323.962 119.483   2
  -2   5   9 189.069 127.902   0
  -2   5   8 5242.02 173.944   0
   2  -5  -8 4802.32 162.539   2
  -2   5   7 563.836 123.469   0
   2  -5  -7 421.711 114.239   2
  -2   5   6 1087.91 122.908   0
   2  -5  -6 841.152 113.207   2
  -2   5   5 1498.42 104.811   3
  -2   5   5 1414.78 124.298   0
   2  -5  -5 1173.08 112.326   2
  -2   5   4 4528.21 117.972   3
  -2   5   4 4696.32 156.123   0
   2  -5  -4 4084.16 135.291   2
  -2   5   3 1103.26 117.263   0
  -2   5   3 908.754 99.1013   3
   2  -5  -3 929.477 97.7209   2
  -2   5   2 581.448 108.727   0
  -2   5   2 627.658 87.5195   3
   2  -5  -2 520.796 93.4048   2
  -2   5   1 233.332 102.948   0
   2  -5  -1 303.174 84.5810   2
  -2   5   1 290.266 83.5455   3
  -2   5   0 169.779 88.2881   3
  -2   5   0 268.087 99.5681   0
   2  -5   0 136.775 76.5285   2
  -2   5  -1 4765.60 138.309   0
  -2   5  -1 5173.68 98.9791   4
  -2   5  -2 977.633 59.9991   1
   2  -5   2 775.445 70.5928   2
  -2   5  -2 1170.92 110.260   0
  -2   5  -2 1080.42 75.8480   4
  -2   5  -3 24.2017 69.6684   4
  -2   5  -3 28.8749 56.5781   1
   2  -5   3 38.6786 70.6395   2
  -2   5  -3-39.8780 105.061   0
  -2   5  -4 381.049 56.7382   1
  -2   5  -4 319.486 102.941   0
   2  -5   4 540.381 76.2154   2
  -2   5  -4 520.651 73.5621   4
  -2   5  -5 22.4197 102.124   0
   2  -5   5-7.23967 71.9552   2
  -2   5  -5 21.5105 68.4134   4
  -2   5  -5 41.7604 61.5992   1
  -2   5  -6 1101.59 79.1618   1
  -2   5  -6 1262.90 119.938   0
  -2   5  -6 1576.06 87.6937   4
  -2   5  -7 41.9976 80.4709   4
  -2   5  -7 8.52845 103.865   0
  -2   5  -7 57.4973 87.3052   1
  -2   5  -8 2843.73 105.802   4
  -2   5  -8 2621.58 124.323   1
  -2   5  -8 2164.82 131.813   0
  -2   5  -9 1964.24 135.303   1
  -2   5  -9 1676.66 143.692   0
  -2   5  -9 1886.03 98.6051   4
  -2   5 -10 1531.91 139.297   0
  -2   5 -10 1518.77 96.7482   4
  -2   5 -10 1678.22 128.717   1
   2  -5  10 1535.48 171.064   3
  -2   5 -11 1853.34 128.071   1
   2  -5  11 2013.28 180.129   3
  -2   5 -11 1892.39 150.657   0
  -2   5 -11 1879.84 104.965   4
  -2   5 -12 95.6586 126.496   0
   2  -5  12 60.9143 166.058   3
  -2   5 -12-48.6016 121.031   1
   2  -5  13 101.126 179.921   3
  -2   5 -13-136.677 116.892   1
   2  -5  14 136.777 192.663   3
  -2   5 -14 51.3158 127.492   1
   2  -5  15 116.243 182.070   3
  -2   5 -15 128.649 134.494   1
   2  -5  16 153.451 185.638   3
  -2   5 -16 452.499 144.964   1
   2  -5  17 1.91115 223.638   3
  -2   5 -17-25.1135 145.044   1
  -2   4  14-5.06648 131.730   0
   2  -4 -13 46.9161 98.0866   2
  -2   4  13-88.0124 129.547   0
   2  -4 -12 1630.25 133.923   2
  -2   4  12 1727.16 158.718   0
  -2   4  11 4663.53 175.120   0
   2  -4 -11 4441.38 155.475   2
  -2   4  10 11601.5 222.417   0
   2  -4 -10 11379.5 210.646   2
  -2   4   9 1833.73 149.398   0
  -2   4   9 1843.66 113.453   3
   2  -4  -9 1894.60 137.364   2
   2  -4  -8 217.488 115.102   2
  -2   4   8 117.551 86.5504   3
  -2   4   8 163.145 119.248   0
  -2   4   7 586.445 90.1653   3
  -2   4   7 828.319 118.351   0
   2  -4  -7 865.812 110.117   2
  -2   4   6 4280.21 116.067   3
  -2   4   6 4131.87 137.498   0
   2  -4  -6 4103.17 135.413   2
   2  -4  -5 36.8074 87.2748   2
  -2   4   5 18.2635 77.6739   3
  -2   4   5 116.853 91.0567   0
  -2   4   4 2141.18 109.279   0
  -2   4   4 2021.41 93.8264   3
   2  -4  -4 1914.07 100.601   2
   2  -4  -3 317.577 83.2339   2
  -2   4   3 317.347 93.9893   0
  -2   4   3 301.273 75.8805   3
  -2   4   2 2895.14 99.8173   3
  -2   4   2 2565.44 111.472   0
   2  -4  -2 2759.43 98.6009   2
  -2   4   1 2931.65 106.385   3
  -2   4   1 2425.13 108.571   0
   2  -4  -1 2629.69 97.3993   2
  -2   4   0 12500.3 81.5182   1
  -2   4   0 13192.7 161.946   3
  -2   4   0 13239.5 170.136   0
   2  -4   0 12465.4 144.259   2
   2  -4   1 34.1074 59.1379   2
  -2   4  -1 52.1532 79.8608   3
  -2   4  -1 53.7591 86.7039   0
  -2   4  -1 58.4223 36.5070   1
  -2   4  -2 5112.88 74.5876   1
   2  -4   2 5531.91 95.0197   2
  -2   4  -3 845.352 51.4574   1
   2  -4   3 1023.14 56.7790   2
  -2   4  -3 1239.09 94.8604   0
  -2   4  -4 3985.35 92.8115   1
  -2   4  -4 3988.54 121.389   0
  -2   4  -4 4062.91 84.6695   4
  -2   4  -5 4642.51 91.9833   4
  -2   4  -5 4708.34 113.419   1
  -2   4  -5 4483.18 129.459   0
   2  -4   5 4648.02 83.2887   2
  -2   4  -6 10838.2 129.118   4
  -2   4  -6 11195.3 162.751   1
  -2   4  -6 10093.4 167.019   0
  -2   4  -7 208.332 72.3913   4
  -2   4  -7 243.641 106.497   0
  -2   4  -7 209.245 96.5262   1
  -2   4  -8 8438.57 167.066   1
  -2   4  -8 8317.65 183.395   0
  -2   4  -9 324.308 86.7443   4
  -2   4  -9 248.810 124.984   0
  -2   4  -9 227.049 97.5598   1
   2  -4  10 7788.24 225.016   3
  -2   4 -10 7849.30 181.245   1
  -2   4 -10 7808.62 197.245   0
  -2   4 -11 869.408 119.478   1
  -2   4 -11 824.750 130.437   0
   2  -4  11 695.117 160.835   3
  -2   4 -12 176.547 123.736   0
   2  -4  12 277.107 155.644   3
  -2   4 -12 300.130 113.537   1
   2  -4  13 505.558 175.928   3
  -2   4 -13 510.788 122.885   1
  -2   4 -13 435.128 141.473   0
   2  -4  14 33.2168 182.940   3
  -2   4 -14 82.1089 124.336   1
  -2   4 -15-13.9640 125.703   1
   2  -4  15 16.4548 191.219   3
   2  -4  16 324.800 194.050   3
  -2   4 -16 483.209 145.119   1
   2  -4  17 153.767 180.573   3
  -2   4 -17-55.0663 144.162   1
   2  -3 -13-14.5449 103.480   2
  -2   3  13-36.7319 115.366   3
  -2   3  13 99.3183 128.913   0
  -2   3  12 1088.20 126.115   3
   2  -3 -12 1050.74 106.194   1
  -2   3  12 1218.42 132.102   0
   2  -3 -12 1003.72 118.690   2
  -2   3  11 61.8365 114.550   3
  -2   3  11 60.6298 125.772   0
   2  -3 -11 3.81369 93.3844   1
   2  -3 -11 188.793 110.586   2
   2  -3 -10 4979.32 123.701   1
  -2   3  10 4690.75 151.280   3
  -2   3  10 4860.29 159.832   0
   2  -3 -10 4624.29 151.551   2
   2  -3  -9 159.842 105.719   2
   2  -3  -9 298.176 75.6982   1
  -2   3   9 272.261 96.4754   3
  -2   3   9 258.113 110.472   0
  -2   3   8 7694.38 138.828   3
   2  -3  -8 8334.10 122.093   1
   2  -3  -8 7138.41 153.761   2
  -2   3   8 8055.43 162.090   0
   2  -3  -7 19644.1 157.483   1
  -2   3   7 20884.1 196.020   3
  -2   3   7 20357.9 210.578   0
   2  -3  -6 9524.45 102.405   1
  -2   3   6 9966.80 141.405   3
  -2   3   6 9342.19 149.134   0
  -2   3   5 15243.9 166.728   3
   2  -3  -5 15371.2 103.157   1
  -2   3   5 14114.3 162.335   0
   2  -3  -4 34516.6 126.660   1
  -2   3   4 35415.7 240.729   0
  -2   3   3 15994.1 170.251   0
  -2   3   3 17728.6 173.061   3
  -2   3   2 24477.2 204.137   3
  -2   3   2 21922.5 194.057   0
  -2   3   1 709.217 80.0644   0
  -2   3   1 614.257 79.2614   3
  -2   3   0 270.294 80.4763   3
  -2   3   0 280.802 81.5577   0
  -2   3  -1 15256.7 94.7353   1
  -2   3  -1 16710.8 174.216   0
   2  -3   1 15513.0 127.382   2
  -2   3  -1 16643.6 170.188   3
   2  -3   2 1304.08 53.3305   2
  -2   3  -2 1669.70 53.1396   1
  -2   3  -2 1711.03 88.1084   0
  -2   3  -2 1939.46 96.8478   3
  -2   3  -3 3998.59 77.1740   1
  -2   3  -3 3977.12 104.362   0
  -2   3  -4 7458.93 109.671   1
  -2   3  -4 7812.07 134.739   0
   2  -3   4 7308.36 72.2480   2
  -2   3  -5 4295.07 120.774   0
  -2   3  -5 4226.09 101.506   1
   2  -3   5 4303.53 53.3027   2
  -2   3  -6 12112.6 175.895   0
  -2   3  -6 11300.3 150.000   1
  -2   3  -6 12085.4 126.254   4
  -2   3  -7-37.6143 97.9166   0
  -2   3  -7 82.1914 82.1159   1
  -2   3  -8 3498.60 117.517   1
  -2   3  -8 3719.33 139.538   0
  -2   3  -9 7.56090 104.723   0
  -2   3  -9 84.7156 94.0685   1
   2  -3  10-24.8026 149.899   3
  -2   3 -10-2.14159 100.636   1
  -2   3 -10 98.2440 118.090   0
   2  -3  11-99.3290 149.148   3
  -2   3 -11 87.5837 101.069   1
  -2   3 -11 75.1777 124.139   0
   2  -3  12 63.6090 148.909   3
  -2   3 -12 46.1346 105.419   1
  -2   3 -12 74.6531 123.584   0
  -2   3 -13 1038.94 131.548   1
   2  -3  13 1047.28 174.065   3
  -2   3 -13 1231.07 148.069   0
  -2   3 -14 2161.73 154.414   1
  -2   3 -14 1873.20 160.414   0
   2  -3  14 2324.28 202.697   3
   2  -3  15 176.702 182.325   3
  -2   3 -15 317.075 139.337   1
   2  -3  16 101.695 191.814   3
  -2   3 -16-21.2664 136.806   1
   2  -3  17 154.836 191.805   3
  -2   3 -17 32.5667 145.862   1
   2  -3  18 168.032 187.648   3
   2  -2 -17 47.6387 122.023   1
  -2   2  16-46.4747 152.408   3
   2  -2 -16 87.3595 116.830   1
  -2   2  15 491.094 150.614   3
   2  -2 -15 341.764 114.061   1
   2  -2 -14 144.233 98.8449   1
  -2   2  14 149.766 142.020   3
   2  -2 -13 33.5135 99.4606   2
  -2   2  13 126.917 136.226   3
   2  -2 -13 34.0484 91.9266   1
   2  -2 -12 2564.41 121.866   1
  -2   2  12 2578.18 137.364   0
  -2   2  12 2836.64 154.892   3
   2  -2 -11 1039.39 100.776   1
  -2   2  11 1131.91 129.630   3
  -2   2  10 442.590 119.597   3
  -2   2  10 352.438 99.9204   0
   2  -2 -10 378.718 82.8444   1
  -2   2   9 521.180 103.234   3
  -2   2   9 564.713 94.5346   0
   2  -2  -9 501.934 72.5783   1
  -2   2   8 5241.91 122.024   0
   2  -2  -8 5403.13 105.168   1
  -2   2   8 4999.79 128.725   3
  -2   2   7 52.3117 81.0052   3
  -2   2   7 17.0856 74.8818   0
   2  -2  -7 58.2933 53.4089   1
   2  -2  -6 1500.57 56.9528   1
  -2   2   6 1809.25 84.6219   0
  -2   2   5 23618.1 182.896   3
  -2   2   5 22724.4 168.985   0
   2  -2  -4 26398.3 116.154   1
  -2   2   4 24405.6 178.648   0
  -2   2   4 24604.0 190.734   3
  -2   2   3 21163.9 171.073   3
  -2   2   3 20633.7 161.695   0
  -2   2   2 83410.6 289.660   0
  -2   2   2 83141.4 332.171   3
  -2   2   1 3862.20 96.0462   0
  -2   2   1 3174.29 96.0136   3
  -2   2   0 4009.04 92.2228   0
  -2   2   0 3964.92 101.622   3
  -2   2  -1 1713.33 52.2111   1
  -2   2  -1 1516.83 83.5085   0
  -2   2  -1 1743.49 90.9739   3
  -2   2  -2 7204.23 83.0249   1
  -2   2  -2 7065.30 118.985   0
  -2   2  -2 7973.53 129.632   3
  -2   2  -3 925.277 57.3913   1
  -2   2  -3 956.794 84.6158   0
  -2   2  -4 5115.76 91.9243   1
  -2   2  -4 5940.32 126.992   0
  -2   2  -5 109.290 59.6960   1
  -2   2  -5 123.056 87.0303   0
  -2   2  -6 3885.50 101.071   1
  -2   2  -6 4534.43 127.992   0
  -2   2  -7 917.552 82.3810   1
  -2   2  -7 761.174 96.3346   0
  -2   2  -8 1427.43 119.409   0
  -2   2  -8 1355.08 97.2751   1
   2  -2   9 140.502 130.340   3
  -2   2  -9-40.4390 94.0239   1
  -2   2  -9 77.0062 115.478   0
   2  -2  10 80.1863 136.997   3
  -2   2 -10 50.0624 102.945   1
  -2   2 -10-64.5138 125.052   0
   2  -2  11 28.6337 144.521   3
  -2   2 -11 61.3857 104.135   1
  -2   2 -11 4.31785 130.611   0
   2  -2  12 902.707 149.997   3
  -2   2 -12 947.059 140.394   0
  -2   2 -12 1012.54 116.322   1
   2  -2  13 145.391 149.225   3
  -2   2 -13 3.83238 114.340   1
  -2   2 -13 19.0521 133.966   0
   2  -2  14 1281.99 176.901   3
  -2   2 -14 1343.95 144.883   1
  -2   2 -14 1359.10 166.956   0
   2  -2  15 88.9790 177.389   3
  -2   2 -15 312.758 166.840   0
  -2   2 -15 198.613 144.136   1
   2  -2  16-8.25868 149.742   3
  -2   2 -16 25.6625 150.267   1
   2  -2  17 154.980 161.938   3
  -2   2 -17 254.682 163.560   1
   2  -1 -20 1097.82 156.131   1
  -2   1  19 337.709 183.339   3
   2  -1 -19 190.008 136.061   1
  -2   1  18 257.875 163.601   3
   2  -1 -18 232.209 117.430   1
   2  -1 -17 116.848 124.489   1
  -2   1  17 166.198 154.290   3
  -2   1  16 111.772 146.433   3
   2  -1 -16 215.648 118.115   1
   2  -1 -15 468.343 117.361   1
  -2   1  15 632.721 149.356   3
  -2   1  14 93.0400 131.261   3
   2  -1 -14 92.8947 106.580   1
  -2   1  13 2602.20 160.338   3
   2  -1 -13 2337.70 129.937   1
  -2   1  12 993.656 137.786   3
   2  -1 -12 879.891 106.503   1
  -2   1  11 44.1710 91.2574   0
  -2   1  11 101.371 117.705   3
   2  -1 -11-2.87926 102.703   1
  -2   1  10 118.063 72.1000   0
  -2   1  10 312.557 108.661   3
   2  -1 -10 178.712 92.3081   1
   2  -1  -9 1552.25 87.3108   1
  -2   1   9 1163.57 70.6235   0
  -2   1   8 9323.30 160.485   3
   2  -1  -8 8231.21 121.395   1
   2  -1  -7 14155.0 136.808   1
  -2   1   7 13419.5 125.878   0
  -2   1   6 254.392 53.9184   0
   2  -1  -6 264.922 53.3211   1
  -2   1   5 21378.1 180.487   3
  -2   1   5 19934.8 128.690   0
  -2   1   4 4355.12 100.742   3
  -2   1   4 4817.91 99.5777   2
  -2   1   4 4229.09 75.0635   0
  -2   1   3 6280.64 100.566   2
  -2   1   3 5675.73 99.7819   3
  -2   1   2 366915. 2381.43   2
  -2   1   2 364842. 2420.09   3
  -2   1   1 113272. 285.906   0
  -2   1   1 113701. 244.499   1
  -2   1   1 112262. 304.778   2
  -2   1   0 187375. 399.246   0
  -2   1   0 191789. 1450.04   2
  -2   1  -1 1512.28 64.0790   1
  -2   1  -1 1413.72 84.2466   0
  -2   1  -1 1365.58 88.0820   3
  -2   1  -1 1364.21 54.9167   2
  -2   1  -2 3065.76 90.5083   3
  -2   1  -2 2779.97 68.9389   1
  -2   1  -2 2856.58 58.5324   2
  -2   1  -2 3025.52 102.454   0
  -2   1  -3 1510.95 93.8394   0
  -2   1  -3 1694.38 71.0195   1
  -2   1  -3 1461.13 45.0038   2
  -2   1  -4 1320.43 91.1278   0
  -2   1  -4 1550.69 80.0382   1
  -2   1  -4 1427.26 40.8525   2
  -2   1  -5 518.046 75.9661   1
  -2   1  -5 545.881 93.0141   0
  -2   1  -6 4582.04 117.259   1
  -2   1  -6 4746.59 139.213   0
  -2   1  -7 3038.74 112.648   1
  -2   1  -7 3060.98 128.554   0
  -2   1  -8 1615.23 128.826   0
  -2   1  -8 1526.21 103.010   1
  -2   1  -9 1860.05 134.397   0
   2  -1   9 1726.87 130.181   3
  -2   1  -9 1574.00 114.506   1
   2  -1  10 132.094 129.385   3
  -2   1 -10 162.966 124.252   0
  -2   1 -10 14.8718 109.421   1
  -2   1 -11 1447.67 152.774   0
   2  -1  11 1415.82 150.166   3
  -2   1 -11 1364.24 128.665   1
   2  -1  12 269.261 139.215   3
  -2   1 -12 485.860 139.029   0
  -2   1 -12 316.715 121.448   1
   2  -1  13-0.20882 151.457   3
  -2   1 -13-22.8744 129.334   1
   2  -1  14 107.978 157.487   3
  -2   1 -14 74.3725 138.315   1
   2  -1  15-27.1922 139.444   3
  -2   1 -15 30.8718 156.571   1
  -2   1 -16-9.16673 163.405   1
  -2   1 -17 71.1413 165.160   1
  -2   0  20 541.054 178.963   3
   2   0 -20 295.493 142.047   1
  -2   0  19 250.524 176.807   3
   2   0 -19-30.6792 133.429   1
  -2   0  18 645.406 164.073   3
   2   0 -18 396.768 130.943   1
   2   0 -17 144.988 127.217   1
  -2   0  17 193.566 161.193   3
  -2   0  16-21.8571 160.995   3
   2   0 -16 83.5278 122.746   1
   2   0 -15 77.8695 119.831   1
  -2   0  15 38.2474 150.365   3
  -2   0  14 239.083 139.656   3
   2   0 -14 397.827 121.953   1
  -2   0  13 84.0280 137.784   3
   2   0 -13 185.936 109.862   1
  -2   0  12 2219.68 155.489   3
   2   0 -12 2132.46 118.798   1
  -2   0  11 104.944 121.587   3
   2   0 -11 298.321 92.8791   1
   2   0 -10 7052.40 137.292   1
  -2   0  10 6660.54 164.843   3
  -2   0   9 24.3708 54.6669   0
  -2   0   9-48.1419 96.1011   3
   2   0  -9-10.5630 65.3619   1
  -2   0   8 2213.03 109.456   3
   2   0  -8 2343.98 91.6271   1
  -2   0   8 2533.08 91.0688   2
  -2   0   8 2338.96 59.4356   0
   2   0  -7 129.360 69.4036   1
  -2   0   7 155.041 85.4007   3
  -2   0   7 129.120 67.7796   2
  -2   0   7 37.0509 38.9817   0
  -2   0   6 13467.3 161.695   3
   2   0  -6 13046.1 140.456   1
  -2   0   6 13430.1 144.880   2
  -2   0   5 6594.30 123.297   3
  -2   0   5 6249.00 107.745   2
  -2   0   4 6965.70 119.495   3
  -2   0   4 6780.15 108.284   2
  -2   0   3 2171.24 84.2236   3
  -2   0   3 1812.81 76.1505   2
  -2   0   2 1509.87 76.7990   1
  -2   0   2 1596.64 71.1777   3
  -2   0   2 1227.67 75.0709   2
  -2   0   2 1503.88 54.4402   0
  -2   0   1 166806. 383.576   1
  -2   0   1 167358. 327.314   0
  -2   0   1 167446. 370.024   3
  -2   0   1 162194. 416.039   2
  -2   0   0 999999. 3562.54   3
  -2   0   0 999104. 3831.46   1
  -2   0   0 977291. 3702.78   0
  -2   0   0 982411. 3804.25   2
  -2   0  -1 479451. 2518.02   3
  -2   0  -1 473693. 2801.85   1
  -2   0  -1 478912. 2598.99   2
  -2   0  -1 478310. 2884.62   0
  -2   0  -2 10344.6 133.273   1
  -2   0  -2 9872.42 107.545   3
  -2   0  -2 9723.65 140.669   0
  -2   0  -2 9997.33 107.604   2
  -2   0  -3 5937.49 108.075   1
  -2   0  -3 6736.48 133.455   0
  -2   0  -3 6022.08 83.1970   2
  -2   0  -4 3359.36 90.1867   1
  -2   0  -4 3245.11 68.6298   2
  -2   0  -4 3641.19 114.967   0
  -2   0  -5 7219.33 148.209   0
  -2   0  -5 6923.29 121.743   1
  -2   0  -5 6071.96 84.7212   2
  -2   0  -6 1514.74 60.9420   2
  -2   0  -6 1555.97 111.734   0
  -2   0  -6 1510.26 88.4135   1
   2   0   7 228.667 83.4818   3
  -2   0  -7 243.567 80.7209   1
  -2   0  -7 383.373 109.525   0
  -2   0  -8 1867.01 141.990   0
  -2   0  -8 2047.79 109.957   1
   2   0   8 1968.22 116.057   3
  -2   0  -9 893.170 143.423   0
  -2   0  -9 925.523 114.813   1
   2   0   9 748.513 113.635   3
   2   0  10 49.3554 121.756   3
  -2   0 -10 99.1455 106.548   1
   2   0  11 229.362 140.584   3
  -2   0 -11 90.0024 109.897   1
   2   0  12 1482.50 143.842   3
  -2   0 -12 1492.39 139.236   1
  -2   0 -13 343.257 129.263   1
  -2   0 -14 155.658 133.418   1
  -2   0 -15-41.2877 141.207   1
  -2   0 -16 129.807 130.351   1
  -2   0 -17 140.208 154.540   1
  -2  -1  20 46.8971 174.631   3
   2   1 -20 40.2775 142.138   1
  -2  -1  19 90.5023 157.732   3
   2   1 -19 210.586 121.553   1
  -2  -1  18 214.109 167.832   3
   2   1 -18 376.462 141.554   1
  -2  -1  17-33.0173 165.345   3
   2   1 -17-43.5963 140.384   1
  -2  -1  16-25.1137 154.006   3
   2   1 -16 159.930 133.741   1
  -2  -1  15 196.665 143.252   3
   2   1 -15 9.65556 113.009   1
  -2  -1  14 2328.80 158.230   3
   2   1 -14 2391.40 129.932   1
  -2  -1  13 231.181 146.740   3
   2   1 -13 414.078 104.762   1
   2   1 -12 861.730 101.543   1
  -2  -1  12 866.941 138.364   3
  -2  -1  11 87.9832 123.038   3
  -2  -1  11 54.2840 76.4335   2
   2   1 -11 109.330 89.1818   1
  -2  -1  10 64.2306 107.339   3
  -2  -1  10-6.55738 78.9542   2
   2   1 -10 85.8206 87.8952   1
   2   1  -9 3387.31 118.098   1
  -2  -1   9 2814.02 124.901   3
  -2  -1   9 2810.56 96.2852   2
   2   1  -8 11722.9 166.445   1
  -2  -1   8 11544.9 145.795   2
  -2  -1   7 1220.29 93.8601   3
   2   1  -7 1268.47 87.4291   1
  -2  -1   7 1533.97 83.9888   2
  -2  -1   6 57.7835 79.3990   3
  -2  -1   6 64.3270 65.6381   2
  -2  -1   5 1196.70 83.0719   3
  -2  -1   5 1366.47 79.6890   2
  -2  -1   4 6317.06 110.482   3
  -2  -1   4 6992.29 117.442   2
  -2  -1   3 69.7103 71.8881   3
  -2  -1   3 72.0924 69.0337   2
  -2  -1   2 5341.42 85.5284   3
  -2  -1   2 5729.88 105.742   2
  -2  -1   2 5685.04 111.560   1
  -2  -1   1 8292.30 122.344   1
  -2  -1   1 8306.26 89.3216   3
  -2  -1   1 8773.37 118.097   2
  -2  -1   0 132.921 45.4936   3
  -2  -1   0 111.701 67.3639   1
  -2  -1   0 122.747 67.3808   2
  -2  -1  -1 1654.81 81.5057   1
  -2  -1  -1 1666.91 77.8132   2
  -2  -1  -1 1745.31 53.7315   3
  -2  -1  -2 17369.2 174.623   1
  -2  -1  -2 17133.7 159.228   2
  -2  -1  -2 16904.8 108.151   3
  -2  -1  -3 69127.9 343.888   1
  -2  -1  -3 65673.8 295.290   2
  -2  -1  -4 12575.8 166.373   1
  -2  -1  -4 12288.5 141.888   2
  -2  -1  -5 3829.10 109.960   1
  -2  -1  -5 3745.17 98.3947   2
  -2  -1  -6 12146.0 170.367   1
   2   1   6 12053.2 131.523   3
  -2  -1  -7 1850.16 82.7105   2
  -2  -1  -7 2150.32 106.868   1
   2   1   7 2344.09 100.227   3
   2   1   8 3750.53 120.602   3
  -2  -1  -8 3712.48 127.674   1
  -2  -1  -9 2505.05 116.902   1
  -2  -1 -10 637.135 98.1617   1
  -2  -1 -11 929.177 114.619   1
  -2  -1 -12 332.946 116.381   1
  -2  -1 -13 46.5225 121.778   1
  -2  -1 -14 290.977 128.604   1
  -2  -1 -15 110.679 137.032   1
  -2  -1 -16 191.254 120.730   1
  -2  -1 -17 99.3513 145.368   1
  -2  -2  19 88.3002 154.487   3
   2   2 -19 136.408 129.560   1
   2   2 -18 1064.77 177.932   1
  -2  -2  18 565.084 173.674   3
   2   2 -17 199.735 139.532   1
  -2  -2  17 174.964 161.756   3
  -2  -2  16 14.7776 157.957   3
   2   2 -16 193.877 125.290   1
   2   2 -15 967.959 123.889   1
  -2  -2  15 846.286 158.078   3
  -2  -2  14-9.87148 143.002   3
   2   2 -14 10.0477 101.636   1
  -2  -2  13 425.445 145.178   3
   2   2 -13 564.753 112.184   1
   2   2 -12 335.465 115.129   1
  -2  -2  12 220.992 140.432   3
  -2  -2  11 323.695 135.314   3
  -2  -2  11 246.681 74.6870   2
   2   2 -11 341.964 103.735   1
   2   2 -10 2257.51 132.425   1
  -2  -2  10 2265.56 141.150   3
  -2  -2  10 2390.51 99.0493   2
   2   2  -9 49.6048 93.7124   1
  -2  -2   9-20.3738 111.530   3
  -2  -2   9 53.9842 75.7665   2
   2   2  -8 19.0238 84.5982   1
  -2  -2   8 40.4507 105.185   3
  -2  -2   8 46.0246 71.4410   2
  -2  -2   7 2977.46 117.545   3
  -2  -2   7 3353.29 104.732   2
  -2  -2   6 553.507 90.4600   3
  -2  -2   6 422.377 74.4916   2
  -2  -2   5 10340.6 141.362   3
   2   2  -5 10993.9 78.6171   0
  -2  -2   5 11447.9 148.400   2
  -2  -2   4 1026.89 79.8317   2
  -2  -2   4 906.399 75.8129   3
   2   2  -4 925.690 47.3667   0
  -2  -2   3 5833.92 95.7140   3
  -2  -2   3 6181.06 114.852   2
  -2  -2   2 165.749 58.0604   3
  -2  -2   2 157.475 76.2822   1
  -2  -2   1 698.615 81.6030   1
  -2  -2   1 751.784 48.2071   3
  -2  -2   1 845.918 78.0235   2
  -2  -2   0 102.725 68.5419   1
  -2  -2   0 61.0931 34.9265   3
  -2  -2   0 60.1500 74.0217   2
  -2  -2  -1 5001.70 116.921   1
  -2  -2  -1 5181.10 118.503   2
  -2  -2  -2 27.5741 71.3412   1
  -2  -2  -2 140.883 77.4126   2
  -2  -2  -3 53451.3 318.133   1
  -2  -2  -3 51662.1 302.212   2
  -2  -2  -4 3867.08 114.186   1
  -2  -2  -4 3853.46 114.282   2
  -2  -2  -5 7221.22 150.558   1
  -2  -2  -5 6658.48 134.165   2
  -2  -2  -6 3154.78 124.225   1
  -2  -2  -6 3180.27 113.139   2
  -2  -2  -7 57.7598 96.0902   1
  -2  -2  -7 69.2766 75.4001   2
  -2  -2  -8-37.2741 97.9223   1
  -2  -2  -8 98.2535 84.3194   2
  -2  -2  -9-72.1342 104.024   1
  -2  -2 -10-45.1498 99.6919   1
  -2  -2 -11 557.318 118.476   1
  -2  -2 -12 130.722 125.216   1
  -2  -2 -13 176.501 136.555   1
  -2  -2 -14-4.46637 139.733   1
  -2  -2 -15 65.8568 127.983   1
  -2  -2 -16-2.95355 142.337   1
  -2  -3  19-82.7365 174.879   3
   2   3 -19 46.6691 160.905   1
  -2  -3  18 359.751 176.673   3
   2   3 -18 151.853 128.954   1
  -2  -3  17-26.2476 170.588   3
   2   3 -17 24.5859 136.814   1
  -2  -3  16-1.08649 164.164   3
   2   3 -16-14.4197 128.796   1
  -2  -3  15 96.5331 157.283   3
   2   3 -15 98.7517 121.109   1
  -2  -3  14 114.348 151.361   3
   2   3 -14 239.016 113.183   1
   2   3 -13 291.809 115.708   1
  -2  -3  13 322.558 149.114   3
  -2  -3  12 11604.2 241.853   3
   2   3 -12 11468.6 219.075   1
   2   3 -12 12474.1 138.302   4
  -2  -3  11 4519.21 182.013   3
   2   3 -11 4754.98 177.915   1
  -2  -3  11 4562.69 131.414   2
   2   3 -11 4552.97 106.005   4
   2   3 -10 1538.08 126.724   1
  -2  -3  10 1780.23 148.753   3
  -2  -3  10 1776.51 100.257   2
   2   3 -10 1829.65 83.8972   4
  -2  -3   9 1238.77 102.128   2
  -2  -3   9 1342.52 134.461   3
   2   3  -9 1438.97 80.2824   4
   2   3  -9 1018.11 115.026   1
  -2  -3   8 470.386 118.206   3
   2   3  -8 474.213 96.4592   1
  -2  -3   8 582.941 84.7079   2
   2   3  -8 654.138 74.8422   4
  -2  -3   7 7893.29 162.360   3
  -2  -3   7 8467.81 147.301   2
  -2  -3   6 22.7437 94.8769   3
  -2  -3   6 63.9527 76.3000   2
  -2  -3   5 8307.33 142.018   3
   2   3  -5 8863.19 107.112   0
  -2  -3   5 8677.60 142.965   2
  -2  -3   4 1192.48 79.6924   3
   2   3  -4 1044.13 57.9007   0
  -2  -3   4 1359.22 88.4001   2
   2   3  -3 2589.54 85.9498   0
  -2  -3   3 2741.80 102.086   2
  -2  -3   2 10792.5 168.755   1
  -2  -3   2 10901.8 165.782   2
   2   3  -2 10120.4 135.935   0
  -2  -3   2 9944.93 107.600   3
  -2  -3   1 2583.84 61.5920   3
  -2  -3   1 3008.30 115.086   1
  -2  -3   1 2833.50 110.654   2
   2   3  -1 2934.76 105.356   0
  -2  -3   0 4728.46 125.368   1
  -2  -3   0 4607.88 126.196   2
  -2  -3  -1 1257.92 92.3762   1
  -2  -3  -1 1174.48 96.7440   2
  -2  -3  -2 214.610 84.9301   1
  -2  -3  -2 205.440 91.7407   2
  -2  -3  -3 3404.38 120.303   1
  -2  -3  -3 3304.98 126.032   2
  -2  -3  -4 1177.10 102.657   1
  -2  -3  -4 1176.91 105.659   2
  -2  -3  -5 5622.17 144.545   1
  -2  -3  -5 5190.55 142.784   2
  -2  -3  -6 3887.22 138.220   1
  -2  -3  -6 3511.77 131.189   2
  -2  -3  -7 202.686 104.726   1
  -2  -3  -7 242.720 106.311   2
  -2  -3  -8 1979.74 123.975   1
  -2  -3  -8 1784.48 114.878   2
  -2  -3  -9 6770.75 183.754   1
  -2  -3 -10 71.4145 114.979   1
  -2  -3 -11 2625.68 162.364   1
  -2  -3 -12 214.606 132.782   1
  -2  -3 -13 168.704 145.030   1
  -2  -3 -14-46.0493 143.731   1
  -2  -3 -15-6.44886 146.036   1
  -2  -4  18 35.2379 186.459   3
   2   4 -18 144.574 150.213   1
  -2  -4  17 333.582 175.320   3
   2   4 -17 273.722 146.747   1
  -2  -4  16 235.385 173.721   3
   2   4 -16 343.288 137.638   1
  -2  -4  15 151.963 166.167   3
   2   4 -15 77.5835 128.419   1
  -2  -4  14 121.570 152.727   3
   2   4 -14 67.5514 125.499   1
   2   4 -13 129.632 121.976   1
   2   4 -13 196.509 83.4005   4
  -2  -4  13 249.800 152.038   3
   2   4 -12 65.5263 127.178   1
   2   4 -12 89.3680 80.0674   4
  -2  -4  12 95.2241 136.441   3
  -2  -4  11 3981.23 172.156   3
   2   4 -11 4393.58 173.723   1
  -2  -4  10 15406.1 253.948   3
   2   4 -10 15736.7 246.000   1
  -2  -4  10 16797.0 220.396   2
  -2  -4   9 2005.72 150.631   3
  -2  -4   9 2210.80 116.396   2
   2   4  -9 2041.17 140.500   1
   2   4  -9 1567.31 87.0140   4
   2   4  -8 180.111 76.0930   4
  -2  -4   8 268.209 126.729   3
  -2  -4   8 118.612 98.9644   2
  -2  -4   7 5700.18 157.682   3
  -2  -4   7 5787.52 146.915   2
  -2  -4   6 953.838 115.389   3
  -2  -4   6 784.813 98.5004   2
   2   4  -5 4785.19 111.425   0
  -2  -4   5 4850.53 134.770   2
  -2  -4   4 834.365 85.5049   3
   2   4  -4 956.281 85.7678   0
  -2  -4   4 975.156 102.120   2
   2   4  -3 583.815 94.6205   0
  -2  -4   3 668.271 111.051   2
   2   4  -2 17.9129 96.6722   0
  -2  -4   2 27.1479 103.556   2
  -2  -4   1 2971.93 134.621   1
   2   4  -1 2941.57 124.360   0
  -2  -4   1 2615.05 123.293   2
   2   4   0 88.1571 113.118   0
  -2  -4   0-28.6924 102.462   1
  -2  -4   0 48.5094 99.0622   2
  -2  -4  -1 1357.02 118.002   1
  -2  -4  -1 1331.45 114.408   2
   2   4   1 1442.71 131.393   0
   2   4   2 50.6395 122.252   0
  -2  -4  -2-39.7159 88.9409   1
  -2  -4  -2-34.8094 105.825   2
  -2  -4  -3 3626.30 144.397   2
  -2  -4  -3 3548.54 137.375   1
  -2  -4  -4 406.966 106.474   1
  -2  -4  -4 464.338 119.050   2
  -2  -4  -5 518.062 106.544   1
  -2  -4  -5 681.016 120.780   2
  -2  -4  -6 272.224 97.1975   1
  -2  -4  -6 267.629 111.945   2
  -2  -4  -7 1338.84 118.024   1
  -2  -4  -7 1686.61 127.163   2
  -2  -4  -8 4.83065 99.2661   1
  -2  -4  -8 111.479 106.563   2
  -2  -4  -9 673.894 125.965   1
  -2  -4  -9 687.155 121.094   2
  -2  -4 -10 53.5135 116.767   1
  -2  -4 -11 3330.77 167.340   1
  -2  -4 -12 482.964 130.323   1
  -2  -4 -13-107.450 135.089   1
  -2  -4 -14 113.700 132.723   1
  -2  -5  17 102.293 184.679   3
   2   5 -17 84.1805 147.369   1
  -2  -5  16 472.192 182.091   3
   2   5 -16 554.878 148.151   1
  -2  -5  15 179.651 169.585   3
   2   5 -15 166.444 139.498   1
   2   5 -14 110.935 88.1382   4
   2   5 -14 50.2464 134.192   1
  -2  -5  14 211.714 164.912   3
   2   5 -13 26.6280 139.800   1
  -2  -5  13 171.035 153.105   3
   2   5 -13-21.4894 95.5380   4
   2   5 -12 264.510 142.111   1
  -2  -5  12 297.477 150.213   3
   2   5 -12 98.0359 98.3158   4
   2   5 -11 261.931 123.860   1
  -2  -5  11 180.441 143.951   3
   2   5 -11 224.537 95.6375   4
   2   5 -10 238.935 92.6044   4
  -2  -5  10 233.280 130.829   3
   2   5 -10 253.798 121.278   1
  -2  -5  10 127.871 101.665   2
   2   5  -9 55.4855 110.259   1
  -2  -5   9 208.858 123.598   3
   2   5  -9 126.451 89.7221   4
  -2  -5   9 85.3505 101.856   2
  -2  -5   8 3727.27 158.247   3
  -2  -5   8 4276.19 147.913   2
   2   5  -8 4514.61 124.434   4
  -2  -5   7 2337.01 131.305   3
  -2  -5   7 2345.46 129.462   2
  -2  -5   6 2019.53 131.067   2
  -2  -5   5 1363.35 122.872   2
   2   5  -4 111.337 99.6477   0
  -2  -5   4-44.8154 114.176   2
   2   5  -3 289.550 98.8789   0
  -2  -5   3 299.152 118.378   2
   2   5  -2 1187.05 124.716   0
  -2  -5   2 1164.60 131.370   2
   2   5  -1 64.4734 127.133   0
  -2  -5   1 44.8917 116.077   2
  -2  -5   0 95.2922 118.531   1
  -2  -5   0 199.990 122.245   2
   2   5   0 160.842 128.423   0
  -2  -5  -1 1366.92 131.176   1
   2   5   1 1346.39 144.214   0
  -2  -5  -1 1489.98 135.483   2
  -2  -5  -2 600.570 119.983   1
   2   5   2 648.953 143.963   0
  -2  -5  -2 652.679 128.387   2
   2   5   3 786.379 144.327   0
  -2  -5  -3 801.214 110.143   1
  -2  -5  -3 734.117 128.798   2
   2   5   4 202.827 140.803   0
  -2  -5  -4 72.9936 107.267   1
  -2  -5  -4 207.800 118.493   2
  -2  -5  -5 976.340 115.595   1
  -2  -5  -5 1148.88 136.333   2
   2   5   5 940.933 161.732   0
  -2  -5  -6 44.1297 124.898   2
  -2  -5  -6 172.277 115.725   1
   2   5   6-82.0105 157.915   0
  -2  -5  -7 565.760 120.246   1
   2   5   7 600.154 174.899   0
  -2  -5  -7 715.418 137.673   2
   2   5   8 784.551 182.934   0
  -2  -5  -8 495.195 126.629   1
  -2  -5  -8 642.020 136.923   2
   2   5   9 402.566 188.781   0
  -2  -5  -9 408.356 121.607   1
  -2  -5  -9 430.273 121.356   2
  -2  -5 -10-16.2025 102.982   1
   2   5  10 160.552 193.339   0
   2   5  11 744.209 203.299   0
  -2  -5 -11 437.510 128.887   1
  -2  -5 -12 27.2962 127.770   1
   2   5  12 146.858 207.659   0
  -2  -6  16 62.9721 154.199   3
   2   6 -16 108.915 149.859   1
   2   6 -15 421.075 156.261   1
  -2  -6  15 210.475 152.344   3
   2   6 -15 505.660 111.585   4
   2   6 -14 706.903 159.295   1
  -2  -6  14 542.689 161.437   3
   2   6 -14 876.199 116.065   4
   2   6 -13 287.057 150.342   1
  -2  -6  13 395.378 152.878   3
   2   6 -13 432.140 109.644   4
   2   6 -12-33.5875 104.792   4
  -2  -6  12-23.4528 124.428   3
   2   6 -12-73.7475 151.109   1
   2   6 -11 75.4693 133.706   1
   2   6 -11-67.2396 105.130   4
  -2  -6  11 69.0491 126.485   3
   2   6 -10-75.4186 128.441   1
   2   6 -10 47.5581 105.317   4
  -2  -6  10 46.5622 137.621   3
   2   6  -9 19.9407 102.390   4
   2   6  -9 67.5645 121.893   1
  -2  -6   9 112.241 116.825   2
  -2  -6   8 462.829 121.362   2
   2   6  -8 455.217 102.814   4
  -2  -6   7 2600.49 144.718   2
  -2  -6   6 302.196 115.524   2
  -2  -6   5 6609.42 187.038   2
  -2  -6   4 8946.14 213.540   2
   2   6  -3-10.6767 114.290   0
  -2  -6   3-20.9210 130.539   2
   2   6  -2 4206.99 149.862   0
  -2  -6   2 4403.68 180.049   2
   2   6  -1 809.549 128.738   0
  -2  -6   1 597.972 129.468   2
   2   6   0 0.57734 134.237   0
  -2  -6   0-31.8390 119.137   2
   2   6   1 165.002 134.876   0
  -2  -6  -1 266.551 131.387   2
  -2  -6  -1 194.269 125.334   1
  -2  -6  -2 109.769 121.550   1
   2   6   2 17.1233 147.173   0
  -2  -6  -2 136.807 138.900   2
   2   6   3 286.289 164.028   0
  -2  -6  -3 334.532 125.030   1
  -2  -6  -3 328.716 143.346   2
   2   6   4 529.644 172.539   0
  -2  -6  -4 738.125 123.999   1
  -2  -6  -4 799.333 152.397   2
   2   6   5 169.798 167.369   0
  -2  -6  -5 166.142 119.828   1
  -2  -6  -5 238.140 151.516   2
  -2  -6  -6 310.115 120.503   1
   2   6   6 284.975 183.235   0
  -2  -6  -6 397.254 145.845   2
  -2  -6  -7 168.880 122.893   1
   2   6   7 106.625 185.929   0
  -2  -6  -7 52.1650 149.780   2
  -2  -6  -8 51.8753 122.953   2
   2   6   8 67.0365 160.496   0
   2   6   9-15.6019 193.366   0
  -2  -6  -9-15.5913 148.758   2
   2   6  10 558.453 211.806   0
   2   7 -16 105.816 123.757   4
   2   7 -15 242.442 115.973   4
  -2  -7  15 116.046 183.464   3
   2   7 -14 23.4874 119.197   4
   2   7 -14 100.338 157.963   1
   2   7 -13-131.311 161.123   1
   2   7 -13-50.7280 120.904   4
   2   7 -12 205.286 115.882   4
   2   7 -12 356.667 162.969   1
   2   7 -11 23.0928 113.967   4
   2   7 -11 60.7243 138.094   1
   2   7 -10 146.443 140.995   1
   2   7 -10 185.919 115.952   4
   2   7  -9 275.208 112.356   4
   2   7  -9 164.856 122.677   1
  -2  -7   9 306.376 127.416   2
   2   7  -8 106.772 114.704   4
  -2  -7   8 17.1343 126.643   2
  -2  -7   7-35.7369 129.343   2
  -2  -7   6 83.7426 125.463   2
  -2  -7   5 259.749 134.867   2
  -2  -7   4 68.4102 135.665   2
  -2  -7   3 1057.53 159.908   2
  -2  -7   2 2800.72 186.041   2
   2   7  -1 3474.76 176.196   0
  -2  -7   1 3303.40 194.563   2
   2   7   0 191.729 144.114   0
  -2  -7   0 11.3590 150.297   2
   2   7   1 384.675 167.111   0
  -2  -7  -1 450.991 155.648   2
   2   7   2 26.7805 164.758   0
  -2  -7  -2 43.8385 128.274   1
  -2  -7  -2 46.6154 157.758   2
   2   7   3-18.9769 166.714   0
  -2  -7  -3-21.3439 164.454   2
   2   7   4 1382.71 188.252   0
  -2  -7  -4 1089.81 177.046   2
   2   7   5 218.041 187.556   0
  -2  -7  -5 55.8285 161.021   2
   2   7   6 234.878 160.328   0
  -2  -7  -6 87.5113 167.543   2
  -2  -7  -7 97.1312 143.493   2
   2   7   7 247.789 179.723   0
  -2  -7  -8 241.817 174.601   2
  -2  -7  -9 66.8196 177.942   2
   2   8 -16 111.206 124.000   4
   2   8 -15 27.6807 132.247   4
   2   8 -14 550.233 140.614   4
   2   8 -13-83.6021 128.171   4
   2   8 -12 468.698 157.022   1
   2   8 -12 326.358 135.669   4
   2   8 -11 43.2025 132.344   4
   2   8 -11-80.6061 144.049   1
   2   8 -10 274.299 133.150   4
   2   8 -10 236.330 148.816   1
   2   8  -9 18.3269 122.004   4
   2   8  -9 43.1445 142.484   1
   2   8  -8 223.473 124.044   4
  -2  -8   8 216.501 140.950   2
   2   8  -7-9.76341 123.214   4
  -2  -8   7 81.6627 133.588   2
  -2  -8   6 144.680 143.287   2
  -2  -8   5 83.7094 146.996   2
  -2  -8   4-42.9131 155.109   2
  -2  -8   3 61.3452 162.971   2
  -2  -8   2 601.562 162.228   2
  -2  -8   1 404.639 147.950   2
   2   8   0 141.086 160.811   0
  -2  -8   0-7.37327 167.895   2
   2   8   1 318.481 163.915   0
  -2  -8  -1 400.106 172.654   2
   2   8   2 75.5320 174.098   0
  -2  -8  -2-39.1742 167.549   2
   2   8   3-65.2880 177.154   0
  -2  -8  -3 50.9672 167.723   2
   2   8   4-18.0950 188.135   0
  -2  -8  -4 5.69988 178.970   2
   2   9 -17 68.0883 139.476   4
   2   9 -16 541.571 130.424   4
   2   9 -15 21.6998 141.914   4
   2   9 -14 957.686 158.492   4
   2   9 -13 63.7436 140.775   4
   2   9 -12 715.426 153.099   4
   2   9 -11 81.2237 146.133   4
   2   9 -10 138.050 145.439   4
   2   9  -9 12.2835 139.381   4
   2   9  -8 65.3044 139.197   4
   2   9  -7 596.984 142.717   4
  -2  -9   7 705.405 163.338   2
   2   9  -6 170.044 139.229   4
  -2  -9   6 287.270 155.160   2
  -2  -9   5 345.371 160.451   2
   2  10 -17 37.0560 138.360   4
   2  10 -16-6.88269 139.106   4
   2  10 -15 75.5357 141.085   4
   2  10 -14 513.335 147.637   4
   2  10 -13 175.666 148.873   4
   2  10 -12 257.473 149.754   4
   2  10 -11-36.0027 155.410   4
   2  10 -10 37.1436 154.473   4
   2  10  -9-107.355 152.246   4
   2  10  -8 23.9447 146.912   4
   2  10  -7 200.585 154.742   4
   2  10  -6 518.903 157.214   4
   2  10  -5 144.586 155.868   4
   2  11 -12 73.7769 145.947   4
   2  11 -11-24.2575 134.650   4
   2  11 -10-49.6431 132.635   4
   2  11  -9-73.3482 136.675   4
   2  11  -8 76.3994 146.874   4
   2  11  -7 39.0536 155.600   4
   2  11  -6 194.154 156.703   4
   2  11  -5 128.434 159.949   4
   2  11  -4 35.1188 156.464   4
   2  11  -3 198.944 158.831   4
  -3  13  -4 351.878 126.768   4
  -3  13  -5 210.503 125.607   4
  -3  13  -6 374.128 136.717   4
  -3  13  -7 189.230 133.600   4
  -3  12  -2 42.9936 121.753   4
  -3  12  -3-15.8520 101.710   4
  -3  12  -4 293.663 107.955   4
  -3  12  -5 83.8178 125.704   4
  -3  12  -6 110.794 129.013   4
  -3  12  -7 312.076 130.417   4
  -3  12  -8 58.5857 134.522   4
  -3  12  -9 14.0184 133.473   4
  -3  12 -10 164.236 141.320   4
  -3  12 -11 64.2530 142.044   4
  -3  12 -12 184.492 141.243   4
  -3  11  -1 359.291 125.276   4
  -3  11  -2 130.914 100.291   4
  -3  11  -3 427.455 133.866   4
  -3  11  -4 31.4539 123.293   4
  -3  11  -5 158.520 119.471   4
  -3  11  -6 281.325 126.323   4
  -3  11  -7 219.740 124.417   4
  -3  11  -8-9.24328 121.728   4
  -3  11  -9 37.1010 135.534   4
  -3  11 -10-58.0630 134.943   4
  -3  11 -11 65.1937 138.823   4
  -3  11 -12-62.1713 141.482   4
  -3  11 -13 143.092 142.206   4
  -3  11 -14 378.858 149.073   4
  -3  11 -15 142.106 144.359   4
   3 -10  -3-26.9104 163.169   2
  -3  10   2 259.433 169.881   0
   3 -10  -2 240.566 161.562   2
  -3  10   1 597.660 175.799   0
   3 -10  -1 438.904 163.299   2
  -3  10   0 80.0344 111.280   4
   3 -10   0-11.5039 150.308   2
  -3  10   0 73.4653 160.082   0
  -3  10  -1 438.215 120.670   4
  -3  10  -1 421.445 158.804   0
   3 -10   1 511.953 155.275   2
  -3  10  -2 90.2183 114.884   4
  -3  10  -2 107.670 156.172   0
  -3  10  -3-65.7818 118.852   4
  -3  10  -3 2.89265 159.593   0
  -3  10  -4 198.364 114.029   4
  -3  10  -4 291.320 157.666   0
  -3  10  -5 92.1594 115.381   4
  -3  10  -5-117.063 163.397   0
  -3  10  -6 211.801 118.653   4
  -3  10  -6 309.190 170.094   0
  -3  10  -7 411.276 116.565   4
  -3  10  -7 350.584 164.877   0
  -3  10  -8 126.519 120.282   4
  -3  10  -9 58.8471 124.517   4
  -3  10 -10 107.351 129.830   4
  -3  10 -11 28.5627 131.176   4
  -3  10 -12 105.544 136.421   4
  -3  10 -13 192.524 139.973   4
  -3  10 -14 192.062 141.031   4
  -3  10 -15 998.451 137.909   4
   3  -9  -8 98.7372 170.652   2
  -3   9   8 205.445 180.611   0
   3  -9  -7 117.836 164.345   2
  -3   9   7 26.1671 173.494   0
   3  -9  -6 154.113 160.653   2
  -3   9   6-118.519 176.851   0
  -3   9   5-12.1261 172.792   0
   3  -9  -5 2.23788 124.828   2
   3  -9  -4 368.919 150.590   2
  -3   9   4 262.148 172.277   0
   3  -9  -3 100.803 146.828   2
  -3   9   3 226.342 156.061   0
   3  -9  -2 92.4898 142.030   2
  -3   9   2-5.18055 158.263   0
   3  -9  -1 237.050 143.271   2
  -3   9   1 602.300 159.991   0
  -3   9   1 583.788 106.614   4
  -3   9   0 79.2248 100.192   4
   3  -9   0 68.8835 134.812   2
  -3   9   0 170.938 167.336   0
   3  -9   1 145.904 122.277   2
  -3   9  -1 105.722 107.384   4
  -3   9  -1 189.728 159.839   0
  -3   9  -2 163.799 106.889   4
  -3   9  -2 49.3715 160.642   0
   3  -9   2-49.7392 133.961   2
  -3   9  -3-66.0191 162.452   0
  -3   9  -3-37.0423 103.430   4
  -3   9  -4 25.0069 98.6466   4
  -3   9  -4-69.3621 141.391   0
  -3   9  -5 22.5692 100.126   4
  -3   9  -5 99.1593 159.244   0
  -3   9  -6 115.794 102.279   4
  -3   9  -6 58.9928 152.197   0
  -3   9  -7 586.221 108.903   4
  -3   9  -7 731.462 155.650   0
  -3   9  -8 472.427 114.280   4
  -3   9  -8 511.420 158.023   0
  -3   9  -9 435.780 118.002   4
  -3   9  -9 293.037 155.763   0
   3  -9   9 316.577 193.288   3
  -3   9 -10-12.9809 119.253   4
   3  -9  10 101.414 193.151   3
  -3   9 -11 77.1484 125.274   4
   3  -9  11-7.41302 197.697   3
  -3   9 -12-19.4955 128.831   4
  -3   9 -13 195.792 133.254   4
  -3   9 -14 265.718 138.193   4
   3  -8 -11 61.5756 147.474   2
  -3   8  11 160.372 179.151   0
   3  -8 -10-18.6125 133.874   2
  -3   8  10-70.1215 175.886   0
   3  -8  -9 42.5981 132.675   2
  -3   8   9-10.0205 166.386   0
   3  -8  -8 193.202 128.965   2
  -3   8   8 61.9327 163.899   0
   3  -8  -7 44.8683 120.069   2
  -3   8   7-49.0114 160.036   0
   3  -8  -6 96.0328 123.260   2
  -3   8   6-38.9374 159.053   0
   3  -8  -5 8.70112 123.413   2
  -3   8   5-7.21313 161.480   0
   3  -8  -4-14.1241 110.229   2
  -3   8   4 64.5162 155.888   0
   3  -8  -3 227.020 120.270   2
  -3   8   3 166.731 152.781   0
   3  -8  -2 118.877 119.109   2
  -3   8   2 130.865 139.457   0
   3  -8  -1 331.949 122.279   2
  -3   8   1 320.684 143.848   0
  -3   8   1 287.883 85.8243   4
   3  -8   0 217.098 120.537   2
  -3   8   0 222.367 81.0489   4
  -3   8   0 308.240 151.282   0
   3  -8   1 550.170 122.466   2
  -3   8  -1 623.807 152.292   0
  -3   8  -1 743.470 100.380   4
   3  -8   2-17.3279 116.081   2
  -3   8  -2-7.65453 91.8869   4
  -3   8  -2 182.045 154.453   0
  -3   8  -3 1224.93 165.351   0
  -3   8  -3 933.832 101.999   4
  -3   8  -4 145.682 95.9621   4
  -3   8  -4-11.3256 136.698   0
  -3   8  -5 450.532 147.207   0
  -3   8  -5 614.339 99.2079   4
  -3   8  -6 15.2096 90.5044   4
  -3   8  -6 48.8013 143.611   0
  -3   8  -7 47.6718 96.1705   4
  -3   8  -7-16.6415 142.970   0
  -3   8  -8 28.3217 101.830   4
  -3   8  -8 195.828 154.386   0
  -3   8  -9 381.428 109.483   4
  -3   8  -9 221.412 124.614   0
  -3   8 -10 9.78560 104.560   4
  -3   8 -10-70.5231 154.549   0
   3  -8  11 69.9847 195.621   3
  -3   8 -11 101.454 110.080   4
   3  -8  12 10.5426 207.107   3
  -3   8 -12 204.158 119.436   4
  -3   8 -13 132.416 123.549   4
  -3   7  14 1093.03 186.820   0
   3  -7 -14 989.092 148.483   2
  -3   7  13 1691.11 188.724   0
   3  -7 -13 829.631 123.074   2
   3  -7 -12 93.4388 140.252   2
  -3   7  12 117.754 148.453   0
   3  -7 -11 167.366 136.289   2
  -3   7  11 495.894 172.223   0
   3  -7 -10 222.438 135.440   2
  -3   7  10 385.094 164.184   0
   3  -7  -9 103.864 138.256   2
  -3   7   9 172.198 163.301   0
   3  -7  -8-5.37708 135.456   2
  -3   7   8 138.277 160.999   0
   3  -7  -7 306.176 134.593   2
  -3   7   7 357.687 147.352   0
   3  -7  -6 1.84243 122.850   2
  -3   7   6-100.250 140.441   0
   3  -7  -5-168.814 119.856   2
  -3   7   5 27.8757 136.888   0
   3  -7  -4-40.2530 108.959   2
  -3   7   4 58.7602 136.942   0
   3  -7  -3 488.629 109.218   2
  -3   7   3 758.684 138.673   0
   3  -7  -2 461.739 106.187   2
  -3   7   2 727.960 131.792   0
  -3   7   2 706.187 109.909   3
  -3   7   2 629.580 84.2579   4
   3  -7  -1 379.436 97.1230   2
  -3   7   1 362.463 125.132   0
  -3   7   1 254.688 77.6227   4
   3  -7   0 562.025 96.9266   2
  -3   7   0 524.857 72.0910   4
  -3   7  -1 3917.04 175.716   0
  -3   7  -1 3781.34 115.241   4
  -3   7  -2 7430.55 208.632   0
  -3   7  -2 7065.03 132.127   4
   3  -7   3 324.759 101.012   2
  -3   7  -3 283.476 88.8617   4
  -3   7  -3 261.448 126.973   0
  -3   7  -4 325.713 85.6365   4
  -3   7  -4 162.462 126.790   0
  -3   7  -5 1962.85 155.548   0
  -3   7  -5 2124.34 104.458   4
  -3   7  -6 144.857 87.7712   4
  -3   7  -6 222.681 128.519   0
  -3   7  -7 365.708 95.0018   4
  -3   7  -7 124.131 132.106   0
  -3   7  -8-10.9884 92.7642   4
  -3   7  -8 20.9445 137.735   0
  -3   7  -9 71.5065 94.2127   4
  -3   7  -9 154.731 133.961   0
  -3   7 -10 183.533 155.948   0
  -3   7 -10 39.9218 97.9718   4
  -3   7 -11 91.1443 150.792   0
   3  -7  11-53.6713 191.571   3
  -3   7 -11-36.9081 101.155   4
   3  -7  12 99.4844 203.484   3
  -3   7 -12-93.3902 105.089   4
   3  -7  13 36.9298 204.734   3
   3  -7  14 190.081 219.628   3
   3  -6 -15 61.1077 141.508   2
   3  -6 -14-20.4235 114.079   2
  -3   6  14 141.868 161.195   0
   3  -6 -13-30.9635 138.782   2
  -3   6  13-7.77185 122.316   0
   3  -6 -12 423.537 140.780   2
  -3   6  12 668.318 150.894   0
  -3   6  11 2334.48 168.648   0
   3  -6 -11 2121.82 159.652   2
   3  -6 -10 238.513 137.606   2
  -3   6  10 311.241 148.352   0
   3  -6  -9 347.089 124.397   2
  -3   6   9 403.169 149.002   0
   3  -6  -8-24.7799 120.063   2
  -3   6   8 32.8718 130.841   0
   3  -6  -7 257.077 123.651   2
  -3   6   7 447.036 134.416   0
   3  -6  -6 26.8031 120.344   2
  -3   6   6 78.6362 129.934   0
  -3   6   5 1631.58 119.471   3
  -3   6   5 1861.21 145.435   0
   3  -6  -5 1360.99 136.633   2
   3  -6  -4 127.570 117.071   2
  -3   6   4-15.8032 114.221   3
  -3   6   4 12.1230 137.300   0
   3  -6  -3 468.064 119.909   2
  -3   6   3 248.957 111.164   3
  -3   6   3 85.3441 126.294   0
  -3   6   2 148.461 114.602   0
   3  -6  -2-109.285 107.239   2
  -3   6   2-1.61045 75.2656   4
  -3   6   2 72.1261 109.550   3
   3  -6  -1 51.5711 99.3491   2
  -3   6   1 112.157 116.534   0
  -3   6   1-7.87558 76.3633   4
  -3   6   1 47.8784 111.040   3
   3  -6   0 314.556 101.276   2
  -3   6   0 233.154 78.7601   4
  -3   6   0 396.749 112.992   3
  -3   6   0 359.784 126.271   0
  -3   6  -1 1531.18 141.587   0
   3  -6   1 1198.31 106.515   2
  -3   6  -1 1248.24 86.9520   4
  -3   6  -2 1883.13 146.568   0
   3  -6   2 1849.75 103.020   2
  -3   6  -2 2295.83 91.2002   4
   3  -6   3 56.6933 79.7990   2
  -3   6  -3-49.3340 118.932   0
  -3   6  -3 164.684 76.6437   4
  -3   6  -4 4510.94 164.299   0
  -3   6  -4 4246.83 111.413   4
  -3   6  -5 2979.63 149.816   0
  -3   6  -5 3311.34 106.973   4
  -3   6  -6 178.089 84.0333   4
  -3   6  -6 139.631 120.253   0
  -3   6  -7 4521.83 166.617   0
  -3   6  -7 4935.17 123.888   4
  -3   6  -8 6221.85 187.197   0
  -3   6  -8 6569.08 136.066   4
  -3   6  -9 4296.28 190.171   0
  -3   6  -9 4220.95 125.028   4
  -3   6 -10 106.204 153.223   0
  -3   6 -10 66.0713 107.420   1
  -3   6 -10 105.901 91.7026   4
  -3   6 -11 230.026 157.833   0
  -3   6 -11 199.149 119.586   1
  -3   6 -12 54.7823 142.759   0
   3  -6  12 17.2179 189.226   3
  -3   6 -12 56.3735 109.501   1
  -3   6 -13 67.8712 147.296   0
   3  -6  13 1.92666 196.580   3
  -3   6 -13-33.5813 110.385   1
   3  -6  14 173.647 205.189   3
  -3   6 -14 92.7456 123.165   1
   3  -6  15 260.720 227.969   3
  -3   6 -15 292.120 137.388   1
  -3   6 -16 117.924 133.888   1
   3  -5 -15-38.3844 132.513   2
   3  -5 -14 2.13007 114.645   2
   3  -5 -13 72.8908 130.262   2
  -3   5  13 194.000 123.571   0
  -3   5  12 408.925 132.047   0
   3  -5 -12 232.704 136.994   2
  -3   5  11 2520.75 150.009   0
   3  -5 -11 2595.16 155.635   2
  -3   5  10 2170.05 145.890   0
   3  -5 -10 2006.23 143.835   2
  -3   5   9 1629.80 117.799   3
  -3   5   9 1547.17 132.791   0
   3  -5  -9 1720.96 144.101   2
   3  -5  -8 331.979 133.576   2
  -3   5   8 135.532 119.458   3
  -3   5   8 106.807 130.753   0
  -3   5   7 1448.81 121.254   3
  -3   5   7 1281.96 142.398   0
   3  -5  -7 1322.66 140.806   2
   3  -5  -6 634.467 119.777   2
  -3   5   6 565.304 101.891   3
  -3   5   6 577.580 126.338   0
  -3   5   5 836.863 121.485   0
  -3   5   5 891.857 116.845   3
   3  -5  -5 865.025 119.775   2
  -3   5   4 911.535 110.886   3
  -3   5   4 836.652 125.009   0
   3  -5  -4 938.752 112.464   2
  -3   5   3 58.5948 95.6012   3
  -3   5   3-41.4050 110.509   0
   3  -5  -3-36.6026 102.059   2
   3  -5  -2 20.7795 94.3407   2
  -3   5   2 64.9421 100.437   0
  -3   5   2-65.7059 106.127   3
  -3   5   1 7.77547 99.9774   0
   3  -5  -1 37.5052 90.7497   2
  -3   5   1-103.507 103.040   3
   3  -5   0 280.585 86.3902   2
  -3   5   0 325.202 103.672   3
  -3   5   0 349.818 110.401   0
  -3   5  -1 2321.36 128.926   0
  -3   5  -1 2310.79 129.109   3
   3  -5   1 2164.12 101.413   2
  -3   5  -1 2369.18 79.4107   4
  -3   5  -2 89.3213 64.9426   4
   3  -5   2 83.1984 79.9351   2
  -3   5  -2 27.5980 101.876   0
  -3   5  -3 11.0582 68.2407   4
   3  -5   3-22.5446 73.2278   2
  -3   5  -3 25.5016 104.848   0
  -3   5  -4-18.8005 74.0993   4
   3  -5   4 24.0970 62.6555   2
  -3   5  -4-33.9731 107.306   0
  -3   5  -5 28.7420 77.2672   4
  -3   5  -5 88.4953 70.9663   1
  -3   5  -5-40.9770 107.887   0
  -3   5  -6 96.0145 79.3251   4
  -3   5  -6 39.4696 112.595   0
  -3   5  -6 97.9708 83.0265   1
  -3   5  -7 7317.57 152.642   1
  -3   5  -7 6985.26 187.884   0
  -3   5  -7 7488.57 134.130   4
  -3   5  -8 161.856 125.759   0
  -3   5  -8 206.681 95.7484   1
  -3   5  -8 169.618 85.7538   4
  -3   5  -9 8579.59 214.549   0
  -3   5  -9 7660.12 170.277   1
  -3   5 -10 4541.63 193.352   0
  -3   5 -10 4655.95 159.805   1
  -3   5 -11 349.679 139.014   0
  -3   5 -11 440.087 114.809   1
   3  -5  12 555.109 194.722   3
  -3   5 -12 460.787 133.129   1
  -3   5 -12 459.745 142.336   0
   3  -5  13 370.337 192.712   3
  -3   5 -13 307.070 124.482   1
  -3   5 -13 222.024 143.600   0
   3  -5  14 292.956 203.029   3
  -3   5 -14 161.422 129.572   1
  -3   5 -14 13.2395 145.337   0
   3  -5  15 107.247 173.635   3
  -3   5 -15 29.8648 113.898   1
   3  -5  16 94.9480 223.759   3
  -3   5 -16-63.7930 142.381   1
   3  -4 -15 39.0073 130.999   2
   3  -4 -14 64.8909 108.008   2
   3  -4 -13 185.275 128.500   2
   3  -4 -12-9.35466 120.466   2
  -3   4  12-62.5728 125.585   0
  -3   4  12-0.70813 108.716   3
  -3   4  11 1126.41 112.874   3
  -3   4  11 1343.20 127.150   0
   3  -4 -11 1385.50 135.864   2
   3  -4 -10 851.037 134.453   2
  -3   4  10 970.551 120.811   3
  -3   4  10 966.070 125.362   0
  -3   4   9 7546.97 168.145   3
  -3   4   9 7941.18 174.730   0
   3  -4  -9 7582.41 183.781   2
  -3   4   8 7312.29 158.413   3
  -3   4   8 7532.68 170.010   0
  -3   4   7 1995.34 118.758   3
  -3   4   7 2295.61 129.090   0
  -3   4   6 2381.22 124.290   0
  -3   4   6 2715.48 123.622   3
  -3   4   5 268.251 98.9193   3
  -3   4   5 286.895 101.562   0
  -3   4   4 3479.79 122.487   3
  -3   4   4 3367.72 126.332   0
  -3   4   3 1064.00 106.802   3
  -3   4   3 830.456 93.3841   0
  -3   4   2 126.072 86.5115   0
  -3   4   2 254.264 91.1784   3
  -3   4   1 664.791 97.2846   0
  -3   4   1 739.160 102.818   3
  -3   4   0 1293.07 106.946   3
  -3   4   0 1021.56 97.9667   0
  -3   4  -1 4120.67 130.810   3
  -3   4  -1 3486.11 122.452   0
  -3   4  -1 3839.58 62.7492   1
   3  -4   1 3776.39 96.5007   2
  -3   4  -2 3100.43 64.7612   1
  -3   4  -2 3022.03 118.806   0
  -3   4  -2 3584.90 131.315   3
   3  -4   2 3298.00 86.5017   2
  -3   4  -3 175.686 60.8017   4
   3  -4   3 77.7927 54.7935   2
  -3   4  -3 133.793 92.1892   0
  -3   4  -3 59.6607 42.7766   1
  -3   4  -4 615.697 58.7430   1
  -3   4  -4 744.035 103.501   0
   3  -4   4 844.947 60.8005   2
  -3   4  -4 972.250 72.2738   4
  -3   4  -5 230.852 99.0393   0
  -3   4  -5 338.245 73.3332   4
  -3   4  -5 233.588 70.6363   1
  -3   4  -6 1223.55 92.4872   1
  -3   4  -6 1203.98 127.179   0
  -3   4  -6 1191.42 82.1340   4
  -3   4  -7 29.3805 126.408   0
  -3   4  -7 22.3780 88.8167   1
  -3   4  -8 75.5684 130.168   0
  -3   4  -8 124.134 95.2363   1
  -3   4  -9 825.049 136.431   0
  -3   4  -9 931.072 104.309   1
  -3   4 -10 4791.03 175.093   0
  -3   4 -10 4829.92 152.011   1
  -3   4 -11 4237.79 175.956   0
  -3   4 -11 3975.07 153.159   1
   3  -4  12-33.0479 172.273   3
  -3   4 -12 97.3801 118.415   1
  -3   4 -12 9.34748 141.219   0
   3  -4  13 321.229 182.109   3
  -3   4 -13 215.776 120.216   1
  -3   4 -13 175.057 153.034   0
   3  -4  14 61.7973 183.352   3
  -3   4 -14 11.6635 131.397   1
  -3   4 -14-11.9119 137.840   0
   3  -4  15 2.90886 192.829   3
  -3   4 -15-44.2441 133.801   1
  -3   4 -15-112.000 148.574   0
   3  -4  16 183.974 175.410   3
  -3   4 -16 87.2570 160.476   1
   3  -4  17 114.594 222.121   3
  -3   3  15 27.4494 138.414   3
   3  -3 -14 30.8586 108.914   2
  -3   3  14-78.6391 130.797   3
  -3   3  13 8.83569 122.264   3
  -3   3  12 17.9883 119.691   3
  -3   3  11-66.2955 111.754   0
  -3   3  11-27.6430 115.059   3
  -3   3  10 260.413 99.4029   0
  -3   3  10 345.033 104.530   3
  -3   3   9 892.578 102.858   3
  -3   3   9 908.380 100.720   0
  -3   3   8 1478.43 110.131   3
  -3   3   8 1518.63 106.844   0
   3  -3  -7 6588.91 87.7712   1
  -3   3   7 7107.96 149.202   0
  -3   3   7 6819.98 145.243   3
  -3   3   6 4652.92 130.441   3
   3  -3  -6 4656.84 67.0942   1
  -3   3   6 4900.72 126.029   0
   3  -3  -5 347.359 30.3727   1
  -3   3   5 316.032 84.4199   3
  -3   3   5 417.371 88.6153   0
  -3   3   4 1653.57 89.3332   0
  -3   3   4 1768.11 104.384   3
  -3   3   3 1360.13 100.987   3
  -3   3   3 1323.38 91.9829   0
  -3   3   2 1470.49 94.4109   0
  -3   3   2 1648.37 106.916   3
  -3   3   1 4942.36 128.339   3
  -3   3   1 4551.12 112.981   0
  -3   3   0 898.697 99.9760   3
  -3   3   0 1035.32 45.5058   1
  -3   3   0 812.371 85.9031   0
  -3   3  -1 211.439 90.8656   3
  -3   3  -1 140.429 78.6359   0
  -3   3  -1 212.159 38.0156   1
  -3   3  -2-3.51358 80.7525   0
  -3   3  -2 48.5091 85.7738   3
  -3   3  -2 7.71902 44.0994   1
  -3   3  -3 202.289 84.0432   0
  -3   3  -3 261.897 60.6879   1
  -3   3  -4 8652.34 126.892   1
  -3   3  -4 8771.02 164.769   0
  -3   3  -5 123.709 103.904   0
  -3   3  -5 11.1765 70.3673   1
  -3   3  -6 1611.82 129.902   0
  -3   3  -6 1366.91 94.4003   1
  -3   3  -7 201.756 115.229   0
  -3   3  -7 186.951 82.9123   1
  -3   3  -8 126.342 119.234   0
  -3   3  -8 81.0259 88.5618   1
  -3   3  -9 25.5141 98.7622   1
  -3   3  -9 35.7511 119.349   0
  -3   3 -10 173.482 104.864   1
  -3   3 -10 159.049 130.826   0
   3  -3  11 147.321 156.681   3
  -3   3 -11 70.3310 114.627   1
  -3   3 -11 72.2751 141.999   0
  -3   3 -12 21253.4 315.616   0
   3  -3  12 20089.2 315.084   3
  -3   3 -12 20641.5 303.765   1
  -3   3 -13 3815.07 199.634   0
   3  -3  13 3571.25 212.486   3
  -3   3 -13 4033.61 191.479   1
   3  -3  14-130.663 181.359   3
  -3   3 -14-7.43078 143.268   1
  -3   3 -14 21.6043 155.646   0
   3  -3  15 83.2361 186.093   3
  -3   3 -15 102.548 132.554   0
  -3   3 -15-94.7766 152.465   1
   3  -3  16-0.32352 200.973   3
  -3   3 -16 236.899 175.596   0
  -3   3 -16 69.6569 171.601   1
   3  -3  17 96.7060 214.025   3
  -3   3 -17 75.9171 165.449   1
  -3   2  18 157.706 156.041   3
  -3   2  17 52.9693 134.201   3
  -3   2  16 52.4362 149.221   3
  -3   2  15 10.2402 143.553   3
  -3   2  14 223.657 133.794   3
   3  -2 -14 243.305 99.9989   1
  -3   2  13 1005.21 134.084   3
   3  -2 -13 969.312 101.936   1
  -3   2  12 16.0108 120.185   3
   3  -2 -12-9.55791 97.2244   1
  -3   2  11-28.7102 117.300   3
   3  -2 -11-27.1518 94.3138   1
  -3   2  10 80.2512 85.1515   0
  -3   2  10 72.9014 108.435   3
   3  -2 -10 64.1000 85.0774   1
  -3   2   9 1666.74 117.961   3
   3  -2  -9 1700.15 85.5117   1
   3  -2  -8 3109.25 84.0006   1
  -3   2   8 3097.09 117.360   3
  -3   2   7 832.133 90.8664   3
   3  -2  -7 737.854 53.1693   1
  -3   2   7 923.462 77.7741   0
   3  -2  -6 378.403 45.5558   1
  -3   2   6 514.272 83.4600   3
  -3   2   6 528.311 75.8115   0
  -3   2   5 5969.97 103.608   0
  -3   2   5 6410.19 133.191   3
  -3   2   4 1997.30 94.6312   3
  -3   2   4 1938.63 77.5135   0
  -3   2   3 169.033 83.4823   3
  -3   2   3 187.134 66.7440   0
  -3   2   2 10356.0 155.299   3
  -3   2   2 9129.68 124.114   0
  -3   2   2 9814.42 90.4887   1
  -3   2   1 4578.33 120.417   3
  -3   2   1 4346.18 68.7170   1
  -3   2   1 4077.11 99.5829   0
  -3   2   0 521.451 88.2471   3
  -3   2   0 467.172 76.4219   0
  -3   2   0 549.199 49.4468   1
  -3   2   0 518.713 60.3799   2
  -3   2  -1 5762.62 90.6870   1
  -3   2  -1 5102.24 115.516   0
  -3   2  -1 5170.73 87.9894   2
  -3   2  -1 5800.81 135.005   3
  -3   2  -2 560.645 91.8926   0
  -3   2  -2 350.194 83.9675   3
  -3   2  -2 455.187 53.8864   1
  -3   2  -2 483.535 50.8693   2
  -3   2  -3 1981.74 75.0665   1
  -3   2  -3 2321.93 113.948   0
  -3   2  -3 2298.62 108.516   3
  -3   2  -4 22.9888 93.6566   0
  -3   2  -4 58.6963 36.0010   2
  -3   2  -4 18.3117 62.2779   1
  -3   2  -5 958.307 108.030   0
  -3   2  -5 912.511 85.8416   1
  -3   2  -6 1892.96 120.300   0
  -3   2  -6 2056.97 111.927   1
  -3   2  -7 1416.45 109.036   1
  -3   2  -7 1258.93 126.462   0
  -3   2  -8 501.217 109.515   1
  -3   2  -8 628.290 133.753   0
  -3   2  -9 290.320 111.006   1
  -3   2  -9 115.729 137.164   0
  -3   2 -10 1193.54 127.640   1
  -3   2 -10 1018.00 152.727   0
   3  -2  11 529.788 146.466   3
  -3   2 -11 306.166 131.748   1
  -3   2 -11 459.350 143.560   0
   3  -2  12 3000.40 177.900   3
  -3   2 -12 3254.76 171.730   1
  -3   2 -12 3043.33 184.307   0
   3  -2  13 46.1271 157.130   3
  -3   2 -13-4.26606 149.174   0
  -3   2 -13 87.0920 143.880   1
  -3   2 -14 6910.75 234.846   1
  -3   2 -14 6427.75 230.295   0
  -3   2 -15 3796.02 222.678   0
   3  -2  15 3693.66 219.427   3
  -3   2 -15 3703.85 209.130   1
  -3   2 -16 456.584 169.075   1
  -3   1  20 492.669 191.031   3
  -3   1  19 1065.61 194.341   3
  -3   1  18 623.977 184.833   3
   3  -1 -18 702.847 126.478   1
  -3   1  17 15.5326 171.299   3
   3  -1 -17 68.7783 124.887   1
   3  -1 -16 648.651 130.882   1
  -3   1  16 792.921 175.274   3
  -3   1  15 213.497 164.944   3
   3  -1 -15 155.121 115.710   1
  -3   1  14 68.3401 148.389   3
   3  -1 -14 86.9221 103.869   1
   3  -1 -13 170.314 97.9672   1
  -3   1  13 180.104 142.459   3
  -3   1  12 1597.93 159.184   3
   3  -1 -12 1390.87 113.979   1
  -3   1  11 481.010 138.386   3
   3  -1 -11 412.617 91.6922   1
  -3   1  10 468.575 120.538   3
   3  -1 -10 463.139 84.4189   1
   3  -1  -9 525.615 74.2748   1
  -3   1   9 551.309 105.799   3
  -3   1   8 1787.74 108.044   3
   3  -1  -8 1616.66 83.8957   1
  -3   1   8 1581.72 66.2400   0
  -3   1   7 1678.48 103.337   3
   3  -1  -7 1678.94 78.2356   1
  -3   1   7 1434.94 60.3744   0
  -3   1   7 1569.87 93.5776   2
  -3   1   6 14121.3 176.569   3
   3  -1  -6 14214.3 139.411   1
  -3   1   6 13276.6 112.784   0
  -3   1   6 14857.1 177.394   2
  -3   1   5 8076.10 92.9232   0
  -3   1   5 7633.71 131.395   3
  -3   1   4 7361.23 126.939   3
  -3   1   4 7175.94 90.9950   0
  -3   1   4 7765.32 129.770   2
  -3   1   3 79.1949 55.0249   0
  -3   1   3 97.8470 75.5262   3
  -3   1   3 125.082 66.2690   2
  -3   1   2 24474.3 167.332   1
  -3   1   2 23342.9 163.300   0
  -3   1   2 23691.2 199.595   3
  -3   1   2 23889.7 190.332   2
  -3   1   1 7379.64 127.809   3
  -3   1   1 7017.01 98.6009   1
  -3   1   1 7586.11 116.796   0
  -3   1   1 7531.12 118.952   2
  -3   1   0 376.629 87.7628   3
  -3   1   0 379.748 82.9867   0
  -3   1   0 363.752 57.6366   1
  -3   1   0 336.446 62.7835   2
  -3   1  -1 2319.45 96.7136   3
  -3   1  -1 2125.02 97.5327   0
  -3   1  -1 2173.94 79.5281   1
  -3   1  -1 2269.48 78.1772   2
  -3   1  -2 2466.17 90.7626   1
  -3   1  -2 2166.96 103.393   0
  -3   1  -2 2291.62 72.3448   2
  -3   1  -2 2267.38 97.9534   3
  -3   1  -3 1385.37 88.4782   3
  -3   1  -3 1287.13 78.7748   1
  -3   1  -3 1164.43 95.7724   0
  -3   1  -3 871.916 53.4839   2
  -3   1  -4 349.129 68.7509   1
  -3   1  -4 286.664 49.6022   2
  -3   1  -4 292.721 99.6132   0
  -3   1  -5 979.148 112.802   0
  -3   1  -5 906.769 78.1128   1
  -3   1  -5 797.595 50.9756   2
  -3   1  -6 18.1217 72.9790   1
  -3   1  -6 96.9747 114.985   0
  -3   1  -7 1124.84 97.2145   1
  -3   1  -7 1188.08 137.006   0
  -3   1  -8 355.479 99.1812   1
  -3   1  -8 260.785 131.217   0
  -3   1  -9 13.6514 101.958   1
  -3   1  -9 138.576 131.395   0
   3  -1  10 564.829 139.163   3
  -3   1 -10 437.227 105.412   1
  -3   1 -10 262.879 140.475   0
   3  -1  11 78.0739 130.758   3
  -3   1 -11 79.7373 104.835   1
  -3   1 -11 291.798 144.341   0
  -3   1 -12 1816.53 181.588   0
   3  -1  12 1598.82 157.750   3
  -3   1 -12 1889.22 149.554   1
  -3   1 -13 163.600 130.683   1
  -3   1 -14 66.4852 138.848   1
  -3   1 -15 528.151 147.655   1
  -3   1 -16 1325.87 171.693   1
  -3   0  20 187.715 201.601   3
   3   0 -20 207.643 149.626   1
  -3   0  19 800.319 169.046   3
   3   0 -19 1034.98 147.627   1
  -3   0  18 763.239 185.554   3
   3   0 -18 508.480 144.797   1
  -3   0  17 2078.61 196.609   3
   3   0 -17 2166.89 163.142   1
  -3   0  16 2260.23 187.035   3
   3   0 -16 2161.80 150.090   1
  -3   0  15 313.600 153.288   3
   3   0 -15 102.773 107.781   1
  -3   0  14 1297.28 157.003   3
   3   0 -14 960.299 109.003   1
  -3   0  13 518.276 143.906   3
   3   0 -13 426.665 101.567   1
  -3   0  12 43.7731 136.416   3
   3   0 -12 165.983 97.6343   1
   3   0 -11 752.296 104.106   1
  -3   0  11 669.862 131.942   3
   3   0 -10 23.6862 94.6980   1
  -3   0  10 63.5659 118.361   3
  -3   0  10 31.2979 91.8366   2
  -3   0   9 2181.02 130.344   3
   3   0  -9 2041.63 110.296   1
  -3   0   9 2129.86 109.413   2
  -3   0   8 8282.31 170.471   3
   3   0  -8 7871.05 138.923   1
  -3   0   8 7906.59 145.601   2
  -3   0   7 1882.83 113.775   3
  -3   0   7 1709.44 90.1522   2
  -3   0   6 4061.52 112.898   2
  -3   0   6 3835.44 114.467   3
  -3   0   5 2478.33 99.9326   3
  -3   0   5 2640.00 98.9953   2
  -3   0   4 121.728 40.5473   0
  -3   0   4 175.701 70.6609   3
  -3   0   4 198.889 71.2457   2
  -3   0   3 604.826 49.1784   0
  -3   0   3 689.734 72.4778   3
  -3   0   3 910.502 83.1305   2
  -3   0   2 8118.93 126.616   1
  -3   0   2 7788.87 101.660   0
  -3   0   2 7712.62 119.144   3
  -3   0   2 8632.75 134.778   2
  -3   0   1 1254.16 77.7885   1
  -3   0   1 1359.66 76.1000   0
  -3   0   1 1361.26 79.8726   3
  -3   0   1 1471.72 90.7793   2
  -3   0   0 4903.98 103.790   3
  -3   0   0 4744.82 109.076   0
  -3   0   0 4714.26 107.205   2
  -3   0   0 4877.78 108.983   1
  -3   0  -1 20515.3 172.618   3
  -3   0  -1 20221.2 187.495   1
  -3   0  -1 20029.6 195.353   0
  -3   0  -1 20458.2 180.168   2
  -3   0  -2 11931.5 153.297   1
  -3   0  -2 11595.9 169.453   0
  -3   0  -2 12551.8 143.615   3
  -3   0  -2 12277.0 144.245   2
  -3   0  -3-10.4152 69.0109   3
  -3   0  -3 51.6661 79.3174   1
  -3   0  -3 69.7738 92.7574   0
  -3   0  -3 87.8705 60.6657   2
  -3   0  -4 62.7089 73.3160   1
  -3   0  -4 27.4697 94.2760   0
  -3   0  -4 2.73642 53.4776   2
  -3   0  -5 1710.26 124.224   0
  -3   0  -5 1902.05 96.1148   1
  -3   0  -6 65.4362 82.0954   1
  -3   0  -6 127.667 114.629   0
  -3   0  -7 3394.22 125.383   1
  -3   0  -7 3533.80 160.761   0
  -3   0  -8 104.942 92.9868   1
  -3   0  -8 228.216 142.671   0
   3   0   9 125.043 110.810   3
  -3   0  -9 167.403 100.351   1
  -3   0  -9 215.670 149.477   0
  -3   0 -10 755.287 107.386   1
  -3   0 -11 168.608 104.756   1
  -3   0 -12 298.239 116.653   1
  -3   0 -13 32.8700 120.301   1
  -3   0 -14 43.7004 136.224   1
  -3   0 -15 302.479 142.601   1
  -3   0 -16 90.4552 153.097   1
  -3  -1  20 260.562 187.874   3
   3   1 -20-35.8057 147.445   1
  -3  -1  19 178.963 151.615   3
   3   1 -19 110.181 125.568   1
  -3  -1  18 403.652 179.133   3
   3   1 -18 321.982 155.036   1
  -3  -1  17 834.748 177.345   3
   3   1 -17 869.453 145.040   1
  -3  -1  16 1601.55 179.455   3
   3   1 -16 1088.53 135.074   1
  -3  -1  15 4101.16 191.156   3
   3   1 -15 3598.58 152.861   1
  -3  -1  14 2929.59 166.738   3
   3   1 -14 2427.98 134.633   1
  -3  -1  13 2603.48 159.082   3
   3   1 -13 2444.34 135.019   1
  -3  -1  13 2439.32 123.191   2
   3   1 -12 73.3094 112.220   1
  -3  -1  12 372.657 136.813   3
  -3  -1  12 170.107 100.833   2
   3   1 -11 55.9056 114.042   1
  -3  -1  11 203.101 126.731   3
  -3  -1  11 164.419 96.9252   2
  -3  -1  10 3821.11 152.756   3
   3   1 -10 3884.95 144.141   1
  -3  -1  10 3534.50 121.707   2
  -3  -1   9 1601.70 123.695   3
   3   1  -9 1601.32 113.508   1
  -3  -1   9 1424.26 100.739   2
  -3  -1   8 138.312 98.5952   3
  -3  -1   8 72.3031 80.9921   2
  -3  -1   7 4418.15 130.776   3
  -3  -1   7 4636.75 123.401   2
  -3  -1   6 1981.92 110.033   3
  -3  -1   6 2079.44 100.453   2
  -3  -1   5 50.7219 79.0321   3
  -3  -1   5 45.2558 72.1458   2
  -3  -1   4 2119.66 90.2044   3
  -3  -1   4 2546.51 103.246   2
  -3  -1   3 537.311 81.2050   1
  -3  -1   3 451.290 69.8246   3
  -3  -1   3 592.771 77.9147   2
  -3  -1   2 1751.86 96.5940   1
  -3  -1   2 1713.36 71.5382   3
  -3  -1   2 1793.93 88.7313   2
  -3  -1   1 4851.26 91.9113   3
  -3  -1   1 4825.65 115.944   1
  -3  -1   1 5320.23 118.443   2
  -3  -1   0 48.1248 50.8377   3
  -3  -1   0 38.8208 75.2883   1
  -3  -1   0 48.2941 71.0063   2
  -3  -1  -1 2894.04 105.220   1
  -3  -1  -1 2607.05 95.3807   2
  -3  -1  -2 24778.0 227.962   1
  -3  -1  -2 23811.9 204.557   2
  -3  -1  -2 24111.2 165.000   3
  -3  -1  -3 5854.66 138.712   1
  -3  -1  -3 6019.23 119.865   2
  -3  -1  -4 5308.00 135.702   1
  -3  -1  -4 5067.55 115.170   2
  -3  -1  -5 1217.24 100.278   1
  -3  -1  -5 846.741 75.2165   2
  -3  -1  -6 588.992 103.043   1
  -3  -1  -6 395.014 79.5065   2
  -3  -1  -7 3123.64 132.671   1
  -3  -1  -8 151.822 100.494   1
  -3  -1  -9 60.6430 103.333   1
  -3  -1 -10 636.163 113.247   1
  -3  -1 -11 66.0901 118.369   1
  -3  -1 -12 558.648 133.639   1
  -3  -1 -13 44.5633 135.782   1
  -3  -1 -14 114.567 128.577   1
  -3  -1 -15 192.729 139.360   1
  -3  -2  19 130.198 185.656   3
   3   2 -19 31.0689 129.003   1
  -3  -2  18 613.165 171.535   3
   3   2 -18 704.808 145.165   1
  -3  -2  17 46.3993 174.394   3
   3   2 -17 204.465 135.407   1
   3   2 -16 940.910 138.189   1
  -3  -2  16 1154.51 179.478   3
  -3  -2  15-116.623 162.194   3
   3   2 -15 25.7842 120.043   1
  -3  -2  14 1357.00 164.453   3
   3   2 -14 1696.29 137.071   1
  -3  -2  13 22675.9 314.425   3
   3   2 -13 22175.5 286.505   1
   3   2 -12 1171.17 142.255   1
  -3  -2  12 793.735 149.587   3
  -3  -2  12 1046.22 103.279   2
  -3  -2  11 4562.05 180.920   3
   3   2 -11 4872.55 168.870   1
  -3  -2  11 4680.73 145.487   2
   3   2 -10 452.673 114.095   1
  -3  -2  10 529.797 134.517   3
  -3  -2  10 428.820 99.3337   2
  -3  -2   9 78.8139 124.353   3
  -3  -2   9 204.637 92.9657   2
   3   2  -9 294.807 103.564   1
  -3  -2   8 2832.95 130.539   3
  -3  -2   8 2726.21 116.997   2
  -3  -2   7 370.315 102.135   3
  -3  -2   7 283.385 89.8041   2
  -3  -2   6 957.052 96.0029   3
  -3  -2   6 875.084 92.1800   2
  -3  -2   5 6874.12 139.972   3
  -3  -2   5 6348.13 136.957   2
  -3  -2   4 1176.37 83.3687   3
  -3  -2   4 1215.38 88.7168   2
  -3  -2   3 190.400 65.6104   3
  -3  -2   3 379.298 81.8038   2
  -3  -2   2 631.164 94.6646   1
  -3  -2   2 801.634 82.1717   2
  -3  -2   1 2445.14 71.7202   3
  -3  -2   1 2953.31 116.769   1
  -3  -2   1 2766.63 104.254   2
  -3  -2   0 503.416 53.8710   3
  -3  -2   0 370.775 85.6869   1
  -3  -2   0 598.105 84.7734   2
  -3  -2  -1-32.9796 78.5024   1
  -3  -2  -1 44.5735 79.5660   2
  -3  -2  -2-6.48354 83.6064   1
  -3  -2  -2 141.987 85.0854   2
  -3  -2  -3 674.761 96.6426   1
  -3  -2  -3 628.759 102.187   2
  -3  -2  -4 831.901 98.3578   1
  -3  -2  -4 1015.51 109.446   2
  -3  -2  -5 260.098 105.760   1
  -3  -2  -5 282.425 109.015   2
  -3  -2  -6 4723.40 144.701   1
  -3  -2  -6 5696.73 159.223   2
  -3  -2  -7 422.076 105.844   1
  -3  -2  -7 615.772 113.926   2
  -3  -2  -8-19.0265 103.556   1
  -3  -2  -9-17.9033 108.594   1
  -3  -2 -10 362.551 130.438   1
  -3  -2 -11 103.032 138.053   1
  -3  -2 -12 202.942 141.725   1
  -3  -2 -13 223.663 157.767   1
  -3  -2 -14 25.0563 136.712   1
  -3  -2 -15 57.0622 165.561   1
  -3  -3  19-70.4476 187.195   3
   3   3 -19 102.845 151.585   1
  -3  -3  18 143.728 192.265   3
   3   3 -18 113.541 121.851   1
  -3  -3  17-8.93778 183.659   3
   3   3 -17-50.2712 139.467   1
  -3  -3  16 728.244 185.353   3
   3   3 -16 483.331 140.831   1
   3   3 -15 23.3334 129.024   1
  -3  -3  15 5.94564 163.997   3
   3   3 -14 36.7387 124.476   1
  -3  -3  14 58.9728 158.646   3
   3   3 -13 303.790 131.157   1
  -3  -3  13 309.694 150.015   3
  -3  -3  12 1839.19 156.150   3
   3   3 -12 1759.97 145.952   1
  -3  -3  12 2023.41 115.968   2
  -3  -3  11 10068.8 226.273   3
   3   3 -11 9657.12 211.244   1
  -3  -3  11 10888.0 186.814   2
  -3  -3  10 6593.63 193.741   3
   3   3 -10 6963.40 184.622   1
  -3  -3  10 7435.21 164.725   2
   3   3 -10 7606.81 124.779   4
  -3  -3   9 98.1503 129.036   3
   3   3  -9 288.219 79.7833   4
  -3  -3   9 375.518 103.924   2
  -3  -3   8 2017.83 139.404   3
  -3  -3   8 2209.74 120.028   2
  -3  -3   7 1541.18 119.476   3
  -3  -3   7 1339.30 108.818   2
  -3  -3   6 126.098 97.6258   3
  -3  -3   6 57.5548 95.1525   2
  -3  -3   5 3391.52 111.145   3
  -3  -3   5 4846.93 136.740   2
   3   3  -4 114.802 77.9367   0
  -3  -3   4 33.8167 89.3421   2
  -3  -3   4 61.3943 70.4042   3
  -3  -3   3 4264.11 98.4044   3
  -3  -3   3 3991.58 125.763   2
   3   3  -3 4336.67 111.793   0
  -3  -3   2 183.864 101.184   1
  -3  -3   2 233.689 88.8783   2
  -3  -3   1 35.5009 99.3202   1
  -3  -3   1 108.447 90.2928   2
  -3  -3   0 548.361 106.393   1
  -3  -3   0 528.804 99.8711   2
  -3  -3  -1 15.0688 90.7933   1
  -3  -3  -1 7.16743 102.447   2
  -3  -3  -2 106.042 90.3835   1
  -3  -3  -2 116.505 110.837   2
  -3  -3  -3 2329.27 138.723   2
  -3  -3  -3 2283.08 125.494   1
  -3  -3  -4 76.6502 105.991   1
  -3  -3  -4 274.001 121.599   2
  -3  -3  -5 4439.39 156.810   1
  -3  -3  -5 5435.30 176.640   2
  -3  -3  -6 2370.27 125.242   1
  -3  -3  -6 3012.28 146.473   2
  -3  -3  -7 1548.94 123.197   1
  -3  -3  -7 1864.73 140.316   2
  -3  -3  -8 1828.26 137.302   1
  -3  -3  -9 74.8994 115.478   1
  -3  -3 -10 159.427 125.654   1
  -3  -3 -11 169.234 128.899   1
  -3  -3 -12 54.9170 139.156   1
  -3  -3 -13 177.757 126.228   1
  -3  -3 -14 17.6179 148.787   1
  -3  -4  18 164.218 193.419   3
   3   4 -18 397.653 149.635   1
  -3  -4  17 107.280 181.593   3
   3   4 -17 317.255 143.457   1
  -3  -4  16 9.73381 174.527   3
   3   4 -16 32.7028 142.792   1
  -3  -4  15-68.8207 169.633   3
   3   4 -15 82.5857 144.457   1
   3   4 -14 260.958 152.734   1
  -3  -4  14 91.4213 157.515   3
   3   4 -13-33.5052 141.586   1
  -3  -4  13 107.530 157.659   3
  -3  -4  12 1130.17 164.470   3
   3   4 -12 1034.19 142.071   1
  -3  -4  12 1169.74 119.956   2
   3   4 -12 1359.41 100.143   4
  -3  -4  11 1747.10 152.928   3
   3   4 -11 2022.53 149.114   1
  -3  -4  11 2019.19 124.459   2
   3   4 -11 2255.66 102.125   4
   3   4 -10 3053.55 150.119   1
  -3  -4  10 3631.58 142.009   2
  -3  -4  10 3023.87 163.403   3
  -3  -4   9 616.126 133.190   3
  -3  -4   9 786.491 109.036   2
   3   4  -9 704.419 86.3179   4
  -3  -4   8 5724.57 171.560   3
  -3  -4   8 5919.50 166.057   2
  -3  -4   7-57.4552 116.177   3
  -3  -4   7 65.1600 106.040   2
  -3  -4   6 81.0955 103.407   3
  -3  -4   6 80.8626 104.338   2
  -3  -4   5 3158.61 140.565   2
  -3  -4   4-6.12389 105.873   2
  -3  -4   3 4637.94 150.467   2
   3   4  -3 5148.60 140.092   0
  -3  -4   2 1568.06 135.070   1
  -3  -4   2 1522.36 121.199   2
   3   4  -2 1490.09 128.615   0
  -3  -4   1 262.007 115.951   1
   3   4  -1 159.845 123.028   0
  -3  -4   1 108.371 107.603   2
  -3  -4   0 68.3742 117.307   1
   3   4   0 168.492 129.256   0
  -3  -4   0 83.3581 122.881   2
  -3  -4  -1 149.991 114.851   1
  -3  -4  -1 161.466 122.346   2
  -3  -4  -2 80.1822 111.798   1
  -3  -4  -2-101.363 124.712   2
  -3  -4  -3 315.810 105.783   1
  -3  -4  -3 258.236 131.261   2
  -3  -4  -4 258.189 110.558   1
  -3  -4  -4 171.954 127.696   2
  -3  -4  -5 1164.93 120.507   1
  -3  -4  -5 1381.26 146.512   2
  -3  -4  -6 1049.12 149.731   2
  -3  -4  -6 1004.28 128.129   1
  -3  -4  -7 162.316 109.793   1
  -3  -4  -7 189.769 115.423   2
  -3  -4  -8 851.089 136.189   1
  -3  -4  -9 1757.75 152.364   1
  -3  -4 -10 2090.57 147.695   1
  -3  -4 -11 1259.08 149.438   1
  -3  -4 -12 183.829 136.750   1
  -3  -5  17 165.313 195.295   3
   3   5 -17 7.67131 155.907   1
   3   5 -16 531.203 157.002   1
  -3  -5  16 419.799 183.685   3
   3   5 -15 120.049 147.634   1
  -3  -5  15 122.016 165.601   3
   3   5 -14 125.154 164.737   1
  -3  -5  14 120.614 166.759   3
   3   5 -13-27.0158 150.673   1
   3   5 -13 32.8744 101.372   4
  -3  -5  13 42.8429 156.953   3
   3   5 -12 16.5679 103.586   4
   3   5 -12 182.496 141.566   1
  -3  -5  12 65.3523 141.899   3
   3   5 -11 187.101 101.951   4
  -3  -5  11 70.5246 124.598   3
   3   5 -11 101.171 139.833   1
  -3  -5  11 218.474 108.257   2
  -3  -5  10 4897.82 182.414   3
  -3  -5  10 5863.01 174.423   2
   3   5 -10 5526.55 142.534   4
  -3  -5   9 3841.64 156.895   2
  -3  -5   8 6736.08 183.167   2
  -3  -5   7 203.731 117.038   2
  -3  -5   6 534.951 116.319   2
  -3  -5   5 606.863 112.833   2
  -3  -5   4 104.274 114.640   2
  -3  -5   3 154.512 114.844   2
   3   5  -2-10.6609 120.164   0
  -3  -5   2 117.876 113.474   2
   3   5  -1 103.735 129.566   0
  -3  -5   1 80.4261 127.890   1
  -3  -5   1-7.76425 116.777   2
  -3  -5   0 74.4374 126.394   1
   3   5   0 311.261 138.348   0
  -3  -5   0 29.3849 123.638   2
   3   5   1 12.0534 134.790   0
  -3  -5  -1-45.1137 123.342   1
  -3  -5  -1-101.498 129.145   2
  -3  -5  -2 275.470 129.491   1
   3   5   2 243.466 142.202   0
  -3  -5  -2 223.122 140.194   2
   3   5   3 39.9548 154.566   0
  -3  -5  -3 30.4057 124.899   1
  -3  -5  -3 69.4019 136.793   2
   3   5   4 430.075 161.550   0
  -3  -5  -4 339.080 126.473   1
  -3  -5  -4 326.584 146.482   2
   3   5   5 109.214 165.400   0
  -3  -5  -5 22.5126 117.054   1
  -3  -5  -5 4.82426 147.595   2
  -3  -5  -6 465.289 125.534   1
   3   5   6 398.761 178.478   0
  -3  -5  -6 479.959 156.451   2
  -3  -5  -7 21.0656 130.440   1
  -3  -5  -7 48.1861 129.065   2
  -3  -5  -8-32.6797 118.661   1
  -3  -5  -8 104.801 156.316   2
  -3  -5  -9 199.324 126.065   1
  -3  -5 -10 104.139 136.508   1
  -3  -5 -11 344.212 136.083   1
  -3  -6  16 83.4618 181.352   3
   3   6 -15 320.247 172.237   1
  -3  -6  15 176.951 184.340   3
   3   6 -14 133.168 176.083   1
   3   6 -14 29.7457 114.549   4
  -3  -6  14-78.1634 161.580   3
   3   6 -13 6.10871 156.360   1
   3   6 -13 233.608 117.254   4
   3   6 -12-62.4233 111.162   4
   3   6 -12 139.719 151.712   1
   3   6 -11-23.8323 106.482   4
   3   6 -11-90.1383 140.471   1
   3   6 -10 355.315 115.803   4
  -3  -6  10 190.469 129.693   2
   3   6  -9-39.6713 110.591   4
  -3  -6   9 72.2882 125.836   2
  -3  -6   8 1447.62 148.344   2
  -3  -6   7 206.616 129.781   2
  -3  -6   6 1847.68 149.949   2
  -3  -6   5 651.096 132.645   2
  -3  -6   4 1688.53 147.505   2
  -3  -6   3 2765.42 161.215   2
  -3  -6   2 2970.73 166.616   2
   3   6  -1 740.479 147.072   0
  -3  -6   1 592.482 154.259   2
   3   6   0 2146.78 173.430   0
  -3  -6   0 2258.11 175.100   2
  -3  -6   0 2613.57 174.448   1
   3   6   1 49.2870 161.265   0
  -3  -6  -1 167.653 142.179   1
  -3  -6  -1 126.184 149.552   2
   3   6   2-93.9232 163.606   0
  -3  -6  -2 26.8890 141.209   1
  -3  -6  -2-112.355 154.627   2
   3   6   3 264.181 169.402   0
  -3  -6  -3 102.357 133.029   1
  -3  -6  -3 169.688 160.548   2
  -3  -6  -4 57.8949 146.345   1
   3   6   4 67.7627 170.327   0
  -3  -6  -4-101.358 159.315   2
  -3  -6  -5 29.1070 108.539   1
  -3  -6  -5 95.1688 161.462   2
   3   6   5 179.915 185.422   0
   3   6   6 189.719 176.904   0
  -3  -6  -6 33.7900 117.285   1
  -3  -6  -6-16.1144 154.547   2
   3   6   7 42.9274 159.615   0
  -3  -6  -7-7.55435 130.681   1
  -3  -6  -7-101.141 146.217   2
   3   6   8 95.3926 204.079   0
  -3  -6  -8 156.697 135.942   1
  -3  -6  -8-46.4486 175.248   2
  -3  -6  -9 176.506 134.137   1
   3   7 -14-3.68835 127.758   4
   3   7 -13 116.406 167.748   1
   3   7 -13-9.20335 130.960   4
   3   7 -12 125.148 154.115   1
   3   7 -12 159.289 128.792   4
   3   7 -11-104.436 156.915   1
   3   7 -11 66.5053 117.993   4
   3   7 -10 202.527 124.310   4
   3   7 -10 132.819 147.897   1
  -3  -7  10 98.6761 136.464   2
   3   7  -9 3.64034 117.212   4
  -3  -7   9-0.82336 117.324   2
  -3  -7   8 214.088 143.490   2
  -3  -7   7 39.4507 135.105   2
  -3  -7   6 205.071 144.019   2
  -3  -7   5-37.3784 137.611   2
  -3  -7   4 58.3458 146.832   2
  -3  -7   3 264.823 143.163   2
  -3  -7   2 2125.91 175.545   2
  -3  -7   1 183.296 151.192   2
  -3  -7   0 3332.28 207.351   2
   3   7   1 117.587 171.642   0
  -3  -7  -1 200.347 167.524   2
  -3  -7  -2 143.729 153.474   1
   3   7   2-1.68146 163.184   0
  -3  -7  -2 100.834 173.109   2
  -3  -7  -3 224.761 149.469   1
   3   7   3 161.758 175.012   0
  -3  -7  -3 15.3687 178.399   2
  -3  -7  -4-95.8023 145.713   1
   3   7   4 201.667 183.750   0
  -3  -7  -4 208.394 184.128   2
   3   7   5 282.878 198.783   0
  -3  -7  -5 205.203 181.733   2
  -3  -7  -6-44.8573 180.975   2
   3   8 -15 1.73149 135.763   4
   3   8 -14 91.6451 136.150   4
   3   8 -13-49.5042 138.174   4
   3   8 -12 145.784 147.960   4
   3   8 -11 74.1442 140.230   4
   3   8 -10 71.2720 149.342   1
   3   8 -10 51.3790 134.069   4
   3   8  -9 164.190 136.777   4
  -3  -8   9 161.170 155.522   2
   3   8  -8 146.192 137.183   4
  -3  -8   8 132.602 153.248   2
  -3  -8   7 195.628 153.781   2
  -3  -8   6 33.0263 128.322   2
  -3  -8   5 59.6184 130.125   2
  -3  -8   4-68.6265 132.255   2
  -3  -8   3 352.734 159.222   2
  -3  -8   2 134.235 157.461   2
  -3  -8   1 124.588 175.830   2
   3   9 -15 749.138 147.217   4
   3   9 -14 67.3052 117.153   4
   3   9 -13 395.336 146.812   4
   3   9 -12 92.7306 148.159   4
   3   9 -11 80.2840 148.113   4
   3   9 -10 106.736 152.053   4
   3   9  -9-25.7310 145.321   4
   3   9  -8 58.9926 150.695   4
   3   9  -7 84.1291 149.062   4
   3  10 -15 242.070 138.972   4
   3  10 -14 128.129 147.638   4
   3  10 -13 503.703 158.636   4
   3  10 -12 36.0285 134.080   4
   3  10 -11 32.3010 152.095   4
   3  10 -10 44.3920 153.452   4
   3  10  -9 179.665 153.498   4
   3  10  -8 174.630 160.134   4
   3  10  -7-27.8507 155.015   4
   3  10  -6 163.046 163.436   4
   3  11  -9 75.3997 165.060   4
   3  11  -8-69.8201 158.158   4
   3  11  -7 99.4717 158.579   4
   3  11  -6 170.139 158.722   4
   3  11  -5 98.4828 161.451   4
   3  11  -4 298.274 166.620   4
  -4  13  -5 199.098 133.041   4
  -4  13  -6 187.525 134.579   4
  -4  12  -4 51.8280 113.320   4
  -4  12  -5 29.5934 100.483   4
  -4  12  -6 80.8552 110.353   4
  -4  12  -7-36.0800 125.627   4
  -4  12  -8 183.172 134.320   4
  -4  12  -9 134.661 139.852   4
  -4  12 -10-24.4202 139.885   4
  -4  12 -11-59.6367 136.991   4
  -4  11  -3 37.4246 99.9006   4
  -4  11  -4 301.232 108.821   4
  -4  11  -5 183.581 127.788   4
  -4  11  -6 31.6693 123.455   4
  -4  11  -7 97.0901 133.134   4
  -4  11  -8 183.887 132.809   4
  -4  11  -9-35.6123 136.343   4
  -4  11 -10-149.528 133.264   4
  -4  11 -11 46.2385 141.931   4
  -4  11 -12 119.067 141.335   4
  -4  11 -13 62.6278 138.110   4
   4 -10  -3 207.648 158.355   2
   4 -10  -2 819.260 161.721   2
  -4  10   2 946.706 190.602   0
   4 -10  -1 263.880 152.947   2
  -4  10   1 542.851 183.113   0
   4 -10   0 34.4222 145.090   2
  -4  10   0-134.099 177.047   0
  -4  10  -1 76.8553 179.806   0
  -4  10  -2 53.4184 103.262   4
  -4  10  -2-75.9683 160.171   0
  -4  10  -3 46.1789 106.940   4
  -4  10  -3 18.6342 165.744   0
  -4  10  -4 63.8637 114.361   4
  -4  10  -4 72.7152 170.080   0
  -4  10  -5-7.83226 112.262   4
  -4  10  -5 86.0706 172.200   0
  -4  10  -6 338.802 127.022   4
  -4  10  -7 39.1802 121.677   4
  -4  10  -8 141.210 126.127   4
  -4  10  -9 108.786 128.795   4
  -4  10 -10-0.19029 128.409   4
  -4  10 -11-100.281 130.549   4
  -4  10 -12-169.222 137.560   4
   4  -9  -8 3.81674 141.439   2
  -4   9   8-78.4540 182.660   0
   4  -9  -7 582.871 152.554   2
  -4   9   7 324.068 178.250   0
   4  -9  -6-18.4606 111.042   2
  -4   9   6 164.224 164.794   0
  -4   9   5 195.790 160.384   0
   4  -9  -5 74.6723 110.619   2
   4  -9  -4 105.169 124.400   2
  -4   9   4 94.8954 157.863   0
  -4   9   3 87.5522 163.264   0
   4  -9  -3 90.7435 120.370   2
   4  -9  -2 160.498 125.281   2
  -4   9   2 328.845 172.861   0
   4  -9  -1 26.1561 120.508   2
  -4   9   1 144.183 164.180   0
  -4   9   0 2300.13 198.560   0
   4  -9   0 1118.40 128.265   2
  -4   9  -1 2917.83 200.383   0
   4  -9   1 2524.21 155.779   2
  -4   9  -1 2896.16 120.263   4
  -4   9  -2 77.7100 98.4895   4
  -4   9  -2-29.5516 145.579   0
  -4   9  -3 78.5886 96.6205   4
  -4   9  -3 89.7758 156.200   0
  -4   9  -4 13.1326 101.003   4
  -4   9  -4 171.496 163.130   0
  -4   9  -5 131.272 108.674   4
  -4   9  -5-8.82094 156.118   0
  -4   9  -6-8.20629 107.502   4
  -4   9  -6 121.980 143.396   0
  -4   9  -7 6.35259 108.968   4
  -4   9  -7 58.1777 163.996   0
  -4   9  -8 12.6334 116.246   4
  -4   9  -8 92.4218 170.153   0
  -4   9  -9 1119.50 178.178   0
  -4   9  -9 808.351 128.312   4
  -4   9 -10 278.889 188.548   0
  -4   9 -10-10.3445 119.149   4
  -4   9 -11 62.3038 125.814   4
  -4   8  12 167.473 179.231   0
   4  -8 -11-50.1181 155.306   2
  -4   8  11 29.1258 162.127   0
   4  -8 -10-76.0736 153.165   2
  -4   8  10 72.5635 171.561   0
  -4   8   9-79.9914 172.787   0
   4  -8  -9 60.5886 152.772   2
   4  -8  -8 19.9024 144.100   2
  -4   8   8-24.5990 161.450   0
   4  -8  -7 154.662 144.663   2
  -4   8   7 82.3737 161.804   0
   4  -8  -6-32.8760 140.450   2
  -4   8   6-96.4180 154.799   0
   4  -8  -5 606.583 140.335   2
  -4   8   5 912.920 160.762   0
   4  -8  -4 308.142 137.902   2
  -4   8   4 767.404 157.322   0
  -4   8   3 435.391 149.461   0
   4  -8  -3 164.764 128.219   2
   4  -8  -2 26.3576 117.964   2
  -4   8   2 82.5242 149.669   0
   4  -8  -1 54.0950 111.934   2
  -4   8   1 219.836 149.456   0
   4  -8   0 324.363 104.683   2
  -4   8   0 343.480 89.0845   4
  -4   8   0 454.618 157.314   0
   4  -8   1 463.163 101.573   2
  -4   8  -1 379.292 75.1766   4
  -4   8  -1 432.969 158.496   0
  -4   8  -2 1186.81 152.144   0
  -4   8  -2 978.506 95.1771   4
  -4   8  -3 352.870 153.343   0
  -4   8  -3 585.372 102.135   4
  -4   8  -4 137.803 95.5643   4
  -4   8  -4-77.7608 143.790   0
  -4   8  -5 92.9714 96.9392   4
  -4   8  -5 223.240 148.114   0
  -4   8  -6-10.6338 97.8181   4
  -4   8  -6 35.7211 157.751   0
  -4   8  -7 71.5963 104.265   4
  -4   8  -7 144.323 153.041   0
  -4   8  -8 151.425 152.069   0
  -4   8  -8 178.185 106.948   4
  -4   8  -9 91.6393 160.361   0
  -4   8  -9-53.6802 107.876   4
  -4   8 -10 183.020 168.371   0
  -4   8 -10-7.15016 107.712   4
  -4   8 -11 431.196 186.976   0
  -4   8 -12 42.9944 188.007   0
   4  -7 -14-29.2804 155.921   2
   4  -7 -13 317.746 164.814   2
  -4   7  13 176.643 181.090   0
   4  -7 -12 32.2767 149.573   2
  -4   7  12-18.0254 142.834   0
   4  -7 -11 166.403 150.679   2
  -4   7  11 181.219 146.297   0
   4  -7 -10 105.456 146.286   2
  -4   7  10 8.34620 161.204   0
   4  -7  -9-37.3382 143.433   2
  -4   7   9 85.3532 156.444   0
   4  -7  -8 32.6010 147.483   2
  -4   7   8 123.204 161.297   0
   4  -7  -7 550.807 141.815   2
  -4   7   7 573.004 153.983   0
   4  -7  -6 460.487 133.709   2
  -4   7   6 392.927 146.033   0
  -4   7   5 1978.63 150.364   3
  -4   7   5 2213.96 154.601   0
   4  -7  -4 428.263 125.310   2
  -4   7   4 718.632 136.267   0
  -4   7   4 589.017 130.863   3
  -4   7   3 74.1841 129.718   0
   4  -7  -3 27.7701 111.943   2
  -4   7   3 12.4464 111.936   3
   4  -7  -2 159.278 109.091   2
  -4   7   2 227.876 122.814   3
  -4   7   2 275.335 134.767   0
  -4   7   1 920.559 127.817   3
   4  -7  -1 720.943 111.485   2
  -4   7   1 836.037 142.754   0
  -4   7   0 70.9677 124.633   3
  -4   7   0 19.4407 72.0035   4
   4  -7   0 24.4868 99.5497   2
  -4   7   0 74.0659 134.731   0
  -4   7  -1 1883.25 150.718   0
   4  -7   1 1843.83 117.472   2
  -4   7  -1 1368.23 80.1466   4
  -4   7  -2 8.76404 83.2667   4
   4  -7   2 31.1294 91.2765   2
  -4   7  -2-21.7780 128.998   0
  -4   7  -3 10643.2 238.395   0
  -4   7  -3 10708.1 158.051   4
  -4   7  -4 7328.14 209.740   0
  -4   7  -4 7788.93 144.799   4
  -4   7  -5 22.2750 90.0144   4
  -4   7  -5 198.906 139.759   0
  -4   7  -6-7.39766 89.3090   4
  -4   7  -6-120.999 141.914   0
  -4   7  -7 125.530 144.361   0
  -4   7  -7 174.130 94.7338   4
  -4   7  -8 195.966 158.696   0
  -4   7  -8 24.9242 95.5104   4
  -4   7  -9 102.028 163.996   0
  -4   7  -9-32.6404 100.284   4
  -4   7 -10-17.9361 171.102   0
  -4   7 -11 38.6310 171.797   0
  -4   7 -12 39.4010 166.195   0
  -4   7 -13 120.785 166.492   0
   4  -7  13 57.1895 226.344   3
   4  -6 -16 77.9589 146.982   2
   4  -6 -15 110.520 153.830   2
   4  -6 -14-34.9040 130.169   2
   4  -6 -13 508.969 160.202   2
   4  -6 -12 497.353 155.385   2
  -4   6  12 396.855 135.175   0
   4  -6 -11 110.094 154.043   2
  -4   6  11 77.9613 138.622   0
   4  -6 -10 656.406 153.428   2
  -4   6  10 584.391 153.140   0
   4  -6  -9 379.891 134.904   2
  -4   6   9 272.649 138.559   0
   4  -6  -8 300.337 126.957   2
  -4   6   8 225.226 122.631   3
  -4   6   8 264.198 143.896   0
   4  -6  -7 236.673 133.244   2
  -4   6   7 284.045 126.510   3
  -4   6   7 222.707 135.279   0
   4  -6  -6 898.922 130.215   2
  -4   6   6 1017.48 138.950   3
  -4   6   6 1009.30 140.284   0
   4  -6  -5-1.10876 119.680   2
  -4   6   5-16.3264 114.639   0
  -4   6   5 37.6621 110.631   3
  -4   6   4 1675.30 134.107   3
  -4   6   4 1549.27 134.465   0
   4  -6  -4 1661.43 137.353   2
  -4   6   3 177.996 128.485   0
   4  -6  -3 133.191 122.490   2
  -4   6   3 134.377 127.019   3
   4  -6  -2 68.1792 119.077   2
  -4   6   2 38.1268 124.872   3
  -4   6   2 44.5876 125.426   0
  -4   6   1 56.5489 68.7214   4
   4  -6  -1 192.605 114.174   2
  -4   6   1 87.4413 123.148   3
  -4   6   1 71.7545 128.346   0
  -4   6   0 51.8376 73.1059   4
  -4   6   0 130.122 129.838   3
   4  -6   0 136.302 106.051   2
  -4   6   0 62.6997 125.665   0
  -4   6  -1 984.245 142.733   3
  -4   6  -1 770.101 135.230   0
   4  -6   1 1003.34 114.266   2
  -4   6  -1 698.908 69.6332   4
   4  -6   2 522.477 102.412   2
  -4   6  -2 417.942 125.681   0
  -4   6  -2 556.851 79.5131   4
  -4   6  -3 3098.12 153.728   0
  -4   6  -3 3232.89 102.778   4
  -4   6  -4 3381.26 158.444   0
  -4   6  -4 3776.23 108.325   4
  -4   6  -5 2903.93 160.004   0
  -4   6  -5 3260.70 110.412   4
  -4   6  -6 3195.09 165.845   0
  -4   6  -6 3392.44 114.540   4
  -4   6  -7 2563.12 167.293   0
  -4   6  -7 2450.59 111.149   4
  -4   6  -8 196.549 148.311   0
  -4   6  -9 142.663 159.114   0
  -4   6 -10-59.7638 162.360   0
  -4   6 -11 503.824 164.449   0
  -4   6 -12-72.1889 162.649   0
   4  -6  13 57.8708 195.242   3
  -4   6 -13 114.526 155.905   0
   4  -6  14 241.169 224.326   3
  -4   6 -14 143.173 166.649   0
   4  -5 -16 8.03399 146.972   2
   4  -5 -15 362.732 127.503   2
   4  -5 -14 5.63278 144.774   2
   4  -5 -13 208.657 148.648   2
   4  -5 -12 1685.32 159.036   2
   4  -5 -11 313.514 138.639   2
  -4   5  11 385.060 126.378   3
  -4   5  11 269.907 143.469   0
   4  -5 -10 180.446 129.441   2
  -4   5  10 35.0692 118.673   3
  -4   5  10 26.6691 123.061   0
   4  -5  -9 59.2829 119.620   2
  -4   5   9 83.6800 119.791   3
  -4   5   9 96.2084 131.501   0
  -4   5   8 3235.54 163.051   3
  -4   5   8 3018.66 162.037   0
  -4   5   7 2625.85 155.635   3
  -4   5   7 2984.28 153.471   0
  -4   5   6-1.81588 115.310   0
  -4   5   6 120.443 116.845   3
  -4   5   5 2995.83 149.618   3
  -4   5   5 2598.48 135.967   0
  -4   5   4 531.643 117.871   0
  -4   5   4 583.161 131.064   3
  -4   5   3 223.815 115.957   3
  -4   5   3 225.841 119.198   0
  -4   5   2 833.300 130.889   3
  -4   5   2 781.511 119.523   0
  -4   5   1 513.417 132.125   3
  -4   5   1 530.035 117.404   0
  -4   5   0 2488.53 147.957   3
  -4   5   0 2183.96 131.076   0
   4  -5   0 2212.70 111.068   2
  -4   5   0 2763.43 81.7071   4
  -4   5  -1 2216.13 146.002   3
  -4   5  -1 2350.69 133.200   0
   4  -5   1 2134.25 104.993   2
  -4   5  -1 2414.63 81.5668   4
  -4   5  -2 259.141 130.952   3
   4  -5   2 158.892 80.5092   2
  -4   5  -2 33.8234 107.594   0
  -4   5  -2 149.978 73.1676   4
   4  -5   3 261.242 80.4079   2
  -4   5  -3 201.454 115.148   0
  -4   5  -3 263.422 75.8256   4
  -4   5  -4-51.8634 117.895   0
  -4   5  -4-83.3543 76.8782   4
  -4   5  -5 24.6924 120.097   0
  -4   5  -6 1656.97 149.667   0
  -4   5  -7 37.5581 131.725   0
  -4   5  -8 254.484 146.682   0
  -4   5  -8 396.553 103.212   1
  -4   5  -9 1624.47 168.786   0
  -4   5  -9 1724.35 132.172   1
  -4   5 -10 906.609 158.560   0
  -4   5 -10 1111.77 126.801   1
  -4   5 -11-5.11794 109.610   1
  -4   5 -11 237.077 159.466   0
  -4   5 -12 257.790 115.608   1
  -4   5 -12 322.603 153.789   0
   4  -5  13 158.516 206.469   3
  -4   5 -13-8.29081 114.302   1
  -4   5 -13 119.466 172.618   0
   4  -5  14 135.168 179.121   3
  -4   5 -14 107.157 145.840   1
  -4   5 -14-31.4904 167.267   0
   4  -5  15 40.8086 213.226   3
  -4   5 -15 144.229 167.240   1
  -4   5 -15 278.199 182.932   0
   4  -4 -16-35.2593 137.117   2
   4  -4 -15 575.593 119.134   2
  -4   4  15 625.920 137.435   3
   4  -4 -14 96.8078 133.828   2
  -4   4  14 168.166 128.391   3
  -4   4  13 155.294 126.933   3
  -4   4  12 2936.39 153.122   3
  -4   4  11 101.581 115.245   3
  -4   4  10 9663.31 201.286   3
  -4   4  10 10059.8 200.090   0
  -4   4   9 11945.8 210.520   3
  -4   4   9 11980.7 214.544   0
  -4   4   8 606.392 120.132   3
  -4   4   8 689.778 125.274   0
  -4   4   7 253.045 117.747   0
  -4   4   7-2.12503 108.446   3
  -4   4   6 2489.61 148.984   3
  -4   4   6 2148.94 118.364   0
  -4   4   5 478.378 104.357   0
  -4   4   5 665.973 114.016   3
  -4   4   4 4543.23 150.394   3
  -4   4   4 4245.79 136.503   0
  -4   4   3 377.997 123.182   3
  -4   4   3 305.282 104.840   0
  -4   4   2 134.375 106.595   3
  -4   4   2 157.066 96.3284   0
  -4   4   1 4636.92 154.703   3
  -4   4   1 4170.68 136.116   0
  -4   4   0 932.624 122.336   3
  -4   4   0 704.394 104.901   0
  -4   4  -1 3121.07 144.626   3
  -4   4  -1 2882.06 123.185   0
  -4   4  -2 1227.45 124.028   3
  -4   4  -2 895.558 111.168   0
  -4   4  -3 44.8958 113.724   3
  -4   4  -3-86.2090 99.1351   0
  -4   4  -3 39.5734 57.5324   1
  -4   4  -4 1767.88 82.4225   1
  -4   4  -4 1539.72 129.761   0
  -4   4  -5 217.431 123.235   0
  -4   4  -5 84.5445 74.7098   1
  -4   4  -6 7549.22 161.107   1
  -4   4  -6 7259.24 208.218   0
  -4   4  -7 1960.14 120.550   1
  -4   4  -7 1933.72 160.095   0
  -4   4  -8 2839.37 167.269   0
  -4   4  -8 3549.16 144.513   1
  -4   4  -9 63.3690 131.033   0
  -4   4  -9 64.6853 110.392   1
  -4   4 -10 1142.40 148.172   0
  -4   4 -10 1586.84 139.324   1
  -4   4 -11 438.015 146.074   1
  -4   4 -11 307.344 157.010   0
  -4   4 -12 190.579 135.945   1
  -4   4 -12 265.245 175.242   0
   4  -4  13 312.110 194.882   3
  -4   4 -13 254.999 160.887   1
  -4   4 -13 178.877 165.478   0
   4  -4  14-16.1849 196.393   3
  -4   4 -14 128.168 162.774   1
  -4   4 -14 40.8259 171.432   0
   4  -4  15 191.871 205.421   3
  -4   4 -15-3.80715 141.202   1
  -4   4 -15 112.253 168.242   0
   4  -4  16-14.9428 220.080   3
  -4   4 -16 114.496 165.195   0
  -4   3  18 193.374 156.350   3
  -4   3  17 254.903 151.144   3
  -4   3  16 2.85144 131.085   3
  -4   3  15 138.582 133.124   3
  -4   3  14 102.293 125.711   3
  -4   3  13 155.018 120.061   3
  -4   3  12 944.632 123.970   3
  -4   3  11 136.321 113.446   3
  -4   3  10 226.977 113.299   3
  -4   3   9 3221.34 145.078   3
  -4   3   9 3753.00 129.678   0
  -4   3   8-25.6742 78.3411   0
  -4   3   8-1.73435 105.942   3
  -4   3   7 13045.4 204.321   3
  -4   3   7 11385.2 158.855   0
  -4   3   6 19949.0 236.265   3
  -4   3   6 19893.0 199.363   0
  -4   3   5 3460.26 129.141   3
  -4   3   5 3693.07 118.497   0
  -4   3   4 38871.9 326.330   3
  -4   3   4 33348.3 253.904   0
  -4   3   3 1649.17 100.100   0
  -4   3   3 1977.76 113.793   3
  -4   3   2 19901.2 133.919   1
  -4   3   2 19253.5 196.813   0
  -4   3   1 1130.98 104.895   3
  -4   3   1 950.348 87.5687   0
  -4   3   1 930.314 50.2714   1
  -4   3   0 76.6241 85.1366   0
  -4   3   0 23.5708 96.5546   3
  -4   3   0 53.0620 48.3271   1
  -4   3  -1 581.845 55.4053   1
  -4   3  -1 702.221 111.727   3
  -4   3  -1 777.890 97.2774   0
  -4   3  -2 899.808 112.086   3
  -4   3  -2 955.192 107.414   0
  -4   3  -3-1.53671 106.223   0
  -4   3  -3 119.782 110.582   3
  -4   3  -3-4.79236 63.6136   1
  -4   3  -4 5735.06 115.307   1
  -4   3  -4 6807.99 179.745   0
  -4   3  -5-44.4182 120.419   0
  -4   3  -5 64.4827 73.9441   1
  -4   3  -6 3117.03 120.132   1
  -4   3  -6 2804.25 153.121   0
  -4   3  -7 1680.19 148.876   0
  -4   3  -7 2047.59 111.799   1
  -4   3  -8 1094.20 138.545   0
  -4   3  -8 1139.62 109.286   1
  -4   3  -9 73.8366 103.795   1
  -4   3  -9-5.28293 141.019   0
  -4   3 -10 11.2786 109.756   1
  -4   3 -10-31.5294 144.436   0
  -4   3 -11 6.44718 120.739   1
  -4   3 -11 50.9521 154.183   0
   4  -3  12 320.400 173.684   3
  -4   3 -12 488.327 142.875   1
  -4   3 -12 446.591 174.593   0
   4  -3  13 36.8970 179.435   3
  -4   3 -13 264.809 139.374   1
  -4   3 -13 196.322 172.841   0
  -4   3 -14 1498.78 168.645   1
   4  -3  14 1018.12 173.642   3
  -4   3 -14 1163.04 183.241   0
   4  -3  15 217.065 198.452   3
  -4   3 -15-17.8480 152.434   1
  -4   3 -15 139.932 177.130   0
  -4   3 -16 167.834 191.228   0
  -4   2  19 147.759 181.470   3
  -4   2  18 24.1593 166.174   3
  -4   2  17-101.812 157.966   3
  -4   2  16 87.7270 153.766   3
  -4   2  15 535.204 163.694   3
  -4   2  14-104.456 139.269   3
  -4   2  13 334.555 136.865   3
  -4   2  12 2113.93 149.373   3
  -4   2  11 69.4273 119.428   3
   4  -2 -11 113.867 81.4613   1
  -4   2  10 62.3291 112.424   3
   4  -2 -10 229.479 78.7631   1
  -4   2   9 974.222 113.478   3
   4  -2  -9 1081.19 83.2012   1
  -4   2   8 2684.79 126.524   3
   4  -2  -8 3090.50 96.8260   1
  -4   2   8 2576.72 88.9641   0
  -4   2   7 3437.49 128.169   3
   4  -2  -7 3994.65 95.7053   1
  -4   2   7 3218.25 91.2062   0
  -4   2   6 117.890 89.7239   3
  -4   2   6 107.577 58.5108   0
  -4   2   5 2542.59 113.066   3
  -4   2   5 2489.65 86.2051   0
  -4   2   4 20831.9 226.042   3
  -4   2   4 20040.7 178.904   0
  -4   2   4 21725.1 220.968   2
  -4   2   3 10980.5 145.167   0
  -4   2   3 12046.4 167.970   2
  -4   2   2 4564.10 131.018   3
  -4   2   2 3963.66 111.395   0
  -4   2   2 4528.96 113.971   2
  -4   2   1 5697.37 123.193   0
  -4   2   1 5890.01 120.520   2
  -4   2   0 983.234 103.079   3
  -4   2   0 940.473 68.3348   1
  -4   2   0 1088.63 99.0087   0
  -4   2   0 998.996 77.8098   2
  -4   2  -1 6.41350 98.3569   0
  -4   2  -1-31.3985 97.3271   3
  -4   2  -1 18.1559 62.3014   1
  -4   2  -1 55.2256 64.9225   2
  -4   2  -2 56.6462 102.774   0
  -4   2  -2-98.0336 96.2253   3
  -4   2  -2-4.71319 71.8232   1
  -4   2  -2 15.0010 59.0840   2
  -4   2  -3 1073.65 110.942   3
  -4   2  -3 964.900 78.1869   1
  -4   2  -3 1212.60 118.255   0
  -4   2  -4-23.8190 112.005   0
  -4   2  -4 16.8725 73.1687   1
  -4   2  -5 164.043 84.4311   1
  -4   2  -5 166.287 114.691   0
  -4   2  -6 453.874 91.3495   1
  -4   2  -6 335.120 127.993   0
  -4   2  -7 1385.85 152.402   0
  -4   2  -7 1306.86 104.957   1
  -4   2  -8 247.799 94.2547   1
  -4   2  -8 304.540 145.954   0
  -4   2  -9 341.237 97.3743   1
  -4   2  -9 353.622 143.767   0
  -4   2 -10 141.379 110.882   1
  -4   2 -10 101.730 154.112   0
  -4   2 -11 258.558 120.435   1
  -4   2 -11 265.087 156.500   0
   4  -2  12 563.183 166.344   3
  -4   2 -12 455.842 136.851   1
  -4   2 -12 422.837 169.131   0
  -4   2 -13 146.978 135.182   1
  -4   2 -13 226.588 170.027   0
  -4   2 -14 677.642 148.618   1
  -4   2 -14 452.199 183.343   0
  -4   2 -15 537.094 179.619   0
  -4   2 -15 415.155 154.145   1
  -4   1  19 591.332 169.997   3
  -4   1  18 360.011 171.294   3
  -4   1  17 117.479 163.150   3
  -4   1  16-57.3072 160.961   3
   4  -1 -16-84.0318 112.070   1
  -4   1  15-3.41489 149.860   3
   4  -1 -15 150.790 111.427   1
   4  -1 -14 969.869 108.755   1
  -4   1  14 1055.01 154.451   3
  -4   1  13 640.816 141.534   3
   4  -1 -13 710.546 102.315   1
   4  -1 -12 678.806 92.3278   1
  -4   1  12 422.061 129.686   3
   4  -1 -11 51.0461 90.4698   1
  -4   1  11-11.6144 124.174   3
   4  -1 -10 315.681 101.713   1
  -4   1  10 84.3979 120.785   3
   4  -1  -9 886.855 95.9139   1
  -4   1   9 694.764 113.665   3
  -4   1   9 821.256 111.147   2
   4  -1  -8-29.4260 82.7813   1
  -4   1   8-146.840 99.8912   3
  -4   1   8-10.2064 98.9735   2
  -4   1   7 3703.24 122.423   3
  -4   1   7 4294.77 136.258   2
  -4   1   6 6565.60 142.273   3
  -4   1   6 6508.95 92.9299   0
  -4   1   6 7034.55 148.859   2
  -4   1   5 1219.34 96.3772   3
  -4   1   5 1112.94 61.4986   0
  -4   1   5 1317.41 90.6620   2
  -4   1   4 10302.8 164.148   3
  -4   1   4 11416.6 163.626   2
  -4   1   3 2341.30 94.8175   1
  -4   1   3 2329.38 105.670   3
  -4   1   3 2595.86 93.9038   0
  -4   1   3 2427.67 99.1709   2
  -4   1   2 61973.7 314.796   1
  -4   1   2 61724.5 314.468   0
  -4   1   2 60614.1 336.096   2
  -4   1   1 202720. 573.793   0
  -4   1   1 198966. 551.747   1
  -4   1   1 202897. 614.281   3
  -4   1   1 204912. 593.302   2
  -4   1   0 15494.7 195.215   3
  -4   1   0 15784.0 189.355   0
  -4   1   0 15052.6 175.516   1
  -4   1   0 16080.0 181.653   2
  -4   1  -1 13309.6 184.237   3
  -4   1  -1 13241.0 164.085   1
  -4   1  -1 12890.8 176.990   0
  -4   1  -1 13610.9 163.567   2
  -4   1  -2 1216.14 100.283   3
  -4   1  -2 1206.02 90.7704   1
  -4   1  -2 1445.46 107.224   0
  -4   1  -2 1268.35 81.2116   2
  -4   1  -3 98.9177 96.3236   3
  -4   1  -3 34.0363 81.2987   1
  -4   1  -3 59.0514 52.8673   2
  -4   1  -3 8.25614 109.453   0
  -4   1  -4 461.926 95.5684   1
  -4   1  -4 380.382 68.5539   2
  -4   1  -4 528.776 123.388   0
  -4   1  -5 1289.43 141.605   0
  -4   1  -5 1168.86 101.366   1
  -4   1  -6 1040.42 147.000   0
  -4   1  -6 1062.44 102.738   1
  -4   1  -7 529.395 104.764   1
  -4   1  -7 356.317 138.574   0
  -4   1  -8 7.49555 99.1482   1
  -4   1  -8 157.295 133.905   0
  -4   1  -9 889.471 113.702   1
  -4   1  -9 879.041 151.595   0
  -4   1 -10 194.387 114.002   1
  -4   1 -10 237.748 154.825   0
  -4   1 -11 190.435 117.138   1
  -4   1 -11 209.735 170.210   0
  -4   1 -12 134.054 123.594   1
  -4   1 -12 147.353 183.074   0
  -4   1 -13 89.1646 130.963   1
  -4   1 -14 63.7193 137.298   1
  -4   1 -15 134.677 155.333   1
   4   0 -20 185.720 149.399   1
  -4   0  19 149.475 170.635   3
   4   0 -19 118.559 150.550   1
  -4   0  18 12.5133 174.296   3
   4   0 -18 85.9890 135.216   1
  -4   0  17 78.7534 182.132   3
   4   0 -17 3.29504 115.513   1
  -4   0  16 639.190 179.723   3
   4   0 -16 397.056 114.090   1
  -4   0  15-15.5743 166.647   3
   4   0 -15 179.390 115.310   1
  -4   0  14 1387.37 171.091   3
   4   0 -14 1374.68 119.933   1
   4   0 -13 241.987 107.311   1
  -4   0  13 327.403 145.285   3
  -4   0  12 1275.42 149.441   3
   4   0 -12 1108.56 119.673   1
  -4   0  12 1086.38 119.291   2
   4   0 -11 2473.44 142.767   1
  -4   0  11 2457.72 139.425   2
  -4   0  10 2884.48 151.073   3
   4   0 -10 3209.30 129.822   1
  -4   0  10 3434.07 142.889   2
  -4   0   9 1402.14 125.027   3
   4   0  -9 1395.31 110.001   1
  -4   0   9 1252.16 112.106   2
  -4   0   8 1350.55 117.841   3
  -4   0   8 1284.27 107.559   2
  -4   0   7 308.025 98.3717   3
  -4   0   7 279.936 90.7567   2
  -4   0   6 2048.77 105.434   3
  -4   0   6 1951.98 104.436   2
  -4   0   5 24.5589 75.6807   3
  -4   0   5-60.3749 84.8635   2
  -4   0   5 34.1822 47.7903   0
  -4   0   4 2140.39 99.5257   3
  -4   0   4 2055.29 72.4899   0
  -4   0   4 2467.43 111.547   2
  -4   0   3 74.2884 77.9110   3
  -4   0   3 86.4518 85.7252   1
  -4   0   3 94.0208 81.2874   2
  -4   0   3 20.8379 55.1269   0
  -4   0   2 3866.89 121.501   1
  -4   0   2 3987.95 112.339   3
  -4   0   2 3615.79 98.5097   0
  -4   0   2 3965.41 119.885   2
  -4   0   1 42026.6 277.514   3
  -4   0   1 42797.8 290.294   1
  -4   0   1 41811.3 267.114   0
  -4   0   1 43183.2 299.138   2
  -4   0   0 25143.8 227.606   3
  -4   0   0 23030.1 228.083   1
  -4   0   0 22803.0 221.328   0
  -4   0   0 24368.4 233.950   2
  -4   0  -1 157342. 578.052   1
  -4   0  -1 157874. 514.607   3
  -4   0  -1 154285. 574.220   0
  -4   0  -1 159903. 552.427   2
  -4   0  -2 14762.3 178.289   3
  -4   0  -2 15151.5 208.608   0
  -4   0  -2 15023.3 192.621   1
  -4   0  -2 14670.0 180.674   2
  -4   0  -3 6537.42 150.704   1
  -4   0  -3 6358.49 162.150   0
  -4   0  -3 6535.89 130.932   2
  -4   0  -4 18.5553 90.5438   1
  -4   0  -4 97.5004 113.862   0
  -4   0  -4 46.8734 67.4718   2
  -4   0  -5 55.9343 92.4317   1
  -4   0  -5 147.647 126.019   0
  -4   0  -6 1477.05 153.506   0
  -4   0  -6 1545.07 121.820   1
  -4   0  -7 1193.29 151.531   0
  -4   0  -7 1495.74 126.165   1
  -4   0  -8 192.855 107.592   1
  -4   0  -8 131.546 148.968   0
  -4   0  -9 721.635 171.578   0
  -4   0  -9 708.486 116.843   1
  -4   0 -10 32.7554 114.754   1
  -4   0 -11 115.971 124.188   1
  -4   0 -12 591.079 143.970   1
  -4   0 -13 91.2315 145.495   1
  -4   0 -14 48.4349 152.876   1
   4   1 -20-28.8781 164.803   1
  -4  -1  19 524.458 217.411   3
   4   1 -19 324.929 149.465   1
  -4  -1  18 98.4019 169.936   3
   4   1 -18 233.981 139.089   1
  -4  -1  17 137.239 187.163   3
   4   1 -17 126.436 128.670   1
  -4  -1  16 22.6803 178.846   3
   4   1 -16 102.968 120.333   1
  -4  -1  15 353.987 174.691   3
   4   1 -15-14.5570 117.876   1
  -4  -1  14 3013.22 194.990   3
   4   1 -14 2567.66 143.557   1
  -4  -1  14 2868.21 139.850   2
  -4  -1  13 1983.06 169.982   3
   4   1 -13 1915.75 136.692   1
  -4  -1  13 1879.63 131.363   2
   4   1 -12 260.475 124.831   1
  -4  -1  12 414.087 149.108   3
  -4  -1  12 244.593 102.577   2
   4   1 -11 26.6563 113.823   1
  -4  -1  11 34.1070 139.067   3
  -4  -1  11 22.4177 99.6252   2
   4   1 -10 563.919 116.320   1
  -4  -1  10 632.672 142.419   3
  -4  -1  10 583.790 109.413   2
  -4  -1   9 1256.92 133.583   3
  -4  -1   9 1155.98 109.442   2
  -4  -1   8 920.684 116.254   3
  -4  -1   8 1067.59 109.961   2
  -4  -1   7 363.147 107.801   3
  -4  -1   7 367.719 102.978   2
  -4  -1   6 58.0655 88.9539   3
  -4  -1   6 70.4087 90.9579   2
  -4  -1   5 2790.46 105.028   3
  -4  -1   5 2696.45 119.900   2
  -4  -1   4 106.674 73.6434   3
  -4  -1   4 98.8427 92.1575   2
  -4  -1   3 981.751 99.3352   1
  -4  -1   3 895.129 85.4415   3
  -4  -1   3 974.422 97.2193   2
  -4  -1   2 41.6836 72.7196   3
  -4  -1   2 14.2383 86.6535   1
  -4  -1   2 15.2256 83.5973   2
  -4  -1   1 1957.68 106.641   1
  -4  -1   1 1891.97 110.876   2
  -4  -1   0 63.7746 94.2932   0
  -4  -1   0 25.5888 65.6438   3
  -4  -1   0 69.5076 87.9546   1
  -4  -1   0 42.2531 90.9651   2
  -4  -1  -1 131.974 73.5080   3
  -4  -1  -1 72.2002 89.7386   1
  -4  -1  -1 194.636 91.7846   2
  -4  -1  -2 582.056 96.7114   1
  -4  -1  -2 569.003 94.6520   2
  -4  -1  -3 5184.45 142.668   1
  -4  -1  -3 5024.18 134.948   2
  -4  -1  -4 14386.7 217.844   1
  -4  -1  -4 10539.4 168.964   2
  -4  -1  -5 1050.78 112.366   1
  -4  -1  -5 857.798 98.8253   2
  -4  -1  -6 137.293 99.5215   1
  -4  -1  -7 3925.08 148.195   1
  -4  -1  -8 9.06383 110.635   1
  -4  -1  -9 1594.11 144.787   1
  -4  -1 -10-44.8643 129.751   1
  -4  -1 -11 321.275 140.217   1
  -4  -1 -12-96.6747 147.028   1
  -4  -1 -13 12.7747 160.392   1
  -4  -1 -14 225.054 164.185   1
  -4  -2  19 479.065 206.479   3
   4   2 -19 492.777 147.566   1
  -4  -2  18 215.849 194.668   3
   4   2 -18 162.475 114.212   1
  -4  -2  17 108.128 179.192   3
   4   2 -17 83.0477 135.588   1
  -4  -2  16 76.3911 177.872   3
   4   2 -16 164.709 136.320   1
   4   2 -15 426.218 143.301   1
  -4  -2  15 312.961 170.530   3
  -4  -2  14 1643.86 176.764   3
   4   2 -14 1668.57 160.232   1
  -4  -2  14 1354.19 125.119   2
   4   2 -13 155.888 138.465   1
  -4  -2  13-48.3091 146.141   3
  -4  -2  13 82.8626 99.5341   2
   4   2 -12 16.5117 118.316   1
  -4  -2  12 197.873 138.062   3
  -4  -2  12 102.375 102.414   2
   4   2 -11 826.768 125.177   1
  -4  -2  11 951.913 145.974   3
  -4  -2  11 1003.82 114.538   2
  -4  -2  10 710.371 142.601   3
  -4  -2  10 573.567 112.059   2
  -4  -2   9 44.1433 132.064   3
  -4  -2   9-2.39247 105.466   2
  -4  -2   8 228.097 121.967   3
  -4  -2   8 102.356 99.6280   2
  -4  -2   7 1130.63 120.276   3
  -4  -2   7 1227.94 115.981   2
  -4  -2   6 208.211 94.9879   3
  -4  -2   6 474.522 100.369   2
  -4  -2   5 1620.51 105.279   3
  -4  -2   5 1602.27 109.276   2
  -4  -2   4 1259.86 78.1229   3
  -4  -2   4 1933.89 115.449   2
  -4  -2   3 39.9583 62.6075   3
  -4  -2   3 83.5986 103.639   1
  -4  -2   3-46.0484 95.0667   2
  -4  -2   2 827.153 112.579   1
  -4  -2   2 723.672 76.1012   3
  -4  -2   2 854.639 104.315   2
  -4  -2   1 155.556 107.594   1
  -4  -2   1 199.190 93.4811   2
  -4  -2   0 229.111 100.797   1
  -4  -2   0 245.219 100.144   2
  -4  -2  -1 213.955 99.3519   1
  -4  -2  -1 204.914 101.144   2
  -4  -2  -2 1886.70 123.528   1
  -4  -2  -2 2053.55 122.651   2
  -4  -2  -3 5602.62 163.302   1
  -4  -2  -3 5363.82 152.276   2
  -4  -2  -4 4760.70 153.787   1
  -4  -2  -4 5202.99 151.932   2
  -4  -2  -5 764.358 113.474   1
  -4  -2  -5 954.732 109.445   2
  -4  -2  -6 528.738 110.188   1
  -4  -2  -7 345.577 113.117   1
  -4  -2  -8 17.6196 113.777   1
  -4  -2  -9 33.9860 119.975   1
  -4  -2 -10 103.740 131.075   1
  -4  -2 -11 274.437 138.265   1
  -4  -2 -12-4.93502 118.729   1
  -4  -2 -13-28.2241 152.519   1
  -4  -3  18 39.0325 198.221   3
   4   3 -18 126.395 142.235   1
  -4  -3  17 77.2516 187.602   3
   4   3 -17 14.2062 126.457   1
   4   3 -16 89.6047 143.542   1
  -4  -3  16 43.1688 183.363   3
   4   3 -15 83.8053 151.967   1
  -4  -3  15 142.754 176.730   3
   4   3 -14 114.555 157.704   1
  -4  -3  14 195.658 172.570   3
   4   3 -13 698.358 153.103   1
  -4  -3  13 623.933 164.620   3
  -4  -3  13 627.968 113.164   2
  -4  -3  12 5156.82 208.810   3
   4   3 -12 5107.63 190.211   1
  -4  -3  12 5076.01 170.254   2
  -4  -3  11 18176.9 292.098   3
  -4  -3  11 18315.4 260.919   2
  -4  -3  10 465.938 141.749   3
  -4  -3  10 388.818 104.030   2
  -4  -3   9 226.442 134.408   3
  -4  -3   9 117.683 109.885   2
  -4  -3   8 300.219 127.062   3
  -4  -3   8 330.256 112.222   2
  -4  -3   7 5168.31 161.753   3
  -4  -3   7 4900.69 154.288   2
  -4  -3   6 831.577 110.768   3
  -4  -3   6 953.077 119.666   2
  -4  -3   5 799.293 114.301   2
  -4  -3   4 688.904 115.383   2
  -4  -3   3 3962.73 160.553   1
  -4  -3   3 3714.02 142.117   2
  -4  -3   2 55.4322 116.738   1
  -4  -3   2 17.3554 101.455   2
  -4  -3   1 4165.69 164.194   1
  -4  -3   1 3896.24 149.011   2
  -4  -3   0-28.1469 123.834   1
  -4  -3   0 96.6277 106.232   2
  -4  -3  -1 1121.61 124.229   1
  -4  -3  -1 1291.17 123.360   2
  -4  -3  -2 99.1351 112.530   1
  -4  -3  -2 50.4413 106.254   2
  -4  -3  -3 711.977 113.288   1
  -4  -3  -3 663.296 114.069   2
  -4  -3  -4 411.681 115.517   1
  -4  -3  -4 567.195 116.730   2
  -4  -3  -5 127.418 112.952   1
  -4  -3  -5 193.537 111.065   2
  -4  -3  -6 1742.48 137.844   1
  -4  -3  -6 1941.40 142.133   2
  -4  -3  -7 40.0550 123.277   1
  -4  -3  -8 16.4428 125.541   1
  -4  -3  -9 1955.34 158.475   1
  -4  -3 -10 1030.72 142.493   1
  -4  -3 -11 174.873 114.390   1
  -4  -3 -12 425.194 149.465   1
   4   4 -17 301.147 168.357   1
  -4  -4  17 461.516 198.944   3
   4   4 -16 41.0475 148.668   1
  -4  -4  16 73.7716 185.849   3
   4   4 -15 62.8612 145.911   1
  -4  -4  15 53.1996 174.531   3
   4   4 -14-23.7930 153.989   1
  -4  -4  14 180.700 175.385   3
   4   4 -13 137.822 146.116   1
  -4  -4  13 88.3621 164.678   3
  -4  -4  13 190.550 101.559   2
   4   4 -12 281.024 140.137   1
  -4  -4  12 251.707 163.668   3
  -4  -4  12 375.956 118.707   2
  -4  -4  11 2564.75 168.288   3
  -4  -4  11 3519.47 154.728   2
  -4  -4  10 2295.76 164.632   3
  -4  -4  10 2047.00 145.987   2
  -4  -4   9 7595.70 204.959   3
  -4  -4   9 7027.52 187.809   2
  -4  -4   8 110.267 114.805   2
  -4  -4   7 442.404 117.437   2
  -4  -4   6 1397.85 127.892   2
  -4  -4   5 53.9760 110.118   2
  -4  -4   4 369.283 116.589   2
  -4  -4   3 818.256 119.210   2
  -4  -4   2 176.979 126.158   1
  -4  -4   2 120.341 103.909   2
  -4  -4   1 363.051 126.884   1
  -4  -4   1 494.717 120.734   2
  -4  -4   0-56.0530 117.622   1
  -4  -4   0 129.577 114.630   2
  -4  -4  -1 64.6844 126.988   1
  -4  -4  -1 103.651 119.904   2
  -4  -4  -2 906.216 131.116   1
  -4  -4  -2 733.886 125.693   2
  -4  -4  -3 1085.03 134.191   1
  -4  -4  -3 1250.78 142.880   2
  -4  -4  -4 286.348 129.018   1
  -4  -4  -4 316.936 133.681   2
  -4  -4  -5 650.365 136.868   1
  -4  -4  -5 698.693 139.961   2
  -4  -4  -6-50.9514 133.190   1
  -4  -4  -6 35.8276 111.514   2
  -4  -4  -7 615.157 136.040   1
  -4  -4  -8 28.5819 134.048   1
  -4  -4  -9 241.697 125.237   1
  -4  -4 -10 170.971 125.888   1
  -4  -5  16 808.696 190.793   3
   4   5 -15 117.641 174.218   1
  -4  -5  15 223.663 167.118   3
   4   5 -14-43.2695 166.920   1
  -4  -5  14 143.639 163.270   3
   4   5 -13 55.6178 153.978   1
  -4  -5  13 133.067 164.854   3
   4   5 -12 78.1878 145.469   1
  -4  -5  12 89.1017 119.263   2
   4   5 -11-72.6574 105.486   4
  -4  -5  11 148.361 131.696   2
  -4  -5  10 25.0471 125.422   2
  -4  -5   9 57.2681 129.061   2
  -4  -5   8 1513.54 145.813   2
  -4  -5   7 1700.88 153.375   2
  -4  -5   6 3675.95 169.816   2
  -4  -5   5 131.085 120.156   2
  -4  -5   4 283.414 122.909   2
  -4  -5   3 67.7523 124.838   2
  -4  -5   2 429.557 131.758   2
  -4  -5   1 53.9026 143.149   1
  -4  -5   1 3.62831 123.798   2
   4   5   0 350.762 149.814   0
  -4  -5   0 461.462 157.649   1
  -4  -5   0 359.664 142.010   2
  -4  -5  -1 287.829 151.603   1
   4   5   1 85.7736 150.826   0
  -4  -5  -1 160.138 135.469   2
  -4  -5  -2-0.83222 151.300   1
   4   5   2 79.3135 159.060   0
  -4  -5  -2 169.117 141.644   2
   4   5   3 110.040 160.910   0
  -4  -5  -3 45.1627 138.020   1
  -4  -5  -3 76.9986 143.419   2
  -4  -5  -4 572.990 150.346   1
  -4  -5  -4 570.554 153.919   2
  -4  -5  -5 118.756 137.066   1
  -4  -5  -5 12.8052 135.215   2
  -4  -5  -6 292.620 134.160   1
  -4  -5  -6 195.034 136.285   2
  -4  -5  -7 63.0677 110.129   1
  -4  -5  -8 57.3614 139.569   1
   4   6 -13-27.5915 168.020   1
   4   6 -12 37.0456 113.521   4
   4   6 -12 31.4643 156.731   1
   4   6 -11 14.3780 112.841   4
  -4  -6  11-148.430 130.417   2
   4   6 -10 66.4928 112.973   4
  -4  -6  10 53.8946 136.087   2
  -4  -6   9 2.97526 136.117   2
  -4  -6   8 1026.12 155.245   2
  -4  -6   7 534.519 146.765   2
  -4  -6   6 495.479 146.906   2
  -4  -6   5 1070.28 153.065   2
  -4  -6   4 4428.55 197.872   2
  -4  -6   3 1658.04 162.151   2
  -4  -6   2 231.307 139.562   2
  -4  -6   1 1667.03 171.326   2
  -4  -6   0 348.056 155.782   1
  -4  -6   0 261.441 144.289   2
  -4  -6  -1 115.855 163.905   1
  -4  -6  -1 299.278 156.532   2
  -4  -6  -2-44.9576 154.681   1
   4   6   2 128.274 160.665   0
  -4  -6  -2 109.044 152.664   2
  -4  -6  -3-27.9911 159.162   1
   4   6   3 131.244 175.022   0
  -4  -6  -3 139.769 161.691   2
   4   6   4 559.894 178.301   0
  -4  -6  -4 570.497 167.591   1
  -4  -6  -4 403.296 144.556   2
   4   6   5 139.118 182.319   0
  -4  -6  -5 135.634 149.437   1
  -4  -6  -5 251.359 161.454   2
   4   6   6 62.3693 183.043   0
  -4  -6  -6 4.82635 148.484   1
  -4  -6  -6 83.2593 168.274   2
   4   7 -13 32.3076 134.786   4
   4   7 -12-54.3383 124.648   4
   4   7 -11 316.216 135.675   4
  -4  -7  11 446.364 154.399   2
   4   7 -10 442.420 133.960   4
  -4  -7  10 232.193 155.863   2
  -4  -7   9-66.6149 145.942   2
  -4  -7   8 51.5618 124.721   2
  -4  -7   7 72.1806 128.821   2
  -4  -7   6 81.9220 127.909   2
  -4  -7   5-10.9858 123.385   2
  -4  -7   4 252.816 133.224   2
  -4  -7   3 337.262 155.998   2
  -4  -7   2 625.288 165.881   2
  -4  -7   1 1627.95 193.623   2
  -4  -7   0 547.327 170.537   2
  -4  -7  -1 317.370 168.757   2
  -4  -7  -2 179.772 165.895   1
  -4  -7  -3-23.0919 160.398   1
   4   8 -13 86.7867 145.568   4
   4   8 -12 130.303 145.086   4
   4   8 -11-290.039 144.242   4
   4   8 -10-50.1213 145.734   4
   4   8  -9 103.347 150.619   4
   4   9 -14 524.712 151.386   4
   4   9 -13 534.232 156.297   4
   4   9 -12 379.545 151.711   4
   4   9 -11 72.1997 150.983   4
   4   9 -10-69.3739 151.334   4
   4   9  -9-62.8215 156.947   4
   4   9  -8 197.984 157.383   4
   4  10 -12 147.479 152.400   4
   4  10 -11 174.669 161.225   4
   4  10 -10-75.8390 134.550   4
   4  10  -9 23.5881 123.427   4
   4  10  -8 39.2092 132.584   4
   4  10  -7-11.9565 132.446   4
  -5  12  -6 80.3865 131.218   4
  -5  12  -7-50.1970 117.612   4
  -5  12  -8-40.8686 112.466   4
  -5  12  -9-3.31964 112.839   4
  -5  12 -10 169.009 138.904   4
  -5  11  -4 162.275 125.901   4
  -5  11  -5-7.79035 101.785   4
  -5  11  -6 23.7694 118.146   4
  -5  11  -7-3.72167 127.730   4
  -5  11  -8 118.208 136.541   4
  -5  11  -9-64.1923 132.412   4
  -5  11 -10 6.74377 129.864   4
   5 -10  -3 113.347 136.011   2
   5 -10  -2 52.6972 139.577   2
  -5  10  -3-15.4693 115.303   4
  -5  10  -4-18.1151 116.132   4
  -5  10  -5 189.653 119.678   4
  -5  10  -6-42.6228 119.721   4
  -5  10  -7 564.505 136.330   4
  -5  10  -8-43.7001 124.265   4
  -5  10  -9 0.56518 127.872   4
  -5   9   8-42.3813 160.193   0
  -5   9   7 139.848 167.295   0
   5  -9  -7-24.3244 160.448   2
  -5   9   6 11.1867 169.586   0
   5  -9  -6-99.6181 127.667   2
   5  -9  -5 14.2646 120.646   2
  -5   9   5 241.911 173.660   0
   5  -9  -4 336.251 132.726   2
  -5   9   4 567.305 177.649   0
   5  -9  -3 41.6982 129.377   2
  -5   9   3-31.0240 166.572   0
   5  -9  -2 52.7589 116.899   2
  -5   9   2 14.6917 160.589   0
   5  -9  -1 126.828 117.122   2
  -5   9   1 172.351 167.390   0
  -5   9   0 496.408 154.437   0
  -5   9  -1-52.8863 164.246   0
  -5   9  -2 16.0284 104.437   4
  -5   9  -2 30.3872 135.831   0
  -5   9  -3 74.6151 107.188   4
  -5   9  -3 2.44594 135.686   0
  -5   9  -4 34.6788 103.877   4
  -5   9  -4-23.7648 131.833   0
  -5   9  -5 50.9596 139.221   0
  -5   9  -5 5.42260 110.013   4
  -5   9  -6-113.847 142.870   0
  -5   9  -6 28.6271 116.183   4
  -5   9  -7 618.935 182.653   0
  -5   9  -7 273.831 116.615   4
  -5   9  -8-22.7812 175.402   0
  -5   9  -8-122.885 119.656   4
  -5   8  12-159.381 170.062   0
   5  -8 -11 86.8089 163.813   2
  -5   8  11-21.0220 175.667   0
   5  -8 -10 228.573 169.089   2
  -5   8  10 68.6432 145.015   0
   5  -8  -9 23.2306 154.144   2
  -5   8   9 137.184 140.558   0
   5  -8  -8-26.1269 132.262   2
  -5   8   8 47.1475 154.923   0
  -5   8   7 34.2822 149.678   0
   5  -8  -7 22.5351 147.581   2
  -5   8   6 145.813 158.564   0
   5  -8  -6 67.7565 145.788   2
   5  -8  -5 151.438 141.133   2
  -5   8   5-19.2189 161.929   0
   5  -8  -4 52.3946 134.618   2
  -5   8   4 7.70440 127.225   3
  -5   8   4 42.4935 158.052   0
   5  -8  -3 197.426 131.505   2
  -5   8   3 263.952 132.862   3
  -5   8   3 199.402 165.072   0
   5  -8  -2 44.4348 123.498   2
  -5   8   2 32.1877 147.714   3
  -5   8   2 10.2546 155.842   0
   5  -8  -1 209.830 122.112   2
  -5   8   1 229.436 148.226   3
  -5   8   1 259.145 152.090   0
  -5   8   0 731.901 155.031   0
   5  -8   0 898.404 126.439   2
  -5   8  -1 109.709 152.001   0
  -5   8  -2 356.148 92.4686   4
  -5   8  -2 359.945 156.229   0
  -5   8  -3 1427.18 170.998   0
  -5   8  -3 894.213 91.6645   4
  -5   8  -4 78.4204 157.044   0
  -5   8  -4 156.661 101.000   4
  -5   8  -5 4.27182 154.632   0
  -5   8  -5 43.9843 103.275   4
  -5   8  -6 61.2884 160.559   0
  -5   8  -6 167.424 102.027   4
  -5   8  -7 127.985 158.096   0
  -5   8  -8 145.017 145.967   0
  -5   8  -9 10.5770 153.984   0
  -5   8 -10 39.3319 187.922   0
   5  -7 -13 1686.05 196.243   2
   5  -7 -12 633.216 173.925   2
   5  -7 -11 202.416 162.387   2
  -5   7  11 65.0237 152.568   0
   5  -7 -10 574.690 159.519   2
  -5   7  10 546.474 134.031   0
   5  -7  -9 17.6331 150.636   2
  -5   7   9 20.4712 138.534   0
   5  -7  -8 296.143 159.154   2
  -5   7   8 397.168 153.629   0
  -5   7   7 714.739 147.017   0
   5  -7  -7 454.637 146.614   2
  -5   7   7 466.178 144.567   3
  -5   7   6-6.46593 140.519   0
   5  -7  -6 32.9225 143.215   2
  -5   7   6-106.081 126.870   3
   5  -7  -5 44.8773 137.975   2
  -5   7   5 28.8926 135.135   3
  -5   7   5 52.8761 142.405   0
   5  -7  -4 129.289 127.963   2
  -5   7   4 166.608 143.992   3
  -5   7   4 169.941 144.740   0
  -5   7   3 934.462 145.847   3
   5  -7  -3 922.543 136.889   2
  -5   7   3 1051.94 155.302   0
   5  -7  -2-5.84802 116.904   2
  -5   7   2 48.8281 134.886   3
  -5   7   2 32.2941 135.496   0
   5  -7  -1 25.8891 111.855   2
  -5   7   1 143.765 138.085   3
  -5   7   1 27.8933 120.392   0
  -5   7   0 1164.16 156.824   3
  -5   7   0 755.596 145.727   0
   5  -7   0 1081.07 122.672   2
   5  -7   1 205.870 106.463   2
  -5   7  -1 214.372 144.345   3
  -5   7  -1 86.0921 136.218   0
  -5   7  -1 147.673 81.4195   4
  -5   7  -2 4145.17 190.839   0
  -5   7  -2 3299.31 103.219   4
  -5   7  -3 1415.49 158.670   0
  -5   7  -3 1558.21 101.101   4
  -5   7  -4 272.202 147.664   0
  -5   7  -4 222.516 90.8814   4
  -5   7  -5 331.726 149.712   0
  -5   7  -6 1987.58 177.706   0
  -5   7  -7 28.1459 163.058   0
  -5   7  -8 555.569 169.122   0
  -5   7  -9 171.245 183.214   0
  -5   7 -10 42.0789 154.033   0
  -5   7 -11-18.3076 164.632   0
  -5   7 -12 97.6956 177.446   0
   5  -6 -15 201.654 165.463   2
   5  -6 -14 5.70882 159.340   2
   5  -6 -13 22.1490 155.705   2
   5  -6 -12 108.152 162.178   2
  -5   6  11 1551.18 150.158   3
   5  -6 -11 1445.15 169.691   2
   5  -6 -10 822.000 156.435   2
  -5   6  10 587.161 122.096   0
  -5   6  10 734.448 145.497   3
   5  -6  -9 289.740 145.901   2
  -5   6   9 225.723 132.058   0
  -5   6   9 146.248 135.838   3
  -5   6   8 186.409 132.511   0
   5  -6  -8 247.049 140.067   2
  -5   6   8 371.387 136.370   3
  -5   6   7 55.4411 130.273   0
   5  -6  -7 112.770 121.409   2
  -5   6   7 249.888 144.181   3
   5  -6  -6 413.366 129.068   2
  -5   6   6 665.982 141.759   3
  -5   6   6 868.501 142.437   0
  -5   6   5 261.342 129.190   3
  -5   6   5 486.179 129.872   0
  -5   6   4 234.319 133.643   3
  -5   6   4 73.2619 124.236   0
   5  -6  -3 52.0909 113.456   2
  -5   6   3 94.2420 137.244   3
  -5   6   3 48.6341 124.000   0
   5  -6  -2 74.7042 111.580   2
  -5   6   2 62.2332 132.252   3
  -5   6   2 55.9704 108.773   0
   5  -6  -1 42.2808 106.524   2
  -5   6   1 72.5810 130.877   3
  -5   6   1-31.2595 120.619   0
   5  -6   0 81.0607 98.5448   2
  -5   6   0 125.962 131.689   3
  -5   6   0 136.983 119.636   0
  -5   6   0 20.8894 62.8484   4
   5  -6   1 131.001 99.1890   2
  -5   6  -1 118.006 135.016   3
  -5   6  -1 68.5816 121.557   0
  -5   6  -1 73.4057 71.0455   4
  -5   6  -2 906.668 149.402   3
  -5   6  -2 876.487 132.230   0
  -5   6  -3 334.818 131.271   0
  -5   6  -4 320.808 135.909   0
  -5   6  -5 5648.83 200.555   0
  -5   6  -6 384.849 158.993   0
  -5   6  -7 291.492 165.077   0
  -5   6  -8 8611.32 262.023   0
  -5   6  -9 11.9532 170.935   0
  -5   6 -10 1857.02 195.479   0
  -5   6 -11 98.8251 152.874   0
  -5   6 -12 6.82474 140.673   0
  -5   6 -13 162.793 187.747   0
   5  -5 -17 160.469 158.038   2
   5  -5 -16 432.904 163.646   2
   5  -5 -15 257.302 138.391   2
   5  -5 -14 126.795 152.089   2
  -5   5  14 114.665 136.776   3
  -5   5  13 110.488 136.138   3
  -5   5  12 77.6550 138.187   3
  -5   5  11 959.014 149.328   3
  -5   5  10 2557.53 166.319   3
  -5   5   9 1885.97 172.325   3
  -5   5   9 1898.72 143.353   0
  -5   5   8 72.8586 114.544   0
  -5   5   8 78.5358 132.002   3
  -5   5   7 241.888 127.556   3
  -5   5   7 347.245 125.713   0
  -5   5   6 1770.03 151.331   3
  -5   5   6 2222.66 138.722   0
  -5   5   5 247.011 137.059   3
  -5   5   5 69.6430 116.914   0
  -5   5   4 315.897 135.097   3
  -5   5   4 247.635 122.372   0
  -5   5   3 204.852 130.046   3
  -5   5   3 171.939 107.258   0
  -5   5   2 22.9836 135.878   3
  -5   5   2-46.9345 115.576   0
  -5   5   1 37.7326 141.213   3
  -5   5   1 112.166 117.864   0
  -5   5   0-75.2356 138.052   3
  -5   5   0-1.87899 109.493   0
  -5   5  -1 1262.39 146.010   3
  -5   5  -1 1196.76 133.395   0
  -5   5  -2 44.8910 135.234   3
  -5   5  -2 75.0556 120.045   0
  -5   5  -3 26.0568 114.236   0
  -5   5  -4-40.2110 130.418   0
  -5   5  -5 46.8031 132.082   0
  -5   5  -6 380.165 152.905   0
  -5   5  -7 2640.18 186.038   0
  -5   5  -8 412.748 167.832   0
  -5   5  -9 2294.35 188.508   0
  -5   5 -10 3535.73 201.666   0
  -5   5 -11 313.057 172.157   0
  -5   5 -12 297.137 163.652   0
  -5   5 -13 77.2464 172.446   0
  -5   5 -14 26.3323 191.801   0
   5  -4 -17 93.3052 146.749   2
  -5   4  17 196.473 160.184   3
  -5   4  16 215.629 151.822   3
  -5   4  15 56.6297 121.852   3
  -5   4  14 16.4940 138.558   3
  -5   4  13 242.175 135.377   3
  -5   4  12 137.473 132.537   3
  -5   4  11 213.104 129.076   3
  -5   4  10 2469.24 151.085   3
  -5   4   9 614.576 130.100   3
  -5   4   8 8353.33 201.444   3
  -5   4   8 8865.02 184.710   0
  -5   4   7 753.360 142.290   3
  -5   4   7 1065.94 119.594   0
  -5   4   6 390.443 136.873   3
  -5   4   6 314.338 111.581   0
  -5   4   5 25.4248 123.510   3
  -5   4   5 25.4890 96.4538   0
  -5   4   4 624.285 130.455   3
  -5   4   4 566.625 106.939   0
  -5   4   3 296.013 136.898   3
  -5   4   3 160.201 100.183   0
  -5   4   2 974.043 130.885   3
  -5   4   2 818.982 110.297   0
  -5   4   1 422.966 128.809   3
  -5   4   1 264.054 107.383   0
  -5   4   0 629.112 136.814   3
  -5   4   0 652.373 114.925   0
  -5   4  -1 725.478 136.202   3
  -5   4  -1 629.534 116.173   0
  -5   4  -2 768.398 137.083   3
  -5   4  -2 681.683 122.389   0
  -5   4  -3-60.1538 131.055   0
  -5   4  -3 85.6515 132.976   3
  -5   4  -4 632.539 140.430   0
  -5   4  -5 369.686 141.120   0
  -5   4  -5 386.644 81.2274   1
  -5   4  -6 283.127 140.267   0
  -5   4  -6 202.799 81.1413   1
  -5   4  -7 46.0389 143.380   0
  -5   4  -7 31.4165 82.5620   1
  -5   4  -8 383.581 99.6396   1
  -5   4  -8 375.214 153.625   0
  -5   4  -9-45.6268 89.5001   1
  -5   4  -9 2.28875 151.741   0
  -5   4 -10 2219.08 200.262   0
  -5   4 -10 1480.13 121.462   1
  -5   4 -11 5097.08 243.736   0
  -5   4 -11 3099.77 154.172   1
  -5   4 -12 43.9569 110.816   1
  -5   4 -12-150.952 180.886   0
   5  -4  13 6.05191 205.221   3
  -5   4 -13 60.5004 118.091   1
  -5   4 -13-46.7928 158.589   0
   5  -4  14 15.3967 208.453   3
  -5   4 -14-11.5369 140.810   1
  -5   4 -14-162.717 179.382   0
  -5   3  18 11.5432 149.575   3
  -5   3  17 88.4977 151.120   3
  -5   3  16-7.30616 138.150   3
  -5   3  15 42.0803 141.989   3
  -5   3  14 88.1548 138.350   3
  -5   3  13 251.829 131.677   3
  -5   3  12-16.3651 123.907   3
  -5   3  11-59.1433 120.970   3
  -5   3  10 774.419 128.240   3
  -5   3   9 543.290 125.342   3
  -5   3   8 1745.74 137.345   3
  -5   3   7 30.9488 113.769   3
  -5   3   7-55.3374 82.9124   0
  -5   3   6 5001.52 164.268   3
  -5   3   6 3376.83 111.001   0
  -5   3   5 145.327 131.294   3
  -5   3   5 19.5978 84.3443   0
  -5   3   4 68.6435 115.089   3
  -5   3   4-47.1263 84.2771   0
  -5   3   3 7.93160 113.847   3
  -5   3   3 68.5372 95.0980   0
  -5   3   2 3271.35 158.442   3
  -5   3   2 2887.01 125.922   0
  -5   3   1 1386.56 125.986   3
  -5   3   1 1263.32 115.420   0
  -5   3   0 150.404 114.940   0
  -5   3   0 116.484 124.993   3
  -5   3   0 144.538 69.4565   1
  -5   3  -1 126.285 116.177   0
  -5   3  -1 45.0901 124.414   3
  -5   3  -1 107.792 67.4005   1
  -5   3  -2 139.050 126.694   0
  -5   3  -2 57.2502 120.911   3
  -5   3  -2 22.2753 71.4732   1
  -5   3  -3-27.1502 127.713   0
  -5   3  -3 84.8227 127.574   3
  -5   3  -3 23.6506 77.3084   1
  -5   3  -4 1124.14 101.138   1
  -5   3  -4 1384.13 147.596   0
  -5   3  -5 1322.80 102.886   1
  -5   3  -5 1693.80 149.416   0
  -5   3  -6-9.31753 87.9769   1
  -5   3  -6-25.5752 128.436   0
  -5   3  -7 587.881 105.934   1
  -5   3  -7 603.702 139.244   0
  -5   3  -8-39.0047 93.8494   1
  -5   3  -8 18.4339 151.858   0
  -5   3  -9 153.336 108.687   1
  -5   3  -9 67.6302 164.024   0
  -5   3 -10-12.7565 109.325   1
  -5   3 -10 135.599 171.137   0
  -5   3 -11 231.551 126.306   1
  -5   3 -11 204.220 182.833   0
  -5   3 -12 5901.06 248.109   0
  -5   3 -12 5688.29 200.208   1
  -5   3 -13 4088.99 214.737   0
  -5   3 -13 4968.41 200.081   1
  -5   3 -14 183.162 144.119   1
  -5   3 -14 317.572 188.973   0
  -5   2  19-132.160 169.426   3
  -5   2  18 33.1454 140.049   3
  -5   2  17 55.2446 156.407   3
  -5   2  16 211.248 155.155   3
  -5   2  15 44.2715 146.592   3
  -5   2  14 475.645 144.831   3
  -5   2  13 169.001 127.047   3
  -5   2  12 191.603 119.026   3
  -5   2  11 107.811 112.948   3
  -5   2  10 1003.15 128.116   3
  -5   2   9 1045.93 126.534   3
  -5   2   8-9.50525 113.872   3
  -5   2   7 1442.22 126.531   3
  -5   2   7 1507.10 124.024   2
  -5   2   6 43.8926 106.270   3
  -5   2   6 222.020 77.1571   0
  -5   2   6 236.775 101.692   2
  -5   2   5 876.422 114.736   3
  -5   2   5 841.366 111.136   2
  -5   2   4 396.805 77.0448   0
  -5   2   4 629.746 126.790   3
  -5   2   4 611.410 103.295   2
  -5   2   3-20.8249 97.6345   0
  -5   2   3 24.2621 109.374   3
  -5   2   3 27.3812 62.8379   1
  -5   2   3 108.814 95.2658   2
  -5   2   2 11887.1 205.492   3
  -5   2   2 12166.3 183.762   0
  -5   2   2 11724.1 185.743   2
  -5   2   1 14.3500 112.306   0
  -5   2   1 87.7667 114.825   3
  -5   2   1 55.2768 64.7705   1
  -5   2   1 107.238 87.8319   2
  -5   2   0 3189.15 139.194   3
  -5   2   0 3573.75 144.628   0
  -5   2   0 3168.50 107.677   1
  -5   2   0 3128.42 114.812   2
  -5   2  -1 1153.76 129.421   3
  -5   2  -1 1127.28 91.9085   1
  -5   2  -1 1258.91 124.341   0
  -5   2  -1 951.144 91.0393   2
  -5   2  -2 43.9509 117.960   0
  -5   2  -2 45.1109 114.888   3
  -5   2  -2 0.13136 80.0238   1
  -5   2  -2 36.2470 63.6038   2
  -5   2  -3 113.402 120.202   3
  -5   2  -3 197.742 86.8243   1
  -5   2  -3 38.6089 117.164   0
  -5   2  -4-42.0371 95.5632   1
  -5   2  -4 3.02111 128.742   0
  -5   2  -5 231.493 98.1917   1
  -5   2  -5 339.886 141.654   0
  -5   2  -6 75.1479 92.4971   1
  -5   2  -6 87.4214 142.787   0
  -5   2  -7 818.873 110.409   1
  -5   2  -7 468.009 154.700   0
  -5   2  -8 62.3916 100.081   1
  -5   2  -8-120.737 154.454   0
  -5   2  -9-72.3886 116.409   1
  -5   2  -9 20.7693 163.321   0
  -5   2 -10 855.527 136.553   1
  -5   2 -10 841.611 171.103   0
  -5   2 -11 47.8231 126.683   1
  -5   2 -11 388.728 175.337   0
  -5   2 -12 1557.85 196.658   0
  -5   2 -12 1154.21 153.387   1
  -5   2 -13 137.525 147.384   1
  -5   2 -13 169.538 164.725   0
  -5   2 -14 968.801 164.568   1
  -5   2 -14 776.458 216.605   0
  -5   1  19 522.994 197.721   3
  -5   1  18 497.934 160.147   3
  -5   1  17 64.8237 173.139   3
  -5   1  16 204.830 168.096   3
  -5   1  15 348.197 158.515   3
  -5   1  14-13.5022 148.325   3
   5  -1 -13 92.7943 98.3590   1
  -5   1  13-82.1213 136.159   3
   5  -1 -12 364.741 99.4549   1
  -5   1  12 332.679 131.602   3
   5  -1 -11 136.604 105.551   1
  -5   1  11 98.3069 116.634   3
  -5   1  11-53.5213 108.025   2
   5  -1 -10 133.538 103.461   1
  -5   1  10 101.431 108.666   3
  -5   1  10 50.4630 114.840   2
   5  -1  -9 13.3454 88.2273   1
  -5   1   9 120.311 106.710   3
  -5   1   9 72.4889 111.413   2
  -5   1   8 758.417 114.074   3
  -5   1   8 796.793 128.049   2
  -5   1   7 876.400 118.258   3
  -5   1   7 1063.85 113.792   2
  -5   1   6 920.069 113.195   3
  -5   1   6 965.355 107.825   2
  -5   1   5 8460.07 170.837   3
  -5   1   5 8232.55 169.323   2
  -5   1   4-33.8641 74.5651   0
  -5   1   4 29.1946 103.888   3
  -5   1   4 53.0504 94.6570   2
  -5   1   3 44.9749 69.3766   0
  -5   1   3 7.46394 112.402   3
  -5   1   3 77.4981 89.1946   1
  -5   1   3 85.8235 98.9578   2
  -5   1   2 5508.54 146.344   1
  -5   1   2 5058.42 146.780   3
  -5   1   2 4880.58 131.099   0
  -5   1   2 5069.50 145.858   2
  -5   1   1 545.408 112.279   3
  -5   1   1 364.434 92.9403   1
  -5   1   1 600.910 95.9194   2
  -5   1   1 553.623 102.659   0
  -5   1   0 2424.37 126.653   3
  -5   1   0 2272.26 117.067   1
  -5   1   0 2545.63 132.920   0
  -5   1   0 2659.29 120.496   2
  -5   1  -1 1274.71 120.355   3
  -5   1  -1 1336.12 107.521   1
  -5   1  -1 1075.47 128.174   0
  -5   1  -1 1237.59 105.827   2
  -5   1  -2 423.467 113.498   3
  -5   1  -2 429.009 96.5975   1
  -5   1  -2 241.283 76.5911   2
  -5   1  -2 283.563 126.411   0
  -5   1  -3 799.991 121.243   3
  -5   1  -3 614.598 99.6557   1
  -5   1  -3 742.941 87.9872   2
  -5   1  -3 709.585 139.613   0
  -5   1  -4 196.392 91.3402   1
  -5   1  -4 192.435 138.818   0
  -5   1  -5 195.741 101.309   1
  -5   1  -5 132.010 135.792   0
  -5   1  -6-40.0206 101.331   1
  -5   1  -6 190.508 139.010   0
  -5   1  -7 245.015 108.714   1
  -5   1  -7 180.914 139.951   0
  -5   1  -8 104.375 117.130   1
  -5   1  -8-13.6333 154.475   0
  -5   1  -9-89.9262 124.672   1
  -5   1  -9-13.7168 162.773   0
  -5   1 -10 11.2049 133.501   1
  -5   1 -10 226.297 178.696   0
  -5   1 -11 196.863 133.212   1
  -5   1 -11 632.073 195.493   0
  -5   1 -12 29.3326 150.727   1
  -5   1 -13-100.830 152.798   1
  -5   0  18 1226.13 197.419   3
  -5   0  17 640.354 166.537   3
   5   0 -17 664.601 130.884   1
  -5   0  16 1786.67 191.621   3
   5   0 -16 1592.89 129.248   1
  -5   0  15 720.500 168.230   3
   5   0 -15 492.862 118.553   1
   5   0 -14 1096.04 126.253   1
  -5   0  14 987.606 165.510   3
  -5   0  14 845.726 130.767   2
   5   0 -13 22.3333 126.077   1
  -5   0  13-41.9972 140.923   3
  -5   0  13 9.52365 117.354   2
   5   0 -12 205.862 121.890   1
  -5   0  12 111.417 132.412   3
  -5   0  12 279.789 117.219   2
   5   0 -11 25.9178 102.097   1
  -5   0  11 30.0350 119.959   3
  -5   0  11 3.46848 115.919   2
  -5   0  10 925.657 129.219   3
   5   0 -10 777.853 114.732   1
  -5   0  10 1061.62 126.087   2
  -5   0   9 2704.08 142.257   3
  -5   0   9 2702.12 136.316   2
  -5   0   8 2104.77 129.007   3
  -5   0   8 1874.11 129.991   2
  -5   0   7 622.447 108.602   3
  -5   0   7 577.876 118.114   2
  -5   0   6 919.030 110.283   3
  -5   0   6 755.958 108.309   2
  -5   0   5 920.540 109.399   3
  -5   0   5 1257.13 119.094   2
  -5   0   4 840.955 102.842   3
  -5   0   4 1014.83 118.312   2
  -5   0   3 200.952 100.220   3
  -5   0   3 252.148 103.875   1
  -5   0   3 187.538 103.540   2
  -5   0   3 182.740 83.0084   0
  -5   0   2 3059.47 133.377   1
  -5   0   2 3096.01 132.059   3
  -5   0   2 3111.09 132.519   2
  -5   0   1 347.867 102.988   3
  -5   0   1 219.595 103.086   1
  -5   0   1 270.748 100.721   0
  -5   0   1 198.921 101.814   2
  -5   0   0 1787.06 104.935   3
  -5   0   0 2098.79 118.912   1
  -5   0   0 1932.66 126.080   0
  -5   0   0 2237.83 122.124   2
  -5   0  -1 14161.7 211.226   0
  -5   0  -1 15255.5 225.059   1
  -5   0  -1 15250.9 215.794   2
  -5   0  -2 140.815 102.901   3
  -5   0  -2 217.594 100.301   1
  -5   0  -2 238.853 119.803   0
  -5   0  -2 184.856 99.3009   2
  -5   0  -3 571.760 105.604   1
  -5   0  -3 467.971 134.658   0
  -5   0  -3 556.921 104.920   2
  -5   0  -4 72.8249 96.0842   1
  -5   0  -4 105.960 132.839   0
  -5   0  -5 73.9509 97.8330   1
  -5   0  -5 45.4719 136.399   0
  -5   0  -6 180.920 98.6155   1
  -5   0  -6 325.108 148.923   0
  -5   0  -7 627.931 118.810   1
  -5   0  -7 745.338 172.994   0
  -5   0  -8-1.17145 168.310   0
  -5   0  -8 14.6554 117.457   1
  -5   0  -9 74.9977 123.925   1
  -5   0 -10 451.285 142.086   1
  -5   0 -11 217.173 149.382   1
  -5   0 -12 273.653 165.377   1
  -5   0 -13 36.0520 157.822   1
   5   1 -19-74.1947 133.398   1
  -5  -1  18 351.256 204.162   3
   5   1 -18 390.915 140.453   1
  -5  -1  17 294.429 188.307   3
   5   1 -17 321.310 133.862   1
   5   1 -16 822.323 145.982   1
  -5  -1  16 849.265 192.518   3
  -5  -1  15 1817.92 192.940   3
   5   1 -15 1936.96 161.409   1
  -5  -1  15 1548.16 143.274   2
  -5  -1  14 4462.62 215.105   3
   5   1 -14 5143.61 205.176   1
  -5  -1  14 4969.02 188.228   2
   5   1 -13 1298.68 142.972   1
  -5  -1  13 1024.09 168.448   3
  -5  -1  13 860.689 130.484   2
   5   1 -12 111.166 123.100   1
  -5  -1  12 56.8044 134.508   3
  -5  -1  12 108.052 109.388   2
   5   1 -11 56.5039 108.966   1
  -5  -1  11 155.666 120.810   3
  -5  -1  11 201.194 109.963   2
  -5  -1  10 1150.12 135.691   3
  -5  -1  10 901.002 120.738   2
  -5  -1   9-32.7509 115.085   3
  -5  -1   9 77.4638 107.719   2
  -5  -1   8 405.568 119.163   3
  -5  -1   8 566.178 115.782   2
  -5  -1   7 823.051 110.161   3
  -5  -1   7 1179.28 128.024   2
  -5  -1   6 255.100 103.625   3
  -5  -1   6 297.587 107.745   2
  -5  -1   5 55.6272 102.590   3
  -5  -1   5 221.586 114.286   2
  -5  -1   4 195.151 98.5762   3
  -5  -1   4 275.871 106.173   2
  -5  -1   3 334.178 85.6931   3
  -5  -1   3 383.840 115.290   1
  -5  -1   3 525.040 113.184   2
  -5  -1   2 382.969 101.546   3
  -5  -1   2 563.099 122.119   1
  -5  -1   2 533.697 118.153   2
  -5  -1   1 1519.90 104.144   3
  -5  -1   1 1732.71 126.697   1
  -5  -1   1 1597.15 124.015   2
  -5  -1   0 103.598 102.606   1
  -5  -1   0 97.1937 101.817   2
  -5  -1  -1 3060.33 140.541   1
  -5  -1  -1 2621.18 133.510   2
  -5  -1  -2 4683.72 158.241   1
  -5  -1  -2 4739.90 151.388   2
  -5  -1  -3 4478.68 161.152   1
  -5  -1  -3 4930.08 151.959   2
  -5  -1  -4 2405.81 134.270   1
  -5  -1  -4 2463.77 125.499   2
  -5  -1  -5 1146.66 120.272   1
  -5  -1  -6-9.15582 106.873   1
  -5  -1  -7 324.726 119.949   1
  -5  -1  -8 384.083 132.670   1
  -5  -1  -9 178.801 129.998   1
  -5  -1 -10 719.529 146.115   1
  -5  -1 -11 108.676 141.432   1
  -5  -1 -12 129.584 151.660   1
  -5  -2  18 866.344 216.510   3
   5   2 -18 912.185 155.307   1
   5   2 -17 196.109 123.501   1
  -5  -2  17 77.6400 200.031   3
   5   2 -16 1003.11 161.368   1
  -5  -2  16 994.507 202.819   3
   5   2 -15 444.881 160.951   1
  -5  -2  15 118.502 180.234   3
  -5  -2  15 277.811 123.447   2
   5   2 -14 148.361 150.239   1
  -5  -2  14 52.8189 168.759   3
  -5  -2  14-85.2801 120.258   2
  -5  -2  13 9822.17 263.238   3
   5   2 -13 9380.02 236.672   1
  -5  -2  13 9528.86 217.545   2
  -5  -2  12 6070.98 216.497   3
   5   2 -12 5756.91 192.528   1
  -5  -2  12 5920.68 187.040   2
  -5  -2  11 1033.52 149.294   3
  -5  -2  11 802.285 125.938   2
  -5  -2  10 1405.78 138.104   3
  -5  -2  10 1323.37 129.448   2
  -5  -2   9 305.233 117.294   3
  -5  -2   9 401.807 110.716   2
  -5  -2   8 1083.97 124.192   3
  -5  -2   8 1327.85 126.815   2
  -5  -2   7 6.03068 99.3670   3
  -5  -2   7 65.9088 107.503   2
  -5  -2   6 237.499 92.6239   3
  -5  -2   6 266.244 111.029   2
  -5  -2   5 91.5069 86.2456   3
  -5  -2   5-7.55899 117.659   2
  -5  -2   4 2002.37 133.294   2
  -5  -2   3 318.298 129.748   1
  -5  -2   3 526.401 116.376   2
  -5  -2   2 798.852 139.706   1
  -5  -2   2 888.355 119.643   2
  -5  -2   1 124.334 121.660   1
  -5  -2   1-29.8356 106.864   2
  -5  -2   0 629.320 124.148   1
  -5  -2   0 540.407 115.126   2
  -5  -2  -1-1.23746 104.572   1
  -5  -2  -1 4.77069 106.693   2
  -5  -2  -2 20.1989 106.084   1
  -5  -2  -2-48.0382 105.311   2
  -5  -2  -3 546.136 125.952   1
  -5  -2  -3 434.433 115.214   2
  -5  -2  -4 743.668 124.519   1
  -5  -2  -4 755.875 117.054   2
  -5  -2  -5 272.312 121.247   1
  -5  -2  -6 718.775 128.731   1
  -5  -2  -7 466.521 127.897   1
  -5  -2  -8-9.53291 119.887   1
  -5  -2  -9 35.3410 133.957   1
  -5  -2 -10 121.837 134.466   1
  -5  -2 -11 80.7694 141.397   1
   5   3 -17 129.919 161.157   1
  -5  -3  17 361.497 207.746   3
   5   3 -16 199.187 137.605   1
  -5  -3  16 63.5605 196.314   3
   5   3 -15 9.59450 161.730   1
  -5  -3  15-34.3466 184.738   3
   5   3 -14 122.402 155.733   1
  -5  -3  14-108.769 177.563   3
  -5  -3  14 20.3521 123.830   2
   5   3 -13-39.5120 152.087   1
  -5  -3  13 49.9321 163.694   3
  -5  -3  13 63.9133 117.424   2
   5   3 -12 272.146 147.903   1
  -5  -3  12 280.587 160.166   3
  -5  -3  12 177.303 127.362   2
  -5  -3  11 1398.23 158.644   3
  -5  -3  11 1344.41 140.050   2
  -5  -3  10 3185.19 156.319   3
  -5  -3  10 4873.38 179.014   2
  -5  -3   9 2335.05 146.690   3
  -5  -3   9 2484.51 147.648   2
  -5  -3   8 3752.08 151.023   3
  -5  -3   8 4351.41 171.226   2
  -5  -3   7 110.537 112.825   2
  -5  -3   6 405.786 109.886   2
  -5  -3   5 2402.17 138.693   2
  -5  -3   4 45.2990 108.525   2
  -5  -3   3 1981.68 158.236   1
  -5  -3   3 1867.05 138.332   2
  -5  -3   2 46.8367 130.198   1
  -5  -3   2 7.01256 108.730   2
  -5  -3   1 9.26819 127.420   1
  -5  -3   1 147.758 112.894   2
  -5  -3   0-47.2239 130.614   1
  -5  -3   0-21.3854 112.651   2
  -5  -3  -1 3.93542 120.243   1
  -5  -3  -1 65.7667 121.849   2
  -5  -3  -2 7.86010 120.220   1
  -5  -3  -2 5.85543 119.081   2
  -5  -3  -3 806.573 136.389   1
  -5  -3  -3 852.974 135.752   2
  -5  -3  -4 556.100 134.243   1
  -5  -3  -4 334.778 106.067   2
  -5  -3  -5 1019.20 146.255   1
  -5  -3  -5 742.855 131.695   2
  -5  -3  -6 2382.40 161.876   1
  -5  -3  -7 1216.89 148.847   1
  -5  -3  -8 509.773 129.470   1
  -5  -3  -9 267.317 143.586   1
   5   4 -16 132.088 184.306   1
  -5  -4  16 104.353 205.532   3
   5   4 -15 223.133 172.774   1
  -5  -4  15 308.793 186.427   3
   5   4 -14 7.98154 135.418   1
  -5  -4  14 37.6081 150.568   3
  -5  -4  14 141.267 129.772   2
   5   4 -13 490.830 144.084   1
  -5  -4  13 451.069 160.741   3
  -5  -4  13 316.156 118.211   2
  -5  -4  12 639.802 171.164   3
  -5  -4  12 685.088 136.862   2
  -5  -4  11 88.9322 129.185   2
  -5  -4  10 3365.42 170.452   2
  -5  -4   9 433.522 140.006   2
  -5  -4   8 56.3813 124.683   2
  -5  -4   7 456.866 130.085   2
  -5  -4   6-31.6204 125.288   2
  -5  -4   5 320.936 126.002   2
  -5  -4   4 1046.88 145.232   2
  -5  -4   3 1371.52 146.090   2
  -5  -4   2 36.9169 144.056   1
  -5  -4   2 142.606 124.831   2
  -5  -4   1 87.0664 146.494   1
  -5  -4   1 29.9449 127.933   2
  -5  -4   0 252.387 155.024   1
  -5  -4   0 383.081 140.525   2
  -5  -4  -1 38.9211 148.650   1
  -5  -4  -1 22.3855 133.913   2
  -5  -4  -2 218.653 144.567   1
  -5  -4  -2 102.562 130.516   2
  -5  -4  -3 51.6443 135.568   1
  -5  -4  -3-24.8607 135.173   2
  -5  -4  -4 518.895 143.035   1
  -5  -4  -4 370.415 118.052   2
  -5  -4  -5-38.0875 128.701   1
  -5  -4  -5 66.3457 139.437   2
  -5  -4  -6 572.518 124.796   1
  -5  -4  -7 24.9252 132.797   1
   5   5 -14 127.354 169.451   1
   5   5 -13 121.628 167.856   1
  -5  -5  13 70.2273 135.326   2
  -5  -5  12 19.2762 131.078   2
  -5  -5  11 413.001 143.070   2
  -5  -5  10 1778.04 173.322   2
  -5  -5   9-50.7874 138.807   2
  -5  -5   8 2422.33 170.865   2
  -5  -5   7 2092.35 165.906   2
  -5  -5   6 587.709 147.582   2
  -5  -5   5-29.0534 137.783   2
  -5  -5   4 358.891 146.279   2
  -5  -5   3 157.329 141.342   2
  -5  -5   2 222.485 148.102   2
  -5  -5   1-97.9445 163.098   1
  -5  -5   1 14.8528 142.847   2
  -5  -5   0 28.9441 157.945   1
  -5  -5   0 181.119 148.084   2
  -5  -5  -1-18.6924 157.236   1
  -5  -5  -1 0.58705 140.323   2
  -5  -5  -2-83.9224 142.289   1
  -5  -5  -2-44.9104 145.945   2
   5   5   3 102.517 159.795   0
  -5  -5  -3 7.94430 137.189   1
  -5  -5  -3 109.706 129.414   2
  -5  -5  -4 50.1695 128.802   1
  -5  -5  -4 13.3659 137.565   2
  -5  -5  -5 96.7933 155.213   1
  -5  -5  -5 188.613 154.767   2
  -5  -6  12 21.7370 148.131   2
  -5  -6  11 233.518 157.835   2
  -5  -6  10 198.652 145.551   2
  -5  -6   9 101.292 124.412   2
  -5  -6   8 149.080 126.834   2
  -5  -6   7 392.667 130.657   2
  -5  -6   6 75.3844 130.766   2
  -5  -6   5 586.650 159.988   2
  -5  -6   4 349.877 154.287   2
  -5  -6   3-7.23800 152.210   2
  -5  -6   2 2577.64 195.959   2
  -5  -6   1 190.625 162.934   2
  -5  -6   0 753.925 156.721   1
  -5  -6   0 985.346 174.851   2
  -5  -6  -1 328.938 170.595   1
  -5  -6  -1 305.582 162.462   2
  -5  -6  -2 7.00330 165.966   1
  -5  -6  -2 266.481 165.334   2
   5   7 -11-13.4945 135.889   4
   5   8 -12 130.087 142.731   4
   5   8 -11 76.1953 139.645   4
   5   8 -10 44.3259 151.601   4
   5   9 -12 239.865 152.885   4
   5   9 -11 33.8889 153.885   4
   5   9 -10 54.7715 159.371   4
   5   9  -9-60.6394 164.025   4
  -6   9   7 392.813 178.043   0
   6  -9  -6 81.8988 152.078   2
  -6   9   6 28.3300 173.478   0
   6  -9  -5 109.550 140.028   2
  -6   9   5 52.6834 178.233   0
   6  -9  -4-17.0986 141.597   2
  -6   9   4-93.1096 168.423   0
   6  -9  -3 120.092 140.626   2
  -6   9   3 56.5738 150.295   0
   6  -9  -2 94.4062 136.099   2
  -6   9   2 86.4165 153.789   3
  -6   9   2 21.8668 161.981   0
  -6   9   1 49.2145 164.577   0
  -6   9   0 214.375 171.525   0
  -6   9  -1 2728.79 206.822   0
  -6   9  -2 490.194 176.818   0
  -6   9  -3 56.1727 171.174   0
  -6   9  -4 69.7640 171.785   0
   6  -8 -10-95.8101 165.775   2
  -6   8  10 79.7361 162.249   0
   6  -8  -9 28.5646 165.694   2
  -6   8   9 91.2919 168.897   0
   6  -8  -8 81.7920 137.472   2
  -6   8   8-21.9305 128.091   0
   6  -8  -7 198.060 138.661   2
  -6   8   7 284.869 159.971   0
   6  -8  -6 451.228 156.027   2
  -6   8   6 199.162 158.041   3
  -6   8   6 402.834 167.567   0
   6  -8  -5 134.890 147.112   2
  -6   8   5 113.303 135.797   3
  -6   8   5 110.987 166.350   0
   6  -8  -4 748.104 148.562   2
  -6   8   4 587.336 138.242   3
  -6   8   4 791.152 163.869   0
   6  -8  -3 132.524 133.867   2
  -6   8   3 38.6738 157.468   3
  -6   8   3-34.2371 147.845   0
   6  -8  -2 67.5234 109.288   2
  -6   8   2 51.8743 149.780   3
  -6   8   2 7.42954 149.192   0
   6  -8  -1 286.952 128.584   2
  -6   8   1 697.216 169.119   3
  -6   8   1 234.403 152.984   0
  -6   8   0 328.289 167.965   3
  -6   8   0 100.148 160.129   0
  -6   8  -1 529.010 164.889   0
  -6   8  -2 856.527 169.086   0
  -6   8  -3 706.386 168.189   0
  -6   8  -4 97.1569 167.763   0
  -6   8  -5 129.553 153.154   0
  -6   8  -6 123.400 167.064   0
  -6   8  -7 302.281 192.174   0
  -6   8  -8 148.424 193.566   0
   6  -7 -12 76.4462 177.543   2
   6  -7 -11 120.762 161.513   2
   6  -7 -10 261.063 161.420   2
  -6   7  10 144.001 153.960   3
   6  -7  -9 3.30133 138.410   2
  -6   7   9-91.5583 159.890   3
  -6   7   9 6.91965 137.751   0
   6  -7  -8 194.345 151.081   2
  -6   7   8 131.689 141.020   3
  -6   7   8 222.842 128.247   0
   6  -7  -7-71.2018 141.723   2
  -6   7   7 93.6326 150.699   3
  -6   7   7 101.517 154.569   0
  -6   7   6 1755.14 174.384   3
  -6   7   6 1586.28 173.090   0
   6  -7  -5-0.44664 134.657   2
  -6   7   5-7.77618 157.513   3
  -6   7   5 168.194 150.233   0
  -6   7   4 1057.03 173.144   3
  -6   7   4 880.614 142.455   0
   6  -7  -4 1178.63 142.865   2
   6  -7  -3 40.4909 122.886   2
  -6   7   3-5.96217 158.605   3
  -6   7   3-132.345 137.921   0
   6  -7  -2-44.0012 124.067   2
  -6   7   2-5.29779 157.920   3
  -6   7   2 167.900 142.246   0
   6  -7  -1 464.993 121.374   2
  -6   7   1 657.075 161.466   3
  -6   7   1 654.931 150.652   0
  -6   7   0 27.3512 155.731   3
  -6   7   0 28.8422 139.259   0
  -6   7  -1 496.846 167.481   3
  -6   7  -1 305.939 147.968   0
  -6   7  -2 1851.65 174.344   0
  -6   7  -3 1800.82 177.255   0
  -6   7  -4 7261.62 236.713   0
  -6   7  -5 869.881 178.266   0
  -6   7  -6-90.5010 162.622   0
  -6   7  -7 18.3488 153.319   0
  -6   7  -8-36.6905 155.756   0
  -6   7  -9 94.1758 183.723   0
   6  -6 -14-72.2174 167.604   2
   6  -6 -13 109.251 169.547   2
  -6   6  13 198.505 164.400   3
  -6   6  12 793.586 155.134   3
  -6   6  11 225.096 134.664   3
  -6   6  10 809.972 159.225   3
  -6   6   9 421.371 158.054   3
  -6   6   8-81.6825 151.010   3
  -6   6   8-34.6414 123.180   0
  -6   6   7 902.400 183.457   3
  -6   6   7 760.474 140.193   0
  -6   6   6 34.2908 146.651   3
  -6   6   6 61.7022 130.091   0
  -6   6   5 665.597 150.054   3
  -6   6   5 514.488 125.277   0
  -6   6   4 512.292 151.916   3
  -6   6   4 349.049 133.572   0
  -6   6   3 88.0915 158.815   3
  -6   6   3 169.135 129.858   0
  -6   6   2-8.52934 156.554   3
  -6   6   2 93.5768 122.120   0
  -6   6   1-11.8616 147.197   3
  -6   6   1 57.4232 122.134   0
  -6   6   0 0.99213 146.820   3
  -6   6   0 136.998 129.837   0
  -6   6  -1 290.929 155.209   3
  -6   6  -1 96.9256 131.394   0
  -6   6  -2 1009.76 167.000   3
  -6   6  -2 870.739 147.313   0
  -6   6  -3 141.592 142.248   0
  -6   6  -4 2090.55 185.911   0
  -6   6  -5-7.26405 164.711   0
  -6   6  -6 1338.08 195.563   0
  -6   6  -7 1859.77 208.205   0
  -6   6  -8 30.3613 164.615   0
  -6   6  -9-14.6901 152.288   0
  -6   6 -10 275.600 166.770   0
  -6   6 -11 145.500 181.247   0
  -6   5  16 181.237 154.521   3
  -6   5  15 521.679 158.383   3
  -6   5  14 4.67725 153.687   3
  -6   5  13 16.3003 146.871   3
  -6   5  12 2086.44 174.375   3
  -6   5  11 1309.23 171.944   3
  -6   5  10 149.656 165.766   3
  -6   5   9 4.99847 153.533   3
  -6   5   8 537.614 149.012   3
  -6   5   7 1818.72 163.761   3
  -6   5   7 1757.75 133.723   0
  -6   5   6 785.420 153.083   3
  -6   5   6 650.670 113.632   0
  -6   5   5 423.274 154.418   3
  -6   5   5 679.525 122.999   0
  -6   5   4 21.6470 136.396   3
  -6   5   4-105.133 114.875   0
  -6   5   3-68.0342 137.589   3
  -6   5   3 70.1411 114.345   0
  -6   5   2-62.9295 142.341   3
  -6   5   2 56.3379 115.900   0
  -6   5   1 2120.66 165.707   3
  -6   5   1 1912.68 138.463   0
  -6   5   0 815.387 146.117   3
  -6   5   0 883.725 130.001   0
  -6   5  -1 54.5903 140.198   3
  -6   5  -1 198.038 122.026   0
  -6   5  -2 383.550 136.104   0
  -6   5  -2 415.868 145.909   3
  -6   5  -3 106.729 140.102   3
  -6   5  -3 116.222 138.447   0
  -6   5  -4 73.0923 152.289   0
  -6   5  -5 616.535 172.996   0
  -6   5  -6 687.890 174.040   0
  -6   5  -7-30.9068 162.541   0
  -6   5  -8 123.825 169.868   0
  -6   5  -9 453.263 157.750   0
  -6   5 -10 245.400 155.026   0
  -6   5 -11 6.14939 193.680   0
  -6   4  17 275.291 160.839   3
  -6   4  16 108.276 160.151   3
  -6   4  15 206.776 155.533   3
  -6   4  14 444.170 155.580   3
  -6   4  13 235.979 145.994   3
  -6   4  12 748.269 153.461   3
  -6   4  11 640.996 144.429   3
  -6   4  10 847.393 149.348   3
  -6   4   9 11808.7 250.233   3
  -6   4   8 6292.59 213.425   3
  -6   4   7 1004.85 147.287   3
  -6   4   6 173.620 133.918   3
  -6   4   6 165.054 97.8870   0
  -6   4   5 1875.84 154.722   3
  -6   4   5 1929.16 116.493   0
  -6   4   4 3636.83 184.522   3
  -6   4   4 3400.08 138.990   0
  -6   4   3 74.4540 136.663   3
  -6   4   3 110.050 111.945   0
  -6   4   2 110.822 127.736   3
  -6   4   2 52.6132 113.931   0
  -6   4   1 881.932 150.008   3
  -6   4   1 973.613 127.007   0
  -6   4   0 300.773 122.836   0
  -6   4   0 236.856 136.865   3
  -6   4  -1 1005.67 143.283   3
  -6   4  -1 983.865 136.586   0
  -6   4  -2 61.3613 134.588   0
  -6   4  -2 322.605 129.486   3
  -6   4  -3 75.7367 136.380   0
  -6   4  -3 26.2619 137.025   3
  -6   4  -4 233.200 147.341   0
  -6   4  -5 1026.09 163.197   0
  -6   4  -6 357.723 153.011   0
  -6   4  -7 2940.84 190.392   0
  -6   4  -8 354.284 174.800   0
  -6   4  -9-17.0852 176.633   0
  -6   4 -10 88.5672 160.690   0
  -6   4 -11 124.974 131.117   1
  -6   4 -11-30.3023 177.678   0
  -6   4 -12 61.9760 141.334   1
  -6   4 -12 195.973 203.531   0
  -6   4 -13-7.62169 147.634   1
  -6   3  17 210.382 155.889   3
  -6   3  16 41.5974 131.976   3
  -6   3  15 15.2326 149.675   3
  -6   3  14 19.6010 147.361   3
  -6   3  13 236.958 143.481   3
  -6   3  12 770.980 150.642   3
  -6   3  11-71.4083 132.602   3
  -6   3  10 279.267 128.856   3
  -6   3   9 329.080 130.360   3
  -6   3   8 1629.47 141.464   3
  -6   3   7 1000.72 136.847   3
  -6   3   6 14460.1 269.074   3
  -6   3   5 3455.33 166.846   3
  -6   3   5 3288.60 124.730   0
  -6   3   4 6975.65 197.479   3
  -6   3   4 6173.99 156.605   0
  -6   3   3 9090.45 229.967   3
  -6   3   3 9245.28 190.256   0
  -6   3   2 1649.41 149.094   3
  -6   3   2 1837.11 134.416   0
  -6   3   2 1541.15 119.539   2
  -6   3   1 3009.08 159.459   3
  -6   3   1 3055.53 153.300   0
  -6   3   1 2524.71 126.144   2
  -6   3   0 575.957 133.724   0
  -6   3   0 586.672 140.012   3
  -6   3   0 519.182 96.8666   2
  -6   3  -1 57.2875 134.450   0
  -6   3  -1-9.84547 129.822   3
  -6   3  -1-18.6055 82.4520   2
  -6   3  -2-55.7522 125.974   0
  -6   3  -2 80.8760 123.997   3
  -6   3  -3 994.186 136.703   3
  -6   3  -3 1052.60 98.6591   1
  -6   3  -3 1052.19 143.728   0
  -6   3  -4 1271.62 100.359   1
  -6   3  -4 1182.26 149.524   0
  -6   3  -5 330.138 100.583   1
  -6   3  -5 254.721 140.386   0
  -6   3  -6-56.2818 97.5593   1
  -6   3  -6-48.5043 153.045   0
  -6   3  -7 1720.12 193.443   0
  -6   3  -7 1210.89 114.639   1
  -6   3  -8 68.5324 105.447   1
  -6   3  -8-66.6728 178.056   0
  -6   3  -9 134.954 105.457   1
  -6   3  -9 344.037 184.698   0
  -6   3 -10-8.60351 105.340   1
  -6   3 -10 159.302 192.529   0
  -6   3 -11 120.081 109.339   1
  -6   3 -11-56.0282 186.943   0
  -6   3 -12 96.2268 144.080   1
  -6   3 -12 126.318 186.900   0
  -6   2  17-7.01280 129.538   3
  -6   2  16 102.658 137.402   3
  -6   2  15 125.456 150.512   3
  -6   2  14 247.396 142.368   3
  -6   2  13 456.058 146.635   3
  -6   2  12 118.700 131.798   3
  -6   2  11 122.359 126.745   3
  -6   2  10 29.3769 122.127   3
  -6   2   9 1067.19 130.447   3
  -6   2   8-51.7348 110.511   3
  -6   2   8 88.6409 113.252   2
  -6   2   7 1219.65 131.915   3
  -6   2   7 1101.64 127.174   2
  -6   2   6 637.257 128.779   3
  -6   2   6 742.701 127.267   2
  -6   2   5 203.941 142.937   3
  -6   2   5 266.092 121.766   2
  -6   2   4 4321.40 170.753   3
  -6   2   4 4936.00 152.265   0
  -6   2   4 4753.30 166.288   2
  -6   2   3 13593.9 196.879   1
  -6   2   3 12796.4 230.001   3
  -6   2   3 13115.2 209.565   0
  -6   2   3 12512.5 218.379   2
  -6   2   2 971.906 130.198   0
  -6   2   2 1066.23 149.569   3
  -6   2   2 1268.81 108.585   1
  -6   2   2 1125.30 115.436   2
  -6   2   1 333.795 126.536   0
  -6   2   1 350.830 121.500   3
  -6   2   1 263.588 93.7318   1
  -6   2   1 190.655 103.336   2
  -6   2   0 3572.63 169.311   3
  -6   2   0 3908.73 130.486   1
  -6   2   0 3664.94 155.771   0
  -6   2   0 3441.02 133.474   2
  -6   2  -1 79.2528 127.136   3
  -6   2  -1 30.0349 92.4271   1
  -6   2  -1 3.03813 89.4424   2
  -6   2  -1 113.440 118.801   0
  -6   2  -2 33.9099 120.242   3
  -6   2  -2-97.1964 85.4450   1
  -6   2  -2 89.8292 125.411   0
  -6   2  -3 150.598 122.916   3
  -6   2  -3 182.873 85.8248   1
  -6   2  -3 150.869 137.228   0
  -6   2  -4 412.302 98.0512   1
  -6   2  -4 482.161 151.227   0
  -6   2  -5 5.60336 99.3467   1
  -6   2  -5-39.7508 151.138   0
  -6   2  -6 92.5614 109.681   1
  -6   2  -6-48.4263 161.317   0
  -6   2  -7 519.324 118.216   1
  -6   2  -7 414.442 177.854   0
  -6   2  -8 48.1306 121.815   1
  -6   2  -8 138.908 172.757   0
  -6   2  -9 279.585 135.497   1
  -6   2  -9 254.426 173.763   0
  -6   2 -10 179.198 146.429   1
  -6   2 -10 205.001 189.226   0
  -6   2 -11 60.5938 134.086   1
  -6   2 -11 513.806 203.894   0
  -6   2 -12 50.7309 158.680   1
  -6   1  18 34.0703 174.650   3
  -6   1  17 122.808 164.268   3
  -6   1  16 136.875 157.615   3
  -6   1  15 14.2918 144.313   3
  -6   1  14 962.727 155.701   3
  -6   1  13 220.847 133.327   3
  -6   1  12 626.341 134.934   3
  -6   1  12 674.232 143.921   2
  -6   1  11 673.099 135.498   3
  -6   1  11 709.904 136.483   2
  -6   1  10 253.977 122.101   3
  -6   1  10 183.602 122.743   2
  -6   1   9 55.3925 113.517   3
  -6   1   9 132.134 121.839   2
  -6   1   8 145.925 112.954   3
  -6   1   8 243.234 114.651   2
  -6   1   7 17.6195 109.295   3
  -6   1   7 72.1634 111.808   2
  -6   1   6 3302.34 151.439   3
  -6   1   6 3373.81 151.117   2
  -6   1   5 1073.11 126.038   3
  -6   1   5 1127.34 120.616   2
  -6   1   4 5204.23 180.320   3
  -6   1   4 4853.35 160.759   2
  -6   1   3 194.382 117.750   3
  -6   1   3 266.119 107.366   1
  -6   1   3 93.0171 107.599   2
  -6   1   2 454.577 132.169   3
  -6   1   2 366.638 116.999   1
  -6   1   2 555.851 116.533   2
  -6   1   2 450.706 113.758   0
  -6   1   1 66767.7 452.603   3
  -6   1   1 68657.8 442.559   1
  -6   1   1 68772.1 442.700   0
  -6   1   1 68843.8 446.285   2
  -6   1   0 6096.33 169.502   3
  -6   1   0 5904.12 158.133   1
  -6   1   0 6189.39 186.568   0
  -6   1   0 5933.43 161.706   2
  -6   1  -1 9822.52 206.329   3
  -6   1  -1 10241.7 196.785   1
  -6   1  -1 10260.8 219.790   0
  -6   1  -1 10222.2 189.485   2
  -6   1  -2 115.607 110.221   3
  -6   1  -2 124.142 97.0046   1
  -6   1  -2 88.1320 97.9956   2
  -6   1  -2 120.666 129.175   0
  -6   1  -3 59.2633 103.842   3
  -6   1  -3 29.4453 99.5422   1
  -6   1  -3 51.8692 141.337   0
  -6   1  -4 100.329 102.839   1
  -6   1  -4 96.9177 144.268   0
  -6   1  -5 445.968 111.297   1
  -6   1  -5 545.937 152.555   0
  -6   1  -6 93.6880 115.019   1
  -6   1  -6 96.9413 159.005   0
  -6   1  -7 96.8230 120.900   1
  -6   1  -7 82.7324 161.154   0
  -6   1  -8-11.0390 125.539   1
  -6   1  -8-14.5268 173.346   0
  -6   1  -9 204.052 128.146   1
  -6   1  -9 248.525 190.066   0
  -6   1 -10 80.4382 135.773   1
  -6   1 -10 216.625 204.085   0
  -6   1 -11 66.2063 144.071   1
  -6   0  17 59.4948 179.901   3
  -6   0  16 113.772 170.455   3
  -6   0  15 1413.32 177.682   3
   6   0 -15 1583.24 145.346   1
   6   0 -14 661.013 145.462   1
  -6   0  14 683.466 162.181   3
  -6   0  14 674.675 144.571   2
   6   0 -13 1108.43 140.208   1
  -6   0  13 930.042 152.183   3
  -6   0  13 1196.95 149.982   2
   6   0 -12-5.96019 120.331   1
  -6   0  12-6.96087 128.453   3
  -6   0  12 2.25544 127.714   2
  -6   0  11 1592.06 141.438   3
   6   0 -11 1565.52 123.356   1
  -6   0  11 1767.18 152.415   2
  -6   0  10 5.75984 115.317   3
  -6   0  10 14.9318 114.588   2
  -6   0   9 1549.11 128.954   3
  -6   0   9 1337.18 127.590   2
  -6   0   8 150.191 110.076   3
  -6   0   8 162.506 116.125   2
  -6   0   7-0.73117 105.710   3
  -6   0   7-15.5171 112.654   2
  -6   0   6 25.8357 104.591   3
  -6   0   6 100.273 108.018   2
  -6   0   5 139.703 114.644   3
  -6   0   5 233.802 114.397   2
  -6   0   4 284.950 131.445   3
  -6   0   4 334.692 116.029   2
  -6   0   3 131.425 114.440   3
  -6   0   3 296.962 125.222   1
  -6   0   3 299.728 117.244   2
  -6   0   2 2534.90 144.369   1
  -6   0   2 2192.11 137.706   3
  -6   0   2 2498.52 140.546   2
  -6   0   1 3845.70 149.602   3
  -6   0   1 4054.90 160.435   1
  -6   0   1 3392.72 141.100   0
  -6   0   1 3626.54 151.224   2
  -6   0   0 129.606 107.211   1
  -6   0   0 115.768 115.163   0
  -6   0   0 234.982 111.254   2
  -6   0  -1 14376.5 236.657   0
  -6   0  -1 13960.5 225.312   1
  -6   0  -1 15254.1 236.517   2
  -6   0  -2 22735.9 301.117   0
  -6   0  -2 22919.6 297.623   1
  -6   0  -2 22686.1 275.477   2
  -6   0  -3 41.5201 114.494   1
  -6   0  -3 67.3972 140.750   0
  -6   0  -4 1124.96 167.811   0
  -6   0  -4 1014.35 122.050   1
  -6   0  -5 354.173 111.571   1
  -6   0  -5 435.779 163.431   0
  -6   0  -6 0.68217 113.872   1
  -6   0  -6 145.169 174.583   0
  -6   0  -7 1186.57 134.054   1
  -6   0  -8-48.3972 127.379   1
  -6   0  -9 199.558 144.904   1
  -6   0 -10 61.2797 142.002   1
   6   1 -18 265.601 138.176   1
   6   1 -17 58.8868 146.590   1
  -6  -1  17-83.6822 186.980   3
   6   1 -16 0.54654 149.588   1
  -6  -1  16 108.114 183.072   3
  -6  -1  16-11.3600 133.059   2
   6   1 -15 31.5446 129.604   1
  -6  -1  15 41.3445 170.604   3
  -6  -1  15 68.2310 115.536   2
   6   1 -14 749.673 152.076   1
  -6  -1  14 431.304 160.626   3
  -6  -1  14 410.711 142.016   2
  -6  -1  13 2268.81 177.106   3
  -6  -1  13 2103.75 161.111   2
   6   1 -12 84.9617 123.623   1
  -6  -1  12-100.608 137.490   3
  -6  -1  12 21.1605 124.825   2
  -6  -1  11 191.306 127.544   3
  -6  -1  11 161.341 130.086   2
  -6  -1  10 185.954 115.637   3
  -6  -1  10 156.276 124.470   2
  -6  -1   9 19.5914 111.863   3
  -6  -1   9 270.798 121.844   2
  -6  -1   8 89.6941 107.842   3
  -6  -1   8 97.5561 122.275   2
  -6  -1   7 107.967 108.921   3
  -6  -1   7 117.982 123.403   2
  -6  -1   6 1118.20 121.186   3
  -6  -1   6 1167.82 132.746   2
  -6  -1   5 1202.13 115.067   3
  -6  -1   5 1024.66 122.255   2
  -6  -1   4-22.9294 106.834   3
  -6  -1   4 77.5617 114.619   2
  -6  -1   3 84.4929 120.887   1
  -6  -1   3 98.6832 107.749   2
  -6  -1   2 437.487 130.495   1
  -6  -1   2 319.198 111.843   2
  -6  -1   1 344.467 124.093   1
  -6  -1   1 202.318 112.717   2
  -6  -1   0 27.7514 113.512   1
  -6  -1   0-53.9778 114.958   2
  -6  -1  -1 112.708 117.974   1
  -6  -1  -1 94.2129 119.395   2
  -6  -1  -2 592.496 119.253   1
  -6  -1  -2 460.813 118.120   2
  -6  -1  -3 61.2145 121.397   1
  -6  -1  -3 43.3672 110.002   2
  -6  -1  -4 3855.02 169.972   1
  -6  -1  -5 241.191 128.454   1
  -6  -1  -6 260.777 122.745   1
  -6  -1  -7 437.118 136.689   1
  -6  -1  -8 63.7621 126.092   1
  -6  -1  -9 161.969 135.874   1
   6   2 -17-39.6658 150.245   1
  -6  -2  17 46.0452 186.701   3
   6   2 -16 294.011 172.268   1
  -6  -2  16 363.839 189.293   3
   6   2 -15 89.9866 167.494   1
  -6  -2  15 10.9820 177.985   3
  -6  -2  15 110.880 130.087   2
   6   2 -14 1115.77 166.702   1
  -6  -2  14 1220.38 186.591   3
  -6  -2  14 1262.21 145.066   2
  -6  -2  13 1454.83 171.928   3
   6   2 -13 1521.10 167.625   1
  -6  -2  13 1415.08 150.806   2
  -6  -2  12 516.733 148.808   3
  -6  -2  12 668.410 143.049   2
  -6  -2  11 1356.23 145.809   3
  -6  -2  11 1132.43 144.321   2
  -6  -2  10 223.661 111.287   3
  -6  -2  10 232.494 133.468   2
  -6  -2   9-33.9688 95.4264   3
  -6  -2   9 23.7884 123.524   2
  -6  -2   8 105.817 108.267   3
  -6  -2   8 132.721 123.527   2
  -6  -2   7 461.480 125.218   2
  -6  -2   6 504.340 124.201   2
  -6  -2   5 59.4814 119.810   2
  -6  -2   4 343.992 123.253   2
  -6  -2   3 690.113 144.320   1
  -6  -2   3 696.368 131.344   2
  -6  -2   2 161.324 140.941   1
  -6  -2   2 162.586 122.970   2
  -6  -2   1 1091.56 157.526   1
  -6  -2   1 1080.45 130.598   2
  -6  -2   0 64.0485 135.330   1
  -6  -2   0 12.8156 117.488   2
  -6  -2  -1-73.1388 123.145   1
  -6  -2  -1-41.3445 119.180   2
  -6  -2  -2 537.323 130.940   1
  -6  -2  -2 249.836 117.747   2
  -6  -2  -3 79.9645 128.238   1
  -6  -2  -3 59.8412 112.275   2
  -6  -2  -4 1109.56 147.400   1
  -6  -2  -5 758.031 141.119   1
  -6  -2  -6-30.1095 137.555   1
  -6  -2  -7 360.513 148.101   1
  -6  -2  -8 170.529 150.108   1
  -6  -3  16-96.1023 184.349   3
   6   3 -15 26.5728 148.849   1
  -6  -3  15 158.368 167.191   3
  -6  -3  15 3.31184 132.655   2
   6   3 -14-19.9475 130.540   1
  -6  -3  14 2.92357 149.446   3
  -6  -3  14 16.7054 135.534   2
   6   3 -13 488.898 144.780   1
  -6  -3  13 731.034 148.161   3
  -6  -3  13 806.670 144.084   2
  -6  -3  12-26.9140 144.613   3
  -6  -3  12-47.4129 132.824   2
  -6  -3  11 14256.4 279.118   2
  -6  -3  10 1589.00 154.689   2
  -6  -3   9 262.887 138.385   2
  -6  -3   8 975.803 148.290   2
  -6  -3   7 1105.12 140.340   2
  -6  -3   6 631.517 138.574   2
  -6  -3   5 76.9007 129.989   2
  -6  -3   4 52.7439 122.219   2
  -6  -3   3 883.857 137.927   2
  -6  -3   2 1108.31 170.755   1
  -6  -3   2 612.205 140.402   2
  -6  -3   1 549.426 165.344   1
  -6  -3   1 420.872 139.160   2
  -6  -3   0 288.436 158.423   1
  -6  -3   0 255.511 132.230   2
  -6  -3  -1 152.054 151.881   1
  -6  -3  -1-30.9099 133.126   2
  -6  -3  -2 628.589 153.519   1
  -6  -3  -2 546.303 136.772   2
  -6  -3  -3 212.855 139.327   1
  -6  -3  -3 109.412 111.921   2
  -6  -3  -4 288.844 146.882   1
  -6  -3  -5 35.0037 140.719   1
  -6  -3  -6 561.127 156.565   1
  -6  -4  14 187.417 143.166   2
   6   4 -13 144.046 160.202   1
  -6  -4  13 203.392 142.970   2
  -6  -4  12 338.830 138.224   2
  -6  -4  11 535.176 134.028   2
  -6  -4  10 101.710 136.977   2
  -6  -4   9 3420.03 181.646   2
  -6  -4   8 1687.93 167.306   2
  -6  -4   7-103.367 141.133   2
  -6  -4   6 264.255 149.128   2
  -6  -4   5 416.030 139.597   2
  -6  -4   4-59.5576 135.398   2
  -6  -4   3 257.217 140.379   2
  -6  -4   2 178.321 168.464   1
  -6  -4   2 23.5749 147.979   2
  -6  -4   1 132.126 167.346   1
  -6  -4   1-15.5951 143.853   2
  -6  -4   0-49.1461 158.487   1
  -6  -4   0-87.8431 142.350   2
  -6  -4  -1 56.8934 165.188   1
  -6  -4  -1 91.4071 144.757   2
  -6  -4  -2 246.893 168.892   1
  -6  -4  -2 76.7195 119.594   2
  -6  -4  -3 7.86997 168.001   1
  -6  -4  -3 77.2752 149.329   2
  -6  -4  -4 758.456 160.133   1
  -6  -5  12 37.3627 146.520   2
  -6  -5  11 34.8856 141.469   2
  -6  -5  10-19.9630 142.773   2
  -6  -5   9 105.983 137.586   2
  -6  -5   8 580.928 151.837   2
  -6  -5   7 374.695 150.781   2
  -6  -5   6 2744.12 190.962   2
  -6  -5   5 186.851 158.929   2
  -6  -5   4 183.239 160.953   2
  -6  -5   3 127.248 160.579   2
  -6  -5   2-136.508 154.532   2
  -6  -5   1 67.0529 157.593   2
  -6  -5   0 311.111 175.117   1
  -6  -5   0 219.601 165.405   2
  -6  -5  -1-12.0565 160.265   2
  -6  -5  -2 178.966 162.796   2
   7  -9  -5 224.720 155.188   2
  -7   9   5 390.795 180.812   3
   7  -9  -4 195.293 149.498   2
  -7   9   4 16.1395 171.036   3
  -7   9   3 188.576 176.348   3
  -7   9   3 1.31141 169.359   0
  -7   9   2 188.931 178.533   3
  -7   9   2-48.5439 165.263   0
   7  -8  -8 17.2972 162.444   2
  -7   8   8-48.8551 165.613   3
  -7   8   8 63.3772 161.325   0
   7  -8  -7-12.1770 136.429   2
  -7   8   7-2.04152 185.288   3
  -7   8   7 62.4584 147.295   0
   7  -8  -6-45.4528 125.870   2
  -7   8   6-20.6998 183.056   3
  -7   8   6-27.5621 134.873   0
   7  -8  -5 27.0490 144.712   2
  -7   8   5 143.416 181.398   3
  -7   8   5-15.8542 126.422   0
   7  -8  -4 136.427 142.239   2
  -7   8   4 223.039 178.051   3
  -7   8   4 204.475 161.071   0
   7  -8  -3 131.324 137.966   2
  -7   8   3 211.569 157.847   3
  -7   8   3 323.253 166.983   0
  -7   8   2 71.7343 151.639   3
  -7   8   2-16.7336 157.654   0
  -7   8   1-97.4001 148.183   3
  -7   8   1-18.1384 156.050   0
  -7   8   0 657.020 161.149   3
  -7   8   0 1261.46 180.706   0
  -7   8  -1 231.911 167.721   0
  -7   8  -2 118.498 169.032   0
  -7   8  -3 169.504 169.183   0
  -7   8  -4 660.241 196.657   0
  -7   7  12 1658.80 199.231   3
   7  -7 -11 331.291 177.391   2
  -7   7  11 227.383 180.053   3
   7  -7 -10 494.049 180.745   2
  -7   7  10 851.405 198.449   3
  -7   7   9-71.3483 169.809   3
  -7   7   8 326.530 170.611   3
  -7   7   7 198.437 169.815   3
  -7   7   7 288.969 140.668   0
  -7   7   6 294.886 175.283   3
  -7   7   6 129.370 120.753   0
  -7   7   5 43.9888 171.907   3
  -7   7   5-24.1951 134.910   0
  -7   7   4 143.543 181.059   3
  -7   7   4 67.6067 144.170   0
  -7   7   3 158.070 174.908   3
  -7   7   3 24.9981 138.928   0
  -7   7   2 180.044 170.886   3
  -7   7   2 374.829 153.562   0
  -7   7   1 59.7705 165.581   3
  -7   7   1 38.1436 149.918   0
  -7   7   0 277.649 174.631   3
  -7   7   0 250.621 149.030   0
  -7   7  -1 126.843 176.066   3
  -7   7  -1 106.496 152.233   0
  -7   7  -2 845.157 168.053   0
  -7   7  -3 2971.94 214.601   0
  -7   7  -4 474.301 181.676   0
  -7   7  -5-0.34564 184.556   0
  -7   7  -6 616.280 208.481   0
  -7   7  -7 785.078 208.974   0
  -7   6  14 62.6225 175.007   3
  -7   6  13-11.8859 164.095   3
  -7   6  12-40.9112 167.435   3
  -7   6  11 607.620 170.512   3
  -7   6  10 987.293 176.724   3
  -7   6   9-132.116 158.392   3
  -7   6   8 635.995 181.360   3
  -7   6   7 45.3710 169.669   3
  -7   6   6 674.253 167.052   3
  -7   6   6 416.786 124.419   0
  -7   6   5 132.081 161.746   3
  -7   6   5 60.0364 111.767   0
  -7   6   4 122.710 167.259   3
  -7   6   4 15.4130 122.223   0
  -7   6   3 127.839 174.168   3
  -7   6   3 93.6265 127.720   0
  -7   6   2 86.4129 165.756   3
  -7   6   2 67.2750 139.727   0
  -7   6   1 179.130 161.564   3
  -7   6   1 180.187 139.050   0
  -7   6   0-28.4848 163.501   3
  -7   6   0 25.3410 144.097   0
  -7   6  -1 4.93839 164.816   3
  -7   6  -1 46.5022 148.637   0
  -7   6  -2-31.4716 163.098   0
  -7   6  -2 31.2373 160.764   3
  -7   6  -3 495.004 171.227   0
  -7   6  -4 383.786 179.737   0
  -7   6  -5 2291.91 212.689   0
  -7   6  -6 2184.62 214.289   0
  -7   6  -7 61.2925 188.320   0
  -7   6  -8 1877.07 214.034   0
  -7   5  15 137.199 161.645   3
  -7   5  14 421.721 169.256   3
  -7   5  13 135.887 142.681   3
  -7   5  12 33.6535 173.513   3
  -7   5  11 41.3043 166.096   3
  -7   5  10 1281.89 179.482   3
  -7   5   9 1382.18 176.678   3
  -7   5   8-17.9354 155.939   3
  -7   5   7-41.1378 154.888   3
  -7   5   6 1834.23 196.602   3
  -7   5   5-101.510 158.789   3
  -7   5   5 104.036 124.154   0
  -7   5   4 148.481 152.415   3
  -7   5   4 18.6373 102.639   0
  -7   5   3 117.031 151.427   3
  -7   5   3 110.369 118.820   0
  -7   5   2-48.8744 162.441   3
  -7   5   2 25.8762 132.521   0
  -7   5   1 6.66842 135.036   0
  -7   5   1 8.20053 156.247   3
  -7   5   0 336.310 156.326   0
  -7   5   0 44.3084 156.985   3
  -7   5  -1 302.324 151.893   0
  -7   5  -1 244.453 151.110   3
  -7   5  -2-18.0312 162.282   0
  -7   5  -2-6.86541 154.322   3
  -7   5  -3 95.1652 169.119   0
  -7   5  -3-1.94004 158.619   3
  -7   5  -4 250.058 172.432   0
  -7   5  -5 25.0231 168.240   0
  -7   5  -6 466.139 177.151   0
  -7   5  -7 337.396 177.421   0
  -7   5  -8 529.010 190.082   0
  -7   5  -9 1387.15 217.093   0
  -7   4  15-127.176 148.187   3
  -7   4  14 218.396 132.445   3
  -7   4  13 227.479 148.464   3
  -7   4  12 53.8562 150.328   3
  -7   4  11-69.2740 150.887   3
  -7   4  10 1559.15 186.447   3
  -7   4   9 660.467 169.696   3
  -7   4   8 3320.69 192.680   3
  -7   4   7 2065.13 173.358   3
  -7   4   6-38.7387 146.188   3
  -7   4   5 72.3293 149.273   3
  -7   4   4 152.742 109.894   0
  -7   4   4 94.0136 150.392   3
  -7   4   3 63.1883 128.483   0
  -7   4   3 137.924 141.635   3
  -7   4   2 685.977 139.262   0
  -7   4   2 621.636 147.072   3
  -7   4   1 89.8426 136.309   0
  -7   4   1 121.611 151.463   3
  -7   4   0 104.552 149.219   0
  -7   4   0 110.225 143.914   3
  -7   4  -1 89.4298 154.223   0
  -7   4  -1 53.0824 142.807   3
  -7   4  -2 342.591 155.397   0
  -7   4  -2 394.344 155.113   3
  -7   4  -3 48.1725 156.389   0
  -7   4  -3 66.2651 154.334   3
  -7   4  -4-48.8425 160.435   0
  -7   4  -5 881.384 169.008   0
  -7   4  -6-84.5662 167.124   0
  -7   4  -7 131.405 185.708   0
  -7   4  -8 319.061 200.621   0
  -7   4  -9 101.110 200.744   0
  -7   3  16 2.65853 163.771   3
  -7   3  15 61.0978 135.407   3
  -7   3  14 129.840 132.631   3
  -7   3  13 95.1456 143.889   3
  -7   3  12 71.5512 140.150   3
  -7   3  11 31.5436 145.158   3
  -7   3  10 1148.78 158.992   3
  -7   3   9 161.618 140.605   3
  -7   3   8 638.265 161.699   3
  -7   3   7 951.497 155.720   3
  -7   3   6 388.360 138.373   3
  -7   3   5 316.634 137.582   3
  -7   3   4 67.1730 144.199   3
  -7   3   4 16.7641 119.012   2
  -7   3   3 873.533 138.707   0
  -7   3   3 823.788 146.563   3
  -7   3   3 814.905 123.275   2
  -7   3   2 2435.71 160.681   3
  -7   3   2 2529.73 138.373   2
  -7   3   1-44.0859 134.305   0
  -7   3   1 97.7376 140.456   3
  -7   3   1 66.5871 105.667   2
  -7   3   0 303.008 135.635   0
  -7   3   0 294.007 142.183   3
  -7   3   0 356.545 106.470   2
  -7   3  -1 14.0646 142.269   0
  -7   3  -1-5.83441 133.297   3
  -7   3  -2 119.884 136.261   3
  -7   3  -2 225.939 145.314   0
  -7   3  -3 163.460 148.595   3
  -7   3  -3 235.043 153.775   0
  -7   3  -4 2.82298 166.056   0
  -7   3  -5 422.361 182.814   0
  -7   3  -6 214.571 185.412   0
  -7   3  -7 264.616 186.787   0
  -7   3  -8 30.7551 119.111   1
  -7   3  -8 60.9703 191.904   0
  -7   3  -9 89.9999 120.846   1
  -7   3  -9 220.263 188.976   0
  -7   3 -10 67.1385 132.736   1
  -7   2  16 8.84846 162.529   3
  -7   2  15 129.189 157.530   3
  -7   2  14 255.607 152.053   3
  -7   2  13 154.786 152.338   3
  -7   2  12 173.263 149.085   3
  -7   2  11 33.5445 140.712   3
  -7   2  10 265.045 137.818   3
  -7   2   9 0.00000 132.349   3
  -7   2   9 124.176 142.298   2
  -7   2   8 200.526 133.167   3
  -7   2   8 85.0835 130.890   2
  -7   2   7 607.553 146.297   3
  -7   2   7 410.893 132.927   2
  -7   2   6 3.33944 135.393   3
  -7   2   6 61.1732 120.783   2
  -7   2   5 281.764 130.547   3
  -7   2   5 457.749 137.207   2
  -7   2   4 19.8409 129.006   3
  -7   2   4 90.2704 120.249   2
  -7   2   3 89.7391 145.036   3
  -7   2   3 210.435 119.816   2
  -7   2   2 3767.65 173.661   3
  -7   2   2 3927.85 152.026   0
  -7   2   2 4394.05 160.141   2
  -7   2   1 1705.21 152.435   3
  -7   2   1 1273.94 141.440   0
  -7   2   1 1460.38 123.555   2
  -7   2   0 2543.00 172.427   3
  -7   2   0 2595.14 166.509   0
  -7   2   0 1962.18 128.552   2
  -7   2  -1 71.6951 130.083   3
  -7   2  -1 164.321 104.786   1
  -7   2  -1 172.641 141.935   0
  -7   2  -2 57.7963 104.400   3
  -7   2  -2 8.34090 103.502   1
  -7   2  -2 43.6889 162.245   0
  -7   2  -3 68.2587 137.704   3
  -7   2  -3 10.7901 94.3986   1
  -7   2  -3 105.904 155.548   0
  -7   2  -4-23.4221 90.4371   1
  -7   2  -4 134.674 170.732   0
  -7   2  -5 0.43061 93.3870   1
  -7   2  -5 119.619 172.691   0
  -7   2  -6 63.4853 95.1489   1
  -7   2  -6 229.758 181.059   0
  -7   2  -7 13.9065 99.6713   1
  -7   2  -7 119.924 171.520   0
  -7   2  -8-20.4180 108.661   1
  -7   2  -8 154.880 184.537   0
  -7   2  -9-28.4877 123.733   1
  -7   2  -9 50.9868 188.890   0
  -7   2 -10 158.501 128.781   1
  -7   1  16 144.845 163.746   3
  -7   1  15 234.261 156.639   3
  -7   1  14-99.7879 153.028   3
  -7   1  13-50.1084 145.462   3
  -7   1  13-105.204 142.587   2
  -7   1  12 65.3938 140.678   3
  -7   1  12 56.9475 145.154   2
  -7   1  11 251.342 140.412   3
  -7   1  11 210.714 145.498   2
  -7   1  10 63.6102 136.203   3
  -7   1  10-22.9864 145.887   2
  -7   1   9 88.4035 125.652   3
  -7   1   9 94.8151 137.183   2
  -7   1   8 376.041 132.119   3
  -7   1   8 214.689 134.546   2
  -7   1   7 774.311 136.599   3
  -7   1   7 789.810 129.839   2
  -7   1   6-36.8648 135.100   3
  -7   1   6-29.5664 118.982   2
  -7   1   5 1016.25 142.452   3
  -7   1   5 944.128 129.984   2
  -7   1   4 1791.92 143.892   3
  -7   1   4 1988.76 143.025   2
  -7   1   3 276.065 132.948   3
  -7   1   3 384.858 126.656   1
  -7   1   3 306.489 123.698   2
  -7   1   2 834.630 131.028   3
  -7   1   2 617.299 125.938   2
  -7   1   1 12.3751 120.406   3
  -7   1   1-41.6408 121.505   1
  -7   1   1 6.95996 115.995   2
  -7   1   0 1546.30 142.840   3
  -7   1   0 1437.21 127.331   1
  -7   1   0 1654.19 160.145   0
  -7   1   0 1187.08 120.312   2
  -7   1  -1 141.557 116.087   1
  -7   1  -1 134.469 127.929   0
  -7   1  -2 11.5062 108.618   1
  -7   1  -2 226.794 142.340   0
  -7   1  -3 550.062 114.305   1
  -7   1  -3 673.387 154.885   0
  -7   1  -4 53.1031 121.271   1
  -7   1  -4 41.3610 155.615   0
  -7   1  -5 39.6511 117.169   1
  -7   1  -5 84.8906 165.886   0
  -7   1  -6-19.6229 117.054   1
  -7   1  -6 46.9478 171.424   0
  -7   1  -7 52.6821 116.823   1
  -7   1  -7 53.6077 188.664   0
  -7   1  -8 0.82487 100.247   1
  -7   1  -8-107.671 199.860   0
  -7   1  -9 50.9624 213.873   0
  -7   1  -9 16.1908 135.252   1
  -7   0  16 588.415 166.650   3
  -7   0  15 817.932 166.460   3
  -7   0  15 634.183 155.111   2
  -7   0  14 540.165 158.742   3
  -7   0  14 310.590 148.177   2
  -7   0  13 58.0506 139.769   3
  -7   0  13 55.0336 146.335   2
  -7   0  12 46.7973 136.547   3
  -7   0  12 63.4081 144.772   2
  -7   0  11 324.846 140.460   3
  -7   0  11 368.889 145.035   2
  -7   0  10 333.625 139.569   3
  -7   0  10 510.758 138.459   2
  -7   0   9 224.023 129.887   3
  -7   0   9 453.555 130.788   2
  -7   0   8 6.93871 124.974   3
  -7   0   8 39.9209 137.574   2
  -7   0   7 1001.13 134.650   3
  -7   0   7 972.261 139.979   2
  -7   0   6 25.9250 126.879   3
  -7   0   6 43.3661 121.464   2
  -7   0   5 490.552 126.717   3
  -7   0   5 517.224 130.684   2
  -7   0   4 14.7049 121.687   3
  -7   0   4 97.1887 127.487   2
  -7   0   3 1586.90 149.811   1
  -7   0   3 1286.04 142.238   2
  -7   0   2 622.406 143.372   1
  -7   0   2 528.762 133.802   2
  -7   0   1 40.2589 138.710   1
  -7   0   1 143.715 125.704   2
  -7   0   0 398.508 130.801   1
  -7   0   0 58.2866 106.958   2
  -7   0  -1 7713.23 212.595   0
  -7   0  -1 7723.72 212.916   1
  -7   0  -1 7680.20 202.986   2
  -7   0  -2 578.910 136.959   1
  -7   0  -2 425.370 127.327   0
  -7   0  -3 57.0328 118.680   1
  -7   0  -3 90.1741 162.855   0
  -7   0  -4 354.445 177.767   0
  -7   0  -4 252.086 127.484   1
  -7   0  -5-33.8345 124.031   1
  -7   0  -6 153.117 131.145   1
  -7   0  -7 77.6131 131.323   1
  -7   0  -8 163.843 134.104   1
  -7  -1  16 232.605 171.079   3
  -7  -1  16 403.287 154.003   2
   7   1 -15 525.109 160.137   1
  -7  -1  15 475.809 165.826   3
  -7  -1  15 358.138 152.945   2
  -7  -1  14 2969.95 189.245   3
  -7  -1  14 2282.91 167.021   2
   7   1 -13-46.1211 131.209   1
  -7  -1  13 32.8742 144.918   3
  -7  -1  13-67.1130 139.895   2
  -7  -1  12 70.2461 133.822   3
  -7  -1  12 117.914 133.755   2
  -7  -1  11 57.5065 137.315   3
  -7  -1  11 137.344 133.161   2
  -7  -1  10 12.4550 130.188   3
  -7  -1  10 105.326 133.706   2
  -7  -1   9 129.430 108.301   3
  -7  -1   9 110.456 136.575   2
  -7  -1   8 4.94002 100.416   3
  -7  -1   8 27.6993 129.132   2
  -7  -1   7-47.3596 111.520   3
  -7  -1   7 65.6104 129.383   2
  -7  -1   6 549.927 139.665   2
  -7  -1   5 81.2533 134.356   2
  -7  -1   4 268.770 128.106   2
  -7  -1   3-43.3526 145.451   1
  -7  -1   3 32.9500 128.416   2
  -7  -1   2 1090.73 161.812   1
  -7  -1   2 710.560 137.836   2
  -7  -1   1 165.753 145.425   1
  -7  -1   1 41.6873 125.323   2
  -7  -1   0-98.3497 142.812   1
  -7  -1   0-133.792 125.552   2
  -7  -1  -1 1290.68 154.724   1
  -7  -1  -1 822.859 116.962   2
  -7  -1  -2 163.984 138.459   1
  -7  -1  -3 2545.92 168.266   1
  -7  -1  -4 1756.89 159.676   1
  -7  -1  -5 655.193 145.549   1
  -7  -1  -6 162.293 148.219   1
  -7  -1  -7 145.056 147.510   1
   7   2 -15 585.971 174.954   1
  -7  -2  15 601.651 166.419   3
  -7  -2  15 475.749 148.621   2
   7   2 -14 47.4976 160.436   1
  -7  -2  14 6.72712 155.724   3
  -7  -2  14 35.7687 134.185   2
  -7  -2  13 1259.84 156.654   3
  -7  -2  13 884.641 130.263   2
  -7  -2  12 3794.68 189.415   3
  -7  -2  12 2884.04 170.195   2
  -7  -2  11 314.915 132.635   3
  -7  -2  11-31.9383 142.228   2
  -7  -2  10 568.553 156.937   2
  -7  -2   9 1726.04 164.085   2
  -7  -2   8 798.958 147.838   2
  -7  -2   7 6.82881 136.789   2
  -7  -2   6 5.18897 134.559   2
  -7  -2   5 108.787 133.829   2
  -7  -2   4 554.673 142.637   2
  -7  -2   3 133.492 156.004   1
  -7  -2   3 56.3298 136.187   2
  -7  -2   2 288.876 163.925   1
  -7  -2   2 133.903 132.203   2
  -7  -2   1 211.438 162.666   1
  -7  -2   1 124.394 134.727   2
  -7  -2   0 128.562 152.992   1
  -7  -2   0 4.76001 132.064   2
  -7  -2  -1 13.8025 153.480   1
  -7  -2  -1-1.40506 111.829   2
  -7  -2  -2 1.82234 143.740   1
  -7  -2  -3 267.953 144.171   1
  -7  -2  -4 537.231 150.901   1
  -7  -2  -5 387.007 139.995   1
  -7  -3  13 30.8141 139.141   2
  -7  -3  12-5.95598 133.697   2
  -7  -3  11 146.546 129.734   2
  -7  -3  10 131.294 127.314   2
  -7  -3   9 2953.66 174.555   2
  -7  -3   8 220.036 142.781   2
  -7  -3   7 790.652 160.245   2
  -7  -3   6 721.451 144.834   2
  -7  -3   5 703.043 148.684   2
  -7  -3   4 709.990 155.459   2
  -7  -3   3 251.009 148.748   2
  -7  -3   2 350.834 175.168   1
  -7  -3   2 207.275 148.638   2
  -7  -3   1-86.8526 169.686   1
  -7  -3   1-14.3815 145.242   2
  -7  -3   0 123.393 171.276   1
  -7  -3   0 55.7771 118.845   2
  -7  -3  -1-54.0573 170.378   1
  -7  -3  -1 29.3500 137.651   2
  -7  -3  -2 67.4658 169.794   1
  -7  -3  -2-103.098 137.033   2
  -7  -4   9 33.0968 147.970   2
  -7  -4   8 288.747 156.408   2
  -7  -4   7 56.7647 154.454   2
  -7  -4   6 148.474 158.190   2
  -7  -4   5 80.4413 169.923   2
  -7  -4   4 356.193 161.686   2
  -7  -4   3 151.010 152.741   2
  -7  -4   2 137.325 154.149   2
  -7  -4   1-73.9105 149.300   2
  -7  -4   0-184.977 153.990   2
   8  -8  -6 541.942 159.737   2
  -8   8   6 460.904 160.670   0
   8  -8  -5 116.083 150.875   2
  -8   8   5 2.72057 153.671   0
   8  -8  -4 161.399 150.557   2
  -8   8   4 406.509 186.553   3
  -8   8   4 488.312 168.172   0
  -8   8   3 81.1596 182.095   3
  -8   8   3 146.973 170.106   0
  -8   8   2 223.842 170.067   0
  -8   8   1 404.063 165.128   0
  -8   8   0 161.988 162.391   0
  -8   7   9 154.590 179.756   3
  -8   7   8-5.61522 178.025   3
  -8   7   7 208.648 163.992   3
  -8   7   6 298.935 164.430   3
  -8   7   5 370.850 169.136   3
  -8   7   5 492.212 150.832   0
  -8   7   4 239.785 157.962   3
  -8   7   4 470.695 147.768   0
  -8   7   3 176.186 160.991   3
  -8   7   3 93.9136 124.256   0
  -8   7   2 95.6194 177.584   3
  -8   7   2 32.8548 129.839   0
  -8   7   1 220.443 184.165   3
  -8   7   1 42.5924 138.462   0
  -8   7   0 65.3458 168.129   0
  -8   7   0 133.541 183.245   3
  -8   7  -1 50.1262 176.067   0
  -8   7  -1 83.5873 185.881   3
  -8   7  -2 1427.65 196.329   0
  -8   7  -3 264.751 195.120   0
  -8   6  11 490.137 176.502   3
  -8   6  10 584.435 177.418   3
  -8   6   9 286.234 164.667   3
  -8   6   8 235.774 158.143   3
  -8   6   7 218.609 149.189   3
  -8   6   6 118.073 145.646   3
  -8   6   5 168.381 150.305   3
  -8   6   4-136.444 179.484   3
  -8   6   4-28.8952 137.339   0
  -8   6   3 159.037 182.844   3
  -8   6   3 267.423 122.841   0
  -8   6   2-44.4252 129.312   0
  -8   6   2-73.7111 177.711   3
  -8   6   1 337.294 163.703   0
  -8   6   1 286.753 179.213   3
  -8   6   0 165.460 164.924   0
  -8   6   0 261.577 177.607   3
  -8   6  -1 75.0135 176.359   0
  -8   6  -1 93.4839 178.104   3
  -8   6  -2 741.277 193.738   0
  -8   6  -2 685.225 187.630   3
  -8   6  -3-57.5264 183.849   0
  -8   6  -4 416.481 188.281   0
  -8   6  -5 193.205 182.031   0
  -8   5  12 533.038 187.308   3
  -8   5  11 1236.39 176.009   3
  -8   5  10 344.596 147.582   3
  -8   5   9 2.88694 145.186   3
  -8   5   8 44.6138 166.991   3
  -8   5   7 352.548 195.622   3
  -8   5   6 881.785 185.619   3
  -8   5   5 129.026 164.881   3
  -8   5   4 46.3451 167.671   3
  -8   5   3 68.1126 141.839   0
  -8   5   3 133.896 174.524   3
  -8   5   2 198.665 134.392   0
  -8   5   2 253.907 175.624   3
  -8   5   1 443.876 155.351   0
  -8   5   1 690.782 174.453   3
  -8   5   0-8.01776 168.096   0
  -8   5   0-28.4009 158.501   3
  -8   5  -1 41.6238 171.067   0
  -8   5  -1 99.5173 159.766   3
  -8   5  -2 40.4990 169.940   0
  -8   5  -2 190.118 173.344   3
  -8   5  -3 45.2966 171.111   0
  -8   5  -4 125.695 177.600   0
  -8   5  -5 552.644 187.503   0
  -8   5  -6 44.3099 183.116   0
  -8   4  13 117.559 166.964   3
  -8   4  12 175.743 179.169   3
  -8   4  11 246.745 180.128   3
  -8   4  10 493.238 173.126   3
  -8   4   9 2481.67 198.608   3
  -8   4   8 6382.66 232.107   3
  -8   4   7 2866.59 196.785   3
  -8   4   6-9.49315 168.057   3
  -8   4   5 1169.28 185.735   3
  -8   4   4 346.431 160.823   3
  -8   4   3 730.785 166.587   3
  -8   4   2 117.325 150.524   0
  -8   4   2-44.6453 170.462   3
  -8   4   1 309.339 133.004   0
  -8   4   1 253.926 164.888   3
  -8   4   0 152.898 140.374   0
  -8   4   0 378.348 159.806   3
  -8   4  -1 38.1906 155.506   0
  -8   4  -1 32.9176 154.516   3
  -8   4  -2 148.191 162.365   3
  -8   4  -2 335.650 166.307   0
  -8   4  -3 319.882 159.545   3
  -8   4  -3 278.382 165.239   0
  -8   4  -4 146.261 175.368   0
  -8   4  -5 228.410 191.045   0
  -8   4  -6 235.191 198.207   0
  -8   3  14 21.7765 159.885   3
  -8   3  13 279.903 165.754   3
  -8   3  12 186.376 162.155   3
  -8   3  11 164.573 158.007   3
  -8   3  10 23.1513 172.681   3
  -8   3   9 299.552 171.675   3
  -8   3   8 1088.44 172.060   3
  -8   3   7 286.077 153.269   3
  -8   3   6 3304.65 194.247   3
  -8   3   5 3924.57 208.555   3
  -8   3   4 1391.88 170.401   3
  -8   3   4 1319.02 147.254   2
  -8   3   3 2697.13 181.384   3
  -8   3   3 2723.86 167.156   2
  -8   3   2 233.166 149.634   3
  -8   3   2 51.8094 102.831   2
  -8   3   1 215.108 154.888   3
  -8   3   1 144.500 137.349   0
  -8   3   0 1483.53 171.909   3
  -8   3   0 1200.12 140.720   0
  -8   3  -1 26.3977 136.938   3
  -8   3  -1 181.601 138.744   0
  -8   3  -2 89.3142 129.437   3
  -8   3  -2 70.4788 164.768   0
  -8   3  -3 592.321 144.598   3
  -8   3  -3 336.381 176.735   0
  -8   3  -4 57.2488 185.549   0
  -8   3  -5 123.037 181.323   0
  -8   3  -6 92.1205 196.066   0
  -8   2  14 300.890 165.209   3
  -8   2  13 22.3755 153.798   3
  -8   2  12 113.317 157.588   3
  -8   2  11 130.964 151.371   3
  -8   2  10 5.02718 145.887   3
  -8   2  10 58.0363 148.607   2
  -8   2   9 140.454 153.753   3
  -8   2   9 181.293 152.629   2
  -8   2   8 236.052 156.155   3
  -8   2   8 90.3401 146.627   2
  -8   2   7-73.4109 145.804   3
  -8   2   7 12.5191 146.837   2
  -8   2   6 787.050 153.629   3
  -8   2   6 769.791 155.323   2
  -8   2   5 146.241 149.107   3
  -8   2   5 6.54103 139.160   2
  -8   2   4 326.418 158.996   3
  -8   2   4 286.360 143.755   2
  -8   2   3 4997.75 192.217   3
  -8   2   3 4598.52 189.120   2
  -8   2   2 3008.11 166.641   3
  -8   2   2 2560.03 146.976   2
  -8   2   1 1051.90 146.839   3
  -8   2   1 1657.32 147.395   2
  -8   2   0 106.431 133.471   3
  -8   2  -1 322.888 143.029   0
  -8   2  -2 166.765 144.072   0
  -8   2  -3 136.411 147.904   0
  -8   2  -4 73.8840 141.523   0
  -8   2  -5 147.131 145.604   0
  -8   2  -6 88.2598 183.445   0
  -8   2  -7 60.0942 124.007   1
  -8   1  14 138.357 166.192   3
  -8   1  13 849.450 165.629   3
  -8   1  13 639.312 155.331   2
  -8   1  12-57.2053 151.830   3
  -8   1  12 44.9198 146.534   2
  -8   1  11 774.446 152.126   3
  -8   1  11 1141.45 169.599   2
  -8   1  10 46.1497 141.775   3
  -8   1  10-50.2857 157.914   2
  -8   1   9 72.8396 137.212   3
  -8   1   9 18.7380 153.854   2
  -8   1   8 41.5848 160.351   3
  -8   1   8 74.3823 145.637   2
  -8   1   7 584.674 155.671   3
  -8   1   7 270.906 140.729   2
  -8   1   6 158.419 138.511   3
  -8   1   6 147.010 141.138   2
  -8   1   5 1238.37 142.279   3
  -8   1   5 1927.03 158.193   2
  -8   1   4 672.392 140.122   3
  -8   1   4 668.817 138.700   2
  -8   1   3 64.9657 140.711   3
  -8   1   3 158.337 130.371   2
  -8   1   2 354.387 127.213   2
  -8   1   1 8952.46 231.002   1
  -8   1   1 5099.62 176.076   2
  -8   1   0 13219.3 273.101   1
  -8   1  -1 377.606 120.420   1
  -8   1  -2 1084.34 178.162   0
  -8   1  -2 864.525 127.925   1
  -8   1  -3-29.5637 100.557   1
  -8   1  -3 27.7334 152.844   0
  -8   1  -4 15.6645 115.723   1
  -8   1  -4-29.6667 169.845   0
  -8   1  -5 34.4541 127.093   1
  -8   1  -5 158.185 183.173   0
  -8   1  -6 62.6390 127.592   1
  -8   1  -6 190.321 194.231   0
  -8   0  14 61.9760 160.055   3
  -8   0  13 616.445 146.175   3
  -8   0  13 1183.56 178.031   2
  -8   0  12 27.3803 121.407   3
  -8   0  12 73.0381 152.657   2
  -8   0  11 127.679 118.279   3
  -8   0  11 233.309 156.260   2
  -8   0  10 226.278 122.513   3
  -8   0  10 278.658 145.412   2
  -8   0   9 238.110 113.411   3
  -8   0   9 220.098 143.094   2
  -8   0   8 96.1862 124.865   3
  -8   0   8 150.425 145.568   2
  -8   0   7 123.541 142.978   3
  -8   0   7 73.6719 141.970   2
  -8   0   6 28.5192 146.377   2
  -8   0   5 36.9560 137.441   2
  -8   0   4 78.1491 132.440   2
  -8   0   3 404.645 129.797   1
  -8   0   3 596.478 142.145   2
  -8   0   2 414.770 130.552   1
  -8   0   2 597.593 132.045   2
  -8   0   1 95.0313 125.314   1
  -8   0   1 145.943 110.241   2
  -8   0   0 63.5077 120.900   1
  -8   0  -1 121.963 111.836   1
  -8   0  -2 3619.62 173.575   1
  -8   0  -3 1191.98 133.243   1
  -8   0  -4 525.793 144.092   1
  -8   0  -5 78.4690 131.010   1
  -8  -1  13 985.143 169.736   3
  -8  -1  12-26.1983 151.334   3
  -8  -1  12 31.7281 150.967   2
  -8  -1  11 154.335 138.406   3
  -8  -1  11 225.565 148.195   2
  -8  -1  10 121.253 143.590   2
  -8  -1   9-66.9214 141.717   2
  -8  -1   8 351.089 151.769   2
  -8  -1   7 52.5444 143.790   2
  -8  -1   6 1003.82 159.544   2
  -8  -1   5 153.686 144.681   2
  -8  -1   4 42.6987 145.441   2
  -8  -1   3 168.458 163.251   1
  -8  -1   3 218.697 140.647   2
  -8  -1   2 8.02818 157.186   1
  -8  -1   2 59.2216 117.305   2
  -8  -1   1 26.4560 156.321   1
  -8  -1   1 140.434 114.385   2
  -8  -1   0-46.4275 146.980   1
  -8  -1   0 91.2993 134.723   2
  -8  -1  -1-40.8332 139.625   1
  -8  -1  -2 218.070 148.698   1
  -8  -1  -3 24.2902 139.398   1
  -8  -2  10 15.1594 152.754   2
  -8  -2   9 76.4006 151.087   2
  -8  -2   8 18.0192 152.127   2
  -8  -2   7 266.982 150.363   2
  -8  -2   6 39.5296 148.490   2
  -8  -2   5 194.951 146.736   2
  -8  -2   4 167.163 146.993   2
  -8  -2   3 316.427 147.099   2
  -8  -2   2 835.730 181.672   1
  -8  -2   2 362.369 135.794   2
  -8  -2   1 297.622 176.790   1
  -8  -2   1 95.9801 144.734   2
  -8  -2   0 82.6793 161.699   1
  -8  -2   0 113.658 141.347   2
  -9   7   2 329.115 180.270   0
  -9   6   4 71.3623 191.351   3
  -9   6   3 257.770 197.703   3
  -9   6   2 150.474 184.449   3
  -9   6   1-18.9024 173.407   0
  -9   6   0 45.8914 184.482   0
  -9   6  -1 79.4384 183.147   0
  -9   5   8-59.6868 191.845   3
  -9   5   7-89.9304 184.898   3
  -9   5   6 198.349 171.103   3
  -9   5   5-8.26058 175.937   3
  -9   5   4-31.3725 185.141   3
  -9   5   3 79.1767 185.877   3
  -9   5   2-7.62995 179.416   3
  -9   5   1-89.8765 172.696   3
  -9   5   0 45.9615 166.614   0
  -9   5   0 121.910 172.697   3
  -9   5  -1 165.528 172.200   0
  -9   5  -1 210.930 184.527   3
  -9   5  -2 92.8495 173.055   3
  -9   5  -2 127.972 165.981   0
  -9   4   9 699.415 181.165   3
  -9   4   8 49.0928 176.286   3
  -9   4   7 2263.35 215.218   3
  -9   4   6 203.036 174.202   3
  -9   4   5 69.3522 166.446   3
  -9   4   4 184.203 165.552   3
  -9   4   3-35.1056 179.383   3
  -9   4   2 357.285 181.122   3
  -9   4   1-23.3385 139.052   3
  -9   4   0 41.4793 145.165   3
  -9   4  -1 215.942 161.423   3
  -9   4  -1 322.417 178.347   0
  -9   4  -2 453.275 174.824   3
  -9   4  -2 12.8014 182.943   0
  -9   4  -3-65.9551 183.820   0
  -9   3  10 653.954 180.326   3
  -9   3   9 130.748 162.706   3
  -9   3   8 191.715 164.678   3
  -9   3   7 498.573 173.203   3
  -9   3   6 164.189 174.655   3
  -9   3   5 12.3282 153.366   3
  -9   3   4 64.9406 134.807   3
  -9   3   4 51.5815 123.057   2
  -9   3   3 910.502 151.340   3
  -9   3   3 1390.19 158.632   2
  -9   3   2 468.640 154.940   3
  -9   3   1 225.996 169.895   3
  -9   3   0 63.9598 157.581   3
  -9   3  -2 8.97014 181.024   0
  -9   3  -3 215.462 193.986   0
  -9   2  11-92.8045 187.712   3
  -9   2  10 123.621 176.569   3
  -9   2  10 100.635 164.535   2
  -9   2   9 92.5540 139.488   3
  -9   2   9 19.9292 158.975   2
  -9   2   8 20.1548 128.797   3
  -9   2   8 16.8011 164.462   2
  -9   2   7 0.62009 127.560   3
  -9   2   7 0.32848 158.343   2
  -9   2   6 63.0036 142.256   3
  -9   2   6 160.226 154.344   2
  -9   2   5-18.4235 139.909   3
  -9   2   5 40.4693 129.187   2
  -9   2   4 13.0288 151.218   3
  -9   2   4-14.5690 122.307   2
  -9   2   3 144.915 148.485   3
  -9   2   3 75.3516 149.289   2
  -9   1  11-99.3328 157.606   3
  -9   1  10 205.493 188.867   3
  -9   1   9 177.837 160.229   3
  -9   1   9 113.521 175.696   2
  -9   1   8 22.1105 154.764   3
  -9   1   8-48.4217 160.592   2
  -9   1   7 724.087 156.940   3
  -9   1   7 680.592 166.460   2
  -9   1   6-43.9712 151.123   2
  -9   1   5-8.00820 122.884   2
  -9   1   4 341.280 128.810   2
  -9   1   3 1127.65 154.435   2
  -9   0  11 8.15206 157.054   3
  -9   0   8-31.2386 145.528   2
  -9   0   7 62.2379 142.411   2
  -9   0   6 416.388 151.739   2
  -9   0   5-0.95554 148.672   2
  -9   0   4 51.5953 145.433   2
  -9   0   3 376.255 152.320   2
  -9   0   2 32.8390 142.121   2
  -9   0   1-32.2871 160.868   1
  -9   0   0 101.372 166.292   1
;
_shelx_hkl_checksum              6506
loop_
_space_group_symop_operation_xyz
'x, y, z'
'-x, -y, -z'
loop_
_atom_site_label
_atom_site_type_symbol
_atom_site_fract_x
_atom_site_fract_y
_atom_site_fract_z
_atom_site_U_iso_or_equiv
_atom_site_adp_type
_atom_site_occupancy
_atom_site_site_symmetry_order
_atom_site_calc_flag
_atom_site_refinement_flags_posn
_atom_site_refinement_flags_adp
_atom_site_refinement_flags_occupancy
_atom_site_disorder_assembly
_atom_site_disorder_group
C5 C 0.2289(3) -0.1192(3) 1.04068(12) 0.0361(4) Uani 1 1 d . . . . .
C6 C 0.2197(3) -0.2331(3) 1.08911(13) 0.0361(4) Uani 1 1 d . . . . .
C7 C 0.2077(2) -0.3733(2) 1.14327(12) 0.0337(4) Uani 1 1 d . . . . .
C4 C 0.2388(3) 0.0056(3) 0.98406(12) 0.0374(5) Uani 1 1 d . . . . .
C8 C 0.1897(3) -0.3473(2) 1.23040(13) 0.0379(5) Uani 1 1 d . . . . .
H8 H 0.1863 -0.2352 1.2547 0.045 Uiso 1 1 calc R U . . .
C11 C 0.1972(3) -0.6760(3) 1.15876(15) 0.0446(5) Uani 1 1 d . . . . .
H11 H 0.1992 -0.7886 1.1343 0.053 Uiso 1 1 calc R U . . .
C10 C 0.1811(3) -0.6495(3) 1.24534(14) 0.0418(5) Uani 1 1 d . . . . .
C12 C 0.2105(3) -0.5398(3) 1.10779(14) 0.0406(5) Uani 1 1 d . . . . .
H12 H 0.2216 -0.5586 1.0481 0.049 Uiso 1 1 calc R U . . .
C13 C 0.1627(3) -0.7942(3) 1.29767(17) 0.0553(6) Uani 1 1 d . . . . .
C9 C 0.1767(3) -0.4846(3) 1.28151(13) 0.0437(5) Uani 1 1 d . . . . .
H9 H 0.1648 -0.4670 1.3411 0.052 Uiso 1 1 calc R U . . .
N1 N 0.1455(3) -0.9120(3) 1.33838(17) 0.0760(7) Uani 1 1 d . . . . .
C3 C 0.2491(3) 0.1132(3) 0.93174(13) 0.0400(5) Uani 1 1 d . . . . .
C2 C 0.2590(6) 0.2178(6) 0.8696(3) 0.0337(9) Uani 0.728(5) 1 d D . P A 1
C1 C 0.2708(4) 0.3180(5) 0.8119(2) 0.0323(7) Uani 0.728(5) 1 d D . P A 1
C14 C 0.2826(5) 0.4318(6) 0.7480(3) 0.0310(8) Uani 0.728(5) 1 d D . P A 1
C16 C 0.2826(4) 0.5572(5) 0.6197(2) 0.0327(7) Uani 0.728(5) 1 d D . P A 1
C15 C 0.2582(6) 0.3978(7) 0.6557(3) 0.0345(9) Uani 0.728(5) 1 d . . P A 1
H15 H 0.2293 0.2831 0.6222 0.041 Uiso 0.728(5) 1 calc R U P A 1
C17 C 0.3224(8) 0.6919(7) 0.6903(4) 0.0357(10) Uani 0.728(5) 1 d D . P A 1
C18 C 0.3553(8) 0.8901(8) 0.6864(3) 0.0554(15) Uani 0.728(5) 1 d D . P A 1
H18A H 0.2397 0.9186 0.6971 0.067 Uiso 0.728(5) 1 calc R U P A 1
H18B H 0.4736 0.9625 0.7351 0.067 Uiso 0.728(5) 1 calc R U P A 1
C21 C 0.2714(6) 0.6006(6) 0.5260(3) 0.0495(12) Uani 0.728(5) 1 d D . P A 1
H21A H 0.1580 0.5086 0.4822 0.059 Uiso 0.728(5) 1 calc R U P A 1
H21B H 0.3945 0.6036 0.5096 0.059 Uiso 0.728(5) 1 calc R U P A 1
C19 C 0.3837(7) 0.9408(6) 0.5978(3) 0.0614(11) Uani 0.728(5) 1 d D . P A 1
H19A H 0.5221 0.9590 0.5964 0.074 Uiso 0.728(5) 1 calc R U P A 1
H19B H 0.3565 1.0541 0.5888 0.074 Uiso 0.728(5) 1 calc R U P A 1
C20 C 0.2438(6) 0.7925(5) 0.5247(3) 0.0571(11) Uani 0.728(5) 1 d D . P A 1
H20A H 0.2559 0.8307 0.4660 0.069 Uiso 0.728(5) 1 calc R U P A 1
H20B H 0.1070 0.7783 0.5277 0.069 Uiso 0.728(5) 1 calc R U P A 1
C22 C 0.3436(5) 0.7060(5) 0.8572(3) 0.0424(9) Uani 0.728(5) 1 d . . P A 1
H22A H 0.4298 0.6637 0.9025 0.064 Uiso 0.728(5) 1 calc R U P A 1
H22B H 0.2130 0.6779 0.8688 0.064 Uiso 0.728(5) 1 calc R U P A 1
H22C H 0.4022 0.8361 0.8605 0.064 Uiso 0.728(5) 1 calc R U P A 1
N2 N 0.3225(5) 0.6173(6) 0.7677(3) 0.0319(8) Uani 0.728(5) 1 d . . P A 1
C12' C 0.2717(19) 0.2735(15) 0.8800(9) 0.035(3) Uiso 0.272(5) 1 d . . P A 2
C13' C 0.2850(15) 0.3837(15) 0.8373(7) 0.046(3) Uiso 0.272(5) 1 d . . P A 2
C14' C 0.2982(15) 0.527(2) 0.7778(9) 0.042(3) Uani 0.272(5) 1 d . . P A 2
C15' C 0.3248(14) 0.6964(18) 0.7998(11) 0.052(3) Uani 0.272(5) 1 d . . P A 2
H151 H 0.3426 0.7606 0.8572 0.063 Uiso 0.272(5) 1 calc R U P A 2
C16' C 0.320(2) 0.762(2) 0.7138(11) 0.051(4) Uani 0.272(5) 1 d D . P A 2
C17' C 0.3008(17) 0.6256(17) 0.6521(8) 0.034(3) Uiso 0.272(5) 1 d D . P A 2
C18' C 0.289(2) 0.6112(17) 0.5553(9) 0.071(5) Uiso 0.272(5) 1 d D . P A 2
H181 H 0.1498 0.5449 0.5220 0.085 Uiso 0.272(5) 1 calc R U P A 2
H182 H 0.3687 0.5359 0.5432 0.085 Uiso 0.272(5) 1 calc R U P A 2
C21' C 0.347(4) 0.918(3) 0.6773(11) 0.105(10) Uiso 0.272(5) 1 d D . P A 2
H211 H 0.4909 0.9876 0.6931 0.126 Uiso 0.272(5) 1 calc R U P A 2
H212 H 0.2812 0.9917 0.7039 0.126 Uiso 0.272(5) 1 calc R U P A 2
C19' C 0.3549(13) 0.7779(10) 0.5158(5) 0.042(2) Uani 0.272(5) 1 d D . P A 2
H191 H 0.2944 0.7618 0.4501 0.050 Uiso 0.272(5) 1 calc R U P A 2
H192 H 0.5009 0.8310 0.5297 0.050 Uiso 0.272(5) 1 calc R U P A 2
C20' C 0.2629(15) 0.8832(11) 0.5720(6) 0.035(2) Uani 0.272(5) 1 d D . P A 2
H201 H 0.1189 0.8169 0.5576 0.043 Uiso 0.272(5) 1 calc R U P A 2
H202 H 0.2786 1.0010 0.5511 0.043 Uiso 0.272(5) 1 calc R U P A 2
C22' C 0.2633(18) 0.3063(18) 0.6479(8) 0.056(3) Uani 0.272(5) 1 d . . P A 2
H221 H 0.3777 0.2710 0.6752 0.084 Uiso 0.272(5) 1 calc R U P A 2
H222 H 0.2559 0.3140 0.5842 0.084 Uiso 0.272(5) 1 calc R U P A 2
H223 H 0.1418 0.2167 0.6530 0.084 Uiso 0.272(5) 1 calc R U P A 2
N2' N 0.2838(12) 0.4712(13) 0.6920(11) 0.056(4) Uani 0.272(5) 1 d . . P A 2
loop_
_atom_site_aniso_label
_atom_site_aniso_U_11
_atom_site_aniso_U_22
_atom_site_aniso_U_33
_atom_site_aniso_U_23
_atom_site_aniso_U_13
_atom_site_aniso_U_12
C5 0.0322(10) 0.0439(11) 0.0339(10) 0.0049(9) 0.0093(8) 0.0149(8)
C6 0.0285(10) 0.0427(11) 0.0363(10) 0.0023(9) 0.0073(8) 0.0127(8)
C7 0.0228(9) 0.0370(10) 0.0377(11) 0.0055(8) 0.0063(8) 0.0063(8)
C4 0.0346(11) 0.0472(11) 0.0329(10) 0.0067(9) 0.0112(8) 0.0156(9)
C8 0.0362(11) 0.0340(10) 0.0406(11) 0.0040(8) 0.0077(9) 0.0099(8)
C11 0.0339(11) 0.0367(11) 0.0647(15) 0.0061(10) 0.0170(10) 0.0114(9)
C10 0.0265(10) 0.0385(11) 0.0592(14) 0.0153(10) 0.0104(9) 0.0081(8)
C12 0.0332(10) 0.0414(11) 0.0463(12) 0.0049(9) 0.0115(9) 0.0110(9)
C13 0.0343(12) 0.0538(14) 0.0827(17) 0.0290(13) 0.0186(11) 0.0154(10)
C9 0.0401(11) 0.0508(12) 0.0373(11) 0.0093(9) 0.0103(9) 0.0105(10)
N1 0.0507(12) 0.0712(14) 0.1164(19) 0.0527(14) 0.0294(12) 0.0215(11)
C3 0.0334(10) 0.0526(12) 0.0371(11) 0.0091(10) 0.0110(9) 0.0170(9)
C2 0.0333(17) 0.030(2) 0.040(2) 0.0083(18) 0.0113(13) 0.0120(16)
C1 0.0278(14) 0.0367(17) 0.0311(17) 0.0022(15) 0.0071(12) 0.0103(13)
C14 0.0306(15) 0.036(2) 0.028(2) 0.0120(18) 0.0098(14) 0.0112(15)
C16 0.0355(15) 0.0419(19) 0.0257(18) 0.0140(16) 0.0131(13) 0.0142(14)
C15 0.0423(19) 0.030(3) 0.034(2) 0.004(2) 0.0138(16) 0.013(2)
C17 0.0314(18) 0.041(3) 0.041(4) 0.011(2) 0.019(2) 0.012(2)
C18 0.034(2) 0.066(3) 0.067(3) 0.031(2) 0.0222(16) 0.0059(19)
C21 0.043(2) 0.079(3) 0.039(2) 0.0408(19) 0.0212(17) 0.0233(17)
C19 0.048(2) 0.070(3) 0.073(3) 0.035(2) 0.025(2) 0.017(2)
C20 0.054(3) 0.060(2) 0.055(2) 0.031(2) 0.013(2) 0.013(2)
C22 0.0349(17) 0.0495(18) 0.037(2) -0.0108(18) 0.0088(16) 0.0097(13)
N2 0.0315(14) 0.029(2) 0.033(2) 0.0029(17) 0.0113(12) 0.0051(17)
C14' 0.029(5) 0.039(8) 0.053(8) 0.002(7) 0.009(4) 0.007(6)
C15' 0.030(5) 0.051(8) 0.062(11) -0.008(7) 0.010(6) -0.001(5)
C16' 0.023(4) 0.089(13) 0.043(8) 0.012(8) 0.016(5) 0.016(7)
C19' 0.029(4) 0.061(5) 0.040(4) 0.012(4) 0.020(4) 0.012(4)
C20' 0.036(5) 0.022(4) 0.041(5) 0.009(3) 0.013(4) -0.004(4)
C22' 0.050(6) 0.072(9) 0.040(5) 0.011(7) 0.012(4) 0.013(6)
N2' 0.031(4) 0.029(6) 0.093(12) -0.027(6) 0.008(5) 0.005(4)
loop_
_atom_type_symbol
_atom_type_description
_atom_type_scat_dispersion_real
_atom_type_scat_dispersion_imag
_atom_type_scat_source
C C 0.0033 0.0016 'International Tables Vol C Tables 4.2.6.8 and 6.1.1.4'
H H 0.0000 0.0000 'International Tables Vol C Tables 4.2.6.8 and 6.1.1.4'
N N 0.0061 0.0033 'International Tables Vol C Tables 4.2.6.8 and 6.1.1.4'
loop_
_geom_angle_atom_site_label_1
_geom_angle_atom_site_label_2
_geom_angle_atom_site_label_3
_geom_angle
C6 C5 C4 178.3(2)
C5 C6 C7 177.6(2)
C8 C7 C12 119.51(17)
C8 C7 C6 120.69(17)
C12 C7 C6 119.79(17)
C3 C4 C5 177.9(2)
C9 C8 C7 119.94(18)
C9 C8 H8 120.0
C7 C8 H8 120.0
C12 C11 C10 120.04(19)
C12 C11 H11 120.0
C10 C11 H11 120.0
C11 C10 C9 120.30(18)
C11 C10 C13 119.72(19)
C9 C10 C13 119.95(19)
C11 C12 C7 120.37(19)
C11 C12 H12 119.8
C7 C12 H12 119.8
N1 C13 C10 178.9(3)
C8 C9 C10 119.84(19)
C8 C9 H9 120.1
C10 C9 H9 120.1
C4 C3 C2 174.8(3)
C4 C3 C12' 170.1(5)
C1 C2 C3 179.1(5)
C2 C1 C14 179.0(4)
C1 C14 C15 131.1(4)
C1 C14 N2 123.6(4)
C15 C14 N2 105.3(4)
C17 C16 C15 106.9(4)
C17 C16 C21 120.0(4)
C15 C16 C21 133.1(4)
C14 C15 C16 109.8(4)
C14 C15 H15 125.1
C16 C15 H15 125.1
N2 C17 C16 108.4(4)
N2 C17 C18 123.7(5)
C16 C17 C18 127.8(5)
C19 C18 C17 112.3(4)
C19 C18 H18A 109.1
C17 C18 H18A 109.1
C19 C18 H18B 109.1
C17 C18 H18B 109.1
H18A C18 H18B 107.9
C16 C21 C20 107.3(4)
C16 C21 H21A 110.3
C20 C21 H21A 110.3
C16 C21 H21B 110.3
C20 C21 H21B 110.3
H21A C21 H21B 108.5
C18 C19 C20 108.4(4)
C18 C19 H19A 110.0
C20 C19 H19A 110.0
C18 C19 H19B 110.0
C20 C19 H19B 110.0
H19A C19 H19B 108.4
C19 C20 C21 117.1(3)
C19 C20 H20A 108.0
C21 C20 H20A 108.0
C19 C20 H20B 108.0
C21 C20 H20B 108.0
H20A C20 H20B 107.3
N2 C22 H22A 109.5
N2 C22 H22B 109.5
H22A C22 H22B 109.5
N2 C22 H22C 109.5
H22A C22 H22C 109.5
H22B C22 H22C 109.5
C17 N2 C14 109.6(4)
C17 N2 C22 127.6(4)
C14 N2 C22 122.6(4)
C13' C12' C3 175.8(12)
C12' C13' C14' 178.2(13)
C15' C14' N2' 117.0(17)
C15' C14' C13' 128.3(11)
N2' C14' C13' 114.7(16)
C14' C15' C16' 102.0(15)
C14' C15' H151 129.0
C16' C15' H151 129.0
C17' C16' C21' 110.5(17)
C17' C16' C15' 108.1(16)
C21' C16' C15' 141.1(15)
C16' C17' N2' 109.3(15)
C16' C17' C18' 132.7(15)
N2' C17' C18' 118.0(12)
C17' C18' C19' 119.0(10)
C17' C18' H181 107.6
C19' C18' H181 107.6
C17' C18' H182 107.6
C19' C18' H182 107.6
H181 C18' H182 107.0
C16' C21' C20' 112.5(15)
C16' C21' H211 109.1
C20' C21' H211 109.1
C16' C21' H212 109.1
C20' C21' H212 109.1
H211 C21' H212 107.8
C18' C19' C20' 93.9(8)
C18' C19' H191 112.9
C20' C19' H191 112.9
C18' C19' H192 112.9
C20' C19' H192 112.9
H191 C19' H192 110.4
C19' C20' C21' 117.7(12)
C19' C20' H201 107.9
C21' C20' H201 107.9
C19' C20' H202 107.9
C21' C20' H202 107.9
H201 C20' H202 107.2
N2' C22' H221 109.5
N2' C22' H222 109.5
H221 C22' H222 109.5
N2' C22' H223 109.5
H221 C22' H223 109.5
H222 C22' H223 109.5
C14' N2' C22' 131.8(18)
C14' N2' C17' 103.6(9)
C22' N2' C17' 124.6(15)
loop_
_geom_bond_atom_site_label_1
_geom_bond_atom_site_label_2
_geom_bond_distance
C5 C6 1.207(3)
C5 C4 1.361(3)
C6 C7 1.430(3)
C7 C8 1.390(3)
C7 C12 1.401(3)
C4 C3 1.212(3)
C8 C9 1.380(3)
C8 H8 0.9500
C11 C12 1.371(3)
C11 C10 1.377(3)
C11 H11 0.9500
C10 C9 1.398(3)
C10 C13 1.438(3)
C12 H12 0.9500
C13 N1 1.153(3)
C9 H9 0.9500
C3 C2 1.311(4)
C3 C12' 1.534(13)
C2 C1 1.235(5)
C1 C14 1.381(4)
C14 C15 1.391(6)
C14 N2 1.404(5)
C16 C17 1.382(5)
C16 C15 1.393(5)
C16 C21 1.501(5)
C15 H15 0.9500
C17 N2 1.370(6)
C17 C18 1.521(8)
C18 C19 1.495(6)
C18 H18A 0.9900
C18 H18B 0.9900
C21 C20 1.595(5)
C21 H21A 0.9900
C21 H21B 0.9900
C19 C20 1.498(5)
C19 H19A 0.9900
C19 H19B 0.9900
C20 H20A 0.9900
C20 H20B 0.9900
C22 N2 1.459(5)
C22 H22A 0.9800
C22 H22B 0.9800
C22 H22C 0.9800
C12' C13' 1.125(16)
C13' C14' 1.50(2)
C14' C15' 1.305(17)
C14' N2' 1.336(19)
C15' C16' 1.46(2)
C15' H151 0.9500
C16' C17' 1.339(12)
C16' C21' 1.37(3)
C17' N2' 1.392(17)
C17' C18' 1.471(13)
C18' C19' 1.486(12)
C18' H181 0.9900
C18' H182 0.9900
C21' C20' 1.570(14)
C21' H211 0.9900
C21' H212 0.9900
C19' C20' 1.559(10)
C19' H191 0.9900
C19' H192 0.9900
C20' H201 0.9900
C20' H202 0.9900
C22' N2' 1.379(13)
C22' H221 0.9800
C22' H222 0.9800
C22' H223 0.9800
loop_
_geom_torsion_atom_site_label_1
_geom_torsion_atom_site_label_2
_geom_torsion_atom_site_label_3
_geom_torsion_atom_site_label_4
_geom_torsion
C12 C7 C8 C9 0.6(3)
C6 C7 C8 C9 179.46(17)
C12 C11 C10 C9 0.4(3)
C12 C11 C10 C13 178.58(17)
C10 C11 C12 C7 0.0(3)
C8 C7 C12 C11 -0.6(3)
C6 C7 C12 C11 -179.39(17)
C7 C8 C9 C10 -0.2(3)
C11 C10 C9 C8 -0.3(3)
C13 C10 C9 C8 -178.49(17)
C1 C14 C15 C16 179.3(3)
N2 C14 C15 C16 0.1(4)
C17 C16 C15 C14 -0.1(4)
C21 C16 C15 C14 -179.4(3)
C15 C16 C17 N2 0.0(5)
C21 C16 C17 N2 179.4(3)
C15 C16 C17 C18 -178.2(5)
C21 C16 C17 C18 1.2(7)
N2 C17 C18 C19 169.8(4)
C16 C17 C18 C19 -12.3(7)
C17 C16 C21 C20 -17.4(5)
C15 C16 C21 C20 161.8(4)
C17 C18 C19 C20 39.4(6)
C18 C19 C20 C21 -62.1(5)
C16 C21 C20 C19 49.7(5)
C16 C17 N2 C14 0.1(5)
C18 C17 N2 C14 178.4(4)
C16 C17 N2 C22 -175.2(3)
C18 C17 N2 C22 3.1(7)
C1 C14 N2 C17 -179.4(3)
C15 C14 N2 C17 -0.1(4)
C1 C14 N2 C22 -3.8(5)
C15 C14 N2 C22 175.5(3)
N2' C14' C15' C16' 2.2(13)
C13' C14' C15' C16' -179.0(11)
C14' C15' C16' C17' -2.8(15)
C14' C15' C16' C21' -175(2)
C21' C16' C17' N2' 177.0(14)
C15' C16' C17' N2' 2.4(16)
C21' C16' C17' C18' -5(3)
C15' C16' C17' C18' -179.5(13)
C16' C17' C18' C19' 17(3)
N2' C17' C18' C19' -165.3(11)
C17' C16' C21' C20' 24(3)
C15' C16' C21' C20' -164.6(16)
C17' C18' C19' C20' -39.7(15)
C18' C19' C20' C21' 63.3(15)
C16' C21' C20' C19' -62(2)
C15' C14' N2' C22' 177.2(12)
C13' C14' N2' C22' -1.7(17)
C15' C14' N2' C17' -0.9(12)
C13' C14' N2' C17' -179.8(9)
C16' C17' N2' C14' -1.1(14)
C18' C17' N2' C14' -179.5(12)
C16' C17' N2' C22' -179.4(13)
C18' C17' N2' C22' 2.2(17)
