#------------------------------------------------------------------------------
#$Date: 2019-11-24 02:10:35 +0200 (Sun, 24 Nov 2019) $
#$Revision: 236196 $
#$URL: file:///home/coder/svn-repositories/cod/cif/4/03/74/4037466.cif $
#------------------------------------------------------------------------------
#
# This file is available in the Crystallography Open Database (COD),
# http://www.crystallography.net/
#
# All data on this site have been placed in the public domain by the
# contributors.
#
data_4037466
loop_
_publ_author_name
'Han, Sang Hoon'
'Kim, Saegun'
'De, Umasankar'
'Mishra, Neeraj Kumar'
'Park, Jihye'
'Sharma, Satyasheel'
'Kwak, Jong Hwan'
'Han, Sangil'
'Kim, Hyung Sik'
'Kim, In Su'
_publ_section_title
;
 Synthesis of Succinimide-Containing Chromones, Naphthoquinones, and
 Xanthones under Rh(III) Catalysis: Evaluation of Anticancer Activity.
;
_journal_issue                   24
_journal_name_full               'The Journal of organic chemistry'
_journal_page_first              12416
_journal_page_last               12425
_journal_paper_doi               10.1021/acs.joc.6b02577
_journal_volume                  81
_journal_year                    2016
_chemical_formula_sum            'C14 H6 N O4'
_chemical_formula_weight         252.20
_space_group_crystal_system      monoclinic
_space_group_IT_number           11
_space_group_name_Hall           '-P 2yb'
_space_group_name_H-M_alt        'P 1 21/m 1'
_atom_sites_solution_hydrogens   geom
_audit_creation_method           SHELXL-2013
_cell_angle_alpha                90
_cell_angle_beta                 112.056(2)
_cell_angle_gamma                90
_cell_formula_units_Z            2
_cell_length_a                   8.4519(4)
_cell_length_b                   6.8822(3)
_cell_length_c                   10.8607(5)
_cell_measurement_reflns_used    5411
_cell_measurement_temperature    296(2)
_cell_measurement_theta_max      28.22
_cell_measurement_theta_min      2.60
_cell_volume                     585.51(5)
_computing_cell_refinement       'Bruker SAINT'
_computing_data_collection       'Bruker APEX2'
_computing_data_reduction        'Bruker SAINT'
_computing_molecular_graphics    'Bruker SHELXTL'
_computing_publication_material  'Bruker SHELXTL'
_computing_structure_refinement  'SHELXL-2013 (Sheldrick, 2013)'
_computing_structure_solution    'SHELXS-97 (Sheldrick 2008)'
_diffrn_ambient_temperature      296(2)
_diffrn_measured_fraction_theta_full 0.972
_diffrn_measured_fraction_theta_max 0.813
_diffrn_measurement_device_type  'Bruker APEX-II CCD'
_diffrn_measurement_method       '\f and \w scans'
_diffrn_radiation_type           MoK\a
_diffrn_radiation_wavelength     0.71073
_diffrn_reflns_av_R_equivalents  0.0779
_diffrn_reflns_av_unetI/netI     0.0338
_diffrn_reflns_Laue_measured_fraction_full 0.972
_diffrn_reflns_Laue_measured_fraction_max 0.813
_diffrn_reflns_limit_h_max       11
_diffrn_reflns_limit_h_min       -11
_diffrn_reflns_limit_k_max       9
_diffrn_reflns_limit_k_min       -9
_diffrn_reflns_limit_l_max       14
_diffrn_reflns_limit_l_min       -14
_diffrn_reflns_number            10384
_diffrn_reflns_point_group_measured_fraction_full 0.972
_diffrn_reflns_point_group_measured_fraction_max 0.813
_diffrn_reflns_theta_full        25.242
_diffrn_reflns_theta_max         28.560
_diffrn_reflns_theta_min         2.600
_exptl_absorpt_coefficient_mu    0.107
_exptl_absorpt_correction_type   none
_exptl_crystal_colour            colourless
_exptl_crystal_density_diffrn    1.430
_exptl_crystal_description       block
_exptl_crystal_F_000             258
_exptl_crystal_size_max          0.200
_exptl_crystal_size_mid          0.130
_exptl_crystal_size_min          0.060
_refine_diff_density_max         0.556
_refine_diff_density_min         -0.412
_refine_diff_density_rms         0.086
_refine_ls_extinction_method     none
_refine_ls_goodness_of_fit_ref   1.252
_refine_ls_hydrogen_treatment    constr
_refine_ls_matrix_type           full
_refine_ls_number_parameters     118
_refine_ls_number_reflns         1319
_refine_ls_number_restraints     36
_refine_ls_restrained_S_all      1.289
_refine_ls_R_factor_all          0.1512
_refine_ls_R_factor_gt           0.1113
_refine_ls_shift/su_max          0.000
_refine_ls_shift/su_mean         0.000
_refine_ls_structure_factor_coef Fsqd
_refine_ls_weighting_details
'w=1/[\s^2^(Fo^2^)+(0.2000P)^2^] where P=(Fo^2^+2Fc^2^)/3'
_refine_ls_weighting_scheme      calc
_refine_ls_wR_factor_gt          0.3163
_refine_ls_wR_factor_ref         0.3601
_reflns_Friedel_coverage         0.000
_reflns_number_gt                842
_reflns_number_total             1319
_reflns_threshold_expression     'I > 2\s(I)'
_cod_data_source_file            jo6b02577_si_002.cif
_cod_data_source_block           ye621P21m
_cod_original_sg_symbol_H-M      'P 21/m'
_cod_database_code               4037466
_shelx_space_group_comment
; 
The symmetry employed for this shelxl refinement is uniquely defined 
by the following loop, which should always be used as a source of 
symmetry information in preference to the above space-group names. 
They are only intended as comments. 
;
_shelx_estimated_absorpt_t_min   0.979
_shelx_estimated_absorpt_t_max   0.994
_shelxl_version_number           2013-4
_shelx_res_file
; 
TITL ye621P21m in P2(1)/m 
CELL 0.71073   8.45190   6.88220  10.86070  90.0000 112.0559  90.0000 
ZERR   2.00   0.00040   0.00030   0.00050   0.0000   0.0022   0.0000 
LATT 1 
SYMM -X, 0.5+Y, -Z 
SFAC C  H  N  O 
UNIT 28 12 2 8 
OMIT    -2   0   1 
OMIT     0   0   2 
OMIT     0   0   3 
OMIT     3   0   0 
OMIT    -1   2   5 
OMIT    -4   2  12 
OMIT     1   0   5 
OMIT    -3   2   4 
OMIT    -1   4   5 
OMIT     0   2   2 
OMIT     3   0   1 
OMIT    -1   0   1 
OMIT    -3   0   6 
OMIT     5   3   4 
OMIT    -4   0   2 
OMIT    -5   2   4 
OMIT    -1   1   2 
OMIT    -1   4  10 
OMIT     1   2   0 
OMIT     3   2   9 
OMIT    -4   0   9 
OMIT    -8   1   8 
OMIT    -6   2  10 
OMIT    -6   2   7 
OMIT    -6   4   7 
OMIT     0   2   7 
OMIT    -1   3   2 
OMIT    -3   0   1 
OMIT    -2   3   3 
OMIT     0   3   8 
OMIT     2   1   0 
OMIT    -4   1   5 
OMIT     1   2   1 
OMIT     4   0   3 
OMIT     2   6   2 
OMIT    -2   3   7 
OMIT    -4   5   1 
OMIT     0   2   4 
OMIT     4   3   0 
OMIT     4   0   4 
OMIT     1   7   0 
OMIT    -3   1  10 
OMIT    -4   3   4 
OMIT    -4   1   1 
OMIT     4   5   2 
OMIT    -3   3   2 
OMIT    -2   0   2 
OMIT    -3   1   8 
OMIT     0   3   5 
OMIT    -2   1   4 
OMIT     1   2   2 
OMIT     2   1   2 
OMIT    -2   0   8 
OMIT    -1   0   3 
OMIT    -3   2   8 
OMIT    -6   1   9 
OMIT     4   0   2 
OMIT    -8   2  10 
OMIT    -4   2   3 
OMIT     0   2   6 
OMIT    -6   3   1 
OMIT    -2   4   2 
OMIT    -3   1   4 
OMIT    -1   4   4 
OMIT     0   0   5 
OMIT    -1   1   3 
OMIT    -3   2   3 
OMIT     1   3   2 
OMIT     2   3   7 
OMIT    -1   6   7 
OMIT     6   3   0 
OMIT     0   1   6 
OMIT     0   5   8 
OMIT    -5   5   3 
OMIT    -3   0   3 
OMIT    -6   0   2 
OMIT   -11   1   4 
OMIT    -2   6   1 
OMIT    -1   6   9 
OMIT     2   1   6 
OMIT     5   5   3 
OMIT     1   1   2 
OMIT    -4   0   8 
OMIT    -3   6   6 
OMIT     2   2   0 
OMIT    -3   6   2 
OMIT    -2   0   7 
OMIT     1   3   5 
OMIT    -5   4   8 
OMIT    -4   3  12 
OMIT    -7   0  10 
OMIT     3   6   0 
OMIT    -3   2   2 
OMIT    -5   5   2 
OMIT    -8   2   5 
OMIT    -1   1   7 
OMIT    -2   3   1 
OMIT    -2   0   3 
OMIT    -2   4   5 
OMIT    -9   2   2 
OMIT     0   0   1 
OMIT     1   0   9 
OMIT    -2   0  12 
OMIT    -4   3  11 
OMIT    -2   7   1 
OMIT     3   5   1 
OMIT    -7   1  11 
OMIT    -9   3   2 
OMIT     0   7   3 
OMIT    -7   2   5 
OMIT    -1   6   5 
OMIT    -3   2  12 
OMIT     2   2   2 
OMIT    -8   0   9 
OMIT    -9   2   1 
OMIT    -7   5   9 
OMIT     0   0  11 
OMIT     6   0   1 
OMIT    -4   4  10 
OMIT    -4   6   5 
OMIT    -5   0   4 
OMIT    -5   2  12 
OMIT    -8   5   6 
OMIT     6   6   1 
OMIT    -9   2  12 
OMIT    -8   5   5 
OMIT     5   6   1 
OMIT    -5   4   6 
OMIT    -5   5   1 
OMIT    -6   4   9 
OMIT    -8   1  10 
OMIT    -2   2   7 
OMIT     5   4   1 
OMIT     8   0   0 
OMIT     7   4   1 
OMIT    -7   1   9 
OMIT     3   4   6 
OMIT    -1   6   2 
OMIT    -2   2  11 
OMIT    -7   2   9 
OMIT    -7   4   4 
OMIT    -5   2  13 
OMIT    -8   1   6 
OMIT    -3   6   5 
OMIT     2   6   3 
OMIT    -4   7   5 
OMIT     1   0   6 
OMIT     5   7   1 
OMIT     3   5   6 
OMIT    -5   1   1 
OMIT    -2   1   2 
OMIT     3   2   1 
OMIT    -6   2   8 
OMIT     6   4   2 
OMIT    -3   3   3 
OMIT    -1   7   3 
OMIT     1   7   2 
OMIT    -2   2  10 
OMIT    -7   0   5 
OMIT     1   8   0 
OMIT     4   4   5 
OMIT     3   6   1 
OMIT     2   0   8 
OMIT    -2   6   2 
OMIT     1   7   1 
OMIT    -1   8   2 
OMIT    -3   7   5 
OMIT    -7   4   2 
OMIT    -2   2   4 
OMIT    -3   6   8 
OMIT    -3   7   2 
OMIT    -2   7   5 
OMIT     6   5   0 
OMIT    -4   7   4 
OMIT     0   5   5 
OMIT    -6   4   6 
OMIT    -1   0   4 
OMIT    -2   4   8 
OMIT     6   6   0 
OMIT     4   6   4 
OMIT     1   6   7 
OMIT    -3   6   3 
OMIT     5   0   0 
OMIT    -3   5   3 
OMIT    -5   6   3 
OMIT    -5   5   4 
OMIT     3   0   9 
OMIT     2   1   4 
OMIT     1   5   4 
OMIT     7   5   0 
OMIT    -9   3   6 
OMIT     6   0   3 
OMIT     4   6   1 
OMIT    -6   1   1 
OMIT     3   2   7 
OMIT    -8   0   2 
OMIT     1   5   1 
OMIT    -3   1   3 
OMIT     0   3   1 
OMIT     6   0   2 
OMIT    -7   1   5 
OMIT    -1   1  10 
OMIT    -3   4   2 
OMIT     2   3   6 
OMIT     6   0   6 
OMIT    -6   0   7 
OMIT    -3   1   2 
OMIT    -6   4  11 
OMIT     4   1   0 
OMIT     7   2   2 
OMIT    -3   6   4 
OMIT    0   6   2 
OMIT    -5   1  14 
OMIT    -4   0   5 
OMIT     1   5   5 
OMIT    -1   1  12 
OMIT     6   2   5 
OMIT    -3   7   6 
OMIT     6   0   0 
OMIT    -1   6  10 
OMIT    -2   1  14 
OMIT     0   4   2 
OMIT    -4   2  10 
OMIT    -4   8   1 
OMIT     0   2  11 
OMIT    -9   0   2 
OMIT    -5   1   6 
OMIT     5   3   3 
OMIT    -6   6   5 
OMIT    -2   4   1 
OMIT   -10   1   2 
OMIT     6   0   4 
OMIT     3   5   3 
OMIT     1   7   4 
OMIT    -4   7   9 
OMIT    -5   6   6 
OMIT     0   7   1 
OMIT    -4   2  14 
OMIT    -3   4  11 
OMIT     1   8   3 
OMIT     7   3   3 
OMIT     3   6   3 
OMIT   -11   0   8 
OMIT     5   2   1 
OMIT     1   4   9 
OMIT     0   4   3 
OMIT    -5   3   1 
OMIT     7   2   4 
OMIT     1   3   0 
OMIT     0   5   2 
OMIT     4   0   6 
OMIT     1   1  10 
OMIT    -5   7   6 
OMIT     0   1   4 
OMIT    -7   4   5 
OMIT     7   0   0 
OMIT     3   7   0 
OMIT     0   8   2 
OMIT    -7   6   1 
OMIT     4   4   3 
OMIT     1   5   3 
OMIT     1   2  10 
OMIT     4   4   4 
OMIT    -4   3   2 
OMIT    -2   7   3 
OMIT     9   2   1 
OMIT    10   0   1 
OMIT    -2   2  12 
OMIT     7   0   1 
OMIT    -1   5   6 
OMIT    -2   6   7 
OMIT   -10   3   7 
OMIT     9   3   1 
OMIT    -2   7   7 
OMIT    -7   3   3 
OMIT    -6   5   2 
OMIT     1   8   4 
OMIT     5   6   5 
OMIT    -6   4  10 
OMIT    -9   0   6 
OMIT    -1   5   2 
OMIT     5   7   0 
OMIT     4   1   3 
OMIT    -2   0   9 
OMIT    -4   3   5 
OMIT    -7   3   8 
OMIT     4   7   4 
OMIT    -8   5   7 
OMIT     1   5   0 
OMIT    -6   2   3 
OMIT    -2   6   9 
OMIT    -6   6   9 
OMIT    -7   5   4 
OMIT     7   4   2 
OMIT     4   2   9 
OMIT     0   0  13 
L.S. 5 
ACTA 
BOND $H 
FMAP 2 
PLAN 0 
SIZE 0.060 0.130 0.200 
EADP C13 O4 
EXYZ C13 O4 
ISOR 0.01 0.02 C11 O3 N1 C12 C13 O4 
FREE C12  O3 
TEMP 23.000 
WGHT    0.200000 
FVAR       0.33548 
MOLE 1 
C1    1    0.357081    0.250000    0.058997    10.50000    0.05402    0.04205 = 
         0.04460    0.00000    0.01780    0.00000 
C2    1    0.176144    0.250000    0.032208    10.50000    0.05569    0.07476 = 
         0.05257    0.00000    0.02526    0.00000 
C3    1    0.061584    0.250000   -0.107529    10.50000    0.06908    0.07556 = 
         0.05957    0.00000    0.01805    0.00000 
AFIX  43 
H3    2   -0.055876    0.250000   -0.129399    10.50000   -1.20000 
AFIX   0 
C4    1    0.121341    0.250000   -0.201516    10.50000    0.08312    0.09155 = 
         0.05350    0.00000    0.00823    0.00000 
AFIX  43 
H4    2    0.042954    0.250000   -0.288735    10.50000   -1.20000 
AFIX   0 
C5    1    0.406260    0.250000   -0.052696    10.50000    0.07880    0.06487 = 
         0.04707    0.00000    0.02600    0.00000 
C6    1    0.571960    0.250000   -0.041188    10.50000    0.08959    0.05442 = 
         0.09239    0.00000    0.06505    0.00000 
AFIX  43 
H6    2    0.600154    0.250000   -0.116129    10.50000   -1.20000 
AFIX   0 
C7    1    0.696545    0.250000    0.083954    10.50000    0.06482    0.08357 = 
         0.09320    0.00000    0.04773    0.00000 
AFIX  43 
H7    2    0.810746    0.250000    0.093920    10.50000   -1.20000 
AFIX   0 
C8    1    0.654783    0.250000    0.195944    10.50000    0.05421    0.06770 = 
         0.06651    0.00000    0.03334    0.00000 
AFIX  43 
H8    2    0.741322    0.250000    0.279855    10.50000   -1.20000 
AFIX   0 
C9    1    0.488141    0.250000    0.184508    10.50000    0.04219    0.04927 = 
         0.05706    0.00000    0.01651    0.00000 
C10   1    0.452601    0.250000    0.312876    10.50000    0.04617    0.13007 = 
         0.04121    0.00000    0.01261    0.00000 
AFIX  13 
H10   2    0.564406    0.250000    0.386036    10.50000   -1.20000 
AFIX   0 
O1    4    0.117319    0.250000    0.121123    10.50000    0.04085    0.14736 = 
         0.07394    0.00000    0.02317    0.00000 
O2    4    0.289957    0.250000   -0.182070    10.50000    0.11974    0.09547 = 
         0.04421    0.00000    0.03278    0.00000 
O3    4    0.369212   -0.041828    0.328502    10.50000    0.08832    0.06888 = 
         0.06859   -0.01555    0.05063   -0.01724 
C11   1    0.356083    0.093414    0.340405    11.00000    0.06767    0.16410 = 
         0.06261    0.01944    0.02247   -0.00396 
PART 1 
N1    3    0.257202    0.207762    0.413417    10.50000    0.07664    0.06838 = 
         0.05324   -0.00797    0.02871    0.00760 
C13   1    0.173041    0.031455    0.461650    10.50000    0.09888    0.18411 = 
         0.09752    0.03845    0.05668   -0.02499 
PART 2 
C12   1    0.259646    0.108703    0.409317    10.50000    0.06465    0.07024 = 
         0.03811   -0.00854    0.02416    0.00352 
O4    4    0.173041    0.031455    0.461650    10.50000    0.09888    0.18411 = 
         0.09752    0.03845    0.05668   -0.02499 
PART 0 
HKLF 4 
  
REM  ye621P21m in P2(1)/m 
REM R1 =  0.1113 for     842 Fo > 4sig(Fo)  and  0.1512 for all    1319 data 
REM    118 parameters refined using     36 restraints 
  
END 
  
WGHT      0.2000      0.0000 
  
REM Highest difference peak  0.556,  deepest hole -0.412,  1-sigma level  0.086 
Q1    1   0.3376  0.2500 -0.2539  10.50000  0.05    0.33 
Q2    1   0.7241  0.2500 -0.1599  10.50000  0.05    0.28 
Q3    1  -0.1289  0.2500 -0.0553  10.50000  0.05    0.28 
Q4    1   0.4079  0.2500 -0.1453  10.50000  0.05    0.27 
Q5    1   0.2345  0.2500 -0.0775  10.50000  0.05    0.23 
Q6    1   0.5420  0.2500  0.0804  10.50000  0.05    0.21 
Q7    1   0.8140  0.2500 -0.0053  10.50000  0.05    0.20 
Q8    1   0.0000  0.0000  0.0000  10.50000  0.05    0.18 
Q9    1   0.2687 -0.0175  0.2614  11.00000  0.05    0.18 
Q10   1   0.3118 -0.0008  0.5011  11.00000  0.05    0.17 
Q11   1   0.5002  0.2500 -0.2744  10.50000  0.05    0.16 
Q12   1   0.5048  0.0228  0.4101  11.00000  0.05    0.16 
Q13   1   0.6816  0.2500 -0.1064  10.50000  0.05    0.16 
Q14   1   0.0848  0.0120  0.5228  11.00000  0.05    0.16 
Q15   1   0.9281  0.2500  0.2164  10.50000  0.05    0.16 
Q16   1   0.2102  0.0588  0.2741  11.00000  0.05    0.15 
Q17   1   0.0428  0.1248  0.4920  11.00000  0.05    0.15 
Q18   1  -0.0182  0.2500  0.0932  10.50000  0.05    0.15 
Q19   1   0.0444  0.2500  0.4672  10.50000  0.05    0.15 
Q20   1   0.7192  0.0053 -0.1248  11.00000  0.05    0.14 
;
_shelx_res_checksum              46492
_shelx_hkl_file
; 
   0   1   0   -0.89    0.06 
   0  -1   0   -0.83    0.07 
   0  -1   0   -1.05    0.05 
   0  -1   0   -0.99    0.05 
   0  -1   0   -0.97    0.05 
   0   2   0  680.86   39.75 
   0   2   0  776.08   39.12 
   0   2   0  894.85   43.88 
   0  -2   0  817.54   42.35 
   0  -2   0  828.82   38.34 
   0  -2   0  784.34   39.76 
   0  -2   0  821.29   39.89 
   0   3   0   -0.01    0.22 
   0   3   0    0.00    0.03 
   0   3   0   -0.04    0.04 
   0   3   0    0.08    0.04 
   0  -3   0   -0.05    0.03 
   0  -3   0   -0.04    0.02 
   0  -3   0   -0.07    0.04 
   0  -3   0   -0.10    0.05 
   0   4   0  308.21   16.64 
   0   4   0  260.38   15.17 
   0   4   0  286.42   13.81 
   0   4   0  304.18   14.94 
   0   4   0  287.71   14.64 
   0  -4   0  269.73   13.62 
   0  -4   0  270.58   15.09 
   0  -4   0  284.85   15.98 
   0  -4   0  281.07   15.05 
   0  -4   0  296.14   14.56 
   0   5   0    0.01    0.08 
   0   5   0   -0.06    0.08 
   0   5   0   -0.08    0.11 
   0  -5   0    0.16    0.10 
   0  -5   0    0.00    0.06 
   0  -5   0    0.01    0.07 
   0  -5   0    0.02    0.08 
   0  -5   0    0.01    0.06 
   0   6   0   32.50    2.55 
   0   6   0   28.10    2.35 
   0   6   0   32.94    2.96 
   0  -6   0   30.97    2.60 
   0  -6   0   30.04    2.60 
   0  -6   0   28.34    2.63 
   0   7   0    0.12    0.12 
   0   7   0    0.34    0.11 
   0  -7   0    0.28    0.19 
   0  -7   0    0.16    0.12 
   0   8   0    2.93    0.35 
   0  -8   0    2.38    0.32 
   0  -8   0    2.85    0.36 
   0   9   0    0.31    0.43 
   0   9   0   -0.02    0.20 
   0  -9   0    0.00    0.20 
  -1  -9   0    0.11    0.20 
   1   9   0   -0.01    0.22 
   1   9   0    0.12    0.44 
  -1  -8   0    0.14    0.18 
  -1  -8   0    0.14    0.24 
   1   8   0   -0.09    0.16 
   1   8   0    0.27    0.58 
  -1  -7   0    2.72    2.00 
  -1  -7   0    2.10    0.22 
   1   7   0    1.88    0.25 
  -1  -6   0    1.93    0.40 
  -1  -6   0    2.15    0.29 
  -1  -6   0    2.75    0.46 
   1   6   0    1.88    0.31 
  -1  -5   0    2.19    0.69 
  -1  -5   0    1.84    0.56 
  -1  -5   0    1.86    0.36 
  -1  -5   0    1.46    0.50 
   1   5   0    2.03    0.58 
   1   5   0    1.25    0.39 
   1   5   0    1.18    0.22 
   1   5   0    0.75    0.21 
  -1  -4   0    7.45    0.87 
  -1  -4   0    8.46    0.71 
  -1  -4   0   10.02    1.04 
  -1  -4   0    7.13    0.96 
  -1  -4   0    7.93    0.95 
  -1  -4   0    8.21    1.01 
   1   4   0    7.66    0.86 
   1   4   0    9.11    1.07 
   1   4   0    8.20    0.84 
   1   4   0    7.00    0.93 
  -1  -3   0   17.87    1.56 
  -1  -3   0   19.95    1.53 
  -1  -3   0   18.38    1.60 
  -1  -3   0   19.80    1.30 
  -1  -3   0   19.10    1.65 
  -1  -3   0   19.94    1.52 
   1   3   0   21.17    1.68 
   1   3   0   19.06    1.62 
   1   3   0   19.44    1.37 
   1   3   0   18.47    3.24 
  -1  -2   0   24.11    1.71 
  -1  -2   0   23.74    1.61 
  -1  -2   0   24.61    1.47 
  -1  -2   0   23.20    1.58 
  -1  -2   0   23.76    1.76 
   1   2   0   22.53    1.70 
   1   2   0   25.40    1.77 
   1   2   0   24.21    1.62 
   1   2   0   25.89    1.48 
  -1  -1   0  410.05   19.27 
  -1  -1   0  371.65   20.48 
  -1  -1   0  412.50   18.56 
  -1  -1   0  377.92   20.03 
   1   1   0  376.88   18.98 
   1   1   0  341.18   19.24 
   1   1   0  414.56   21.17 
  -1   0   0  158.01    7.65 
  -1   0   0  173.80    8.02 
  -1   0   0  162.90    7.78 
   1   0   0  149.58    8.24 
   1   0   0  160.38    8.86 
   1   0   0  147.07    8.00 
  -1   1   0  364.66   20.08 
  -1   1   0  428.08   20.34 
  -1   1   0  413.14   20.95 
   1  -1   0  439.64   20.94 
   1  -1   0  417.06   20.90 
   1  -1   0  366.08   22.37 
   1  -1   0  430.06   20.05 
   1  -1   0  435.69   20.86 
   1  -1   0  427.18   22.97 
   1  -1   0  460.62   23.91 
  -1   2   0   25.57    1.99 
  -1   2   0   26.12    1.74 
  -1   2   0   29.54    1.86 
  -1   2   0   29.16    1.66 
   1  -2   0   26.38    1.83 
   1  -2   0   23.75    1.68 
   1  -2   0   24.27    1.92 
   1  -2   0   28.50    1.63 
  -1   3   0   20.91    1.44 
  -1   3   0   19.89    1.61 
  -1   3   0   21.64    1.41 
  -1   3   0   22.31    1.85 
   1  -3   0   18.83    1.55 
   1  -3   0   21.50    1.48 
   1  -3   0   19.63    1.77 
   1  -3   0   21.58    1.70 
   1  -3   0   20.59    1.66 
   1  -3   0   21.71    1.71 
  -1   4   0    7.64    0.72 
  -1   4   0    8.45    1.05 
  -1   4   0    9.51    0.87 
  -1   4   0    8.58    0.97 
   1  -4   0    7.15    0.89 
   1  -4   0    8.14    1.04 
   1  -4   0    7.49    0.81 
   1  -4   0    8.05    0.97 
   1  -4   0    9.13    1.05 
   1  -4   0    8.50    1.01 
  -1   5   0    1.44    0.47 
  -1   5   0    1.21    0.29 
  -1   5   0    1.61    0.24 
   1  -5   0    0.91    0.17 
   1  -5   0    1.69    0.36 
  -1   6   0    2.36    0.31 
  -1   6   0    3.38    0.46 
   1  -6   0    2.58    0.49 
   1  -6   0    2.68    0.51 
   1  -6   0    3.37    0.53 
  -1   7   0    1.85    0.22 
  -1   7   0    1.36    0.22 
   1  -7   0    1.75    0.24 
   1  -7   0    1.51    0.29 
   1  -7   0    1.04    0.26 
  -1   8   0    0.10    0.15 
  -1   8   0    0.74    0.29 
   1  -8   0    0.72    1.13 
   1  -8   0    0.30    0.15 
   1  -8   0    0.17    0.14 
  -1   9   0    0.24    0.38 
  -1   9   0    0.04    0.19 
   1  -9   0    0.01    0.19 
   1  -9   0    0.08    0.20 
   1  -9   0    0.22    0.33 
  -2  -9   0   -0.08    0.21 
   2   9   0    0.53    0.45 
   2   9   0   -0.14    0.24 
  -2  -8   0   -0.02    0.16 
  -2  -8   0   -0.17    0.22 
  -2  -8   0    0.07    0.24 
   2   8   0    0.63    0.35 
   2   8   0    0.19    0.16 
  -2  -7   0    0.20    0.18 
  -2  -7   0   -0.06    0.13 
  -2  -7   0   -0.13    0.15 
   2   7   0    0.00    0.12 
   2   7   0    0.39    0.27 
   2   7   0    0.09    0.12 
  -2  -6   0   -0.10    0.66 
  -2  -6   0   -0.05    0.13 
   2   6   0    0.17    0.09 
   2   6   0    0.04    0.09 
  -2  -5   0    4.55    0.75 
  -2  -5   0    4.26    0.73 
   2   5   0    4.69    0.68 
   2   5   0    4.62    0.70 
  -2  -4   0    0.04    0.05 
  -2  -4   0    0.00    0.05 
  -2  -4   0    0.13    0.07 
   2   4   0    0.11    0.06 
   2   4   0   -0.01    0.07 
   2   4   0    0.00    0.06 
  -2  -3   0    5.61    0.73 
  -2  -3   0    5.07    0.63 
  -2  -3   0    4.79    0.68 
  -2  -3   0    5.44    0.63 
  -2  -3   0    5.31    0.59 
   2   3   0    4.77    0.72 
   2   3   0    4.38    0.58 
   2   3   0    4.32    0.61 
   2   3   0    4.48    0.49 
  -2  -2   0    6.62    0.65 
  -2  -2   0    5.94    0.62 
  -2  -2   0    5.71    0.68 
  -2  -2   0    5.39    0.62 
  -2  -2   0    5.60    0.46 
  -2  -2   0    5.88    0.67 
   2   2   0    5.40    0.60 
   2   2   0    6.81    0.67 
   2   2   0    5.82    0.50 
   2   2   0    6.20    1.42 
   2   2   0    5.84    0.67 
  -2  -1   0   66.28    3.82 
  -2  -1   0   74.84    4.15 
  -2  -1   0   67.85    4.14 
  -2  -1   0   74.56    3.95 
  -2  -1   0   73.53    3.75 
   2   1   0   68.58    3.80 
   2   1   0   73.46    4.46 
   2   1   0   76.95    4.35 
   2   1   0   72.26    4.05 
  -2   0   0  125.97    5.79 
  -2   0   0  107.93    5.65 
  -2   0   0  114.57    6.02 
  -2   0   0  112.43    5.89 
   2   0   0  102.74    5.91 
   2   0   0  101.11    5.83 
   2   0   0  118.86    5.61 
   2   0   0  109.74    6.45 
  -2   1   0   77.93    4.22 
  -2   1   0   74.04    4.37 
  -2   1   0   77.85    3.99 
  -2   1   0   83.59    4.22 
   2  -1   0   80.48    4.69 
   2  -1   0   67.49    4.21 
   2  -1   0   83.51    4.05 
   2  -1   0   77.20    4.36 
   2  -1   0   69.65    4.23 
  -2   2   0    6.80    0.69 
  -2   2   0    6.91    0.71 
  -2   2   0    6.70    0.49 
  -2   2   0    7.19    0.58 
  -2   2   0    6.29    0.72 
   2  -2   0    6.71    0.73 
   2  -2   0    7.86    0.79 
   2  -2   0    6.64    0.65 
   2  -2   0    6.12    0.75 
   2  -2   0    7.71    0.81 
   2  -2   0    6.91    0.70 
  -2   3   0    6.28    0.54 
  -2   3   0    6.09    0.74 
  -2   3   0    4.00    0.66 
  -2   3   0    5.45    0.60 
  -2   3   0    5.31    0.47 
   2  -3   0    6.33    0.77 
   2  -3   0    4.83    0.71 
   2  -3   0    6.10    0.75 
   2  -3   0    6.15    0.72 
   2  -3   0    4.58    0.64 
   2  -3   0    4.77    0.45 
  -2   4   0    0.16    0.06 
  -2   4   0    0.05    0.05 
  -2   4   0    0.50    0.59 
  -2   4   0    0.12    0.07 
   2  -4   0    0.04    0.05 
   2  -4   0    0.13    0.07 
   2  -4   0    0.11    0.06 
   2  -4   0    0.12    0.05 
  -2   5   0    4.07    0.49 
  -2   5   0    6.23    0.93 
  -2   5   0    4.46    0.54 
   2  -5   0    4.98    0.80 
   2  -5   0    4.54    0.66 
  -2   6   0    0.17    0.12 
  -2   6   0    0.44    0.18 
   2  -6   0    0.06    0.08 
   2  -6   0    0.23    0.16 
  -2   7   0    0.01    0.15 
   2  -7   0    0.17    0.11 
   2  -7   0   -0.02    0.17 
   2  -7   0   -0.05    0.12 
   2  -7   0    0.30    0.21 
  -2   8   0    0.23    0.17 
  -2   8   0   -0.04    0.21 
   2  -8   0    0.12    0.15 
   2  -8   0    0.16    0.15 
   2  -8   0    0.56    1.11 
  -3  -8   0   -0.03    0.26 
  -3  -8   0   -0.24    0.26 
  -3  -8   0    0.04    0.20 
   3   8   0    0.04    0.15 
   3   8   0   -0.19    0.22 
  -3  -7   0    0.40    0.15 
  -3  -7   0    0.65    0.19 
   3   7   0    0.45    0.13 
  -3  -6   0    0.36    0.15 
  -3  -6   0    0.15    0.15 
  -3  -6   0    0.20    0.13 
   3   6   0    0.16    0.09 
   3   6   0    0.09    0.10 
  -3  -5   0    0.96    0.15 
  -3  -5   0    1.47    0.85 
  -3  -5   0    1.32    0.20 
   3   5   0    1.48    0.23 
  -3  -4   0    0.14    0.07 
  -3  -4   0    0.17    0.08 
  -3  -4   0    0.00    0.07 
  -3  -4   0    0.12    0.05 
  -3  -4   0    0.07    0.47 
   3   4   0    0.05    0.09 
   3   4   0    0.14    0.06 
  -3  -3   0   15.05    1.01 
  -3  -3   0   14.98    1.39 
  -3  -3   0   15.72    1.55 
  -3  -3   0   17.97    1.45 
  -3  -3   0   16.30    3.57 
  -3  -3   0   18.20    1.47 
   3   3   0   17.38    1.45 
   3   3   0   16.32    1.51 
   3   3   0   14.58    1.13 
   3   3   0   16.25    1.44 
   3   3   0   15.54    1.39 
  -3  -2   0    0.07    0.04 
  -3  -2   0    0.05    0.03 
  -3  -2   0    0.06    0.08 
   3   2   0    0.01    0.05 
   3   2   0    0.01    0.04 
   3   2   0    0.08    0.04 
  -3  -1   0   13.81    1.19 
  -3  -1   0   11.12    1.01 
  -3  -1   0   14.22    1.08 
  -3  -1   0   15.85    1.16 
  -3  -1   0   15.20    1.19 
   3   1   0   12.85    1.19 
   3   1   0   13.30    1.20 
   3   1   0   14.56    1.07 
   3   1   0   13.24    1.01 
  -3   0   0    0.93    0.17 
  -3   0   0    0.96    0.15 
  -3   0   0    0.94    0.20 
   3   0   0    1.10    0.16 
   3   0   0    0.94    0.16 
   3   0   0    0.74    0.13 
   3   0   0    1.29    0.26 
   3   0   0    0.55    0.16 
  -3   1   0   16.33    1.25 
  -3   1   0   14.85    1.26 
  -3   1   0   15.55    1.35 
  -3   1   0   16.72    1.23 
  -3   1   0   13.91    1.01 
   3  -1   0   16.35    1.30 
   3  -1   0   15.40    1.27 
  -3   2   0    0.17    0.06 
  -3   2   0    0.25    0.06 
  -3   2   0    0.17    0.05 
   3  -2   0    0.22    0.05 
   3  -2   0    0.41    0.17 
  -3   3   0   19.48    1.57 
  -3   3   0   18.25    1.69 
  -3   3   0   17.08    1.08 
  -3   3   0   17.47    1.49 
  -3   3   0   17.07    1.25 
   3  -3   0   18.22    1.62 
   3  -3   0   17.78    1.46 
   3  -3   0   19.31    1.55 
   3  -3   0   17.11    1.59 
   3  -3   0   18.62    1.76 
  -3   4   0   -0.03    0.08 
  -3   4   0   -0.01    0.14 
  -3   4   0    0.14    0.07 
   3  -4   0    0.11    0.05 
   3  -4   0    0.10    0.06 
  -3   5   0    0.74    0.12 
  -3   5   0    1.67    0.88 
   3  -5   0    0.97    0.18 
   3  -5   0    0.84    0.19 
   3  -5   0    1.22    0.44 
  -3   6   0    0.25    0.22 
   3  -6   0    0.11    0.15 
   3  -6   0    0.24    0.12 
   3  -6   0    0.38    0.09 
   3  -6   0    0.44    0.17 
  -3   7   0    0.60    0.19 
  -3   7   0    0.64    0.25 
   3  -7   0    0.92    0.22 
   3  -7   0    0.28    0.24 
   3  -7   0    0.75    0.13 
  -3   8   0    0.49    0.22 
  -3   8   0    0.25    0.19 
   3  -8   0    0.00    0.15 
  -4  -8   0    0.33    0.21 
  -4  -8   0   -0.18    0.29 
  -4  -8   0    0.09    0.28 
   4   8   0   -0.08    0.23 
   4   8   0    0.02    0.17 
   4   8   0   -0.43    0.39 
  -4  -7   0    0.10    0.15 
  -4  -7   0    0.07    0.21 
  -4  -7   0    0.03    0.21 
   4   7   0    0.48    0.30 
   4   7   0    0.14    0.14 
  -4  -6   0    0.32    0.16 
  -4  -6   0    0.58    0.11 
  -4  -6   0    0.47    0.15 
   4   6   0    0.36    0.11 
   4   6   0    0.39    0.13 
   4   6   0    0.33    0.11 
  -4  -5   0    0.44    0.19 
   4   5   0    0.78    0.13 
  -4  -4   0    3.63    0.66 
  -4  -4   0    4.26    0.75 
  -4  -4   0    3.26    0.59 
  -4  -4   0    4.89    0.74 
  -4  -4   0    3.78    0.66 
   4   4   0    3.44    0.61 
   4   4   0    2.41    0.47 
   4   4   0    3.18    0.55 
  -4  -3   0    0.00    0.06 
  -4  -3   0    0.07    0.07 
   4   3   0    0.15    0.08 
   4   3   0    0.13    0.06 
   4   3   0    0.10    0.05 
  -4  -2   0    0.08    0.05 
  -4  -2   0    0.02    0.05 
  -4  -2   0    0.00    0.04 
  -4  -2   0    0.09    0.06 
   4   2   0    0.06    0.07 
  -4  -1   0    0.44    0.07 
   4   1   0    0.39    0.06 
   4   1   0    0.39    0.09 
  -4   0   0   44.25    2.85 
  -4   0   0   45.21    2.87 
  -4   0   0   45.38    2.91 
  -4   0   0   45.57    2.94 
   4   0   0   44.23    3.13 
   4   0   0   42.00    2.57 
   4   0   0   49.27    3.00 
   4   0   0   43.97    2.82 
   4   0   0   42.40    2.95 
  -4   1   0    0.15    0.05 
  -4   1   0    0.55    0.21 
  -4   1   0    0.15    0.05 
   4  -1   0    0.08    0.05 
   4  -1   0    0.23    0.09 
  -4   2   0    0.22    0.06 
  -4   2   0   -0.01    0.06 
   4  -2   0    0.04    0.04 
  -4   3   0    0.01    0.05 
  -4   3   0    0.15    0.09 
  -4   3   0    0.27    0.08 
   4  -3   0    0.19    0.11 
   4  -3   0    0.06    0.05 
   4  -3   0    0.04    0.05 
   4  -3   0    0.10    0.07 
  -4   4   0    3.51    0.58 
  -4   4   0    3.04    0.50 
   4  -4   0    3.55    0.60 
   4  -4   0    2.92    0.60 
  -4   5   0    0.09    0.10 
  -4   5   0    0.24    0.11 
  -4   5   0    0.47    0.19 
   4  -5   0    0.22    0.12 
   4  -5   0    0.33    0.14 
   4  -5   0    0.26    0.17 
  -4   6   0    0.12    0.12 
   4  -6   0    0.56    0.61 
   4  -6   0    0.27    0.10 
   4  -6   0    0.24    0.16 
   4  -6   0    0.33    0.21 
  -4   7   0    0.44    0.21 
   4  -7   0   -0.07    0.23 
   4  -7   0    0.16    0.12 
   4  -7   0   -0.11    0.13 
  -4   8   0    0.47    0.27 
   4  -8   0    0.01    0.16 
   4  -8   0   -0.16    0.17 
  -5  -8   0   -0.20    0.28 
  -5  -8   0   -0.18    0.28 
  -5  -8   0   -0.03    0.20 
   5   8   0    0.12    0.22 
   5   8   0   -0.12    0.17 
  -5  -7   0   -0.08    0.24 
  -5  -7   0    0.36    0.18 
  -5  -7   0    0.46    0.24 
   5   7   0   -0.01    0.20 
   5   7   0    0.23    0.15 
   5   7   0    0.31    0.33 
  -5  -6   0    0.23    0.14 
  -5  -6   0    0.08    0.18 
  -5  -6   0   -0.07    0.17 
   5   6   0    0.22    0.12 
   5   6   0    0.20    0.12 
   5   5   0    0.18    0.10 
   5   4   0    1.24    0.24 
  -5  -3   0    0.56    0.12 
   5   3   0    0.32    0.07 
  -5  -2   0   15.76    1.51 
  -5  -2   0   16.28    1.40 
  -5  -2   0   18.05    1.64 
  -5  -2   0   18.35    1.72 
  -5  -2   0   16.16    1.46 
   5   2   0   17.35    1.70 
   5   2   0   15.73    1.41 
   5   2   0   18.02    1.70 
   5   2   0   16.54    1.36 
  -5  -1   0    0.15    0.07 
   5   1   0    0.41    0.13 
   5   1   0    0.27    0.08 
  -5   0   0    0.55    0.30 
  -5   0   0    0.71    0.23 
  -5   0   0    0.91    0.19 
   5   0   0    0.89    0.10 
   5   0   0    0.67    0.15 
   5   0   0    0.87    0.15 
   5   0   0    0.62    0.27 
   5   0   0    1.03    0.23 
  -5   1   0    0.12    0.05 
  -5   1   0    0.17    0.07 
   5  -1   0    0.18    0.07 
   5  -1   0    0.09    0.06 
  -5   2   0   17.58    1.70 
  -5   2   0   21.67    1.68 
  -5   2   0   17.96    1.64 
  -5   2   0   18.81    1.86 
   5  -2   0   19.65    1.65 
   5  -2   0   19.81    1.92 
   5  -2   0   20.54    1.85 
   5  -2   0   18.10    1.74 
  -5   3   0    0.40    0.10 
  -5   3   0    0.52    0.11 
   5  -3   0    0.83    0.38 
   5  -3   0    0.36    0.14 
  -5   4   0    0.65    0.20 
   5  -4   0    0.92    0.18 
   5  -4   0    0.82    0.17 
  -5   5   0    0.02    0.10 
  -5   5   0    0.09    0.13 
   5  -5   0    0.23    0.15 
   5  -5   0   -0.07    0.10 
   5  -5   0   -0.21    0.19 
   5  -5   0    0.04    0.08 
  -5   6   0    0.57    0.18 
  -5   6   0    0.80    0.28 
  -5   6   0    0.43    0.14 
   5  -6   0    0.60    0.20 
   5  -6   0    0.42    0.11 
   5  -6   0    0.23    0.12 
   5  -7   0    0.46    0.30 
   5  -7   0    0.15    0.17 
  -5   8   0   -0.11    0.27 
   5  -8   0   -0.16    0.19 
  -6  -7   0   -0.17    0.27 
  -6  -7   0    0.40    0.25 
   6   7   0    0.19    0.19 
   6   7   0    0.69    0.39 
   6   6   0    0.49    0.20 
   6   6   0    0.63    0.14 
  -6  -5   0    1.09    0.24 
   6   5   0    1.46    0.17 
  -6  -4   0    0.69    0.13 
  -6  -4   0    0.87    0.18 
  -6  -3   0    0.77    0.19 
  -6  -3   0    0.97    0.13 
  -6  -2   0    0.41    0.09 
  -6  -2   0    0.22    0.11 
   6   2   0    0.08    0.29 
   6   2   0    0.47    0.10 
  -6  -1   0    1.56    0.66 
  -6  -1   0    1.12    0.38 
  -6  -1   0    0.83    0.34 
   6   1   0    1.79    0.59 
   6   1   0    1.12    0.25 
   6   1   0    1.60    0.29 
   6   1   0    1.28    0.49 
  -6   0   0    0.27    0.25 
   6   0   0    0.77    0.24 
   6   0   0    0.30    0.22 
  -6   1   0    1.37    0.32 
  -6   1   0    1.52    0.31 
  -6   1   0    0.67    0.47 
   6  -1   0    1.52    0.34 
   6  -1   0    1.36    0.28 
   6  -1   0    1.44    0.52 
  -6   2   0    0.99    0.16 
  -6   2   0    0.87    0.13 
   6  -2   0    0.76    0.25 
   6  -2   0    0.70    0.31 
   6  -2   0    0.71    0.16 
  -6   3   0    0.70    0.15 
   6  -3   0    0.68    0.21 
   6  -3   0    0.91    0.35 
   6  -3   0    0.74    0.16 
   6  -3   0    0.52    0.11 
  -6   4   0    0.55    0.13 
   6  -4   0    0.69    0.17 
   6  -4   0    0.87    0.20 
   6  -4   0    0.49    0.10 
  -6   5   0    0.20    0.12 
  -6   5   0    0.58    0.18 
   6  -5   0    0.34    0.10 
  -6   6   0    0.03    0.23 
  -6   6   0    0.21    0.18 
  -6   6   0    0.49    0.39 
   6  -6   0    0.30    0.15 
   6  -6   0    0.38    0.28 
  -6   7   0    0.03    0.25 
  -7  -6   0   -0.14    0.24 
   7   6   0   -0.02    0.17 
  -7  -5   0    0.25    0.20 
  -7  -5   0    0.05    0.16 
  -7  -5   0    0.07    0.17 
   7   5   0    0.23    0.27 
   7   5   0    0.00    0.13 
   7   5   0    0.55    0.15 
  -7  -4   0    0.09    0.14 
  -7  -4   0    0.18    0.19 
   7   4   0    0.00    0.26 
   7   4   0    0.39    0.12 
  -7  -3   0    0.39    0.13 
   7   3   0    0.63    0.19 
  -7  -2   0    0.53    0.11 
  -7  -2   0    0.31    0.12 
  -7  -1   0    0.70    0.14 
   7   1   0    1.00    0.22 
  -7   0   0    0.04    0.11 
  -7   0   0   -0.04    0.12 
  -7   0   0    0.03    0.10 
   7   0   0   -0.02    0.10 
   7   0   0    0.19    0.15 
   7   0   0    0.10    0.07 
  -7   1   0    1.03    0.21 
  -7   1   0    0.92    0.15 
  -7   1   0    0.71    0.13 
   7  -1   0    0.63    0.15 
  -7   2   0    0.48    0.13 
   7  -2   0    0.67    0.23 
   7  -2   0    0.56    0.12 
   7  -2   0    0.50    0.12 
  -7   3   0    0.20    0.14 
  -7   3   0    0.15    0.12 
  -7   3   0    0.10    0.11 
  -7   3   0    0.30    0.15 
   7  -3   0    0.22    0.10 
   7  -3   0   -0.05    0.13 
   7  -3   0    0.01    0.19 
  -7   4   0    0.04    0.13 
  -7   4   0   -0.04    0.20 
  -7   4   0   -0.04    0.17 
   7  -4   0   -0.05    0.11 
   7  -4   0    0.15    0.12 
   7  -4   0    0.11    0.23 
  -7   5   0    0.45    0.19 
  -7   5   0    0.43    0.21 
   7  -5   0    0.23    0.24 
   7  -5   0    0.05    0.13 
  -7   6   0    0.29    0.45 
  -7   6   0    0.02    0.29 
   7  -6   0    0.02    0.15 
   7  -6   0   -0.23    0.18 
   7  -6   0    0.46    0.33 
  -8  -5   0   -0.13    0.24 
  -8  -5   0   -0.01    0.18 
   8   5   0    0.02    0.17 
   8   5   0    0.80    0.41 
  -8  -4   0   -0.23    0.21 
  -8  -4   0    0.15    0.16 
   8   4   0   -0.07    0.32 
   8   4   0    0.14    0.19 
  -8  -3   0    0.13    0.15 
  -8  -3   0    0.25    0.18 
  -8  -3   0    0.08    0.11 
   8   3   0    0.14    0.12 
  -8  -2   0   -0.10    0.13 
  -8  -2   0    0.00    0.13 
  -8  -2   0   -0.11    0.15 
   8   2   0   -0.10    0.22 
  -8  -1   0    0.58    0.18 
   8   1   0    0.70    0.12 
  -8   0   0    0.93    0.17 
  -8   0   0    0.66    0.18 
   8   0   0    1.12    0.19 
  -8   1   0    0.18    0.15 
   8  -1   0    0.31    0.14 
   8  -1   0    0.11    0.09 
  -8   2   0    0.23    0.18 
  -8   2   0    0.04    0.16 
  -8   2   0    0.25    0.13 
   8  -2   0    0.38    0.17 
   8  -2   0    0.30    0.11 
  -8   3   0    0.15    0.21 
  -8   3   0   -0.20    0.14 
   8  -3   0    0.10    0.12 
  -8   4   0    0.15    0.23 
  -8   4   0    0.31    0.20 
   8  -4   0    0.59    0.26 
   8  -4   0    0.38    0.22 
  -8   5   0   -0.03    0.22 
  -8   5   0    0.12    0.24 
   8  -5   0    0.00    0.17 
   8  -5   0    0.30    0.30 
  -8   6   0   -0.45    0.30 
  -9  -4   0   -0.43    0.29 
  -9  -4   0    0.00    0.20 
  -9  -3   0    0.27    0.17 
   9   3   0    0.55    0.33 
   9   3   0    0.30    0.15 
  -9  -2   0    0.01    0.16 
   9   2   0   -0.34    0.28 
   9   2   0   -0.02    0.15 
  -9  -1   0    1.59    0.19 
   9   1   0    1.79    0.19 
  -9   0   0   -0.03    0.18 
  -9   0   0    0.46    0.15 
   9   0   0   -0.01    0.12 
  -9   1   0    1.42    0.17 
  -9   1   0    0.80    0.19 
   9  -1   0    1.04    0.24 
  -9   2   0    0.41    0.21 
  -9   2   0    0.06    0.20 
  -9   2   0   -0.10    0.16 
   9  -2   0    0.28    0.13 
   9  -2   0   -0.32    0.25 
   9  -2   0    0.01    0.18 
  -9   3   0    0.35    0.25 
  -9   3   0   -0.12    0.22 
   9  -3   0   -0.02    0.16 
   9  -3   0   -0.25    0.31 
  -9   4   0    0.35    0.25 
   9  -4   0    0.02    0.16 
   9  -4   0    0.68    0.32 
 -10  -2   0   -0.01    0.20 
  10   2   0   -0.04    0.16 
 -10  -1   0    0.29    0.18 
  10   1   0    0.06    0.17 
  10   1   0   -0.51    0.36 
 -10   0   0    0.37    0.19 
 -10   0   0   -0.16    0.22 
  10   0   0   -0.32    0.33 
 -10   1   0   -0.17    0.23 
  10  -1   0    0.12    0.18 
  10  -1   0   -0.20    0.30 
 -10   2   0   -0.20    0.24 
 -10   2   0    0.05    0.20 
  10  -2   0    0.01    0.16 
  10  -2  -1    0.05    0.15 
 -10   2   1    0.16    0.19 
 -10   2   1   -0.28    0.23 
  10  -1  -1   -0.36    0.31 
  10  -1  -1    0.10    0.14 
 -10   1   1   -0.37    0.23 
  10   0  -1   -0.04    0.15 
 -10   0   1    0.33    0.18 
 -10   0   1   -0.23    0.19 
  10   1  -1   -0.08    0.14 
 -10  -1   1    0.08    0.19 
  10   2  -1   -0.10    0.15 
 -10  -2   1    0.19    0.20 
  10   3  -1   -0.06    0.17 
 -10  -3   1    0.02    0.21 
   9  -5  -1    0.49    0.34 
   9  -4  -1    0.08    0.75 
  -9   4   1   -0.30    0.23 
  -9   4   1    0.36    0.24 
   9  -3  -1    0.06    0.13 
   9  -3  -1    0.53    0.29 
  -9   3   1   -0.07    0.21 
  -9   3   1    0.10    0.24 
   9  -2  -1    0.50    0.25 
   9  -2  -1    0.20    0.12 
  -9   2   1    0.41    0.21 
  -9   2   1    0.42    0.16 
   9  -1  -1    0.28    0.24 
   9  -1  -1    0.56    0.22 
  -9   1   1    0.71    0.15 
   9   0  -1    2.38    0.45 
   9   0  -1    2.50    0.46 
  -9   0   1    2.59    0.33 
   9   1  -1    0.54    0.13 
   9   2  -1    0.46    0.16 
  -9  -2   1    0.11    0.16 
  -9  -3   1    0.33    0.24 
  -9  -3   1    0.35    0.17 
  -9  -4   1    0.25    0.28 
  -9  -4   1    0.07    0.19 
  -9  -5   1   -0.31    0.28 
  -9  -5   1    0.00    0.22 
   8  -6  -1   -0.26    0.21 
   8  -6  -1    0.55    0.34 
   8  -6  -1    0.05    0.16 
  -8   6   1    0.15    0.26 
  -8   6   1    0.04    0.47 
  -8   6   1   -0.43    0.28 
   8  -5  -1    0.62    0.32 
   8  -5  -1    0.00    0.14 
   8  -5  -1    0.18    0.16 
  -8   5   1    0.46    0.24 
  -8   5   1    0.19    0.26 
   8  -4  -1    0.07    0.49 
  -8   4   1    0.17    0.21 
  -8   4   1    0.10    0.20 
   8  -3  -1    0.53    0.23 
   8  -3  -1    0.31    0.13 
  -8   3   1    0.25    0.17 
   8  -2  -1    0.14    0.12 
   8  -2  -1    0.32    0.10 
  -8   2   1    0.25    0.17 
   8  -1  -1    0.97    0.15 
   8  -1  -1    1.07    0.35 
  -8   1   1    1.43    0.23 
  -8   1   1    1.30    0.17 
   8   0  -1    1.83    0.42 
   8   0  -1    2.19    0.43 
  -8   0   1    2.29    0.37 
  -8   0   1    1.82    0.29 
  -8  -1   1    0.49    0.12 
   8   2  -1    0.67    0.21 
   8   2  -1    0.96    0.18 
  -8  -2   1    0.68    0.14 
   8   3  -1    0.22    0.13 
  -8  -3   1    0.27    0.14 
   8   4  -1    0.12    0.14 
  -8  -4   1    0.00    0.20 
  -8  -4   1    0.30    0.16 
  -8  -4   1    0.02    0.16 
  -8  -5   1   -0.05    0.21 
  -8  -5   1    0.16    0.23 
   8   6  -1   -0.29    0.18 
  -8  -6   1   -0.19    0.28 
   7  -7  -1    0.25    0.19 
   7  -6  -1    0.32    0.16 
   7  -6  -1    0.73    0.32 
  -7   6   1    0.36    0.46 
  -7   6   1    0.18    0.23 
  -7   6   1    0.38    0.23 
   7  -5  -1   -0.04    0.12 
   7  -5  -1    0.07    0.15 
  -7   5   1    0.17    0.20 
  -7   5   1    0.17    0.35 
  -7   5   1    0.47    0.18 
  -7   5   1    0.08    0.14 
   7  -4  -1   -0.15    0.12 
   7  -4  -1    0.07    0.10 
  -7   4   1    0.06    0.12 
  -7   4   1    0.38    0.16 
  -7   4   1    0.04    0.17 
   7  -3  -1    0.12    0.11 
   7  -3  -1    0.16    0.17 
   7  -3  -1    0.35    0.13 
  -7   3   1    0.31    0.14 
  -7   3   1    0.19    0.15 
  -7   3   1    0.02    0.11 
   7  -2  -1    0.07    0.10 
   7  -2  -1    0.00    0.07 
  -7   2   1    0.13    0.09 
  -7   2   1    0.14    0.12 
   7  -1  -1    0.35    0.11 
   7  -1  -1    0.18    0.09 
   7  -1  -1    0.22    0.09 
  -7   1   1    0.56    0.11 
  -7   1   1    0.38    0.11 
   7   0  -1    0.18    0.13 
  -7   0   1    0.03    0.11 
   7   1  -1    0.46    0.16 
  -7  -1   1    0.30    0.10 
  -7  -1   1    0.16    0.11 
   7   3  -1    0.28    0.19 
   7   3  -1    0.11    0.12 
   7   5  -1   -0.09    0.29 
   7   5  -1   -0.05    0.13 
  -7  -5   1    0.15    0.15 
  -7  -5   1    0.14    0.18 
  -7  -5   1   -0.22    0.19 
   7   6  -1    0.03    0.16 
  -7  -6   1    0.21    0.23 
  -7  -7   1   -0.01    0.28 
   6  -7  -1    0.45    0.16 
   6  -7  -1    0.84    0.32 
  -6   7   1    0.27    0.25 
   6  -6  -1    0.49    0.27 
   6  -6  -1    1.11    0.54 
  -6   6   1    1.02    1.89 
   6  -5  -1    0.07    0.10 
   6  -5  -1   -0.19    0.21 
   6  -5  -1    0.20    0.10 
   6  -5  -1    0.33    0.19 
  -6   5   1    0.11    0.12 
  -6   5   1    0.13    0.14 
  -6   5   1    0.44    0.19 
   6  -4  -1    0.09    0.16 
   6  -4  -1    0.40    0.17 
  -6   4   1    0.30    0.10 
  -6   4   1    0.10    0.14 
   6  -3  -1    0.30    0.08 
   6  -3  -1    0.38    0.11 
  -6   3   1    0.36    0.11 
  -6   3   1    0.44    0.09 
   6  -2  -1    0.16    0.08 
   6  -2  -1    0.04    0.07 
  -6   2   1    0.00    0.07 
  -6   2   1    0.10    0.08 
   6  -1  -1    0.21    0.07 
   6  -1  -1    0.46    0.25 
  -6   1   1    0.30    0.10 
  -6   1   1    0.46    0.10 
  -6   1   1    0.30    0.11 
   6   0  -1    0.05    0.06 
   6   0  -1   -0.07    0.09 
   6   0  -1   -0.01    0.05 
  -6   0   1   -0.01    0.07 
  -6   0   1    0.05    0.08 
  -6   0   1    0.05    0.08 
  -6   0   1    0.10    0.07 
   6   1  -1    0.15    0.07 
   6   1  -1    0.23    0.09 
   6   1  -1    0.22    0.06 
  -6  -1   1    0.13    0.08 
  -6  -1   1    0.29    0.07 
  -6  -2   1    0.38    0.09 
  -6  -3   1    0.53    0.11 
  -6  -3   1    0.50    0.10 
   6   4  -1    0.07    0.09 
  -6  -4   1    0.23    0.11 
  -6  -4   1    0.28    0.12 
   6   5  -1    0.13    0.10 
  -6  -5   1    0.12    0.16 
  -6  -5   1    0.34    0.15 
   6   6  -1    0.38    0.16 
   6   6  -1    0.30    0.13 
  -6  -6   1    0.26    0.19 
  -6  -6   1    0.06    0.20 
  -6  -6   1    0.08    0.20 
   6   7  -1    0.02    0.18 
  -6  -7   1   -0.27    0.25 
  -6  -7   1   -0.22    0.25 
   5  -8  -1    0.00    0.18 
   5  -8  -1   -0.14    0.20 
  -5   8   1    0.34    0.39 
  -5   8   1    0.15    0.26 
   5  -7  -1    0.36    0.14 
   5  -7  -1    0.28    0.29 
   5  -7  -1    0.03    0.77 
  -5   7   1    0.02    0.22 
   5  -6  -1    0.08    0.24 
   5  -6  -1    0.20    0.11 
   5  -6  -1   -0.01    0.11 
  -5   6   1    0.18    0.13 
  -5   6   1   -0.15    0.30 
  -5   6   1    0.39    0.13 
   5  -5  -1    0.21    0.14 
   5  -5  -1    0.11    0.08 
   5  -5  -1   -0.08    0.18 
   5  -5  -1   -0.05    0.09 
  -5   5   1    0.10    0.12 
  -5   5   1    0.17    0.10 
   5  -4  -1    0.14    0.07 
   5  -4  -1    0.09    0.15 
   5  -4  -1   -0.04    0.12 
  -5   4   1    0.17    0.08 
  -5   4   1    0.12    0.10 
   5  -3  -1    0.54    0.15 
   5  -3  -1    0.91    0.37 
   5  -3  -1    0.50    0.10 
  -5   3   1    1.65    0.57 
  -5   3   1    0.58    0.14 
  -5   3   1    0.58    0.31 
  -5   3   1    0.78    0.24 
   5  -2  -1   11.46    1.27 
   5  -2  -1   12.21    1.23 
   5  -2  -1   11.61    1.33 
   5  -2  -1   13.59    1.38 
  -5   2   1   12.87    1.18 
  -5   2   1   10.11    1.27 
  -5   2   1   11.57    1.25 
  -5   2   1   11.40    1.14 
   5  -1  -1    1.07    0.33 
   5  -1  -1    1.42    0.30 
   5  -1  -1    0.99    0.32 
   5  -1  -1    1.40    0.28 
  -5   1   1    0.90    0.28 
  -5   1   1    1.11    0.25 
  -5   1   1    0.96    0.21 
  -5   1   1    1.06    0.22 
   5   0  -1    9.68    1.02 
   5   0  -1   11.41    0.87 
   5   0  -1   10.98    1.14 
   5   0  -1   10.75    1.05 
   5   0  -1    9.45    0.84 
  -5   0   1    9.70    1.07 
  -5   0   1   11.07    1.05 
  -5   0   1   12.46    1.20 
  -5   0   1   11.89    1.16 
  -5   0   1    9.64    1.07 
   5   1  -1    1.60    0.34 
   5   1  -1    1.11    0.29 
   5   1  -1    1.73    1.18 
   5   1  -1    0.48    0.26 
   5   1  -1    1.32    0.25 
  -5  -1   1    0.93    0.31 
  -5  -1   1    0.97    0.24 
  -5  -1   1    0.56    0.26 
  -5  -1   1    1.29    0.46 
  -5  -1   1    0.87    0.31 
  -5  -1   1    0.87    0.30 
   5   2  -1   12.93    4.16 
   5   2  -1   10.90    1.15 
   5   2  -1   11.42    1.29 
   5   2  -1    9.14    1.11 
  -5  -2   1   11.19    1.07 
  -5  -2   1   14.22    1.38 
  -5  -2   1   11.32    1.14 
  -5  -2   1   11.73    1.31 
  -5  -2   1   10.45    1.12 
   5   3  -1    0.89    0.18 
   5   3  -1    0.87    0.28 
   5   3  -1    1.58    0.43 
  -5  -3   1    0.64    0.31 
  -5  -3   1    1.12    0.38 
  -5  -3   1    1.57    0.54 
   5   4  -1    0.21    0.08 
  -5  -4   1    0.05    0.10 
  -5  -4   1    0.16    0.09 
   5   5  -1    0.47    0.09 
  -5  -5   1    0.20    0.13 
  -5  -5   1    0.30    0.14 
   5   6  -1    0.07    0.11 
   5   6  -1    0.19    0.11 
  -5  -6   1    0.36    0.18 
  -5  -6   1    0.14    0.16 
  -5  -6   1   -0.08    0.16 
   5   7  -1    0.12    0.29 
   5   7  -1   -0.06    0.19 
   5   7  -1    0.21    0.14 
  -5  -7   1    0.01    0.18 
  -5  -7   1   -0.08    0.23 
  -5  -7   1    0.05    0.22 
   5   8  -1    0.01    0.19 
   5   8  -1   -0.01    0.24 
  -5  -8   1    0.42    0.32 
  -5  -8   1   -0.05    0.28 
  -5  -8   1   -0.05    0.20 
   4  -8  -1    0.07    0.16 
   4  -8  -1   -0.04    0.17 
  -4   8   1    0.18    0.26 
   4  -7  -1    1.10    0.33 
  -4   7   1    0.45    0.21 
   4  -6  -1    4.58    0.63 
   4  -6  -1    3.47    0.55 
   4  -6  -1    5.35    0.64 
  -4   6   1    5.74    0.83 
  -4   6   1    4.46    0.62 
   4  -5  -1    0.45    0.18 
   4  -5  -1    0.33    0.15 
   4  -5  -1    0.32    0.08 
  -4   5   1    0.55    1.16 
  -4   5   1    0.23    0.10 
  -4   5   1    0.54    0.14 
  -4   5   1    0.25    0.09 
   4  -4  -1   15.92    1.56 
   4  -4  -1   12.56    1.50 
   4  -4  -1   17.48    1.81 
   4  -4  -1   14.66    1.46 
  -4   4   1   15.64    1.73 
  -4   4   1   15.13    1.48 
  -4   4   1   16.05    1.47 
   4  -3  -1   -0.05    0.35 
   4  -3  -1    0.04    0.04 
   4  -3  -1    0.12    0.10 
  -4   3   1    0.26    0.07 
  -4   3   1    0.13    0.07 
   4  -2  -1  131.11    7.93 
   4  -2  -1  129.66    7.35 
   4  -2  -1  116.52    6.86 
   4  -2  -1  136.50    7.24 
   4  -2  -1  113.36    7.19 
  -4   2   1  138.26    7.15 
  -4   2   1  134.23    7.45 
  -4   2   1  123.53    6.68 
  -4   2   1  131.82    7.13 
   4  -1  -1    0.31    0.17 
   4  -1  -1    0.41    0.18 
   4  -1  -1    0.36    0.08 
   4  -1  -1    0.34    0.11 
   4  -1  -1    0.55    0.12 
  -4   1   1    0.54    0.22 
  -4   1   1    0.17    0.15 
  -4   1   1    0.40    0.14 
  -4   1   1    0.40    0.12 
   4   0  -1   82.50    5.03 
   4   0  -1   86.68    5.34 
   4   0  -1   84.31    4.76 
   4   0  -1   89.73    4.86 
   4   0  -1   85.64    4.89 
   4   0  -1   92.09    4.58 
  -4   0   1   89.11    4.95 
  -4   0   1   87.20    4.89 
  -4   0   1   87.87    5.00 
  -4   0   1   81.86    4.80 
  -4   0   1   82.85    4.94 
   4   1  -1    0.46    0.14 
   4   1  -1    0.39    0.18 
   4   1  -1    0.72    0.13 
  -4  -1   1    0.49    0.20 
  -4  -1   1    0.65    0.20 
  -4  -1   1    0.55    0.20 
   4   2  -1  127.94    6.81 
   4   2  -1  110.97    6.99 
   4   2  -1  130.61    7.53 
   4   2  -1  123.54    6.46 
   4   2  -1  126.40    6.78 
  -4  -2   1  128.49    7.27 
  -4  -2   1  118.29    6.76 
  -4  -2   1  127.78    6.89 
  -4  -2   1  122.63    6.48 
  -4  -2   1  122.64    7.32 
   4   3  -1    0.09    0.06 
   4   3  -1    0.04    0.06 
  -4  -3   1    0.03    0.07 
  -4  -3   1    0.00    0.06 
  -4  -3   1    0.00    0.07 
  -4  -3   1    0.03    0.06 
   4   4  -1   17.63    1.74 
   4   4  -1   15.12    1.51 
   4   4  -1   15.11    1.48 
   4   4  -1   16.94    5.57 
  -4  -4   1   17.22    1.63 
  -4  -4   1   16.16    1.75 
  -4  -4   1   12.45    1.41 
  -4  -4   1   16.15    1.56 
   4   5  -1    0.68    0.13 
   4   5  -1    0.55    0.12 
   4   6  -1    3.39    0.48 
   4   6  -1    2.15    0.33 
  -4  -6   1    2.88    0.52 
   4   7  -1    0.16    0.13 
   4   7  -1   -0.18    0.16 
  -4  -7   1   -0.17    0.15 
  -4  -7   1   -0.26    0.22 
  -4  -7   1   -0.23    0.21 
  -4  -7   1    0.17    0.20 
   4   8  -1    0.29    0.16 
   4   8  -1   -0.39    0.33 
   4   8  -1   -0.05    0.20 
  -4  -8   1    0.24    0.26 
  -4  -8   1   -0.07    0.25 
  -4  -8   1    0.25    0.19 
   3  -8  -1   -0.09    0.15 
   3  -8  -1    0.18    0.29 
   3  -8  -1    0.15    0.15 
  -3   8   1   -0.10    0.19 
  -3   8   1    0.12    0.24 
   3  -7  -1    0.02    0.12 
   3  -7  -1    0.11    0.11 
   3  -7  -1   -0.13    0.22 
   3  -7  -1    0.32    0.19 
  -3   7   1    0.15    0.17 
  -3   7   1   -0.17    0.25 
   3  -6  -1    0.20    0.16 
   3  -6  -1    0.10    0.44 
   3  -6  -1    0.38    0.14 
   3  -5  -1    5.84    0.83 
   3  -5  -1    7.44    1.04 
   3  -5  -1    5.34    0.78 
  -3   5   1    6.79    0.90 
  -3   5   1    5.66    0.90 
   3  -4  -1    6.33    0.95 
   3  -4  -1    5.16    0.77 
   3  -4  -1    5.19    0.79 
   3  -4  -1    7.88    0.98 
  -3   4   1    5.30    1.14 
  -3   4   1    6.65    0.80 
  -3   4   1    6.82    0.59 
  -3   4   1    5.90    0.87 
   3  -3  -1   12.76    1.37 
   3  -3  -1   14.97    1.38 
   3  -3  -1   13.76    1.26 
   3  -3  -1   12.32    1.25 
   3  -3  -1   12.79    2.86 
  -3   3   1   13.89    1.40 
  -3   3   1   11.81    1.37 
  -3   3   1   13.26    0.94 
  -3   3   1   14.01    1.22 
  -3   3   1   13.04    0.88 
   3  -2  -1    0.13    0.05 
   3  -2  -1    0.62    0.24 
   3  -2  -1    0.24    0.04 
  -3   2   1    0.26    0.11 
   3  -1  -1   80.58    4.01 
   3  -1  -1   82.75    4.58 
   3  -1  -1   86.33    4.55 
   3  -1  -1   79.82    4.01 
   3  -1  -1   86.90    4.40 
   3  -1  -1   78.42    4.94 
   3  -1  -1   70.64    4.48 
  -3   1   1   77.93    4.46 
  -3   1   1   75.48    4.26 
  -3   1   1   81.64    4.64 
  -3   1   1   82.69    4.48 
  -3   1   1   82.03    4.06 
   3   0  -1   71.70    3.92 
   3   0  -1   71.33    3.73 
   3   0  -1   72.91    3.91 
   3   0  -1   64.41    4.04 
   3   0  -1   72.42    4.05 
  -3   0   1   75.16    3.97 
  -3   0   1   71.90    4.00 
  -3   0   1   71.41    3.98 
  -3   0   1   70.02    3.89 
  -3   0   1   69.34    4.04 
   3   1  -1   75.59    3.89 
   3   1  -1   78.16    4.51 
   3   1  -1   65.20    4.21 
   3   1  -1   73.69    4.09 
   3   1  -1   69.71    4.01 
  -3  -1   1   72.19    4.07 
  -3  -1   1   76.96    4.32 
  -3  -1   1   79.48    4.10 
  -3  -1   1   62.27    3.90 
  -3  -1   1   79.71    4.41 
   3   2  -1    0.17    0.08 
   3   2  -1    0.05    0.04 
  -3  -2   1    0.04    0.04 
  -3  -2   1    0.06    0.03 
  -3  -2   1    0.08    0.04 
  -3  -2   1    0.08    0.04 
   3   3  -1   10.35    1.09 
   3   3  -1   12.33    1.15 
   3   3  -1   11.43    1.16 
   3   3  -1   13.36    1.30 
   3   3  -1   10.63    0.80 
  -3  -3   1   14.32    1.24 
  -3  -3   1   14.30    1.20 
  -3  -3   1   13.29    1.33 
  -3  -3   1   10.86    0.78 
  -3  -3   1   12.83    1.20 
   3   4  -1    6.94    1.00 
   3   4  -1    6.08    0.81 
   3   4  -1    5.09    0.71 
   3   4  -1    5.88    0.74 
  -3  -4   1    7.38    0.89 
  -3  -4   1    5.61    0.84 
  -3  -4   1    4.89    0.69 
  -3  -4   1    5.06    0.70 
  -3  -4   1    5.68    0.87 
   3   5  -1    3.46    0.69 
   3   5  -1    3.24    0.54 
  -3  -5   1    2.50    0.45 
  -3  -5   1    2.34    0.44 
   3   6  -1    0.06    0.13 
   3   6  -1    0.22    0.10 
   3   6  -1    0.15    0.09 
  -3  -6   1    0.39    0.10 
  -3  -6   1    0.22    0.13 
  -3  -6   1    0.10    0.14 
   3   7  -1   -0.22    0.17 
   3   7  -1    0.12    0.13 
  -3  -7   1    0.22    0.15 
  -3  -7   1    0.07    0.17 
  -3  -7   1   -0.21    0.19 
  -3  -7   1    0.13    0.18 
   3   8  -1    0.21    0.16 
  -3  -8   1    0.12    0.19 
  -3  -8   1   -0.24    0.26 
  -3  -8   1   -0.30    0.26 
   2  -9  -1   -1.34    2.04 
  -2   9   1    0.04    0.25 
   2  -8  -1    0.05    0.27 
   2  -8  -1    0.30    0.15 
   2  -8  -1    0.08    0.15 
  -2   8   1    0.68    0.23 
  -2   8   1    0.66    0.34 
  -2   8   1    0.20    0.18 
   2  -7  -1    0.33    0.20 
   2  -7  -1    0.36    0.19 
  -2   7   1    0.24    0.14 
  -2   7   1    0.41    0.14 
   2  -5  -1    0.10    0.09 
   2  -5  -1    0.15    0.11 
   2  -5  -1    0.10    0.06 
   2  -5  -1    0.12    0.37 
  -2   5   1    0.12    0.07 
  -2   5   1    0.07    0.09 
  -2   5   1    0.05    0.07 
   2  -4  -1    0.33    0.08 
   2  -4  -1    0.28    0.06 
   2  -3  -1    5.74    0.78 
   2  -3  -1    6.56    0.75 
   2  -3  -1    5.87    2.18 
   2  -3  -1    6.25    0.76 
   2  -3  -1    5.08    0.49 
  -2   3   1    6.89    0.60 
  -2   3   1    5.65    0.62 
  -2   3   1    8.03    3.36 
  -2   3   1    6.12    0.76 
   2  -2  -1    6.22    0.67 
   2  -2  -1    5.90    0.68 
   2  -2  -1    5.02    0.65 
   2  -2  -1    5.95    0.63 
  -2   2   1    7.24    0.75 
  -2   2   1    5.99    0.47 
  -2   2   1    6.50    0.63 
  -2   2   1    5.23    0.69 
  -2   2   1    5.89    0.45 
   2  -1  -1   39.50    2.27 
   2  -1  -1   36.71    2.53 
   2  -1  -1   35.69    2.33 
   2  -1  -1   38.78    2.03 
   2  -1  -1   43.62    2.39 
   2  -1  -1   41.27    2.42 
  -2   1   1   39.22    2.15 
  -2   1   1   39.37    2.31 
  -2   1   1   37.16    2.39 
  -2   1   1   40.68    2.31 
  -2   1   1   41.26    2.06 
   2   0  -1    9.61    0.79 
   2   0  -1    9.72    0.72 
   2   0  -1   10.34    0.77 
   2   0  -1    9.33    0.68 
   2   0  -1    9.37    0.65 
  -2   0   1    8.89    0.71 
  -2   0   1    9.08    0.70 
  -2   0   1    9.78    0.74 
  -2   0   1   10.17    0.76 
  -2   0   1    9.33    0.71 
  -2   0   1    9.60    0.75 
   2   1  -1   39.43    2.31 
   2   1  -1   39.83    2.42 
   2   1  -1   36.64    2.37 
   2   1  -1   35.63    2.61 
  -2  -1   1   42.56    2.51 
  -2  -1   1   39.97    2.25 
  -2  -1   1   39.45    2.45 
  -2  -1   1   40.62    2.18 
  -2  -1   1   39.41    2.30 
   2   2  -1    6.93    0.72 
   2   2  -1    5.55    0.58 
   2   2  -1    4.29    0.59 
   2   2  -1    5.44    0.61 
  -2  -2   1    5.02    0.41 
  -2  -2   1    6.18    0.60 
  -2  -2   1    5.80    0.62 
  -2  -2   1    6.53    0.63 
  -2  -2   1    5.74    0.67 
   2   3  -1    4.90    0.50 
   2   3  -1    6.22    0.74 
   2   3  -1    6.37    0.79 
   2   3  -1    5.85    0.69 
   2   3  -1    7.06    0.78 
  -2  -3   1    5.78    0.64 
  -2  -3   1    5.78    0.75 
  -2  -3   1    5.75    0.76 
  -2  -3   1    5.93    0.72 
  -2  -3   1    6.72    0.72 
   2   4  -1    0.02    0.06 
   2   4  -1    0.01    0.06 
   2   4  -1    0.00    0.07 
  -2  -4   1    0.18    0.07 
  -2  -4   1    0.05    0.05 
  -2  -4   1    0.09    0.07 
  -2  -4   1    0.00    0.04 
  -2  -4   1    0.08    0.06 
   2   5  -1    0.17    0.43 
   2   5  -1   -0.08    0.13 
  -2  -5   1   -0.01    0.09 
  -2  -5   1    0.15    0.10 
   2   6  -1    0.56    0.11 
  -2  -6   1    0.66    0.19 
   2   7  -1    0.54    0.14 
   2   7  -1    0.26    0.13 
  -2  -7   1    0.11    0.16 
  -2  -7   1    0.38    0.12 
  -2  -7   1    0.01    0.18 
   2   8  -1    0.07    0.15 
  -2  -8   1   -0.10    0.25 
  -2  -8   1   -0.07    0.21 
  -2  -8   1   -0.02    0.16 
   2   9  -1   -0.13    0.24 
   2   9  -1    0.15    0.41 
   1  -9  -1    0.22    0.19 
   1  -9  -1    0.08    0.21 
   1  -9  -1    0.52    1.89 
  -1   9   1   -0.02    0.20 
  -1   9   1    0.31    0.37 
   1  -8  -1    0.56    0.16 
   1  -8  -1    0.28    0.26 
  -1   8   1    0.79    0.16 
   1  -7  -1    1.32    0.16 
   1  -7  -1    0.70    0.20 
   1  -7  -1    1.21    0.19 
  -1   7   1    0.83    0.14 
   1  -6  -1    3.00    0.48 
   1  -6  -1    2.90    0.52 
  -1   6   1    2.32    0.46 
   1  -5  -1    3.00    0.57 
   1  -5  -1    3.76    0.69 
   1  -5  -1    3.40    0.52 
   1  -5  -1    4.83    0.76 
  -1   5   1    3.96    0.57 
  -1   5   1    4.31    0.69 
  -1   5   1    4.47    0.68 
   1  -4  -1   11.87    1.26 
   1  -4  -1   11.99    1.28 
   1  -4  -1   13.08    1.39 
   1  -4  -1   14.95    3.01 
   1  -4  -1   13.29    1.16 
  -1   4   1   12.79    0.96 
  -1   4   1   12.80    1.26 
  -1   4   1   14.65    2.73 
  -1   4   1   12.03    1.37 
   1  -3  -1  100.93    6.17 
   1  -3  -1  116.70    6.62 
   1  -3  -1  107.73    6.27 
   1  -3  -1  119.20    6.21 
   1  -3  -1  111.57    6.02 
  -1   3   1  112.54    6.25 
  -1   3   1  110.48    5.68 
  -1   3   1  115.02    6.90 
  -1   3   1  105.45    6.77 
   1  -2  -1  155.87    7.73 
   1  -2  -1  164.04    8.07 
   1  -2  -1  134.95    7.93 
   1  -2  -1  150.80    8.05 
   1  -2  -1  155.01    8.83 
   1  -2  -1  154.49    8.47 
  -1   2   1  149.60    8.82 
  -1   2   1  142.21    7.67 
  -1   2   1  155.73    8.07 
  -1   2   1  155.19    7.55 
   1  -1  -1   75.01    4.21 
   1  -1  -1   79.13    4.07 
   1  -1  -1   85.31    4.65 
   1  -1  -1   77.22    4.43 
   1  -1  -1   79.33    4.18 
  -1   1   1   74.45    4.01 
  -1   1   1   81.81    5.05 
  -1   1   1   75.63    4.27 
  -1   1   1   87.21    4.06 
   1   0  -1   19.93    1.17 
   1   0  -1   20.13    1.05 
  -1   0   1   20.35    1.06 
  -1   0   1   18.80    1.13 
  -1   0   1   19.73    1.13 
  -1   0   1   18.96    1.12 
   1   1  -1   80.09    4.13 
   1   1  -1   77.70    4.18 
   1   1  -1   89.15    4.57 
   1   1  -1   80.29    4.27 
  -1  -1   1   80.59    4.45 
  -1  -1   1   81.22    4.12 
  -1  -1   1   72.56    4.03 
  -1  -1   1   82.69    4.53 
  -1  -1   1   78.15    4.15 
  -1  -1   1   77.12    4.29 
   1   2  -1  142.37    7.78 
   1   2  -1  159.96    8.42 
   1   2  -1  144.86    7.58 
  -1  -2   1  144.70    8.01 
  -1  -2   1  143.58    7.64 
  -1  -2   1  155.19    7.49 
  -1  -2   1  147.16    8.22 
  -1  -2   1  132.95    7.19 
  -1  -2   1  143.81    7.82 
   1   3  -1  121.05    6.02 
   1   3  -1  121.62    6.82 
   1   3  -1  106.92    6.36 
   1   3  -1  107.16    6.09 
  -1  -3   1  101.81    5.64 
  -1  -3   1  115.06   10.54 
  -1  -3   1  105.86    6.32 
  -1  -3   1  112.25    6.47 
  -1  -3   1  104.93    6.16 
  -1  -3   1  120.27    6.14 
   1   4  -1   12.54    1.21 
   1   4  -1   12.51    1.31 
   1   4  -1   12.96    1.41 
   1   4  -1   13.59    1.15 
  -1  -4   1   13.00    1.30 
  -1  -4   1   13.25    1.00 
  -1  -4   1   11.17    1.18 
  -1  -4   1   12.11    1.33 
  -1  -4   1   14.04    1.33 
  -1  -4   1   13.86    3.05 
   1   5  -1    3.71    0.63 
   1   5  -1    3.46    0.64 
   1   5  -1    3.91    0.59 
   1   5  -1    4.09    0.63 
  -1  -5   1    5.51    0.88 
  -1  -5   1    3.92    1.47 
  -1  -5   1    3.90    0.67 
  -1  -5   1    4.27    0.70 
  -1  -5   1    5.78    0.86 
  -1  -6   1    3.00    0.47 
  -1  -6   1    2.98    0.51 
  -1  -6   1    3.39    0.55 
  -1  -6   1    3.27    0.54 
   1   7  -1    0.71    0.16 
  -1  -7   1    0.80    0.12 
   1   8  -1    0.42    0.15 
   1   8  -1    0.57    0.17 
  -1  -8   1    0.58    0.25 
   1   9  -1    0.54    0.39 
  -1  -9   1    0.16    0.22 
   0  -9  -1    0.01    0.23 
   0  -9  -1    1.03    1.34 
   0   9   1    0.49    0.44 
   0  -8  -1    1.72    0.18 
   0   8   1    1.42    0.20 
   0  -7  -1    0.26    0.17 
   0  -7  -1    0.12    0.13 
   0  -7  -1    0.49    0.11 
   0  -7  -1    0.26    0.20 
   0   7   1    0.09    0.11 
   0  -6  -1   10.07    1.32 
   0  -6  -1   14.43    1.69 
   0   6   1   14.39    1.70 
   0   6   1   11.42    1.36 
   0   6   1   10.92    1.37 
   0  -5  -1   -0.01    0.07 
   0  -5  -1   -0.03    0.08 
   0  -5  -1    0.13    0.07 
   0   5   1   -0.05    0.10 
   0   5   1    0.06    0.26 
   0   5   1    0.05    0.07 
   0  -4  -1   82.55    4.87 
   0  -4  -1   72.71    4.67 
   0  -4  -1   82.08    4.64 
   0  -4  -1   76.70    5.08 
   0   4   1   84.41    5.26 
   0   4   1   72.78    3.90 
   0   4   1   79.86    4.64 
   0   4   1   64.76    4.75 
   0   4   1   75.80    4.52 
   0  -3  -1    4.05    0.60 
   0  -3  -1    5.25    0.64 
   0  -3  -1    4.81    0.60 
   0  -3  -1    6.03    0.71 
   0   3   1    5.62    0.63 
   0   3   1    4.22    0.61 
   0   3   1    4.95    0.58 
   0   3   1    4.61    0.38 
   0   3   1    5.06    0.66 
   0  -2  -1  747.77   42.35 
   0  -2  -1  789.91   45.14 
   0  -2  -1  800.04   40.01 
   0  -2  -1  764.68   38.59 
   0  -2  -1  789.39   38.68 
   0   2   1  762.98   39.98 
   0   2   1  829.31   38.69 
   0   2   1  825.62   42.57 
   0   2   1  683.47   38.60 
   0  -1  -1   91.09    5.37 
   0  -1  -1  100.98    5.04 
   0  -1  -1  101.48    5.25 
   0  -1  -1   95.98    5.03 
   0  -1  -1   99.39    4.85 
   0   1   1   96.13    5.05 
   0   1   1  101.00    5.57 
   0   1   1   92.10    4.95 
   0   0  -1   32.82    1.82 
   0   0  -1   34.06    1.80 
   0   0   1   36.89    1.84 
   0   1  -1  121.38    5.79 
   0  -1   1  103.70    5.86 
   0  -1   1  113.16    5.90 
   0  -1   1  119.19    5.85 
   0   2  -1 1000.00   53.18 
   0   2  -1  962.67   44.87 
   0   2  -1  887.14   46.26 
   0  -2   1  868.70   43.00 
   0  -2   1  812.57   44.70 
   0  -2   1  906.04   49.32 
   0  -2   1  915.31   44.92 
   0  -2   1  903.19   43.13 
   0  -2   1  900.63   50.59 
   0  -2   1  874.87   44.04 
   0   3  -1    6.31    0.66 
   0   3  -1    4.82    0.48 
   0   3  -1    6.10    0.75 
   0   3  -1    6.51    0.67 
   0  -3   1    5.43    0.65 
   0  -3   1    6.98    0.78 
   0  -3   1    4.19    0.64 
   0  -3   1    4.74    0.50 
   0  -3   1    6.24    0.72 
   0   4  -1   88.09    4.96 
   0   4  -1   76.30    5.23 
   0   4  -1   80.81    4.78 
   0   4  -1   91.01    5.59 
   0  -4   1   86.76    4.95 
   0  -4   1   76.45    4.98 
   0  -4   1   80.32    4.29 
   0  -4   1   80.35    5.07 
   0   5  -1    0.01    0.08 
   0   5  -1    0.21    0.28 
   0  -5   1    0.11    0.35 
   0  -5   1    0.07    0.08 
   0   6  -1   11.47    1.32 
   0   6  -1   11.41    1.22 
   0  -6   1   11.17    1.28 
   0  -6   1    8.91    1.19 
   0   7  -1    0.20    0.13 
   0   7  -1    0.48    0.13 
   0  -7   1    0.38    0.12 
   0  -7   1    0.40    0.18 
   0  -7   1    0.34    0.19 
   0   8  -1    1.69    0.30 
   0  -8   1    2.59    0.37 
   0  -8   1    1.89    0.26 
   0  -8   1    2.43    0.42 
   0   9  -1    0.63    0.44 
  -1  -9  -1   -0.05    0.21 
   1   9   1    0.25    0.43 
   1   9   1   -0.02    0.20 
  -1  -8  -1   -0.01    0.16 
  -1  -8  -1   -0.04    0.89 
   1   8   1    0.11    0.16 
   1   8   1    0.44    0.35 
  -1  -7  -1    0.64    0.18 
  -1  -7  -1    0.42    0.18 
  -1  -6  -1    0.16    0.11 
  -1  -6  -1    0.15    0.11 
  -1  -6  -1    0.04    0.09 
  -1  -6  -1    0.23    0.13 
   1   6   1   -0.02    0.56 
   1   6   1    0.00    0.11 
   1   6   1    0.17    0.16 
  -1  -5  -1    0.97    0.39 
  -1  -5  -1    0.64    0.12 
  -1  -5  -1    0.60    0.11 
   1   5   1    0.48    0.37 
   1   5   1    0.36    0.16 
  -1  -4  -1    0.10    0.05 
  -1  -4  -1    0.18    0.07 
   1   4   1    0.01    0.06 
   1   4   1    0.00    0.08 
  -1  -3  -1    0.27    0.16 
  -1  -3  -1    0.50    0.21 
  -1  -3  -1    0.58    0.20 
  -1  -3  -1    0.81    0.19 
  -1  -3  -1    0.42    0.12 
   1   3   1    0.49    0.13 
   1   3   1    0.99    0.23 
   1   3   1    0.56    0.15 
  -1  -2  -1   67.37    5.33 
  -1  -2  -1   66.57    3.78 
  -1  -2  -1   62.42    3.48 
  -1  -2  -1   65.79    3.63 
  -1  -2  -1   69.58    4.11 
   1   2   1   64.83    3.74 
   1   2   1   66.38    3.85 
   1   2   1   69.85    4.16 
  -1  -1  -1   63.46    3.47 
  -1  -1  -1   68.97    3.71 
  -1  -1  -1   63.64    3.26 
  -1  -1  -1   66.13    5.45 
   1   1   1   63.12    3.26 
   1   1   1   60.57    3.42 
   1   1   1   60.72    3.43 
   1   1   1   60.92    3.47 
   1   1   1   67.72    3.83 
  -1   0  -1   68.47    3.84 
  -1   0  -1   79.63    3.98 
  -1   0  -1   76.86    4.01 
   1   0   1   69.27    4.00 
   1   0   1   76.79    3.90 
   1   0   1   79.56    3.85 
  -1   1  -1   76.89    4.01 
  -1   1  -1   80.12    4.29 
  -1   1  -1   75.28    4.04 
  -1   1  -1   89.08    4.28 
  -1   1  -1   78.61    4.25 
   1  -1   1   78.61    4.36 
   1  -1   1   79.53    4.28 
   1  -1   1   75.18    4.25 
   1  -1   1   73.08    4.01 
   1  -1   1   83.36    4.35 
   1  -1   1   81.99    4.18 
   1  -1   1   81.75    4.73 
   1  -1   1   77.49    4.04 
  -1   2  -1   66.97    4.03 
  -1   2  -1   78.95    5.37 
  -1   2  -1   86.24    4.31 
   1  -2   1   84.19    4.38 
   1  -2   1   82.33    4.91 
   1  -2   1   84.17    4.28 
   1  -2   1   74.26    4.55 
   1  -2   1   77.21    4.49 
   1  -2   1   78.51    4.05 
   1  -2   1   78.00    4.45 
  -1   3  -1    0.34    0.08 
  -1   3  -1    0.49    0.06 
  -1   3  -1    0.67    0.16 
  -1   3  -1    0.33    0.09 
   1  -3   1    0.28    0.09 
   1  -3   1    0.42    0.10 
   1  -3   1    0.42    0.09 
   1  -3   1    0.64    0.24 
   1  -3   1    0.70    0.26 
   1  -3   1    0.58    0.19 
  -1   4  -1    0.04    0.05 
   1  -4   1    0.07    0.06 
   1  -4   1    0.05    0.07 
   1  -4   1    0.26    0.08 
   1  -4   1    0.15    0.05 
  -1   5  -1    0.53    0.39 
   1  -5   1    0.69    0.14 
  -1   6  -1    0.05    0.09 
  -1   6  -1   -0.02    0.10 
   1  -6   1    0.00    0.09 
   1  -6   1    0.09    0.62 
   1  -6   1    0.19    0.14 
  -1   7  -1    0.29    0.15 
  -1   7  -1    0.19    0.14 
   1  -7   1   -0.11    0.18 
   1  -7   1    0.39    0.20 
   1  -7   1    0.20    0.13 
   1  -8   1   -0.27    0.25 
   1  -8   1    0.13    0.14 
   1  -8   1    0.10    0.15 
  -1   9  -1    0.74    0.43 
  -1   9  -1    0.02    0.19 
   1  -9   1   -0.04    0.19 
   1  -9   1    0.58    0.34 
  -2  -8  -1    0.58    1.09 
   2   8   1    0.78    0.32 
  -2  -7  -1   -0.16    0.18 
  -2  -7  -1   -0.21    0.17 
  -2  -7  -1    0.11    0.19 
  -2  -7  -1   -0.09    0.13 
   2   7   1    0.29    0.12 
   2   7   1    0.23    0.12 
  -2  -6  -1    0.28    0.10 
  -2  -6  -1    0.09    0.12 
  -2  -6  -1    0.03    0.13 
  -2  -6  -1    0.20    0.14 
   2   6   1    0.04    0.59 
  -2  -5  -1    0.30    0.10 
  -2  -5  -1    0.44    0.11 
   2   5   1    0.32    0.08 
   2   5   1    0.47    0.09 
  -2  -4  -1    0.28    0.06 
  -2  -4  -1    0.11    0.07 
   2   4   1    0.22    0.06 
  -2  -3  -1   27.52    2.04 
  -2  -3  -1   29.45    1.94 
  -2  -3  -1   26.85    2.19 
  -2  -3  -1   29.31    2.26 
   2   3   1   28.20    2.04 
   2   3   1   27.73    2.18 
   2   3   1   25.83    1.82 
   2   3   1   29.35    2.16 
  -2  -2  -1   38.99    2.62 
  -2  -2  -1   38.77    2.65 
  -2  -2  -1   38.40    2.14 
  -2  -2  -1   37.69    2.33 
  -2  -2  -1   40.44    2.34 
  -2  -2  -1   37.91    2.44 
   2   2   1   37.93    2.62 
   2   2   1   38.92    2.31 
   2   2   1   35.91    2.31 
   2   2   1   37.65    2.49 
   2   2   1   38.13    2.43 
  -2  -1  -1   18.90    1.46 
  -2  -1  -1   19.36    1.31 
  -2  -1  -1   19.53    1.38 
  -2  -1  -1   19.78    1.39 
  -2  -1  -1   19.39    1.36 
   2   1   1   19.95    1.45 
   2   1   1   18.35    1.30 
   2   1   1   19.44    1.23 
   2   1   1   19.92    1.30 
   2   1   1   19.69    1.33 
   2   1   1   19.50    1.53 
  -2   0  -1  146.03    7.72 
  -2   0  -1  154.66    7.86 
  -2   0  -1  154.36    8.08 
  -2   0  -1  155.60    8.27 
   2   0   1  136.18    7.99 
   2   0   1  149.92    8.05 
   2   0   1  160.49    7.54 
   2   0   1  157.36    7.83 
   2   0   1  157.14    8.89 
   2   0   1  165.74    7.72 
  -2   1  -1   22.09    1.52 
  -2   1  -1   21.78    1.33 
  -2   1  -1   19.70    1.40 
  -2   1  -1   22.60    1.55 
  -2   1  -1   19.09    1.14 
   2  -1   1   22.55    1.53 
   2  -1   1   21.03    1.52 
   2  -1   1   20.68    1.50 
   2  -1   1   20.17    1.64 
   2  -1   1   20.44    1.17 
   2  -1   1   22.06    1.33 
  -2   2  -1   43.90    2.80 
  -2   2  -1   50.17    3.10 
  -2   2  -1   47.37    2.85 
  -2   2  -1   42.90    2.58 
  -2   2  -1   45.54    2.72 
   2  -2   1   46.16    2.92 
   2  -2   1   44.70    2.97 
   2  -2   1   44.85    2.87 
   2  -2   1   48.88    3.23 
   2  -2   1   45.44    2.68 
   2  -2   1   40.02    2.70 
  -2   3  -1   29.96    1.94 
  -2   3  -1   31.77    2.25 
  -2   3  -1   33.86    2.25 
  -2   3  -1   36.22    2.51 
  -2   3  -1   31.82    1.93 
   2  -3   1   33.02    2.59 
   2  -3   1   33.84    2.40 
   2  -3   1   29.66    1.97 
   2  -3   1   31.42    2.24 
   2  -3   1   30.69    2.36 
   2  -3   1   32.65    2.22 
   2  -3   1   33.47    2.38 
  -2   4  -1    0.02    0.08 
  -2   4  -1    0.02    0.12 
  -2   4  -1    0.02    0.04 
   2  -4   1    0.11    0.06 
   2  -4   1   -0.02    0.07 
   2  -4   1    0.09    0.05 
   2  -4   1    0.10    0.05 
   2  -4   1    0.43    0.24 
  -2   5  -1    0.12    0.07 
  -2   5  -1    0.76    0.35 
  -2   5  -1    0.16    0.08 
  -2   5  -1    0.01    0.10 
   2  -5   1    0.01    0.08 
   2  -5   1    0.03    0.10 
   2  -5   1    0.04    0.06 
   2  -5   1    0.14    0.06 
   2  -5   1    0.18    0.12 
  -2   6  -1    0.25    0.14 
   2  -6   1    0.08    0.17 
   2  -6   1   -0.14    0.09 
   2  -6   1   -0.11    0.12 
   2  -6   1    0.04    0.08 
   2  -6   1    0.23    0.49 
  -2   7  -1   -0.01    0.15 
   2  -7   1    0.20    0.13 
   2  -7   1    0.43    0.22 
   2  -7   1    0.14    0.11 
  -2   8  -1    0.07    0.18 
  -2   8  -1   -0.01    0.20 
  -2   8  -1   -0.19    0.32 
   2  -8   1    0.45    0.25 
   2  -8   1    0.16    0.17 
   2  -8   1    0.01    0.15 
  -3  -8  -1   -0.02    0.18 
  -3  -8  -1    0.25    0.27 
  -3  -8  -1    0.18    0.24 
   3   8   1   -0.17    0.20 
   3   8   1    0.05    0.16 
  -3  -7  -1    0.12    0.18 
  -3  -7  -1    0.34    0.21 
  -3  -7  -1    0.88    0.90 
   3   7   1    0.28    0.13 
   3   7   1    0.37    0.12 
   3   7   1   -0.13    0.33 
  -3  -6  -1    0.22    0.11 
  -3  -6  -1   -0.03    0.15 
   3   6   1    0.26    0.49 
   3   6   1    0.18    0.10 
   3   6   1    0.31    0.26 
  -3  -5  -1    0.29    0.07 
  -3  -5  -1    0.18    0.12 
  -3  -5  -1    0.19    0.10 
  -3  -5  -1    0.01    0.10 
   3   5   1    0.15    0.07 
  -3  -4  -1    0.05    0.06 
  -3  -4  -1    0.06    0.08 
  -3  -4  -1    0.00    0.06 
   3   4   1    0.09    0.06 
   3   4   1    0.02    0.09 
   3   4   1   -0.02    0.06 
   3   4   1    0.03    0.07 
  -3  -3  -1   -0.02    0.04 
  -3  -3  -1    0.14    0.06 
  -3  -3  -1    0.20    0.06 
  -3  -3  -1    0.00    0.04 
  -3  -3  -1    0.00    0.05 
   3   3   1    0.14    0.07 
   3   3   1    0.03    0.05 
   3   3   1   -0.02    0.05 
  -3  -2  -1    1.26    0.25 
  -3  -2  -1    1.31    0.27 
  -3  -2  -1    1.30    0.40 
  -3  -2  -1    1.01    0.21 
  -3  -2  -1    1.13    0.39 
   3   2   1    1.24    0.32 
   3   2   1    0.97    0.17 
   3   2   1    2.11    0.56 
   3   2   1    0.76    0.17 
  -3  -1  -1   13.37    1.11 
  -3  -1  -1   11.92    1.13 
  -3  -1  -1   12.78    1.12 
   3   1   1   12.31    1.16 
   3   1   1   12.14    1.19 
   3   1   1   13.04    1.02 
   3   1   1   11.84    1.02 
   3   1   1   11.13    0.93 
  -3   0  -1    2.19    0.37 
  -3   0  -1    2.60    0.37 
  -3   0  -1    3.21    0.46 
  -3   0  -1    1.78    0.32 
   3   0   1    2.41    0.37 
   3   0   1    2.24    0.39 
   3   0   1    2.42    0.31 
   3   0   1    2.75    0.31 
   3   0   1    3.15    0.45 
  -3   1  -1   11.82    0.96 
  -3   1  -1   13.33    1.13 
  -3   1  -1   14.49    1.19 
  -3   1  -1   12.04    1.17 
   3  -1   1   14.14    1.19 
   3  -1   1   13.66    1.29 
   3  -1   1   12.57    1.15 
   3  -1   1   12.12    0.78 
  -3   2  -1    1.50    0.32 
  -3   2  -1    0.97    0.15 
  -3   2  -1    1.09    0.19 
  -3   2  -1    1.32    0.22 
  -3   2  -1    0.79    0.16 
   3  -2   1    1.83    0.52 
   3  -2   1    1.33    0.28 
   3  -2   1    0.88    0.17 
  -3   3  -1    0.11    0.06 
  -3   3  -1    0.12    0.06 
  -3   3  -1    0.13    0.08 
  -3   3  -1    0.14    0.08 
   3  -3   1   -0.03    0.10 
   3  -3   1    0.13    0.04 
   3  -3   1    0.01    0.13 
  -3   4  -1    0.13    0.07 
  -3   4  -1   -0.07    0.11 
   3  -4   1   -0.01    0.18 
   3  -4   1    0.00    0.05 
   3  -4   1    0.11    0.05 
   3  -4   1   -0.04    0.07 
   3  -4   1   -0.05    0.09 
   3  -4   1    0.23    0.12 
  -3   5  -1    0.17    0.09 
  -3   5  -1    0.35    0.15 
  -3   5  -1    0.06    0.10 
   3  -5   1    0.31    0.15 
   3  -5   1    0.05    0.47 
   3  -5   1    0.28    0.11 
   3  -5   1    0.12    0.07 
  -3   6  -1    0.17    0.15 
  -3   6  -1    0.19    0.11 
   3  -6   1   -0.03    0.16 
   3  -6   1    0.21    0.10 
   3  -6   1    0.18    0.19 
  -3   7  -1    0.20    0.28 
  -3   7  -1    0.16    0.14 
   3  -7   1   -0.04    0.12 
   3  -7   1   -0.03    0.25 
   3  -7   1    0.11    0.14 
  -3   8  -1    0.04    0.19 
  -3   8  -1    0.01    0.27 
   3  -8   1    0.23    0.18 
   3  -8   1    0.34    0.16 
  -4  -8  -1   -0.01    0.22 
  -4  -8  -1    1.21    0.64 
  -4  -8  -1    0.03    0.29 
   4   8   1   -0.10    0.18 
   4   8   1   -0.16    0.44 
   4   8   1   -0.23    0.24 
  -4  -7  -1    0.03    0.15 
  -4  -7  -1   -0.15    0.22 
  -4  -7  -1   -0.05    0.20 
   4   7   1    0.14    0.35 
   4   7   1   -0.12    0.14 
   4   7   1   -0.15    0.17 
  -4  -6  -1    0.10    0.17 
  -4  -6  -1    0.11    0.18 
  -4  -6  -1    0.26    0.17 
  -4  -6  -1    0.15    0.12 
   4   6   1    0.12    0.10 
   4   6   1    0.34    0.16 
  -4  -5  -1    0.25    0.13 
  -4  -5  -1    0.39    0.12 
  -4  -5  -1    0.41    0.73 
  -4  -5  -1    0.55    0.13 
   4   5   1    0.01    0.54 
  -4  -4  -1    0.11    0.44 
  -4  -3  -1   -0.01    0.06 
  -4  -3  -1    0.06    0.38 
  -4  -3  -1    0.01    0.07 
   4   3   1    0.10    0.09 
   4   3   1    0.01    0.34 
  -4  -2  -1    1.34    0.33 
  -4  -2  -1    1.11    0.33 
  -4  -2  -1    1.31    0.26 
  -4  -2  -1    1.55    0.45 
  -4  -2  -1    2.38    0.70 
   4   2   1    1.97    0.36 
   4   2   1    1.29    0.32 
   4   2   1    1.11    0.40 
   4   2   1    1.17    0.34 
   4   2   1    1.26    0.38 
  -4  -1  -1    0.02    0.04 
  -4  -1  -1    0.07    0.06 
  -4  -1  -1    0.00    0.04 
   4   1   1    0.10    0.04 
   4   1   1    0.06    0.04 
  -4   0  -1    0.10    0.06 
  -4   0  -1   -0.03    0.15 
  -4   0  -1    0.14    0.05 
  -4   0  -1    0.06    0.06 
   4   0   1    0.22    0.07 
   4   0   1    0.13    0.04 
  -4   1  -1    0.08    0.05 
  -4   1  -1    0.06    0.06 
  -4   1  -1    0.00    0.05 
  -4   1  -1    0.07    0.06 
   4  -1   1    0.02    0.05 
   4  -1   1    0.05    0.03 
   4  -1   1    0.01    0.04 
   4  -1   1    0.07    0.05 
  -4   2  -1    1.50    0.27 
  -4   2  -1    1.43    0.25 
   4  -2   1    2.04    0.43 
   4  -2   1    1.58    0.32 
   4  -2   1    1.57    0.34 
  -4   3  -1    0.15    0.08 
  -4   3  -1    0.01    0.09 
   4  -3   1    0.10    0.07 
   4  -3   1   -0.02    0.07 
   4  -3   1    0.03    0.05 
   4  -4   1    0.31    0.15 
   4  -4   1    0.57    0.10 
   4  -4   1    0.47    0.12 
   4  -4   1    0.43    0.10 
  -4   5  -1    0.31    0.11 
  -4   5  -1    0.30    0.20 
  -4   5  -1    0.36    0.15 
   4  -5   1    0.31    0.08 
   4  -5   1    0.16    0.19 
   4  -5   1    0.29    0.09 
  -4   6  -1    0.95    1.15 
  -4   6  -1    0.16    0.12 
  -4   6  -1    0.06    0.15 
   4  -6   1   -0.02    0.23 
   4  -6   1   -0.03    0.12 
   4  -6   1    0.23    0.20 
  -4   7  -1   -0.01    0.20 
   4  -7   1   -0.04    0.13 
   4  -7   1    0.27    0.26 
   4  -7   1    0.12    0.14 
  -4   8  -1    0.62    0.27 
   4  -8   1    0.00    0.17 
   4  -8   1   -0.18    0.17 
  -5  -7  -1   -0.05    0.24 
  -5  -7  -1   -0.34    0.25 
   5   7   1    0.00    0.45 
   5   7   1   -0.01    0.16 
  -5  -6  -1    0.12    0.13 
  -5  -6  -1    0.07    0.20 
  -5  -6  -1    0.12    0.20 
  -5  -6  -1    0.04    0.19 
   5   6   1   -0.18    0.14 
   5   6   1    0.34    0.12 
   5   6   1    0.23    0.15 
  -5  -5  -1    1.82    0.29 
  -5  -5  -1    1.51    0.30 
  -5  -3  -1    4.14    0.65 
  -5  -3  -1    3.45    0.64 
   5   3   1    4.75    0.72 
  -5  -2  -1    0.44    0.16 
  -5  -2  -1    0.42    0.14 
  -5  -2  -1    0.85    0.38 
  -5  -2  -1    1.59    0.60 
   5   2   1    0.85    0.31 
   5   2   1    0.94    0.33 
   5   2   1    0.76    0.18 
  -5  -1  -1    7.97    0.93 
  -5  -1  -1    8.36    1.03 
  -5  -1  -1    7.98    0.99 
  -5  -1  -1    7.67    0.94 
   5   1   1    7.62    0.95 
   5   1   1    7.33    0.99 
   5   1   1    9.74    1.13 
   5   1   1    8.14    0.81 
   5   1   1    7.80    0.84 
  -5   0  -1    1.26    0.29 
  -5   0  -1    0.74    0.16 
  -5   0  -1    0.88    0.20 
  -5   0  -1    1.80    0.62 
   5   0   1    1.50    0.47 
   5   0   1    1.41    0.24 
   5   0   1    1.09    0.22 
   5   0   1    1.48    0.28 
  -5   1  -1    7.47    0.83 
  -5   1  -1    8.39    1.04 
  -5   1  -1    8.10    1.03 
   5  -1   1    9.65    1.15 
   5  -1   1    8.70    0.89 
   5  -1   1   10.38    1.17 
   5  -1   1    8.90    1.05 
  -5   2  -1    0.84    0.25 
  -5   2  -1    1.08    0.22 
   5  -2   1    0.92    0.29 
   5  -2   1    1.16    0.25 
   5  -2   1    1.52    0.50 
  -5   3  -1    3.32    0.55 
  -5   3  -1    4.14    0.59 
  -5   3  -1    2.74    0.52 
   5  -3   1    5.02    0.82 
   5  -3   1    4.51    0.80 
   5  -3   1    5.32    0.76 
  -5   4  -1    0.22    0.14 
   5  -4   1    0.01    0.11 
   5  -4   1    0.00    0.12 
   5  -4   1    0.05    0.07 
   5  -4   1   -0.01    0.07 
   5  -5   1    1.26    0.27 
   5  -5   1    1.00    0.18 
  -5   6  -1    0.43    0.18 
  -5   6  -1    0.77    0.30 
  -5   6  -1    0.21    0.14 
  -5   6  -1    0.44    0.19 
   5  -6   1   -0.03    0.43 
   5  -6   1    0.28    0.14 
   5  -6   1    0.27    0.21 
  -5   7  -1    0.11    0.22 
  -5   7  -1   -0.40    0.39 
   5  -7   1    0.04    0.15 
   5  -7   1   -0.13    0.15 
  -6  -7  -1    0.35    0.28 
   6   6   1    0.96    0.22 
  -6  -5  -1    2.52    0.40 
   6   5   1    2.43    0.39 
  -6  -4  -1    0.55    0.15 
  -6  -3  -1    3.11    0.50 
  -6  -3  -1    2.82    0.37 
   6   3   1    3.28    0.56 
  -6  -2  -1    3.95    0.57 
  -6  -2  -1    4.57    0.78 
   6   2   1    4.29    0.92 
   6   2   1    3.93    0.57 
  -6  -1  -1    3.00    0.56 
  -6  -1  -1    1.81    0.39 
  -6  -1  -1    2.30    0.53 
   6   1   1    2.25    0.61 
  -6   0  -1    0.36    0.10 
  -6   0  -1    0.46    0.14 
  -6   1  -1    4.20    0.70 
  -6   1  -1    5.70    0.81 
  -6   1  -1    5.10    0.77 
   6  -1   1    4.51    0.71 
   6  -1   1    3.80    0.72 
   6  -1   1    5.60    0.82 
  -6   2  -1   10.08    1.17 
  -6   2  -1    8.65    1.18 
  -6   2  -1    9.00    1.18 
   6  -2   1    8.45    1.22 
   6  -2   1   10.89    1.27 
   6  -2   1   10.52    1.31 
  -6   3  -1    3.09    0.38 
  -6   3  -1    2.84    0.43 
  -6   3  -1    3.76    0.45 
   6  -3   1    3.52    0.58 
   6  -3   1    2.60    0.53 
   6  -3   1    3.84    0.62 
  -6   4  -1    0.36    0.14 
  -6   4  -1    0.16    0.11 
  -6   4  -1    0.17    0.16 
   6  -4   1   -0.02    0.14 
   6  -4   1    0.25    0.09 
  -6   5  -1    2.46    0.39 
  -6   5  -1    3.39    0.34 
   6  -5   1    3.78    0.48 
   6  -5   1    2.43    0.46 
  -6   6  -1    0.17    0.20 
  -6   6  -1    0.51    0.22 
  -6   6  -1    0.83    0.39 
   6  -6   1    0.39    0.81 
   6  -6   1    0.44    0.16 
   6  -6   1    0.37    0.28 
  -6   7  -1    2.34    2.69 
  -6   7  -1    0.19    0.26 
   6  -7   1   -0.05    0.36 
  -7  -6  -1    0.25    0.24 
   7   6   1    0.34    0.43 
  -7  -5  -1    0.01    0.16 
  -7  -5  -1    0.31    0.21 
   7   5   1    0.41    0.21 
  -7  -4  -1    0.22    0.18 
  -7  -4  -1    0.40    0.13 
   7   4   1    0.44    0.12 
  -7  -3  -1    0.22    0.17 
  -7  -3  -1    0.57    0.12 
  -7  -2  -1    0.44    0.08 
  -7  -2  -1    0.14    0.15 
  -7  -1  -1    0.10    0.12 
  -7  -1  -1    0.01    0.11 
   7   1   1    0.40    0.16 
   7   1   1    0.19    0.15 
  -7   0  -1    0.77    0.15 
   7   0   1    0.43    0.12 
   7   0   1    0.50    0.10 
   7   0   1    0.55    0.17 
  -7   1  -1    0.41    0.15 
  -7   1  -1    0.69    0.13 
   7  -1   1    0.84    0.18 
   7  -1   1    0.58    0.18 
   7  -1   1    0.96    0.16 
  -7   2  -1    0.11    0.14 
   7  -2   1    0.75    0.20 
  -7   3  -1    0.55    0.18 
  -7   3  -1    0.28    0.12 
  -7   3  -1    0.34    0.16 
  -7   3  -1    0.24    0.13 
   7  -3   1    0.38    0.14 
  -7   4  -1    0.42    0.19 
  -7   4  -1    0.10    0.14 
  -7   4  -1    0.08    0.18 
   7  -4   1    0.22    0.16 
   7  -4   1    0.28    0.13 
   7  -4   1    0.50    0.23 
  -7   5  -1    0.27    0.22 
  -7   5  -1    0.38    0.20 
   7  -5   1    0.24    0.13 
  -7   6  -1    0.20    0.41 
  -7   6  -1   -0.16    0.24 
  -7   6  -1    0.58    0.30 
   7  -6   1    0.01    0.16 
   7  -6   1    0.42    0.35 
  -8  -5  -1   -0.01    0.20 
  -8  -5  -1    0.16    0.28 
   8   5   1   -0.22    0.17 
   8   5   1   -0.17    0.41 
  -8  -4  -1    0.17    0.17 
  -8  -4  -1   -0.24    0.22 
   8   4   1    0.28    0.15 
   8   4   1   -0.44    0.36 
  -8  -3  -1   -0.08    0.19 
  -8  -3  -1    0.31    0.24 
   8   3   1    0.11    0.13 
  -8  -2  -1    0.11    0.14 
  -8  -2  -1    0.02    0.19 
   8   2   1    0.34    0.13 
   8   2   1    0.25    0.23 
  -8  -1  -1    0.20    0.13 
  -8  -1  -1   -0.08    0.14 
   8   1   1    0.26    0.11 
   8   1   1   -0.05    0.21 
  -8   0  -1    0.34    0.17 
  -8   0  -1    0.47    0.15 
   8   0   1    0.12    0.11 
   8   0   1    0.28    0.23 
  -8   1  -1    0.24    0.17 
  -8   1  -1    0.45    0.16 
  -8   1  -1    0.36    0.16 
   8  -1   1    0.34    0.14 
  -8   2  -1   -0.06    0.14 
  -8   2  -1    0.20    0.17 
  -8   2  -1    0.04    0.17 
   8  -2   1    0.21    0.15 
   8  -2   1    0.14    0.12 
   8  -2   1   -0.23    0.24 
  -8   3  -1    0.01    0.19 
  -8   3  -1    0.48    0.22 
  -8   3  -1    0.37    0.15 
   8  -3   1    0.03    0.19 
   8  -3   1    0.86    0.28 
  -8   4  -1    0.34    0.23 
  -8   4  -1    0.09    0.21 
   8  -4   1    0.12    0.14 
  -8   5  -1    0.45    0.25 
  -8   5  -1   -0.09    0.25 
   8  -5   1    0.06    0.16 
  -9  -4  -1    0.55    0.27 
  -9  -3  -1    0.85    0.27 
   9   3   1    1.00    0.37 
   9   3   1    0.22    0.16 
  -9  -2  -1    0.45    0.17 
   9   2   1    0.47    0.32 
   9   2   1    0.19    0.16 
  -9  -1  -1    0.18    0.16 
  -9  -1  -1   -0.17    0.18 
   9   1   1    0.06    0.13 
   9   1   1    0.56    0.30 
  -9   0  -1    0.66    0.17 
  -9   1  -1    0.11    0.20 
   9  -1   1    0.17    0.14 
  -9   2  -1    0.49    0.21 
  -9   2  -1    0.43    0.22 
   9  -2   1    0.58    0.15 
   9  -2   1    0.74    0.19 
   9  -2   1    0.39    0.32 
   9  -3   1    1.27    0.58 
   9  -3   1    0.73    0.35 
   9  -3   1    0.70    0.22 
 -10  -1  -1    0.07    0.19 
  10   1   1    0.03    0.16 
 -10   0  -1    0.35    0.20 
 -10   0  -1   -0.17    0.24 
  10   0   1    0.02    0.37 
  10   0   1    0.08    0.18 
 -10   1  -1    0.28    0.21 
 -10   1  -1   -0.21    0.25 
  10  -1   1    0.04    0.17 
  10  -1   1    0.64    0.36 
 -11   0   2    0.25    0.22 
 -11   0   2   -0.23    0.23 
  10  -3  -2    0.07    0.16 
 -10   3   2   -0.11    0.23 
  10  -2  -2    0.06    0.14 
 -10   2   2   -0.19    0.21 
 -10   2   2    0.16    0.19 
 -10   1   2    0.45    0.20 
 -10   1   2    0.22    0.19 
 -10   0   2    0.42    0.18 
 -10   0   2    0.18    0.18 
  10   1  -2    0.31    0.14 
  10   2  -2    0.10    0.14 
 -10  -2   2    0.07    0.18 
  10   3  -2   -0.16    0.18 
 -10  -3   2   -0.01    0.19 
   9  -5  -2   -0.01    0.16 
   9  -5  -2    0.51    0.35 
   9  -5  -2    0.03    0.22 
  -9   5   2   -0.11    0.50 
  -9   5   2   -0.27    0.25 
   9  -4  -2    0.00    0.79 
   9  -4  -2   -0.14    0.19 
  -9   4   2    0.03    0.23 
   9  -3  -2    0.37    0.16 
   9  -3  -2    0.70    0.27 
  -9   3   2    0.09    0.19 
  -9   3   2    0.27    0.20 
   9  -2  -2    0.20    0.15 
  -9   2   2    0.48    0.17 
  -9   2   2    0.53    0.15 
   9  -1  -2    0.09    0.10 
   9  -1  -2   -0.24    0.22 
  -9   1   2    0.12    0.15 
  -9   1   2    0.19    0.15 
   9   0  -2    2.20    0.48 
  -9   0   2    1.76    0.19 
  -9   0   2    2.10    0.32 
  -9  -1   2    0.45    0.15 
   9   2  -2    0.94    0.15 
  -9  -2   2    0.54    0.15 
   9   3  -2    0.63    0.14 
  -9  -3   2    0.54    0.16 
  -9  -4   2   -0.21    0.27 
  -9  -4   2    0.00    0.18 
  -9  -5   2    0.21    0.30 
  -9  -5   2    0.42    0.35 
   8  -6  -2    0.04    0.18 
   8  -6  -2    0.49    0.32 
   8  -6  -2   -0.14    0.21 
  -8   6   2    0.61    0.27 
  -8   6   2    0.25    0.45 
  -8   6   2    0.24    0.27 
   8  -5  -2    0.28    0.13 
   8  -5  -2    0.43    0.29 
   8  -5  -2    0.15    0.16 
  -8   5   2    0.07    0.22 
  -8   5   2    0.50    0.43 
  -8   5   2    0.42    0.21 
   8  -4  -2    1.55    0.32 
   8  -4  -2    2.21    0.73 
  -8   4   2    1.39    0.21 
  -8   4   2    1.63    0.33 
   8  -3  -2    1.62    0.33 
   8  -3  -2    1.93    0.32 
  -8   3   2    1.74    0.30 
  -8   3   2    2.21    0.27 
   8  -2  -2    0.65    0.17 
  -8   2   2    0.41    0.14 
  -8   2   2    0.13    0.14 
   8  -1  -2    0.36    0.12 
  -8   1   2    0.59    0.12 
   8   0  -2    1.70    0.35 
   8   0  -2    1.37    0.23 
  -8   0   2    2.12    0.26 
   8   1  -2   -0.02    0.11 
  -8  -1   2    0.19    0.11 
  -8  -2   2    0.33    0.15 
  -8  -2   2    0.33    0.12 
   8   3  -2    3.34    0.47 
  -8  -3   2    2.48    0.39 
  -8  -3   2    2.24    0.36 
  -8  -4   2    0.75    0.15 
   8   5  -2    0.28    0.15 
   8   5  -2    0.09    0.19 
  -8  -5   2    0.08    0.19 
  -8  -5   2   -0.26    0.23 
   8   6  -2    0.01    0.17 
  -8  -6   2    0.25    0.27 
   7  -7  -2    1.10    0.37 
  -7   7   2    0.95    0.26 
   7  -6  -2   -0.13    0.30 
   7  -6  -2    0.43    0.16 
  -7   6   2   -0.01    0.26 
  -7   6   2    0.64    2.06 
   7  -5  -2    0.38    0.13 
   7  -5  -2    0.35    0.12 
  -7   5   2    1.07    0.38 
  -7   5   2    0.22    0.13 
  -7   5   2    0.48    0.17 
   7  -4  -2    0.72    0.20 
   7  -4  -2    0.38    0.10 
  -7   4   2    0.11    0.16 
   7  -3  -2    0.44    0.15 
   7  -3  -2    0.58    0.10 
   7  -3  -2    0.63    0.15 
  -7   3   2    0.58    0.22 
  -7   3   2    0.73    0.17 
   7  -2  -2    0.12    0.12 
   7  -2  -2    0.21    0.07 
  -7   2   2    0.17    0.11 
  -7   2   2    0.32    0.13 
  -7   2   2    0.18    0.10 
   7  -1  -2    0.21    0.09 
   7  -1  -2    0.11    0.08 
  -7   1   2    0.05    0.11 
  -7   1   2    0.19    0.10 
   7   0  -2    0.70    0.12 
  -7   0   2    1.00    0.17 
   7   1  -2    0.28    0.09 
  -7  -1   2    0.17    0.09 
  -7  -1   2    0.25    0.10 
   7   2  -2    0.39    0.11 
  -7  -2   2    0.54    0.11 
   7   3  -2    0.57    0.17 
   7   3  -2    0.97    0.17 
  -7  -3   2    0.58    0.16 
  -7  -3   2    0.65    0.14 
   7   4  -2    0.44    0.13 
  -7  -4   2    0.40    0.13 
  -7  -5   2    0.90    0.19 
   7   6  -2    0.52    0.16 
  -7  -6   2    0.47    0.22 
  -7  -6   2   -0.17    0.23 
   7   7  -2   -0.18    0.17 
  -7  -7   2    0.13    0.28 
   6  -7  -2   -0.19    0.16 
   6  -7  -2   -0.31    0.29 
   6  -7  -2    0.12    0.15 
  -6   7   2   -0.11    0.23 
   6  -6  -2    0.12    0.25 
   6  -6  -2   -0.09    0.14 
   6  -6  -2   -0.36    0.26 
  -6   6   2    0.25    0.14 
  -6   6   2    0.11    0.22 
  -6   6   2   -0.23    0.39 
  -6   6   2   -0.13    0.18 
   6  -5  -2   -0.12    0.20 
   6  -5  -2    0.19    0.10 
   6  -5  -2    0.09    0.10 
   6  -5  -2    0.40    0.17 
  -6   5   2    0.28    0.26 
  -6   5   2    0.11    0.12 
  -6   5   2    0.17    0.13 
   6  -4  -2    0.13    0.08 
   6  -4  -2    0.07    0.09 
   6  -4  -2    0.21    0.14 
  -6   4   2    0.05    0.10 
  -6   4   2    0.24    0.11 
   6  -3  -2    0.15    0.06 
   6  -3  -2   -0.06    0.07 
  -6   3   2   -0.03    0.11 
  -6   3   2    0.00    0.08 
  -6   3   2    0.04    0.08 
   6  -2  -2    0.13    0.06 
   6  -2  -2    0.12    0.07 
   6  -2  -2    0.17    0.09 
  -6   2   2    0.09    0.08 
  -6   2   2    0.26    0.10 
  -6   2   2    0.00    0.07 
   6  -1  -2    0.08    0.07 
   6  -1  -2    0.29    0.12 
  -6   1   2    0.19    0.07 
  -6   1   2   -0.03    0.09 
  -6   1   2   -0.02    0.08 
  -6   1   2    0.11    0.08 
   6   0  -2    3.35    0.56 
   6   0  -2    2.59    0.50 
   6   0  -2    2.97    0.42 
  -6   0   2    2.64    0.47 
  -6   0   2    2.23    0.40 
  -6   0   2    2.81    0.77 
  -6   0   2    3.07    0.55 
   6   1  -2    0.20    0.06 
   6   1  -2    0.17    0.07 
   6   1  -2    0.21    0.05 
  -6  -1   2    0.06    0.07 
   6   2  -2    0.11    0.08 
  -6  -2   2    0.24    0.09 
  -6  -3   2    0.30    0.12 
   6   4  -2    0.07    0.10 
   6   4  -2    0.18    0.56 
   6   4  -2    0.36    0.20 
  -6  -4   2    0.12    0.11 
  -6  -4   2    0.20    0.11 
   6   6  -2    0.41    0.16 
  -6  -6   2    0.18    0.19 
  -6  -6   2    0.13    0.20 
   6   7  -2    0.03    0.17 
   6   7  -2    0.79    0.22 
  -6  -7   2    0.35    0.25 
  -6  -7   2    0.13    0.24 
   5  -8  -2    0.05    0.18 
   5  -8  -2   -0.13    0.20 
  -5   8   2    0.39    0.46 
  -5   8   2    0.34    0.25 
   5  -7  -2   -0.04    0.14 
   5  -7  -2    0.38    0.16 
  -5   7   2   -0.05    0.20 
   5  -6  -2    0.15    0.11 
   5  -6  -2    0.19    0.19 
  -5   6   2    0.16    0.13 
  -5   6   2    0.23    0.14 
  -5   6   2    0.06    0.17 
   5  -5  -2    2.12    0.36 
   5  -5  -2    2.20    0.39 
   5  -5  -2    1.99    0.38 
  -5   5   2    2.02    0.24 
  -5   5   2    2.68    0.35 
  -5   5   2    1.86    1.41 
   5  -4  -2    3.25    0.60 
   5  -4  -2    3.69    0.64 
   5  -4  -2    2.91    0.54 
  -5   4   2    3.65    0.48 
  -5   4   2    3.95    0.43 
  -5   4   2    4.84    0.73 
   5  -3  -2    0.00    0.05 
  -5   3   2    0.18    0.08 
  -5   3   2   -0.07    0.09 
  -5   3   2    0.17    0.07 
  -5   3   2    0.00    0.06 
   5  -2  -2    2.13    0.44 
   5  -2  -2    1.68    0.47 
   5  -2  -2    1.74    0.54 
   5  -2  -2    2.50    0.45 
  -5   2   2    2.11    0.42 
  -5   2   2    1.73    0.30 
  -5   2   2    1.99    0.36 
   5  -1  -2    0.76    0.15 
   5  -1  -2    0.96    0.23 
   5  -1  -2    1.11    0.30 
   5  -1  -2    1.16    0.33 
   5  -1  -2    0.83    0.25 
  -5   1   2    0.49    0.19 
  -5   1   2    1.45    0.43 
  -5   1   2    0.93    0.42 
  -5   1   2    0.59    0.12 
   5   0  -2   12.77    1.26 
   5   0  -2   15.46    1.42 
   5   0  -2   12.80    1.13 
   5   0  -2   14.29    1.06 
   5   0  -2   15.70    1.33 
  -5   0   2   15.75    1.28 
  -5   0   2   13.68    1.29 
  -5   0   2   13.97    1.25 
  -5   0   2   14.53    1.33 
  -5   0   2   12.23    1.20 
   5   1  -2    1.12    0.23 
   5   1  -2    1.58    0.24 
   5   1  -2    1.23    0.23 
   5   1  -2    1.02    0.31 
   5   1  -2    0.93    0.29 
  -5  -1   2    0.72    0.26 
  -5  -1   2    1.15    0.33 
  -5  -1   2    1.11    0.36 
  -5  -1   2    0.96    0.33 
   5   2  -2    1.34    0.24 
   5   2  -2    1.26    0.27 
   5   2  -2    1.93    0.50 
   5   2  -2    2.02    0.44 
  -5  -2   2    1.38    0.32 
  -5  -2   2    2.08    0.61 
  -5  -2   2    1.37    0.31 
  -5  -2   2    1.18    0.24 
   5   3  -2    0.09    0.07 
   5   3  -2    0.09    0.07 
   5   3  -2    0.07    0.06 
  -5  -3   2    0.11    0.07 
  -5  -3   2   -0.01    0.09 
  -5  -3   2    0.15    0.08 
  -5  -3   2    0.00    0.07 
   5   4  -2    2.85    0.53 
   5   4  -2    2.04    0.62 
  -5  -4   2    3.22    0.56 
  -5  -4   2    3.29    0.53 
  -5  -4   2    3.24    0.59 
   5   5  -2    2.24    0.36 
   5   5  -2    3.25    0.41 
   5   5  -2    2.55    0.24 
  -5  -5   2    3.49    0.55 
   5   6  -2    0.27    0.21 
   5   6  -2    0.29    0.12 
   5   6  -2    0.05    0.15 
  -5  -6   2    0.07    0.17 
  -5  -6   2    0.07    0.17 
  -5  -6   2    0.29    0.12 
  -5  -6   2   -0.06    0.17 
   5   7  -2    0.35    0.16 
  -5  -7   2    0.24    0.24 
  -5  -7   2    0.13    0.24 
   5   8  -2   -0.29    0.22 
   5   8  -2   -0.09    0.17 
  -5  -8   2   -0.15    0.31 
  -5  -8   2    0.00    0.22 
   4  -8  -2    0.63    0.16 
  -4   8   2    1.04    0.36 
  -4   8   2    1.20    0.28 
   4  -7  -2    0.14    0.14 
   4  -7  -2    0.22    0.60 
  -4   7   2    0.03    0.29 
  -4   7   2    0.44    0.22 
   4  -6  -2    1.90    0.41 
   4  -6  -2    2.11    0.35 
   4  -6  -2    1.59    0.28 
   4  -6  -2    2.61    0.42 
  -4   6   2    2.44    0.48 
   4  -5  -2    0.35    0.13 
   4  -5  -2    0.00    0.11 
   4  -5  -2    0.21    0.08 
  -4   5   2    0.22    0.08 
  -4   5   2    0.44    0.19 
   4  -4  -2    5.61    0.79 
   4  -4  -2    8.18    3.14 
   4  -4  -2    5.46    0.85 
  -4   4   2    4.05    0.72 
  -4   4   2    6.34    0.77 
  -4   4   2    5.48    0.80 
  -4   4   2    5.81    0.71 
   4  -3  -2    3.71    0.57 
   4  -3  -2    4.71    0.69 
   4  -3  -2    4.27    0.61 
   4  -3  -2    2.74    0.52 
   4  -3  -2    3.40    0.58 
  -4   3   2    2.84    0.44 
  -4   3   2    3.59    0.42 
  -4   3   2    2.87    0.54 
  -4   3   2    3.98    0.55 
  -4   3   2    3.46    0.61 
   4  -2  -2   53.42    3.26 
   4  -2  -2   47.26    3.31 
   4  -2  -2   52.49    3.40 
   4  -2  -2   50.99    3.58 
   4  -2  -2   53.97    3.33 
  -4   2   2   53.00    2.75 
  -4   2   2   46.75    2.97 
  -4   2   2   49.56    3.41 
  -4   2   2   53.47    3.30 
  -4   2   2   53.80    3.24 
   4  -1  -2   17.68    1.52 
   4  -1  -2   18.98    1.47 
   4  -1  -2   18.69    1.51 
   4  -1  -2   19.09    1.15 
   4  -1  -2   17.14    1.34 
  -4   1   2   18.22    1.49 
  -4   1   2   21.04    1.45 
  -4   1   2   19.54    1.55 
  -4   1   2   16.71    1.24 
  -4   1   2   19.47    1.22 
  -4   1   2   17.64    1.41 
   4   0  -2   27.03    1.93 
   4   0  -2   26.99    1.90 
   4   0  -2   27.84    1.70 
   4   0  -2   28.04    2.00 
   4   0  -2   24.50    1.81 
  -4   0   2   25.72    1.81 
  -4   0   2   27.49    1.91 
  -4   0   2   25.65    1.92 
  -4   0   2   27.33    1.82 
  -4   0   2   27.45    1.91 
  -4   0   2   26.75    1.82 
   4   1  -2   16.80    1.43 
   4   1  -2   16.73    1.44 
   4   1  -2   16.13    1.46 
   4   1  -2   18.13    1.55 
  -4  -1   2   17.57    1.49 
  -4  -1   2   18.23    1.43 
  -4  -1   2   19.68    1.34 
  -4  -1   2   17.80    1.51 
  -4  -1   2   15.92    1.34 
   4   2  -2   49.51    3.34 
   4   2  -2   47.46    3.19 
   4   2  -2   50.05    3.31 
   4   2  -2   46.25    3.12 
  -4  -2   2   53.25    3.53 
  -4  -2   2   51.23    3.00 
  -4  -2   2   51.68    3.38 
  -4  -2   2   51.55    3.11 
  -4  -2   2   49.81    3.23 
   4   3  -2    3.58    0.53 
   4   3  -2    3.80    0.59 
   4   3  -2    3.00    0.51 
  -4  -3   2    3.64    0.52 
  -4  -3   2    3.59    0.66 
  -4  -3   2    2.78    0.49 
  -4  -3   2    2.98    0.39 
  -4  -3   2    4.18    0.69 
   4   4  -2    6.34    0.89 
   4   4  -2    6.49    0.79 
   4   4  -2    5.42    0.77 
  -4  -4   2    4.82    0.70 
  -4  -4   2    7.22    0.93 
  -4  -4   2    4.81    0.68 
  -4  -4   2    6.49    0.98 
   4   5  -2    0.51    0.11 
  -4  -5   2    0.28    0.12 
  -4  -5   2    0.20    0.12 
  -4  -5   2    0.22    0.12 
  -4  -5   2    0.35    0.09 
   4   6  -2    2.78    0.42 
   4   6  -2    2.50    0.45 
  -4  -6   2    2.85    0.27 
  -4  -6   2    3.33    0.47 
   4   7  -2   -0.36    0.29 
   4   7  -2    0.14    0.16 
  -4  -7   2    0.42    0.23 
  -4  -7   2   -0.03    0.22 
  -4  -7   2    0.06    0.20 
  -4  -7   2    0.36    0.15 
   4   8  -2    0.06    0.20 
   4   8  -2    0.37    0.16 
  -4  -8   2    0.07    0.28 
  -4  -8   2   -0.14    0.26 
  -4  -8   2    0.04    0.18 
   3  -8  -2    0.82    0.29 
  -3   8   2    0.98    0.32 
  -3   8   2    0.26    0.21 
  -3   8   2    0.47    0.19 
   3  -7  -2    0.04    0.12 
   3  -7  -2    0.01    0.21 
   3  -7  -2   -0.02    0.21 
  -3   7   2    0.29    0.17 
  -3   7   2    0.63    0.26 
   3  -6  -2    0.88    0.12 
  -3   6   2    0.53    0.31 
  -3   5   2    0.32    0.14 
   3  -4  -2   -0.07    0.47 
   3  -4  -2    0.15    0.09 
   3  -4  -2    0.16    0.05 
   3  -3  -2   -0.03    0.05 
   3  -3  -2    0.03    0.05 
   3  -3  -2    0.00    0.04 
   3  -3  -2    0.00    0.03 
   3  -3  -2    0.19    0.07 
  -3   3   2    0.06    0.06 
  -3   3   2    0.00    0.03 
  -3   3   2    0.13    0.05 
  -3   3   2   -0.06    0.09 
   3  -2  -2  126.08    7.53 
   3  -2  -2  108.32    6.81 
   3  -2  -2  128.59    7.19 
   3  -2  -2  125.87    6.92 
  -3   2   2  133.17    7.08 
  -3   2   2  115.32    6.27 
  -3   2   2  131.02    6.80 
  -3   2   2  131.66    6.69 
  -3   2   2  129.87    6.39 
   3  -1  -2    1.31    0.24 
   3  -1  -2    1.06    0.21 
   3  -1  -2    1.42    0.25 
  -3   1   2    1.31    0.22 
  -3   1   2    1.03    0.17 
   3   0  -2   12.67    1.02 
   3   0  -2   13.28    1.06 
   3   0  -2   12.71    0.91 
   3   0  -2   10.64    0.92 
   3   0  -2   11.28    0.97 
  -3   0   2   10.42    0.95 
  -3   0   2   12.46    0.94 
  -3   0   2   12.40    0.98 
  -3   0   2   13.68    0.94 
  -3   0   2   13.34    1.04 
  -3   0   2   11.98    1.00 
   3   1  -2    1.95    0.30 
   3   1  -2    1.92    0.32 
   3   1  -2    2.28    0.33 
   3   1  -2    2.02    0.26 
  -3  -1   2    1.74    0.28 
  -3  -1   2    1.58    0.28 
  -3  -1   2    1.72    0.30 
   3   2  -2  120.57    7.11 
   3   2  -2  115.58    6.78 
   3   2  -2  126.61    7.31 
  -3  -2   2  126.32    7.20 
  -3  -2   2  126.57    6.30 
  -3  -2   2  124.76    6.61 
  -3  -2   2  120.37    6.58 
  -3  -2   2  124.86    7.17 
   3   3  -2   -0.01    0.05 
   3   3  -2    0.02    0.05 
  -3  -3   2    0.01    0.04 
  -3  -3   2    0.05    0.06 
  -3  -3   2    0.00    0.05 
  -3  -3   2    0.05    0.06 
   3   4  -2    0.18    0.06 
  -3  -4   2    0.20    0.08 
  -3  -4   2    0.16    0.08 
   3   5  -2    0.21    0.08 
  -3  -5   2    0.08    0.12 
  -3  -5   2    0.22    0.10 
  -3  -5   2    0.04    0.11 
  -3  -5   2    0.17    0.08 
   3   6  -2    0.92    0.18 
   3   6  -2    0.26    0.42 
  -3  -6   2    0.85    0.13 
  -3  -6   2    0.60    0.15 
   3   7  -2    0.32    0.13 
   3   7  -2    0.59    0.17 
  -3  -7   2    0.27    0.18 
  -3  -7   2   -0.08    0.20 
  -3  -7   2    0.08    0.18 
  -3  -7   2    0.25    0.13 
   3   8  -2    0.39    0.18 
  -3  -8   2   -0.34    0.26 
  -3  -8   2   -0.12    0.27 
  -3  -8   2    0.04    0.19 
   2  -9  -2   -0.20    0.19 
  -2   9   2    0.06    0.21 
   2  -8  -2    0.39    0.28 
   2  -8  -2   -0.03    0.16 
   2  -8  -2   -0.22    0.17 
  -2   8   2    0.07    0.17 
  -2   8   2    0.05    0.23 
  -2   8   2    0.51    0.30 
   2  -7  -2   -0.18    0.20 
   2  -7  -2    0.13    0.11 
   2  -7  -2    0.20    0.20 
  -2   7   2    0.59    0.23 
  -2   7   2    0.21    0.14 
   2  -6  -2    0.86    0.18 
   2  -5  -2    0.13    0.11 
   2  -5  -2    0.08    0.09 
  -2   5   2    0.19    0.07 
  -2   5   2    0.08    0.10 
  -2   5   2    0.13    0.12 
   2  -4  -2    0.13    0.40 
  -2   4   2    0.23    0.07 
   2  -3  -2    1.30    0.37 
   2  -3  -2    1.29    0.28 
   2  -3  -2    1.38    0.31 
   2  -3  -2    0.95    0.21 
   2  -3  -2    1.21    0.26 
   2  -3  -2    1.28    0.25 
  -2   3   2    0.98    0.23 
  -2   3   2    1.12    0.22 
  -2   3   2    0.70    0.32 
   2  -2  -2    3.35    0.45 
   2  -2  -2    2.88    0.40 
   2  -2  -2    2.93    0.42 
   2  -2  -2    2.70    0.30 
   2  -2  -2    3.22    0.44 
   2  -2  -2    2.45    0.40 
  -2   2   2    3.19    0.40 
  -2   2   2    2.67    0.27 
  -2   2   2    2.87    0.41 
  -2   2   2    3.56    0.48 
   2  -1  -2    0.12    0.03 
   2  -1  -2    0.28    0.19 
  -2   1   2    0.24    0.08 
  -2   1   2    0.11    0.04 
  -2   1   2    0.26    0.13 
  -2   1   2    0.11    0.03 
   2   0  -2   28.44    1.80 
   2   0  -2   31.02    1.95 
   2   0  -2   27.84    1.82 
   2   0  -2   28.98    1.65 
  -2   0   2   33.48    1.87 
  -2   0   2   29.67    1.69 
  -2   0   2   29.52    1.88 
  -2   0   2   30.04    1.76 
  -2   0   2   31.67    1.67 
  -2   0   2   30.98    1.82 
  -2   0   2   30.44    1.83 
   2   1  -2    0.19    0.04 
   2   1  -2    0.16    0.11 
  -2  -1   2    0.51    0.24 
  -2  -1   2    0.26    0.13 
  -2  -1   2    0.26    0.04 
   2   2  -2    3.12    0.43 
   2   2  -2    3.06    0.38 
   2   2  -2    3.37    0.47 
   2   2  -2    3.42    0.48 
  -2  -2   2    2.66    0.40 
  -2  -2   2    3.30    0.38 
  -2  -2   2    2.75    0.31 
  -2  -2   2    3.66    0.51 
  -2  -2   2    3.49    0.49 
  -2  -2   2    3.99    0.58 
  -2  -2   2    3.01    0.40 
   2   3  -2    0.79    0.18 
   2   3  -2    1.53    0.30 
   2   3  -2    1.04    0.24 
   2   3  -2    1.00    0.20 
  -2  -3   2    1.36    0.48 
  -2  -3   2    0.60    0.22 
  -2  -3   2    0.83    0.13 
  -2  -3   2    1.07    0.23 
   2   4  -2   -0.08    0.06 
   2   4  -2    0.03    0.07 
   2   4  -2    0.02    0.06 
  -2  -4   2    0.08    0.07 
  -2  -4   2   -0.02    0.08 
  -2  -4   2    0.04    0.05 
  -2  -4   2    0.02    0.05 
   2   5  -2    0.14    0.07 
  -2  -5   2    0.08    0.10 
  -2  -5   2    0.25    0.10 
  -2  -5   2    0.00    0.06 
  -2  -5   2    0.12    0.08 
   2   6  -2    0.35    0.09 
   2   6  -2    0.22    0.13 
  -2  -6   2    0.31    0.09 
  -2  -6   2    0.10    0.13 
   2   7  -2    0.22    0.13 
  -2  -7   2    0.11    0.12 
  -2  -7   2    0.08    0.18 
  -2  -7   2   -0.19    0.17 
   2   8  -2    0.28    0.16 
  -2  -8   2    0.20    0.24 
  -2  -8   2    0.00    0.18 
   2   9  -2    0.39    0.46 
   1  -9  -2    0.04    0.20 
  -1   9   2   -0.01    0.23 
   1  -8  -2    0.50    0.28 
   1  -8  -2    0.81    0.19 
  -1   8   2    0.68    0.34 
   1  -7  -2    0.34    0.19 
   1  -7  -2    0.38    0.20 
   1  -7  -2    0.17    0.11 
  -1   7   2    0.41    0.16 
  -1   7   2    0.41    0.15 
   1  -6  -2    0.90    0.12 
   1  -6  -2    1.52    0.34 
  -1   6   2    1.25    0.19 
   1  -5  -2    2.70    0.56 
   1  -5  -2    2.57    0.42 
   1  -5  -2    1.72    0.32 
   1  -5  -2    2.32    0.50 
  -1   5   2    2.75    0.52 
  -1   5   2    3.24    0.53 
  -1   5   2    2.20    0.48 
   1  -4  -2    1.33    0.28 
   1  -4  -2    1.58    0.34 
   1  -4  -2    2.10    0.39 
   1  -4  -2    1.06    0.31 
   1  -4  -2    1.64    0.37 
  -1   4   2    1.87    0.29 
  -1   4   2    1.70    0.23 
  -1   4   2    1.69    0.47 
  -1   4   2    1.24    0.31 
   1  -3  -2    2.91    0.47 
   1  -3  -2    3.91    0.55 
   1  -3  -2    4.17    0.56 
   1  -3  -2    3.79    0.52 
   1  -3  -2    3.71    0.56 
  -1   3   2    3.54    0.38 
  -1   3   2    2.93    0.49 
  -1   3   2    4.03    0.53 
  -1   3   2    4.52    0.53 
   1  -2  -2   14.70    1.10 
   1  -2  -2   13.73    1.04 
   1  -2  -2   12.96    1.05 
   1  -2  -2   13.65    1.10 
   1  -2  -2   13.76    1.17 
  -1   2   2   14.77    1.16 
  -1   2   2   13.69    0.96 
  -1   2   2   12.80    1.00 
   1  -1  -2    5.80    0.47 
   1  -1  -2    4.58    0.47 
   1  -1  -2    5.24    0.49 
   1  -1  -2    5.65    0.50 
  -1   1   2    5.69    0.49 
  -1   1   2    5.96    0.46 
  -1   1   2    6.16    0.54 
  -1   1   2    6.49    0.59 
   1   0  -2  221.85   11.52 
   1   0  -2  244.87   12.76 
  -1   0   2  248.39   11.83 
  -1   0   2  218.01   11.44 
  -1   0   2  236.84   12.45 
  -1   0   2  255.29   11.61 
   1   1  -2    6.84    0.58 
  -1  -1   2    5.80    0.60 
  -1  -1   2    6.14    0.49 
  -1  -1   2    6.80    0.59 
  -1  -1   2    6.08    0.61 
  -1  -1   2    6.03    0.64 
  -1  -1   2    6.18    0.55 
   1   2  -2   17.05    1.25 
   1   2  -2   13.91    1.13 
   1   2  -2   15.06    1.15 
   1   2  -2   14.09    1.00 
   1   2  -2   13.24    1.11 
  -1  -2   2   14.19    1.08 
  -1  -2   2   14.29    0.97 
  -1  -2   2   14.43    1.25 
  -1  -2   2   13.98    1.10 
  -1  -2   2   14.22    1.20 
  -1  -2   2   13.34    1.18 
  -1  -2   2   12.16    1.10 
  -1  -2   2   12.79    0.93 
   1   3  -2    3.03    0.43 
   1   3  -2    4.52    1.96 
   1   3  -2    4.19    0.57 
  -1  -3   2    3.31    0.53 
  -1  -3   2    3.85    0.56 
  -1  -3   2    4.04    0.48 
  -1  -3   2    4.18    0.51 
  -1  -3   2    3.33    0.51 
  -1  -3   2    3.09    0.35 
   1   4  -2    1.29    0.38 
   1   4  -2    1.20    0.18 
   1   4  -2    1.26    0.22 
   1   4  -2    1.41    0.28 
  -1  -4   2    1.70    0.37 
  -1  -4   2    1.16    0.17 
  -1  -4   2    1.52    0.28 
  -1  -4   2    1.51    0.48 
  -1  -4   2    1.85    0.38 
   1   5  -2    3.27    0.47 
   1   5  -2    3.40    0.62 
   1   5  -2    2.38    0.53 
   1   5  -2    2.66    0.62 
  -1  -5   2    2.99    0.53 
  -1  -5   2    1.68    0.55 
   1   6  -2    0.83    0.14 
  -1  -6   2    0.62    0.12 
   1   7  -2    0.08    0.12 
   1   7  -2    0.15    0.12 
  -1  -7   2    0.06    0.19 
  -1  -7   2    0.04    0.16 
  -1  -7   2   -0.03    0.12 
  -1  -7   2    0.01    0.14 
  -1  -7   2    0.11    0.12 
   1   8  -2    0.18    0.18 
   1   8  -2    0.10    0.17 
  -1  -8   2    0.22    0.15 
  -1  -8   2    0.29    0.25 
   1   9  -2    0.88    0.45 
   0  -9  -2    0.14    0.23 
   0   9   2   -0.02    0.49 
   0  -8  -2    0.39    0.16 
   0  -8  -2    0.26    0.23 
   0   8   2    0.13    0.13 
   0   8   2    0.34    0.16 
   0  -7  -2   -0.04    0.12 
   0  -7  -2    0.11    0.19 
   0  -7  -2    0.31    0.20 
   0  -7  -2   -0.05    0.11 
   0   7   2    0.26    0.11 
   0   7   2    0.30    0.23 
   0   7   2   -0.02    0.13 
   0   7   2    0.33    0.14 
   0  -6  -2    0.46    0.14 
   0  -6  -2    0.51    0.10 
   0   6   2    0.42    0.10 
   0  -5  -2    1.16    0.41 
   0  -5  -2    0.79    0.33 
   0  -5  -2    0.45    0.24 
   0  -4  -2    0.26    0.07 
   0  -4  -2    0.32    0.17 
   0   4   2    0.15    0.04 
   0   4   2    0.11    0.06 
   0   4   2    0.23    0.09 
   0  -3  -2    0.72    0.29 
   0  -3  -2    0.28    0.10 
   0  -3  -2    0.25    0.30 
   0  -3  -2    0.32    0.15 
   0   3   2    0.21    0.09 
   0   3   2    0.55    0.19 
   0   3   2    0.35    0.05 
   0  -2  -2    0.15    0.05 
   0  -2  -2    0.13    0.03 
   0  -2  -2    0.10    0.03 
   0  -2  -2    0.09    0.03 
   0  -2  -2    0.33    0.15 
   0   2   2    0.12    0.12 
   0   2   2    0.12    0.04 
   0  -1  -2   39.50    2.36 
   0  -1  -2   40.44    2.41 
   0  -1  -2   37.87    2.07 
   0   1   2   36.84    2.10 
   0   1   2   32.80    2.11 
   0   1   2   41.28    2.29 
   0   1   2   42.76    2.46 
   0   1   2   38.00    2.15 
   0   1   2   37.99    2.21 
   0   0  -2   26.12    1.42 
   0   0  -2   22.25    1.51 
   0   0  -2   26.06    1.60 
   0   0   2   23.29    1.50 
   0   0   2   26.66    1.51 
   0   0   2   23.41    1.48 
   0   0   2   23.88    1.46 
   0   1  -2   47.77    2.67 
   0  -1   2   44.00    2.65 
   0  -1   2   49.17    2.76 
   0  -1   2   54.49    2.76 
   0  -1   2   45.46    2.68 
   0  -1   2   48.74    2.76 
   0  -1   2   53.56    2.81 
   0  -1   2   48.32    2.88 
   0  -2   2    0.01    0.03 
   0  -2   2    0.23    0.09 
   0  -2   2    0.03    0.02 
   0  -2   2    0.47    0.22 
   0  -2   2    0.05    0.03 
   0  -2   2    0.09    0.03 
   0  -2   2    0.00    0.03 
   0  -2   2    0.05    0.03 
   0  -2   2    0.23    0.14 
   0  -2   2    0.04    0.03 
   0   3  -2    0.92    0.72 
   0   3  -2    0.49    0.18 
   0   3  -2    0.13    0.38 
   0  -3   2    0.36    0.07 
   0  -3   2    0.44    0.14 
   0  -3   2    0.38    0.14 
   0  -3   2    0.26    0.16 
   0   4  -2    0.10    0.06 
   0   4  -2    0.08    0.06 
   0   4  -2    0.12    0.05 
   0  -4   2    0.13    0.08 
   0  -4   2    0.27    0.18 
   0  -4   2    0.24    0.08 
   0  -4   2    0.15    0.08 
   0  -4   2    0.21    0.05 
   0  -4   2    0.23    0.08 
   0   5  -2    1.24    0.24 
   0   5  -2    1.09    0.15 
   0   5  -2    0.76    0.46 
   0   5  -2    1.43    0.30 
   0  -5   2    1.79    0.35 
   0  -5   2    0.76    0.30 
   0  -6   2    0.42    0.15 
   0  -6   2    0.60    0.13 
   0   7  -2    0.02    0.13 
   0   7  -2    0.17    0.13 
   0  -7   2    0.22    0.12 
   0  -7   2   -0.03    0.11 
   0  -7   2    0.16    0.18 
   0   8  -2    0.51    0.15 
   0  -8   2    0.37    0.25 
   0  -8   2    0.18    0.18 
   0  -8   2    0.27    0.15 
   0   9  -2   -0.06    0.20 
   0  -9   2   -0.06    0.21 
   0  -9   2   -0.42    0.33 
  -1  -9  -2   -0.04    0.24 
   1   9   2    0.00    0.20 
  -1  -8  -2   -0.08    0.16 
  -1  -8  -2    0.26    0.25 
   1   8   2    0.01    0.17 
   1   8   2    0.61    0.31 
  -1  -7  -2    0.00    0.17 
  -1  -7  -2    0.07    0.14 
  -1  -7  -2    0.23    0.18 
  -1  -7  -2    0.48    0.18 
   1   7   2    0.16    0.13 
   1   7   2    0.30    0.12 
  -1  -6  -2    0.11    0.13 
  -1  -5  -2    0.20    0.09 
  -1  -5  -2    0.11    0.07 
   1   5   2    0.29    0.08 
  -1  -4  -2    1.94    0.36 
  -1  -4  -2    1.10    0.24 
  -1  -4  -2    1.39    0.24 
   1   4   2    1.07    0.26 
   1   4   2    1.23    0.29 
   1   4   2    1.56    0.42 
   1   4   2    1.73    0.36 
  -1  -3  -2    0.08    0.05 
  -1  -3  -2    0.00    0.04 
  -1  -3  -2   -0.08    0.22 
   1   3   2    0.00    0.05 
   1   3   2    0.01    0.04 
   1   3   2    0.01    0.03 
  -1  -2  -2   14.26    1.02 
  -1  -2  -2   11.99    1.14 
  -1  -2  -2   12.45    1.07 
  -1  -2  -2   12.51    0.97 
  -1  -2  -2   13.35    1.18 
   1   2   2   13.38    1.09 
   1   2   2   12.28    1.06 
   1   2   2   13.95    1.05 
   1   2   2   12.74    1.15 
   1   2   2   13.10    0.90 
  -1  -1  -2   20.72    1.37 
  -1  -1  -2   19.92    1.16 
  -1  -1  -2   19.65    1.49 
  -1  -1  -2   20.74    1.38 
  -1  -1  -2   20.82    1.43 
   1   1   2   19.63    1.33 
   1   1   2   21.14    1.54 
   1   1   2   20.17    1.36 
   1   1   2   19.77    1.38 
   1   1   2   19.94    1.31 
  -1   0  -2  659.67   30.56 
  -1   0  -2  659.23   31.99 
  -1   0  -2  630.74   33.15 
  -1   0  -2  635.71   34.74 
   1   0   2  576.02   35.17 
   1   0   2  673.19   32.10 
   1   0   2  638.99   30.90 
   1   0   2  665.90   31.79 
  -1   1  -2   21.71    1.50 
  -1   1  -2   23.33    1.56 
  -1   1  -2   24.73    1.59 
   1  -1   2   25.52    1.78 
   1  -1   2   22.68    1.66 
   1  -1   2   24.46    1.48 
   1  -1   2   22.79    1.37 
   1  -1   2   23.00    1.54 
   1  -1   2   23.73    1.51 
   1  -1   2   26.15    1.63 
  -1   2  -2   17.39    1.17 
  -1   2  -2   16.67    1.27 
  -1   2  -2   18.09    1.26 
   1  -2   2   16.17    1.22 
   1  -2   2   16.23    1.44 
   1  -2   2   16.76    1.22 
   1  -2   2   16.56    1.26 
   1  -2   2   17.14    1.31 
   1  -2   2   15.24    1.30 
   1  -2   2   15.45    1.24 
   1  -2   2   17.47    1.39 
  -1   3  -2    0.02    0.15 
  -1   3  -2    0.10    0.05 
  -1   3  -2    0.00    0.04 
   1  -3   2    0.00    0.04 
   1  -3   2    0.15    0.07 
   1  -3   2    0.00    0.04 
   1  -3   2    0.00    0.03 
   1  -3   2    0.02    0.04 
   1  -3   2   -0.06    0.04 
   1  -3   2   -0.03    0.05 
  -1   4  -2    1.81    0.40 
  -1   4  -2    1.86    0.28 
  -1   4  -2    1.80    0.26 
  -1   4  -2    2.02    0.35 
  -1   4  -2    2.02    0.47 
   1  -4   2    1.96    0.37 
   1  -4   2    2.41    0.45 
   1  -4   2    2.04    0.34 
   1  -4   2    1.49    0.25 
   1  -4   2    1.24    0.25 
   1  -4   2    1.97    0.47 
   1  -4   2    1.71    0.51 
   1  -4   2    1.59    0.41 
  -1   5  -2    0.06    0.08 
  -1   5  -2   -0.14    0.11 
   1  -5   2   -0.06    0.07 
   1  -5   2    0.01    0.08 
   1  -5   2    0.09    0.08 
   1  -5   2    0.25    0.12 
   1  -5   2    0.02    0.07 
   1  -5   2   -0.02    0.06 
  -1   6  -2   -0.01    0.11 
  -1   6  -2    0.13    0.38 
   1  -6   2    0.21    0.09 
   1  -6   2    0.35    0.15 
  -1   7  -2    0.20    0.14 
  -1   7  -2    0.30    0.18 
   1  -7   2    0.11    0.12 
   1  -7   2    0.08    0.17 
   1  -7   2    0.01    0.11 
   1  -7   2    0.12    0.20 
  -1   8  -2    0.08    0.17 
   1  -8   2    0.34    0.17 
   1  -8   2    0.03    0.18 
  -1   9  -2    0.59    0.43 
  -2  -8  -2   -0.19    0.23 
  -2  -8  -2   -0.19    0.25 
  -2  -8  -2   -0.12    0.19 
   2   8   2    0.64    0.37 
   2   8   2    0.23    0.17 
  -2  -7  -2   -0.05    0.17 
  -2  -7  -2   -0.07    0.20 
  -2  -7  -2    0.24    0.20 
  -2  -7  -2    0.08    0.13 
   2   7   2    0.15    0.11 
   2   7   2    0.24    0.13 
  -2  -6  -2    0.36    0.11 
  -2  -6  -2    0.76    0.17 
   2   6   2    0.62    0.10 
   2   6   2    0.55    0.13 
  -2  -5  -2    0.99    0.18 
  -2  -5  -2    2.20    0.73 
   2   5   2    1.33    0.18 
  -2  -4  -2    1.87    0.61 
  -2  -4  -2    1.55    0.34 
  -2  -4  -2    1.66    0.55 
  -2  -4  -2    0.90    0.30 
   2   4   2    0.63    0.34 
   2   4   2    1.15    0.27 
   2   4   2    1.24    0.22 
   2   4   2    0.70    0.16 
  -2  -3  -2    8.30    0.86 
  -2  -3  -2    9.99    1.09 
  -2  -3  -2    9.39    0.88 
  -2  -3  -2    8.52    1.11 
  -2  -3  -2    8.18    0.94 
  -2  -3  -2    7.00    0.66 
   2   3   2    8.21    0.85 
   2   3   2    9.07    0.98 
   2   3   2    8.36    0.67 
   2   3   2    8.57    0.91 
   2   3   2    8.80    0.97 
  -2  -2  -2    1.11    0.20 
  -2  -2  -2    1.18    0.22 
  -2  -2  -2    1.28    0.26 
  -2  -2  -2    0.97    0.22 
  -2  -2  -2    0.68    0.15 
   2   2   2    0.98    0.22 
   2   2   2    1.06    0.19 
   2   2   2    0.92    0.16 
   2   2   2    1.01    0.18 
   2   2   2    1.52    0.30 
   2   2   2    0.76    0.17 
  -2  -1  -2    1.10    0.35 
  -2  -1  -2    1.13    0.82 
  -2  -1  -2    0.99    0.21 
   2   1   2    1.52    0.28 
   2   1   2    0.94    0.18 
   2   1   2    1.38    0.25 
   2   1   2    1.05    0.17 
   2   1   2    1.17    0.21 
  -2   0  -2  165.25    8.97 
  -2   0  -2  178.71    9.27 
  -2   0  -2  156.13    8.60 
   2   0   2  188.49    8.66 
   2   0   2  183.93    9.97 
   2   0   2  154.65    8.85 
   2   0   2  174.35    8.74 
   2   0   2  161.36    9.00 
  -2   1  -2    0.72    0.14 
  -2   1  -2    0.92    0.19 
  -2   1  -2    0.95    0.19 
   2  -1   2    0.83    0.17 
   2  -1   2    0.84    0.15 
   2  -1   2    1.10    0.25 
   2  -1   2    1.42    0.26 
   2  -1   2    0.94    0.18 
  -2   2  -2    1.13    0.25 
  -2   2  -2    1.39    0.22 
   2  -2   2    1.68    0.33 
   2  -2   2    1.15    0.24 
   2  -2   2    1.39    0.25 
   2  -2   2    1.72    0.33 
   2  -2   2    1.23    0.28 
  -2   3  -2   10.99    1.09 
  -2   3  -2    9.86    0.90 
  -2   3  -2   10.23    0.93 
  -2   3  -2   10.74    1.24 
  -2   3  -2    9.97    1.01 
  -2   3  -2   11.99    1.07 
   2  -3   2    9.61    0.88 
   2  -3   2   11.04    1.17 
   2  -3   2   12.37    1.19 
   2  -3   2   10.52    1.01 
   2  -3   2   10.20    1.13 
   2  -3   2    9.45    0.96 
   2  -3   2   10.48    1.24 
   2  -3   2   11.30    1.10 
  -2   4  -2    0.80    0.33 
  -2   4  -2    0.41    0.10 
  -2   4  -2    1.04    0.40 
   2  -4   2    0.73    0.27 
   2  -4   2    0.54    0.32 
   2  -4   2    0.58    0.20 
   2  -5   2    1.22    0.21 
   2  -5   2    1.68    0.29 
   2  -5   2    1.10    0.16 
  -2   6  -2    0.40    0.14 
   2  -6   2    0.32    0.09 
   2  -6   2    0.50    0.13 
   2  -6   2    0.41    0.10 
   2  -6   2    0.68    0.15 
  -2   7  -2   -0.21    0.19 
   2  -7   2    0.31    0.14 
   2  -7   2   -0.15    0.23 
   2  -7   2    0.06    0.11 
  -2   8  -2    0.01    0.19 
  -2   8  -2   -0.24    0.30 
   2  -8   2    0.04    0.16 
   2  -8   2    0.03    0.15 
  -3  -8  -2   -0.26    0.27 
  -3  -8  -2    0.27    1.45 
  -3  -8  -2    0.24    0.20 
   3   8   2    0.40    0.21 
   3   8   2   -0.11    0.21 
  -3  -7  -2    0.17    0.15 
  -3  -7  -2   -0.16    0.20 
   3   7   2   -0.18    0.18 
   3   7   2    0.22    0.34 
   3   7   2    0.21    0.15 
  -3  -6  -2   -0.02    0.16 
   3   6   2    0.26    0.10 
   3   6   2    0.25    0.11 
  -3  -5  -2    0.55    0.12 
   3   5   2    0.76    0.11 
  -3  -4  -2    0.25    0.09 
  -3  -4  -2    0.25    0.09 
   3   4   2    0.26    0.07 
   3   4   2    0.09    0.08 
  -3  -3  -2    0.12    0.07 
  -3  -3  -2    0.03    0.05 
  -3  -3  -2    0.06    0.04 
   3   3   2    0.01    0.06 
   3   3   2    0.12    0.05 
  -3  -2  -2    0.17    0.06 
  -3  -2  -2    0.01    0.05 
  -3  -2  -2    0.12    0.06 
   3   2   2    0.10    0.05 
  -3  -1  -2    7.32    0.72 
  -3  -1  -2    7.01    0.84 
  -3  -1  -2    7.66    0.82 
  -3  -1  -2    7.46    0.86 
   3   1   2    7.48    0.85 
   3   1   2    7.36    0.81 
   3   1   2    8.40    0.77 
   3   1   2    6.99    0.87 
   3   1   2    6.80    0.75 
  -3   0  -2   44.52    2.90 
  -3   0  -2   44.14    2.92 
  -3   0  -2   45.45    2.94 
  -3   0  -2   41.22    2.89 
   3   0   2   45.31    2.44 
   3   0   2   44.65    3.20 
   3   0   2   44.41    2.88 
   3   0   2   47.31    2.61 
   3   0   2   44.89    2.88 
   3   0   2   44.02    2.93 
  -3   1  -2    8.05    0.92 
  -3   1  -2    7.43    0.75 
  -3   1  -2    8.65    0.92 
  -3   1  -2    8.58    0.89 
   3  -1   2    7.88    0.95 
   3  -1   2    7.72    0.90 
   3  -1   2    7.78    0.91 
   3  -1   2    9.16    0.66 
   3  -1   2    7.06    0.66 
   3  -1   2    9.10    0.92 
  -3   2  -2    0.08    0.06 
   3  -2   2    0.14    0.03 
  -3   3  -2    0.04    0.06 
   3  -3   2   -0.04    0.07 
   3  -3   2    0.19    0.07 
   3  -3   2    0.01    0.05 
   3  -3   2    0.09    0.11 
   3  -3   2    0.08    0.05 
  -3   4  -2    0.07    0.08 
  -3   4  -2    0.23    0.08 
   3  -4   2    0.76    0.29 
   3  -4   2    0.21    0.22 
   3  -4   2    0.27    0.18 
  -3   5  -2    0.36    0.11 
  -3   5  -2    0.10    0.19 
  -3   5  -2    0.31    0.10 
   3  -5   2    0.54    0.15 
   3  -5   2    0.36    0.08 
   3  -5   2    0.10    0.17 
  -3   6  -2    0.14    0.16 
  -3   6  -2   -0.01    1.43 
  -3   6  -2    0.21    0.12 
   3  -6   2    0.11    0.15 
   3  -6   2    0.26    0.21 
   3  -6   2    0.01    0.10 
  -3   7  -2    0.38    0.22 
   3  -7   2    0.41    0.23 
  -3   8  -2    1.23    0.88 
   3  -8   2    0.45    0.17 
  -4  -8  -2   -0.29    0.30 
  -4  -8  -2   -0.19    0.28 
   4   8   2   -0.12    0.18 
  -4  -7  -2   -0.10    0.21 
  -4  -7  -2    0.51    0.86 
   4   7   2    0.11    0.33 
   4   7   2    0.19    0.16 
  -4  -6  -2    0.02    0.13 
  -4  -6  -2    0.08    0.18 
   4   6   2    0.06    0.11 
   4   6   2    0.27    0.12 
  -4  -5  -2    0.66    0.37 
  -4  -5  -2    0.87    0.13 
  -4  -4  -2    0.64    0.15 
   4   4   2    0.62    0.12 
  -4  -3  -2   -0.03    0.08 
  -4  -3  -2   -0.01    0.08 
  -4  -3  -2    0.00    0.06 
  -4  -3  -2    0.10    0.08 
   4   3   2    0.09    0.07 
   4   3   2   -0.05    0.07 
  -4  -2  -2    0.00    0.06 
  -4  -2  -2    0.25    0.29 
  -4  -2  -2    0.18    0.06 
  -4  -2  -2    0.04    0.06 
   4   2   2   -0.01    0.05 
   4   2   2    0.21    0.11 
   4   2   2    0.06    0.05 
  -4  -1  -2    5.46    0.67 
  -4  -1  -2    4.83    0.69 
  -4  -1  -2    6.28    0.78 
  -4  -1  -2    6.46    0.81 
  -4  -1  -2    6.07    0.79 
   4   1   2    7.80    0.92 
   4   1   2    5.73    0.76 
   4   1   2    7.40    0.73 
   4   1   2    5.00    0.57 
  -4   0  -2    3.33    0.54 
  -4   0  -2    3.57    0.58 
  -4   0  -2    3.33    0.50 
  -4   0  -2    3.39    0.56 
   4   0   2    3.52    0.61 
   4   0   2    3.66    0.43 
   4   0   2    4.40    0.64 
   4   0   2    4.10    0.47 
   4   0   2    3.35    0.54 
  -4   1  -2    7.51    0.90 
  -4   1  -2    6.31    0.87 
  -4   1  -2    5.92    0.72 
  -4   1  -2    6.19    0.84 
   4  -1   2    6.88    0.88 
   4  -1   2    6.91    0.85 
   4  -1   2    6.46    0.57 
   4  -1   2    7.02    0.93 
   4  -1   2    6.46    0.65 
  -4   2  -2    0.22    0.08 
  -4   2  -2    0.01    0.07 
  -4   2  -2    0.01    0.07 
   4  -2   2    0.17    0.07 
   4  -2   2    0.05    0.08 
   4  -2   2    0.09    0.05 
   4  -2   2    0.04    0.04 
  -4   3  -2    0.40    0.09 
   4  -3   2    0.41    0.10 
   4  -3   2    0.41    0.15 
  -4   4  -2    0.13    0.08 
   4  -4   2    0.06    0.06 
   4  -4   2    0.02    0.16 
   4  -4   2    0.15    0.07 
   4  -4   2   -0.06    0.11 
   4  -4   2    0.15    0.10 
  -4   5  -2    0.81    0.15 
  -4   5  -2    0.64    0.21 
  -4   5  -2    0.61    0.13 
   4  -5   2    0.62    0.12 
   4  -5   2    0.93    0.19 
  -4   6  -2    0.17    0.13 
  -4   6  -2    0.62    0.30 
  -4   6  -2    0.15    0.14 
   4  -6   2    0.35    0.21 
   4  -6   2   -0.05    0.11 
   4  -6   2   -0.33    0.25 
  -4   7  -2   -0.21    0.32 
  -4   7  -2    0.06    0.21 
   4  -7   2   -0.19    0.16 
   4  -7   2    0.05    0.14 
   4  -7   2   -0.04    0.25 
  -4   8  -2   -0.50    0.37 
  -4   8  -2    0.36    0.30 
   4  -8   2   -0.26    0.32 
   4  -8   2    0.11    0.18 
   4  -8   2   -0.03    0.18 
  -5  -7  -2   -0.18    0.23 
   5   7   2   -0.06    0.18 
   5   7   2   -0.31    0.39 
  -5  -6  -2    1.53    0.27 
   5   6   2    1.34    0.18 
  -5  -5  -2    2.02    0.29 
  -5  -5  -2    1.84    0.26 
   5   5   2    1.57    0.25 
  -5  -4  -2    2.49    0.37 
  -5  -4  -2    3.77    0.61 
   5   4   2    2.41    0.49 
  -5  -3  -2    5.72    0.77 
  -5  -3  -2    5.75    0.85 
   5   3   2    6.70    0.96 
  -5  -2  -2   19.72    1.93 
  -5  -2  -2   23.34    1.97 
  -5  -2  -2   16.50    1.68 
   5   2   2   16.55    1.54 
   5   2   2   21.67    1.96 
   5   2   2   18.20    1.69 
  -5  -1  -2    7.63    1.03 
  -5  -1  -2    6.15    1.00 
  -5  -1  -2    5.15    0.80 
  -5  -1  -2    5.96    0.87 
   5   1   2    7.69    0.98 
   5   1   2    5.13    0.81 
   5   1   2    6.70    0.89 
   5   1   2    5.21    0.67 
  -5   0  -2   12.97    1.40 
  -5   0  -2   11.12    1.36 
  -5   0  -2   13.47    1.37 
   5   0   2   14.58    1.54 
   5   0   2   12.96    1.38 
   5   0   2   16.19    1.55 
  -5   1  -2    5.02    0.70 
  -5   1  -2    5.29    0.66 
  -5   1  -2    6.88    0.89 
  -5   1  -2    6.64    0.90 
   5  -1   2    5.81    0.85 
   5  -1   2    6.14    0.96 
  -5   2  -2   24.35    2.31 
  -5   2  -2   24.58    2.25 
  -5   2  -2   22.46    2.03 
   5  -2   2   29.00    2.35 
   5  -2   2   24.87    2.38 
   5  -2   2   24.68    2.21 
  -5   3  -2    2.48    0.54 
  -5   3  -2    4.18    0.71 
  -5   3  -2    3.69    0.60 
   5  -3   2    3.36    0.51 
  -5   4  -2    5.95    0.85 
  -5   4  -2    4.92    0.56 
   5  -4   2    6.71    0.91 
   5  -4   2    5.13    0.91 
   5  -4   2    6.03    0.83 
  -5   5  -2    1.64    0.23 
   5  -5   2    1.95    0.32 
   5  -5   2    1.72    0.27 
   5  -5   2    0.84    0.71 
  -5   6  -2    1.50    0.21 
  -5   6  -2    1.49    0.21 
   5  -6   2    1.05    0.16 
  -5   7  -2    1.15    2.39 
  -5   7  -2    0.55    0.25 
   5  -7   2    0.59    0.29 
  -6  -5  -2    3.82    0.69 
   6   5   2    2.58    0.42 
   6   4   2    0.79    0.15 
  -6  -3  -2   16.43    1.71 
  -6  -3  -2   13.18    1.58 
   6   3   2   15.21    1.60 
  -6  -2  -2    2.57    0.26 
  -6  -2  -2    1.67    0.35 
   6   2   2    2.25    0.41 
   6   2   2    1.85    0.46 
  -6  -1  -2   21.37    2.07 
  -6  -1  -2   22.58    2.21 
  -6  -1  -2   22.74    2.00 
   6   1   2   26.67    2.34 
   6   1   2   17.33    1.90 
   6   1   2   25.36    2.26 
  -6   0  -2    0.67    0.13 
   6   0   2    0.43    0.10 
   6   0   2    0.55    0.17 
  -6   1  -2   22.98    2.18 
  -6   1  -2   24.78    2.25 
   6  -1   2   23.33    2.36 
   6  -1   2   24.34    2.24 
   6  -1   2   24.93    2.19 
  -6   2  -2    1.99    0.30 
  -6   2  -2    2.81    0.35 
  -6   2  -2    2.59    0.43 
   6  -2   2    2.87    0.45 
   6  -2   2    2.90    0.44 
  -6   3  -2   14.01    1.52 
  -6   3  -2   16.33    1.83 
  -6   3  -2   16.42    1.75 
   6  -3   2   17.85    1.97 
   6  -3   2   16.24    1.85 
   6  -3   2   17.59    1.81 
  -6   4  -2    0.12    0.16 
  -6   4  -2    0.10    0.17 
  -6   4  -2    0.30    0.12 
   6  -4   2    0.47    0.21 
   6  -4   2    0.26    0.10 
  -6   5  -2    5.16    0.68 
  -6   5  -2    4.87    0.57 
   6  -5   2    3.38    0.53 
   6  -5   2    3.53    0.71 
  -6   6  -2    0.16    0.21 
  -6   6  -2    0.46    0.23 
  -6   6  -2    0.19    0.43 
   6  -6   2    0.43    0.31 
   6  -6   2    0.23    0.15 
  -7  -6  -2   -0.24    0.26 
   7   6   2   -0.27    0.43 
  -7  -4  -2    0.40    0.22 
   7   4   2    0.80    0.14 
  -7  -3  -2    0.20    0.15 
   7   3   2    0.47    0.18 
  -7  -2  -2    0.64    0.14 
   7   2   2    0.88    0.17 
  -7  -1  -2    0.02    0.13 
  -7  -1  -2    0.31    0.13 
   7   1   2    0.23    0.09 
  -7   0  -2    0.91    0.12 
   7   0   2    0.78    0.16 
   7   0   2    0.95    0.19 
   7   0   2    1.21    0.20 
  -7   1  -2    0.46    0.14 
  -7   1  -2    0.42    0.17 
   7  -1   2    0.69    0.16 
  -7   2  -2    0.55    0.12 
  -7   2  -2    0.43    0.16 
  -7   2  -2    0.31    0.18 
   7  -2   2    0.46    0.15 
  -7   3  -2    0.69    0.17 
  -7   3  -2    0.51    0.20 
   7  -3   2    0.41    0.13 
   7  -3   2    0.57    0.15 
  -7   4  -2    0.31    0.19 
  -7   4  -2    0.70    0.21 
   7  -4   2    0.41    0.14 
   7  -4   2    0.38    0.18 
  -7   5  -2    0.42    0.24 
  -7   5  -2    0.07    0.22 
   7  -5   2    0.13    0.14 
  -7   6  -2    0.37    0.29 
   7  -6   2    0.46    0.38 
  -8  -5  -2   -0.18    0.31 
  -8  -5  -2    0.02    0.24 
  -8  -4  -2    0.24    0.18 
  -8  -4  -2   -0.23    0.27 
   8   4   2    0.00    0.39 
   8   4   2   -0.13    0.17 
  -8  -3  -2    0.51    0.24 
  -8  -3  -2    0.12    0.15 
   8   3   2    0.39    0.17 
  -8  -2  -2    0.13    0.21 
  -8  -2  -2    0.69    0.15 
   8   2   2    0.65    0.30 
  -8  -1  -2    1.07    0.18 
   8   1   2    0.77    0.18 
   8   0   2    0.31    0.12 
   8   0   2    0.02    0.14 
   8   0   2    0.10    0.27 
  -8   1  -2    0.45    0.21 
  -8   1  -2    0.64    0.18 
   8  -1   2    0.83    0.17 
  -8   2  -2   -0.12    0.20 
   8  -2   2    0.12    0.18 
   8  -2   2    0.17    0.15 
  -8   3  -2    0.44    0.18 
  -8   3  -2    0.61    0.21 
  -8   3  -2    0.25    0.22 
   8  -3   2    0.28    0.14 
   8  -3   2    0.57    0.19 
  -8   4  -2    0.05    0.22 
  -8   4  -2    0.13    0.24 
   8  -4   2    0.15    0.15 
   8  -4   2    0.01    0.24 
  -8   5  -2   -0.09    0.27 
   8  -5   2    0.03    0.17 
  -9  -3  -2    0.04    0.20 
   9   3   2   -0.28    0.41 
   9   3   2   -0.10    0.16 
  -9  -2  -2    0.32    0.19 
   9   2   2   -0.08    0.32 
   9   2   2    0.20    0.15 
  -9  -1  -2    0.21    0.17 
   9   1   2    0.22    0.30 
   9   1   2    0.07    0.15 
  -9   0  -2    0.13    0.17 
  -9   0  -2   -0.03    0.21 
   9   0   2    0.11    0.16 
   9   0   2    0.35    0.35 
  -9   1  -2   -0.10    0.21 
  -9   1  -2    0.02    0.18 
   9  -1   2    0.12    0.33 
   9  -1   2    0.22    0.21 
   9  -1   2    0.14    0.17 
  -9   2  -2    0.12    0.26 
  -9   2  -2    0.44    0.24 
   9  -2   2    0.49    0.21 
   9  -2   2   -0.19    0.35 
   9  -2   2    0.20    0.17 
  -9   3  -2   -0.09    0.26 
  -9   3  -2   -0.09    0.25 
   9  -3   2    0.03    0.23 
   9  -3   2    0.08    0.18 
 -11   1   3    0.84    0.22 
 -11   1   3   -0.01    0.23 
  11   0  -3    0.01    0.16 
 -11   0   3   -0.28    0.23 
 -11   0   3    0.18    0.21 
 -11  -1   3    0.42    0.21 
  10  -4  -3    0.60    0.23 
  10  -3  -3    0.17    0.15 
  10  -3  -3    0.25    0.20 
 -10   3   3    0.18    0.22 
  10  -2  -3    0.04    0.19 
  10  -2  -3    0.03    0.13 
 -10   2   3   -0.09    0.18 
 -10   2   3   -0.16    0.20 
  10  -1  -3    0.23    0.13 
 -10   1   3    0.34    0.17 
 -10   1   3   -0.08    0.19 
  10   0  -3    0.76    0.14 
 -10   0   3    0.76    0.17 
  10   1  -3    0.37    0.14 
 -10  -1   3    0.38    0.17 
  10   2  -3    0.04    0.14 
 -10  -2   3    0.06    0.18 
  10   3  -3    0.45    0.18 
 -10  -3   3    0.05    0.19 
 -10  -4   3    0.01    0.22 
 -10  -4   3   -0.24    0.31 
   9  -5  -3    0.01    0.17 
   9  -5  -3    0.40    0.21 
  -9   5   3    0.31    0.25 
  -9   5   3   -0.25    0.24 
  -9   5   3   -0.67    0.52 
   9  -4  -3    0.25    0.27 
   9  -4  -3   -0.07    0.71 
   9  -4  -3    0.27    0.18 
  -9   4   3    0.25    0.25 
  -9   4   3    0.10    0.20 
   9  -3  -3   -0.17    0.16 
   9  -3  -3    0.31    0.12 
  -9   3   3    0.13    0.19 
  -9   3   3    0.08    0.17 
   9  -2  -3    0.41    0.15 
  -9   2   3    0.46    0.14 
  -9   2   3    0.19    0.17 
   9  -1  -3   -0.08    0.13 
   9  -1  -3    0.33    0.13 
  -9   1   3    0.16    0.15 
  -9   1   3    0.32    0.14 
   9   0  -3    2.15    0.37 
  -9   0   3    2.20    0.37 
  -9   0   3    1.55    0.19 
   9   1  -3   -0.11    0.13 
  -9  -1   3    0.02    0.15 
   9   2  -3    0.79    0.15 
  -9  -2   3    0.91    0.15 
   9   3  -3   -0.11    0.15 
   9   3  -3    0.18    0.13 
  -9  -3   3    0.06    0.16 
  -9  -3   3   -0.02    0.20 
   9   4  -3    0.32    0.18 
  -9  -4   3   -0.34    0.24 
  -9  -4   3   -0.06    0.19 
   9   5  -3   -0.23    0.18 
   9   5  -3   -0.17    0.25 
  -9  -5   3   -0.20    0.29 
  -9  -5   3    0.00    0.22 
   8  -6  -3    0.08    0.35 
  -8   6   3    0.59    0.25 
  -8   6   3    0.51    0.24 
   8  -5  -3    0.05    0.13 
   8  -5  -3    0.10    0.15 
  -8   5   3    0.36    0.43 
  -8   5   3    0.19    0.21 
  -8   5   3    0.08    0.22 
   8  -4  -3    1.05    0.30 
   8  -4  -3    1.49    0.27 
   8  -4  -3    1.01    0.17 
  -8   4   3    1.01    0.19 
  -8   4   3    1.22    0.19 
   8  -3  -3    0.02    0.09 
  -8   3   3    0.20    0.15 
  -8   3   3   -0.14    0.14 
  -8   3   3   -0.15    0.12 
   8  -2  -3    8.45    0.97 
   8  -2  -3    7.79    1.00 
   8  -2  -3    8.96    1.21 
  -8   2   3    6.00    0.83 
  -8   2   3    6.55    1.01 
  -8   2   3    7.25    0.98 
   8  -1  -3    3.96    0.58 
   8  -1  -3    3.64    0.67 
   8  -1  -3    3.52    0.55 
  -8   1   3    4.50    0.60 
  -8   1   3    4.50    0.64 
   8   0  -3    0.55    0.13 
  -8   0   3    0.78    0.14 
  -8   0   3    0.42    0.12 
   8   1  -3    4.23    0.70 
   8   1  -3    2.84    0.46 
  -8  -1   3    3.84    0.67 
  -8  -1   3    3.28    0.45 
   8   2  -3    7.77    0.93 
   8   2  -3    7.45    1.09 
  -8  -2   3    6.19    1.01 
  -8  -2   3    7.97    1.04 
   8   3  -3    0.46    0.20 
  -8  -3   3    0.12    0.10 
  -8  -3   3   -0.16    0.18 
   8   4  -3    0.67    0.16 
  -8  -4   3    0.73    0.16 
  -8  -4   3    0.76    0.21 
   8   5  -3    0.18    0.22 
  -8  -5   3    0.11    0.25 
  -8  -5   3    0.04    0.18 
   8   6  -3    0.28    0.22 
   8   6  -3    0.09    0.18 
  -8  -6   3    0.03    0.27 
  -8  -6   3    0.00    0.22 
  -7   7   3    0.47    0.24 
   7  -6  -3    0.23    0.16 
   7  -6  -3    0.33    0.28 
  -7   6   3    0.65    0.45 
  -7   6   3    0.00    0.22 
  -7   6   3   -0.13    0.19 
   7  -5  -3    0.15    0.14 
   7  -5  -3    0.10    0.11 
   7  -5  -3    0.39    0.23 
  -7   5   3    0.22    0.18 
  -7   5   3    0.09    0.18 
  -7   5   3   -0.03    0.13 
  -7   5   3    0.55    0.34 
   7  -4  -3    0.55    0.14 
   7  -4  -3    0.35    0.11 
  -7   4   3    0.64    0.16 
  -7   4   3    0.35    0.11 
  -7   4   3    0.18    0.25 
   7  -3  -3    0.27    0.08 
  -7   3   3    0.23    0.17 
  -7   3   3    0.43    0.12 
   7  -2  -3   -0.13    0.11 
  -7   2   3   -0.08    0.09 
  -7   2   3   -0.03    0.10 
  -7   2   3    0.16    0.11 
  -7   2   3    0.14    0.10 
   7  -1  -3    0.17    0.08 
   7  -1  -3    0.05    0.08 
   7  -1  -3    0.08    0.11 
  -7   1   3    0.08    0.09 
  -7   1   3   -0.03    0.10 
  -7   1   3    0.04    0.09 
  -7   1   3   -0.01    0.09 
   7   0  -3    7.59    1.01 
   7   0  -3    6.20    0.81 
  -7   0   3    6.97    0.81 
  -7   0   3    6.39    0.96 
   7   1  -3    0.94    0.17 
   7   1  -3    1.05    0.14 
   7   2  -3   -0.03    0.10 
   7   2  -3    0.12    0.09 
  -7  -2   3    0.19    0.09 
   7   3  -3    0.91    0.17 
   7   3  -3    1.44    0.25 
   7   3  -3    1.01    0.14 
  -7  -3   3    0.88    0.19 
  -7  -3   3    0.93    0.21 
   7   4  -3    0.30    0.12 
  -7  -4   3    0.99    0.22 
  -7  -4   3    0.47    0.16 
  -7  -4   3    0.62    0.14 
   7   5  -3    0.05    0.55 
   7   5  -3    0.07    0.15 
  -7  -5   3    0.00    0.16 
  -7  -5   3    0.30    0.17 
  -7  -5   3   -0.17    0.19 
   7   6  -3   -0.14    0.18 
  -7  -6   3   -0.33    0.25 
  -7  -6   3    0.05    0.20 
   7   7  -3   -0.14    0.18 
  -7  -7   3   -0.36    0.27 
  -7  -7   3   -0.26    0.31 
   6  -7  -3    0.15    0.17 
   6  -7  -3   -0.01    0.18 
  -6   7   3    0.33    0.22 
   6  -6  -3    0.14    0.14 
   6  -6  -3    0.35    0.24 
   6  -6  -3   -0.21    0.23 
   6  -6  -3   -0.10    0.13 
  -6   6   3   -0.51    0.38 
  -6   6   3    0.04    0.17 
  -6   6   3    0.08    0.14 
  -6   6   3    0.41    0.18 
   6  -5  -3   -0.02    0.20 
   6  -5  -3    0.02    0.11 
   6  -5  -3    0.17    0.10 
   6  -5  -3   -0.11    0.18 
  -6   5   3    0.24    0.16 
  -6   5   3   -1.02    0.77 
  -6   5   3    0.15    0.13 
   6  -4  -3    0.65    0.14 
  -6   4   3    0.38    0.10 
  -6   4   3    0.61    0.23 
   6  -3  -3    0.30    0.08 
  -6   3   3    0.17    0.08 
   6  -2  -3    0.87    0.16 
   6  -2  -3    0.73    0.31 
  -6   2   3    1.07    0.19 
   6  -1  -3    3.18    0.48 
   6  -1  -3    3.58    0.59 
   6  -1  -3    3.78    0.58 
  -6   1   3    2.50    0.44 
  -6   1   3    3.39    0.53 
  -6   1   3    4.54    0.63 
   6   0  -3    3.08    0.46 
   6   0  -3    2.53    0.41 
   6   0  -3    3.48    0.55 
   6   0  -3    2.81    0.49 
   6   0  -3    1.66    0.38 
  -6   0   3    2.99    0.52 
  -6   0   3    2.48    0.43 
  -6   0   3    1.60    0.40 
   6   1  -3    3.17    0.48 
   6   1  -3    4.11    0.63 
   6   1  -3    2.22    0.47 
   6   1  -3    3.24    0.43 
  -6  -1   3    3.48    0.60 
  -6  -1   3    2.35    0.49 
  -6  -1   3    3.30    0.51 
  -6  -1   3    2.33    0.48 
  -6  -1   3    3.10    0.61 
   6   2  -3    0.37    0.07 
   6   2  -3    0.15    0.09 
  -6  -2   3    0.22    0.08 
  -6  -3   3    0.28    0.10 
  -6  -3   3    0.54    0.11 
  -6  -3   3    0.31    0.13 
   6   4  -3    0.59    0.13 
  -6  -4   3    0.65    0.12 
  -6  -4   3    0.65    0.16 
  -6  -4   3    0.46    0.17 
   6   5  -3    0.01    0.11 
   6   5  -3    0.16    0.14 
  -6  -5   3   -0.04    0.16 
  -6  -5   3    0.04    0.16 
  -6  -5   3    0.03    0.13 
   6   6  -3    0.44    0.18 
  -6  -6   3    0.73    0.20 
   6   7  -3    0.59    0.20 
   6   7  -3    0.36    0.16 
  -6  -7   3   -0.09    0.25 
  -6  -7   3    0.00    0.24 
   5  -8  -3    0.00    0.19 
   5  -8  -3   -0.15    0.20 
  -5   8   3   -0.19    0.28 
  -5   8   3    0.66    0.42 
   5  -7  -3    0.25    0.15 
   5  -7  -3   -0.07    0.16 
  -5   7   3    0.13    0.20 
   5  -6  -3    0.38    0.18 
   5  -6  -3    0.58    0.12 
   5  -6  -3    0.25    0.18 
   5  -6  -3    0.63    0.12 
   5  -5  -3   -0.15    0.57 
   5  -5  -3    0.18    0.09 
   5  -5  -3    0.37    0.09 
   5  -5  -3    0.40    0.14 
  -5   5   3    0.28    0.11 
  -5   5   3    0.45    0.15 
  -5   5   3    0.60    0.22 
   5  -4  -3    0.28    0.11 
   5  -4  -3    0.24    0.10 
   5  -4  -3    0.14    0.10 
   5  -4  -3    0.30    0.11 
  -5   4   3    0.30    0.10 
  -5   4   3    0.75    0.81 
   5  -3  -3   -0.11    0.07 
   5  -3  -3   -0.02    0.11 
   5  -3  -3    0.01    0.31 
   5  -3  -3   -0.08    0.09 
  -5   3   3    0.00    0.06 
  -5   3   3    0.16    0.07 
  -5   3   3   -0.05    0.15 
   5  -2  -3    9.04    0.99 
   5  -2  -3   10.18    1.08 
   5  -2  -3    8.65    1.03 
   5  -2  -3   10.42    1.09 
  -5   2   3    8.76    0.98 
  -5   2   3    7.91    0.87 
  -5   2   3    7.95    1.08 
  -5   2   3    9.02    0.92 
   5  -1  -3    1.64    0.47 
   5  -1  -3    1.21    0.29 
  -5   1   3    1.95    0.36 
  -5   1   3    0.79    0.36 
  -5   1   3    1.13    0.25 
  -5   1   3    1.16    0.22 
   5   0  -3   11.24    0.91 
   5   0  -3   12.14    1.17 
   5   0  -3    9.53    0.96 
   5   0  -3    8.43    0.93 
   5   0  -3   11.04    1.09 
  -5   0   3   11.15    0.96 
  -5   0   3   10.08    1.05 
  -5   0   3    9.44    0.96 
  -5   0   3   11.13    1.00 
  -5   0   3   10.71    1.09 
  -5   0   3    8.20    0.96 
   5   1  -3    1.63    0.33 
   5   1  -3    1.61    0.34 
   5   1  -3    2.10    0.31 
   5   1  -3    2.53    1.42 
  -5  -1   3    1.41    0.45 
  -5  -1   3    1.79    0.38 
  -5  -1   3    1.69    0.31 
   5   2  -3    7.21    0.93 
   5   2  -3    7.86    0.87 
   5   2  -3    6.43    0.79 
   5   2  -3    6.78    0.92 
  -5  -2   3    9.11    0.91 
  -5  -2   3    9.23    1.13 
  -5  -2   3    9.15    1.08 
  -5  -2   3    7.95    0.94 
   5   3  -3    0.40    0.15 
   5   3  -3    0.20    0.08 
  -5  -3   3    0.05    0.08 
   5   4  -3    0.51    0.13 
   5   5  -3    0.30    0.09 
  -5  -5   3    0.13    0.14 
  -5  -5   3    0.35    0.11 
  -5  -5   3    0.52    0.14 
   5   6  -3    0.34    0.12 
   5   6  -3    0.21    0.14 
  -5  -6   3    0.11    0.12 
  -5  -6   3    0.20    0.17 
  -5  -6   3    0.10    0.18 
  -5  -6   3    0.51    0.17 
   5   7  -3    0.27    0.17 
   5   7  -3    0.02    0.17 
  -5  -7   3    0.33    0.16 
  -5  -7   3    0.62    0.21 
   5   8  -3    0.02    0.17 
  -5  -8   3    0.06    0.30 
  -5  -8   3    0.48    0.22 
  -5  -8   3   -0.18    0.28 
   4  -8  -3   -0.06    0.16 
   4  -8  -3   -0.01    0.16 
  -4   8   3    0.07    0.21 
  -4   8   3    0.19    0.22 
   4  -7  -3    0.35    0.24 
   4  -7  -3    0.34    0.59 
  -4   7   3    0.92    0.35 
  -4   7   3    0.50    0.20 
   4  -6  -3    0.25    0.10 
   4  -6  -3    0.13    0.17 
   4  -6  -3    0.33    0.10 
   4  -6  -3    0.46    0.16 
   4  -5  -3    0.09    0.08 
   4  -5  -3    0.58    0.71 
   4  -5  -3    0.20    0.10 
   4  -5  -3    0.27    0.11 
   4  -5  -3    0.14    0.12 
   4  -4  -3    1.95    0.67 
   4  -4  -3    1.77    0.29 
   4  -4  -3    1.37    0.50 
   4  -4  -3    2.54    0.55 
   4  -4  -3    1.90    0.42 
  -4   4   3    1.33    0.28 
   4  -3  -3    1.58    0.36 
   4  -3  -3    1.73    0.30 
   4  -3  -3    2.55    0.48 
   4  -3  -3    2.38    0.44 
  -4   3   3    1.59    0.26 
  -4   3   3    1.37    0.56 
  -4   3   3    2.10    0.33 
  -4   3   3    1.76    0.28 
  -4   3   3    1.19    0.48 
   4  -2  -3   10.67    1.09 
   4  -2  -3   10.40    1.11 
   4  -2  -3    8.95    0.76 
   4  -2  -3   12.75    1.18 
   4  -2  -3   13.59    1.17 
   4  -2  -3    9.28    1.05 
  -4   2   3   13.18    0.89 
  -4   2   3    9.99    1.04 
  -4   2   3   10.67    1.14 
  -4   2   3   12.47    1.03 
   4  -1  -3    0.71    0.22 
   4  -1  -3    1.21    0.38 
   4  -1  -3    1.05    0.22 
  -4   1   3    0.62    0.21 
  -4   1   3    0.74    0.15 
  -4   1   3    0.62    0.19 
  -4   1   3    0.89    0.38 
   4   0  -3   34.43    2.10 
   4   0  -3   30.09    2.20 
   4   0  -3   32.34    2.23 
   4   0  -3   31.15    2.16 
  -4   0   3   34.21    2.22 
  -4   0   3   33.79    2.25 
  -4   0   3   32.97    2.04 
  -4   0   3   30.61    2.08 
  -4   0   3   33.17    2.24 
  -4   0   3   34.22    2.26 
   4   1  -3    1.15    0.24 
   4   1  -3    0.69    0.14 
   4   1  -3    0.57    0.15 
   4   1  -3    0.74    0.25 
  -4  -1   3    0.91    0.17 
  -4  -1   3    0.77    0.14 
  -4  -1   3    0.55    0.11 
  -4  -1   3    1.02    0.33 
  -4  -1   3    1.05    0.25 
   4   2  -3   12.36    3.85 
   4   2  -3   11.24    1.14 
   4   2  -3    9.58    0.92 
  -4  -2   3   11.53    0.95 
  -4  -2   3   10.69    0.95 
  -4  -2   3   10.37    1.12 
  -4  -2   3   10.48    1.14 
   4   3  -3    1.87    0.34 
   4   3  -3    2.95    0.51 
   4   3  -3    2.18    0.45 
   4   3  -3    2.04    0.37 
  -4  -3   3    1.92    0.47 
  -4  -3   3    2.03    0.42 
  -4  -3   3    1.81    0.43 
   4   4  -3    2.86    0.49 
   4   4  -3    2.28    0.39 
  -4  -4   3    1.89    0.37 
  -4  -4   3    2.82    0.53 
   4   5  -3    0.26    0.09 
   4   5  -3    0.15    0.08 
  -4  -5   3    0.13    0.12 
  -4  -5   3   -0.01    0.08 
   4   6  -3    0.29    0.12 
  -4  -6   3    0.20    0.15 
  -4  -6   3    0.24    0.15 
  -4  -6   3    0.36    0.11 
   4   7  -3    0.04    0.15 
  -4  -7   3    0.09    0.21 
  -4  -7   3    0.22    0.22 
  -4  -7   3   -0.17    0.20 
  -4  -7   3    0.09    0.14 
   4   8  -3    0.31    0.17 
   4   8  -3    0.18    0.22 
  -4  -8   3    0.49    0.28 
  -4  -8   3    0.06    0.28 
  -4  -8   3    0.65    0.18 
   3  -8  -3    0.00    0.32 
   3  -8  -3   -0.14    0.18 
   3  -8  -3   -0.01    0.15 
  -3   8   3    0.01    0.21 
  -3   8   3    0.58    0.34 
  -3   8   3    0.16    0.19 
   3  -7  -3    0.23    0.21 
   3  -7  -3    0.35    0.19 
   3  -7  -3   -0.05    0.22 
  -3   7   3    0.47    0.26 
  -3   7   3    0.37    0.23 
  -3   7   3    0.07    0.16 
   3  -6  -3    0.34    0.09 
   3  -6  -3    0.31    0.15 
  -3   6   3    0.37    0.23 
  -3   6   3    0.25    0.13 
   3  -5  -3    0.83    0.17 
   3  -5  -3    0.46    0.47 
   3  -5  -3    0.79    0.14 
   3  -5  -3    0.64    0.13 
  -3   5   3    0.96    0.34 
   3  -4  -3    0.25    0.09 
   3  -4  -3    0.12    0.05 
  -3   4   3    0.19    0.07 
   3  -3  -3    0.09    0.04 
   3  -3  -3    0.02    0.06 
   3  -3  -3    0.04    0.04 
   3  -3  -3    0.03    0.04 
   3  -3  -3    0.35    0.16 
  -3   3   3   -0.01    0.06 
  -3   3   3    0.15    0.05 
   3  -2  -3   43.65    5.16 
   3  -2  -3   41.65    2.77 
   3  -2  -3   46.55    2.84 
   3  -2  -3   46.08    3.08 
   3  -2  -3   45.55    2.61 
  -3   2   3   45.64    2.80 
  -3   2   3   40.78    2.50 
  -3   2   3   46.78    2.62 
  -3   2   3   44.11    2.93 
   3  -1  -3    0.61    0.08 
   3  -1  -3    0.45    0.15 
   3  -1  -3    0.50    0.10 
   3  -1  -3    0.44    0.16 
  -3   1   3    0.46    0.10 
  -3   1   3    0.52    0.19 
  -3   1   3    0.76    0.15 
  -3   1   3    0.49    0.10 
  -3   1   3    0.35    0.14 
   3   0  -3   36.50    2.47 
   3   0  -3   36.13    2.26 
   3   0  -3   37.24    2.33 
   3   0  -3   36.78    2.37 
  -3   0   3   34.70    2.32 
  -3   0   3   39.46    2.44 
  -3   0   3   37.22    2.10 
  -3   0   3   37.30    2.27 
  -3   0   3   40.56    2.40 
  -3   0   3   39.00    2.37 
   3   1  -3    0.65    0.13 
   3   1  -3    0.66    0.15 
   3   1  -3    0.76    0.13 
  -3  -1   3    0.83    0.27 
  -3  -1   3    0.57    0.22 
  -3  -1   3    0.45    0.13 
  -3  -1   3    0.40    0.18 
  -3  -1   3    0.98    0.21 
   3   2  -3   44.44    2.87 
   3   2  -3   47.09    2.89 
   3   2  -3   42.28    2.72 
   3   2  -3   46.36    2.91 
  -3  -2   3   44.74    3.06 
  -3  -2   3   45.22    3.12 
  -3  -2   3   44.08    2.61 
  -3  -2   3   39.53    2.77 
  -3  -2   3   44.48    3.08 
  -3  -2   3   43.59    2.59 
   3   3  -3    0.03    0.05 
   3   3  -3    0.05    0.19 
   3   3  -3    0.03    0.05 
  -3  -3   3    0.06    0.04 
  -3  -3   3    0.06    0.04 
  -3  -3   3    0.10    0.04 
  -3  -3   3    0.05    0.06 
  -3  -3   3    0.19    0.07 
   3   4  -3    0.00    0.06 
   3   4  -3    0.02    0.06 
   3   4  -3   -0.06    0.09 
  -3  -4   3    0.14    0.08 
  -3  -4   3   -0.04    0.08 
  -3  -4   3   -0.01    0.07 
  -3  -4   3    0.00    0.06 
   3   5  -3    0.52    0.12 
   3   5  -3    0.59    0.17 
  -3  -5   3    0.37    0.10 
   3   6  -3    0.31    0.21 
   3   6  -3    0.23    0.10 
  -3  -6   3    0.06    0.10 
  -3  -6   3    0.04    0.15 
  -3  -6   3   -0.02    0.13 
  -3  -6   3    0.09    0.13 
   3   7  -3    0.15    0.13 
   3   7  -3    0.51    0.28 
  -3  -7   3    0.33    0.21 
  -3  -7   3   -0.19    0.20 
  -3  -7   3    0.08    0.15 
  -3  -7   3    0.01    0.19 
  -3  -8   3    0.09    0.27 
  -2   9   3    0.02    0.22 
   2  -8  -3    1.53    0.69 
   2  -8  -3   -0.05    0.29 
  -2   8   3    0.00    0.22 
  -2   8   3    0.53    0.32 
  -2   8   3    0.07    0.18 
   2  -7  -3    0.21    0.20 
   2  -7  -3    0.33    0.13 
   2  -7  -3    0.12    0.21 
  -2   7   3    0.29    0.17 
  -2   7   3    0.30    0.16 
   2  -6  -3    0.33    0.09 
   2  -6  -3    0.25    0.13 
   2  -6  -3    0.39    0.15 
   2  -5  -3    1.96    0.61 
   2  -5  -3    2.08    0.39 
   2  -5  -3    2.91    0.54 
  -2   5   3    2.28    0.34 
   2  -4  -3    4.29    0.69 
   2  -4  -3    5.55    0.79 
   2  -4  -3    5.62    0.74 
   2  -4  -3    7.26    0.88 
   2  -4  -3    6.28    0.88 
  -2   4   3    4.19    0.70 
  -2   4   3    5.36    0.60 
  -2   4   3    6.27    0.86 
  -2   4   3    6.46    0.70 
   2  -3  -3    7.51    0.89 
   2  -3  -3    7.48    0.81 
   2  -3  -3    5.54    0.65 
   2  -3  -3    6.66    0.78 
   2  -3  -3    8.23    0.86 
  -2   3   3    6.30    0.81 
  -2   3   3    5.37    0.61 
  -2   3   3    6.07    0.83 
  -2   3   3    8.25    0.75 
   2  -2  -3    0.16    0.06 
   2  -2  -3    0.23    0.13 
   2  -2  -3    0.26    0.05 
  -2   2   3    0.26    0.06 
  -2   2   3    0.13    0.06 
  -2   2   3    0.33    0.13 
   2  -1  -3   29.69    1.83 
   2  -1  -3   32.80    2.73 
   2  -1  -3   31.29    1.86 
   2  -1  -3   30.87    1.92 
  -2   1   3   30.07    2.01 
  -2   1   3   31.83    1.96 
  -2   1   3   30.42    2.01 
  -2   1   3   30.17    1.84 
  -2   1   3   31.41    1.99 
   2   0  -3   86.88    4.74 
   2   0  -3   86.54    4.69 
   2   0  -3   93.27    5.21 
  -2   0   3   91.40    4.79 
  -2   0   3   87.05    4.71 
  -2   0   3   90.70    4.86 
  -2   0   3   90.93    4.80 
   2   1  -3   34.18    1.96 
   2   1  -3   33.33    2.04 
  -2  -1   3   27.25    1.88 
  -2  -1   3   30.96    2.17 
  -2  -1   3   29.59    1.71 
  -2  -1   3   32.53    2.02 
  -2  -1   3   30.73    2.14 
  -2  -1   3   33.40    2.16 
  -2  -1   3   29.95    1.76 
   2   2  -3    0.16    0.06 
   2   2  -3    0.37    0.19 
   2   2  -3    0.07    0.03 
  -2  -2   3    0.16    0.09 
  -2  -2   3    0.05    0.04 
  -2  -2   3    0.08    0.03 
  -2  -2   3    0.32    0.20 
  -2  -2   3    0.09    0.03 
   2   3  -3    8.57    0.95 
   2   3  -3    6.48    0.79 
   2   3  -3    6.44    0.77 
   2   3  -3    5.91    0.59 
   2   3  -3    6.59    0.75 
  -2  -3   3    7.70    0.94 
  -2  -3   3    6.59    0.88 
  -2  -3   3    7.01    0.82 
  -2  -3   3    7.18    0.75 
  -2  -3   3    7.03    0.64 
  -2  -3   3    7.84    0.76 
  -2  -3   3    7.80    0.97 
   2   4  -3    4.61    0.76 
   2   4  -3    6.59    0.89 
   2   4  -3    6.69    0.79 
   2   4  -3    5.78    0.69 
  -2  -4   3    5.89    0.73 
  -2  -4   3    5.86    0.87 
  -2  -4   3    4.55    0.64 
  -2  -4   3    6.36    0.87 
   2   5  -3    1.36    0.30 
  -2  -5   3    1.44    0.31 
  -2  -5   3    1.41    0.40 
   2   6  -3    0.07    0.11 
  -2  -6   3   -0.05    0.11 
  -2  -6   3    0.10    0.14 
  -2  -6   3    0.18    0.10 
  -2  -6   3    0.04    0.14 
   2   7  -3    1.42    0.30 
  -2  -7   3    0.88    0.20 
   2   8  -3    0.59    0.34 
   2   8  -3   -0.04    0.16 
   2   8  -3   -0.14    0.21 
  -2  -8   3    0.09    0.27 
  -2  -8   3    0.39    0.18 
   1  -9  -3    0.14    0.23 
  -1   9   3    0.00    0.24 
   1  -8  -3    0.13    0.16 
   1  -8  -3    0.19    0.15 
   1  -8  -3   -0.12    0.27 
  -1   8   3   -0.01    0.17 
  -1   8   3    0.02    0.19 
  -1   8   3    0.67    0.31 
   1  -7  -3    0.14    0.21 
  -1   7   3    0.27    0.11 
  -1   7   3    0.56    0.17 
  -1   7   3    0.00    0.15 
  -1   7   3    0.68    0.26 
   1  -6  -3    0.32    0.15 
   1  -6  -3    0.01    0.13 
   1  -6  -3    0.15    0.09 
  -1   6   3    0.21    0.09 
  -1   6   3    0.11    0.10 
   1  -5  -3    3.94    0.60 
   1  -5  -3    2.00    0.42 
   1  -5  -3    2.80    0.52 
   1  -5  -3    3.38    0.51 
  -1   5   3    2.71    0.41 
  -1   5   3    2.83    0.56 
   1  -4  -3    0.18    0.05 
   1  -4  -3    0.12    0.08 
   1  -4  -3   -0.05    0.31 
  -1   4   3    0.04    0.07 
   1  -3  -3    6.40    0.72 
   1  -3  -3    6.47    0.74 
   1  -3  -3    5.25    0.43 
   1  -3  -3    6.33    0.79 
   1  -3  -3    6.65    0.73 
  -1   3   3    4.80    0.55 
  -1   3   3    5.97    0.73 
  -1   3   3    6.70    0.71 
  -1   3   3    5.12    0.71 
   1  -2  -3   16.19    1.23 
   1  -2  -3   17.09    1.09 
   1  -2  -3   15.66    1.37 
   1  -2  -3   16.36    1.22 
   1  -2  -3   16.62    1.21 
  -1   2   3   16.64    1.06 
  -1   2   3   15.98    1.16 
  -1   2   3   15.66    1.35 
  -1   2   3   16.33    1.23 
  -1   2   3   16.61    1.33 
   1  -1  -3   50.86    2.62 
   1  -1  -3   50.17    2.91 
   1  -1  -3   48.17    2.62 
   1  -1  -3   47.38    2.54 
   1  -1  -3   45.91    2.95 
  -1   1   3   45.44    2.91 
  -1   1   3   48.20    2.74 
  -1   1   3   42.99    2.78 
  -1   1   3   45.21    2.60 
   1   0  -3    0.21    0.04 
   1   0  -3    0.20    0.02 
  -1   0   3    0.26    0.16 
  -1   0   3    0.17    0.04 
   1   1  -3   59.41    2.93 
   1   1  -3   49.50    3.25 
   1   1  -3   49.19    2.74 
   1   1  -3   51.67    2.91 
  -1  -1   3   56.39    2.99 
  -1  -1   3   50.31    3.06 
  -1  -1   3   53.56    2.93 
  -1  -1   3   48.95    3.21 
  -1  -1   3   52.64    2.81 
  -1  -1   3   54.39    3.00 
  -1  -1   3   47.94    3.06 
  -1  -1   3   50.04    3.18 
   1   2  -3   18.09    1.41 
   1   2  -3   19.46    1.40 
   1   2  -3   17.28    1.38 
   1   2  -3   19.84    1.44 
  -1  -2   3   17.45    1.45 
  -1  -2   3   17.78    1.48 
  -1  -2   3   18.64    1.29 
  -1  -2   3   19.64    1.40 
  -1  -2   3   15.98    1.35 
  -1  -2   3   19.24    1.30 
  -1  -2   3   18.03    1.51 
  -1  -2   3   16.72    1.32 
   1   3  -3    6.37    0.77 
   1   3  -3    6.99    0.84 
   1   3  -3    7.43    0.79 
  -1  -3   3    5.79    0.75 
  -1  -3   3    6.17    0.63 
  -1  -3   3    8.54    0.94 
  -1  -3   3    6.92    0.86 
  -1  -3   3    7.02    0.73 
  -1  -3   3    5.64    0.64 
  -1  -3   3    6.79    0.82 
  -1  -3   3    6.57    0.82 
   1   4  -3    0.09    0.31 
   1   4  -3    0.01    0.06 
  -1  -4   3    0.01    0.05 
  -1  -4   3    0.04    0.06 
  -1  -4   3    0.10    0.08 
  -1  -4   3    0.00    0.05 
  -1  -4   3    0.10    0.07 
  -1  -4   3    0.02    0.05 
  -1  -4   3   -0.01    0.05 
   1   5  -3    1.77    0.33 
   1   5  -3    2.08    0.43 
  -1  -5   3    1.67    0.36 
   1   6  -3    0.54    0.11 
   1   6  -3    0.69    0.22 
  -1  -6   3    0.78    0.17 
   1   7  -3    0.05    0.13 
   1   7  -3    0.11    0.13 
  -1  -7   3    0.10    0.19 
  -1  -7   3    0.20    0.21 
  -1  -7   3    0.22    0.12 
   1   8  -3    0.77    0.34 
   1   8  -3    0.18    0.17 
   1   8  -3    0.24    0.16 
  -1  -8   3    0.00    0.16 
  -1  -8   3    0.04    0.26 
   1   9  -3    0.33    0.39 
   0   9   3   -0.01    0.25 
   0  -8  -3    0.09    0.17 
   0  -8  -3   -0.09    0.27 
   0   8   3    0.60    0.33 
   0   8   3    0.04    0.17 
   0  -7  -3   -0.01    0.17 
   0  -7  -3    0.41    0.19 
   0  -7  -3    0.15    0.12 
   0   7   3    0.36    0.13 
   0   7   3    0.17    0.11 
   0   7   3    0.08    0.15 
   0   7   3    0.56    0.24 
   0  -6  -3    0.25    0.11 
   0   6   3    0.10    0.09 
   0  -5  -3    0.08    0.09 
   0  -5  -3    0.28    0.10 
   0  -5  -3    0.16    0.12 
   0  -5  -3   -0.01    0.08 
   0  -5  -3    0.14    0.07 
   0   5   3    0.14    0.07 
   0   5   3    0.01    0.09 
   0  -4  -3    1.91    1.51 
   0  -4  -3    1.74    0.67 
   0  -4  -3    1.91    0.39 
   0  -4  -3    1.77    0.39 
   0  -4  -3    1.60    0.37 
   0   4   3    1.19    0.49 
   0   4   3    1.37    0.35 
   0   4   3    1.82    0.33 
   0  -3  -3    0.07    0.04 
   0  -3  -3   -0.11    0.16 
   0  -3  -3    0.01    0.04 
   0  -3  -3    0.17    0.06 
   0   3   3   -0.01    0.06 
   0   3   3    0.16    0.09 
   0   3   3    0.10    0.04 
   0   3   3    0.00    0.05 
   0  -2  -3   28.67    1.68 
   0  -2  -3   27.39    1.83 
   0  -2  -3   27.94    1.97 
   0  -2  -3   26.85    1.70 
   0   2   3   26.52    1.81 
   0   2   3   24.85    1.75 
   0   2   3   26.43    1.87 
   0   2   3   25.91    1.98 
   0  -1  -3   58.29    3.38 
   0  -1  -3   56.12    3.06 
   0  -1  -3   54.20    3.33 
   0  -1  -3   55.20    2.85 
   0   1   3   52.14    3.01 
   0   1   3   52.81    3.17 
   0   1   3   56.05    3.40 
   0   1   3   50.45    2.91 
   0   1   3   56.21    3.09 
   0   0   3    0.31    0.05 
   0   0   3    0.61    0.22 
   0   0   3    0.40    0.06 
   0   1  -3   62.87    3.81 
   0   1  -3   66.90    3.82 
   0   1  -3   65.16    3.47 
   0   1  -3   68.21    3.36 
   0  -1   3   69.89    3.64 
   0  -1   3   65.02    3.59 
   0  -1   3   62.85    3.63 
   0  -1   3   60.09    3.50 
   0  -1   3   60.68    3.76 
   0  -1   3   58.65    3.41 
   0  -1   3   56.84    3.29 
   0   2  -3   31.60    2.10 
   0  -2   3   36.82    2.30 
   0  -2   3   33.98    2.23 
   0  -2   3   35.24    2.19 
   0  -2   3   32.68    2.32 
   0  -2   3   35.80    2.32 
   0  -2   3   31.70    2.29 
   0  -2   3   36.97    2.24 
   0   3  -3    0.01    0.09 
   0  -3   3    0.04    0.04 
   0  -3   3    0.04    0.04 
   0   4  -3    1.99    0.41 
   0   4  -3    1.95    0.56 
   0   4  -3    1.59    0.29 
   0   4  -3    3.01    0.79 
   0   4  -3    2.60    0.76 
   0  -4   3    1.42    0.32 
   0  -4   3    1.53    0.39 
   0  -4   3    1.88    0.32 
   0  -4   3    1.92    0.38 
   0  -4   3    1.95    0.41 
   0  -4   3    1.49    0.32 
   0  -5   3    0.06    0.11 
   0  -5   3    0.08    0.08 
   0   6  -3    0.02    0.13 
   0   6  -3   -0.18    0.18 
   0   6  -3    0.20    0.10 
   0  -6   3    0.27    0.13 
   0  -6   3    0.03    0.09 
   0  -6   3   -0.14    0.11 
   0  -6   3    0.05    0.10 
   0   7  -3   -0.04    0.13 
   0   7  -3    0.18    0.14 
   0   7  -3    0.38    0.22 
   0  -7   3    0.20    0.14 
   0  -7   3    0.19    0.11 
   0  -7   3    0.26    0.18 
   0  -7   3    0.26    0.18 
   0   8  -3    1.03    0.32 
   0   8  -3    0.60    0.17 
   0  -8   3    0.44    0.26 
   0   9  -3    0.68    0.46 
  -1  -8  -3    0.52    0.26 
  -1  -8  -3    0.37    0.17 
   1   8   3    0.74    0.44 
   1   8   3    0.45    0.35 
  -1  -7  -3    0.13    0.16 
  -1  -7  -3    0.64    0.14 
  -1  -7  -3    0.48    0.20 
  -1  -7  -3    0.36    0.21 
   1   7   3    0.33    0.13 
   1   7   3    0.18    0.12 
  -1  -6  -3    0.90    0.27 
  -1  -6  -3    0.31    0.15 
  -1  -6  -3    0.39    0.14 
  -1  -6  -3    0.70    0.12 
   1   6   3    0.55    0.11 
   1   6   3    0.58    0.12 
   1   5   3    0.45    0.10 
  -1  -4  -3    4.53    0.55 
  -1  -4  -3    5.56    0.73 
  -1  -4  -3    5.54    2.71 
  -1  -4  -3    4.95    0.81 
  -1  -4  -3    5.50    0.72 
   1   4   3    6.18    0.80 
   1   4   3    5.76    0.75 
   1   4   3    5.10    0.75 
   1   4   3    4.73    0.67 
  -1  -3  -3    2.18    0.38 
  -1  -3  -3    1.90    0.32 
  -1  -3  -3    2.25    0.33 
  -1  -3  -3    2.14    0.52 
  -1  -3  -3    2.00    0.33 
   1   3   3    2.00    0.33 
   1   3   3    1.56    0.32 
   1   3   3    1.87    0.36 
   1   3   3    1.51    0.23 
   1   3   3    2.05    0.37 
  -1  -2  -3    3.71    0.42 
  -1  -2  -3    3.80    0.57 
  -1  -2  -3    3.65    0.52 
  -1  -2  -3    4.64    0.55 
   1   2   3    4.05    0.49 
   1   2   3    4.77    0.58 
   1   2   3    3.27    0.43 
   1   2   3    4.27    0.56 
   1   2   3    3.16    0.45 
  -1  -1  -3    8.11    0.86 
  -1  -1  -3    8.76    0.78 
  -1  -1  -3    9.24    0.83 
  -1  -1  -3    7.07    0.72 
   1   1   3    8.08    0.79 
   1   1   3    8.60    0.73 
   1   1   3    7.54    0.74 
   1   1   3    8.15    0.77 
   1   1   3    8.56    0.87 
  -1   0  -3  592.00   29.77 
  -1   0  -3  584.67   28.63 
  -1   0  -3  545.87   31.93 
  -1   0  -3  518.31   27.39 
   1   0   3  546.31   27.39 
   1   0   3  609.41   28.17 
   1   0   3  599.71   27.79 
   1   0   3  585.95   28.80 
   1   0   3  563.26   28.35 
  -1   1  -3   10.24    0.88 
  -1   1  -3    9.99    0.90 
  -1   1  -3    9.62    0.80 
  -1   1  -3   10.97    0.97 
   1  -1   3    9.61    0.89 
   1  -1   3    9.68    0.91 
   1  -1   3   10.38    0.85 
   1  -1   3   10.28    0.84 
   1  -1   3    9.74    0.97 
   1  -1   3    8.92    0.91 
   1  -1   3    8.75    0.67 
  -1   2  -3    5.63    0.62 
  -1   2  -3    4.77    0.58 
  -1   2  -3    4.78    0.58 
   1  -2   3    5.03    0.61 
   1  -2   3    5.06    0.59 
   1  -2   3    4.28    0.55 
   1  -2   3    4.71    0.60 
   1  -2   3    4.28    0.56 
   1  -2   3    5.98    0.61 
   1  -2   3    4.77    0.66 
   1  -2   3    6.60    0.75 
   1  -2   3    5.32    0.68 
  -1   3  -3    3.36    0.49 
  -1   3  -3    3.12    0.52 
  -1   3  -3    2.02    0.44 
  -1   3  -3    3.29    0.48 
   1  -3   3    3.04    0.55 
   1  -3   3    3.05    0.52 
   1  -3   3    3.61    0.59 
   1  -3   3    2.28    0.39 
   1  -3   3    2.30    0.46 
   1  -3   3    2.05    0.41 
   1  -3   3    2.26    0.40 
   1  -3   3    2.72    0.46 
  -1   4  -3   10.63    3.39 
  -1   4  -3    6.82    1.01 
  -1   4  -3    6.73    0.82 
  -1   4  -3    5.98    0.69 
   1  -4   3    6.46    0.88 
   1  -4   3    5.90    0.74 
   1  -4   3    7.30    0.93 
   1  -4   3    6.01    0.93 
   1  -4   3    5.97    0.82 
   1  -4   3    7.43    0.78 
  -1   5  -3    0.02    0.78 
  -1   5  -3    0.10    0.08 
  -1   5  -3    0.03    0.09 
   1  -5   3    0.01    0.08 
   1  -5   3    0.06    0.09 
   1  -5   3    0.23    0.12 
   1  -5   3    0.00    0.08 
   1  -5   3    0.07    0.09 
  -1   6  -3    0.87    0.28 
  -1   6  -3    0.98    0.23 
   1  -6   3    0.67    0.18 
   1  -6   3    0.84    0.13 
  -1   7  -3    0.72    0.24 
  -1   7  -3    0.46    0.15 
   1  -7   3    0.13    0.17 
   1  -7   3    0.24    0.15 
   1  -7   3    0.07    0.21 
   1  -7   3    0.45    0.12 
  -1   8  -3    0.16    0.18 
   1  -8   3    0.12    0.15 
  -2  -8  -3    0.11    0.18 
  -2  -8  -3   -0.04    0.26 
  -2  -8  -3   -0.03    0.26 
   2   8   3    0.07    0.19 
  -2  -7  -3    1.61    0.17 
  -2  -7  -3    0.95    0.21 
   2   7   3    1.17    0.55 
   2   7   3    1.31    0.24 
  -2  -6  -3    0.34    0.15 
   2   6   3    0.15    0.10 
  -2  -5  -3    1.29    0.24 
  -2  -5  -3    1.53    0.30 
  -2  -3  -3   17.09    1.32 
  -2  -3  -3   15.11    1.40 
  -2  -3  -3   15.37    1.57 
  -2  -3  -3   16.47    1.58 
   2   3   3   14.87    1.38 
   2   3   3   17.55    1.48 
   2   3   3   15.16    1.37 
   2   3   3   16.51    1.54 
   2   3   3   15.21    1.16 
  -2  -2  -3    0.31    0.08 
  -2  -2  -3    0.27    0.15 
   2   2   3    0.24    0.06 
   2   2   3    0.20    0.04 
  -2  -1  -3  165.14    8.61 
  -2  -1  -3  158.11    8.79 
  -2  -1  -3  172.47    9.35 
  -2  -1  -3  159.76    9.20 
   2   1   3  169.70    8.62 
   2   1   3  163.73    9.88 
   2   1   3  165.54    8.94 
   2   1   3  174.54    8.70 
  -2   0  -3    1.77    0.31 
  -2   0  -3    1.87    0.30 
  -2   0  -3    1.73    0.34 
   2   0   3    1.89    0.35 
   2   0   3    1.82    0.34 
   2   0   3    2.13    0.34 
   2   0   3    2.28    0.33 
   2   0   3    1.76    0.29 
  -2   1  -3  194.40    9.93 
  -2   1  -3  159.13    9.70 
  -2   1  -3  154.90    9.22 
  -2   1  -3  188.16    9.67 
   2  -1   3  178.84    9.53 
   2  -1   3  182.66    9.82 
   2  -1   3  183.73    8.87 
   2  -1   3  186.48    9.27 
   2  -1   3  201.96   10.73 
  -2   2  -3    0.19    0.09 
   2  -2   3    0.43    0.11 
   2  -2   3    0.29    0.13 
   2  -2   3    0.24    0.12 
   2  -2   3    0.29    0.12 
   2  -2   3    0.32    0.07 
  -2   3  -3   19.40    1.54 
  -2   3  -3   20.21    1.61 
  -2   3  -3   20.64    1.75 
  -2   3  -3   18.90    1.62 
  -2   3  -3   22.24    1.46 
  -2   3  -3   21.57    1.93 
   2  -3   3   18.63    1.76 
   2  -3   3   20.01    1.93 
   2  -3   3   15.84    1.57 
   2  -3   3   23.68    1.83 
   2  -3   3   20.20    1.56 
   2  -3   3   20.37    1.51 
   2  -3   3   19.30    1.56 
   2  -3   3   20.24    1.79 
  -2   4  -3    0.01    0.07 
  -2   4  -3    0.25    0.38 
  -2   4  -3    0.25    0.11 
  -2   4  -3    0.14    0.08 
   2  -4   3    0.05    0.06 
   2  -4   3    0.11    0.07 
   2  -4   3    0.01    0.06 
   2  -4   3    0.05    0.12 
   2  -4   3    0.14    0.07 
  -2   5  -3    4.55    0.58 
  -2   5  -3    5.79    0.83 
   2  -5   3    4.61    0.62 
   2  -5   3    3.68    0.55 
   2  -5   3    4.63    0.69 
   2  -5   3    3.72    0.60 
  -2   6  -3    0.31    0.11 
  -2   6  -3   -0.01    0.17 
   2  -6   3    0.21    0.10 
   2  -6   3    0.26    0.11 
   2  -6   3    0.11    0.19 
  -2   7  -3    1.94    0.35 
  -2   7  -3    3.65    0.92 
   2  -7   3    2.07    0.19 
   2  -7   3    1.95    0.34 
  -2   8  -3    0.01    0.20 
   2  -8   3    0.18    0.17 
   2  -8   3    0.06    0.16 
  -3  -8  -3   -0.14    0.28 
  -3  -8  -3   -0.27    0.25 
   3   8   3   -0.06    0.17 
  -3  -7  -3    0.16    0.22 
  -3  -7  -3    0.03    0.21 
   3   7   3   -0.03    0.16 
  -3  -6  -3    0.19    0.12 
  -3  -6  -3    0.26    0.17 
  -3  -6  -3   -0.05    0.17 
   3   6   3    0.19    0.13 
   3   6   3    0.10    0.11 
   3   5   3    0.62    0.11 
  -3  -3  -3    0.09    0.07 
  -3  -3  -3    0.00    0.06 
  -3  -3  -3    0.06    0.07 
  -3  -3  -3    0.02    0.05 
   3   3   3    0.00    0.06 
   3   3   3    0.01    0.07 
   3   3   3    0.02    0.09 
   3   3   3    0.26    0.09 
   3   3   3    0.00    0.06 
  -3  -2  -3    8.35    0.98 
  -3  -2  -3   11.13    1.23 
  -3  -2  -3    8.93    0.95 
  -3  -2  -3   11.33    1.13 
  -3  -2  -3    8.80    1.00 
   3   2   3    8.79    1.03 
   3   2   3    8.71    0.99 
   3   2   3    9.59    0.93 
   3   2   3   10.86    1.21 
   3   2   3    8.69    0.94 
  -3  -1  -3   -0.02    0.06 
  -3  -1  -3   -0.01    0.06 
  -3  -1  -3   -0.07    0.05 
  -3  -1  -3    0.00    0.05 
   3   1   3   -0.02    0.05 
   3   1   3    0.02    0.06 
   3   1   3    0.05    0.05 
   3   1   3   -0.04    0.06 
   3   1   3   -0.01    0.04 
  -3   0  -3   33.91    2.59 
  -3   0  -3   38.68    2.66 
  -3   0  -3   37.82    2.73 
  -3   0  -3   40.43    2.72 
   3   0   3   38.63    2.93 
   3   0   3   39.32    2.66 
   3   0   3   36.84    2.70 
   3   0   3   35.21    2.00 
   3   0   3   39.75    2.60 
   3   0   3   40.00    2.40 
  -3   1  -3   -0.01    0.05 
   3  -1   3   -0.05    0.04 
   3  -1   3    0.04    0.05 
   3  -1   3    0.01    0.03 
   3  -1   3    0.04    0.06 
   3  -1   3    0.01    0.06 
   3  -1   3    0.00    0.04 
  -3   2  -3    9.89    0.95 
  -3   2  -3   10.62    1.09 
  -3   2  -3   11.48    1.13 
  -3   2  -3   11.00    1.18 
   3  -2   3    9.48    1.21 
   3  -2   3   11.10    1.14 
   3  -2   3    9.66    0.88 
   3  -2   3   10.27    1.13 
   3  -2   3   11.43    1.23 
   3  -2   3    9.93    0.84 
  -3   3  -3    0.08    0.08 
  -3   3  -3    0.11    0.11 
  -3   3  -3   -0.01    0.06 
   3  -3   3    0.04    0.07 
   3  -3   3    0.08    0.07 
   3  -3   3    0.01    0.04 
   3  -3   3    0.01    0.05 
   3  -4   3    0.07    0.09 
   3  -4   3    0.00    0.15 
   3  -4   3    0.02    0.09 
  -3   5  -3    0.18    0.10 
  -3   5  -3    0.23    0.11 
   3  -5   3    0.26    0.13 
   3  -5   3    0.11    0.08 
   3  -5   3    0.41    0.14 
  -3   6  -3    0.22    0.28 
  -3   6  -3    0.21    0.12 
  -3   6  -3    0.08    0.19 
   3  -6   3    0.08    0.10 
   3  -6   3    0.00    0.12 
   3  -6   3    0.34    0.19 
  -3   7  -3    0.18    0.23 
   3  -7   3    0.40    0.14 
   3  -7   3    0.04    0.13 
   3  -7   3    0.23    0.23 
  -3   8  -3    0.62    0.28 
  -3   8  -3    0.09    0.22 
   3  -8   3    0.03    0.17 
   3  -8   3    0.13    0.20 
  -4  -7  -3   -0.04    0.24 
  -4  -7  -3    0.01    0.22 
   4   7   3   -0.08    0.17 
  -4  -6  -3    0.11    0.20 
  -4  -6  -3   -0.01    0.18 
   4   6   3    0.01    0.12 
   4   6   3    0.25    0.12 
  -4  -5  -3    0.82    0.17 
  -4  -5  -3    0.47    0.15 
  -4  -5  -3    0.92    0.22 
   4   5   3    0.63    0.11 
   4   4   3    0.69    0.12 
  -4  -3  -3    3.85    0.70 
  -4  -3  -3    2.81    0.45 
  -4  -3  -3    3.19    0.64 
   4   3   3    5.00    0.79 
   4   3   3    4.40    0.63 
   4   3   3    3.35    0.65 
  -4  -2  -3    0.05    0.05 
  -4  -2  -3    0.02    0.07 
  -4  -2  -3   -0.06    0.07 
   4   2   3    0.03    0.05 
   4   2   3   -0.04    0.06 
   4   2   3    0.09    0.08 
  -4  -1  -3    0.74    0.17 
  -4  -1  -3    1.76    0.53 
  -4  -1  -3    2.09    0.65 
   4   1   3    1.31    0.28 
   4   1   3    1.32    0.27 
   4   1   3    1.05    0.23 
   4   1   3    1.01    0.22 
  -4   0  -3    0.55    0.27 
  -4   0  -3    0.19    0.09 
  -4   0  -3    0.22    0.06 
   4   0   3    0.35    0.17 
  -4   1  -3    1.77    0.34 
  -4   1  -3    1.55    0.36 
  -4   1  -3    2.13    0.40 
  -4   1  -3    1.55    0.31 
   4  -1   3    1.37    0.28 
   4  -1   3    2.18    0.44 
   4  -1   3    1.53    0.37 
   4  -1   3    1.45    0.37 
  -4   2  -3    0.05    0.09 
  -4   2  -3    0.08    0.08 
  -4   2  -3   -0.01    0.07 
   4  -2   3   -0.05    0.08 
   4  -2   3    0.01    0.05 
  -4   3  -3    8.42    1.03 
  -4   3  -3    9.50    1.21 
   4  -3   3    8.86    1.13 
   4  -3   3    8.86    1.14 
   4  -3   3    8.59    1.15 
  -4   4  -3    0.28    0.09 
  -4   4  -3   -0.03    0.09 
  -4   4  -3    0.06    0.12 
   4  -4   3    0.13    0.11 
   4  -4   3    0.19    0.13 
  -4   5  -3    0.53    0.12 
  -4   5  -3    0.64    0.15 
  -4   5  -3    0.75    0.15 
   4  -5   3    0.41    0.10 
   4  -5   3    0.62    0.16 
  -4   6  -3    0.38    0.17 
  -4   6  -3    0.45    0.29 
  -4   6  -3    0.13    0.14 
   4  -6   3    0.19    0.12 
   4  -6   3    0.03    0.21 
   4  -6   3   -0.21    0.27 
  -4   7  -3    0.11    0.23 
  -4   7  -3    0.04    2.02 
   4  -7   3    0.12    0.17 
   4  -7   3    0.02    0.15 
   4  -7   3   -0.07    0.29 
  -5  -7  -3   -0.20    0.28 
  -5  -7  -3    0.01    0.27 
   5   7   3   -0.29    0.20 
  -5  -6  -3    1.45    0.25 
  -5  -6  -3    2.43    1.28 
   5   6   3    1.48    0.35 
   5   5   3    0.87    0.17 
   5   4   3    7.20    1.05 
  -5  -3  -3    3.31    0.55 
  -5  -3  -3    2.93    0.55 
   5   3   3    3.90    0.57 
  -5  -2  -3   14.20    1.43 
  -5  -2  -3   19.35    3.73 
  -5  -2  -3   14.31    1.56 
   5   2   3   13.27    1.49 
   5   2   3   12.99    1.31 
  -5  -1  -3    3.47    0.54 
  -5  -1  -3    3.46    0.65 
  -5  -1  -3    2.53    0.54 
   5   1   3    4.11    0.76 
   5   1   3    3.08    0.50 
   5   1   3    4.40    0.69 
  -5   0  -3   28.00    2.33 
  -5   0  -3   25.70    2.20 
  -5   0  -3   21.18    2.17 
  -5   0  -3   27.69    2.39 
   5   0   3   26.32    2.27 
   5   0   3   25.71    2.28 
   5   0   3   29.55    2.56 
  -5   1  -3    4.45    0.83 
  -5   1  -3    5.13    0.74 
  -5   1  -3    7.36    0.95 
   5  -1   3    7.29    0.97 
   5  -1   3    5.19    0.79 
  -5   2  -3   20.15    2.02 
  -5   2  -3   20.15    1.92 
   5  -2   3   20.78    2.00 
   5  -2   3   21.82    2.06 
   5  -2   3   20.80    2.15 
  -5   3  -3    3.53    0.53 
  -5   3  -3    3.22    0.51 
  -5   3  -3    3.10    0.50 
   5  -3   3    2.78    1.89 
   5  -3   3    3.26    0.52 
  -5   4  -3   13.17    1.65 
   5  -4   3   11.67    1.50 
   5  -4   3   15.00    1.70 
   5  -4   3   14.45    1.64 
  -5   5  -3    1.68    0.19 
   5  -5   3    1.33    0.23 
   5  -5   3    1.18    0.20 
  -5   6  -3    1.62    0.28 
   5  -6   3    1.30    0.20 
  -5   7  -3    0.44    0.39 
  -5   7  -3    0.31    0.29 
   5  -7   3    0.44    0.31 
  -6  -6  -3    0.13    0.25 
  -6  -5  -3    0.22    0.21 
   6   5   3    0.44    0.15 
   6   3   3    1.34    0.21 
  -6  -2  -3    0.22    0.10 
  -6  -2  -3    0.23    0.14 
  -6  -2  -3    0.09    0.10 
  -6  -2  -3   -0.03    0.12 
   6   2   3    0.10    0.12 
  -6  -1  -3    3.50    0.60 
  -6  -1  -3    3.36    0.53 
  -6  -1  -3    3.57    0.56 
   6   1   3    3.31    0.54 
   6   1   3    4.06    0.59 
   6   1   3    3.76    0.62 
  -6   0  -3    0.20    0.12 
   6   0   3    0.24    0.09 
  -6   1  -3    2.75    0.76 
   6  -1   3    2.79    0.49 
   6  -1   3    1.86    0.56 
  -6   2  -3    0.19    0.14 
  -6   2  -3    0.16    0.15 
  -6   2  -3    0.09    0.11 
   6  -2   3    0.26    0.09 
  -6   3  -3    2.02    0.25 
  -6   3  -3    1.72    0.25 
   6  -3   3    2.78    0.49 
  -6   4  -3    0.32    0.14 
  -6   4  -3   -0.01    0.17 
  -6   4  -3   -0.05    0.19 
   6  -4   3    0.10    0.11 
   6  -4   3   -0.06    0.16 
  -6   5  -3    0.82    0.20 
   6  -5   3    0.97    0.26 
   6  -5   3    0.99    0.30 
  -6   6  -3    0.09    0.26 
   6  -6   3    0.05    0.16 
   6  -6   3    0.53    0.33 
  -7  -4  -3   -0.02    0.16 
  -7  -4  -3   -0.13    0.21 
   7   4   3   -0.17    0.14 
   7   4   3    0.32    0.38 
  -7  -3  -3    0.44    0.19 
   7   3   3    1.46    0.36 
   7   3   3    0.81    0.17 
  -7  -2  -3    2.56    0.48 
  -7  -2  -3    2.52    0.32 
   7   2   3    1.85    0.29 
  -7  -1  -3    1.56    0.26 
  -7  -1  -3    2.29    0.41 
   7   1   3    1.52    0.22 
   7   1   3    1.64    0.37 
  -7   0  -3    0.57    0.15 
   7   0   3    0.44    0.20 
   7   0   3    0.34    0.12 
   7   0   3    0.08    0.14 
  -7   1  -3    2.09    0.25 
   7  -1   3    2.38    0.49 
   7  -1   3    2.53    0.29 
   7  -1   3    2.59    0.42 
  -7   2  -3    2.18    0.27 
  -7   2  -3    1.82    0.30 
   7  -2   3    2.10    0.30 
  -7   3  -3    1.06    0.21 
  -7   3  -3    1.22    0.18 
   7  -3   3    1.10    0.17 
   7  -3   3    1.38    0.43 
  -7   4  -3    0.24    0.22 
  -7   4  -3   -0.02    0.21 
   7  -4   3    0.00    0.13 
   7  -4   3    0.56    0.32 
   7  -4   3    0.14    0.19 
  -7   5  -3    0.27    0.24 
  -7   5  -3    0.22    0.26 
   7  -5   3    0.17    0.23 
   7  -5   3    0.06    0.15 
  -8  -4  -3   -0.12    0.29 
  -8  -4  -3   -0.01    0.19 
   8   4   3    0.59    0.38 
   8   4   3   -0.18    0.17 
  -8  -3  -3   -0.04    0.18 
   8   3   3    0.19    0.15 
   8   2   3    0.00    0.14 
   8   2   3   -0.48    0.33 
   8   1   3    0.31    0.14 
  -8   0  -3    0.16    0.16 
  -8   0  -3    0.12    0.20 
   8   0   3    0.09    0.16 
   8   0   3    0.08    0.13 
   8   0   3   -0.15    0.27 
  -8   1  -3    0.14    0.19 
  -8   1  -3    0.27    0.23 
   8  -1   3    0.12    0.20 
   8  -1   3    0.11    0.14 
   8  -1   3    0.16    0.30 
  -8   2  -3    0.33    0.22 
  -8   2  -3    0.38    0.18 
  -8   2  -3    0.13    0.21 
   8  -2   3   -0.14    0.31 
   8  -2   3    0.21    0.17 
   8  -2   3    0.34    0.19 
  -8   3  -3    0.34    0.19 
  -8   3  -3   -0.05    0.23 
  -8   3  -3    0.05    0.24 
   8  -3   3    0.21    0.20 
   8  -3   3    0.09    0.16 
  -8   4  -3    0.07    0.27 
  -8   4  -3    0.68    0.25 
   8  -4   3    0.60    0.35 
   8  -4   3    0.38    0.23 
  -9  -2  -3    0.02    0.16 
   9   2   3   -0.01    0.18 
   9   2   3   -0.45    0.41 
  -9  -1  -3   -0.01    0.20 
   9   1   3    0.58    0.39 
   9   1   3    0.23    0.28 
  -9   0  -3   -0.06    0.23 
  -9   0  -3    0.27    0.20 
   9   0   3    0.46    0.40 
   9   0   3    0.05    0.17 
  -9   1  -3    0.18    0.27 
  -9   1  -3    0.37    0.20 
   9  -1   3    0.05    0.17 
   9  -1   3   -0.06    0.25 
  -9   2  -3    0.06    0.26 
  -9   2  -3    0.28    0.21 
   9  -2   3    0.19    0.22 
   9  -2   3   -0.30    0.40 
   9  -2   3    0.07    0.20 
  11  -1  -4    0.19    0.16 
 -11   1   4    0.18    0.21 
 -11   1   4   -0.13    0.22 
  11   0  -4   -0.04    0.14 
 -11   0   4   -0.23    0.22 
 -11   0   4   -0.03    0.20 
  11   1  -4    0.06    0.15 
 -11  -1   4    0.04    0.21 
  10  -4  -4    0.10    0.19 
  10  -4  -4   -0.01    0.75 
 -10   4   4   -0.27    0.25 
  10  -3  -4   -0.23    0.17 
  10  -3  -4    0.10    0.14 
 -10   3   4   -0.13    0.22 
  10  -2  -4    0.04    0.12 
 -10   2   4   -0.12    0.20 
  10  -1  -4    0.35    0.15 
  10  -1  -4   -0.04    0.12 
 -10   1   4   -0.10    0.17 
 -10   1   4   -0.08    0.19 
  10   0  -4    0.19    0.13 
  10   0  -4    0.06    0.14 
 -10   0   4   -0.09    0.18 
  10   1  -4    0.10    0.14 
 -10  -1   4   -0.26    0.17 
 -10  -1   4    0.36    0.17 
  10   2  -4   -0.11    0.17 
 -10  -2   4    0.24    0.18 
  10   3  -4    0.46    0.17 
 -10  -3   4    0.06    0.19 
  10   4  -4   -0.15    0.21 
  10   4  -4   -0.14    0.18 
 -10  -4   4   -0.20    0.29 
 -10  -4   4   -0.01    0.22 
   9  -5  -4    0.11    0.15 
   9  -5  -4   -0.33    0.20 
  -9   5   4    0.36    0.24 
  -9   5   4   -0.19    0.27 
   9  -4  -4    0.42    0.50 
   9  -4  -4    0.54    0.16 
  -9   4   4    0.12    0.21 
  -9   4   4    0.50    0.23 
   9  -3  -4    0.05    0.12 
  -9   3   4   -0.10    0.18 
  -9   3   4    0.31    0.20 
   9  -2  -4    0.16    0.10 
   9  -2  -4    0.05    0.12 
  -9   2   4    0.14    0.14 
  -9   2   4   -0.18    0.16 
   9  -1  -4    0.95    0.19 
   9  -1  -4    1.38    0.22 
  -9   1   4    1.65    0.25 
  -9   1   4    1.30    0.23 
   9   0  -4    0.51    0.10 
  -9   0   4    0.46    0.14 
   9   1  -4    0.97    0.14 
  -9  -2   4    0.32    0.15 
   9   3  -4    0.25    0.16 
  -9  -3   4    0.05    0.23 
  -9  -3   4    0.27    0.16 
   9   4  -4    0.31    0.16 
  -9  -4   4    0.06    0.26 
  -9  -4   4    0.22    0.18 
   9   5  -4   -0.02    0.18 
   9   5  -4   -0.13    0.22 
  -9  -5   4    0.02    0.22 
  -9  -5   4   -0.17    0.27 
   8  -6  -4    0.71    0.33 
  -8   6   4    0.32    0.29 
   8  -5  -4   -0.08    0.26 
   8  -5  -4    0.40    0.13 
  -8   5   4    2.83    1.79 
  -8   5   4    0.23    0.20 
   8  -4  -4    0.57    0.12 
   8  -4  -4    0.67    0.15 
   8  -4  -4    0.63    0.22 
  -8   4   4    0.05    0.33 
  -8   4   4    1.26    0.35 
   8  -3  -4    0.39    0.20 
   8  -3  -4    0.09    0.10 
   8  -3  -4   -0.12    0.11 
  -8   3   4    0.05    0.15 
  -8   3   4    0.18    0.15 
   8  -2  -4    0.02    0.10 
   8  -2  -4    0.44    0.15 
  -8   2   4    0.14    0.14 
  -8   2   4    0.15    0.12 
  -8   2   4    0.06    0.13 
   8  -1  -4    3.37    0.59 
   8  -1  -4    2.97    0.44 
  -8   1   4    2.66    0.44 
  -8   1   4    3.18    0.51 
   8   0  -4   20.08    1.99 
   8   0  -4   19.17    1.83 
  -8   0   4   21.03    2.05 
  -8   0   4   16.99    1.76 
   8   1  -4    3.00    0.57 
   8   1  -4    2.83    0.50 
  -8  -1   4    2.43    0.37 
  -8  -1   4    3.31    0.52 
   8   2  -4    0.38    0.12 
  -8  -2   4    0.29    0.13 
  -8  -3   4    0.35    0.18 
  -8  -3   4    0.11    0.14 
   8   4  -4    1.12    0.18 
   8   4  -4    1.18    0.27 
  -8  -4   4    1.06    0.24 
   8   5  -4    0.62    0.15 
   8   5  -4    1.12    0.25 
  -8  -5   4    0.31    0.19 
   8   6  -4    0.22    0.22 
   8   6  -4    0.19    0.18 
  -8  -6   4    0.39    0.25 
  -8  -6   4   -0.27    0.26 
  -8  -6   4    0.00    0.22 
   7  -6  -4    0.02    0.27 
   7  -6  -4    0.10    0.16 
   7  -6  -4    0.02    0.14 
  -7   6   4    0.11    0.21 
  -7   6   4   -0.19    0.43 
  -7   5   4    0.38    0.16 
  -7   5   4    0.12    0.13 
  -7   5   4    0.22    0.17 
   7  -4  -4    0.54    0.16 
  -7   4   4    0.10    0.24 
  -7   4   4    0.52    0.14 
   7  -3  -4    1.07    0.35 
  -7   3   4    0.37    0.10 
  -7   3   4    0.63    0.14 
   7  -2  -4    1.09    0.17 
   7  -2  -4    1.30    0.30 
   7  -2  -4    0.99    0.23 
  -7   2   4    1.04    0.17 
  -7   2   4    1.15    0.16 
   7  -1  -4    1.25    0.28 
  -7   1   4    1.15    0.19 
  -7   1   4    1.16    0.25 
   7   0  -4    1.15    0.22 
   7   0  -4    0.69    0.31 
  -7   0   4    0.86    0.12 
  -7   0   4    0.91    0.18 
  -7  -1   4    0.77    0.12 
  -7  -1   4    0.56    0.29 
   7   2  -4    1.91    0.20 
   7   2  -4    1.91    0.37 
  -7  -2   4    1.86    0.39 
  -7  -2   4    1.44    0.31 
  -7  -3   4    0.77    0.14 
  -7  -3   4    0.81    0.13 
   7   4  -4    0.11    0.15 
   7   4  -4    0.34    0.10 
  -7  -4   4    0.45    0.14 
  -7  -4   4    0.06    0.18 
   7   5  -4    0.05    0.13 
  -7  -5   4    0.27    0.18 
   7   6  -4   -0.22    0.18 
   7   6  -4    0.17    0.15 
  -7  -6   4    0.04    0.22 
  -7  -6   4   -0.02    0.19 
  -7  -6   4   -0.11    0.22 
   7   7  -4   -0.22    0.18 
  -7  -7   4   -0.03    0.28 
  -7  -7   4   -0.32    0.28 
   6  -7  -4   -0.11    0.16 
   6  -7  -4    0.17    0.15 
  -6   7   4    0.10    0.22 
   6  -6  -4    0.35    0.13 
   6  -6  -4   -0.07    0.21 
   6  -6  -4    0.34    0.15 
  -6   6   4    0.06    0.17 
  -6   6   4    0.18    0.17 
  -6   6   4    0.14    0.14 
   6  -5  -4    0.16    0.15 
   6  -5  -4   -0.15    0.17 
   6  -5  -4    0.07    0.11 
   6  -5  -4   -0.13    0.11 
  -6   5   4   -0.14    0.13 
  -6   5   4    0.09    0.15 
  -6   5   4    0.13    0.11 
   6  -4  -4   -0.04    0.14 
   6  -4  -4    0.13    0.08 
   6  -4  -4    0.23    0.10 
   6  -4  -4    0.12    0.13 
  -6   4   4   -0.35    0.73 
  -6   4   4    0.07    0.10 
   6  -3  -4   -0.15    0.11 
   6  -3  -4   -0.06    0.09 
   6  -3  -4   -0.12    0.12 
  -6   3   4   -0.02    0.17 
  -6   3   4    0.03    0.08 
   6  -2  -4    0.05    0.08 
   6  -2  -4    0.18    0.07 
  -6   2   4    0.08    0.08 
  -6   2   4    0.07    0.09 
  -6   2   4    0.01    0.08 
   6  -1  -4    0.80    0.34 
  -6   1   4    0.28    0.08 
  -6   1   4    0.40    0.16 
  -6   1   4    0.83    0.28 
   6   0  -4   11.25    1.23 
   6   0  -4   14.50    1.40 
   6   0  -4   13.13    1.24 
   6   0  -4   14.29    1.18 
   6   0  -4   14.69    1.42 
  -6   0   4   14.16    1.21 
  -6   0   4   13.44    1.38 
  -6   0   4   12.01    1.17 
  -6   0   4   12.35    1.34 
  -6   0   4   13.91    1.34 
  -6   0   4   16.63    1.37 
   6   1  -4    0.85    0.26 
   6   1  -4    0.54    0.32 
   6   1  -4    0.47    0.17 
  -6  -1   4    0.28    0.25 
  -6  -1   4    0.66    0.26 
  -6  -1   4    0.70    0.16 
  -6  -1   4    1.09    0.23 
   6   2  -4    0.06    0.08 
   6   2  -4    0.09    0.14 
   6   2  -4    0.18    0.09 
  -6  -2   4    0.53    0.17 
  -6  -2   4    0.08    0.10 
  -6  -3   4    0.35    0.17 
  -6  -4   4    0.42    0.13 
  -6  -4   4    0.22    0.14 
  -6  -4   4    0.46    0.11 
   6   5  -4    0.09    0.11 
   6   5  -4    0.07    0.14 
  -6  -5   4   -0.11    0.18 
  -6  -5   4   -0.01    0.13 
  -6  -5   4    0.09    0.13 
   6   6  -4    1.07    0.22 
   6   6  -4    1.62    0.22 
  -6  -6   4    1.15    0.24 
   6   7  -4    0.09    0.16 
   6   7  -4    0.48    0.19 
  -6  -7   4    0.46    0.26 
  -6  -7   4   -0.17    0.28 
   5  -8  -4    0.08    0.86 
  -5   8   4    0.40    0.47 
  -5   8   4    0.29    0.25 
   5  -7  -4    0.04    0.13 
  -5   7   4    0.23    0.20 
  -5   7   4    0.65    0.42 
   5  -6  -4    0.59    0.22 
   5  -6  -4    0.04    0.17 
   5  -6  -4   -0.03    0.13 
  -5   6   4   -0.17    0.33 
  -5   6   4    0.17    0.16 
   5  -5  -4    0.11    0.13 
   5  -5  -4    0.09    0.09 
   5  -5  -4    0.12    0.14 
  -5   5   4    0.09    0.12 
  -5   5   4   -0.10    0.12 
  -5   5   4   -0.27    0.21 
   5  -4  -4    0.39    0.17 
   5  -4  -4    0.12    0.10 
   5  -4  -4    0.20    0.12 
   5  -4  -4    0.36    0.13 
  -5   4   4    0.32    0.10 
  -5   4   4    0.24    0.09 
  -5   4   4    0.42    0.23 
   5  -3  -4    0.17    0.10 
   5  -3  -4    0.05    0.06 
   5  -3  -4    0.55    0.28 
   5  -3  -4    0.15    0.08 
  -5   3   4   -0.08    0.68 
  -5   3   4    0.16    0.07 
  -5   3   4    0.07    0.07 
   5  -2  -4    0.13    0.06 
   5  -2  -4    0.09    0.05 
  -5   2   4    0.22    0.07 
  -5   2   4    0.22    0.06 
  -5   1   4    0.19    0.06 
  -5   1   4    0.14    0.06 
   5   0  -4    1.30    0.29 
   5   0  -4    1.03    0.35 
   5   0  -4    0.65    0.14 
  -5   0   4    0.53    0.22 
  -5   0   4    0.81    0.31 
  -5   0   4    0.92    0.32 
  -5   0   4    0.83    0.20 
   5   1  -4    0.05    0.05 
   5   1  -4    0.04    0.06 
   5   1  -4   -0.07    0.06 
   5   1  -4   -0.05    0.05 
  -5  -1   4    0.10    0.07 
  -5  -1   4    0.04    0.05 
  -5  -1   4    0.00    0.05 
  -5  -1   4    0.06    0.06 
  -5  -1   4    0.15    0.08 
   5   2  -4    0.11    0.08 
   5   2  -4   -0.03    0.07 
   5   2  -4    0.13    0.06 
  -5  -2   4    0.13    0.07 
  -5  -2   4    0.09    0.07 
  -5  -2   4    0.17    0.09 
  -5  -2   4    0.01    0.08 
  -5  -2   4    0.22    0.06 
   5   3  -4    0.20    0.07 
   5   3  -4    0.21    0.21 
  -5  -3   4    0.50    0.21 
  -5  -3   4    0.26    0.09 
  -5  -4   4    0.12    0.11 
  -5  -4   4    0.30    0.09 
  -5  -4   4    0.77    0.34 
   5   5  -4    0.22    0.11 
   5   5  -4    0.27    0.10 
   5   5  -4    0.19    0.11 
  -5  -5   4    0.12    0.10 
  -5  -5   4    0.19    0.12 
   5   6  -4    0.22    0.13 
   5   6  -4    0.19    0.14 
  -5  -6   4   -0.06    0.17 
  -5  -7   4   -0.06    0.23 
  -5  -7   4    0.04    0.24 
  -5  -7   4    0.15    0.16 
  -4   8   4    0.72    0.44 
   4  -7  -4    0.15    0.14 
   4  -7  -4    0.42    0.14 
   4  -7  -4    0.07    0.22 
   4  -7  -4    0.74    0.26 
  -4   7   4    0.91    0.31 
   4  -6  -4    0.11    0.15 
   4  -6  -4    0.23    0.09 
   4  -6  -4    0.27    0.16 
   4  -6  -4    0.19    0.12 
  -4   6   4    0.38    0.14 
   4  -5  -4    0.81    0.15 
   4  -5  -4    0.97    0.30 
  -4   5   4    1.06    0.25 
   4  -4  -4    0.14    0.08 
   4  -3  -4    0.07    0.05 
   4  -3  -4    0.09    0.05 
   4  -3  -4    0.05    0.07 
  -4   3   4    0.18    0.06 
   4  -2  -4   16.90    1.43 
   4  -2  -4   15.17    1.21 
   4  -2  -4   15.94    1.44 
   4  -2  -4   15.66    1.42 
   4  -2  -4   17.83    1.38 
  -4   2   4   13.71    1.41 
  -4   2   4   18.09    1.28 
  -4   2   4   18.39    1.29 
  -4   2   4   15.17    1.46 
  -4   2   4   15.54    1.39 
  -4   2   4   16.51    1.27 
   4  -1  -4    0.93    0.21 
   4  -1  -4    1.24    0.40 
   4  -1  -4    0.63    0.21 
   4  -1  -4    0.72    0.22 
  -4   1   4    0.92    0.28 
  -4   1   4    0.75    0.16 
  -4   1   4    0.69    0.16 
  -4   1   4    0.74    0.34 
  -4   1   4    0.59    0.19 
   4   0  -4    6.66    0.77 
   4   0  -4    7.51    0.77 
   4   0  -4    5.54    0.56 
   4   0  -4    7.10    0.80 
  -4   0   4    5.48    0.70 
  -4   0   4    6.76    0.56 
  -4   0   4    8.09    0.83 
  -4   0   4    7.82    0.85 
  -4   0   4    6.07    0.69 
  -4   0   4    6.84    0.80 
   4   1  -4    0.93    0.21 
   4   1  -4    0.58    0.09 
  -4  -1   4    0.47    0.10 
  -4  -1   4    0.67    0.29 
  -4  -1   4    0.74    0.13 
  -4  -1   4    0.54    0.23 
  -4  -1   4    0.66    0.15 
  -4  -1   4    0.68    0.20 
   4   2  -4   16.09    1.44 
   4   2  -4   16.31    1.56 
   4   2  -4   17.89    1.56 
   4   2  -4   14.07    1.15 
  -4  -2   4   15.48    1.57 
  -4  -2   4   16.73    1.49 
  -4  -2   4   14.59    1.28 
  -4  -2   4   16.11    1.55 
  -4  -2   4   16.78    1.20 
  -4  -2   4   16.46    1.59 
   4   3  -4    0.06    0.06 
   4   3  -4    0.08    0.26 
   4   3  -4    0.17    0.06 
  -4  -3   4    0.06    0.06 
  -4  -3   4    0.23    0.08 
  -4  -3   4    0.25    0.07 
  -4  -3   4    0.11    0.06 
  -4  -3   4    0.02    0.08 
   4   4  -4    0.41    0.13 
   4   4  -4    0.09    0.07 
  -4  -4   4    0.05    0.10 
   4   5  -4    0.61    0.10 
  -4  -5   4    0.89    0.14 
  -4  -5   4    0.45    0.13 
  -4  -5   4    0.63    0.16 
  -4  -6   4    0.41    0.11 
  -4  -6   4    0.12    0.15 
  -4  -6   4    0.31    0.15 
  -4  -6   4    0.15    0.16 
   4   7  -4    1.07    0.19 
  -4  -7   4    0.76    0.22 
   4   8  -4    0.21    0.17 
   4   8  -4   -0.30    0.20 
  -4  -8   4   -0.01    0.29 
  -4  -8   4   -0.24    0.26 
  -4  -8   4    0.27    0.19 
   3  -8  -4   -0.03    0.16 
   3  -8  -4    0.14    0.15 
   3  -8  -4    0.36    0.32 
  -3   8   4   -0.31    0.22 
  -3   8   4    0.03    0.20 
  -3   8   4    0.58    0.36 
   3  -7  -4    0.57    0.16 
   3  -7  -4    0.81    0.47 
   3  -7  -4    0.62    0.24 
   3  -6  -4   -0.03    0.09 
   3  -6  -4    0.01    0.09 
   3  -6  -4    0.15    0.16 
   3  -6  -4    0.19    0.15 
  -3   6   4    0.61    0.24 
   3  -5  -4    0.48    0.10 
   3  -4  -4    0.01    0.05 
  -3   4   4    0.13    0.06 
  -3   4   4    0.07    0.06 
  -3   4   4   -0.03    0.08 
   3  -3  -4    4.73    0.69 
   3  -3  -4    3.43    0.47 
   3  -3  -4    4.93    0.61 
   3  -3  -4    4.51    0.67 
   3  -3  -4    5.29    0.68 
  -3   3   4    3.87    0.43 
  -3   3   4    3.93    0.61 
  -3   3   4    3.86    0.57 
  -3   3   4    3.73    0.61 
   3  -2  -4    3.17    0.49 
   3  -2  -4    2.61    0.38 
   3  -2  -4    3.40    0.41 
   3  -2  -4    3.01    0.46 
   3  -2  -4    2.81    0.41 
  -3   2   4    2.50    0.34 
  -3   2   4    2.91    0.47 
  -3   2   4    2.14    0.35 
  -3   2   4    2.75    0.41 
   3  -1  -4    5.30    0.64 
   3  -1  -4    4.50    0.57 
   3  -1  -4    5.55    0.50 
   3  -1  -4    5.11    0.55 
   3  -1  -4    5.02    0.59 
  -3   1   4    5.73    0.61 
  -3   1   4    5.21    0.63 
  -3   1   4    4.23    0.49 
  -3   1   4    4.57    0.58 
  -3   1   4    4.20    0.54 
  -3   1   4    6.34    0.64 
   3   0  -4    2.36    0.37 
  -3   0   4    1.63    0.29 
  -3   0   4    1.86    0.33 
  -3   0   4    1.51    0.16 
  -3   0   4    1.44    0.29 
  -3   0   4    2.34    0.38 
   3   1  -4    5.49    0.65 
   3   1  -4    4.76    0.64 
  -3  -1   4    4.62    0.63 
  -3  -1   4    5.19    0.63 
  -3  -1   4    5.08    0.66 
  -3  -1   4    4.37    0.46 
  -3  -1   4    5.98    0.75 
  -3  -1   4    5.16    0.37 
  -3  -1   4    4.97    0.59 
   3   2  -4    3.15    0.48 
   3   2  -4    1.95    0.27 
  -3  -2   4    2.51    0.43 
  -3  -2   4    2.20    0.24 
  -3  -2   4    3.02    0.54 
  -3  -2   4    2.85    0.46 
  -3  -2   4    2.17    0.44 
  -3  -2   4    2.02    0.32 
   3   3  -4    4.89    0.72 
   3   3  -4    5.31    0.74 
   3   3  -4    3.78    0.51 
  -3  -3   4    4.56    0.65 
  -3  -3   4    3.72    0.49 
  -3  -3   4    4.91    0.77 
  -3  -3   4    4.26    0.67 
  -3  -3   4    5.29    0.77 
  -3  -3   4    4.87    0.55 
   3   4  -4    0.03    0.07 
   3   4  -4    0.10    0.38 
  -3  -4   4    0.14    0.08 
  -3  -4   4   -0.02    0.09 
   3   5  -4    0.67    0.12 
  -3  -5   4    0.49    0.17 
  -3  -5   4    0.79    0.14 
   3   6  -4    0.13    0.11 
   3   6  -4    0.35    0.22 
  -3  -6   4    0.45    0.13 
  -3  -6   4    0.04    0.16 
  -3  -6   4    0.27    0.17 
  -3  -6   4    0.30    0.11 
   3   7  -4    0.81    0.17 
   3   7  -4    0.54    0.16 
  -3  -7   4    0.98    0.17 
   3   8  -4    0.45    0.17 
   3   8  -4   -0.16    0.19 
  -3  -8   4   -0.09    0.18 
  -3  -8   4   -0.12    0.26 
  -3  -8   4    0.16    0.28 
   2  -8  -4   -0.25    0.19 
   2  -8  -4   -0.17    0.15 
   2  -8  -4   -0.01    0.31 
  -2   8   4   -0.31    0.24 
  -2   8   4    0.00    0.18 
  -2   8   4    0.39    0.34 
   2  -7  -4    1.29    0.20 
   2  -7  -4    1.60    0.21 
   2  -7  -4    1.63    0.28 
  -2   7   4    1.71    0.21 
   2  -6  -4    0.08    0.58 
  -2   6   4    0.62    0.19 
  -2   6   4    0.30    0.11 
   2  -5  -4    3.56    0.59 
   2  -5  -4    4.62    0.78 
  -2   5   4    4.97    0.70 
  -2   5   4    5.34    0.64 
   2  -4  -4    5.65    0.85 
   2  -4  -4    4.31    0.66 
   2  -4  -4    5.15    0.68 
   2  -4  -4    5.13    0.72 
   2  -4  -4    5.35    0.73 
  -2   4   4    4.56    0.60 
  -2   4   4    4.77    0.61 
  -2   4   4    4.58    0.69 
   2  -3  -4    6.41    0.73 
   2  -3  -4    5.80    0.70 
   2  -3  -4    5.46    0.75 
   2  -3  -4    6.07    0.70 
   2  -3  -4    4.80    0.62 
  -2   3   4    4.79    0.59 
  -2   3   4    5.37    0.71 
  -2   3   4    4.88    0.62 
  -2   3   4    4.32    0.44 
  -2   3   4    4.17    0.67 
   2  -2  -4   29.70    1.96 
   2  -2  -4   26.48    2.13 
   2  -2  -4   29.32    1.87 
   2  -2  -4   27.84    1.89 
   2  -2  -4   27.83    1.94 
  -2   2   4   28.10    1.93 
  -2   2   4   26.87    1.73 
  -2   2   4   28.06    1.91 
  -2   2   4   27.00    2.08 
   2  -1  -4   24.85    1.74 
   2  -1  -4   23.38    1.77 
   2  -1  -4   23.84    1.47 
   2  -1  -4   23.58    1.59 
   2  -1  -4   21.80    1.43 
  -2   1   4   23.82    1.62 
  -2   1   4   24.55    1.73 
  -2   1   4   24.96    1.70 
  -2   1   4   22.89    1.63 
  -2   1   4   23.14    1.67 
   2   0  -4  142.74    7.82 
   2   0  -4  147.61    7.88 
   2   0  -4  169.58    8.68 
   2   0  -4  143.02    8.69 
  -2   0   4  169.47    8.62 
  -2   0   4  148.08    7.92 
  -2   0   4  163.79    8.20 
   2   1  -4   25.63    1.58 
   2   1  -4   25.12    1.91 
   2   1  -4   24.46    1.32 
   2   1  -4   23.48    1.70 
  -2  -1   4   23.06    1.56 
  -2  -1   4   25.88    1.72 
  -2  -1   4   23.85    1.85 
  -2  -1   4   23.81    1.34 
  -2  -1   4   23.82    1.88 
  -2  -1   4   26.19    1.90 
   2   2  -4   27.93    1.95 
   2   2  -4   29.73    2.16 
   2   2  -4   30.93    2.12 
   2   2  -4   34.13    2.13 
  -2  -2   4   30.23    1.87 
  -2  -2   4   30.73    1.86 
  -2  -2   4   27.85    2.25 
  -2  -2   4   28.99    2.24 
  -2  -2   4   30.11    2.31 
   2   3  -4    5.25    0.72 
   2   3  -4    5.64    0.66 
   2   3  -4    4.36    0.56 
   2   3  -4    5.55    0.72 
   2   3  -4    5.21    0.69 
  -2  -3   4    5.80    0.63 
  -2  -3   4    5.48    0.70 
  -2  -3   4    4.55    0.64 
  -2  -3   4    4.52    0.72 
  -2  -3   4    6.28    0.62 
  -2  -3   4    4.84    0.52 
  -2  -3   4    4.55    0.72 
  -2  -3   4    4.65    0.72 
   2   4  -4    6.37    0.83 
   2   4  -4    4.50    0.68 
   2   4  -4    5.65    0.85 
   2   4  -4    6.82    0.87 
  -2  -4   4    5.91    0.92 
  -2  -4   4    5.28    0.74 
  -2  -4   4    4.57    0.66 
  -2  -4   4    5.00    0.58 
  -2  -4   4    4.71    0.63 
  -2  -4   4    4.49    0.72 
   2   5  -4    3.86    0.66 
   2   5  -4    2.71    0.77 
   2   5  -4    3.22    0.57 
  -2  -5   4    3.02    0.43 
  -2  -5   4    2.00    0.43 
  -2  -5   4    2.31    0.45 
   2   6  -4    0.24    0.12 
   2   6  -4    0.33    0.10 
   2   6  -4    0.39    0.19 
  -2  -6   4    0.10    0.15 
  -2  -6   4    0.28    0.11 
  -2  -6   4    0.35    0.15 
   2   7  -4    1.49    0.20 
  -2  -7   4    1.41    0.19 
  -2  -7   4    1.32    0.28 
   2   8  -4   -0.05    0.21 
   2   8  -4    0.12    0.17 
  -2  -8   4   -0.11    0.26 
  -2  -8   4    0.01    0.19 
   1  -8  -4    0.11    0.17 
   1  -8  -4   -0.02    0.26 
   1  -8  -4    0.13    0.17 
  -1   8   4    0.45    0.32 
  -1   8   4    0.02    0.21 
  -1   8   4    0.01    0.17 
   1  -7  -4    0.30    0.14 
   1  -7  -4    0.13    0.21 
   1  -7  -4    0.37    0.14 
  -1   7   4    0.67    0.25 
  -1   7   4    0.32    0.16 
  -1   7   4    0.07    0.15 
   1  -6  -4    0.44    0.11 
   1  -6  -4    0.55    0.11 
   1  -6  -4    0.54    0.14 
   1  -6  -4    0.50    0.15 
   1  -5  -4    0.78    0.51 
   1  -5  -4    0.73    0.78 
   1  -5  -4    0.88    0.14 
   1  -4  -4    0.36    0.15 
   1  -4  -4    0.21    0.12 
   1  -4  -4    0.49    0.17 
  -1   4   4    0.30    0.20 
  -1   4   4    0.38    0.10 
  -1   4   4    0.93    0.31 
   1  -3  -4    5.71    0.73 
   1  -3  -4    5.06    0.65 
   1  -3  -4    6.64    0.74 
   1  -3  -4    6.04    0.69 
   1  -3  -4    4.91    0.72 
   1  -3  -4    5.01    0.51 
  -1   3   4    6.59    0.77 
  -1   3   4    5.16    0.62 
  -1   3   4    5.13    0.63 
  -1   3   4    5.12    0.72 
  -1   3   4    5.64    0.72 
   1  -2  -4    0.08    0.04 
   1  -2  -4    0.01    0.03 
   1  -2  -4    0.05    0.06 
   1  -2  -4    0.07    0.03 
  -1   2   4    0.17    0.06 
  -1   2   4    0.21    0.10 
  -1   2   4    0.01    0.03 
  -1   2   4   -0.01    0.05 
  -1   2   4    0.16    0.04 
   1  -1  -4   31.67    2.13 
   1  -1  -4   28.95    1.78 
   1  -1  -4   28.59    1.77 
   1  -1  -4   30.20    2.57 
  -1   1   4   29.77    2.01 
  -1   1   4   28.47    2.00 
  -1   1   4   29.66    1.90 
  -1   1   4   29.58    1.96 
  -1   1   4   29.99    1.99 
   1   0  -4   23.23    1.76 
   1   0  -4   23.63    1.49 
   1   0  -4   23.91    1.36 
   1   0  -4   22.28    1.71 
  -1   0   4   24.25    1.80 
  -1   0   4   24.57    1.67 
  -1   0   4   22.64    1.60 
  -1   0   4   24.13    1.65 
  -1   0   4   25.99    1.73 
  -1   0   4   22.68    1.65 
   1   1  -4   34.47    2.02 
   1   1  -4   33.19    2.29 
   1   1  -4   31.39    1.81 
   1   1  -4   33.95    1.91 
  -1  -1   4   31.60    2.28 
  -1  -1   4   34.30    2.33 
  -1  -1   4   27.37    1.86 
  -1  -1   4   32.24    2.08 
  -1  -1   4   34.07    2.24 
  -1  -1   4   32.58    2.15 
  -1  -1   4   29.18    2.09 
   1   2  -4    0.15    0.04 
   1   2  -4    0.12    0.05 
   1   2  -4    0.05    0.04 
   1   2  -4    0.08    0.04 
  -1  -2   4    0.08    0.04 
  -1  -2   4    0.05    0.04 
  -1  -2   4    0.04    0.04 
  -1  -2   4    0.02    0.04 
  -1  -2   4    0.05    0.03 
  -1  -2   4    0.04    0.03 
   1   3  -4    6.91    0.79 
   1   3  -4    5.65    0.88 
   1   3  -4    6.28    0.75 
   1   3  -4    7.01    0.86 
  -1  -3   4    4.93    0.73 
  -1  -3   4    5.66    0.68 
  -1  -3   4    7.21    0.71 
  -1  -3   4    7.29    0.86 
  -1  -3   4    6.09    0.82 
  -1  -3   4    7.13    0.89 
  -1  -3   4    5.27    0.69 
  -1  -3   4    6.48    0.76 
  -1  -3   4    6.33    0.70 
  -1  -3   4    5.40    0.73 
   1   4  -4    0.43    0.12 
   1   4  -4    0.49    0.17 
   1   4  -4    0.53    0.15 
  -1  -4   4    0.55    0.12 
  -1  -4   4    0.33    0.12 
  -1  -4   4    0.80    0.30 
  -1  -4   4    0.36    0.18 
  -1  -4   4    0.48    0.12 
  -1  -4   4    0.57    0.16 
  -1  -5   4    0.66    0.15 
   1   6  -4    1.08    0.32 
   1   6  -4    0.76    0.21 
   1   6  -4    0.52    0.12 
  -1  -6   4    0.60    0.13 
  -1  -6   4    0.59    0.13 
   1   7  -4    0.63    0.14 
  -1  -7   4    0.50    0.13 
  -1  -7   4    0.24    0.20 
   1   8  -4    0.36    0.19 
   1   8  -4    0.81    0.35 
  -1  -8   4   -0.04    0.19 
  -1  -8   4   -0.05    0.27 
   0  -8  -4    0.12    0.19 
   0  -8  -4    0.00    0.28 
   0   8   4    0.06    0.20 
   0  -7  -4    0.14    0.20 
   0  -7  -4   -0.06    0.23 
   0   7   4    0.08    0.18 
   0   7   4    0.07    0.11 
   0   7   4    0.02    0.15 
   0  -6  -4   -0.09    0.14 
   0  -6  -4   -0.14    0.11 
   0  -6  -4    0.34    0.13 
   0   6   4    0.09    0.09 
   0   6   4    0.02    0.10 
   0   6   4    0.09    0.15 
   0  -5  -4    0.12    0.07 
   0  -5  -4    0.25    0.10 
   0  -5  -4    0.19    0.11 
   0   5   4    0.08    0.07 
   0   5   4    0.17    0.11 
   0   5   4    0.00    0.08 
   0  -4  -4    0.26    0.07 
   0  -4  -4    0.07    0.07 
   0  -4  -4    0.24    0.08 
   0  -4  -4    0.17    0.05 
   0   4   4    0.33    0.08 
   0  -3  -4    5.89    0.80 
   0  -3  -4    5.52    0.69 
   0  -3  -4    4.93    0.56 
   0  -3  -4    5.61    0.65 
   0  -3  -4    6.24    0.83 
   0   3   4    5.55    0.73 
   0   3   4    5.14    0.59 
   0   3   4    6.05    0.74 
   0   3   4    5.93    0.70 
   0  -2  -4    5.80    0.72 
   0  -2  -4    6.00    0.64 
   0  -2  -4    6.42    0.76 
   0  -2  -4    7.37    0.72 
   0  -2  -4    5.85    0.60 
   0   2   4    6.34    0.63 
   0   2   4    5.77    0.63 
   0   2   4    6.75    0.75 
   0   2   4    7.26    0.78 
   0   2   4    5.97    0.71 
   0  -1  -4    0.62    0.14 
   0  -1  -4    0.72    0.13 
   0  -1  -4    0.82    0.18 
   0  -1  -4    1.09    0.21 
   0  -1  -4    0.98    0.31 
   0   1   4    1.17    0.23 
   0   1   4    0.89    0.16 
   0   1   4    0.83    0.14 
   0   1   4    0.95    0.27 
   0   1   4    1.12    0.25 
   0   1   4    0.95    0.29 
   0   0  -4   49.80    2.74 
   0   0  -4   45.21    2.47 
   0   0  -4   41.72    2.85 
   0   0  -4   48.94    3.12 
   0   0   4   50.15    2.93 
   0   0   4   46.90    2.94 
   0   0   4   47.84    2.97 
   0   0   4   47.83    2.86 
   0   1  -4    1.33    0.22 
   0   1  -4    0.97    0.17 
   0   1  -4    1.00    0.18 
   0  -1   4    0.74    0.15 
   0  -1   4    1.04    0.21 
   0  -1   4    1.06    0.22 
   0  -1   4    1.04    0.19 
   0  -1   4    1.58    0.30 
   0  -1   4    1.00    0.23 
   0   2  -4    7.45    0.75 
   0   2  -4    8.36    0.76 
   0   2  -4    7.71    0.85 
   0   2  -4    7.50    0.87 
   0  -2   4    7.95    0.86 
   0  -2   4    8.28    0.80 
   0  -2   4    8.01    0.85 
   0  -2   4    7.82    0.78 
   0  -2   4    8.89    0.90 
   0  -2   4    7.69    0.86 
   0  -2   4    8.00    0.83 
   0   3  -4    8.60    0.83 
   0   3  -4    8.91    0.90 
   0  -3   4    6.83    0.87 
   0  -3   4    5.90    0.78 
   0  -3   4    6.44    0.84 
   0  -3   4    7.44    0.85 
   0  -3   4    6.70    0.88 
   0  -3   4    7.18    0.83 
   0  -3   4    8.97    0.88 
   0  -3   4    8.58    0.94 
   0   4  -4    0.09    0.07 
   0   4  -4    0.03    0.07 
   0   4  -4   -0.09    0.13 
   0   4  -4    0.02    0.07 
   0  -4   4   -0.04    0.06 
   0  -4   4    0.03    0.10 
   0  -4   4    0.00    0.05 
   0  -4   4   -0.08    0.06 
   0  -4   4   -0.03    0.07 
   0  -4   4    0.00    0.06 
   0  -4   4    0.08    0.06 
   0  -4   4    0.01    0.07 
   0  -4   4   -0.04    0.07 
   0   5  -4    0.19    0.23 
   0   5  -4    0.29    0.09 
   0  -5   4    0.15    0.09 
   0  -5   4    0.08    0.09 
   0  -5   4    0.13    0.09 
   0   6  -4    0.06    0.12 
   0   6  -4   -0.12    0.11 
   0  -6   4   -0.04    0.15 
   0  -6   4   -0.04    0.10 
   0  -6   4    0.02    0.10 
   0  -6   4   -0.02    0.13 
   0   7  -4    0.01    0.14 
   0  -7   4    0.14    0.13 
   0  -7   4    0.32    0.12 
   0  -7   4   -0.01    0.18 
   0  -7   4    0.01    0.20 
  -1  -8  -4   -0.23    0.24 
  -1  -8  -4    0.12    0.20 
   1   8   4   -0.02    0.19 
  -1  -7  -4   -0.03    0.19 
  -1  -7  -4    0.24    0.15 
   1   7   4    0.17    0.12 
   1   7   4    0.10    0.15 
  -1  -6  -4    1.69    0.37 
  -1  -6  -4    2.19    0.36 
  -1  -6  -4    1.85    0.24 
  -1  -5  -4    1.76    0.28 
   1   5   4    1.75    0.29 
   1   5   4    1.50    0.27 
  -1  -4  -4    9.66    1.15 
  -1  -4  -4   10.62    4.09 
  -1  -4  -4   10.45    1.27 
  -1  -4  -4   10.94    1.09 
   1   4   4    9.47    1.11 
   1   4   4    9.21    1.05 
   1   4   4   11.24    1.24 
  -1  -3  -4    1.23    0.24 
  -1  -3  -4    1.18    0.25 
  -1  -3  -4    1.83    0.57 
   1   3   4    1.60    0.37 
   1   3   4    1.08    0.21 
   1   3   4    1.18    0.20 
   1   3   4    1.06    0.28 
   1   3   4    1.06    0.22 
  -1  -2  -4   53.61    2.93 
  -1  -2  -4   52.24    3.58 
  -1  -2  -4   56.62    3.25 
  -1  -2  -4   49.87    3.25 
  -1  -2  -4   53.03    3.54 
   1   2   4   51.00    3.26 
   1   2   4   55.96    3.68 
   1   2   4   49.58    3.34 
   1   2   4   55.08    3.21 
   1   2   4   53.41    3.18 
  -1  -1  -4    0.42    0.19 
   1   1   4    0.48    0.10 
   1   1   4    0.38    0.17 
  -1   0  -4   14.42    2.47 
  -1   0  -4   16.53    1.40 
  -1   0  -4   17.36    1.30 
  -1   0  -4   16.96    1.40 
   1   0   4   15.55    1.36 
   1   0   4   15.17    1.33 
   1   0   4   15.87    1.36 
   1   0   4   14.52    1.07 
   1   0   4   16.49    1.28 
   1   0   4   16.08    1.45 
  -1   1  -4    0.34    0.05 
  -1   1  -4    0.39    0.16 
  -1   1  -4    0.45    0.17 
  -1   1  -4    0.21    0.08 
   1  -1   4    0.20    0.11 
   1  -1   4    0.41    0.09 
  -1   2  -4   60.19    3.92 
  -1   2  -4   66.23    3.92 
  -1   2  -4   66.71    4.11 
  -1   2  -4   68.06    4.17 
   1  -2   4   64.54    3.91 
   1  -2   4   70.05    4.07 
   1  -2   4   71.44    4.00 
   1  -2   4   62.21    3.89 
   1  -2   4   73.43    4.53 
   1  -2   4   68.71    4.21 
   1  -2   4   62.39    3.66 
   1  -2   4   63.98    4.08 
  -1   3  -4    1.81    0.37 
  -1   3  -4    1.50    0.30 
  -1   3  -4    2.21    0.38 
  -1   3  -4    1.76    0.34 
   1  -3   4    1.38    0.33 
   1  -3   4    2.24    0.39 
   1  -3   4    2.34    0.69 
   1  -3   4    2.02    0.37 
   1  -3   4    1.47    0.34 
   1  -3   4    1.89    0.33 
   1  -3   4    1.39    0.29 
   1  -3   4    1.77    0.32 
  -1   4  -4   13.25    1.27 
  -1   4  -4   12.50    1.15 
  -1   4  -4   12.75    1.23 
  -1   4  -4   12.70    1.45 
  -1   4  -4   13.28    1.32 
   1  -4   4   12.36    1.35 
   1  -4   4   11.17    1.19 
   1  -4   4   10.60    1.22 
   1  -4   4   12.09    1.18 
   1  -4   4   11.81    1.21 
   1  -4   4   13.30    1.38 
   1  -4   4   10.59    1.24 
   1  -4   4   12.37    1.26 
   1  -4   4   12.05    1.44 
  -1   5  -4    1.54    0.38 
  -1   5  -4    2.03    0.37 
  -1   5  -4    1.64    0.26 
   1  -5   4    1.90    0.43 
   1  -5   4    1.43    0.32 
   1  -6   4    1.43    0.15 
   1  -6   4    0.95    0.22 
   1  -6   4    1.72    0.27 
  -1   7  -4    0.45    0.16 
  -1   7  -4   -0.19    0.24 
  -1   7  -4    0.28    0.14 
   1  -7   4    0.38    0.18 
   1  -7   4    0.26    0.13 
   1  -7   4    0.22    0.14 
  -1   8  -4    0.10    0.19 
   1  -8   4    0.19    0.16 
   1  -8   4    0.07    0.19 
  -2  -8  -4    0.49    0.28 
  -2  -8  -4   -0.31    0.28 
   2   8   4   -0.03    0.20 
  -2  -7  -4    0.39    0.21 
  -2  -7  -4    0.62    0.22 
   2   7   4    0.05    0.13 
   2   7   4   -0.26    0.27 
  -2  -6  -4    0.28    0.15 
  -2  -6  -4    0.41    0.17 
  -2  -6  -4    0.14    0.15 
   2   6   4    0.16    0.10 
  -2  -5  -4    2.68    0.46 
  -2  -5  -4    3.77    0.63 
   2   5   4    3.24    0.49 
   2   5   4    3.73    0.45 
  -2  -4  -4    0.61    0.13 
  -2  -3  -4   17.27    1.36 
  -2  -3  -4   18.96    4.22 
  -2  -3  -4   18.87    1.81 
   2   3   4   16.16    1.52 
   2   3   4   18.55    1.75 
   2   3   4   17.58    1.40 
   2   3   4   19.18    1.62 
  -2  -2  -4    1.66    0.33 
  -2  -2  -4    1.43    0.32 
  -2  -2  -4    1.54    0.23 
  -2  -2  -4    1.59    0.32 
   2   2   4    2.02    0.35 
   2   2   4    1.78    0.38 
   2   2   4    1.43    0.27 
   2   2   4    1.50    0.36 
   2   2   4    1.96    0.37 
  -2  -1  -4   12.56    1.19 
  -2  -1  -4   10.95    1.16 
  -2  -1  -4   10.32    1.02 
  -2  -1  -4   10.16    0.99 
   2   1   4   10.51    1.21 
   2   1   4   11.02    1.03 
   2   1   4   11.46    1.05 
   2   1   4   11.52    1.16 
   2   1   4   11.04    1.07 
  -2   0  -4   49.53    3.34 
  -2   0  -4   48.02    3.20 
  -2   0  -4   55.05    3.53 
  -2   0  -4   50.32    3.35 
   2   0   4   56.64    3.27 
   2   0   4   56.55    3.83 
   2   0   4   54.67    3.41 
   2   0   4   55.18    3.21 
   2   0   4   55.52    3.55 
  -2   1  -4   14.61    1.30 
  -2   1  -4   12.19    1.17 
  -2   1  -4   10.90    1.14 
  -2   1  -4   13.66    1.39 
   2  -1   4   13.19    1.14 
   2  -1   4   13.07    1.36 
   2  -1   4   12.61    1.25 
   2  -1   4   14.45    1.12 
   2  -1   4   13.71    1.37 
  -2   2  -4    1.95    0.31 
  -2   2  -4    2.52    0.42 
  -2   2  -4    1.56    0.29 
  -2   2  -4    2.42    0.46 
  -2   2  -4    1.40    0.28 
   2  -2   4    1.66    0.37 
   2  -2   4    2.26    0.51 
   2  -2   4    1.98    0.42 
  -2   3  -4   23.61    1.89 
  -2   3  -4   20.53    1.77 
  -2   3  -4   22.56    1.82 
  -2   3  -4   21.93    1.85 
  -2   3  -4   22.53    2.02 
   2  -3   4   24.68    2.26 
   2  -3   4   23.95    2.07 
   2  -3   4   21.50    1.76 
   2  -3   4   20.71    1.89 
   2  -3   4   24.61    1.90 
   2  -3   4   26.09    2.02 
   2  -3   4   24.34    1.80 
  -2   4  -4    0.00    0.07 
  -2   4  -4    0.11    0.08 
  -2   4  -4    0.08    0.09 
   2  -4   4   -0.05    0.08 
   2  -4   4    0.00    0.06 
   2  -4   4   -0.02    0.08 
   2  -4   4    0.01    0.07 
   2  -4   4   -0.05    0.14 
   2  -4   4    0.12    0.06 
  -2   5  -4    7.87    1.05 
  -2   5  -4    6.99    0.88 
  -2   5  -4    5.52    0.69 
   2  -5   4    7.80    0.94 
   2  -5   4    4.78    0.65 
   2  -5   4    6.69    0.94 
   2  -5   4    5.37    0.90 
  -2   6  -4    0.13    0.12 
  -2   6  -4    0.44    0.17 
   2  -6   4   -0.01    0.10 
   2  -6   4    0.05    0.11 
   2  -6   4    0.12    0.15 
   2  -6   4   -0.27    0.21 
  -2   7  -4    0.68    0.24 
   2  -7   4    0.50    0.15 
   2  -7   4    0.56    0.21 
  -2   8  -4    0.10    0.25 
   2  -8   4    0.12    0.21 
   2  -8   4    0.01    0.19 
  -3  -8  -4   -0.24    0.28 
  -3  -8  -4   -0.33    0.30 
   3   8   4   -0.16    0.21 
  -3  -7  -4    0.18    0.21 
   3   7   4   -0.08    0.15 
  -3  -6  -4    0.58    0.19 
  -3  -6  -4    0.18    0.19 
  -3  -6  -4    0.17    0.16 
   3   6   4    0.24    0.11 
  -3  -5  -4    0.08    0.15 
   3   5   4    0.32    0.09 
  -3  -4  -4    0.95    0.32 
  -3  -4  -4   -0.01    0.65 
  -3  -3  -4    0.75    0.30 
  -3  -3  -4    1.56    0.33 
  -3  -3  -4    1.12    0.28 
  -3  -3  -4    1.70    0.37 
   3   3   4    1.06    0.25 
   3   3   4    0.40    0.38 
   3   3   4    1.00    0.20 
  -3  -2  -4    0.09    0.08 
  -3  -2  -4    0.02    0.06 
  -3  -2  -4    0.03    0.07 
  -3  -2  -4   -0.02    0.14 
  -3  -2  -4    0.17    0.07 
   3   2   4    0.14    0.07 
   3   2   4    0.03    0.06 
   3   2   4    0.34    0.14 
  -3  -1  -4    0.00    0.08 
  -3  -1  -4    0.11    0.07 
  -3  -1  -4   -0.01    0.06 
   3   1   4    0.08    0.06 
   3   1   4    0.03    0.05 
  -3   0  -4   41.89    3.07 
  -3   0  -4   36.21    3.10 
  -3   0  -4   47.39    3.21 
  -3   0  -4   47.55    3.17 
   3   0   4   47.19    3.48 
   3   0   4   46.63    3.25 
   3   0   4   46.28    3.13 
   3   0   4   47.69    2.90 
  -3   1  -4   -0.02    0.07 
  -3   1  -4    0.11    0.06 
   3  -1   4    0.07    0.07 
   3  -1   4    0.01    0.05 
   3  -1   4    0.08    0.07 
  -3   2  -4    0.02    0.05 
  -3   2  -4    0.17    0.09 
  -3   2  -4    0.03    0.08 
  -3   2  -4    0.16    0.10 
   3  -2   4    0.14    0.07 
   3  -2   4    0.01    0.05 
   3  -2   4    0.06    0.07 
   3  -2   4    0.07    0.08 
   3  -2   4    0.03    0.06 
  -3   3  -4    3.51    0.50 
   3  -3   4    3.02    0.53 
   3  -3   4    3.09    0.45 
   3  -3   4    3.28    0.52 
  -3   4  -4   -0.01    0.09 
  -3   4  -4    0.15    0.08 
  -3   4  -4    0.12    0.12 
   3  -4   4    0.20    0.11 
   3  -4   4    0.07    0.11 
   3  -4   4    0.05    0.07 
   3  -4   4    0.19    0.07 
  -3   5  -4   -0.17    0.12 
  -3   5  -4    0.35    0.14 
   3  -5   4    0.07    0.14 
   3  -5   4   -0.09    0.19 
   3  -5   4    0.09    0.09 
   3  -5   4   -0.02    0.12 
   3  -5   4    0.19    0.10 
  -3   6  -4    0.32    0.20 
  -3   6  -4    0.09    0.27 
  -3   6  -4    0.15    0.13 
   3  -6   4    0.09    0.12 
   3  -6   4    0.16    0.11 
   3  -6   4   -0.06    0.18 
   3  -6   4    0.47    0.19 
  -3   7  -4    0.36    0.24 
   3  -7   4    0.17    0.14 
   3  -7   4    0.06    0.15 
  -3   8  -4   -0.04    0.23 
  -3   8  -4    0.11    0.30 
   3  -8   4    0.37    0.36 
   3  -8   4    0.03    0.18 
   3  -8   4    0.01    0.19 
  -4  -7  -4    0.00    0.26 
  -4  -7  -4    0.09    0.24 
   4   7   4   -0.16    0.15 
  -4  -6  -4    0.45    0.20 
  -4  -6  -4    0.04    0.19 
   4   6   4    0.59    0.34 
  -4  -5  -4    0.25    0.17 
  -4  -5  -4    0.01    0.16 
  -4  -5  -4    0.48    0.15 
   4   5   4    0.28    0.09 
   4   5   4    0.05    0.11 
  -4  -4  -4    0.16    0.16 
  -4  -4  -4    0.21    0.13 
   4   4   4    0.34    0.13 
   4   4   4    0.12    0.09 
   4   4   4    0.05    0.09 
  -4  -3  -4    0.41    0.16 
   4   3   4    0.75    0.13 
  -4  -2  -4    0.29    0.17 
  -4  -1  -4    5.44    0.80 
  -4  -1  -4    6.69    0.94 
  -4  -1  -4    5.61    0.83 
   4   1   4    4.64    0.65 
   4   1   4    6.76    0.98 
  -4   0  -4    0.23    0.09 
  -4   0  -4    0.31    0.09 
   4   0   4    0.15    0.09 
   4   0   4    0.08    0.08 
   4   0   4    0.25    0.11 
  -4   1  -4    6.76    0.99 
  -4   1  -4   10.26    1.19 
  -4   1  -4    9.47    1.13 
   4  -1   4    9.30    1.17 
   4  -1   4    9.07    1.09 
   4  -1   4    7.19    0.97 
  -4   2  -4    0.34    0.09 
  -4   2  -4    0.46    0.12 
   4  -2   4    0.21    0.10 
   4  -2   4    0.16    0.09 
   4  -2   4    0.77    0.25 
  -4   3  -4    0.35    0.11 
   4  -3   4    0.31    0.10 
   4  -3   4    0.18    0.11 
   4  -3   4    0.42    0.08 
  -4   4  -4    0.42    0.15 
  -4   4  -4    0.54    0.12 
  -4   4  -4    0.61    0.13 
   4  -4   4    0.73    0.15 
  -4   5  -4    0.49    0.15 
  -4   5  -4    0.29    0.12 
  -4   5  -4    0.20    0.17 
   4  -5   4    0.30    0.10 
   4  -5   4    0.33    0.17 
   4  -5   4    0.08    0.18 
  -4   6  -4    0.21    0.20 
   4  -6   4    0.23    0.19 
   4  -6   4    0.13    0.13 
   4  -6   4    0.43    0.25 
  -4   7  -4    0.45    0.39 
  -4   7  -4   -0.03    0.24 
   4  -7   4    0.49    0.30 
   5   5   4    1.27    0.39 
  -5  -4  -4    0.98    0.20 
  -5  -4  -4    0.66    0.17 
   5   4   4    0.83    0.12 
  -5  -3  -4    0.81    0.26 
  -5  -3  -4    0.92    0.27 
   5   3   4    1.08    0.16 
  -5  -2  -4    3.68    1.00 
   5   2   4    2.05    0.49 
   5   2   4    2.49    0.60 
  -5  -1  -4    2.33    0.48 
  -5  -1  -4    1.46    0.56 
  -5  -1  -4    1.35    0.18 
   5   1   4    1.67    0.23 
  -5   0  -4   23.94    2.26 
  -5   0  -4   19.77    1.96 
  -5   0  -4   17.65    1.85 
   5   0   4   23.14    2.15 
   5   0   4   19.47    2.08 
   5   0   4   22.47    2.03 
  -5   1  -4    1.97    0.31 
  -5   1  -4    2.28    0.39 
   5  -1   4    1.94    0.49 
   5  -1   4    2.00    0.35 
   5  -1   4    2.61    0.47 
  -5   2  -4    6.35    0.93 
  -5   2  -4    6.69    0.87 
   5  -2   4    6.73    0.92 
   5  -2   4    6.30    0.98 
   5  -2   4    8.16    1.04 
  -5   3  -4    1.34    0.21 
  -5   3  -4    1.11    0.17 
   5  -3   4    0.95    0.32 
   5  -3   4    0.91    0.20 
   5  -3   4    1.30    0.21 
  -5   4  -4    1.65    0.23 
  -5   4  -4    1.87    0.23 
   5  -4   4    1.82    0.25 
  -5   5  -4    0.13    0.20 
   5  -5   4    0.07    0.23 
   5  -5   4    0.43    0.13 
  -5   6  -4    1.11    0.23 
   5  -6   4    0.70    0.25 
   5  -6   4    0.79    0.19 
   5  -6   4    1.03    0.31 
  -5   7  -4   -0.02    0.31 
   5  -7   4    0.02    0.18 
  -6  -6  -4    0.26    0.27 
   6   5   4    1.11    0.37 
  -6  -3  -4    0.12    0.13 
  -6  -3  -4    0.17    0.21 
  -6  -3  -4    0.14    0.16 
  -6  -2  -4    0.73    0.25 
   6   2   4    0.70    0.14 
   6   2   4    0.58    0.14 
  -6  -1  -4    0.85    0.14 
  -6  -1  -4    1.21    0.20 
  -6  -1  -4    0.84    0.13 
   6   1   4    1.22    0.25 
   6   1   4    0.99    0.16 
  -6   0  -4    0.69    0.15 
  -6   0  -4    0.74    0.16 
   6   0   4    0.60    0.19 
   6   0   4    0.91    0.20 
   6   0   4    0.70    0.17 
  -6   1  -4    1.39    0.18 
  -6   1  -4    1.07    0.15 
   6  -1   4    1.18    0.19 
   6  -1   4    0.98    0.16 
  -6   2  -4    1.32    0.19 
  -6   2  -4    1.04    0.26 
   6  -2   4    1.61    0.30 
   6  -2   4    1.58    0.23 
  -6   3  -4    0.15    0.12 
  -6   3  -4    0.14    0.18 
  -6   3  -4    0.01    0.17 
   6  -3   4   -0.27    0.24 
   6  -3   4   -0.02    0.63 
  -6   4  -4    0.67    0.22 
  -6   4  -4    0.07    0.19 
   6  -4   4    0.23    0.17 
   6  -4   4    0.00    0.12 
   6  -4   4    0.56    0.29 
  -6   5  -4    0.19    0.24 
  -6   5  -4   -0.02    0.22 
   6  -5   4   -0.25    0.29 
   6  -5   4    0.02    0.14 
  -6   6  -4    0.24    0.31 
  -6   6  -4    0.02    0.25 
   6  -6   4    0.03    0.17 
   6  -6   4    0.52    0.37 
  -7  -5  -4   -0.31    0.27 
   7   5   4    0.35    0.48 
  -7  -4  -4   -0.40    0.27 
  -7  -4  -4   -0.04    0.17 
   7   4   4   -0.18    0.15 
  -7  -3  -4    0.97    0.23 
  -7  -3  -4    1.44    0.25 
   7   3   4    1.21    0.31 
  -7  -2  -4    0.69    0.19 
  -7  -2  -4    0.95    0.15 
   7   2   4    0.54    0.17 
  -7  -1  -4    1.34    0.22 
   7   1   4    1.22    0.17 
   7   1   4    1.37    0.31 
   7   1   4    0.82    0.24 
  -7   0  -4    0.29    0.14 
  -7   0  -4   -0.10    0.17 
   7   0   4   -0.08    0.13 
   7   0   4    0.39    0.26 
   7   0   4    0.05    0.16 
  -7   1  -4    1.50    0.19 
   7  -1   4    1.67    0.34 
   7  -1   4    1.48    0.27 
  -7   2  -4    0.60    0.21 
  -7   2  -4    0.67    0.20 
   7  -2   4    0.60    0.14 
  -7   3  -4    0.78    0.24 
  -7   3  -4    0.52    0.24 
  -7   3  -4    0.80    0.23 
   7  -3   4    0.81    0.19 
   7  -3   4    0.37    0.83 
   7  -3   4    1.16    0.31 
  -7   4  -4    0.41    0.25 
  -7   4  -4    0.26    0.23 
   7  -4   4    0.05    0.36 
   7  -4   4    0.06    0.21 
   7  -4   4    0.03    0.17 
  -7   5  -4    0.07    0.29 
  -8  -3  -4   -0.30    0.29 
  -8  -3  -4   -0.03    0.20 
   8   3   4    0.08    0.18 
   8   3   4    0.41    0.37 
  -8  -2  -4    0.24    0.19 
   8   2   4   -0.03    0.17 
  -8  -1  -4   -0.08    0.21 
  -8  -1  -4   -0.03    0.17 
   8   1   4    0.01    0.15 
  -8   0  -4    0.20    0.13 
  -8   0  -4   -0.15    0.21 
   8   0   4    0.19    0.21 
   8   0   4   -0.43    0.35 
   8   0   4    0.04    0.15 
  -8   1  -4    0.17    0.17 
  -8   1  -4   -0.06    0.22 
  -8   1  -4    0.15    0.23 
   8  -1   4    0.12    0.20 
   8  -1   4   -0.39    0.34 
   8  -1   4    0.04    0.18 
  -8   2  -4    0.25    0.18 
  -8   2  -4    0.33    0.28 
  -8   2  -4   -0.24    0.23 
   8  -2   4   -0.43    0.36 
   8  -2   4    0.06    0.18 
   8  -2   4    0.07    0.24 
  -8   3  -4    0.03    0.19 
  -8   3  -4   -0.09    0.25 
   8  -3   4    0.05    1.00 
   8  -3   4   -0.01    0.23 
  11  -2  -5    0.05    0.16 
  11  -1  -5    0.06    0.15 
 -11   1   5    0.19    0.22 
  11   0  -5    0.17    0.16 
 -11   0   5    0.21    0.21 
  11   1  -5   -0.05    0.15 
 -11  -1   5    0.21    0.17 
  11   2  -5   -0.18    0.19 
  11   2  -5    0.14    0.17 
  10  -4  -5    0.45    0.19 
  10  -4  -5    0.04    0.16 
 -10   4   5   -0.37    0.25 
 -10   4   5   -0.42    0.26 
  10  -3  -5    0.09    0.15 
  10  -3  -5   -0.20    0.17 
 -10   3   5    0.02    0.24 
  10  -2  -5    0.10    0.16 
  10  -2  -5    0.05    0.13 
 -10   2   5    0.26    0.20 
  10  -1  -5    0.15    0.13 
  10  -1  -5   -0.09    0.12 
 -10   1   5   -0.22    0.18 
  10   0  -5    0.18    0.14 
 -10   0   5   -0.05    0.17 
  10   1  -5   -0.14    0.14 
 -10  -1   5   -0.20    0.17 
 -10  -1   5    0.48    0.18 
  10   2  -5    0.37    0.15 
 -10  -2   5    0.45    0.15 
  10   3  -5    0.42    0.20 
 -10  -3   5    0.01    0.20 
   9  -5  -5   -0.20    0.21 
   9  -5  -5    0.06    0.15 
  -9   5   5    0.43    0.26 
  -9   5   5   -0.02    0.24 
   9  -4  -5    0.02    0.15 
   9  -4  -5    0.44    0.16 
  -9   4   5    0.22    0.22 
  -9   4   5   -0.15    0.20 
   9  -3  -5   -0.13    0.15 
   9  -3  -5    0.18    0.13 
  -9   3   5    0.32    0.19 
  -9   3   5    0.21    0.18 
   9  -2  -5    0.14    0.10 
   9  -2  -5   -0.15    0.14 
  -9   2   5    0.12    0.16 
  -9   2   5   -0.05    0.16 
   9  -1  -5    0.36    0.09 
   9  -1  -5    0.25    0.11 
  -9   1   5    0.20    0.13 
  -9   1   5    0.20    0.15 
   9   0  -5    1.53    0.25 
   9   0  -5    1.24    0.15 
  -9   0   5    1.28    0.20 
  -9   0   5    1.03    0.19 
   9   1  -5    0.65    0.11 
  -9  -1   5    0.42    0.14 
   9   2  -5    0.42    0.14 
  -9  -2   5    0.05    0.18 
  -9  -2   5    0.15    0.15 
   9   4  -5    0.37    0.19 
  -9  -4   5    0.01    0.19 
  -9  -4   5    0.43    0.26 
   9   5  -5    0.03    0.18 
   9   5  -5   -0.01    0.22 
  -9  -5   5    0.01    0.21 
  -9  -5   5    0.35    0.30 
   8  -6  -5    0.20    0.18 
   8  -6  -5   -0.06    0.20 
  -8   6   5    0.06    0.24 
  -8   6   5   -0.24    0.23 
   8  -5  -5    0.57    0.13 
  -8   5   5    0.34    0.19 
  -8   5   5    0.29    0.20 
   8  -4  -5    0.18    0.11 
   8  -4  -5    0.29    0.13 
  -8   4   5    0.19    0.17 
  -8   4   5    0.25    0.16 
   8  -3  -5    1.66    0.31 
   8  -3  -5    1.33    0.25 
  -8   3   5    1.74    0.23 
  -8   3   5    0.97    0.17 
   8  -2  -5    0.44    0.10 
   8  -2  -5    0.19    0.10 
  -8   2   5    0.18    0.13 
  -8   2   5    0.33    0.13 
   8  -1  -5    4.54    0.72 
   8  -1  -5    4.19    0.58 
  -8   1   5    3.24    0.54 
  -8   1   5    3.92    0.50 
   8   0  -5    8.37    1.03 
   8   0  -5    9.68    1.18 
  -8   0   5    8.26    1.04 
  -8   0   5    6.79    1.06 
   8   1  -5    4.57    0.64 
   8   1  -5    5.80    0.93 
  -8  -1   5    4.62    0.74 
  -8  -1   5    3.65    0.52 
  -8  -1   5    3.51    0.54 
   8   2  -5    0.63    0.14 
  -8  -2   5    0.65    0.15 
  -8  -2   5    0.40    0.15 
  -8  -3   5    1.26    0.23 
  -8  -3   5    1.04    0.19 
   8   4  -5    0.31    0.16 
   8   4  -5    0.17    0.14 
   8   4  -5   -0.03    0.14 
  -8  -4   5   -0.14    0.17 
  -8  -4   5    0.20    0.19 
  -8  -4   5   -0.01    0.15 
   8   5  -5    0.50    0.23 
   8   5  -5    0.73    0.21 
  -8  -5   5    0.54    0.23 
   8   6  -5    0.23    0.24 
   8   6  -5    0.63    0.21 
  -8  -6   5    0.41    0.26 
   7  -6  -5   -0.06    0.16 
   7  -6  -5   -0.04    0.15 
  -7   6   5   -0.20    0.23 
  -7   6   5   -0.13    0.21 
   7  -5  -5    0.38    0.20 
   7  -5  -5    0.34    0.11 
  -7   5   5    0.11    0.14 
  -7   5   5    0.72    0.19 
  -7   5   5    0.48    0.16 
   7  -4  -5    0.58    0.14 
   7  -4  -5    0.73    0.14 
   7  -4  -5    0.50    0.12 
  -7   4   5    0.65    0.15 
   7  -3  -5    5.66    0.81 
   7  -3  -5    5.09    0.80 
  -7   3   5    5.54    0.71 
  -7   3   5    4.61    0.67 
   7  -2  -5    2.36    0.43 
   7  -2  -5    3.59    0.61 
  -7   2   5    2.49    0.41 
  -7   2   5    2.12    0.40 
   7  -1  -5    0.06    0.07 
   7  -1  -5    0.19    0.08 
  -7   1   5    0.17    0.09 
   7   0  -5    2.21    0.45 
   7   0  -5    2.43    0.51 
   7   1  -5    0.11    0.34 
   7   1  -5    0.13    0.09 
  -7  -1   5    0.29    0.09 
   7   2  -5    2.33    0.43 
   7   2  -5    3.62    0.60 
   7   2  -5    3.61    0.60 
  -7  -2   5    3.27    0.39 
  -7  -2   5    2.68    0.38 
  -7  -2   5    3.18    0.45 
   7   3  -5    5.11    0.85 
   7   3  -5    5.94    0.88 
   7   3  -5    6.06    0.84 
  -7  -3   5    4.99    0.85 
  -7  -3   5    6.72    0.87 
   7   4  -5    1.24    0.20 
  -7  -4   5    1.17    0.20 
   7   5  -5    0.19    0.13 
   7   5  -5    0.46    0.15 
  -7  -5   5    0.09    0.14 
  -7  -5   5    0.28    0.18 
  -7  -6   5    0.00    0.19 
  -7  -6   5    0.58    0.23 
  -7  -6   5    0.27    0.22 
   6  -7  -5    0.41    0.18 
   6  -7  -5    0.34    0.16 
  -6   7   5    0.12    0.23 
   6  -6  -5    0.48    0.14 
  -6   6   5    0.65    0.18 
  -6   6   5    0.98    0.21 
   6  -5  -5    3.68    0.68 
   6  -5  -5    4.65    0.73 
  -6   5   5    3.93    0.48 
  -6   5   5    4.58    0.69 
   6  -4  -5    6.33    0.74 
   6  -4  -5    5.65    0.82 
   6  -4  -5    5.01    0.76 
  -6   4   5    4.60    0.63 
  -6   4   5    5.33    0.67 
   6  -3  -5    4.00    0.64 
  -6   3   5    4.68    0.59 
  -6   3   5    3.66    0.69 
   6  -2  -5   12.12    1.24 
  -6   2   5    9.86    0.97 
  -6   2   5   11.38    1.30 
  -6   2   5    9.17    1.17 
   6  -1  -5   10.23    1.14 
   6  -1  -5    7.81    0.95 
  -6   1   5    6.93    0.83 
  -6   1   5    9.70    0.91 
  -6   1   5    8.39    1.03 
  -6   1   5    9.85    1.09 
   6   0  -5    0.22    0.08 
  -6   0   5    0.34    0.07 
  -6   0   5    0.15    0.07 
  -6   0   5    0.65    0.28 
  -6   0   5    0.26    0.10 
   6   1  -5    8.99    1.03 
   6   1  -5    6.76    0.85 
   6   1  -5    6.42    0.92 
   6   1  -5    8.99    1.07 
  -6  -1   5    6.66    0.83 
  -6  -1   5    6.36    0.87 
  -6  -1   5    7.75    1.05 
  -6  -1   5    7.72    1.01 
   6   2  -5   14.22    1.55 
   6   2  -5   12.74    1.31 
   6   2  -5   13.35    1.43 
   6   2  -5    9.69    1.33 
  -6  -2   5   13.25    1.47 
  -6  -2   5   15.17    1.59 
  -6  -2   5   11.22    1.43 
  -6  -2   5   16.04    1.66 
  -6  -2   5   10.63    1.24 
   6   3  -5   11.49    1.35 
   6   3  -5   13.37    1.50 
   6   3  -5    7.20    3.73 
   6   3  -5   10.25    1.28 
  -6  -3   5   11.70    1.39 
  -6  -3   5   11.25    1.31 
   6   4  -5    6.27    0.91 
   6   4  -5    4.40    0.65 
   6   4  -5    6.20    0.86 
  -6  -4   5    6.36    0.95 
  -6  -4   5    5.91    0.75 
  -6  -4   5    6.67    0.91 
   6   5  -5    4.14    0.67 
   6   5  -5    4.51    0.70 
  -6  -5   5    2.69    0.43 
   6   6  -5    0.56    0.16 
  -6  -6   5    0.65    0.18 
   6   7  -5    1.22    0.21 
  -6  -7   5    0.82    0.25 
   5  -8  -5    0.06    0.20 
  -5   8   5   -0.49    0.48 
  -5   8   5    0.13    0.25 
  -5   7   5    0.49    0.21 
  -5   7   5    0.91    0.41 
   5  -6  -5    0.13    0.12 
   5  -6  -5    0.29    0.11 
   5  -6  -5    0.11    0.17 
   5  -6  -5    0.30    1.22 
  -5   6   5    0.64    0.17 
   5  -5  -5   -0.04    0.14 
   5  -5  -5    0.11    0.09 
   5  -5  -5    0.11    0.11 
   5  -5  -5    0.08    0.14 
  -5   5   5    0.12    0.15 
  -5   5   5    0.11    0.11 
   5  -4  -5    1.45    0.32 
   5  -4  -5    1.51    0.31 
   5  -3  -5    0.17    0.10 
   5  -3  -5    0.18    0.08 
  -5   3   5    0.27    0.11 
  -5   3   5    0.20    0.08 
   5  -2  -5    0.01    0.05 
  -5   2   5    0.00    0.06 
  -5   2   5   -0.06    0.09 
  -5   2   5    0.16    0.07 
  -5   2   5    0.08    0.07 
  -5   2   5    0.08    0.06 
   5  -1  -5    5.57    0.74 
   5  -1  -5    4.42    0.58 
   5  -1  -5    6.87    0.82 
   5  -1  -5    6.62    0.75 
  -5   1   5    5.80    0.55 
  -5   1   5    5.76    0.69 
  -5   1   5    6.87    0.82 
  -5   1   5    5.37    0.74 
   5   0  -5    0.07    0.06 
   5   0  -5    0.19    0.04 
   5   0  -5    0.39    0.19 
  -5   0   5    0.10    0.06 
  -5   0   5    0.10    0.06 
   5   1  -5    6.34    0.82 
   5   1  -5    6.65    0.80 
   5   1  -5    5.61    0.75 
   5   1  -5    6.04    0.83 
  -5  -1   5    5.57    0.78 
  -5  -1   5    6.40    0.86 
  -5  -1   5    6.46    0.85 
  -5  -1   5    5.67    0.81 
   5   2  -5    0.07    0.07 
   5   2  -5    0.08    0.08 
   5   2  -5    0.10    0.06 
   5   2  -5    0.04    0.07 
  -5  -2   5    0.00    0.07 
  -5  -2   5   -0.01    0.07 
  -5  -2   5    0.02    0.08 
   5   3  -5    0.18    0.07 
  -5  -3   5    0.30    0.11 
  -5  -3   5    0.12    0.06 
  -5  -3   5   -0.02    0.08 
  -5  -3   5    0.13    0.09 
   5   4  -5    2.30    0.38 
  -5  -4   5    1.85    0.40 
  -5  -4   5    1.87    0.24 
   5   5  -5   -0.01    0.11 
   5   5  -5    0.11    0.10 
  -5  -5   5    0.10    0.11 
  -5  -5   5    0.14    0.13 
  -5  -6   5    0.22    0.20 
   5   7  -5    0.11    0.18 
  -5  -7   5    0.14    0.24 
  -5  -7   5   -0.06    0.22 
   5   8  -5   -0.01    0.19 
  -5  -8   5   -0.19    0.31 
  -4   8   5    0.05    0.22 
  -4   8   5    0.10    0.26 
  -4   8   5    0.51    0.45 
   4  -7  -5    0.34    0.14 
   4  -7  -5    0.44    0.27 
   4  -7  -5    0.11    0.13 
  -4   7   5    0.73    0.37 
  -4   7   5    0.75    0.21 
   4  -6  -5   -0.11    1.14 
   4  -6  -5    0.22    0.15 
   4  -6  -5    0.19    0.10 
   4  -5  -5    0.77    0.23 
  -4   5   5    1.96    0.62 
  -4   5   5    1.23    0.15 
  -4   5   5    1.49    0.26 
   4  -4  -5    0.22    0.09 
  -4   4   5    0.06    0.08 
   4  -3  -5    1.01    0.36 
   4  -3  -5    1.00    0.32 
   4  -3  -5    0.94    0.17 
  -4   3   5    0.71    0.14 
   4  -2  -5    4.92    0.72 
   4  -2  -5    5.36    0.56 
   4  -2  -5    4.18    0.65 
   4  -2  -5    5.27    0.66 
  -4   2   5    4.67    0.64 
  -4   2   5    5.99    0.65 
  -4   2   5    3.22    0.61 
  -4   2   5    4.34    0.56 
   4  -1  -5    0.24    0.08 
  -4   1   5    0.19    0.06 
   4   0  -5    9.50    0.97 
   4   0  -5    9.38    1.01 
  -4   0   5    9.10    0.99 
  -4   0   5    8.53    0.61 
  -4   0   5    7.87    0.95 
  -4   0   5   10.71    1.06 
  -4   0   5    8.54    0.91 
  -4   0   5    8.17    0.93 
   4   1  -5    0.07    0.05 
   4   1  -5    0.03    0.04 
  -4  -1   5    0.05    0.03 
  -4  -1   5    0.09    0.07 
  -4  -1   5    0.07    0.04 
  -4  -1   5    0.03    0.05 
   4   2  -5    4.74    0.66 
   4   2  -5    4.34    0.66 
   4   2  -5    4.05    0.62 
  -4  -2   5    3.53    0.59 
  -4  -2   5    3.66    0.40 
  -4  -2   5    3.04    0.52 
  -4  -2   5    4.52    0.72 
  -4  -2   5    4.37    0.70 
  -4  -2   5    3.78    0.63 
   4   3  -5    0.37    0.08 
   4   3  -5    0.37    0.08 
   4   3  -5    0.18    0.09 
  -4  -3   5    1.33    0.53 
  -4  -3   5    0.30    0.12 
  -4  -3   5    0.26    0.09 
  -4  -3   5    0.40    0.07 
   4   4  -5   -0.03    0.08 
   4   4  -5   -0.09    0.08 
   4   4  -5    0.04    0.62 
  -4  -4   5    0.07    0.07 
  -4  -4   5    0.11    0.18 
  -4  -4   5    0.14    0.09 
   4   5  -5    0.53    0.12 
   4   5  -5    0.53    0.11 
  -4  -5   5    0.33    0.09 
  -4  -5   5    0.76    0.16 
  -4  -5   5    0.31    0.13 
  -4  -5   5    0.62    0.12 
   4   6  -5    0.34    0.12 
   4   6  -5    0.35    0.13 
  -4  -6   5    0.22    0.12 
  -4  -6   5    0.25    0.15 
   4   7  -5    0.43    0.16 
   4   7  -5    0.31    0.16 
  -4  -7   5    0.18    0.20 
  -4  -7   5   -0.18    0.23 
  -4  -7   5    0.16    0.15 
   4   8  -5    0.12    0.22 
   4   8  -5   -0.05    0.18 
  -4  -8   5    0.17    0.30 
  -4  -8   5   -0.16    0.26 
  -4  -8   5    0.03    0.21 
   3  -8  -5   -0.04    0.16 
   3  -8  -5    0.06    0.20 
   3  -8  -5    0.54    0.34 
  -3   8   5    0.35    0.43 
  -3   8   5    0.03    0.19 
  -3   8   5    0.17    0.26 
   3  -7  -5    0.68    0.80 
   3  -7  -5    0.30    0.14 
   3  -7  -5    0.28    0.20 
   3  -7  -5   -0.05    0.26 
  -3   7   5    0.20    0.18 
  -3   7   5    0.29    0.17 
   3  -6  -5    0.24    1.17 
   3  -6  -5    0.10    0.15 
   3  -6  -5    0.17    0.11 
  -3   6   5    0.06    0.14 
   3  -5  -5    6.08    0.89 
   3  -5  -5    6.19    0.87 
   3  -5  -5    7.36    1.11 
  -3   5   5    7.45    0.85 
  -3   5   5    7.60    1.02 
   3  -4  -5    2.55    0.50 
   3  -4  -5    2.94    0.54 
   3  -3  -5   49.21    3.57 
   3  -3  -5   44.49    3.12 
   3  -3  -5   52.10    3.21 
   3  -3  -5   52.15    3.30 
   3  -3  -5   47.79    3.17 
  -3   3   5   47.45    3.08 
  -3   3   5   51.91    3.21 
  -3   3   5   45.31    2.79 
  -3   3   5   47.38    3.40 
   3  -2  -5    0.26    0.05 
   3  -2  -5    0.20    0.07 
  -3   2   5    0.19    0.06 
   3  -1  -5  123.97    7.43 
   3  -1  -5  123.08    6.68 
   3  -1  -5  134.32    6.79 
   3  -1  -5  121.47    6.58 
  -3   1   5  106.75    6.64 
  -3   1   5  139.00    7.17 
  -3   1   5  120.33    6.88 
  -3   1   5  130.42    7.32 
  -3   1   5  134.70    7.33 
  -3   1   5  137.27    6.98 
   3   0  -5   41.80    2.96 
   3   0  -5   44.95    2.76 
  -3   0   5   43.04    2.81 
  -3   0   5   36.42    2.65 
  -3   0   5   41.63    2.79 
  -3   0   5   46.31    2.99 
  -3   0   5   46.60    2.92 
   3   1  -5  128.89    7.09 
   3   1  -5  129.32    7.76 
   3   1  -5  119.27    6.93 
  -3  -1   5  139.97    7.11 
  -3  -1   5  143.01    7.46 
  -3  -1   5  127.97    6.95 
  -3  -1   5  136.49    7.64 
  -3  -1   5  123.59    7.04 
  -3  -2   5    0.11    0.05 
  -3  -2   5    0.06    0.05 
  -3  -2   5    0.13    0.04 
  -3  -2   5    0.13    0.07 
  -3  -2   5    0.18    0.08 
   3   3  -5   51.33    3.71 
   3   3  -5   48.62    3.37 
   3   3  -5   50.90    3.32 
   3   3  -5   45.74    3.28 
   3   3  -5   49.74    3.22 
  -3  -3   5   46.61    2.96 
  -3  -3   5   47.82    3.61 
  -3  -3   5   48.08    3.60 
  -3  -3   5   46.20    3.25 
  -3  -3   5   51.13    3.10 
  -3  -3   5   51.01    3.60 
   3   4  -5    1.48    0.32 
  -3  -4   5    1.18    0.27 
  -3  -4   5    1.07    0.22 
   3   5  -5    3.70    0.80 
  -3  -5   5    3.23    0.57 
  -3  -5   5    3.66    0.56 
   3   6  -5    0.69    0.14 
   3   6  -5    0.17    0.11 
  -3  -6   5    0.48    0.16 
  -3  -6   5    0.39    0.17 
  -3  -6   5    0.33    0.12 
   3   7  -5    0.28    0.16 
   3   7  -5    0.57    0.16 
  -3  -7   5    0.13    0.20 
  -3  -7   5    0.28    0.20 
  -3  -7   5    0.28    0.15 
   3   8  -5    0.00    0.17 
   3   8  -5   -0.06    0.19 
  -3  -8   5   -0.07    0.29 
  -3  -8   5   -0.08    0.18 
   2  -8  -5    0.01    0.16 
   2  -8  -5   -0.22    0.17 
   2  -8  -5   -0.01    0.32 
  -2   8   5   -0.03    0.18 
  -2   8   5    0.43    0.29 
  -2   8   5    0.25    0.36 
   2  -7  -5    0.35    0.15 
   2  -7  -5    0.01    0.21 
   2  -7  -5    0.12    0.24 
  -2   7   5    0.07    0.16 
   2  -6  -5    0.09    0.09 
   2  -6  -5    0.16    0.63 
   2  -6  -5    0.88    0.49 
   2  -6  -5    0.24    0.15 
  -2   6   5    0.04    0.11 
   2  -5  -5    3.15    0.57 
   2  -5  -5    2.18    0.40 
  -2   5   5    3.60    0.56 
  -2   5   5    3.27    0.39 
   2  -4  -5    0.14    0.08 
  -2   4   5    0.11    0.08 
  -2   4   5    0.03    0.08 
  -2   4   5    0.18    0.08 
   2  -3  -5   29.06    2.04 
   2  -3  -5   29.18    2.11 
   2  -3  -5   26.79    2.31 
   2  -3  -5   27.98    1.83 
   2  -3  -5   29.28    2.09 
  -2   3   5   26.07    2.24 
  -2   3   5   26.74    2.02 
  -2   3   5   25.99    1.77 
  -2   3   5   28.54    2.29 
  -2   3   5   29.80    2.10 
   2  -2  -5   92.24    5.04 
   2  -2  -5   92.22    5.38 
   2  -2  -5   94.14    4.93 
   2  -2  -5   90.41    5.63 
  -2   2   5   87.90    4.86 
  -2   2   5   88.11    5.34 
  -2   2   5   85.80    5.09 
  -2   2   5   86.28    5.10 
  -2   2   5   91.86    5.58 
   2  -1  -5   37.00    2.60 
   2  -1  -5   36.08    2.29 
   2  -1  -5   35.01    2.60 
   2  -1  -5   37.33    2.16 
  -2   1   5   38.75    2.42 
  -2   1   5   38.74    2.56 
  -2   1   5   39.77    2.54 
  -2   1   5   37.31    2.53 
  -2   1   5   34.86    2.41 
   2   0  -5    1.27    0.29 
  -2   0   5    1.53    0.46 
  -2   0   5    1.55    0.27 
  -2   0   5    1.69    0.30 
  -2   0   5    1.99    0.39 
  -2   0   5    1.52    0.30 
   2   1  -5   35.60    2.00 
   2   1  -5   37.03    2.02 
   2   1  -5   36.45    2.45 
   2   1  -5   37.83    2.73 
   2   1  -5   39.89    2.23 
  -2  -1   5   37.13    2.40 
  -2  -1   5   41.52    2.74 
  -2  -1   5   38.59    2.59 
  -2  -1   5   37.04    2.28 
  -2  -1   5   40.21    2.55 
   2   2  -5   96.96    5.34 
   2   2  -5   91.90    6.96 
   2   2  -5   95.70    5.99 
   2   2  -5   98.65    5.39 
  -2  -2   5   97.74    5.36 
  -2  -2   5   98.22    5.85 
  -2  -2   5   88.86    5.08 
  -2  -2   5   99.84    5.31 
  -2  -2   5   95.90    5.58 
  -2  -2   5   89.05    5.41 
  -2  -2   5   96.27    5.72 
  -2  -2   5   93.43    5.92 
   2   3  -5   31.07    2.16 
   2   3  -5   31.14    2.24 
   2   3  -5   29.87    2.46 
   2   3  -5   28.34    2.24 
   2   3  -5   24.70    2.11 
  -2  -3   5   29.01    1.95 
  -2  -3   5   27.95    2.39 
  -2  -3   5   27.13    2.13 
  -2  -3   5   28.71    2.43 
  -2  -3   5   28.13    2.09 
  -2  -3   5   29.92    2.00 
  -2  -3   5   29.19    2.23 
  -2  -3   5   28.00    2.32 
  -2  -4   5    0.26    0.11 
  -2  -4   5    0.07    0.09 
   2   5  -5    2.10    0.39 
   2   5  -5    2.55    0.46 
  -2  -5   5    2.24    0.38 
  -2  -5   5    2.36    0.35 
  -2  -5   5    3.02    0.45 
   2   6  -5    0.32    0.13 
   2   6  -5    0.43    0.13 
   2   6  -5    0.54    0.12 
  -2  -6   5    0.18    0.12 
  -2  -6   5    0.04    0.16 
  -2  -6   5    0.28    0.14 
   2   7  -5    0.94    0.22 
   2   8  -5   -0.27    0.20 
   2   8  -5    0.64    0.27 
  -2  -8   5    0.12    0.29 
  -2  -8   5   -0.03    0.18 
   1  -8  -5    0.21    0.19 
   1  -8  -5    0.16    0.30 
  -1   8   5   -0.01    0.18 
  -1   8   5   -0.08    0.23 
  -1   8   5    0.28    0.34 
   1  -7  -5    0.53    0.28 
   1  -7  -5    0.14    0.13 
   1  -7  -5    0.15    0.13 
   1  -7  -5    0.12    0.19 
  -1   7   5   -0.21    0.20 
  -1   7   5    0.17    0.11 
  -1   7   5    0.49    0.27 
  -1   7   5    0.01    0.15 
   1  -6  -5    0.28    0.15 
   1  -6  -5    0.14    0.10 
   1  -5  -5    0.07    0.10 
   1  -5  -5    0.25    0.41 
  -1   5   5    0.11    0.08 
   1  -4  -5    0.08    0.05 
   1  -4  -5    0.31    0.10 
  -1   4   5    0.21    0.07 
  -1   4   5    0.07    0.11 
  -1   4   5    0.15    0.08 
   1  -3  -5    0.10    0.06 
   1  -3  -5    0.06    0.04 
  -1   3   5    0.00    0.05 
  -1   3   5    0.03    0.07 
  -1   3   5    0.12    0.06 
   1  -2  -5    2.13    0.35 
   1  -2  -5    1.92    0.36 
   1  -2  -5    1.72    0.30 
   1  -2  -5    1.76    0.27 
   1  -2  -5    2.10    0.39 
  -1   2   5    1.91    0.32 
  -1   2   5    2.42    0.44 
  -1   2   5    1.99    0.34 
  -1   2   5    2.51    0.42 
   1  -1  -5    0.56    0.13 
   1  -1  -5    0.43    0.10 
  -1   1   5    1.02    0.33 
  -1   1   5    0.61    0.22 
  -1   1   5    0.63    0.11 
  -1   1   5    0.59    0.15 
   1   0  -5    0.31    0.06 
   1   0  -5    0.41    0.06 
  -1   0   5    0.35    0.16 
  -1   0   5    0.34    0.06 
   1   1  -5    0.43    0.09 
   1   1  -5    0.37    0.10 
   1   1  -5    0.33    0.13 
  -1  -1   5    1.20    0.41 
  -1  -1   5    0.44    0.10 
  -1  -1   5    0.45    0.15 
  -1  -1   5    0.97    0.31 
   1   2  -5    2.74    0.45 
   1   2  -5    2.35    0.36 
  -1  -2   5    2.16    0.40 
  -1  -2   5    1.72    0.35 
  -1  -2   5    1.89    0.35 
  -1  -2   5    2.19    0.44 
  -1  -2   5    1.66    0.40 
  -1  -2   5    2.16    0.35 
  -1  -2   5    1.53    0.49 
   1   3  -5    0.00    0.06 
   1   3  -5   -0.06    0.10 
   1   3  -5    0.08    0.06 
  -1  -3   5    0.08    0.08 
  -1  -3   5    0.00    0.05 
  -1  -3   5    0.01    0.06 
  -1  -3   5   -0.01    0.05 
  -1  -3   5    0.02    0.06 
  -1  -3   5    0.02    0.05 
  -1  -3   5    0.18    0.08 
   1   4  -5    0.22    0.07 
   1   4  -5    0.02    0.08 
  -1  -4   5    0.02    0.07 
  -1  -4   5    0.11    0.06 
  -1  -4   5    0.00    0.06 
  -1  -4   5   -0.02    0.08 
  -1  -4   5    0.23    0.10 
  -1  -4   5    0.07    0.07 
   1   5  -5    0.03    0.70 
  -1  -5   5   -0.02    0.13 
  -1  -5   5    0.07    0.11 
  -1  -5   5    0.22    0.09 
   1   6  -5    0.16    0.12 
   1   6  -5    0.38    0.13 
  -1  -6   5    0.29    0.13 
  -1  -6   5   -0.01    0.15 
  -1  -6   5    0.29    0.11 
  -1  -6   5    0.16    0.10 
   1   7  -5    0.10    0.16 
   1   7  -5    0.16    0.14 
   1   7  -5   -0.01    0.16 
  -1  -7   5    0.16    0.22 
  -1  -7   5   -0.07    0.21 
  -1  -7   5    0.29    0.14 
  -1  -7   5    0.21    0.13 
   1   8  -5   -0.06    0.20 
   1   8  -5   -0.17    0.20 
  -1  -8   5   -0.03    0.18 
  -1  -8   5    0.64    0.28 
   0  -8  -5    0.19    0.28 
   0  -8  -5    0.01    0.20 
   0   8   5    0.00    0.18 
   0   8   5   -0.19    0.38 
   0  -6  -5    0.55    0.16 
   0  -6  -5    0.37    0.11 
   0   6   5    0.18    0.09 
   0  -5  -5    0.39    0.82 
   0  -5  -5    0.31    0.11 
   0  -5  -5    0.34    0.11 
   0  -4  -5    0.06    0.06 
   0  -4  -5    0.17    0.09 
   0   4   5    0.10    0.07 
   0   4   5    0.06    0.17 
   0   4   5    0.00    0.07 
   0   4   5    0.00    0.09 
   0  -3  -5    0.08    0.06 
   0   3   5    0.08    0.05 
   0   3   5    0.08    0.06 
   0  -2  -5   12.95    1.28 
   0  -2  -5   11.78    0.95 
   0  -2  -5   11.67    1.22 
   0  -2  -5   14.04    1.14 
   0   2   5   10.73    0.93 
   0   2   5   13.82    1.18 
   0   2   5   11.90    1.17 
   0   2   5   12.85    1.25 
   0   2   5   11.97    1.11 
   0   2   5   11.74    1.13 
   0  -1  -5    0.06    0.05 
   0  -1  -5    0.06    0.05 
   0  -1  -5   -0.01    0.05 
   0   1   5    0.00    0.04 
   0   1   5    0.03    0.04 
   0   1   5    0.03    0.05 
   0   0  -5    0.18    0.09 
   0   0  -5    0.26    0.08 
   0   0  -5    0.15    0.05 
   0   0  -5    0.18    0.05 
   0   0   5    0.27    0.08 
   0   0   5    0.22    0.10 
   0   1  -5    0.12    0.05 
   0   1  -5    0.07    0.06 
   0  -1   5    0.24    0.09 
   0  -1   5    0.09    0.05 
   0  -1   5    0.12    0.05 
   0   2  -5   14.35    1.40 
   0   2  -5   15.45    1.19 
   0   2  -5   15.23    1.17 
   0   2  -5   13.60    1.30 
   0  -2   5   14.47    1.19 
   0  -2   5   11.87    1.29 
   0  -2   5   14.07    1.32 
   0  -2   5   14.49    1.37 
   0  -2   5   14.71    1.38 
   0  -2   5   15.90    1.46 
   0  -2   5   15.92    1.42 
   0  -2   5   13.40    1.12 
   0   3  -5   -0.03    0.08 
   0   3  -5    0.04    0.06 
   0  -3   5   -0.09    0.07 
   0  -3   5    0.06    0.08 
   0  -3   5   -0.01    0.06 
   0  -3   5    0.00    0.05 
   0  -3   5    0.10    0.10 
   0  -3   5   -0.01    0.06 
   0  -3   5    0.00    0.05 
   0  -3   5    0.02    0.07 
   0  -3   5    0.03    0.05 
   0   4  -5   -0.12    0.11 
   0   4  -5    0.14    0.07 
   0   4  -5   -0.04    0.15 
   0   4  -5    0.02    0.09 
   0   4  -5    0.13    0.08 
   0  -4   5    0.09    0.08 
   0  -4   5    0.00    0.08 
   0  -4   5    0.00    0.07 
   0  -4   5    0.07    0.08 
   0  -4   5    0.00    0.11 
   0  -4   5   -0.03    0.08 
   0  -4   5   -0.01    0.07 
   0  -4   5    0.02    0.12 
   0  -4   5    0.01    0.07 
   0   5  -5    0.01    0.40 
   0   5  -5    0.19    0.66 
   0   5  -5    0.25    0.12 
   0  -5   5    0.08    0.10 
   0  -5   5    0.09    0.10 
   0   6  -5    0.76    0.24 
   0  -6   5    0.44    0.11 
   0  -6   5    0.17    0.14 
   0   7  -5    0.03    0.18 
   0  -7   5    0.20    0.14 
   0  -7   5   -0.05    0.14 
   0  -7   5   -0.16    0.22 
   0   8  -5    0.14    0.19 
   0   8  -5    0.26    0.33 
   0  -8   5   -0.16    0.19 
   0  -8   5   -0.01    0.17 
  -1  -8  -5    0.10    0.30 
  -1  -7  -5    0.24    0.23 
   1   7   5    0.00    0.13 
   1   7   5    0.90    0.36 
  -1  -6  -5    0.88    0.18 
  -1  -6  -5    0.79    0.17 
   1   6   5    1.05    0.15 
  -1  -4  -5    2.39    0.51 
  -1  -4  -5    2.04    0.38 
   1   4   5    2.08    0.38 
  -1  -3  -5    0.68    0.21 
  -1  -3  -5    0.79    0.18 
  -1  -3  -5    0.96    0.28 
  -1  -3  -5    1.94    0.60 
   1   3   5    1.60    0.42 
   1   3   5    1.65    0.58 
   1   3   5    0.65    0.18 
   1   3   5    1.13    0.37 
  -1  -2  -5   14.50    1.28 
  -1  -2  -5   12.60    0.93 
  -1  -2  -5   12.76    1.34 
  -1  -2  -5   13.21    1.30 
  -1  -2  -5   11.91    1.15 
   1   2   5   13.90    1.39 
   1   2   5   12.55    1.22 
   1   2   5   13.63    1.23 
   1   2   5   13.61    1.14 
   1   2   5   12.63    1.28 
  -1  -1  -5   25.96    2.08 
  -1  -1  -5   25.15    1.81 
  -1  -1  -5   24.79    1.94 
  -1  -1  -5   26.91    1.99 
   1   1   5   25.46    1.96 
   1   1   5   24.07    1.87 
   1   1   5   25.10    2.15 
   1   1   5   25.87    1.71 
   1   1   5   23.65    1.98 
  -1   0  -5   12.97    1.35 
  -1   0  -5   14.38    1.23 
  -1   0  -5   15.32    1.40 
  -1   0  -5   15.37    1.41 
   1   0   5   13.80    1.40 
   1   0   5   12.55    1.31 
   1   0   5   15.41    1.36 
   1   0   5   13.21    1.02 
   1   0   5   14.79    1.36 
   1   0   5   15.34    1.30 
  -1   1  -5   27.48    1.98 
  -1   1  -5   25.82    1.93 
  -1   1  -5   28.74    2.18 
  -1   1  -5   27.28    2.17 
   1  -1   5   27.91    2.19 
   1  -1   5   28.05    2.23 
   1  -1   5   29.59    2.04 
   1  -1   5   25.65    2.11 
   1  -1   5   29.66    2.14 
   1  -1   5   25.68    1.79 
  -1   2  -5   18.10    1.59 
  -1   2  -5   16.43    1.36 
  -1   2  -5   16.72    1.51 
  -1   2  -5   16.62    1.24 
  -1   2  -5   16.90    1.42 
   1  -2   5   13.56    1.15 
   1  -2   5   16.14    1.48 
   1  -2   5   16.77    1.55 
   1  -2   5   18.30    1.50 
   1  -2   5   16.65    1.59 
   1  -2   5   17.19    1.63 
  -1   3  -5    1.33    0.31 
  -1   3  -5    1.64    0.28 
  -1   3  -5    1.30    0.26 
   1  -3   5    1.56    0.36 
   1  -3   5    1.27    0.29 
   1  -3   5    1.00    0.44 
   1  -3   5    1.64    0.40 
   1  -3   5    1.59    0.32 
   1  -3   5    1.06    0.34 
  -1   4  -5    2.64    0.51 
  -1   4  -5    3.08    0.88 
  -1   4  -5    2.91    0.45 
  -1   4  -5    2.93    0.50 
  -1   4  -5    3.41    0.50 
   1  -4   5    2.36    0.63 
   1  -4   5    2.95    0.54 
   1  -4   5    4.34    0.65 
   1  -4   5    2.60    0.76 
   1  -4   5    3.40    0.60 
   1  -4   5    2.75    0.52 
   1  -4   5    2.61    0.46 
   1  -4   5    3.18    0.57 
  -1   5  -5    0.28    0.09 
   1  -5   5   -0.07    0.16 
   1  -5   5    0.21    0.09 
   1  -5   5    0.05    0.09 
   1  -5   5    0.26    0.09 
  -1   6  -5    0.18    0.57 
  -1   6  -5    0.71    0.16 
  -1   6  -5    0.68    0.14 
   1  -6   5    0.70    0.14 
   1  -6   5    0.72    0.20 
  -1   7  -5   -0.32    0.28 
  -1   7  -5    0.42    0.19 
  -1   7  -5    0.22    0.15 
   1  -7   5    0.14    0.22 
   1  -7   5    0.28    0.15 
   1  -7   5    0.14    0.15 
  -1   8  -5   -0.04    0.21 
   1  -8   5    0.18    0.20 
   1  -8   5   -0.01    0.19 
  -2  -8  -5   -0.09    0.31 
  -2  -7  -5   -0.19    0.23 
  -2  -7  -5   -0.15    0.20 
  -2  -6  -5    0.46    0.32 
  -2  -6  -5   -0.08    0.18 
  -2  -6  -5    0.11    0.18 
   2   6   5   -0.11    0.16 
   2   6   5    0.22    0.10 
  -2  -5  -5    1.88    0.55 
  -2  -5  -5    0.81    0.73 
   2   5   5    1.61    0.16 
  -2  -3  -5    1.53    0.54 
  -2  -3  -5    0.97    0.19 
  -2  -3  -5    0.86    0.34 
   2   3   5    0.72    0.23 
   2   3   5    1.77    0.54 
   2   3   5    1.01    0.39 
   2   3   5    1.09    0.17 
  -2  -2  -5    0.07    0.06 
   2   2   5    0.18    0.09 
   2   2   5    0.00    0.10 
   2   2   5    0.13    0.06 
   2   2   5    0.07    0.08 
   2   2   5    0.08    0.08 
  -2  -1  -5   11.48    1.11 
  -2  -1  -5   12.44    1.25 
  -2  -1  -5   12.65    1.31 
  -2  -1  -5   10.91    1.12 
   2   1   5   13.06    1.15 
   2   1   5   11.68    1.20 
   2   1   5   11.69    1.37 
   2   1   5   11.91    1.29 
  -2   0  -5   46.01    3.06 
  -2   0  -5   47.55    3.36 
  -2   0  -5   45.56    3.16 
  -2   0  -5   49.46    3.28 
   2   0   5   49.84    3.30 
   2   0   5   48.48    2.96 
   2   0   5   51.38    3.65 
   2   0   5   47.84    3.38 
   2   0   5   48.73    3.12 
  -2   1  -5   12.27    1.21 
  -2   1  -5   12.36    1.24 
  -2   1  -5   10.05    0.98 
  -2   1  -5   13.26    1.31 
   2  -1   5   13.52    1.39 
   2  -1   5   11.55    1.33 
   2  -1   5   12.94    1.14 
   2  -1   5   14.18    1.18 
   2  -1   5   11.52    1.27 
  -2   2  -5    0.10    0.08 
  -2   2  -5    0.14    0.07 
  -2   2  -5    0.30    0.16 
   2  -2   5    0.06    0.06 
   2  -2   5    0.01    0.05 
   2  -2   5    0.19    0.07 
  -2   3  -5    1.47    0.27 
  -2   3  -5    1.73    0.34 
  -2   3  -5    1.40    0.31 
   2  -3   5    1.06    0.38 
   2  -3   5    1.45    0.30 
  -2   4  -5   -0.14    0.13 
  -2   4  -5   -0.01    0.10 
   2  -4   5    0.12    0.07 
   2  -4   5   -0.01    0.08 
   2  -4   5   -0.02    0.07 
   2  -4   5    0.02    0.09 
   2  -4   5    0.12    0.10 
   2  -4   5    0.11    0.11 
   2  -5   5    0.54    0.11 
   2  -5   5    0.73    0.14 
   2  -5   5    0.95    0.21 
  -2   6  -5    0.18    0.17 
  -2   6  -5    0.19    0.12 
  -2   6  -5    0.33    0.27 
   2  -6   5   -0.04    0.11 
   2  -6   5   -0.03    0.13 
   2  -6   5    0.04    0.15 
   2  -6   5    0.39    0.18 
  -2   7  -5   -0.07    0.24 
  -2   7  -5   -0.08    0.18 
   2  -7   5   -0.03    0.16 
   2  -7   5    0.04    0.14 
   2  -7   5    0.24    0.24 
  -2   8  -5    0.01    0.23 
   2  -8   5   -0.01    0.19 
   2  -8   5    0.01    0.18 
  -3  -7  -5   -0.30    0.23 
  -3  -7  -5    0.07    0.24 
  -3  -6  -5    0.95    0.62 
   3   6   5    1.36    0.34 
  -3  -5  -5    0.15    0.16 
   3   5   5    0.37    0.15 
   3   4   5    0.44    0.12 
   3   3   5    0.88    0.17 
  -3  -2  -5    0.32    0.09 
  -3  -2  -5    0.26    0.08 
  -3  -2  -5    0.05    0.11 
  -3  -2  -5    0.07    0.24 
  -3  -1  -5    7.03    0.91 
  -3  -1  -5    7.97    1.09 
  -3  -1  -5    7.47    0.95 
  -3  -1  -5    8.55    1.06 
   3   1   5    7.19    0.91 
   3   1   5    7.15    0.95 
   3   1   5    6.78    0.87 
   3   1   5    8.14    1.08 
  -3   0  -5    4.34    0.74 
  -3   0  -5    5.12    0.71 
   3   0   5    5.19    0.69 
   3   0   5    5.41    0.78 
   3   0   5    5.65    0.71 
   3   0   5    4.79    0.75 
   3   0   5    4.42    0.73 
  -3   1  -5    8.88    1.04 
  -3   1  -5    9.25    1.10 
   3  -1   5   10.37    1.18 
   3  -1   5   10.76    1.27 
   3  -1   5    7.32    0.85 
   3  -1   5    8.20    0.95 
   3  -1   5    8.10    1.12 
  -3   2  -5    0.17    0.11 
  -3   2  -5    0.12    0.08 
   3  -2   5    0.34    0.12 
   3  -2   5    0.01    0.21 
   3  -2   5    0.11    0.09 
   3  -2   5    0.06    0.09 
  -3   3  -5   -0.07    0.12 
  -3   3  -5    0.12    0.10 
   3  -3   5   -0.11    0.10 
   3  -3   5    0.01    0.06 
   3  -3   5    0.09    0.11 
  -3   4  -5    0.19    0.12 
  -3   4  -5    0.04    0.09 
  -3   4  -5    0.18    0.10 
   3  -4   5    0.10    0.11 
   3  -4   5    0.02    0.11 
   3  -4   5    0.01    0.09 
   3  -4   5    0.15    0.14 
  -3   5  -5    0.22    0.17 
  -3   5  -5    0.11    0.11 
  -3   5  -5    0.04    0.17 
   3  -5   5    0.03    0.10 
   3  -5   5   -0.05    0.14 
  -3   6  -5    0.06    0.19 
  -3   6  -5   -0.18    0.17 
  -3   6  -5    0.22    0.29 
  -3   6  -5    0.30    0.14 
   3  -6   5    0.02    0.12 
   3  -6   5    0.23    0.20 
   3  -6   5    0.07    0.17 
  -3   7  -5   -0.08    0.27 
  -3   7  -5    0.77    2.14 
   3  -7   5    0.23    0.26 
   3  -7   5   -0.03    0.17 
  -4  -7  -5   -0.18    0.28 
   4   7   5    0.01    0.36 
  -4  -6  -5    0.66    0.22 
  -4  -5  -5    0.35    0.20 
  -4  -4  -5    0.13    0.95 
  -4  -4  -5    0.17    0.15 
   4   4   5    0.35    0.13 
  -4  -3  -5    0.47    0.11 
  -4  -2  -5    0.85    0.42 
  -4  -2  -5    0.87    0.34 
  -4  -2  -5    0.92    0.16 
   4   2   5    1.40    0.26 
  -4  -1  -5    0.77    0.15 
  -4  -1  -5    0.84    0.12 
   4   1   5    1.11    0.13 
   4   1   5    1.27    0.22 
  -4   0  -5    9.11    1.21 
  -4   0  -5    9.90    1.20 
   4   0   5   11.03    1.33 
   4   0   5   10.87    1.32 
   4   0   5   10.30    1.22 
  -4   1  -5    1.07    0.16 
  -4   1  -5    1.29    0.21 
   4  -1   5    1.05    0.24 
   4  -1   5    0.87    0.21 
   4  -1   5    0.90    0.15 
   4  -2   5    0.78    0.20 
   4  -2   5    0.55    0.20 
  -4   3  -5   -0.04    0.10 
  -4   3  -5    0.31    0.15 
  -4   3  -5    0.23    0.10 
   4  -3   5    0.01    0.08 
   4  -3   5    0.13    0.11 
   4  -3   5    0.11    0.12 
  -4   4  -5    0.24    0.13 
  -4   4  -5    0.13    0.11 
  -4   4  -5    0.45    0.17 
   4  -4   5    0.18    0.16 
   4  -4   5    0.03    0.09 
   4  -4   5   -0.06    0.14 
  -4   5  -5    0.58    0.17 
  -4   5  -5    0.06    0.13 
  -4   5  -5    0.62    0.20 
   4  -5   5   -0.03    0.20 
   4  -5   5    0.04    0.13 
  -4   6  -5    0.11    0.25 
  -4   6  -5   -0.14    0.23 
   4  -6   5    0.04    0.14 
   4  -6   5    0.52    0.28 
   4  -6   5    0.09    0.20 
  -4   7  -5    0.20    0.44 
  -4   7  -5    0.25    0.27 
   4  -7   5    0.49    0.35 
   4  -7   5    0.09    0.18 
  -5  -5  -5   -0.09    0.23 
   5   5   5    0.22    0.40 
  -5  -3  -5    0.81    0.19 
   5   3   5    0.80    0.14 
  -5  -2  -5    0.35    0.16 
   5   2   5    0.36    0.14 
   5   2   5    0.38    0.20 
   5   2   5    0.44    0.14 
  -5  -1  -5    0.16    0.12 
  -5  -1  -5    0.08    0.13 
   5   1   5    0.25    0.14 
  -5   0  -5    1.13    0.18 
  -5   0  -5    0.85    0.18 
   5   0   5    1.21    0.18 
   5   0   5    0.90    0.21 
  -5   1  -5    0.32    0.13 
   5  -1   5    0.16    0.15 
   5  -1   5    0.36    0.13 
  -5   2  -5   -0.02    0.12 
   5  -2   5    0.12    0.10 
   5  -2   5    0.09    0.17 
   5  -2   5    0.16    0.15 
  -5   3  -5    0.55    0.17 
  -5   3  -5    0.09    0.12 
   5  -3   5    0.04    0.10 
   5  -3   5    0.24    0.14 
  -5   4  -5    0.13    0.14 
  -5   4  -5    0.48    0.19 
  -5   4  -5    0.36    0.21 
   5  -4   5    0.39    0.25 
   5  -4   5    0.38    0.22 
  -5   5  -5    0.00    0.21 
  -5   5  -5    0.23    0.22 
   5  -5   5   -0.14    0.20 
   5  -5   5    0.01    0.13 
   5  -5   5   -0.04    0.26 
  -5   6  -5    0.51    0.25 
   5  -6   5    0.54    0.34 
   5  -6   5    0.02    0.16 
   5  -6   5    0.63    0.24 
  -6  -5  -5    0.15    0.26 
   6   5   5    1.13    0.38 
   6   4   5    0.83    0.37 
  -6  -3  -5    0.29    0.14 
  -6  -3  -5   -0.30    0.22 
  -6  -2  -5    0.32    0.13 
  -6  -2  -5    0.07    0.16 
  -6  -2  -5    0.56    0.87 
   6   2   5    0.09    0.14 
   6   2   5    0.24    0.16 
  -6  -1  -5    0.03    0.18 
  -6  -1  -5   -0.02    0.15 
   6   1   5    0.26    0.26 
  -6   0  -5    0.13    0.13 
  -6   0  -5   -0.02    0.15 
   6   0   5    0.48    0.22 
   6   0   5    0.03    0.10 
  -6   1  -5    0.22    0.16 
  -6   1  -5    0.32    0.13 
   6  -1   5   -0.28    0.22 
   6  -1   5    0.02    0.11 
   6  -1   5    0.27    0.17 
  -6   2  -5    0.39    0.15 
  -6   2  -5   -0.01    0.18 
   6  -2   5    0.23    0.16 
   6  -2   5    0.25    0.22 
   6  -2   5    0.04    0.13 
  -6   3  -5    0.27    0.20 
  -6   3  -5    0.21    0.19 
   6  -3   5    0.48    0.18 
   6  -3   5    0.03    0.12 
  -6   4  -5   -0.03    0.24 
   6  -4   5    0.04    0.31 
   6  -4   5    0.10    0.20 
   6  -4   5    0.02    0.14 
  -6   5  -5    0.06    0.28 
  -6   5  -5   -0.16    0.23 
   6  -5   5    0.01    0.15 
   6  -5   5    0.61    0.32 
   6  -5   5    0.25    0.26 
  -7  -4  -5    0.55    0.30 
   7   4   5    0.36    0.45 
  -7  -3  -5    0.21    0.18 
   7   3   5    0.34    0.36 
  -7  -2  -5   -0.03    0.25 
  -7  -2  -5    0.04    0.16 
   7   2   5    0.64    0.32 
  -7  -1  -5    0.02    0.19 
  -7  -1  -5    0.21    0.12 
  -7   0  -5    0.35    0.16 
  -7   0  -5    0.14    0.22 
   7   0   5    0.03    0.15 
   7   0   5    0.16    0.19 
  -7   1  -5    0.03    0.20 
  -7   1  -5    0.23    0.18 
   7  -1   5    0.07    0.16 
   7  -1   5   -0.23    0.27 
   7  -1   5    0.36    0.19 
  -7   2  -5    0.34    0.17 
  -7   2  -5    0.20    0.21 
   7  -2   5    0.05    0.17 
   7  -2   5    0.15    0.20 
  -7   3  -5   -0.05    0.25 
  -7   3  -5    0.03    0.23 
  -7   3  -5    0.03    0.18 
   7  -3   5    0.07    0.22 
   7  -3   5    0.04    0.17 
   7  -3   5   -0.23    0.35 
  -7   4  -5    0.38    0.28 
  -7   4  -5    0.13    0.25 
   7  -4   5    0.04    0.18 
   7  -4   5    0.30    0.23 
   7  -4   5   -0.18    0.35 
  -8  -2  -5   -0.03    0.21 
  -8  -1  -5    0.00    0.19 
  -8   0  -5   -0.06    0.24 
  -8   0  -5    0.02    0.19 
   8   0   5    0.42    0.23 
  -8   1  -5   -0.04    0.25 
  -8   1  -5    0.06    0.20 
   8  -1   5    0.36    0.25 
  -8   2  -5    0.01    0.29 
  -8   2  -5    0.20    0.20 
   8  -2   5    0.19    0.26 
  11  -2  -6    0.04    0.17 
  11  -2  -6   -0.06    0.17 
  11  -1  -6   -0.02    0.17 
 -11   1   6   -0.29    0.23 
 -11   1   6   -0.05    0.21 
  11   0  -6    0.09    0.16 
  11   0  -6    0.26    0.18 
 -11   0   6    0.23    0.20 
 -11   0   6   -0.35    0.22 
  11   1  -6   -0.09    0.14 
  11   1  -6   -0.20    0.16 
 -11  -1   6   -0.02    0.21 
 -11  -1   6   -0.27    0.23 
  11   2  -6   -0.03    0.17 
  11   2  -6   -0.09    0.21 
  10  -4  -6    0.51    0.21 
  10  -4  -6    0.18    0.16 
 -10   4   6   -0.22    0.27 
 -10   4   6    0.17    0.27 
  10  -3  -6    0.21    0.16 
  10  -3  -6    0.09    0.18 
 -10   3   6   -0.34    0.21 
  10  -2  -6    1.03    0.17 
  10  -2  -6    0.69    0.15 
  10  -1  -6    0.12    0.15 
  10  -1  -6    0.12    0.13 
 -10   1   6   -0.06    0.17 
 -10   1   6    0.17    0.18 
  10   0  -6    0.64    0.12 
  10   0  -6    0.41    0.13 
 -10   0   6    0.64    0.18 
  10   1  -6    0.02    0.15 
 -10  -1   6    0.64    0.18 
  10   2  -6    1.06    0.16 
 -10  -2   6    1.21    0.20 
  10   3  -6    0.02    0.19 
 -10  -3   6    0.22    0.19 
  10   4  -6   -0.14    0.21 
 -10  -4   6    0.01    0.22 
 -10  -4   6    0.15    0.27 
   9  -5  -6    0.42    0.19 
   9  -5  -6    0.10    0.17 
  -9   5   6    0.13    0.23 
  -9   5   6   -0.11    0.23 
   9  -4  -6    0.20    0.16 
   9  -4  -6   -0.14    0.13 
  -9   4   6    0.24    0.20 
  -9   4   6   -0.12    0.20 
   9  -3  -6   -0.02    0.14 
   9  -3  -6    0.14    0.13 
  -9   3   6    0.36    0.17 
  -9   3   6    0.20    0.19 
   9  -2  -6    0.06    0.10 
   9  -2  -6    0.29    0.12 
   9  -1  -6    0.06    0.11 
   9  -1  -6    0.16    0.09 
  -9   1   6   -0.05    0.15 
  -9   1   6    0.17    0.13 
   9   0  -6    0.26    0.10 
   9   0  -6    0.12    0.11 
  -9   0   6    0.39    0.14 
  -9   0   6    0.03    0.14 
   9   1  -6    0.48    0.13 
  -9  -1   6    0.71    0.14 
  -9  -2   6    0.37    0.15 
   9   3  -6    0.49    0.18 
  -9  -3   6    0.29    0.17 
  -9  -3   6    0.19    0.19 
   9   4  -6    0.08    0.16 
   9   4  -6   -0.23    0.21 
  -9  -4   6    0.04    0.19 
  -9  -4   6    0.28    0.25 
   9   5  -6   -0.13    0.25 
  -9  -5   6   -0.03    0.22 
  -9  -5   6   -0.20    0.26 
   8  -6  -6   -0.04    0.19 
   8  -6  -6    0.42    0.18 
  -8   6   6    0.44    0.24 
  -8   6   6   -0.12    0.23 
   8  -5  -6    0.23    0.13 
   8  -5  -6    0.29    0.16 
  -8   5   6   -0.06    0.20 
   8  -4  -6    0.57    0.16 
   8  -4  -6    0.85    0.16 
  -8   4   6    0.91    0.19 
   8  -3  -6    0.38    0.10 
  -8   3   6    0.27    0.19 
  -8   3   6    0.53    0.15 
   8  -2  -6    0.01    0.10 
   8  -2  -6    0.00    0.08 
  -8   2   6    0.21    0.13 
  -8   2   6   -0.02    0.11 
  -8   2   6    0.24    0.11 
   8  -1  -6    0.20    0.08 
  -8   1   6    0.22    0.11 
  -8   1   6    0.15    0.12 
   8   0  -6    0.32    0.08 
   8   0  -6    0.24    0.11 
  -8   0   6    0.44    0.13 
   8   1  -6    0.36    0.11 
  -8  -1   6    0.15    0.11 
   8   2  -6   -0.05    0.26 
  -8  -2   6    0.32    0.12 
   8   3  -6    0.17    0.16 
  -8  -3   6    0.49    0.14 
  -8  -3   6    0.36    0.16 
  -8  -4   6    0.21    0.12 
  -8  -4   6    0.42    0.21 
   8   5  -6    0.54    0.19 
   8   5  -6    0.27    0.22 
   8   5  -6    0.23    0.18 
  -8  -5   6    0.60    0.27 
  -8  -5   6    0.47    0.22 
  -8  -5   6    0.11    0.19 
   8   6  -6    0.18    0.22 
   8   6  -6    0.42    0.25 
   8   6  -6    0.29    0.28 
  -8  -6   6   -0.25    0.27 
  -8  -6   6   -0.01    0.23 
  -8  -6   6   -0.14    0.29 
   7  -7  -6    0.20    0.20 
   7  -6  -6    0.07    0.16 
   7  -6  -6    0.20    0.16 
  -7   6   6    0.17    0.20 
   7  -5  -6    5.66    0.74 
   7  -5  -6    6.26    0.87 
  -7   5   6    5.51    0.54 
  -7   5   6    5.22    0.67 
  -7   4   6   -0.04    0.14 
  -7   4   6    0.25    0.16 
   7  -3  -6    6.21    0.87 
   7  -3  -6    5.39    0.83 
  -7   3   6    5.84    0.78 
  -7   3   6    5.26    0.78 
   7  -2  -6    5.50    0.78 
   7  -2  -6    6.39    0.94 
  -7   2   6    6.60    0.82 
  -7   2   6    5.95    0.83 
  -7   2   6    6.19    0.81 
   7  -1  -6   42.11    2.98 
   7  -1  -6   40.61    2.99 
  -7   1   6   32.10    2.73 
  -7   1   6   39.17    2.96 
  -7   1   6   38.16    3.02 
   7   0  -6    3.33    0.61 
   7   0  -6    2.39    0.55 
  -7   0   6    2.48    0.48 
   7   1  -6   39.66    3.13 
   7   1  -6   41.80    3.16 
   7   1  -6   34.77    2.82 
   7   1  -6   39.98    3.09 
  -7  -1   6   41.34    3.19 
  -7  -1   6   43.55    3.29 
  -7  -1   6   43.15    3.19 
   7   2  -6    7.38    0.96 
   7   2  -6    7.24    0.91 
   7   2  -6    6.12    0.87 
  -7  -2   6    5.89    0.78 
  -7  -2   6    5.84    0.97 
  -7  -2   6    5.53    0.74 
   7   3  -6    6.07    0.77 
   7   3  -6    4.03    2.91 
   7   3  -6    5.46    0.84 
   7   3  -6    6.48    0.84 
  -7  -3   6    7.23    0.98 
  -7  -3   6    6.53    0.84 
  -7  -3   6    6.82    1.02 
   7   4  -6    0.14    0.13 
   7   4  -6   -0.05    0.19 
  -7  -4   6    0.32    0.13 
  -7  -4   6    0.12    0.16 
   7   5  -6    4.48    0.77 
   7   5  -6    5.03    0.63 
   7   5  -6    5.53    0.73 
  -7  -5   6    4.18    0.58 
  -7  -5   6    5.83    0.80 
  -7  -5   6    4.68    0.68 
   7   6  -6    0.39    0.26 
   7   6  -6    0.29    0.18 
   7   6  -6    0.73    0.20 
  -7  -6   6   -0.10    0.22 
  -7  -6   6    0.04    0.19 
   7   7  -6    0.59    0.22 
   7   7  -6    0.43    0.32 
   6  -7  -6    0.65    0.20 
  -6   7   6    0.53    0.30 
  -6   7   6   -0.24    0.46 
   6  -6  -6    0.46    0.15 
   6  -6  -6    0.74    0.15 
  -6   6   6   -0.03    0.35 
   6  -5  -6    7.19    1.07 
   6  -5  -6    7.71    1.02 
   6  -5  -6    7.53    1.09 
  -6   5   6    8.06    0.83 
  -6   5   6    8.82    1.09 
   6  -4  -6    1.00    0.14 
  -6   4   6    1.25    0.17 
  -6   4   6    1.30    0.23 
   6  -3  -6   30.40    2.46 
   6  -3  -6   30.74    2.59 
   6  -3  -6   28.74    2.48 
  -6   3   6   26.88    2.37 
  -6   3   6   27.65    2.45 
   6  -2  -6    7.74    0.94 
   6  -2  -6    5.38    0.93 
  -6   2   6    5.44    0.83 
  -6   2   6    6.79    0.81 
   6  -1  -6   23.06    2.01 
   6  -1  -6   23.17    2.10 
   6  -1  -6   27.15    2.07 
   6  -1  -6   28.07    2.21 
  -6   1   6   25.82    2.08 
  -6   1   6   25.54    2.04 
  -6   1   6   28.01    2.28 
  -6   1   6   22.91    1.97 
   6   0  -6   31.42    2.31 
   6   0  -6   33.56    2.54 
   6   0  -6   26.60    2.38 
  -6   0   6   32.82    2.49 
  -6   0   6   27.77    2.36 
  -6   0   6   29.97    2.42 
  -6   0   6   32.20    2.52 
   6   1  -6   25.59    2.13 
   6   1  -6   28.80    2.37 
   6   1  -6   25.29    2.30 
   6   1  -6   26.99    2.18 
  -6  -1   6   27.05    2.33 
  -6  -1   6   28.60    2.37 
  -6  -1   6   27.35    2.36 
  -6  -1   6   27.79    2.30 
   6   2  -6    8.09    1.00 
   6   2  -6    6.99    0.92 
  -6  -2   6    5.79    0.98 
  -6  -2   6    7.07    0.95 
  -6  -2   6    9.76    1.22 
   6   3  -6   23.00    2.24 
   6   3  -6   32.01    2.72 
   6   3  -6   27.03    2.55 
   6   3  -6   27.80    2.47 
  -6  -3   6   31.29    2.69 
  -6  -3   6   25.61    2.37 
  -6  -3   6   26.62    2.49 
  -6  -3   6   31.60    2.72 
   6   4  -6    0.74    0.14 
   6   4  -6    0.23    0.57 
  -6  -4   6    0.99    0.19 
  -6  -4   6    0.82    0.25 
   6   5  -6    9.09    1.13 
   6   5  -6    5.21    0.92 
   6   5  -6    9.19    1.34 
  -6  -5   6    7.06    0.90 
  -6  -5   6    6.03    0.80 
   6   7  -6    0.51    0.22 
  -6  -7   6    0.82    0.25 
  -5   7   6    0.50    0.36 
   5  -6  -6    0.15    0.17 
   5  -6  -6    0.19    0.12 
   5  -6  -6    0.54    0.22 
   5  -6  -6    0.21    0.18 
  -5   6   6    0.07    0.17 
  -5   6   6    0.50    0.31 
   5  -5  -6    0.56    0.12 
   5  -5  -6    0.75    0.16 
   5  -5  -6    0.46    0.15 
  -5   5   6    0.66    0.22 
  -5   5   6    0.41    0.14 
   5  -4  -6    0.29    0.07 
   5  -4  -6    0.37    0.11 
  -5   4   6    0.44    0.12 
  -5   4   6    0.12    0.15 
   5  -2  -6    2.42    0.40 
   5  -2  -6    1.79    0.35 
   5  -2  -6    2.04    0.47 
  -5   2   6    2.52    0.44 
  -5   2   6    1.91    0.69 
  -5   2   6    2.17    0.39 
  -5   2   6    1.55    0.29 
   5  -1  -6    1.32    0.45 
   5  -1  -6    1.24    0.26 
   5  -1  -6    1.10    0.36 
  -5   1   6    0.80    0.34 
  -5   1   6    0.97    0.34 
  -5   1   6    1.11    0.24 
  -5   1   6    1.08    0.17 
   5   0  -6   17.01    1.41 
   5   0  -6   17.92    1.65 
   5   0  -6   19.27    1.66 
  -5   0   6   15.34    1.55 
  -5   0   6   18.36    1.56 
  -5   0   6   19.57    1.75 
  -5   0   6   16.44    1.60 
  -5   0   6   16.95    1.60 
   5   1  -6    1.86    0.62 
   5   1  -6    0.88    0.25 
  -5  -1   6    1.18    0.35 
  -5  -1   6    0.68    0.20 
  -5  -1   6    0.69    0.16 
  -5  -1   6    1.14    0.41 
   5   2  -6    1.65    0.49 
   5   2  -6    2.37    0.50 
  -5  -2   6    2.82    0.53 
  -5  -2   6    2.01    0.50 
  -5  -2   6    1.48    0.48 
  -5  -2   6    1.98    0.36 
   5   3  -6    0.54    0.12 
   5   3  -6    0.47    0.21 
   5   3  -6    0.62    0.23 
  -5  -3   6    0.81    0.16 
  -5  -3   6    0.56    0.24 
   5   4  -6    0.61    0.14 
   5   4  -6   -0.06    0.44 
   5   4  -6    0.41    0.24 
  -5  -4   6    0.49    0.11 
  -5  -4   6    0.86    0.22 
   5   5  -6    1.30    0.16 
   5   5  -6    0.91    0.14 
   5   6  -6    0.46    0.18 
   5   6  -6    0.15    0.15 
  -5  -6   6    0.36    0.22 
  -5  -6   6    0.08    0.13 
  -5  -6   6   -0.20    0.17 
   5   7  -6    0.23    0.16 
   5   7  -6    0.50    0.20 
   4  -8  -6   -0.19    0.22 
   4  -8  -6    0.80    0.40 
  -4   8   6    0.09    0.25 
  -4   8   6   -0.35    0.48 
   4  -7  -6   -0.07    0.26 
  -4   7   6    0.57    0.39 
  -4   7   6    0.21    0.20 
   4  -6  -6   -0.07    0.11 
   4  -6  -6    0.09    0.14 
   4  -6  -6    0.16    0.16 
  -4   6   6    0.05    0.16 
  -4   6   6    0.38    0.29 
   4  -5  -6    0.20    0.09 
   4  -5  -6    0.35    0.11 
   4  -5  -6    0.12    0.13 
   4  -5  -6    0.59    0.24 
   4  -4  -6    0.28    0.19 
   4  -4  -6    0.25    0.09 
   4  -4  -6    0.29    0.11 
  -4   4   6    0.15    0.08 
  -4   3   6    0.25    0.08 
   4  -2  -6   -0.03    0.05 
   4  -2  -6    0.08    0.07 
   4  -2  -6   -0.03    0.06 
   4  -2  -6    0.01    0.04 
   4  -2  -6    0.15    0.07 
  -4   2   6    0.20    0.08 
  -4   2   6    0.00    0.06 
  -4   2   6   -0.03    0.07 
  -4   2   6    0.05    0.06 
   4  -1  -6    3.58    0.46 
   4  -1  -6    4.87    0.63 
   4  -1  -6    4.60    0.65 
  -4   1   6    3.26    0.60 
  -4   1   6    4.94    0.67 
  -4   1   6    3.79    0.57 
  -4   1   6    2.60    0.48 
  -4   1   6    3.75    0.59 
  -4   1   6    3.32    0.36 
   4   0  -6    7.13    0.72 
   4   0  -6    8.41    0.93 
   4   0  -6    8.58    0.99 
  -4   0   6    8.15    0.97 
  -4   0   6    7.94    0.91 
  -4   0   6    8.09    0.96 
  -4   0   6    8.10    0.96 
  -4   0   6    7.83    0.91 
   4   1  -6    3.82    0.50 
   4   1  -6    4.53    0.64 
   4   1  -6    4.41    0.68 
  -4  -1   6    3.51    0.48 
  -4  -1   6    4.22    0.65 
  -4  -1   6    4.20    0.67 
  -4  -1   6    3.74    0.61 
   4   2  -6   -0.06    0.07 
   4   2  -6    0.08    0.08 
   4   2  -6    0.07    0.07 
  -4  -2   6    0.02    0.06 
  -4  -2   6   -0.06    0.08 
  -4  -2   6    0.14    0.07 
   4   3  -6    0.57    0.10 
  -4  -3   6    0.54    0.11 
  -4  -3   6    0.74    0.17 
   4   4  -6    0.82    0.43 
   4   4  -6    0.60    0.12 
  -4  -4   6    0.36    0.11 
  -4  -4   6    0.49    0.15 
  -4  -4   6    0.40    0.14 
   4   5  -6    0.31    0.11 
   4   5  -6    0.19    0.57 
  -4  -5   6    0.39    0.12 
  -4  -5   6    0.46    0.12 
   4   6  -6    0.26    0.14 
   4   6  -6    0.01    0.13 
   4   6  -6    0.43    0.12 
  -4  -6   6    0.24    0.19 
  -4  -6   6   -0.03    0.16 
  -4  -6   6   -0.01    0.12 
   4   7  -6    0.23    0.17 
   4   7  -6   -0.26    0.17 
  -4  -7   6   -0.33    0.22 
  -4  -7   6    0.24    0.25 
  -4  -7   6    0.11    0.16 
   4   8  -6    0.11    0.18 
   4   8  -6   -0.27    0.21 
  -4  -8   6   -0.01    0.22 
  -4  -8   6    0.53    0.34 
  -3   8   6    0.13    0.45 
   3  -7  -6    0.57    0.90 
  -3   7   6    0.50    0.36 
  -3   7   6    0.71    0.22 
   3  -6  -6    0.99    0.20 
   3  -6  -6    0.87    0.14 
   3  -6  -6    0.63    0.14 
   3  -5  -6    3.42    0.52 
   3  -5  -6    4.24    0.71 
   3  -5  -6    6.41    0.93 
  -3   5   6    4.90    0.50 
  -3   5   6    5.10    0.75 
   3  -4  -6    0.43    0.16 
   3  -4  -6    0.66    0.11 
  -3   4   6    0.91    0.36 
  -3   4   6    0.35    0.11 
   3  -3  -6    1.64    0.30 
   3  -3  -6    2.03    0.56 
   3  -3  -6    1.40    0.29 
   3  -3  -6    1.05    0.36 
   3  -3  -6    0.90    0.21 
  -3   3   6    2.14    0.38 
  -3   3   6    1.41    0.28 
  -3   3   6    1.55    0.60 
   3  -2  -6   28.47    2.07 
   3  -2  -6   27.74    2.33 
   3  -2  -6   24.81    1.82 
   3  -2  -6   29.87    1.93 
  -3   2   6   25.67    2.06 
  -3   2   6   29.66    2.32 
  -3   2   6   29.82    2.05 
  -3   2   6   27.74    2.13 
  -3   2   6   29.14    2.19 
   3  -1  -6   11.78    1.04 
   3  -1  -6    9.80    1.08 
   3  -1  -6   10.02    1.25 
   3  -1  -6   10.77    0.75 
   3  -1  -6   10.63    1.12 
  -3   1   6    9.59    1.01 
  -3   1   6    9.26    1.04 
  -3   1   6    8.94    0.86 
  -3   1   6    9.47    1.09 
   3   0  -6    2.23    0.45 
   3   0  -6    2.49    0.29 
   3   0  -6    3.28    0.52 
  -3   0   6    2.65    0.50 
  -3   0   6    3.49    0.58 
  -3   0   6    2.81    0.49 
   3   1  -6   11.23    1.20 
   3   1  -6    9.27    1.02 
   3   1  -6   10.70    0.89 
  -3  -1   6   10.48    1.18 
  -3  -1   6   10.88    1.21 
  -3  -1   6   10.38    1.06 
  -3  -1   6   11.26    1.22 
  -3  -1   6   10.30    0.98 
   3   2  -6   28.44    2.42 
   3   2  -6   29.87    2.24 
   3   2  -6   32.29    2.09 
  -3  -2   6   27.19    2.37 
  -3  -2   6   28.08    2.44 
  -3  -2   6   28.22    1.96 
  -3  -2   6   27.54    2.14 
  -3  -2   6   30.70    2.37 
  -3  -2   6   29.57    2.43 
   3   3  -6    1.25    0.25 
   3   3  -6    2.11    0.38 
   3   3  -6    1.93    0.40 
   3   3  -6    1.75    0.40 
  -3  -3   6    1.57    0.44 
  -3  -3   6    1.60    0.36 
  -3  -3   6    1.85    0.59 
  -3  -3   6    1.25    0.43 
   3   4  -6    1.52    0.53 
  -3  -4   6    1.26    0.25 
  -3  -4   6    1.56    0.26 
   3   5  -6    4.13    0.63 
   3   5  -6    4.16    0.62 
  -3  -5   6    3.59    0.49 
  -3  -5   6    4.18    0.66 
  -3  -5   6    4.24    0.66 
   3   6  -6    1.28    0.19 
   3   6  -6    1.54    0.19 
  -3  -6   6    1.16    0.19 
  -3  -6   6    1.73    0.23 
  -3  -6   6    1.26    0.18 
   3   7  -6    0.03    0.18 
   3   7  -6    0.48    0.17 
  -3  -7   6    0.25    0.21 
  -3  -7   6    0.04    0.24 
  -3  -7   6    0.30    0.17 
   3   8  -6    0.02    0.24 
   3   8  -6    0.13    0.18 
  -3  -8   6    0.44    0.22 
   2  -8  -6    0.64    0.33 
  -2   8   6   -0.10    0.24 
  -2   8   6    0.16    0.44 
   2  -7  -6   -0.23    0.25 
   2  -7  -6    0.01    0.23 
  -2   7   6    0.41    0.30 
  -2   7   6   -0.06    0.13 
   2  -6  -6   -0.37    0.73 
   2  -6  -6    0.30    0.16 
  -2   6   6    0.32    0.23 
   2  -5  -6    1.18    0.21 
   2  -5  -6    1.84    0.56 
   2  -5  -6    0.77    0.17 
  -2   5   6    0.99    0.33 
   2  -4  -6    0.04    0.09 
   2  -4  -6   -0.04    0.08 
   2  -4  -6   -0.01    0.06 
   2  -4  -6    0.13    0.07 
   2  -4  -6    0.19    0.11 
  -2   4   6    0.08    0.07 
  -2   4   6   -0.03    0.09 
  -2   4   6   -0.10    0.13 
  -2   4   6    0.02    0.08 
   2  -3  -6   -0.06    0.05 
   2  -3  -6    0.01    0.05 
   2  -3  -6    0.12    0.06 
   2  -3  -6   -0.03    0.07 
   2  -3  -6    0.05    0.06 
   2  -3  -6    0.01    0.06 
  -2   3   6    0.00    0.06 
  -2   3   6    0.13    0.07 
  -2   3   6    0.02    0.06 
  -2   3   6   -0.02    0.06 
  -2   3   6   -0.06    0.09 
   2  -2  -6    4.20    0.65 
   2  -2  -6    5.77    0.59 
   2  -2  -6    5.69    0.79 
   2  -2  -6    4.80    0.49 
  -2   2   6    5.16    0.67 
  -2   2   6    4.38    0.58 
  -2   2   6    4.57    0.68 
  -2   2   6    3.93    0.60 
  -2   2   6    4.21    0.62 
  -2   2   6    3.37    0.44 
   2  -1  -6    0.36    0.16 
   2  -1  -6    0.49    0.11 
  -2   1   6    0.50    0.22 
  -2   1   6    0.34    0.08 
   2   0  -6    0.05    0.06 
   2   0  -6    0.08    0.04 
   2   0  -6    0.20    0.09 
  -2   0   6    0.04    0.06 
  -2   0   6    0.08    0.05 
  -2   0   6    0.00    0.06 
  -2   0   6    0.10    0.06 
   2   1  -6    0.18    0.07 
   2   1  -6    0.48    0.19 
  -2  -1   6    0.10    0.05 
  -2  -1   6    0.23    0.06 
   2   2  -6    5.39    0.68 
   2   2  -6    4.51    0.67 
  -2  -2   6    4.70    0.63 
  -2  -2   6    3.62    0.56 
  -2  -2   6    4.41    0.73 
  -2  -2   6    4.45    0.73 
  -2  -2   6    3.62    0.47 
  -2  -2   6    3.71    0.67 
  -2  -2   6    4.12    0.74 
   2   3  -6   -0.05    0.06 
   2   3  -6    0.02    0.06 
   2   3  -6    0.04    0.07 
   2   3  -6   -0.08    0.06 
  -2  -3   6    0.02    0.07 
  -2  -3   6   -0.01    0.07 
  -2  -3   6    0.22    0.10 
  -2  -3   6    0.01    0.07 
  -2  -3   6    0.06    0.07 
   2   4  -6    0.03    0.08 
   2   4  -6    0.05    0.08 
   2   4  -6    0.40    0.18 
  -2  -4   6    0.03    0.08 
  -2  -4   6    0.15    0.09 
  -2  -4   6    0.04    0.07 
  -2  -4   6    0.00    0.07 
  -2  -4   6    0.14    0.12 
   2   5  -6    0.91    0.14 
   2   5  -6    1.10    0.16 
  -2  -5   6    0.82    0.14 
  -2  -5   6    0.59    0.15 
   2   6  -6    0.13    0.13 
   2   6  -6    0.17    0.13 
  -2  -6   6    0.05    0.12 
   2   7  -6    0.16    0.15 
   2   7  -6   -0.22    0.19 
   2   7  -6    0.06    0.17 
  -2  -7   6    0.33    0.17 
  -2  -7   6    0.02    0.17 
  -2  -7   6    0.16    0.24 
   2   8  -6   -0.33    0.21 
   2   8  -6    0.08    0.19 
  -2  -8   6   -0.09    0.19 
  -2  -8   6    0.52    0.31 
   1  -8  -6    0.13    0.20 
   1  -8  -6    0.23    0.31 
  -1   8   6   -0.19    0.28 
  -1   8   6   -0.32    0.43 
  -1   7   6    0.20    0.34 
  -1   7   6   -0.09    0.14 
   1  -6  -6    0.21    0.88 
   1  -6  -6   -0.08    0.65 
   1  -6  -6    0.16    0.16 
  -1   6   6    0.06    0.10 
   1  -5  -6    0.17    0.12 
   1  -5  -6    0.25    0.42 
   1  -4  -6    2.65    0.45 
   1  -4  -6    3.43    0.52 
   1  -4  -6    3.13    0.61 
  -1   4   6    2.15    0.33 
  -1   4   6    2.90    0.51 
   1  -3  -6    0.17    0.07 
   1  -3  -6    0.05    0.07 
   1  -3  -6    0.12    0.05 
  -1   3   6    0.14    0.06 
  -1   3   6    0.04    0.07 
  -1   3   6    0.11    0.07 
  -1   3   6    0.00    0.06 
   1  -2  -6    0.18    0.06 
  -1   2   6    0.31    0.07 
  -1   2   6    0.17    0.07 
   1  -1  -6    0.69    0.32 
   1  -1  -6    0.50    0.19 
   1  -1  -6    0.44    0.09 
   1  -1  -6    0.31    0.07 
  -1   1   6    0.36    0.16 
  -1   1   6    0.09    0.15 
  -1   1   6    0.62    0.13 
   1   0  -6   77.36    4.48 
   1   0  -6   65.44    3.61 
   1   0  -6   61.82    4.19 
   1   0  -6   61.71    3.60 
  -1   0   6   67.71    4.09 
  -1   0   6   66.16    4.05 
  -1   0   6   67.69    4.13 
  -1   0   6   62.56    4.20 
   1   1  -6    0.20    0.09 
   1   1  -6    0.38    0.19 
  -1  -1   6    0.43    0.08 
  -1  -1   6    0.39    0.08 
  -1  -1   6    0.26    0.13 
  -1  -1   6    0.42    0.08 
   1   2  -6    0.20    0.07 
  -1  -2   6    0.20    0.08 
  -1  -2   6    0.10    0.07 
  -1  -2   6    0.17    0.06 
  -1  -2   6    0.11    0.07 
   1   3  -6   -0.04    0.06 
   1   3  -6    0.03    0.06 
   1   3  -6    0.03    0.06 
  -1  -3   6   -0.02    0.10 
  -1  -3   6    0.03    0.06 
  -1  -3   6    0.04    0.08 
  -1  -3   6    0.01    0.07 
  -1  -3   6    0.00    0.05 
  -1  -3   6   -0.03    0.07 
  -1  -3   6    0.08    0.09 
  -1  -3   6    0.03    0.07 
  -1  -3   6    0.07    0.07 
  -1  -3   6    0.01    0.06 
   1   4  -6    3.48    0.47 
   1   4  -6    3.74    0.60 
   1   4  -6    3.97    0.66 
   1   4  -6    4.13    0.65 
   1   4  -6    2.77    0.59 
  -1  -4   6    5.19    0.77 
  -1  -4   6    4.25    0.67 
  -1  -4   6    3.34    0.58 
  -1  -4   6    4.23    0.67 
  -1  -4   6    3.48    0.55 
  -1  -4   6    3.93    0.73 
  -1  -4   6    3.84    0.66 
  -1  -4   6    2.94    0.49 
   1   5  -6    0.08    0.09 
   1   5  -6    0.15    0.10 
   1   5  -6    0.14    0.09 
  -1  -5   6    0.02    0.09 
  -1  -5   6   -0.04    0.09 
  -1  -5   6    0.12    0.10 
  -1  -5   6    0.17    0.15 
  -1  -5   6   -0.04    0.09 
  -1  -5   6    0.20    0.10 
   1   6  -6    0.05    0.42 
   1   6  -6    0.02    0.17 
  -1  -6   6    0.20    0.14 
  -1  -6   6    0.44    0.17 
  -1  -6   6   -0.01    0.11 
  -1  -6   6    0.11    0.13 
   1   7  -6    0.15    0.17 
   1   7  -6    0.46    0.19 
  -1  -7   6    0.18    0.23 
  -1  -7   6    0.24    0.17 
  -1  -7   6    0.00    0.14 
   1   8  -6    0.03    0.19 
  -1  -8   6    0.34    0.32 
  -1  -8   6    0.04    0.19 
   0  -7  -6   -0.20    0.25 
   0   7   6    0.22    0.20 
   0  -6  -6    0.01    0.18 
   0  -6  -6    0.18    0.16 
   0  -5  -6    0.45    0.23 
   0   5   6    0.39    0.16 
   0  -3  -6    0.22    0.11 
   0  -3  -6    0.32    0.08 
   0   3   6    0.16    0.08 
   0   3   6    0.01    0.12 
   0   3   6    0.37    0.21 
   0  -2  -6    0.88    0.18 
   0  -2  -6    1.24    0.40 
   0  -2  -6    0.76    0.24 
   0  -2  -6    0.72    0.14 
   0  -2  -6    0.75    0.16 
   0   2   6    0.64    0.11 
   0   2   6    0.86    0.30 
   0   2   6    0.50    0.14 
   0   2   6    0.99    0.28 
   0   2   6    0.85    0.20 
   0  -1  -6    1.49    0.48 
   0  -1  -6    0.65    0.18 
   0  -1  -6    0.45    0.15 
   0  -1  -6    1.38    0.45 
   0   1   6    1.18    0.40 
   0   1   6    0.65    0.15 
   0   1   6    0.87    0.30 
   0   1   6    0.65    0.13 
   0   1   6    0.48    0.15 
   0   0  -6    7.58    0.86 
   0   0  -6    7.16    0.58 
   0   0  -6    8.57    0.98 
   0   0  -6    8.88    0.77 
   0   0  -6    7.23    0.90 
   0   0   6    7.32    0.89 
   0   0   6    6.58    0.87 
   0   0   6    7.92    0.93 
   0   0   6    7.80    0.89 
   0   1  -6    0.85    0.21 
   0   1  -6    0.95    0.27 
   0   1  -6    0.88    0.35 
   0  -1   6    0.74    0.30 
   0  -1   6    0.63    0.15 
   0  -1   6    0.57    0.26 
   0  -1   6    0.61    0.18 
   0  -1   6    0.71    0.24 
   0   2  -6    1.36    0.42 
   0   2  -6    0.73    0.16 
   0   2  -6    1.36    0.45 
   0  -2   6    0.97    0.30 
   0  -2   6    0.75    0.16 
   0  -2   6    1.49    0.46 
   0  -2   6    0.68    0.27 
   0  -2   6    0.32    0.29 
   0  -2   6    1.29    0.50 
   0  -2   6    0.76    0.17 
   0   3  -6    0.14    0.07 
   0   3  -6    0.29    0.19 
   0   3  -6    0.07    0.10 
   0  -3   6    0.14    0.08 
   0  -3   6    0.11    0.09 
   0  -3   6    0.12    0.05 
   0  -3   6    0.20    0.08 
   0  -3   6    0.00    0.07 
   0   4  -6    0.03    0.09 
   0   4  -6    0.35    0.14 
   0   4  -6    0.14    0.09 
   0   4  -6    0.24    0.08 
   0  -4   6    0.21    0.09 
   0  -4   6    0.22    0.12 
   0  -4   6    0.21    0.10 
   0  -4   6    0.25    0.09 
   0   5  -6    0.27    0.11 
   0   5  -6   -0.16    0.13 
   0   5  -6    0.13    0.11 
   0   5  -6    0.03    0.12 
   0   5  -6    0.16    0.10 
   0  -5   6    0.11    0.11 
   0  -5   6   -0.01    0.08 
   0  -5   6    0.05    0.12 
   0  -5   6    0.13    0.10 
   0  -5   6   -0.10    0.12 
   0  -5   6    0.04    0.15 
   0  -5   6    0.01    0.08 
   0   6  -6   -0.05    0.15 
   0   6  -6    0.08    0.13 
   0   6  -6    0.29    0.15 
   0  -6   6    0.02    0.12 
   0  -6   6    0.21    0.14 
   0  -6   6    0.16    0.13 
   0   7  -6    0.05    0.16 
   0  -7   6    0.29    0.15 
   0  -7   6    0.03    0.22 
   0  -7   6    0.01    0.14 
   0   8  -6   -0.17    0.22 
   0   8  -6    0.05    0.23 
   0  -8   6   -0.02    0.19 
   0  -8   6   -0.03    0.20 
  -1  -7  -6   -0.31    0.25 
   1   7   6   -0.39    0.30 
  -1  -6  -6   -0.10    0.20 
  -1  -6  -6    0.27    0.18 
   1   6   6    0.54    0.16 
   1   6   6    0.47    0.25 
  -1  -5  -6    0.05    0.14 
  -1  -5  -6   -0.21    0.14 
  -1  -5  -6   -0.67    0.56 
   1   5   6    0.20    0.20 
   1   5   6    0.32    0.14 
   1   5   6    0.04    0.08 
   1   4   6    1.07    0.15 
  -1  -3  -6    0.60    0.21 
  -1  -3  -6    0.83    0.12 
   1   3   6    0.46    0.11 
  -1  -2  -6    0.00    0.06 
  -1  -2  -6   -0.01    0.07 
   1   2   6    0.06    0.06 
   1   2   6    0.09    0.08 
   1   2   6   -0.04    0.08 
   1   2   6   -0.02    0.10 
  -1  -1  -6    0.40    0.09 
  -1   0  -6    0.73    0.29 
  -1   0  -6    0.28    0.06 
  -1   0  -6    0.79    0.35 
  -1   0  -6    0.49    0.16 
   1   0   6    0.78    0.29 
   1   0   6    0.41    0.19 
   1   0   6    0.66    0.26 
   1   0   6    0.47    0.14 
   1   0   6    0.50    0.24 
  -1   1  -6   -0.08    0.07 
  -1   1  -6    0.03    0.07 
   1  -1   6    0.00    0.06 
   1  -1   6    0.05    0.08 
   1  -1   6    0.04    0.06 
   1  -1   6   -0.04    0.07 
   1  -1   6    0.02    0.06 
   1  -1   6    0.01    0.04 
  -1   2  -6    0.02    0.07 
  -1   2  -6    0.10    0.07 
   1  -2   6    0.01    0.05 
   1  -2   6    0.10    0.08 
   1  -2   6   -0.04    0.07 
   1  -2   6    0.07    0.08 
   1  -2   6    0.00    0.06 
  -1   3  -6    0.50    0.09 
  -1   3  -6    0.22    0.12 
   1  -3   6    0.39    0.09 
   1  -3   6    0.31    0.13 
  -1   4  -6    0.21    0.09 
  -1   4  -6    0.03    0.12 
  -1   4  -6   -0.17    0.13 
  -1   4  -6   -0.02    0.09 
   1  -4   6    0.07    0.09 
   1  -4   6    0.05    0.10 
   1  -4   6    0.01    0.08 
   1  -4   6   -0.01    0.12 
   1  -4   6    0.08    0.10 
   1  -4   6   -0.04    0.08 
   1  -4   6   -0.05    0.09 
  -1   5  -6    0.02    0.16 
  -1   5  -6   -0.09    0.11 
  -1   5  -6    0.21    0.10 
  -1   5  -6    0.12    0.13 
  -1   5  -6    0.30    0.25 
   1  -5   6    0.00    0.10 
   1  -5   6    0.07    0.13 
   1  -5   6   -0.01    0.11 
   1  -5   6    0.15    0.13 
   1  -5   6    0.00    0.10 
   1  -5   6    0.05    0.10 
  -1   6  -6    0.16    0.19 
  -1   6  -6   -0.01    0.15 
  -1   6  -6    0.15    0.13 
  -1   6  -6    0.52    1.20 
   1  -6   6    0.17    0.17 
   1  -6   6   -0.02    0.12 
   1  -6   6    0.00    0.11 
  -1   7  -6    0.43    0.24 
   1  -7   6    0.01    0.16 
   1  -7   6    0.01    0.16 
   1  -7   6    0.45    0.23 
  -1   8  -6   -0.36    0.26 
  -1   8  -6    0.11    0.25 
   1  -8   6   -0.04    0.21 
   1  -8   6    0.09    0.23 
  -2  -7  -6    0.63    0.23 
  -2  -7  -6    0.39    0.26 
  -2  -6  -6   -0.12    0.22 
  -2  -6  -6   -0.27    0.20 
   2   6   6   -0.24    0.27 
  -2  -5  -6    0.11    0.15 
   2   5   6    0.43    0.14 
  -2  -4  -6   -0.18    0.93 
  -2  -3  -6    0.71    0.13 
   2   3   6    0.74    0.16 
  -2  -2  -6    0.61    0.12 
  -2  -1  -6    0.64    0.26 
   2   1   6    0.45    0.20 
  -2   0  -6    7.80    0.94 
  -2   0  -6    5.64    0.76 
  -2   0  -6    6.46    0.88 
  -2   0  -6    7.74    0.96 
   2   0   6    6.01    0.81 
   2   0   6    7.09    1.02 
   2   0   6    6.10    0.85 
   2   0   6    6.95    0.99 
  -2   1  -6    0.70    0.25 
  -2   1  -6    0.38    0.11 
   2  -1   6    0.29    0.15 
   2  -1   6    0.49    0.15 
  -2   2  -6    0.02    0.08 
  -2   2  -6    0.08    0.12 
   2  -2   6   -0.01    0.09 
   2  -2   6    0.32    0.13 
   2  -2   6    0.17    0.07 
   2  -2   6    0.01    0.05 
  -2   3  -6    0.08    0.08 
  -2   3  -6    0.54    0.18 
   2  -3   6    0.40    0.09 
  -2   4  -6    0.12    0.09 
  -2   4  -6    0.36    0.16 
   2  -4   6    0.03    0.09 
   2  -4   6    0.04    0.10 
   2  -4   6    0.12    0.12 
   2  -4   6   -0.05    0.13 
   2  -4   6    0.27    0.11 
  -2   5  -6    0.14    0.11 
   2  -5   6    0.01    0.10 
   2  -5   6    0.06    0.15 
   2  -5   6    0.25    0.14 
   2  -5   6    0.01    0.13 
  -2   6  -6    0.22    0.28 
  -2   6  -6    0.14    0.14 
   2  -6   6    0.36    0.19 
   2  -6   6    0.27    0.19 
   2  -6   6   -0.01    0.13 
  -2   7  -6   -0.23    0.22 
   2  -7   6    0.00    0.17 
  -3  -7  -6   -0.18    0.28 
  -3  -7  -6   -0.30    0.28 
  -3  -6  -6   -0.25    0.23 
  -3  -6  -6    0.30    0.21 
   3   6   6   -0.40    0.29 
  -3  -5  -6    0.41    1.10 
  -3  -5  -6    0.83    0.20 
   3   5   6    0.62    0.20 
   3   4   6    0.77    0.22 
  -3  -3  -6   -0.49    0.51 
  -3  -3  -6    0.46    0.16 
   3   3   6    0.59    0.20 
  -3  -2  -6    0.86    0.15 
  -3  -2  -6    1.14    0.16 
   3   2   6    1.48    0.49 
  -3  -1  -6    2.45    0.46 
  -3  -1  -6    3.33    0.58 
  -3  -1  -6    2.24    0.40 
   3   1   6    3.61    0.62 
   3   1   6    2.56    0.38 
   3   1   6    1.41    0.49 
  -3   0  -6    0.41    0.40 
  -3   0  -6    1.22    0.16 
  -3   0  -6    1.54    0.27 
  -3   0  -6    1.23    0.21 
   3   0   6    1.74    0.41 
   3   0   6    1.13    0.22 
  -3   1  -6    1.60    0.29 
  -3   1  -6    2.52    0.44 
  -3   1  -6    2.21    0.68 
   3  -1   6    1.57    0.28 
   3  -1   6    1.37    0.46 
  -3   3  -6    0.25    0.15 
  -3   3  -6    0.35    0.10 
  -3   3  -6    0.00    0.09 
   3  -3   6    0.16    0.12 
   3  -3   6    0.11    0.20 
   3  -3   6    0.19    0.13 
   3  -4   6    0.74    0.17 
   3  -4   6    0.45    0.15 
  -3   5  -6    0.26    0.12 
  -3   5  -6    0.35    0.17 
  -3   5  -6    0.87    0.43 
   3  -5   6    0.41    0.17 
   3  -5   6    0.01    0.15 
  -3   6  -6    0.25    0.22 
  -3   6  -6    0.09    0.24 
   3  -6   6    0.50    0.27 
   3  -6   6    0.07    0.15 
   3  -6   6    0.08    0.22 
  -3   7  -6    0.65    0.41 
  -3   7  -6    0.19    0.29 
   3  -7   6    0.41    0.32 
   3  -7   6    0.01    0.17 
  -4  -6  -6    0.04    0.24 
   4   6   6    0.71    0.35 
  -4  -5  -6   -0.13    0.23 
   4   5   6   -0.36    0.33 
  -4  -4  -6    0.13    0.17 
  -4  -4  -6    0.40    0.18 
  -4  -3  -6    0.14    0.15 
  -4  -3  -6    0.04    0.11 
  -4  -3  -6   -0.10    0.14 
  -4  -2  -6    2.43    0.44 
  -4  -2  -6    2.14    0.38 
   4   2   6    3.17    0.39 
   4   2   6    2.76    0.41 
   4   2   6    3.14    0.54 
  -4  -1  -6    0.64    0.15 
   4   1   6    0.13    0.13 
   4   1   6    0.55    0.17 
  -4   0  -6    5.52    0.87 
  -4   0  -6    4.73    0.63 
  -4   0  -6    4.33    0.60 
   4   0   6    4.47    0.64 
   4   0   6    5.04    0.85 
   4   0   6    4.54    0.69 
  -4   1  -6   -0.08    0.11 
   4  -1   6   -0.05    0.12 
   4  -1   6    0.07    0.14 
   4  -1   6   -0.15    0.11 
  -4   2  -6    2.37    0.40 
   4  -2   6    1.71    0.21 
   4  -2   6    1.38    0.45 
  -4   3  -6    0.04    0.16 
  -4   3  -6   -0.02    0.11 
   4  -3   6    0.01    0.09 
   4  -3   6    0.25    0.14 
   4  -3   6    0.04    0.14 
   4  -3   6   -0.21    0.18 
  -4   4  -6    0.67    0.18 
   4  -4   6    0.67    0.17 
   4  -4   6    0.53    0.19 
   4  -4   6    0.49    0.16 
  -4   5  -6    0.37    0.23 
   4  -5   6    0.03    0.19 
  -4   6  -6    0.22    0.23 
  -4   6  -6   -0.06    0.24 
   4  -6   6    0.02    0.17 
   4  -6   6    0.04    0.23 
   4  -6   6    0.38    0.28 
  -5  -5  -6   -0.20    0.27 
   5   5   6    0.49    0.39 
  -5  -3  -6    0.42    0.19 
  -5  -3  -6    0.70    0.15 
   5   3   6    1.07    0.20 
  -5  -2  -6    0.13    0.15 
  -5  -2  -6    0.32    0.13 
  -5  -2  -6    0.01    0.19 
   5   2   6    0.50    0.17 
  -5  -1  -6    0.08    0.16 
  -5  -1  -6   -0.02    0.15 
  -5  -1  -6   -0.03    0.12 
   5   1   6    0.07    0.21 
   5   1   6    0.09    0.16 
  -5   0  -6    0.19    0.12 
   5   0   6    0.36    0.14 
   5   0   6   -0.10    0.17 
   5   0   6    0.22    0.16 
  -5   1  -6    0.15    0.16 
  -5   1  -6    0.16    0.12 
   5  -1   6    0.23    0.16 
   5  -1   6    0.22    0.15 
  -5   2  -6    0.38    0.16 
  -5   2  -6    0.24    0.13 
   5  -2   6   -0.15    0.21 
   5  -2   6    0.13    0.16 
   5  -2   6    0.37    0.15 
  -5   3  -6    0.83    0.15 
   5  -3   6    0.44    0.24 
   5  -3   6    1.08    0.25 
  -5   4  -6    0.07    0.18 
  -5   4  -6    0.03    0.24 
  -5   4  -6    0.28    0.21 
   5  -4   6    0.16    0.28 
   5  -4   6    0.02    0.21 
  -5   5  -6   -0.08    0.25 
  -5   5  -6    0.15    0.23 
   5  -5   6    0.02    0.22 
  -5   6  -6   -0.08    0.27 
  -6  -4  -6   -0.02    0.18 
  -6  -4  -6    0.08    0.29 
  -6  -3  -6   -0.49    0.95 
  -6  -3  -6    0.29    0.16 
   6   3   6    0.79    0.35 
  -6  -2  -6    0.47    0.24 
   6   2   6    0.12    0.22 
  -6  -1  -6    0.14    0.20 
  -6  -1  -6    0.04    0.17 
   6   1   6    0.18    0.19 
   6   1   6    0.53    0.32 
  -6   0  -6    0.26    0.18 
  -6   0  -6    0.36    0.14 
   6   0   6    0.56    0.19 
  -6   1  -6    0.51    0.32 
  -6   1  -6    0.44    0.18 
   6  -1   6   -0.13    0.18 
   6  -1   6   -0.18    0.28 
  -6   2  -6    0.31    0.21 
  -6   2  -6    0.48    0.17 
   6  -2   6    0.53    0.19 
   6  -2   6    0.57    0.26 
  -6   3  -6    0.12    0.17 
  -6   3  -6   -0.09    0.22 
  -6   4  -6    0.12    0.25 
  -6   4  -6    0.06    0.23 
   6  -4   6   -0.23    0.35 
   6  -4   6    0.24    0.23 
  -7  -3  -6   -0.11    0.28 
  -7  -3  -6   -0.01    0.20 
   7   3   6    0.50    0.52 
  -7  -2  -6   -0.02    0.19 
  -7  -2  -6   -0.38    0.28 
  -7  -1  -6   -0.18    0.24 
  -7  -1  -6    0.27    0.18 
   7   1   6   -0.26    0.38 
   7   1   6    0.29    0.24 
   7   0   6    0.66    0.23 
   7   0   6    1.23    0.32 
  -7   1  -6    0.08    0.18 
  -7   1  -6    0.06    0.23 
   7  -1   6   -0.38    0.36 
   7  -1   6   -0.01    0.22 
   7  -2   6    0.11    0.25 
  -7   3  -6    0.24    0.23 
  -7   3  -6    0.09    0.27 
  -7   3  -6    0.92    0.31 
   7  -3   6    0.57    0.27 
  11  -1  -7   -0.04    0.19 
  11  -1  -7    0.15    0.14 
 -11   1   7    0.12    0.20 
  11   0  -7    0.24    0.16 
  11   0  -7    0.01    0.14 
 -11   0   7    0.16    0.20 
 -11   0   7   -0.30    0.25 
  11   1  -7    0.32    0.16 
 -11  -1   7    0.16    0.21 
  10  -4  -7    0.19    0.18 
  10  -3  -7    0.17    0.14 
  10  -3  -7    0.29    0.19 
 -10   3   7    0.18    0.22 
  10  -2  -7    0.07    0.13 
  10  -2  -7   -0.07    0.15 
 -10   2   7   -0.16    0.20 
  10  -1  -7    1.27    0.18 
  10  -1  -7    1.27    0.24 
 -10   1   7    1.43    0.30 
 -10   1   7    1.38    0.25 
  10   0  -7    1.35    0.24 
 -10   0   7    1.62    0.18 
 -10   0   7    1.13    0.24 
  10   1  -7    1.77    0.22 
  10   1  -7    1.57    0.22 
 -10  -1   7    1.17    0.18 
  10   2  -7   -0.22    0.17 
  10   2  -7    0.28    0.16 
 -10  -2   7    0.31    0.19 
  10   3  -7   -0.05    0.19 
 -10  -3   7   -0.09    0.27 
 -10  -3   7    0.23    0.20 
  10   4  -7   -0.26    0.26 
 -10  -4   7   -0.11    0.27 
   9  -5  -7    0.42    0.19 
  -9   5   7   -0.30    0.24 
   9  -4  -7   -0.02    0.17 
   9  -4  -7    0.00    0.13 
  -9   4   7    0.48    0.23 
  -9   4   7   -0.02    0.21 
   9  -3  -7    0.13    0.13 
   9  -3  -7   -0.05    0.14 
  -9   3   7    0.05    0.21 
   9  -2  -7    0.41    0.12 
  -9   2   7    0.43    0.28 
   9  -1  -7    0.12    0.11 
   9  -1  -7    0.24    0.13 
  -9   1   7   -0.02    0.13 
   9   0  -7    0.29    0.12 
   9   1  -7    0.23    0.10 
  -9  -1   7   -0.08    0.16 
  -9  -2   7   -0.01    0.14 
  -9  -2   7   -0.09    0.18 
  -9  -2   7    0.23    0.19 
   9   3  -7    0.17    0.18 
   9   3  -7    0.84    0.19 
   9   4  -7   -0.11    0.19 
   9   4  -7    0.05    0.22 
  -9  -4   7    0.33    0.22 
  -9  -4   7    0.04    0.15 
  -9  -4   7   -0.19    0.26 
   9   5  -7   -0.09    0.22 
   9   5  -7   -0.13    0.19 
  -9  -5   7   -0.25    0.26 
  -9  -5   7    0.03    0.21 
  -8   6   7   -0.19    0.24 
  -8   6   7    0.31    0.25 
   8  -5  -7    0.25    0.17 
   8  -4  -7   -0.07    0.11 
   8  -4  -7    0.06    0.16 
  -8   4   7    0.46    0.18 
  -8   4   7    0.13    0.18 
   8  -3  -7    0.54    0.11 
   8  -3  -7    0.25    0.13 
  -8   3   7    0.33    0.16 
   8  -2  -7    0.13    0.11 
  -8   2   7    0.22    0.14 
  -8   2   7    0.00    0.13 
   8  -1  -7    0.73    0.11 
  -8   1   7    0.74    0.14 
  -8   1   7    0.56    0.15 
   8   0  -7    0.08    0.11 
   8   0  -7    0.21    0.10 
   8   0  -7    0.20    0.09 
  -8   0   7    0.01    0.13 
   8   1  -7    0.39    0.12 
   8   1  -7    0.27    0.10 
   8   1  -7    0.24    0.14 
  -8  -1   7    0.54    0.16 
  -8  -1   7    0.43    0.08 
   8   2  -7    0.11    0.44 
   8   2  -7   -0.09    0.14 
   8   2  -7    0.19    0.10 
  -8  -2   7   -0.03    0.15 
  -8  -2   7    0.17    0.14 
   8   3  -7    0.19    0.17 
   8   3  -7    0.24    0.12 
   8   3  -7    0.05    0.59 
  -8  -3   7    0.14    0.18 
  -8  -3   7    0.50    0.19 
  -8  -3   7    0.08    0.14 
   8   4  -7    0.38    0.20 
   8   4  -7    0.14    0.16 
   8   4  -7    0.04    0.15 
  -8  -4   7    0.03    0.16 
  -8  -4   7   -0.13    0.19 
  -8  -4   7    0.30    0.19 
   8   5  -7    0.37    0.19 
   8   5  -7    0.39    0.24 
   8   5  -7    0.35    0.20 
  -8  -5   7    0.10    0.19 
  -8  -5   7   -0.11    0.23 
  -8  -5   7    0.12    0.23 
   8   6  -7    0.21    0.23 
   8   6  -7   -0.14    0.22 
  -8  -6   7    0.03    0.22 
   7  -6  -7    0.44    0.19 
  -7   6   7    0.69    0.23 
  -7   6   7    0.23    0.25 
   7  -5  -7    2.15    0.23 
  -7   5   7    1.62    0.22 
   7  -4  -7    1.74    0.30 
  -7   4   7    2.56    0.26 
  -7   4   7    2.02    0.30 
   7  -3  -7    9.32    1.33 
   7  -3  -7   11.85    1.43 
   7  -3  -7   12.88    1.46 
  -7   3   7   12.49    1.45 
  -7   3   7   12.64    1.45 
   7  -2  -7    2.59    0.43 
   7  -2  -7    3.18    0.53 
   7  -2  -7    2.20    0.42 
  -7   2   7    2.67    0.48 
  -7   2   7    3.33    0.49 
  -7   2   7    3.60    0.46 
   7  -1  -7    9.92    1.21 
   7  -1  -7    9.63    1.10 
   7  -1  -7    8.90    1.08 
  -7   1   7   10.88    1.22 
  -7   1   7    9.32    1.08 
   7   0  -7   27.82    2.23 
   7   0  -7   30.74    2.46 
   7   0  -7   24.41    2.15 
  -7   0   7   23.41    2.28 
  -7   0   7   31.50    2.55 
  -7   0   7   31.89    2.58 
   7   1  -7   11.06    1.24 
   7   1  -7    9.88    1.25 
   7   1  -7   11.73    1.23 
  -7  -1   7    9.27    1.08 
  -7  -1   7    8.37    1.13 
  -7  -1   7   10.67    1.16 
   7   2  -7    2.96    0.46 
   7   2  -7    3.25    0.57 
   7   2  -7    4.29    0.59 
  -7  -2   7    3.66    0.59 
  -7  -2   7    2.88    0.55 
  -7  -2   7    4.53    0.55 
   7   3  -7   10.42    1.33 
   7   3  -7   13.61    1.52 
   7   3  -7   12.36    1.48 
  -7  -3   7   13.52    1.53 
  -7  -3   7   12.77    1.48 
  -7  -3   7   12.51    1.57 
   7   4  -7    1.85    0.22 
  -7  -4   7    2.25    0.22 
  -7  -4   7    1.38    0.24 
   7   5  -7    1.41    0.41 
  -7  -5   7    1.39    0.24 
   7   6  -7    0.48    0.32 
   7   6  -7    0.49    0.21 
   7   6  -7    0.43    0.19 
  -7  -6   7    0.00    0.20 
  -7  -6   7   -0.22    0.26 
  -7  -6   7   -0.12    0.23 
   6  -7  -7    0.07    0.19 
   6  -7  -7   -2.75    2.38 
  -6   7   7    0.63    0.28 
   6  -5  -7    3.99    0.66 
  -6   5   7    4.34    0.56 
  -6   5   7    3.81    0.52 
   6  -4  -7    0.66    0.13 
   6  -4  -7    0.66    0.16 
   6  -3  -7    3.61    0.60 
  -6   3   7    5.27    0.71 
  -6   3   7    4.02    0.53 
   6  -2  -7    5.43    0.96 
   6  -2  -7    4.17    0.71 
  -6   2   7    4.66    0.64 
  -6   2   7    4.79    0.64 
   6  -1  -7   37.64    2.82 
   6  -1  -7   35.13    2.67 
   6  -1  -7   27.84    2.34 
   6  -1  -7   32.04    2.62 
  -6   1   7   35.67    2.69 
  -6   1   7   30.55    2.53 
  -6   1   7   32.83    2.59 
  -6   1   7   40.11    2.90 
  -6   0   7    0.71    0.14 
  -6   0   7    0.83    0.15 
   6   1  -7   32.81    2.57 
   6   1  -7   39.78    3.05 
   6   1  -7   33.51    2.72 
   6   1  -7   35.82    2.87 
  -6  -1   7   41.78    3.03 
  -6  -1   7   40.10    3.00 
  -6  -1   7   35.42    2.89 
  -6  -1   7   31.13    2.82 
   6   2  -7    4.44    0.74 
  -6  -2   7    5.41    0.72 
  -6  -2   7    4.40    0.67 
  -6  -2   7    3.88    0.59 
   6   3  -7    4.04    0.61 
   6   3  -7    5.43    0.76 
   6   3  -7    5.18    0.78 
  -6  -3   7    4.13    0.66 
  -6  -3   7    4.77    0.67 
  -6  -3   7    6.50    0.90 
   6   4  -7    1.27    0.18 
  -6  -4   7    1.10    0.16 
  -6  -4   7    0.84    0.18 
  -6  -4   7    0.97    0.21 
   6   5  -7    3.76    0.51 
  -6  -5   7    3.47    0.56 
  -6  -5   7    2.91    0.48 
   6   6  -7    0.13    0.15 
   6   6  -7    0.20    0.24 
   6   6  -7   -0.04    0.17 
  -6  -6   7    0.21    0.23 
  -6  -6   7    0.10    0.17 
  -6  -6   7    0.06    0.22 
   6   7  -7    0.50    0.30 
   6   7  -7    0.55    0.20 
   5  -7  -7    1.64    2.19 
  -5   7   7    0.57    0.33 
   5  -6  -7    0.05    0.16 
   5  -6  -7   -0.13    0.22 
  -5   6   7    0.12    0.18 
  -5   6   7   -0.21    0.32 
   5  -5  -7   -0.02    0.18 
  -5   5   7    0.03    0.16 
  -5   5   7   -0.07    0.22 
  -5   5   7    0.18    0.14 
   5  -4  -7    1.29    0.17 
  -5   4   7    1.18    0.16 
  -5   4   7    0.86    0.15 
   5  -3  -7    0.18    0.08 
   5  -3  -7    0.34    0.16 
  -5   3   7    0.00    0.09 
   5  -2  -7    8.31    0.99 
  -5   2   7    8.35    0.95 
  -5   2   7    7.75    1.07 
  -5   2   7    8.66    1.03 
   5  -1  -7    0.03    0.07 
   5  -1  -7    0.16    0.15 
   5  -1  -7    0.14    0.06 
  -5   1   7    0.53    0.19 
  -5   1   7    0.00    0.07 
  -5   1   7    0.24    0.08 
  -5   1   7    0.01    0.09 
   5   0  -7   10.67    1.22 
   5   0  -7    8.63    1.14 
   5   0  -7   10.16    0.96 
  -5   0   7   10.14    1.18 
  -5   0   7   11.51    1.25 
  -5   0   7    9.95    1.11 
  -5   0   7   11.50    1.23 
  -5   0   7   11.79    1.29 
   5   1  -7    0.86    0.18 
  -5  -1   7    0.67    0.29 
   5   2  -7    9.99    1.22 
   5   2  -7    8.64    1.03 
   5   2  -7   11.92    1.36 
  -5  -2   7   10.20    1.17 
  -5  -2   7    8.45    1.18 
  -5  -2   7   13.04    1.42 
  -5  -2   7   12.47    1.39 
   5   3  -7    1.26    0.18 
  -5  -3   7    1.25    0.16 
  -5  -3   7    1.22    0.27 
  -5  -3   7    1.85    0.31 
  -5  -4   7    0.34    0.16 
  -5  -4   7    0.49    0.11 
   5   5  -7    0.00    0.63 
   5   5  -7    0.23    0.10 
  -5  -5   7   -0.05    0.14 
  -5  -5   7   -0.01    0.15 
   5   6  -7    0.09    0.23 
   5   6  -7    0.22    0.17 
   5   6  -7    0.05    0.15 
  -5  -6   7    0.00    0.14 
   5   7  -7    0.10    0.27 
   5   7  -7    0.50    0.19 
   5   7  -7    0.49    0.19 
   4  -7  -7    1.85    2.01 
  -4   7   7    0.93    0.20 
  -4   7   7    0.30    0.40 
   4  -6  -7   -0.19    0.22 
   4  -6  -7   -0.04    0.13 
  -4   6   7    0.22    0.30 
   4  -5  -7    1.45    0.57 
  -4   5   7    0.10    0.14 
  -4   5   7    0.05    0.21 
  -4   5   7    0.37    0.14 
   4  -4  -7    3.26    0.61 
   4  -4  -7    2.40    0.37 
  -4   4   7    2.38    0.45 
  -4   4   7    3.36    0.46 
   4  -3  -7    0.31    0.12 
   4  -3  -7    0.22    0.13 
   4  -2  -7    0.00    0.07 
   4  -2  -7    0.13    0.08 
   4  -2  -7    0.13    0.06 
  -4   2   7    0.01    0.07 
  -4   2   7    0.01    0.06 
   4  -1  -7    0.89    0.31 
   4  -1  -7    0.57    0.22 
  -4   1   7    0.06    0.21 
  -4   1   7    0.49    0.12 
  -4   1   7    0.44    0.09 
  -4   1   7    0.28    0.10 
   4   0  -7   -0.07    0.05 
   4   0  -7   -0.09    0.07 
  -4   0   7    0.12    0.08 
  -4   0   7    0.20    0.08 
  -4   0   7    0.02    0.07 
  -4   0   7    0.04    0.07 
  -4   0   7    0.00    0.07 
   4   1  -7    1.19    0.25 
  -4  -1   7    0.72    0.23 
  -4  -1   7    0.44    0.17 
  -4  -1   7    0.73    0.13 
  -4  -2   7    0.41    0.10 
   4   3  -7    0.51    0.12 
  -4  -3   7    0.35    0.11 
  -4  -3   7    0.36    0.12 
  -4  -3   7    0.63    0.13 
   4   4  -7    2.82    0.58 
   4   4  -7    2.28    0.39 
  -4  -4   7    2.50    0.39 
  -4  -4   7    2.37    0.29 
  -4  -4   7    1.71    0.62 
  -4  -4   7    1.90    0.38 
   4   5  -7    0.30    0.10 
   4   5  -7    0.15    0.12 
   4   5  -7    0.46    0.13 
  -4  -5   7    0.12    0.16 
   4   6  -7    0.61    0.22 
   4   6  -7    0.13    0.14 
   4   6  -7    0.40    0.15 
   4   6  -7    0.09    0.15 
  -4  -6   7    0.27    0.17 
   4   7  -7    0.14    0.21 
  -4  -7   7    0.50    0.21 
   3  -8  -7   -0.08    0.20 
  -3   8   7   -0.30    0.41 
  -3   8   7    0.09    0.26 
   3  -7  -7    0.48    0.96 
   3  -7  -7    0.61    1.09 
  -3   7   7    0.13    0.24 
  -3   7   7    0.12    0.38 
   3  -6  -7    1.13    0.24 
   3  -5  -7    0.46    0.11 
   3  -5  -7    0.74    0.18 
   3  -5  -7    0.34    0.13 
  -3   5   7    0.72    0.15 
   3  -4  -7    0.30    0.11 
   3  -4  -7    0.40    0.11 
  -3   4   7    0.30    0.12 
   3  -3  -7    0.26    0.11 
   3  -3  -7    0.05    0.09 
   3  -3  -7   -0.02    0.07 
  -3   3   7   -0.06    0.11 
  -3   3   7    0.03    0.08 
  -3   3   7    0.11    0.09 
   3  -2  -7    0.07    0.07 
   3  -2  -7    0.08    0.08 
   3  -2  -7   -0.04    0.07 
  -3   2   7    0.12    0.08 
  -3   2   7    0.00    0.06 
  -3   2   7    0.03    0.07 
   3  -1  -7    0.04    0.06 
  -3   1   7    0.04    0.06 
   3   0  -7    0.21    0.05 
   3   0  -7    0.09    0.06 
   3   0  -7    0.29    0.15 
  -3   0   7    0.13    0.36 
  -3   0   7    0.21    0.07 
   3   1  -7    0.10    0.06 
  -3  -1   7    0.00    0.07 
  -3  -1   7    0.03    0.07 
  -3  -1   7    0.00    0.07 
  -3  -2   7    0.16    0.09 
  -3  -2   7    0.01    0.08 
  -3  -2   7    0.03    0.07 
   3   3  -7    0.17    0.08 
  -3  -3   7    0.24    0.10 
  -3  -3   7    0.26    0.09 
  -3  -3   7    0.17    0.08 
   3   4  -7    0.29    0.12 
   3   4  -7    0.24    0.16 
   3   4  -7    0.33    0.09 
  -3  -4   7    0.08    0.12 
  -3  -4   7    0.57    0.13 
  -3  -4   7    0.39    0.11 
   3   5  -7    0.91    0.13 
  -3  -5   7    0.74    0.16 
  -3  -5   7    0.93    0.22 
  -3  -5   7    1.17    0.20 
   3   6  -7    0.62    0.22 
   3   6  -7    0.08    0.90 
  -3  -6   7    0.27    0.16 
  -3  -6   7    0.07    0.14 
   3   7  -7    0.20    0.18 
   3   7  -7    0.04    0.20 
  -3  -7   7    0.06    0.18 
  -3  -7   7    0.51    0.19 
   3   8  -7    0.53    0.22 
   3   8  -7    0.09    0.25 
  -3  -8   7    0.09    0.20 
  -3  -8   7    0.60    0.26 
   2  -8  -7   -0.24    0.22 
  -2   8   7   -0.07    0.29 
   2  -7  -7   -0.13    0.23 
   2  -7  -7    0.07    0.17 
  -2   7   7    0.45    0.23 
  -2   7   7    0.16    0.35 
   2  -6  -7    0.06    0.18 
   2  -6  -7    0.43    0.50 
   2  -6  -7    0.18    0.21 
  -2   6   7    0.17    0.17 
  -2   6   7    0.02    0.12 
   2  -5  -7    0.11    0.10 
   2  -5  -7    0.07    0.14 
   2  -5  -7   -0.06    0.12 
   2  -5  -7    0.20    0.18 
  -2   5   7   -0.08    0.08 
   2  -4  -7    0.08    0.08 
   2  -4  -7    0.09    0.08 
   2  -4  -7    0.03    0.09 
  -2   4   7    0.22    0.15 
  -2   4   7    0.08    0.08 
  -2   4   7    0.16    0.11 
   2  -3  -7    0.46    0.11 
   2  -3  -7    0.74    0.17 
   2  -3  -7    0.42    0.15 
  -2   3   7    0.42    0.08 
  -2   3   7    0.39    0.15 
  -2   3   7    0.40    0.10 
   2  -2  -7    0.22    0.06 
   2  -2  -7    0.14    0.07 
  -2   2   7    0.21    0.08 
  -2   2   7    0.14    0.08 
   2  -1  -7    5.39    0.78 
   2  -1  -7    6.19    0.67 
   2  -1  -7    6.33    1.24 
   2  -1  -7    6.94    0.57 
  -2   1   7    6.02    0.83 
  -2   1   7    4.58    0.69 
  -2   1   7    5.54    0.75 
  -2   1   7    5.73    0.77 
   2   0  -7    2.07    0.43 
   2   0  -7    1.66    0.29 
  -2   0   7    2.57    0.51 
  -2   0   7    1.93    0.32 
  -2   0   7    2.59    0.52 
   2   1  -7    6.68    0.86 
   2   1  -7    6.68    0.89 
  -2  -1   7    4.76    0.70 
  -2  -1   7    7.34    0.94 
  -2  -1   7    4.48    0.69 
  -2  -1   7    5.19    0.78 
   2   2  -7    0.35    0.09 
  -2  -2   7    0.29    0.08 
  -2  -2   7    0.40    0.09 
   2   3  -7    0.74    0.23 
   2   3  -7    0.24    0.10 
  -2  -3   7    0.46    0.20 
  -2  -3   7    0.90    0.32 
  -2  -3   7    0.38    0.09 
  -2  -3   7    0.28    0.09 
   2   4  -7   -0.02    0.09 
   2   4  -7    0.07    0.08 
  -2  -4   7    0.12    0.11 
  -2  -4   7    0.25    0.08 
  -2  -4   7    0.01    0.11 
  -2  -4   7    0.28    0.11 
  -2  -4   7   -0.02    0.12 
  -2  -4   7    0.12    0.08 
   2   5  -7    0.08    0.11 
   2   5  -7    0.25    0.11 
   2   5  -7    0.42    0.19 
  -2  -5   7    0.15    0.11 
  -2  -5   7    0.21    0.15 
  -2  -5   7    0.16    0.11 
   2   6  -7    0.40    0.22 
   2   6  -7    0.19    0.16 
   2   6  -7   -0.06    0.72 
  -2  -6   7    0.27    0.14 
  -2  -6   7    0.12    0.15 
   2   7  -7    0.33    0.16 
   2   7  -7    0.07    0.17 
  -2  -7   7    0.39    0.18 
  -2  -7   7    0.30    0.21 
   2   8  -7    0.05    0.22 
   2   8  -7   -0.06    0.22 
  -2  -8   7    0.28    0.22 
  -1   8   7    1.13    0.26 
   1  -7  -7    0.05    0.26 
  -1   7   7    0.00    0.36 
   1  -6  -7   -0.03    0.17 
   1  -6  -7    0.30    0.95 
   1  -6  -7    0.10    0.15 
  -1   6   7   -0.16    0.34 
   1  -5  -7    0.18    0.13 
   1  -5  -7    0.18    0.17 
  -1   5   7    0.38    0.19 
  -1   5   7    0.09    0.09 
   1  -4  -7    2.56    0.46 
   1  -4  -7    1.64    0.27 
  -1   4   7    2.27    0.33 
   1  -3  -7    0.75    0.14 
   1  -3  -7    0.60    0.13 
  -1   3   7    0.77    0.13 
  -1   3   7    0.55    0.18 
   1  -2  -7    4.88    0.73 
   1  -2  -7    3.72    0.49 
   1  -2  -7    3.44    0.57 
   1  -2  -7    4.84    0.71 
  -1   2   7    4.01    0.64 
  -1   2   7    4.24    0.71 
  -1   2   7    3.25    0.54 
  -1   2   7    3.92    0.61 
   1  -1  -7    0.47    0.09 
   1  -1  -7    0.59    0.12 
   1  -1  -7    0.65    0.23 
   1  -1  -7    0.90    0.98 
  -1   1   7    0.77    0.26 
  -1   1   7    0.30    0.07 
  -1   1   7    0.43    0.09 
   1   0  -7   18.24    1.74 
   1   0  -7   16.56    1.17 
  -1   0   7   16.94    1.57 
  -1   0   7   17.64    1.62 
  -1   0   7   15.04    1.50 
  -1   0   7   15.91    1.55 
  -1   0   7   14.95    1.44 
   1   1  -7    0.75    0.28 
   1   1  -7    0.75    0.23 
   1   1  -7    0.35    0.12 
  -1  -1   7    0.68    0.25 
  -1  -1   7    0.40    0.12 
  -1  -1   7    0.45    0.29 
  -1  -1   7    0.58    0.11 
   1   2  -7    4.82    0.71 
   1   2  -7    4.81    0.61 
   1   2  -7    4.74    0.74 
   1   2  -7    5.53    0.53 
  -1  -2   7    4.07    0.66 
  -1  -2   7    3.83    0.60 
  -1  -2   7    4.22    0.72 
  -1  -2   7    4.61    0.73 
   1   3  -7    0.36    0.11 
   1   3  -7    0.26    0.09 
  -1  -3   7    0.30    0.10 
  -1  -3   7    0.31    0.12 
   1   4  -7    1.10    0.25 
   1   4  -7    1.06    0.45 
  -1  -4   7    0.89    0.22 
  -1  -4   7    1.45    0.23 
   1   5  -7    0.12    0.10 
   1   5  -7    0.13    0.12 
   1   5  -7    0.21    0.17 
   1   5  -7    0.32    0.12 
  -1  -5   7    0.07    0.14 
  -1  -5   7    0.16    0.09 
  -1  -5   7   -0.03    0.17 
  -1  -5   7    0.00    0.09 
  -1  -5   7    0.14    0.11 
  -1  -5   7    0.33    0.14 
   1   6  -7    0.00    0.16 
   1   6  -7    0.05    1.03 
   1   6  -7   -0.03    0.21 
   1   6  -7    0.22    0.13 
  -1  -6   7    0.00    0.12 
  -1  -6   7    0.22    0.15 
  -1  -6   7    0.08    0.14 
   1   7  -7   -0.02    0.18 
   1   7  -7    0.03    0.20 
  -1  -7   7   -0.06    0.16 
  -1  -7   7   -0.01    0.15 
  -1  -7   7    0.44    0.24 
   1   8  -7   -0.28    0.25 
   1   8  -7   -0.08    0.21 
  -1  -8   7   -0.06    0.23 
   0  -7  -7    0.01    0.27 
   0   7   7    0.54    0.24 
   0  -6  -7    1.39    0.33 
   0  -6  -7    1.02    0.22 
   0  -5  -7    0.84    0.21 
   0   5   7    0.83    0.18 
   0  -4  -7    1.28    0.22 
   0  -4  -7    1.80    0.28 
   0   4   7    1.58    0.23 
   0  -3  -7    0.25    0.10 
   0  -3  -7    0.10    0.08 
   0   3   7    0.21    0.11 
   0  -2  -7    1.45    0.57 
   0  -2  -7    0.80    0.16 
   0  -2  -7    0.47    0.12 
   0  -2  -7    0.68    0.16 
   0   2   7    0.75    0.15 
   0   2   7    1.27    0.49 
   0   2   7    0.60    0.19 
   0  -1  -7    0.27    0.11 
   0  -1  -7    0.37    0.08 
   0   1   7    0.10    0.06 
   0   1   7    0.21    0.08 
   0   1   7    0.25    0.08 
   0   0  -7    3.59    0.53 
   0   0  -7    3.08    0.54 
   0   0  -7    3.35    0.61 
   0   0  -7    4.24    0.48 
   0   0   7    3.44    0.56 
   0   0   7    3.89    0.64 
   0   0   7    2.33    0.46 
   0  -1   7    0.33    0.07 
   0  -1   7    0.22    0.09 
   0   2  -7    1.25    0.28 
   0   2  -7    0.73    0.20 
   0  -2   7    0.65    0.16 
   0  -2   7    0.76    0.19 
   0   3  -7   -0.11    0.11 
   0   3  -7    0.27    0.13 
   0   3  -7    0.02    0.07 
   0  -3   7   -0.04    0.08 
   0  -3   7   -0.11    0.10 
   0  -3   7    0.05    0.08 
   0  -3   7    0.11    0.10 
   0  -3   7    0.00    0.08 
   0  -3   7    0.05    0.09 
   0   4  -7    0.57    0.12 
   0  -4   7    0.93    0.14 
   0  -4   7    1.16    0.15 
   0  -4   7    1.11    0.38 
   0  -4   7    0.76    0.19 
   0   5  -7   -0.08    0.14 
   0   5  -7   -0.01    0.17 
   0   5  -7    0.07    0.13 
   0   5  -7   -0.16    0.18 
   0   5  -7    0.19    0.16 
   0   5  -7    0.01    0.13 
   0  -5   7    0.05    0.14 
   0  -5   7    0.02    0.13 
   0  -5   7    0.02    0.09 
   0  -5   7    0.05    0.17 
   0  -5   7   -0.02    0.11 
   0   6  -7    0.94    0.17 
   0   7  -7    0.08    0.19 
   0   7  -7    0.19    0.20 
   0  -7   7   -0.02    0.16 
  -1  -7  -7   -0.16    0.25 
   1   7   7    0.66    0.26 
  -1  -6  -7    0.63    1.14 
  -1  -6  -7    1.05    0.27 
   1   6   7    1.28    0.20 
  -1  -5  -7    0.07    1.23 
   1   5   7    0.44    0.16 
   1   3   7    0.45    0.12 
  -1  -2  -7    6.05    0.88 
  -1  -2  -7    5.72    0.82 
  -1  -2  -7    4.44    0.64 
   1   2   7    5.86    0.88 
   1   2   7    5.16    0.72 
  -1  -1  -7    0.41    0.10 
   1   1   7    0.38    0.12 
  -1   0  -7    1.61    0.49 
  -1   0  -7    2.54    0.47 
  -1   0  -7    2.79    0.51 
  -1   0  -7    1.48    1.34 
   1   0   7    2.87    0.46 
   1   0   7    2.30    0.69 
   1   0   7    1.84    0.36 
  -1   1  -7   -0.09    0.09 
   1  -1   7    0.17    0.09 
   1  -1   7    0.03    0.07 
   1  -1   7    0.15    0.08 
   1  -1   7   -0.06    0.08 
   1  -1   7   -0.12    0.09 
  -1   2  -7    4.49    0.76 
  -1   2  -7    5.81    0.74 
   1  -2   7    5.86    0.82 
   1  -2   7    5.94    0.90 
  -1   3  -7    0.21    0.09 
   1  -3   7    0.02    0.10 
   1  -3   7    0.08    0.10 
   1  -3   7    0.04    0.08 
   1  -3   7   -0.01    0.10 
   1  -3   7    0.41    0.12 
  -1   4  -7   -0.04    0.11 
  -1   4  -7    0.18    0.09 
  -1   4  -7   -0.23    0.15 
  -1   4  -7   -0.02    0.11 
   1  -4   7    0.04    0.12 
   1  -4   7    0.02    0.09 
   1  -4   7    0.10    0.11 
   1  -4   7   -0.17    0.12 
   1  -4   7    0.04    0.12 
  -1   5  -7   -0.03    0.14 
  -1   5  -7    0.10    0.11 
  -1   5  -7   -0.16    0.17 
  -1   5  -7   -0.04    0.19 
   1  -5   7   -0.05    0.14 
   1  -5   7   -0.01    0.12 
   1  -5   7    0.15    0.14 
  -1   6  -7    0.42    0.29 
   1  -6   7    0.19    0.18 
  -2  -7  -7   -0.12    0.28 
  -2  -7  -7    0.05    0.29 
   2   7   7   -0.17    0.41 
  -2  -6  -7   -0.24    0.21 
  -2  -6  -7    0.06    0.24 
   2   6   7   -0.33    0.30 
   2   5   7    0.72    0.22 
  -2  -4  -7   -0.21    0.62 
   2   4   7    0.46    0.15 
  -2  -3  -7    0.61    0.15 
  -2  -3  -7    0.83    0.18 
  -2  -3  -7    0.31    0.11 
   2   3   7    0.46    0.13 
  -2  -2  -7    0.11    0.09 
  -2  -1  -7    6.54    0.88 
  -2  -1  -7    5.07    0.90 
   2   1   7    7.78    1.06 
   2   1   7    5.88    0.82 
  -2   0  -7    0.19    0.09 
   2   0   7    0.10    0.10 
  -2   1  -7    7.32    0.95 
  -2   1  -7    5.62    0.87 
   2  -1   7    6.83    0.92 
   2  -1   7    6.99    0.96 
   2  -1   7    6.81    0.91 
  -2   2  -7    0.17    0.12 
  -2   2  -7    0.18    0.10 
   2  -2   7    0.15    0.11 
  -2   3  -7    0.34    0.15 
  -2   3  -7    0.30    0.12 
   2  -3   7    0.54    0.12 
   2  -3   7    0.58    0.10 
   2  -3   7    0.77    0.17 
  -2   4  -7    0.04    0.10 
  -2   4  -7    0.31    0.12 
  -2   4  -7    0.38    0.18 
   2  -4   7   -0.01    0.10 
   2  -4   7    0.27    0.14 
   2  -4   7    0.11    0.14 
   2  -4   7   -0.06    0.15 
  -2   5  -7   -0.12    0.19 
  -2   5  -7    0.18    0.18 
  -2   5  -7    0.15    0.14 
  -2   5  -7    0.04    0.11 
   2  -5   7    0.14    0.16 
   2  -5   7   -0.22    0.19 
   2  -5   7    0.09    0.15 
  -2   6  -7    0.22    0.16 
  -2   6  -7    0.19    0.22 
  -2   6  -7    0.36    0.35 
   2  -6   7    0.22    0.24 
  -2   7  -7   -0.22    1.84 
   2  -7   7   -0.39    0.29 
  -3  -6  -7   -0.26    0.26 
  -3  -6  -7   -0.06    0.26 
   3   6   7    0.26    0.37 
  -3  -5  -7    0.49    0.23 
   3   4   7    1.00    0.16 
  -3  -3  -7    0.39    0.15 
   3   3   7    0.59    0.13 
  -3  -2  -7    0.82    0.16 
  -3  -2  -7    0.22    0.14 
   3   2   7    1.29    0.48 
   3   2   7    0.50    0.13 
  -3  -1  -7    1.66    0.25 
  -3  -1  -7    2.60    0.44 
  -3  -1  -7    2.30    0.39 
   3   1   7    1.74    0.21 
  -3   0  -7   12.36    1.58 
  -3   0  -7   13.18    1.49 
  -3   0  -7   12.12    1.52 
   3   0   7   12.72    1.52 
   3   0   7   14.11    1.57 
   3   0   7   13.25    1.48 
  -3   1  -7    2.09    0.42 
  -3   1  -7    2.44    0.38 
   3  -1   7    2.50    0.43 
   3  -1   7    2.20    0.26 
   3  -1   7    2.22    0.39 
  -3   2  -7    0.87    0.20 
  -3   2  -7    0.25    0.17 
  -3   2  -7    0.56    0.11 
   3  -2   7    0.57    0.13 
   3  -2   7    0.77    0.16 
  -3   3  -7    0.24    0.11 
  -3   3  -7    0.64    0.20 
   3  -3   7    0.36    0.14 
  -3   4  -7    0.73    0.21 
  -3   4  -7    0.32    0.13 
  -3   4  -7    0.48    0.13 
   3  -4   7    0.74    0.18 
   3  -4   7    0.23    0.18 
  -3   5  -7    0.05    0.13 
  -3   5  -7    0.08    0.20 
   3  -5   7    0.09    0.18 
   3  -5   7    0.15    0.19 
  -3   6  -7    0.53    0.23 
  -3   6  -7    0.08    0.23 
   3  -6   7    0.60    0.31 
  -4  -5  -7   -0.16    0.94 
  -4  -4  -7    0.82    0.23 
   4   4   7    0.40    0.22 
  -4  -3  -7    0.26    0.13 
  -4  -3  -7    0.44    0.18 
  -4  -2  -7    1.30    0.23 
  -4  -2  -7    1.38    0.19 
   4   2   7    1.21    0.19 
   4   2   7    1.19    0.30 
  -4  -1  -7   -0.07    0.16 
  -4  -1  -7    0.07    0.16 
   4   1   7    0.25    0.16 
   4   1   7   -0.02    0.14 
  -4   0  -7   10.08    1.14 
  -4   0  -7    9.57    1.16 
   4   0   7    7.84    1.22 
   4   0   7   11.22    1.39 
   4   0   7    9.17    1.13 
  -4   1  -7   -0.08    0.14 
  -4   1  -7    0.21    0.12 
  -4   1  -7   -0.15    0.17 
   4  -1   7    0.20    0.15 
   4  -1   7   -0.02    0.17 
  -4   2  -7    1.39    0.22 
   4  -2   7    1.26    0.23 
   4  -2   7    1.35    0.44 
   4  -2   7    1.20    0.19 
   4  -3   7    0.32    0.17 
   4  -3   7   -0.03    0.21 
  -4   4  -7    0.37    0.15 
   4  -4   7    0.25    0.25 
   4  -4   7    0.53    0.20 
   4  -4   7    0.19    0.19 
  -4   5  -7    0.25    0.23 
  -4   5  -7   -0.21    0.22 
   4  -5   7    0.03    0.21 
   4  -5   7    0.08    0.29 
  -4   6  -7    0.15    0.27 
  -4   6  -7    0.20    0.26 
   4  -6   7    0.58    0.36 
   4  -6   7    0.56    0.25 
  -5  -4  -7   -0.03    0.17 
  -5  -4  -7    0.59    1.52 
   5   4   7   -0.49    0.37 
  -5  -3  -7    0.14    0.16 
   5   3   7   -0.34    0.38 
   5   3   7    0.29    0.23 
  -5  -2  -7    0.48    0.17 
  -5  -2  -7    0.80    0.20 
   5   2   7    0.96    0.22 
  -5  -1  -7    0.95    0.21 
  -5  -1  -7    0.72    0.12 
   5   1   7    1.04    0.20 
   5   1   7    1.03    0.27 
  -5   0  -7    0.00    0.14 
  -5   0  -7    0.39    0.19 
  -5   0  -7    0.12    0.20 
   5   0   7   -0.19    0.17 
   5   0   7    0.37    0.20 
  -5   1  -7    0.70    0.21 
   5  -1   7    0.38    0.22 
   5  -1   7    0.82    0.18 
  -5   2  -7    0.54    0.20 
  -5   2  -7    0.97    0.16 
   5  -2   7    0.92    0.21 
   5  -2   7    1.32    0.21 
  -5   3  -7    0.14    0.15 
  -5   3  -7   -0.15    0.21 
   5  -3   7    0.20    0.20 
  -5   4  -7   -0.18    0.24 
  -5   4  -7    0.11    0.23 
  -5   4  -7    0.09    0.18 
   5  -4   7    0.11    0.22 
   5  -4   7   -0.22    0.28 
  -5   5  -7   -0.06    0.27 
  -5   5  -7    0.50    0.27 
   5  -5   7    0.89    0.36 
  -6  -4  -7   -0.02    0.20 
  -6  -3  -7    0.82    1.60 
   6   3   7    0.58    0.45 
  -6  -2  -7    0.10    0.18 
   6   2   7    0.39    0.23 
  -6  -1  -7    0.09    0.25 
  -6  -1  -7    0.28    0.18 
  -6  -1  -7   -0.01    0.21 
   6   1   7    0.39    0.23 
   6   1   7   -0.31    0.36 
  -6   0  -7    0.74    0.21 
  -6   0  -7    1.19    0.21 
  -6   1  -7    0.26    0.17 
  -6   1  -7   -0.08    0.22 
   6  -1   7    0.14    0.29 
   6  -1   7    0.39    0.24 
  -6   2  -7    0.09    0.19 
  -6   2  -7    0.14    0.23 
   6  -2   7    0.51    0.33 
   6  -2   7    0.34    0.22 
  -6   3  -7    0.19    0.24 
  -6   3  -7    0.02    0.19 
   6  -3   7    0.04    0.23 
  -6   4  -7   -0.09    0.21 
   7   1   7    0.87    0.31 
  -7   0  -7   -0.03    0.15 
  -7   0  -7   -0.15    0.28 
   7   0   7    0.39    0.40 
   7   0   7    0.41    0.29 
  -7   1  -7   -0.05    0.27 
  -7   1  -7    0.07    0.23 
   7  -1   7    0.11    0.26 
 -11   1   8   -0.25    0.24 
 -11   1   8   -0.01    0.20 
  11   0  -8    0.00    0.20 
 -11   0   8    0.18    0.20 
 -11   0   8   -0.17    0.23 
 -11  -1   8    0.49    0.24 
 -11  -1   8    0.12    0.20 
  10  -3  -8    0.91    0.18 
 -10   3   8    0.94    0.26 
  10  -2  -8    0.04    0.18 
 -10   2   8   -0.08    0.21 
  10  -1  -8    1.06    0.22 
 -10   1   8    1.12    0.23 
 -10   1   8    1.03    0.18 
  10   0  -8    0.70    0.16 
 -10   0   8    0.92    0.17 
  10   1  -8    1.42    0.19 
 -10  -1   8    2.21    0.36 
  10   2  -8    0.31    0.20 
  10   2  -8   -0.22    0.17 
 -10  -2   8    0.04    0.18 
  10   3  -8    1.06    0.17 
  10   3  -8    0.60    0.22 
 -10  -3   8    0.74    0.20 
  -9   5   8   -0.33    0.25 
  -9   4   8   -0.18    0.22 
  -9   4   8    0.18    0.21 
   9  -3  -8   -0.13    0.15 
  -9   3   8    0.16    0.19 
   9  -2  -8    0.37    0.13 
  -9   2   8    0.30    0.18 
   9  -1  -8    0.30    0.16 
  -9   1   8    0.31    0.14 
  -9   1   8   -0.09    0.17 
   9   0  -8    0.15    0.12 
  -9   0   8    0.16    0.17 
  -9   0   8    0.35    0.15 
   9   1  -8    0.17    0.13 
  -9  -1   8   -0.10    0.18 
  -9  -1   8    0.47    0.15 
   9   2  -8    0.18    0.15 
   9   2  -8    0.34    0.16 
  -9  -2   8    0.30    0.18 
  -9  -2   8   -0.07    0.22 
  -9  -2   8    0.09    0.16 
   9   3  -8    0.28    0.19 
  -9  -3   8    0.01    0.17 
   9   4  -8   -0.09    0.19 
   9   4  -8    0.24    0.22 
   9   4  -8   -0.03    0.17 
  -9  -4   8    0.17    0.19 
  -9  -4   8   -0.02    0.26 
   9   5  -8    0.16    0.22 
  -9  -5   8    0.01    0.23 
   8  -5  -8    0.24    0.18 
  -8   5   8    0.00    0.23 
  -8   5   8    0.04    0.21 
   8  -4  -8   -0.18    0.15 
  -8   4   8   -0.06    0.19 
  -8   4   8    0.09    0.20 
   8  -3  -8   -0.19    0.12 
  -8   3   8   -0.24    0.16 
  -8   3   8    0.35    0.17 
   8  -2  -8    0.40    0.12 
  -8   1   8    0.73    0.13 
  -8   1   8    0.96    0.18 
   8   0  -8    0.40    0.13 
  -8   0   8    0.36    0.13 
  -8   0   8    0.31    0.15 
   8   1  -8    1.25    0.20 
   8   1  -8    0.83    0.18 
  -8  -1   8    1.06    0.22 
  -8  -1   8    0.88    0.16 
   8   2  -8    1.06    0.23 
  -8  -2   8    0.70    0.14 
   8   3  -8    0.04    0.16 
   8   3  -8    0.38    0.12 
   8   3  -8    0.18    0.67 
   8   3  -8    0.14    0.17 
  -8  -3   8    0.02    0.15 
   8   4  -8    0.28    0.21 
   8   4  -8   -0.01    0.14 
   8   4  -8    0.52    0.19 
  -8  -4   8    0.15    0.21 
  -8  -4   8    0.12    0.17 
  -8  -4   8    0.24    0.20 
   8   5  -8    0.38    0.19 
   8   5  -8    0.51    0.25 
   8   5  -8    0.40    0.22 
  -8  -5   8   -0.18    0.23 
  -8  -5   8    0.14    0.24 
  -8  -5   8    0.01    0.20 
   7  -6  -8    0.51    0.18 
  -7   6   8    0.05    0.25 
   7  -5  -8   -0.13    0.25 
   7  -5  -8    0.45    0.16 
  -7   5   8    0.27    0.21 
  -7   5   8   -0.12    0.19 
   7  -4  -8    0.93    0.16 
  -7   4   8    0.85    0.16 
   7  -3  -8    0.06    0.15 
   7  -3  -8    0.01    0.12 
  -7   3   8    0.34    0.14 
  -7   3   8    0.09    0.14 
   7  -2  -8    1.04    0.53 
   7  -2  -8    0.72    0.21 
  -7   2   8    0.95    0.14 
  -7   1   8    0.30    0.13 
  -7   1   8    0.41    0.13 
   7   0  -8    0.02    0.09 
  -7   0   8   -0.03    0.12 
  -7   0   8    0.05    0.14 
  -7   0   8    0.08    0.11 
  -7   0   8    0.01    0.13 
   7   1  -8   -0.04    0.10 
   7   1  -8    0.29    0.14 
  -7  -1   8    0.16    0.12 
  -7  -1   8    0.14    0.13 
  -7  -1   8   -0.01    0.15 
   7   2  -8    1.60    0.21 
   7   2  -8    1.35    0.20 
  -7  -2   8    0.97    0.20 
  -7  -2   8    1.26    0.19 
   7   4  -8    1.93    0.24 
   7   4  -8    2.08    0.25 
  -7  -4   8    1.95    0.25 
   7   5  -8    0.53    0.17 
   7   5  -8    0.45    0.24 
   7   5  -8    0.62    0.17 
  -7  -5   8    0.98    0.23 
  -7  -5   8    0.20    0.18 
   7   6  -8    0.29    0.29 
   7   6  -8    0.18    0.20 
   7   6  -8    0.11    0.17 
  -7  -6   8    0.14    0.20 
  -7  -6   8    0.17    0.23 
  -7  -6   8   -0.17    0.27 
   6  -6  -8    0.21    0.27 
  -6   6   8   -0.06    0.21 
   6  -5  -8    0.67    0.22 
  -6   5   8   -0.02    0.17 
   6  -4  -8    2.06    0.30 
   6  -4  -8    1.91    0.21 
  -6   4   8    1.76    0.21 
  -6   4   8    1.30    0.25 
   6  -3  -8    3.53    0.64 
   6  -3  -8    3.13    0.59 
  -6   3   8    3.14    0.53 
   6  -2  -8    0.86    0.69 
  -6   2   8    0.10    0.12 
  -6   2   8    0.23    0.09 
  -6   2   8    0.37    0.22 
   6  -1  -8    1.66    0.34 
  -6   1   8    1.88    0.34 
  -6   1   8    1.28    0.21 
   6   0  -8   12.40    1.45 
   6   0  -8   14.07    1.47 
   6   0  -8   14.14    1.52 
  -6   0   8   16.16    1.67 
  -6   0   8   13.27    1.46 
  -6   0   8   13.37    1.50 
   6   1  -8    2.09    0.34 
   6   1  -8    3.25    0.52 
  -6  -1   8    2.51    0.54 
  -6  -1   8    2.03    0.24 
  -6  -2   8    0.13    0.15 
  -6  -2   8    0.49    0.09 
  -6  -2   8    0.36    0.12 
   6   3  -8    4.41    0.66 
   6   3  -8    3.88    0.61 
  -6  -3   8    3.07    0.47 
  -6  -3   8    4.42    0.63 
  -6  -3   8    4.53    0.80 
  -6  -4   8    1.72    0.30 
  -6  -4   8    1.26    0.21 
   6   5  -8   -0.06    0.19 
   6   5  -8    0.26    0.15 
  -6  -5   8   -0.02    0.20 
  -6  -5   8   -0.01    0.14 
   6   6  -8   -0.21    0.18 
   6   6  -8    0.04    0.27 
  -6  -6   8    0.08    0.25 
  -6  -6   8    0.03    0.18 
   5  -7  -8    1.71    0.97 
  -5   7   8    0.71    0.24 
   5  -6  -8    0.06    0.25 
   5  -6  -8    0.05    0.17 
  -5   6   8    0.36    0.19 
   5  -5  -8   -0.20    0.13 
   5  -5  -8   -0.03    0.20 
  -5   5   8    0.32    0.16 
  -5   5   8   -0.19    0.17 
   5  -4  -8    0.90    0.18 
  -5   4   8    0.99    0.19 
   5  -3  -8    0.16    0.14 
  -5   3   8    0.07    0.10 
  -5   3   8    0.17    0.13 
  -5   3   8    0.31    0.12 
   5  -2  -8    1.09    0.51 
   5  -2  -8    0.26    0.11 
  -5   2   8    0.12    0.11 
  -5   1   8    0.99    0.32 
  -5   1   8    0.75    0.30 
  -5   1   8    0.89    0.13 
   5   0  -8   10.10    1.28 
  -5   0   8   10.05    1.17 
  -5   0   8   12.87    1.48 
  -5   0   8   11.28    1.31 
  -5   0   8    8.80    1.20 
   5   1  -8    2.74    0.46 
  -5  -1   8    2.40    0.37 
  -5  -1   8    1.77    0.56 
   5   2  -8    0.13    0.11 
  -5  -2   8    0.13    0.13 
  -5  -2   8    0.21    0.10 
  -5  -2   8    0.16    0.09 
  -5  -2   8    0.05    0.10 
  -5  -3   8    0.66    0.12 
  -5  -3   8    0.86    0.15 
   5   4  -8    0.67    0.14 
  -5  -4   8    0.51    0.17 
  -5  -4   8    0.58    0.13 
   5   5  -8    0.04    0.14 
   5   5  -8   -0.06    0.14 
  -5  -5   8   -0.02    0.14 
  -5  -5   8   -0.14    0.19 
   5   6  -8    0.42    0.23 
  -5  -6   8    0.05    0.21 
   5   7  -8    0.04    0.30 
  -5  -7   8    0.63    0.27 
   4  -7  -8    0.22    1.21 
  -4   7   8   -0.27    0.36 
  -4   7   8    0.10    0.23 
   4  -6  -8   -0.18    0.16 
   4  -6  -8   -0.14    0.24 
  -4   6   8   -0.25    0.32 
   4  -5  -8   -0.02    0.13 
  -4   5   8    0.25    0.15 
  -4   5   8   -0.06    0.23 
  -4   4   8    0.76    0.23 
   4  -3  -8    2.20    0.76 
  -4   3   8    2.28    0.48 
  -4   3   8    1.41    0.25 
   4  -2  -8    3.65    0.64 
   4  -2  -8    4.48    0.67 
  -4   2   8    4.36    0.75 
  -4   2   8    4.58    0.69 
   4  -1  -8    0.40    0.17 
  -4   1   8    0.18    0.45 
   4   0  -8    0.71    0.10 
  -4   0   8    0.45    0.14 
   4   1  -8    1.00    0.46 
  -4  -1   8    1.28    0.24 
  -4  -1   8    1.90    0.40 
  -4  -1   8    1.14    0.28 
  -4  -2   8    5.48    0.86 
  -4  -2   8    4.53    0.91 
   4   3  -8    3.90    0.54 
  -4  -3   8    3.44    0.60 
  -4  -3   8    2.50    0.35 
  -4  -3   8    3.62    0.64 
  -4  -3   8    3.65    0.58 
   4   4  -8    0.58    0.13 
  -4  -4   8    0.88    0.15 
  -4  -4   8    0.93    0.18 
   4   5  -8   -0.18    0.23 
   4   5  -8   -0.06    0.13 
   4   5  -8   -0.05    0.14 
  -4  -5   8    0.04    0.18 
  -4  -5   8    0.40    0.12 
  -4  -5   8    0.39    0.20 
   4   6  -8    0.76    0.29 
  -4  -6   8   -0.01    0.16 
  -4  -6   8   -0.10    0.25 
  -4  -6   8    0.20    0.20 
   4   7  -8   -0.10    0.29 
   4   7  -8    0.50    0.20 
  -4  -7   8    0.46    0.25 
   3  -7  -8    0.41    1.06 
   3  -7  -8    0.25    2.08 
  -3   7   8   -0.10    0.22 
   3  -6  -8    0.34    0.21 
  -3   6   8   -0.12    0.31 
   3  -5  -8    0.21    0.19 
   3  -4  -8   -0.13    0.14 
   3  -4  -8   -0.10    0.09 
   3  -4  -8    0.10    0.11 
  -3   4   8    0.10    0.08 
  -3   4   8    0.09    0.12 
   3  -3  -8    1.99    0.37 
  -3   3   8    1.34    0.20 
   3  -2  -8    0.72    0.10 
   3  -2  -8    0.55    0.12 
  -3   2   8    0.82    0.17 
   3  -1  -8    1.30    0.26 
  -3   1   8    1.00    0.22 
  -3   1   8    1.36    0.41 
  -3   1   8    0.51    0.39 
   3   0  -8   12.48    1.46 
   3   0  -8   15.69    1.53 
   3   0  -8   13.46    1.26 
  -3   0   8   13.93    1.47 
  -3   0   8   13.57    1.43 
  -3   0   8   14.52    1.59 
  -3   0   8   15.21    1.52 
  -3   0   8   12.60    1.43 
   3   1  -8    2.01    0.47 
   3   1  -8    1.48    0.29 
   3   3  -8    1.62    0.25 
  -3  -3   8    1.69    0.28 
  -3  -3   8    1.99    0.36 
  -3  -3   8    1.12    0.23 
   3   4  -8    0.09    0.10 
   3   4  -8    0.03    0.11 
  -3  -4   8    0.19    0.12 
  -3  -4   8    0.22    0.15 
  -3  -4   8    0.20    0.10 
   3   5  -8   -0.02    0.12 
   3   5  -8   -0.09    0.21 
   3   5  -8    0.00    0.12 
  -3  -5   8    0.23    0.15 
  -3  -5   8    0.31    0.13 
  -3  -5   8    0.36    0.18 
  -3  -5   8    0.10    0.17 
   3   6  -8    0.64    0.16 
   3   6  -8    0.70    0.25 
  -3  -6   8    0.47    0.24 
   3   7  -8    0.34    0.29 
  -3  -7   8    0.12    0.19 
  -3  -7   8    0.35    0.24 
   2  -7  -8    2.97    1.26 
  -2   7   8    0.63    0.38 
  -2   7   8    1.04    0.22 
   2  -6  -8    0.51    0.21 
  -2   6   8    0.01    0.26 
   2  -5  -8    0.60    0.20 
   2  -4  -8    0.33    0.15 
   2  -4  -8    0.10    0.09 
   2  -4  -8    0.29    0.10 
  -2   4   8    0.25    0.13 
   2  -3  -8    3.83    0.61 
   2  -3  -8    3.27    0.53 
  -2   3   8    4.00    0.58 
   2  -2  -8    0.20    0.10 
   2  -2  -8   -0.01    0.09 
  -2   2   8   -0.01    0.08 
  -2   2   8    0.11    0.10 
   2  -1  -8    8.99    0.89 
   2  -1  -8    9.62    1.37 
   2  -1  -8    8.81    1.15 
  -2   1   8   10.98    1.20 
  -2   1   8   10.71    1.22 
  -2   1   8    9.70    1.18 
  -2   1   8    8.16    1.05 
   2   0  -8    1.79    0.34 
   2   0  -8    2.22    0.47 
  -2   0   8    2.66    0.44 
  -2   0   8    2.70    0.59 
   2   1  -8   12.40    1.40 
   2   1  -8    9.30    1.13 
   2   1  -8    8.69    0.97 
  -2  -1   8    8.35    1.10 
  -2  -1   8   11.43    1.26 
  -2  -1   8    8.91    1.13 
   2   2  -8    0.46    0.11 
   2   3  -8    4.15    0.77 
  -2  -3   8    3.87    0.56 
  -2  -3   8    3.37    0.47 
  -2  -3   8    4.76    0.68 
  -2  -4   8    0.46    0.13 
  -2  -4   8    0.20    0.13 
   2   5  -8    0.25    0.13 
   2   5  -8    0.41    0.20 
   2   5  -8    0.27    0.12 
  -2  -5   8    0.12    0.11 
  -2  -5   8    0.24    0.18 
  -2  -5   8    0.55    0.14 
  -2  -5   8    0.03    0.10 
   2   6  -8    0.06    0.15 
  -2  -6   8   -0.03    0.15 
  -2  -6   8    0.03    0.22 
  -2  -6   8    0.27    0.19 
   2   7  -8    0.12    0.22 
  -2  -7   8    0.46    0.24 
   1  -7  -8    0.40    0.29 
  -1   7   8    0.51    0.24 
  -1   7   8   -0.39    0.35 
   1  -6  -8    3.10    0.51 
  -1   6   8    3.50    0.81 
  -1   6   8    3.49    0.49 
   1  -5  -8    0.85    0.21 
   1  -5  -8    0.98    0.30 
  -1   5   8    1.55    0.46 
   1  -4  -8    9.99    1.31 
   1  -4  -8    8.59    1.12 
  -1   4   8   10.76    1.18 
  -1   4   8   10.28    1.23 
   1  -3  -8    9.62    1.20 
   1  -3  -8    9.73    1.24 
  -1   3   8    9.47    1.04 
  -1   3   8    9.55    1.09 
  -1   3   8    9.43    1.17 
  -1   3   8    6.88    0.98 
   1  -2  -8   44.04    3.11 
   1  -2  -8   44.20    3.37 
   1  -2  -8   45.10    3.45 
   1  -2  -8   36.63    2.72 
  -1   2   8   43.68    3.05 
  -1   2   8   35.52    2.98 
  -1   2   8   44.69    3.30 
  -1   2   8   44.26    3.18 
   1  -1  -8   12.54    1.45 
   1  -1  -8   12.21    1.36 
   1  -1  -8   10.50    1.36 
  -1   1   8   11.09    1.27 
  -1   1   8    9.88    1.19 
  -1   1   8   13.27    1.37 
  -1   1   8    8.91    1.17 
   1   0  -8   23.37    2.07 
   1   0  -8   24.67    2.19 
   1   0  -8   25.28    2.39 
  -1   0   8   26.72    2.28 
  -1   0   8   28.26    2.27 
  -1   0   8   21.65    2.04 
   1   1  -8   13.49    1.49 
   1   1  -8   10.58    1.20 
  -1  -1   8   13.23    1.39 
  -1  -1   8    9.19    1.20 
  -1  -1   8    9.49    1.19 
   1   2  -8   51.03    3.73 
   1   2  -8   43.66    3.40 
  -1  -2   8   42.43    3.32 
  -1  -2   8   47.82    3.45 
  -1  -2   8   49.47    3.70 
  -1  -2   8   38.84    3.32 
  -1  -2   8   48.84    3.47 
   1   3  -8   12.91    1.44 
   1   3  -8   13.27    1.38 
  -1  -3   8   12.72    1.39 
  -1  -3   8   11.63    1.29 
  -1  -3   8    8.88    1.17 
   1   4  -8   11.87    1.30 
   1   4  -8   11.55    1.26 
   1   4  -8   13.95    1.50 
  -1  -4   8   10.00    1.33 
  -1  -4   8    9.93    1.29 
  -1  -4   8   10.47    1.22 
  -1  -4   8   10.73    1.19 
   1   5  -8    0.35    0.14 
  -1  -5   8    0.43    0.19 
  -1  -5   8    0.12    0.16 
  -1  -5   8    0.61    0.15 
   1   6  -8    1.55    0.33 
   1   6  -8    1.02    0.23 
  -1  -6   8    1.20    0.21 
  -1  -6   8    1.85    0.72 
   1   7  -8    0.26    0.30 
   1   7  -8    0.45    0.22 
  -1  -7   8    0.04    0.30 
  -1  -7   8    0.42    0.20 
   0  -7  -8    0.08    0.31 
   0   7   8    0.37    0.26 
   0   7   8   -0.27    0.36 
   0  -6  -8    1.74    1.63 
   0   6   8    1.38    0.25 
   0   6   8    1.10    0.44 
   0  -5  -8    0.42    0.19 
   0   5   8    0.58    0.17 
   0  -4  -8    9.37    1.18 
   0  -4  -8   12.07    1.46 
   0   4   8   10.13    1.29 
   0   4   8   12.07    1.35 
   0  -3  -8    0.83    0.14 
   0  -2  -8    5.81    0.92 
   0  -2  -8    7.36    1.10 
   0  -2  -8    8.24    1.01 
   0   2   8    9.42    1.11 
   0   2   8    7.28    0.97 
   0   2   8    8.61    1.10 
   0  -1  -8    0.65    0.13 
   0   1   8    0.79    0.14 
   0   0  -8   32.50    2.78 
   0   0  -8   32.69    2.74 
   0   0  -8   29.07    3.26 
   0   0   8   25.79    2.36 
   0   0   8   33.71    2.67 
   0   0   8   33.40    2.65 
   0   0   8   27.60    2.53 
   0   0   8   34.67    2.70 
   0   1  -8    0.23    0.13 
   0   1  -8    0.10    0.08 
   0  -1   8    0.15    0.08 
   0  -1   8    0.05    0.08 
   0  -1   8    0.34    0.11 
   0  -1   8    0.04    0.10 
   0   2  -8    9.55    1.22 
   0   2  -8    9.25    1.29 
   0  -2   8    7.92    1.14 
   0  -2   8    8.91    1.13 
   0  -2   8    7.87    1.01 
   0   3  -8    1.11    0.21 
   0   3  -8    1.02    0.16 
   0  -3   8    0.65    0.14 
   0  -3   8    0.92    0.12 
   0   4  -8   10.85    1.19 
   0   4  -8    7.97    1.16 
   0  -4   8    9.75    1.26 
   0  -4   8   11.13    1.19 
   0  -4   8   10.45    1.22 
   0  -4   8    9.72    1.18 
   0   5  -8    0.49    0.20 
   0   5  -8    0.40    0.20 
   0   5  -8    0.51    0.16 
   0  -5   8    0.35    0.16 
  -1  -7  -8   -0.17    0.32 
  -1  -7  -8   -0.05    0.25 
   1   7   8    0.34    0.25 
  -1  -6  -8    0.25    0.29 
  -1  -6  -8    0.32    0.23 
   1   6   8    0.39    0.20 
   1   6   8   -0.33    0.39 
  -1  -5  -8   -0.02    0.73 
  -1  -5  -8    0.17    0.18 
   1   5   8    0.09    0.28 
  -1  -4  -8    1.40    0.25 
  -1  -4  -8    1.64    0.21 
   1   4   8    1.76    0.22 
  -1  -3  -8    0.00    0.11 
  -1  -3  -8   -0.15    0.12 
  -1  -3  -8    0.03    0.11 
   1   3   8   -0.13    0.08 
   1   3   8   -0.09    0.14 
   1   3   8    0.01    0.17 
  -1  -2  -8    0.14    0.11 
  -1  -2  -8    0.19    0.11 
  -1  -2  -8    0.20    0.09 
  -1  -1  -8    0.09    0.10 
  -1  -1  -8    0.02    0.08 
   1   1   8   -0.04    0.11 
   1   1   8    0.15    0.08 
   1   1   8    0.06    0.12 
   1   1   8    0.23    0.10 
  -1   0  -8    8.62    1.16 
  -1   0  -8    8.22    1.13 
   1   0   8    6.85    1.08 
   1   0   8   10.23    1.28 
   1   0   8    8.68    1.07 
   1   0   8   10.41    1.23 
  -1   1  -8    0.04    0.13 
   1  -1   8    0.06    0.12 
   1  -1   8    0.52    0.15 
   1  -2   8    0.07    0.10 
   1  -2   8   -0.01    0.09 
   1  -2   8   -0.03    0.12 
   1  -2   8    0.01    0.11 
   1  -2   8   -0.04    0.11 
  -1   3  -8    0.01    0.12 
  -1   3  -8   -0.01    0.14 
   1  -3   8    0.14    0.10 
   1  -3   8    0.30    0.12 
   1  -3   8   -0.11    0.12 
  -1   4  -8    0.76    0.17 
   1  -4   8    0.96    0.17 
   1  -4   8    0.98    0.23 
   1  -4   8    1.40    0.18 
   1  -4   8    1.20    0.24 
  -1   5  -8    0.46    0.21 
  -1   5  -8    0.07    0.20 
  -1   5  -8   -0.10    0.15 
   1  -5   8    0.28    0.15 
   1  -5   8    0.02    0.16 
   1  -5   8    0.01    0.12 
  -2  -6  -8   -0.01    0.28 
  -2  -6  -8    0.45    1.52 
   2   6   8    0.28    0.23 
   2   6   8   -0.31    0.36 
  -2  -5  -8    0.32    0.22 
   2   5   8    0.74    0.20 
  -2  -4  -8    0.01    0.15 
  -2  -4  -8   -0.16    0.18 
   2   4   8    0.26    0.18 
   2   4   8   -0.09    0.10 
   2   4   8   -0.15    0.26 
  -2  -3  -8    0.67    0.17 
   2   3   8    0.80    0.26 
  -2  -2  -8    0.09    0.11 
  -2  -2  -8    0.21    0.10 
  -2  -2  -8    0.12    0.13 
   2   2   8    0.14    0.19 
   2   2   8    0.00    0.10 
   2   2   8    0.10    0.13 
  -2  -1  -8    0.96    0.14 
  -2  -1  -8    0.86    0.25 
   2   1   8    0.84    0.18 
   2   1   8    1.02    0.25 
   2   1   8    1.48    0.29 
  -2   0  -8    0.11    0.12 
   2   0   8    0.24    0.13 
   2   0   8    0.10    0.13 
  -2   1  -8    0.62    0.09 
   2  -1   8    0.44    0.10 
   2  -1   8    0.76    0.14 
   2  -1   8    0.84    0.15 
  -2   2  -8    0.64    0.13 
   2  -2   8    0.44    0.14 
  -2   3  -8    0.80    0.18 
  -2   3  -8    0.70    0.13 
   2  -3   8    0.61    0.15 
   2  -3   8    0.50    0.14 
  -2   4  -8    0.03    0.14 
  -2   4  -8    0.21    0.33 
   2  -4   8    0.17    0.16 
   2  -4   8    0.10    0.16 
   2  -4   8    0.24    0.16 
  -2   5  -8    0.25    0.15 
  -2   5  -8    0.47    0.22 
   2  -5   8    0.12    0.19 
   2  -5   8    0.33    0.18 
  -2   6  -8    0.13    0.25 
   2  -6   8   -0.31    0.22 
   3   5   8    0.65    0.22 
   3   4   8    1.34    0.33 
   3   4   8    1.04    0.21 
   3   3   8    0.31    0.21 
  -3  -2  -8    0.03    0.17 
  -3  -2  -8    0.19    0.12 
  -3  -2  -8    0.46    0.16 
  -3  -2  -8    0.12    0.13 
   3   2   8   -0.11    0.28 
   3   2   8    0.35    0.16 
  -3  -1  -8    0.25    0.12 
  -3  -1  -8    0.16    0.17 
   3   1   8    0.47    0.15 
  -3   0  -8    0.17    0.17 
  -3   0  -8    0.43    0.14 
   3   0   8    0.50    0.16 
   3   0   8    0.22    0.15 
  -3   1  -8    0.92    0.20 
   3  -1   8    1.03    0.20 
   3  -1   8    0.69    0.15 
  -3   2  -8   -0.18    0.20 
  -3   2  -8    0.05    0.16 
   3  -2   8    0.20    0.17 
   3  -2   8    0.09    0.15 
  -3   3  -8    0.52    0.21 
   3  -3   8    0.35    0.18 
  -3   4  -8    0.48    0.15 
   3  -4   8    0.47    0.22 
   3  -4   8    0.34    0.19 
   3  -4   8    0.42    0.21 
  -3   5  -8    0.60    0.23 
  -3   5  -8    0.05    0.24 
   3  -5   8    0.32    0.21 
   3  -5   8    0.01    0.21 
  -3   6  -8   -0.06    0.31 
  -3   6  -8   -0.12    0.27 
   3  -6   8    0.49    0.32 
  -4  -5  -8    0.64    1.68 
   4   4   8    0.47    0.37 
   4   4   8    0.33    0.25 
  -4  -3  -8    0.01    0.16 
  -4  -3  -8    0.17    0.21 
   4   3   8    0.37    0.21 
   4   3   8   -0.20    0.35 
  -4  -2  -8    0.15    0.20 
  -4  -2  -8    0.14    0.15 
  -4  -2  -8   -0.11    0.15 
  -4  -2  -8   -0.04    0.19 
   4   2   8    0.63    0.34 
   4   2   8   -0.08    0.19 
  -4  -1  -8    1.06    0.23 
   4   1   8    1.39    0.30 
   4   1   8    1.39    0.24 
   4   1   8    1.69    0.21 
  -4   0  -8    0.12    0.19 
  -4   0  -8    0.21    0.14 
   4   0   8    0.25    0.20 
   4   0   8    0.04    0.18 
  -4   1  -8    1.71    0.24 
  -4   1  -8    1.66    0.19 
   4  -1   8    2.21    0.32 
   4  -1   8    1.19    0.25 
  -4   2  -8    0.16    0.21 
   4  -2   8    0.15    0.21 
   4  -2   8    0.04    0.20 
   4  -2   8    0.19    0.19 
  -4   3  -8    0.00    0.16 
  -4   3  -8    0.16    0.22 
   4  -3   8    0.01    0.20 
   4  -3   8   -0.09    0.20 
  -4   4  -8   -0.28    0.17 
  -4   4  -8    0.06    0.24 
   4  -4   8   -0.11    0.29 
   4  -4   8    0.33    0.24 
   4  -4   8    0.01    0.23 
  -4   5  -8   -0.07    0.26 
  -4   5  -8   -0.10    0.30 
   4  -5   8    0.27    0.34 
  -5  -4  -8    0.79    0.31 
  -5  -3  -8   -0.05    0.19 
  -5  -3  -8   -0.40    0.28 
   5   3   8    0.22    0.46 
   5   3   8    0.10    0.27 
  -5  -2  -8    0.30    0.23 
   5   2   8    0.65    0.22 
   5   2   8    0.84    0.36 
  -5  -1  -8    0.03    0.23 
  -5  -1  -8    0.11    0.17 
   5   1   8    0.03    0.29 
   5   1   8    0.43    0.22 
   5   1   8    0.15    0.23 
  -5   0  -8    0.28    0.21 
  -5   0  -8    0.55    0.17 
   5   0   8    0.55    0.20 
   5   0   8    0.96    0.24 
  -5   1  -8    0.13    0.22 
   5  -1   8    0.26    0.21 
   5  -1   8    0.07    0.28 
  -5   2  -8    0.36    0.18 
  -5   2  -8    0.07    0.26 
   5  -2   8    0.77    0.22 
   5  -2   8    0.09    0.26 
   5  -2   8    0.29    0.21 
  -5   3  -8    0.03    0.24 
  -5   3  -8    0.02    0.18 
   5  -3   8    0.01    0.24 
   5  -3   8    0.16    0.23 
  -5   4  -8    0.18    0.28 
  -5   4  -8   -0.20    0.26 
  -5   4  -8    0.08    0.23 
   5  -4   8   -0.18    0.36 
  -6  -2  -8   -0.03    0.20 
   6   2   8    0.35    0.31 
  -6  -1  -8    0.03    0.24 
  -6  -1  -8   -0.39    0.28 
  -6  -1  -8   -0.04    0.20 
   6   1   8   -0.24    0.40 
   6   1   8    0.18    0.26 
  -6   0  -8   -0.03    0.25 
   6   0   8    0.16    0.29 
  -6   1  -8   -0.05    0.19 
  -6   1  -8    0.13    0.28 
   6  -1   8    0.31    0.26 
   6  -1   8   -0.50    0.37 
  10  -2  -9    0.07    0.18 
 -10   2   9   -0.16    0.23 
 -10   1   9    0.49    0.21 
 -10   1   9    0.33    0.18 
  10   0  -9   -0.16    0.16 
 -10   0   9   -0.18    0.22 
 -10   0   9    0.11    0.18 
  10   1  -9   -0.22    0.16 
 -10  -1   9   -0.10    0.23 
 -10  -1   9    0.05    0.18 
  10   2  -9    0.07    0.20 
 -10  -2   9    0.32    0.20 
 -10  -3   9    0.75    0.30 
   9  -4  -9   -0.08    0.18 
  -9   4   9    0.45    0.23 
   9  -3  -9    0.03    0.17 
  -9   3   9    0.38    0.21 
   9  -2  -9    0.61    0.14 
  -9   2   9    0.08    0.22 
   9  -1  -9    0.09    0.15 
  -9   1   9    0.16    0.19 
  -9   1   9    0.41    0.15 
   9   0  -9    0.75    0.15 
  -9   0   9    0.94    0.17 
  -9   0   9    0.88    0.20 
   9   1  -9   -0.09    0.17 
  -9  -1   9   -0.09    0.12 
  -9  -1   9   -0.01    0.20 
   9   2  -9   -0.26    0.19 
   9   2  -9   -0.18    0.16 
  -9  -2   9   -0.09    0.17 
  -9  -2   9    0.36    0.22 
  -9  -2   9   -0.31    0.24 
   9   3  -9    0.48    0.19 
  -9  -3   9    0.10    0.18 
   9   4  -9   -0.05    0.24 
  -9  -4   9    0.01    0.21 
   8  -5  -9    0.29    0.21 
  -8   5   9   -0.06    0.23 
  -8   5   9    0.08    0.24 
   8  -4  -9   -0.05    0.17 
  -8   4   9    0.43    0.21 
  -8   4   9    0.00    0.19 
  -8   3   9    0.03    0.19 
  -8   3   9    0.15    0.19 
   8  -2  -9    0.34    0.16 
   8  -2  -9    0.17    0.12 
  -8   2   9    0.11    0.18 
   8  -1  -9    0.11    0.15 
  -8   1   9    0.24    0.17 
  -8   1   9    0.21    0.15 
   8   0  -9    1.63    0.30 
  -8   0   9    1.78    0.24 
  -8   0   9    2.22    0.27 
   8   1  -9    0.25    0.12 
   8   1  -9    0.08    0.12 
   8   1  -9   -0.03    0.15 
  -8  -1   9    0.05    0.19 
  -8  -1   9    0.00    0.18 
  -8  -1   9    0.20    0.10 
   8   2  -9    0.00    0.14 
   8   2  -9    0.01    0.15 
  -8  -2   9   -0.10    0.22 
  -8  -2   9    0.38    0.19 
  -8  -2   9   -0.03    0.19 
  -8  -2   9   -0.14    0.15 
   8   3  -9    0.12    0.18 
   8   3  -9   -0.04    0.14 
  -8  -3   9    0.09    0.16 
  -8  -3   9    0.09    0.24 
  -8  -3   9    0.31    0.21 
   8   4  -9    0.53    0.18 
   8   4  -9    0.32    0.19 
  -8  -4   9    0.48    0.19 
  -8  -4   9    0.63    0.21 
   8   5  -9    0.66    0.26 
  -8  -5   9    0.54    0.24 
   7  -6  -9    0.47    0.20 
   7  -6  -9    0.35    0.32 
  -7   6   9    0.38    0.28 
   7  -5  -9    0.40    0.25 
   7  -5  -9    0.47    0.19 
  -7   5   9    0.27    0.21 
   7  -4  -9    0.22    0.15 
  -7   4   9   -0.24    0.18 
  -7   4   9    0.01    0.18 
   7  -3  -9    0.28    0.12 
   7  -3  -9    0.23    0.17 
  -7   3   9    0.11    0.16 
   7  -2  -9    0.60    0.52 
  -7   2   9    0.46    0.16 
   7  -1  -9    0.28    0.10 
  -7   1   9    0.20    0.12 
  -7   1   9    0.11    0.15 
  -7   0   9    0.10    0.15 
  -7   0   9    0.37    0.15 
   7   1  -9    0.06    0.11 
  -7  -1   9    0.33    0.16 
  -7  -1   9    0.27    0.09 
  -7  -1   9    0.11    0.15 
  -7  -1   9    0.24    0.16 
  -7  -2   9    0.16    0.13 
  -7  -2   9    0.77    0.18 
  -7  -3   9    0.57    0.16 
   7   4  -9    0.05    0.20 
  -7  -4   9    0.29    0.19 
  -7  -4   9    0.09    0.12 
  -7  -4   9    0.02    0.18 
   7   5  -9    0.78    0.25 
  -7  -5   9    0.55    0.24 
  -7  -5   9    0.53    0.21 
   7   6  -9    0.27    0.22 
  -7  -6   9    0.02    0.23 
   6  -6  -9    0.74    0.29 
  -6   6   9    1.16    0.22 
   6  -5  -9    0.13    0.17 
  -6   5   9   -0.06    0.19 
  -6   5   9    0.35    0.22 
   6  -4  -9    0.27    0.15 
  -6   4   9    0.22    0.17 
  -6   4   9    0.19    0.19 
  -6   3   9    0.39    0.15 
  -6   3   9    0.17    0.15 
   6  -2  -9    1.79    0.54 
   6  -2  -9    1.85    0.58 
  -6   2   9    1.22    0.18 
  -6   2   9    1.40    0.16 
   6  -1  -9    2.84    0.53 
   6  -1  -9    3.53    0.53 
  -6   1   9    3.92    0.53 
  -6   1   9    4.24    0.68 
  -6   1   9    3.15    0.44 
   6   0  -9    1.39    0.50 
   6   0  -9    1.99    0.28 
  -6   0   9    1.95    0.33 
  -6   0   9    2.36    0.26 
  -6   0   9    2.62    0.45 
   6   1  -9    4.52    0.70 
   6   1  -9    4.32    0.66 
  -6  -1   9    3.07    0.37 
  -6  -1   9    3.54    0.53 
  -6  -1   9    2.54    0.53 
   6   2  -9    1.47    0.28 
   6   2  -9    1.70    0.30 
  -6  -2   9    1.66    0.18 
  -6  -2   9    1.38    0.23 
   6   3  -9    0.15    0.14 
   6   3  -9    0.12    0.11 
  -6  -3   9   -0.10    0.16 
  -6  -3   9    0.21    0.12 
  -6  -3   9   -0.03    0.16 
   6   4  -9    0.88    0.25 
  -6  -4   9    0.43    0.18 
  -6  -4   9    0.68    0.17 
  -6  -5   9    0.77    0.21 
  -6  -5   9    0.87    0.22 
   6   6  -9    0.20    0.28 
   6   6  -9   -0.06    0.22 
  -6  -6   9    0.49    0.24 
  -6  -6   9   -0.02    0.27 
  -6  -6   9    0.01    0.22 
   5  -6  -9   -0.09    0.27 
  -5   6   9    0.39    0.24 
  -5   5   9    0.11    0.18 
  -5   4   9    0.06    0.16 
  -5   4   9   -0.02    0.16 
   5  -3  -9    0.71    0.16 
  -5   3   9    0.43    0.20 
   5  -2  -9   11.00    1.25 
   5  -2  -9   10.61    1.34 
  -5   2   9   12.05    1.36 
  -5   2   9   11.07    1.28 
  -5   2   9   11.34    1.27 
   5  -1  -9    0.54    0.11 
  -5   1   9    0.72    0.15 
   5   0  -9   13.55    1.46 
   5   0  -9   11.39    1.31 
   5   0  -9    9.34    1.13 
  -5   0   9   11.06    1.37 
  -5   0   9   11.46    1.34 
  -5   0   9    8.57    1.13 
  -5   0   9   11.43    1.37 
  -5  -1   9    0.22    0.12 
  -5  -1   9    0.15    0.14 
  -5  -1   9   -0.03    0.11 
  -5  -1   9   -0.02    0.11 
   5   2  -9    9.25    1.20 
   5   2  -9   11.35    1.42 
  -5  -2   9   11.16    1.51 
  -5  -2   9   11.58    1.43 
  -5  -2   9   12.16    1.29 
  -5  -3   9    1.62    0.22 
  -5  -3   9    1.29    0.19 
  -5  -3   9    1.05    0.19 
   5   5  -9    0.43    0.17 
  -5  -5   9    0.11    0.22 
  -5  -5   9    0.15    0.15 
  -5  -5   9    0.24    0.17 
   5   6  -9    0.21    0.28 
   5   6  -9    0.45    0.22 
  -5  -6   9   -0.08    0.27 
  -5  -6   9    0.01    0.97 
  -4   7   9    0.10    0.26 
   4  -6  -9   -0.28    0.26 
   4  -6  -9   -0.10    0.17 
  -4   6   9   -0.28    0.20 
   4  -5  -9   -0.02    0.14 
   4  -5  -9   -0.13    0.22 
  -4   5   9    0.04    0.14 
   4  -4  -9    0.29    0.11 
  -4   3   9    0.51    0.13 
   4  -2  -9    8.28    1.05 
   4  -2  -9   10.89    1.31 
   4  -2  -9    7.43    0.93 
  -4   2   9    8.15    1.07 
  -4   2   9    9.51    1.20 
   4  -1  -9    5.48    0.79 
   4  -1  -9    7.61    0.96 
  -4   1   9    5.87    0.85 
  -4   1   9    6.84    0.89 
  -4   1   9    5.10    0.74 
   4   0  -9   10.81    1.27 
   4   0  -9    9.13    1.19 
  -4   0   9    8.65    1.11 
  -4   0   9    9.75    1.22 
  -4   0   9    9.82    1.25 
   4   1  -9    4.39    0.66 
   4   1  -9    5.94    0.86 
   4   1  -9    4.96    0.76 
  -4  -1   9    5.78    0.77 
  -4  -1   9    4.23    0.98 
  -4  -1   9    5.34    0.80 
   4   2  -9    7.62    1.07 
  -4  -2   9    5.71    1.03 
  -4  -2   9   10.55    4.78 
  -4  -2   9    6.41    0.78 
  -4  -2   9    7.89    1.05 
  -4  -3   9    0.69    0.66 
   4   4  -9    0.55    0.14 
   4   5  -9    0.31    0.14 
   4   5  -9   -0.02    0.14 
  -4  -5   9    0.23    0.21 
  -4  -5   9    0.34    0.20 
  -4  -5   9    0.27    0.17 
   4   6  -9    0.16    0.28 
   4   6  -9    0.07    0.18 
  -4  -6   9    0.00    0.16 
  -4  -6   9    0.29    0.21 
  -4  -6   9    0.33    0.26 
   4   7  -9    0.90    0.24 
   4   7  -9    0.12    0.34 
  -4  -7   9    0.42    0.28 
  -4  -7   9    0.31    0.33 
   3  -7  -9    0.61    1.09 
  -3   7   9    0.15    0.25 
   3  -6  -9    0.04    0.26 
  -3   6   9    0.55    0.34 
  -3   6   9    0.39    0.21 
   3  -5  -9    0.68    0.23 
   3  -4  -9    1.27    0.18 
  -3   4   9    1.43    0.21 
  -3   4   9    2.01    0.35 
   3  -3  -9    0.92    0.17 
  -3   2   9    0.60    0.14 
   3  -1  -9    5.53    0.86 
   3  -1  -9    4.29    0.58 
  -3   1   9    6.82    0.88 
  -3   1   9    6.97    0.90 
  -3   1   9    5.74    0.86 
   3   0  -9    1.23    0.52 
  -3   0   9    0.23    0.18 
  -3   0   9    0.54    0.25 
   3   1  -9    6.91    0.98 
  -3  -1   9    7.63    1.02 
  -3  -1   9    6.18    0.88 
  -3  -1   9    6.01    0.81 
   3   2  -9    0.91    0.16 
  -3  -2   9    0.68    0.15 
  -3  -2   9    0.55    0.11 
   3   3  -9    0.52    0.25 
  -3  -3   9    0.67    0.17 
  -3  -3   9    1.01    0.13 
   3   4  -9    1.00    0.18 
   3   4  -9    1.30    0.26 
  -3  -4   9    1.63    0.24 
   3   5  -9    0.81    0.19 
   3   5  -9    0.50    0.16 
  -3  -5   9    0.56    0.17 
  -3  -5   9    0.54    0.24 
  -3  -5   9    0.13    0.22 
   3   6  -9    0.51    0.27 
  -3  -6   9    0.27    0.20 
  -3  -6   9   -0.01    0.17 
   3   7  -9    0.54    0.22 
   3   7  -9   -0.13    0.33 
  -3  -7   9    0.48    0.27 
   2  -7  -9    1.09    2.42 
  -2   6   9    0.86    0.36 
   2  -5  -9    1.94    0.29 
  -2   5   9    2.13    0.68 
   2  -4  -9    0.43    0.12 
   2  -3  -9    5.95    0.91 
   2  -3  -9    7.86    1.09 
  -2   3   9    8.09    1.10 
  -2   3   9    8.40    0.95 
   2  -2  -9    0.83    0.14 
   2  -2  -9    1.33    0.23 
  -2   2   9    1.01    0.21 
   2  -1  -9    9.23    1.20 
  -2   1   9    8.22    1.02 
  -2   1   9    9.00    1.11 
  -2   1   9   10.56    1.17 
   2   0  -9    7.96    0.99 
   2   0  -9    5.70    0.93 
  -2   0   9    7.71    0.97 
  -2   0   9    6.74    0.99 
  -2   0   9    5.59    0.79 
   2   1  -9   11.50    1.25 
  -2  -1   9    7.45    1.01 
  -2  -1   9    9.00    1.09 
  -2  -1   9    9.17    1.26 
  -2  -1   9    8.72    1.17 
   2   2  -9    1.57    0.28 
  -2  -2   9    1.55    0.25 
  -2  -2   9    1.58    0.22 
  -2  -2   9    1.05    0.21 
   2   3  -9    8.64    1.13 
   2   3  -9   10.82    1.22 
  -2  -3   9    6.83    0.95 
  -2  -3   9    8.48    1.00 
  -2  -3   9    8.61    1.06 
   2   4  -9    0.38    0.12 
  -2  -4   9    0.07    0.15 
  -2  -4   9    0.34    0.12 
  -2  -4   9    0.14    0.13 
  -2  -4   9    0.59    0.16 
   2   5  -9    3.67    0.63 
  -2  -5   9    3.03    0.38 
  -2  -5   9    2.95    0.53 
  -2  -5   9    3.34    0.53 
   2   6  -9    0.51    0.23 
   2   6  -9    0.29    0.19 
   2   6  -9    0.12    0.26 
   2   7  -9    0.37    0.33 
  -2  -7   9   -0.24    0.33 
   1  -6  -9    3.07    0.38 
  -1   6   9    3.57    0.36 
   1  -5  -9    2.12    0.35 
  -1   5   9    3.31    0.90 
   1  -4  -9    8.16    0.99 
   1  -4  -9   10.09    1.30 
  -1   4   9    9.08    1.20 
  -1   4   9    6.50    1.03 
   1  -3  -9    6.49    0.93 
   1  -3  -9    7.97    1.05 
  -1   3   9    7.49    1.02 
  -1   3   9    5.46    0.71 
  -1   3   9    4.95    0.74 
  -1   3   9    6.99    0.82 
   1  -2  -9   16.78    1.76 
   1  -2  -9   16.62    1.79 
   1  -2  -9   13.59    1.60 
  -1   2   9   16.28    1.63 
  -1   2   9   18.06    1.70 
   1  -1  -9   18.15    1.81 
   1  -1  -9   15.86    1.80 
   1  -1  -9   17.60    1.79 
  -1   1   9   16.08    1.69 
  -1   1   9   17.66    1.81 
  -1   1   9   18.90    1.83 
   1   0  -9   18.59    1.72 
   1   0  -9   15.07    1.71 
   1   0  -9   16.30    1.82 
  -1   0   9   16.87    1.75 
  -1   0   9   16.61    1.71 
  -1   0   9   14.79    1.72 
   1   1  -9   16.07    1.84 
   1   1  -9   19.24    1.74 
   1   1  -9   12.51    1.65 
  -1  -1   9   17.60    1.75 
  -1  -1   9   15.41    1.78 
  -1  -1   9   16.51    1.72 
   1   2  -9   15.01    1.90 
   1   2  -9   20.81    1.90 
  -1  -2   9   17.49    1.79 
  -1  -2   9   20.54    1.90 
  -1  -2   9   18.54    1.95 
  -1  -2   9   18.36    1.98 
   1   3  -9    7.74    1.07 
   1   3  -9    9.09    1.07 
  -1  -3   9    8.08    0.95 
  -1  -3   9    7.75    1.09 
  -1  -3   9    7.61    1.12 
  -1  -3   9    7.82    1.07 
   1   4  -9   10.40    1.19 
  -1  -4   9    6.96    0.81 
  -1  -4   9    9.23    1.14 
  -1  -4   9    6.98    0.90 
   1   5  -9    3.44    0.57 
  -1  -5   9    2.94    0.49 
  -1  -5   9    3.31    0.43 
   0  -6  -9    1.10    1.89 
   0   6   9    0.95    0.26 
   0  -5  -9    0.27    0.23 
   0  -5  -9   -0.06    0.20 
   0   5   9   -0.21    0.30 
   0   5   9    0.04    0.18 
   0  -4  -9    0.43    0.18 
   0   4   9    0.44    0.24 
   0  -3  -9    0.33    0.16 
   0  -3  -9    0.25    0.13 
   0  -3  -9    0.00    0.11 
   0   3   9    0.22    0.15 
   0   3   9    0.02    0.17 
   0  -2  -9    3.92    0.65 
   0  -2  -9    3.96    0.54 
   0  -2  -9    4.89    0.72 
   0   2   9    4.23    0.61 
   0   2   9    3.31    0.94 
   0  -1  -9    0.22    0.15 
   0   1   9    0.02    0.14 
   0   1   9    0.13    0.14 
   0   1   9    0.32    0.08 
   0   0  -9    0.28    0.12 
   0   0   9    0.03    0.12 
   0   1  -9    0.65    0.17 
   0  -1   9    0.73    0.15 
   0  -1   9    0.44    0.12 
   0   2  -9    5.12    0.80 
   0   2  -9    5.24    0.69 
   0   2  -9    4.62    0.74 
   0  -2   9    3.79    0.58 
   0  -2   9    4.61    0.72 
   0  -2   9    4.29    0.64 
   0   3  -9    0.29    0.12 
   0  -3   9    0.18    0.14 
   0  -3   9    0.32    0.10 
   0  -3   9    0.21    0.14 
   0   4  -9    0.48    0.19 
   0  -4   9    0.35    0.15 
   0  -4   9    0.21    0.12 
   0  -4   9   -0.09    0.17 
   0   5  -9    0.46    0.21 
   0   5  -9    0.15    0.21 
   0  -5   9    0.00    0.14 
   0  -5   9    0.03    0.17 
  -1  -6  -9   -0.29    0.24 
   1   6   9   -0.35    0.33 
  -1  -5  -9    0.06    0.21 
  -1  -5  -9    0.39    0.20 
   1   5   9    0.20    0.18 
  -1  -4  -9    0.26    0.19 
  -1  -4  -9    0.08    0.16 
  -1  -4  -9    0.40    0.20 
   1   4   9    0.00    0.29 
   1   4   9   -0.12    0.13 
   1   4   9    0.35    0.17 
  -1  -3  -9    1.18    0.25 
  -1  -3  -9    2.08    0.31 
   1   3   9    1.78    0.20 
   1   3   9    1.59    0.30 
   1   3   9    1.47    0.36 
  -1  -2  -9    0.49    0.14 
  -1  -2  -9    0.55    0.13 
   1   2   9    0.61    0.20 
   1   2   9    0.50    0.14 
   1   2   9    0.77    0.13 
  -1  -1  -9    2.42    0.44 
  -1  -1  -9    2.66    0.33 
  -1  -1  -9    2.67    0.49 
   1   1   9    2.84    0.46 
   1   1   9    1.88    0.27 
  -1   0  -9    0.49    0.11 
  -1   0  -9    0.75    0.15 
   1   0   9    0.39    0.16 
  -1   1  -9    2.06    0.34 
  -1   1  -9    2.07    0.29 
   1  -1   9    2.44    0.28 
   1  -1   9    3.13    0.49 
   1  -1   9    3.13    0.49 
  -1   2  -9    1.18    0.15 
  -1   2  -9    0.92    0.20 
   1  -2   9    0.64    0.16 
   1  -2   9    0.83    0.17 
   1  -2   9    1.11    0.18 
  -1   3  -9    0.66    0.18 
  -1   3  -9    0.30    0.19 
   1  -3   9    0.64    0.12 
  -1   4  -9    0.63    0.22 
  -1   4  -9    0.15    0.15 
   1  -4   9    0.40    0.18 
   1  -4   9    0.34    0.17 
   1  -4   9    0.13    0.17 
  -1   5  -9   -0.39    0.24 
  -1   5  -9    0.26    0.17 
   1  -5   9    0.00    0.15 
   1  -5   9   -0.08    0.19 
   2   6   9   -0.05    0.26 
  -2  -5  -9    0.07    0.23 
   2   5   9    0.53    0.22 
  -2  -4  -9    0.10    0.18 
  -2  -4  -9   -0.10    0.21 
   2   4   9    0.16    0.38 
   2   4   9   -0.31    0.21 
  -2  -3  -9    1.01    0.22 
   2   3   9    0.99    0.18 
   2   3   9    1.15    0.31 
  -2  -2  -9   -0.10    0.13 
  -2  -2  -9    0.14    0.12 
   2   2   9   -0.11    0.16 
   2   2   9   -0.22    0.26 
   2   2   9   -0.03    0.11 
  -2  -1  -9    0.81    0.18 
  -2  -1  -9    0.50    0.11 
   2   1   9    0.41    0.15 
   2   1   9    0.71    0.22 
  -2   0  -9    0.42    0.13 
  -2   0  -9    0.16    0.14 
   2   0   9    0.17    0.16 
  -2   1  -9    0.23    0.17 
   2  -1   9    0.57    0.16 
  -2   2  -9    0.39    0.15 
   2  -2   9    0.30    0.16 
   2  -2   9    0.24    0.17 
  -2   3  -9    0.03    0.19 
  -2   3  -9    0.29    0.14 
   2  -3   9    0.16    0.17 
   2  -3   9    0.13    0.17 
  -2   4  -9    0.32    0.16 
  -2   4  -9    0.03    0.23 
   2  -4   9    0.17    0.19 
   2  -4   9    0.28    0.19 
  -2   5  -9    0.27    0.25 
  -2   5  -9    0.15    0.17 
   2  -5   9    0.08    0.21 
  -2   6  -9    0.38    0.32 
   3   5   9    0.61    0.28 
   3   5   9    0.24    0.41 
  -3  -4  -9   -0.08    0.26 
   3   4   9    0.04    0.22 
   3   4   9    0.64    0.41 
  -3  -3  -9   -0.07    0.18 
  -3  -3  -9    0.00    0.16 
  -3  -3  -9    0.41    0.21 
   3   3   9    0.41    0.23 
  -3  -2  -9    0.73    0.20 
   3   2   9    0.93    0.21 
   3   2   9    0.70    0.18 
   3   1   9    0.81    0.28 
  -3   0  -9    0.27    0.13 
  -3   0  -9    0.20    0.19 
   3   0   9    0.18    0.18 
   3   0   9   -0.06    0.19 
  -3   1  -9   -0.14    0.21 
  -3   1  -9    0.09    0.18 
   3  -1   9    0.27    0.19 
   3  -1   9   -0.09    0.20 
   3  -1   9    0.07    0.18 
  -3   2  -9    1.04    0.16 
   3  -2   9    0.79    0.19 
   3  -2   9    0.65    0.21 
  -3   3  -9   -0.14    0.24 
   3  -3   9   -0.31    0.23 
   3  -3   9    0.07    0.20 
   3  -3   9    0.16    0.20 
  -3   4  -9    0.08    0.16 
  -3   4  -9   -0.11    0.26 
   3  -4   9    0.19    0.25 
   3  -4   9   -0.07    0.23 
   3  -4   9    0.04    0.21 
  -3   5  -9    0.19    0.27 
  -3   5  -9   -0.04    0.28 
   3  -5   9   -0.12    0.25 
   3  -5   9    0.37    0.24 
  -4  -3  -9    0.03    0.27 
   4   3   9    0.34    0.41 
   4   3   9    0.40    0.26 
  -4  -2  -9    0.63    0.23 
   4   2   9    1.03    0.24 
   4   2   9    0.44    0.41 
  -4  -1  -9    0.20    0.25 
  -4  -1  -9    0.55    0.17 
   4   1   9    0.39    0.21 
  -4   0  -9    1.16    0.17 
  -4   0  -9    0.58    0.24 
   4   0   9    1.03    0.20 
   4   0   9    1.01    0.31 
   4   0   9    1.57    0.23 
  -4   1  -9    0.21    0.16 
  -4   1  -9    0.38    0.23 
   4  -1   9    0.40    0.23 
   4  -1   9    0.76    0.21 
   4  -1   9    0.28    0.24 
  -4   2  -9    0.00    0.24 
  -4   2  -9    0.19    0.17 
   4  -2   9    0.26    0.22 
   4  -2   9    0.13    0.21 
   4  -2   9    0.10    0.24 
  -4   3  -9    0.10    0.18 
  -4   3  -9   -0.01    0.26 
   4  -3   9    0.24    0.26 
   4  -3   9    0.01    0.25 
  -4   4  -9    0.21    0.20 
  -4   4  -9    0.04    0.28 
   4  -4   9   -0.12    0.30 
   4  -4   9   -0.05    0.26 
  -5  -2  -9   -0.04    0.20 
  -5  -2  -9    0.06    0.27 
   5   2   9   -0.26    0.48 
   5   1   9    0.39    0.28 
   5   1   9   -0.07    0.24 
  -5   0  -9    0.05    0.28 
  -5   0  -9    0.41    0.19 
   5   0   9    0.56    0.25 
   5   0   9    1.05    0.27 
   5   0   9    0.73    0.33 
  -5   1  -9   -0.02    0.19 
  -5   1  -9   -0.12    0.30 
   5  -1   9    0.03    0.24 
   5  -1   9    0.16    0.25 
  -5   2  -9   -0.01    0.27 
   5  -2   9    0.59    0.26 
  10  -2 -10   -0.16    0.22 
 -10   2  10   -0.14    0.26 
  10  -1 -10   -0.18    0.16 
 -10   1  10    0.37    0.19 
 -10   1  10   -0.19    0.24 
 -10   0  10    0.22    0.19 
 -10   0  10   -0.20    0.24 
  10   1 -10   -0.18    0.17 
 -10  -1  10   -0.18    0.26 
 -10  -1  10    0.15    0.18 
  10   2 -10   -0.13    0.20 
 -10  -2  10    0.04    0.21 
  -9   4  10   -0.02    0.28 
   9  -3 -10   -0.02    0.17 
  -9   3  10   -0.06    0.24 
   9  -2 -10    0.84    0.18 
  -9   2  10    0.75    0.22 
   9  -1 -10   -0.04    0.81 
   9  -1 -10    0.09    0.14 
  -9   1  10    0.02    0.21 
   9   0 -10    0.18    0.18 
  -9   0  10    0.40    0.22 
  -9   0  10    0.43    0.19 
   9   1 -10   -0.16    0.18 
   9   1 -10    0.20    0.17 
  -9  -1  10   -0.27    0.23 
  -9  -1  10    0.06    0.17 
   9   2 -10    0.67    0.23 
   9   2 -10    1.15    0.27 
  -9  -2  10    0.75    0.23 
   9   3 -10    0.15    0.23 
  -9  -3  10    0.14    0.22 
  -9  -4  10    0.44    0.26 
   8  -4 -10    0.10    0.20 
  -8   4  10   -0.11    0.22 
  -8   4  10    0.58    0.26 
   8  -3 -10    0.19    0.22 
   8  -3 -10   -0.13    0.15 
  -8   3  10    0.13    0.23 
  -8   3  10    0.03    0.21 
   8  -2 -10    1.03    0.22 
  -8   2  10    1.08    0.21 
   8  -1 -10    0.40    0.13 
  -8   1  10    0.45    0.19 
  -8   1  10    0.18    0.15 
   8   0 -10    0.34    0.16 
   8   0 -10    0.37    0.13 
  -8   0  10    0.49    0.19 
   8   1 -10    0.33    0.18 
   8   1 -10    0.35    0.16 
  -8  -1  10   -0.03    0.20 
  -8  -1  10    0.15    0.21 
   8   2 -10    1.75    0.26 
   8   2 -10    1.95    0.31 
  -8  -2  10    1.72    0.20 
   8   3 -10    0.20    0.19 
   8   3 -10   -0.02    0.18 
  -8  -3  10    0.27    0.21 
  -8  -3  10    0.13    0.18 
   8   4 -10    0.13    0.19 
   8   4 -10    0.24    0.23 
  -8  -4  10    0.08    0.20 
  -8  -5  10   -0.01    0.24 
   7  -5 -10    0.29    0.19 
   7  -5 -10    0.24    0.27 
  -7   5  10    0.08    0.27 
  -7   5  10    0.09    0.25 
   7  -4 -10    0.31    0.18 
   7  -4 -10    0.54    0.23 
  -7   4  10    0.19    0.21 
  -7   4  10    0.25    0.22 
   7  -3 -10    0.39    0.15 
   7  -3 -10    0.28    0.19 
  -7   3  10    0.36    0.20 
   7  -2 -10    0.40    0.13 
  -7   2  10    0.20    0.18 
   7  -1 -10    1.76    0.27 
   7  -1 -10    1.46    0.20 
  -7   1  10    1.28    0.18 
   7   0 -10    1.02    0.16 
  -7   0  10    1.19    0.21 
  -7   0  10    1.19    0.20 
   7   1 -10    1.54    0.24 
   7   1 -10    0.77    0.19 
  -7  -1  10    0.87    0.20 
  -7  -1  10    1.21    0.21 
   7   2 -10    0.03    0.12 
  -7  -2  10   -0.04    0.18 
  -7  -2  10    0.33    0.14 
  -7  -2  10    0.25    0.19 
  -7  -2  10    0.19    0.19 
   7   3 -10    0.27    0.18 
  -7  -3  10   -0.16    0.20 
  -7  -3  10    0.01    0.16 
  -7  -3  10    0.58    0.19 
   7   4 -10    0.21    0.22 
  -7  -4  10    0.66    0.21 
   7   5 -10    0.20    0.24 
   7   5 -10    0.25    0.23 
  -7  -5  10    0.00    0.21 
  -7  -5  10    0.43    0.23 
  -6   6  10    0.06    0.27 
  -6   5  10   -0.10    0.22 
  -6   5  10   -0.20    0.21 
   6  -4 -10    0.15    0.14 
   6  -4 -10    0.31    0.21 
  -6   4  10   -0.09    0.20 
  -6   4  10    0.35    0.21 
   6  -3 -10    1.12    0.22 
   6  -3 -10    0.73    0.17 
  -6   3  10    0.76    0.17 
  -6   3  10    0.41    0.18 
   6  -2 -10    1.37    0.19 
   6  -2 -10    1.80    0.23 
  -6   2  10    1.03    0.20 
  -6   2  10    0.67    0.66 
  -6   2  10    1.67    0.21 
   6  -1 -10    1.27    0.31 
   6  -1 -10    0.78    0.15 
  -6   1  10    1.02    0.21 
  -6   1  10    0.62    0.13 
   6   0 -10    2.43    0.57 
   6   0 -10    3.16    0.47 
   6   0 -10    4.29    0.56 
  -6   0  10    3.25    0.36 
  -6   0  10    4.15    0.56 
   6   1 -10    0.84    0.14 
   6   1 -10    1.10    0.19 
  -6  -1  10    1.37    0.28 
  -6  -1  10    1.23    0.19 
  -6  -1  10    0.77    0.19 
   6   2 -10    1.06    0.22 
  -6  -2  10    0.88    0.19 
   6   3 -10    1.17    0.21 
   6   3 -10    1.10    0.18 
  -6  -3  10    1.02    0.18 
  -6  -3  10    1.45    0.21 
   6   4 -10    0.35    0.19 
  -6  -4  10    0.36    0.21 
   6   5 -10    0.15    0.25 
  -6  -5  10    0.49    0.24 
  -6  -5  10    0.09    0.18 
  -6  -5  10    0.32    0.23 
   6   6 -10    0.23    0.21 
  -6  -6  10   -0.01    1.24 
   5  -6 -10    0.33    0.21 
   5  -5 -10    0.81    0.16 
  -5   5  10    0.86    0.23 
   5  -4 -10    3.32    0.42 
   5  -4 -10    2.91    0.34 
  -5   4  10    3.23    0.51 
  -5   4  10    3.26    0.46 
   5  -3 -10    0.03    0.24 
  -5   3  10    0.02    0.13 
  -5   3  10    0.27    0.16 
   5  -2 -10    0.42    0.11 
   5  -2 -10    0.34    0.18 
   5  -2 -10    0.23    0.12 
  -5   2  10    0.16    0.13 
  -5   2  10    0.49    0.12 
   5  -1 -10   11.81    1.29 
   5  -1 -10   11.09    1.39 
   5  -1 -10   15.06    1.63 
  -5   1  10   13.62    1.51 
  -5   1  10   13.03    1.48 
  -5   1  10   14.21    1.52 
  -5   0  10    4.09    0.85 
  -5   0  10    6.16    1.18 
   5   1 -10   11.71    1.36 
   5   1 -10   17.08    1.74 
   5   1 -10   13.95    1.61 
  -5  -1  10   14.00    1.56 
  -5  -1  10   14.22    1.74 
  -5  -1  10   15.16    1.70 
   5   2 -10    0.89    0.16 
  -5  -2  10    1.03    0.15 
   5   3 -10    0.02    0.14 
   5   3 -10    0.46    0.16 
  -5  -3  10    0.31    0.13 
  -5  -3  10    0.22    0.18 
  -5  -3  10    0.14    0.17 
  -5  -3  10    0.62    0.17 
   5   4 -10    3.90    0.40 
  -5  -4  10    2.34    1.77 
  -5  -4  10    3.15    0.47 
   5   5 -10    1.37    0.51 
  -5  -5  10    1.20    0.28 
  -5  -5  10    1.11    0.26 
   5   6 -10    0.55    0.30 
   5   6 -10    0.64    0.23 
  -5  -6  10    0.30    0.32 
  -5  -6  10    0.59    0.27 
   4  -6 -10    0.72    0.30 
  -4   6  10    0.32    0.23 
   4  -5 -10    0.22    0.21 
  -4   5  10    0.36    0.20 
   4  -4 -10    1.06    0.21 
  -4   4  10    0.69    0.18 
  -4   3  10    0.16    0.16 
  -4   3  10   -0.01    0.12 
   4  -2 -10    0.03    0.11 
  -4   2  10    0.23    0.11 
  -4   2  10   -0.06    0.14 
   4  -1 -10    2.00    0.61 
  -4   1  10    1.31    0.20 
  -4   1  10    0.97    0.14 
   4   0 -10   16.95    1.82 
   4   0 -10   13.68    1.78 
   4   0 -10   16.42    1.53 
  -4   0  10   17.72    1.71 
  -4   0  10   14.00    1.62 
  -4   0  10   19.27    1.96 
   4   1 -10    0.89    0.15 
   4   1 -10    0.92    0.15 
  -4  -1  10    0.76    0.16 
  -4  -1  10    0.95    0.18 
   4   2 -10    0.27    0.12 
   4   2 -10    0.24    0.14 
  -4  -2  10    0.16    0.13 
  -4  -2  10    0.14    0.09 
  -4  -2  10    0.32    0.13 
  -4  -3  10    0.35    0.16 
   4   4 -10    0.56    0.21 
   4   4 -10    0.75    0.18 
  -4  -4  10    0.40    0.21 
  -4  -4  10    0.37    0.19 
  -4  -4  10    0.51    0.14 
   4   5 -10    0.03    0.17 
   4   5 -10    0.46    0.22 
  -4  -5  10    0.60    0.25 
  -4  -5  10   -0.04    0.15 
  -4  -5  10   -0.19    0.20 
   4   6 -10    0.73    0.26 
  -4  -6  10    0.47    0.23 
  -4  -6  10    0.20    0.31 
   3  -6 -10    0.22    0.29 
  -3   6  10   -0.08    0.22 
   3  -5 -10    1.24    0.30 
  -3   5  10    0.32    0.22 
   3  -4 -10    0.52    0.19 
   3  -3 -10    1.71    0.36 
  -3   3  10    1.57    0.24 
   3  -2 -10    1.50    0.25 
  -3   2  10    1.82    0.28 
   3  -1 -10    0.64    0.14 
   3  -1 -10    0.72    0.50 
  -3   1  10    0.25    0.13 
  -3   1  10    0.42    0.12 
  -3   0  10    0.38    0.11 
  -3   0  10    0.21    0.11 
  -3   0  10    0.04    0.10 
   3   1 -10    0.32    0.16 
  -3  -1  10    0.34    0.15 
  -3  -1  10    0.42    0.14 
  -3  -1  10    0.29    0.11 
   3   2 -10    2.00    0.27 
  -3  -2  10    2.20    0.31 
  -3  -2  10    2.51    0.37 
  -3  -2  10    1.80    0.32 
  -3  -3  10    2.11    0.27 
  -3  -3  10    1.61    0.29 
  -3  -3  10    1.44    0.18 
   3   4 -10    0.25    0.14 
  -3  -4  10    0.03    0.19 
  -3  -4  10    0.30    0.13 
  -3  -4  10   -0.07    0.17 
   3   5 -10   -0.02    0.25 
  -3  -5  10   -0.02    0.25 
  -3  -5  10    0.14    0.15 
   3   6 -10    0.44    0.26 
  -3  -6  10    0.39    0.30 
   2  -6 -10    0.02    0.26 
  -2   6  10    0.61    0.28 
   2  -5 -10    0.29    0.18 
   2  -5 -10    0.21    0.24 
   2  -4 -10    0.24    0.16 
   2  -4 -10   -0.20    0.18 
  -2   4  10   -0.05    0.11 
  -2   4  10   -0.18    0.17 
  -2   4  10   -0.12    0.19 
   2  -3 -10    1.73    0.21 
  -2   3  10    1.19    0.36 
   2  -2 -10    0.18    0.11 
   2  -2 -10    0.43    0.11 
  -2   2  10    0.14    0.10 
  -2   2  10    0.26    0.10 
  -2   2  10    0.24    0.14 
   2  -1 -10   14.00    5.18 
   2  -1 -10    9.10    1.15 
   2  -1 -10    8.58    1.18 
  -2   1  10    8.95    1.06 
  -2   1  10   11.43    1.31 
  -2   1  10   10.70    1.28 
   2   0 -10    4.69    0.78 
  -2   0  10    4.25    0.61 
  -2   0  10    3.11    0.63 
  -2   0  10    4.08    0.62 
   2   1 -10   11.27    1.27 
   2   1 -10    9.37    1.26 
  -2  -1  10    9.47    1.32 
  -2  -1  10    9.02    1.12 
  -2  -1  10   10.74    1.27 
   2   2 -10    0.80    0.17 
  -2  -2  10    0.57    0.13 
  -2  -2  10    0.76    0.13 
   2   3 -10    3.02    0.44 
  -2  -3  10    3.31    0.42 
  -2  -3  10    2.59    0.25 
  -2  -3  10    3.37    0.50 
   2   4 -10    0.10    0.15 
  -2  -4  10   -0.04    0.20 
  -2  -4  10    0.11    0.17 
  -2  -4  10    0.08    0.13 
   2   5 -10    1.40    0.25 
   2   6 -10    0.67    0.29 
   2   6 -10    0.29    0.26 
   1  -6 -10    1.47    0.34 
  -1   6  10    2.26    0.42 
   1  -5 -10    0.48    0.21 
   1  -4 -10    2.39    0.41 
  -1   4  10    2.28    0.28 
   1  -3 -10    0.38    0.14 
  -1   3  10    0.45    0.16 
   1  -2 -10    2.83    0.43 
   1  -2 -10    3.83    0.54 
  -1   2  10    3.38    0.49 
  -1   2  10    4.03    0.57 
  -1   2  10    4.04    0.64 
   1  -1 -10    0.35    0.12 
   1  -1 -10    0.27    0.11 
  -1   1  10    0.18    0.13 
  -1   1  10    0.40    0.11 
  -1   1  10    0.09    0.14 
   1   0 -10   14.22    1.63 
   1   0 -10   12.28    1.47 
   1   0 -10   15.53    2.66 
  -1   0  10   13.86    1.59 
  -1   0  10   14.07    1.58 
  -1   0  10   13.16    1.59 
   1   1 -10   -0.04    0.09 
   1   1 -10    0.07    0.22 
  -1  -1  10    0.10    0.12 
  -1  -1  10    0.24    0.14 
  -1  -1  10    0.30    0.13 
  -1  -1  10    0.14    0.12 
   1   2 -10    5.29    0.76 
   1   2 -10    3.59    0.69 
   1   2 -10    3.72    0.55 
  -1  -2  10    4.72    0.74 
  -1  -2  10    4.37    0.55 
  -1  -2  10    4.09    0.60 
   1   3 -10    0.67    0.15 
  -1  -3  10    0.85    0.22 
  -1  -3  10    0.48    0.12 
  -1  -3  10    0.95    0.21 
   1   4 -10    1.86    0.22 
   1   4 -10    2.20    0.29 
  -1  -4  10    1.46    0.20 
   1   5 -10    0.05    0.19 
   1   5 -10    0.23    0.17 
  -1  -5  10    0.03    0.15 
  -1  -5  10    0.00    0.19 
  -1  -5  10   -0.15    0.21 
   0  -6 -10    0.03    1.82 
   0  -6 -10   -0.20    0.27 
   0   6  10    0.08    0.27 
   0  -5 -10   -0.10    0.24 
   0  -5 -10    0.17    0.23 
   0   5  10   -0.22    0.21 
   0  -4 -10   -0.04    0.20 
   0  -4 -10   -0.13    0.21 
   0   4  10    0.07    0.28 
   0  -3 -10    0.19    0.12 
   0   3  10    0.35    0.19 
   0   3  10   -0.03    0.12 
   0   3  10    0.17    0.23 
   0  -2 -10    1.31    0.20 
   0   2  10    1.59    0.26 
   0   2  10    1.42    0.20 
   0  -1 -10    1.60    0.22 
   0  -1 -10    1.35    0.20 
   0   1  10    1.76    0.19 
   0   1  10    1.22    0.18 
   0   1  10    1.00    0.19 
   0   0 -10    0.39    0.16 
   0   0 -10    0.78    0.65 
   0   0 -10    0.29    0.13 
   0   0  10    0.61    0.14 
   0   0  10    0.31    0.15 
   0   1 -10    1.10    0.19 
   0   1 -10    0.84    0.15 
   0  -1  10    1.10    0.18 
   0   2 -10    2.51    0.36 
   0   2 -10    1.93    0.44 
   0  -2  10    2.46    0.34 
   0  -2  10    1.97    0.36 
   0  -2  10    1.83    0.26 
   0   3 -10    0.29    0.17 
   0  -3  10    0.22    0.17 
   0  -3  10    0.41    0.17 
   0   4 -10   -0.01    0.16 
   0   4 -10    0.10    0.21 
   0  -4  10   -0.05    0.14 
   0  -4  10    0.16    0.20 
   0   5 -10   -0.27    0.26 
   0   5 -10    0.29    0.23 
   0   5 -10    0.14    0.18 
   0  -5  10    0.00    0.15 
   0  -5  10    0.07    0.20 
  -1  -5 -10   -0.20    0.26 
  -1  -5 -10   -0.10    0.27 
  -1  -4 -10    0.35    0.22 
   1   4  10    0.42    0.19 
  -1  -3 -10    0.24    0.20 
  -1  -3 -10   -0.01    0.15 
  -1  -3 -10   -0.09    0.19 
   1   3  10   -0.09    0.17 
   1   3  10   -0.13    0.30 
   1   3  10   -0.01    0.20 
   1   2  10    0.48    0.18 
  -1  -1 -10    0.13    0.15 
  -1  -1 -10    0.21    0.12 
   1   1  10    0.06    0.19 
  -1   0 -10    1.46    0.49 
  -1   0 -10    1.49    0.17 
   1   0  10    1.66    0.20 
   1   0  10    1.30    0.27 
  -1   1 -10    0.73    0.13 
   1  -1  10    0.43    0.16 
   1  -1  10    0.46    0.11 
   1  -1  10    0.57    0.17 
  -1   2 -10    0.49    0.16 
  -1   2 -10    0.26    0.15 
   1  -2  10    0.36    0.18 
   1  -2  10    0.38    0.13 
   1  -3  10    0.10    0.14 
   1  -3  10    0.18    0.17 
   1  -3  10   -0.06    0.19 
  -1   4 -10    0.46    0.18 
  -1   4 -10    0.20    0.26 
  -1   4 -10   -0.15    0.22 
   1  -4  10    0.12    0.15 
   1  -4  10    0.47    0.23 
   1  -4  10    0.28    0.20 
  -1   5 -10   -0.22    0.28 
  -1   5 -10    0.19    0.22 
   1  -5  10   -0.02    0.22 
   1  -5  10    0.01    0.19 
   1  -5  10   -0.36    0.26 
  -2  -4 -10    0.20    0.27 
   2   4  10    0.06    0.38 
   2   4  10    0.37    0.25 
  -2  -3 -10    0.11    0.21 
  -2  -3 -10   -0.03    0.18 
   2   3  10    0.13    0.35 
   2   3  10    0.19    0.19 
   2   2  10    0.23    0.36 
   2   2  10    0.12    0.19 
   2   2  10    0.32    0.18 
  -2  -1 -10    0.48    0.20 
  -2  -1 -10    0.18    0.14 
   2   1  10    0.26    0.26 
   2   1  10   -0.02    0.21 
   2   1  10    0.11    0.18 
  -2   0 -10    0.31    0.17 
  -2   0 -10    0.48    0.20 
   2   0  10    0.52    0.19 
  -2   1 -10    0.27    0.15 
  -2   1 -10    0.17    0.19 
   2  -1  10    0.03    0.19 
   2  -1  10    0.30    0.20 
   2  -1  10   -0.02    0.19 
  -2   2 -10    0.15    0.15 
  -2   2 -10    0.23    0.18 
  -2   2 -10    0.58    0.22 
   2  -2  10   -0.06    0.19 
   2  -2  10    0.20    0.22 
  -2   3 -10   -0.32    0.22 
  -2   3 -10   -0.08    0.25 
  -2   3 -10    0.09    0.15 
   2  -3  10    0.19    0.21 
   2  -3  10    0.01    0.21 
  -2   4 -10   -0.14    0.27 
   2  -4  10   -0.06    0.23 
   2  -4  10    0.55    0.25 
  -2   5 -10   -0.07    0.30 
  -2   5 -10    0.18    0.23 
   2  -5  10    0.07    0.25 
   2  -5  10   -0.30    0.25 
  -3  -3 -10   -0.01    0.19 
  -3  -3 -10    0.53    0.25 
   3   3  10    0.13    0.25 
   3   3  10    0.13    0.48 
  -3  -2 -10    0.09    0.17 
  -3  -2 -10   -0.09    0.24 
   3   2  10    0.13    0.23 
   3   2  10    0.38    0.39 
  -3  -1 -10    0.64    0.17 
  -3  -1 -10   -0.03    0.24 
  -3  -1 -10    0.58    0.21 
   3   1  10   -0.11    0.21 
   3   1  10    0.54    0.22 
  -3   0 -10    0.13    0.15 
  -3   0 -10    0.06    0.24 
  -3   0 -10    0.00    0.22 
   3   0  10   -0.17    0.20 
   3   0  10    0.04    0.21 
  -3   1 -10   -0.09    0.19 
  -3   1 -10   -0.10    0.25 
   3  -1  10    0.34    0.21 
   3  -1  10    0.13    0.21 
   3  -1  10    0.07    0.24 
  -3   2 -10    0.18    0.17 
  -3   2 -10    0.14    0.26 
   3  -2  10    0.42    0.25 
   3  -2  10    0.01    0.23 
   3  -2  10    0.17    0.23 
  -3   3 -10    0.36    0.31 
  -3   3 -10   -0.02    0.31 
   3  -3  10    0.12    0.27 
   3  -3  10    0.21    0.24 
  -3   4 -10    0.11    0.19 
  -3   4 -10   -0.05    0.30 
   3  -4  10   -0.04    0.27 
  -4  -2 -10    0.59    0.27 
  -4  -2 -10   -0.01    0.20 
   4   2  10    0.44    0.50 
   4   2  10    0.36    0.26 
  -4  -1 -10   -0.08    0.19 
  -4  -1 -10    0.35    0.28 
  -4  -1 -10   -0.06    0.27 
   4   1  10    0.11    0.24 
   4   1  10    0.22    0.25 
  -4   0 -10    0.87    0.27 
  -4   0 -10    0.12    0.26 
   4   0  10    0.35    0.25 
   4   0  10    0.48    0.31 
   4   0  10    0.41    0.24 
  -4   1 -10   -0.06    0.18 
  -4   1 -10   -0.05    0.27 
   4  -1  10    0.37    0.25 
   4  -1  10   -0.06    0.28 
  -4   2 -10   -0.09    0.32 
   4  -2  10    0.55    0.29 
   4  -2  10   -0.11    0.30 
 -10   0  11    0.43    0.21 
 -10   0  11    0.00    0.27 
 -10  -1  11    0.26    0.24 
 -10  -1  11   -0.04    0.32 
   9  -3 -11    0.87    0.28 
   9  -3 -11    0.08    0.21 
   9  -2 -11   -0.24    0.23 
   9  -2 -11    0.18    0.17 
  -9   2  11    0.01    0.24 
   9  -1 -11   -0.49    1.21 
   9  -1 -11   -0.20    0.16 
  -9   1  11   -0.04    0.24 
  -9   1  11    0.15    0.19 
   9   0 -11    1.88    0.42 
   9   0 -11    2.09    0.31 
  -9   0  11    1.98    0.35 
   9   1 -11    0.48    0.19 
   9   1 -11   -0.24    0.20 
  -9  -1  11    0.17    0.26 
  -9  -1  11    0.08    0.19 
   9   2 -11   -0.21    0.20 
   9   2 -11   -0.09    0.20 
  -9  -2  11    0.07    0.20 
  -9  -2  11    0.01    0.27 
   9   3 -11    0.01    0.26 
   9   3 -11    0.09    0.25 
  -9  -3  11    0.89    0.31 
   8  -4 -11   -0.01    0.20 
  -8   4  11   -0.18    0.29 
   8  -3 -11   -0.13    0.19 
   8  -3 -11    0.32    0.25 
  -8   3  11    0.10    0.23 
   8  -2 -11    0.43    0.22 
   8  -2 -11    0.85    0.17 
  -8   2  11    0.56    0.25 
   8  -1 -11   -0.16    0.72 
   8  -1 -11    0.14    0.14 
  -8   1  11    0.06    0.22 
  -8   1  11    0.22    0.19 
   8   0 -11    0.03    0.16 
   8   0 -11    0.15    0.14 
  -8   0  11    0.08    0.22 
  -8   0  11   -0.12    0.17 
   8   1 -11    0.11    0.17 
   8   1 -11   -0.07    0.19 
  -8  -1  11    0.05    0.17 
  -8  -1  11   -0.21    0.22 
   8   2 -11    0.55    0.22 
   8   2 -11    0.33    0.17 
   8   2 -11    0.85    0.28 
  -8  -2  11    0.31    0.25 
  -8  -2  11    0.33    0.27 
   8   3 -11    0.23    0.21 
  -8  -3  11    0.13    0.19 
  -8  -3  11    0.34    0.24 
   8   4 -11    0.16    0.26 
  -8  -4  11   -0.01    0.21 
  -8  -4  11    0.53    0.26 
   7  -5 -11    0.01    0.22 
  -7   5  11   -0.08    0.27 
  -7   5  11    0.05    0.29 
   7  -4 -11    0.43    0.25 
   7  -4 -11    0.20    0.20 
  -7   4  11   -0.23    0.24 
  -7   4  11    0.17    0.23 
   7  -3 -11    0.06    0.20 
   7  -3 -11    0.02    0.17 
  -7   3  11    0.20    0.20 
  -7   3  11   -0.04    0.22 
   7  -2 -11    2.03    0.31 
   7  -2 -11    1.69    0.22 
  -7   2  11    1.66    0.24 
   7  -1 -11    0.31    0.13 
  -7   1  11    0.23    0.20 
  -7   1  11    0.32    0.15 
   7   0 -11    0.10    0.16 
   7   0 -11   -0.07    0.17 
   7   0 -11    0.28    0.14 
  -7   0  11   -0.21    0.19 
  -7   0  11   -0.12    0.19 
   7   1 -11    0.21    0.17 
   7   1 -11    0.75    0.16 
  -7  -1  11    0.39    0.21 
  -7  -1  11    0.57    0.19 
  -7  -1  11    0.10    0.20 
   7   2 -11    1.08    0.21 
  -7  -2  11    0.94    0.17 
  -7  -2  11    0.86    0.24 
  -7  -2  11    1.16    0.22 
   7   3 -11    0.47    0.17 
   7   3 -11   -0.11    0.19 
  -7  -3  11    0.09    0.22 
  -7  -3  11    0.26    0.18 
  -7  -3  11    0.10    0.21 
   7   4 -11   -0.06    0.24 
   7   4 -11    0.06    0.20 
  -7  -4  11    0.45    0.24 
  -7  -4  11    0.10    0.19 
   7   5 -11   -0.04    0.22 
  -7  -5  11    0.01    0.22 
   6  -5 -11   -0.01    0.29 
   6  -5 -11   -0.05    0.18 
  -6   5  11   -0.04    0.27 
  -6   5  11   -0.05    0.24 
   6  -4 -11    0.45    0.23 
   6  -4 -11    0.61    0.18 
  -6   4  11    0.10    0.21 
  -6   4  11    0.28    0.25 
  -6   3  11    0.64    0.20 
  -6   3  11    0.52    0.22 
   6  -2 -11    0.08    0.13 
  -6   2  11    0.01    0.15 
  -6   2  11    0.00    0.19 
  -6   2  11    0.33    0.18 
   6  -1 -11    0.88    0.52 
  -6   1  11    0.06    0.16 
  -6   1  11    0.28    0.14 
  -6   1  11    0.22    0.17 
   6   0 -11    0.07    0.16 
   6   0 -11    0.65    0.14 
   6   0 -11    0.37    0.13 
  -6   0  11    0.64    0.86 
  -6   0  11    0.11    0.15 
  -6   0  11    0.32    0.16 
   6   1 -11    0.23    0.15 
   6   1 -11    0.43    0.16 
   6   1 -11    0.29    0.14 
  -6  -1  11   -0.01    0.15 
  -6  -1  11   -0.11    0.18 
  -6  -1  11   -0.01    0.18 
  -6  -2  11    0.48    0.18 
  -6  -2  11    0.18    0.20 
  -6  -2  11    1.03    0.27 
   6   3 -11    0.21    0.18 
  -6  -3  11    0.20    0.17 
  -6  -3  11    0.06    0.21 
  -6  -3  11    0.01    0.21 
   6   4 -11    0.50    0.21 
  -6  -4  11    0.29    0.24 
  -6  -4  11    0.45    1.04 
   6   5 -11   -0.03    0.26 
   6   5 -11    0.83    0.22 
  -6  -5  11    0.67    0.28 
  -6  -5  11   -0.04    0.20 
   5  -5 -11    0.84    0.28 
  -5   5  11    0.47    0.23 
   5  -4 -11    0.99    0.21 
  -5   4  11    0.72    0.21 
  -5   4  11    0.76    0.22 
   5  -3 -11    0.99    0.33 
  -5   3  11    0.97    0.18 
  -5   3  11    1.03    0.22 
   5  -2 -11    1.57    0.25 
  -5   2  11    2.48    0.30 
  -5   2  11    2.20    0.25 
  -5   2  11    2.43    0.47 
   5  -1 -11    1.38    0.82 
   5  -1 -11   -0.12    0.13 
  -5   1  11   -0.18    0.12 
  -5   1  11    0.01    0.15 
  -5   1  11    0.08    0.15 
  -5   1  11    0.00    0.16 
   5   0 -11    0.08    0.15 
   5   0 -11    0.15    0.11 
  -5   0  11    0.07    0.13 
  -5   0  11    0.16    0.13 
  -5   0  11    0.29    0.15 
   5   1 -11    0.25    0.11 
   5   1 -11    0.37    0.14 
  -5  -1  11    0.00    0.14 
  -5  -1  11    0.18    0.16 
  -5  -1  11    0.07    0.16 
  -5  -1  11    0.56    0.17 
   5   2 -11    2.97    0.33 
   5   2 -11    3.34    0.45 
  -5  -2  11    3.75    0.40 
  -5  -2  11    2.90    0.38 
   5   3 -11    1.05    0.20 
   5   3 -11    0.68    0.19 
  -5  -3  11    1.11    0.18 
  -5  -4  11    0.75    0.17 
   5   5 -11    0.34    0.24 
   5   5 -11    0.34    0.20 
  -5  -5  11   -0.23    0.25 
  -5  -5  11    0.01    0.19 
   4  -4 -11    1.56    0.25 
  -4   4  11    1.54    0.23 
  -4   3  11    0.42    0.19 
  -4   3  11    0.59    0.18 
   4  -2 -11    0.44    0.18 
  -4   2  11    0.00    0.16 
  -4   2  11    0.32    0.12 
   4  -1 -11    0.31    0.14 
   4  -1 -11    1.15    0.69 
  -4   1  11    0.02    0.16 
  -4   1  11    0.28    0.12 
  -4   1  11    0.22    0.16 
   4   0 -11    1.19    0.28 
  -4   0  11    1.39    0.18 
  -4   0  11    0.84    0.18 
  -4  -1  11    0.61    0.14 
   4   2 -11   -0.07    0.16 
  -4  -2  11    0.10    0.14 
  -4  -2  11   -0.08    0.16 
  -4  -2  11   -0.05    0.15 
  -4  -2  11   -0.07    0.16 
   4   3 -11    0.77    0.21 
  -4  -3  11    1.17    0.24 
   4   4 -11    0.12    0.24 
  -4  -4  11    0.29    0.16 
  -4  -4  11    0.62    0.21 
  -4  -4  11   -0.02    0.19 
   4   5 -11    0.49    0.27 
  -4  -5  11    0.00    0.17 
   4   6 -11    0.03    0.30 
  -4  -6  11    0.01    0.20 
   3  -5 -11    0.43    0.28 
  -3   5  11    0.33    0.21 
   3  -4 -11    0.60    0.23 
  -3   4  11    0.12    0.18 
  -3   4  11    0.29    0.20 
   3  -3 -11    0.55    0.20 
  -3   3  11    0.70    0.19 
   3  -2 -11    2.96    0.50 
  -3   2  11    2.58    0.32 
  -3   2  11    3.14    0.43 
  -3   2  11    2.64    0.32 
   3  -1 -11    3.54    1.04 
  -3   1  11    2.28    0.34 
  -3   1  11    2.06    0.29 
  -3   1  11    2.12    0.28 
  -3   0  11    0.73    0.16 
  -3   0  11    0.58    0.13 
   3   1 -11    2.09    0.28 
  -3  -1  11    1.80    0.29 
  -3  -1  11    1.41    0.21 
  -3  -2  11    2.75    0.40 
  -3  -2  11    2.72    0.28 
  -3  -2  11    2.68    0.42 
  -3  -3  11    0.53    0.17 
  -3  -3  11    0.49    0.15 
  -3  -3  11    0.35    0.17 
   3   4 -11    0.92    0.22 
  -3  -4  11    0.07    0.21 
  -3  -4  11    0.52    0.19 
   3   5 -11    0.44    0.27 
   3   5 -11    0.40    0.26 
  -3  -5  11   -0.01    0.24 
  -3  -5  11   -0.05    0.17 
   3   6 -11   -0.22    0.28 
  -3  -6  11   -0.01    0.19 
   2  -5 -11    0.65    0.24 
   2  -5 -11    0.58    0.54 
   2  -4 -11    1.13    0.26 
  -2   4  11    0.91    0.18 
   2  -3 -11    0.51    0.19 
  -2   3  11    0.30    0.20 
  -2   3  11    0.39    0.18 
   2  -2 -11    0.17    0.13 
   2  -2 -11    0.46    0.17 
  -2   2  11    0.53    0.14 
  -2   2  11    0.33    0.16 
  -2   2  11    0.76    0.18 
   2  -1 -11    0.25    0.17 
   2  -1 -11    0.08    0.14 
   2  -1 -11    0.10    0.13 
  -2   1  11    0.24    0.16 
  -2   1  11    0.04    0.11 
  -2   1  11    0.35    0.14 
   2   0 -11    1.47    0.21 
  -2   0  11    1.52    0.26 
  -2   0  11    1.94    0.33 
  -2   0  11    1.33    0.25 
   2   1 -11    0.13    0.16 
  -2  -1  11   -0.10    0.14 
  -2  -1  11    0.18    0.13 
  -2  -1  11    0.28    0.15 
  -2  -1  11    0.01    0.14 
  -2  -2  11    0.13    0.14 
  -2  -2  11    0.16    0.16 
   2   3 -11    0.24    0.18 
  -2  -3  11    0.28    0.11 
  -2  -3  11    0.25    0.17 
  -2  -3  11    0.16    0.17 
  -2  -3  11    0.02    0.19 
   2   4 -11    0.75    0.24 
   2   4 -11    0.44    0.21 
  -2  -4  11    0.13    0.19 
  -2  -4  11    0.33    0.16 
   2   5 -11    0.41    0.26 
   2   5 -11    0.42    0.27 
  -2  -5  11    0.08    0.17 
  -2  -5  11    0.14    0.25 
   2   6 -11    0.47    0.29 
   2   6 -11   -0.03    0.21 
   1  -5 -11    0.41    0.22 
   1  -5 -11   -0.36    0.28 
  -1   5  11    0.06    0.21 
   1  -4 -11    0.33    0.21 
   1  -4 -11    0.44    0.24 
  -1   4  11    0.33    0.21 
   1  -3 -11    0.12    0.18 
  -1   3  11    0.21    0.19 
  -1   3  11    0.25    0.17 
   1  -2 -11    0.24    0.18 
   1  -2 -11   -0.01    0.14 
  -1   2  11   -0.10    0.12 
  -1   2  11    0.21    0.16 
  -1   2  11    0.00    0.18 
  -1   2  11    0.03    0.14 
   1  -1 -11    0.42    0.15 
   1  -1 -11    0.67    0.15 
  -1   1  11    0.53    0.17 
   1   0 -11    0.11    0.17 
  -1   0  11    0.12    0.15 
  -1   0  11    0.03    0.16 
  -1   0  11    0.35    0.13 
   1   1 -11    0.86    0.15 
  -1  -1  11    0.54    0.16 
  -1  -1  11    0.60    0.17 
   1   2 -11    0.10    0.15 
   1   2 -11   -0.24    0.17 
   1   2 -11    0.22    0.15 
  -1  -2  11    0.22    0.14 
  -1  -2  11    0.22    0.17 
  -1  -2  11   -0.10    0.14 
  -1  -2  11    0.22    0.18 
   1   3 -11    0.54    0.16 
   1   3 -11   -0.05    0.19 
  -1  -3  11   -0.14    0.19 
  -1  -3  11    0.20    0.14 
  -1  -3  11    0.05    0.19 
   1   4 -11    0.27    0.18 
  -1  -4  11   -0.04    0.16 
  -1  -4  11    0.00    0.20 
   1   5 -11    0.16    0.20 
   1   5 -11    0.30    0.24 
  -1  -5  11    0.08    0.25 
  -1  -5  11    0.00    0.18 
  -1  -5  11   -0.20    0.22 
   0  -5 -11    0.33    0.28 
   0  -5 -11   -0.22    0.29 
   0   5  11   -0.01    0.26 
   0  -4 -11   -0.13    0.24 
   0  -4 -11    0.14    0.24 
   0  -3 -11    0.48    0.19 
   0   3  11    0.35    0.20 
   0   3  11    0.71    0.19 
   0  -2 -11    0.12    0.14 
   0  -2 -11    0.59    0.19 
   0   2  11    0.05    0.21 
   0  -1 -11    0.04    0.18 
   0  -1 -11    0.22    0.14 
   0   1  11    0.07    0.17 
   0   1  11   -0.01    0.18 
   0   0 -11    1.06    0.20 
   0   0 -11    1.04    0.15 
   0   0  11    1.17    0.20 
   0   0  11    0.96    0.16 
   0   1 -11   -0.01    0.19 
   0   1 -11   -0.12    0.12 
   0  -1  11    0.04    0.16 
   0  -1  11    0.12    0.18 
   0  -1  11   -0.19    0.16 
   0  -1  11    0.17    0.11 
   0   2 -11    0.43    0.18 
   0   2 -11    0.24    0.15 
   0  -2  11   -0.05    0.20 
   0  -2  11    0.49    0.15 
   0  -2  11    0.28    0.18 
   0   3 -11    0.05    0.20 
   0  -3  11    0.15    0.20 
   0  -3  11    0.22    0.19 
   0  -3  11    0.00    0.15 
   0  -3  11   -0.26    0.20 
   0   4 -11   -0.26    0.24 
   0  -4  11    0.07    0.17 
   0  -4  11    0.11    0.24 
   0   5 -11    0.11    0.34 
   0   5 -11    0.07    0.21 
   0  -5  11   -0.07    0.27 
   0  -5  11    0.17    0.20 
  -1  -4 -11    0.55    0.25 
   1   4  11    0.47    0.25 
  -1  -3 -11    0.40    0.22 
   1   3  11    0.42    0.20 
  -1  -2 -11   -0.15    0.20 
  -1  -2 -11    0.10    0.15 
   1   2  11    0.24    0.19 
   1   2  11    0.07    0.21 
  -1  -1 -11    0.56    0.21 
  -1  -1 -11    0.92    0.16 
   1   1  11    0.81    0.21 
   1   1  11    0.88    0.21 
  -1   0 -11    0.92    0.18 
  -1   0 -11    1.05    0.22 
   1   0  11    1.08    0.20 
   1   0  11    0.90    0.20 
  -1   1 -11    1.58    0.20 
   1  -1  11    1.02    0.23 
   1  -1  11    1.31    0.17 
   1  -1  11    0.87    0.23 
  -1   2 -11    0.33    0.17 
  -1   2 -11    0.02    0.20 
   1  -2  11   -0.06    0.21 
   1  -2  11   -0.01    0.16 
   1  -2  11    0.07    0.19 
  -1   3 -11    0.36    0.18 
  -1   3 -11    0.32    0.24 
   1  -3  11    0.38    0.24 
   1  -3  11    0.48    0.22 
  -1   4 -11    0.25    0.19 
  -1   4 -11    0.02    0.29 
   1  -4  11    0.06    0.24 
   1  -4  11    0.31    0.24 
   1  -4  11    0.06    0.17 
  -2  -3 -11   -0.03    0.19 
  -2  -3 -11    0.38    0.26 
   2   3  11    0.31    0.22 
  -2  -2 -11   -0.01    0.17 
   2   2  11    0.08    0.22 
   2   2  11   -0.36    0.40 
   2   2  11    0.06    0.25 
  -2  -1 -11    0.38    0.23 
  -2  -1 -11    0.10    0.16 
   2   1  11    0.52    0.23 
   2   1  11    0.44    0.22 
  -2   0 -11    0.19    0.16 
  -2   0 -11    0.40    0.20 
   2   0  11    0.69    0.21 
   2   0  11    0.19    0.22 
  -2   1 -11    0.08    0.17 
  -2   1 -11   -0.26    0.23 
   2  -1  11   -0.01    0.24 
   2  -1  11    0.23    0.23 
  -2   2 -11   -0.03    0.17 
  -2   2 -11   -0.30    0.28 
  -2   2 -11   -0.07    0.24 
   2  -2  11   -0.03    0.23 
   2  -2  11    0.22    0.23 
  -2   3 -11    0.01    0.19 
  -2   3 -11    0.21    0.30 
   2  -3  11    0.12    0.24 
  -2   4 -11    0.18    0.21 
  -3  -2 -11    0.23    0.30 
  -3  -2 -11   -0.06    0.20 
   3   2  11    0.09    0.28 
   3   2  11    0.19    0.50 
  -3  -1 -11    0.07    0.19 
  -3  -1 -11   -0.06    0.29 
  -3  -1 -11    0.54    0.25 
   3   1  11    0.19    0.25 
   3   1  11    0.46    0.27 
  -3   0 -11    2.24    0.95 
   3   0  11    0.17    0.30 
   3   0  11    0.55    0.27 
   3   0  11    0.07    0.28 
  -3   1 -11    0.02    0.18 
  -3   1 -11    0.06    0.30 
  -3   1 -11   -0.10    0.26 
   3  -1  11    0.24    0.25 
   3  -1  11   -0.02    0.26 
  -3   2 -11   -0.02    0.32 
   3  -2  11   -0.11    0.27 
   9  -2 -12    0.11    0.21 
   9  -1 -12    0.02    0.20 
   9  -1 -12   -1.27    0.87 
  -9   1  12   -0.09    0.28 
   9   0 -12    0.29    0.19 
   9   0 -12    0.07    0.22 
  -9   0  12    0.57    0.21 
  -9   0  12   -0.07    0.27 
   9   1 -12    0.14    0.18 
   9   1 -12   -0.20    0.22 
  -9  -1  12   -0.26    0.31 
  -9  -1  12    0.18    0.21 
  -9  -2  12   -0.29    0.33 
  -9  -2  12    0.01    0.30 
   8  -3 -12    0.41    0.20 
   8  -2 -12    0.36    0.24 
   8  -2 -12   -0.24    0.17 
  -8   2  12   -0.31    0.28 
   8  -1 -12    0.15    0.18 
   8  -1 -12   -0.15    1.18 
  -8   1  12    0.21    0.25 
  -8   1  12    0.43    0.19 
   8   0 -12    1.01    0.18 
   8   1 -12    0.09    0.26 
   8   1 -12    0.24    0.19 
  -8  -1  12    0.53    0.23 
   8   2 -12    0.19    0.20 
   8   2 -12    0.07    0.22 
  -8  -2  12    0.01    0.15 
  -8  -2  12   -0.12    0.27 
  -8  -2  12   -0.27    0.24 
   8   3 -12    0.33    0.27 
   8   3 -12    0.08    0.20 
   8   3 -12    0.07    0.25 
  -8  -3  12    0.05    0.22 
   7  -4 -12    0.48    0.22 
   7  -4 -12   -0.41    0.28 
  -7   4  12    0.26    0.27 
  -7   4  12   -0.20    0.25 
   7  -3 -12    0.11    0.26 
   7  -3 -12    0.03    0.19 
  -7   3  12   -0.22    0.24 
  -7   3  12    0.24    0.25 
   7  -2 -12    0.21    0.20 
   7  -2 -12   -0.18    0.17 
  -7   2  12   -0.13    0.23 
   7  -1 -12    0.19    0.16 
   7  -1 -12    0.65    1.21 
  -7   1  12    0.11    0.17 
  -7   1  12    0.18    0.22 
   7   0 -12    0.75    0.19 
   7   0 -12    0.41    0.14 
  -7   0  12    0.29    0.22 
  -7   0  12    0.66    0.22 
  -7   0  12    0.93    1.03 
   7   1 -12   -0.21    0.19 
   7   1 -12    0.02    0.17 
  -7  -1  12    0.26    0.18 
  -7  -1  12   -0.14    0.22 
  -7  -1  12    0.31    0.21 
   7   2 -12   -0.05    0.22 
   7   2 -12    0.46    0.23 
  -7  -2  12    0.11    0.19 
  -7  -2  12    0.31    0.22 
  -7  -2  12    0.09    0.24 
   7   3 -12    0.40    0.21 
   7   3 -12   -0.12    0.24 
  -7  -3  12   -0.04    0.20 
  -7  -3  12   -0.05    0.25 
  -7  -3  12   -0.36    0.27 
  -7  -4  12   -0.01    1.39 
   6  -4 -12    0.25    0.28 
  -6   4  12    0.27    0.28 
  -6   4  12    0.12    0.24 
   6  -3 -12    0.91    0.46 
  -6   3  12    0.11    0.23 
  -6   3  12   -0.05    0.24 
   6  -2 -12    0.67    0.22 
  -6   2  12    0.71    0.21 
   6  -1 -12    0.05    0.14 
   6  -1 -12    0.82    1.16 
  -6   1  12    0.45    0.16 
  -6   1  12    0.00    0.21 
  -6   1  12    0.25    0.20 
   6   0 -12    0.38    0.18 
   6   0 -12    0.18    0.15 
  -6   0  12    0.08    0.20 
   6   1 -12    0.39    0.15 
  -6  -1  12    0.29    0.21 
  -6  -1  12    0.26    0.17 
  -6  -1  12    0.02    0.20 
   6   2 -12    0.47    0.16 
   6   2 -12    0.68    0.19 
  -6  -2  12    0.19    0.17 
  -6  -2  12    0.30    0.21 
  -6  -2  12    0.23    0.20 
   6   3 -12    0.59    0.26 
   6   3 -12    0.17    0.22 
  -6  -3  12    0.05    0.25 
  -6  -3  12   -0.03    0.14 
   6   4 -12    0.15    0.26 
  -6  -4  12   -0.04    0.19 
   5  -4 -12    0.36    0.27 
  -5   4  12    0.08    0.24 
  -5   4  12    0.32    0.27 
   5  -3 -12    0.02    0.21 
  -5   3  12    0.18    0.23 
  -5   3  12    0.28    0.22 
   5  -2 -12    0.39    0.21 
  -5   2  12    0.68    0.21 
  -5   2  12    0.80    0.22 
   5  -1 -12    0.41    0.15 
  -5   1  12    0.39    0.15 
   5   0 -12    1.03    0.20 
  -5   0  12    1.39    0.25 
  -5   0  12    1.11    0.22 
  -5  -1  12    1.22    0.23 
  -5  -1  12    1.00    0.22 
   5   2 -12    1.38    0.27 
   5   2 -12    1.79    0.33 
  -5  -2  12    1.25    0.17 
  -5  -2  12    1.04    0.24 
   5   3 -12    0.23    0.24 
  -5  -3  12    0.05    0.20 
  -5  -3  12    0.33    0.20 
  -5  -3  12   -0.09    0.18 
   5   4 -12   -0.24    0.24 
   5   4 -12    0.04    0.27 
  -5  -4  12   -0.27    0.25 
  -5  -4  12    0.18    0.18 
  -5  -5  12   -0.01    0.22 
   4  -4 -12    0.44    0.26 
  -4   4  12   -0.08    0.24 
  -4   4  12   -0.11    0.25 
   4  -3 -12    0.54    0.27 
  -4   3  12    0.67    0.25 
  -4   3  12    0.49    0.21 
   4  -2 -12    1.17    0.45 
  -4   2  12    0.94    0.16 
  -4   2  12    0.96    0.23 
   4  -1 -12    1.30    0.24 
   4  -1 -12    2.26    0.87 
  -4   1  12    1.09    0.22 
   4   0 -12   -0.03    0.16 
  -4   0  12    0.02    0.11 
  -4   0  12    0.09    0.17 
  -4   0  12    0.22    0.17 
  -4   0  12    0.07    0.16 
   4   1 -12    0.12    0.17 
  -4  -1  12    0.30    0.18 
   4   2 -12    1.38    0.30 
  -4  -2  12    0.87    0.12 
  -4  -2  12    0.90    0.22 
   4   3 -12    0.68    0.21 
  -4  -3  12    0.27    0.17 
  -4  -3  12    0.38    0.20 
   4   4 -12    0.46    0.26 
   4   4 -12    0.77    0.24 
  -4  -4  12    0.48    0.23 
   4   5 -12    0.28    0.28 
   4   5 -12   -0.23    0.29 
  -4  -5  12    0.02    0.19 
  -4  -5  12    0.34    0.25 
   3  -5 -12    2.00    0.40 
   3  -4 -12   -0.28    0.21 
   3  -4 -12   -0.09    0.23 
  -3   4  12   -0.15    0.22 
  -3   4  12    0.30    0.27 
  -3   3  12    0.74    0.25 
  -3   3  12    0.33    0.21 
   3  -2 -12    0.99    0.34 
  -3   2  12    0.44    0.20 
  -3   2  12    0.19    0.16 
   3   0 -12    5.32    0.62 
  -3   0  12    3.94    0.37 
  -3   0  12    5.00    0.72 
  -3   0  12    5.20    0.81 
   3   1 -12    0.00    0.17 
   3   1 -12   -0.11    0.19 
  -3  -1  12   -0.06    0.18 
  -3  -1  12    0.21    0.18 
  -3  -1  12    0.32    0.15 
   3   2 -12    0.95    0.21 
   3   2 -12    1.14    0.25 
  -3  -2  12    1.03    0.63 
  -3  -3  12    0.56    0.22 
  -3  -3  12    0.20    0.19 
  -3  -3  12    0.53    0.13 
   3   4 -12    0.58    0.26 
   3   4 -12    0.36    0.26 
  -3  -4  12   -0.05    0.25 
  -3  -4  12    0.22    0.18 
   3   5 -12    0.39    0.26 
  -3  -5  12    0.14    0.25 
  -3  -5  12   -0.03    0.19 
   2  -5 -12    0.54    0.28 
   2  -4 -12    0.60    0.21 
  -2   3  12    0.12    0.22 
  -2   3  12    0.10    0.21 
   2  -2 -12   -0.19    0.16 
   2  -2 -12    0.09    0.18 
  -2   2  12    0.06    0.19 
  -2   2  12    0.03    0.21 
  -2   2  12    0.17    0.14 
   2  -1 -12    2.90    0.43 
   2  -1 -12    2.08    0.29 
  -2   1  12    1.49    0.48 
  -2   1  12    2.17    0.26 
   2   0 -12    1.04    0.21 
   2   0 -12    1.37    0.73 
  -2   0  12    0.90    0.21 
  -2  -1  12    1.55    0.21 
  -2  -1  12    1.57    0.30 
  -2  -1  12    1.24    0.23 
   2   2 -12    0.50    0.17 
   2   2 -12    0.00    0.23 
  -2  -2  12    0.33    0.15 
  -2  -2  12    0.52    0.20 
  -2  -2  12    0.41    0.20 
   2   3 -12    0.32    0.24 
   2   3 -12    0.24    0.18 
   2   3 -12    0.46    0.21 
  -2  -3  12   -0.15    0.21 
  -2  -3  12    0.58    0.18 
   2   4 -12    0.53    0.23 
   2   4 -12    0.24    0.19 
  -2  -4  12    0.00    0.23 
  -2  -4  12    0.18    0.19 
   2   5 -12    0.34    0.26 
   2   5 -12    0.17    0.21 
  -2  -5  12   -0.01    0.19 
   1  -4 -12    0.71    0.27 
   1  -4 -12    0.06    0.22 
  -1   4  12    0.22    0.25 
   1  -3 -12    0.35    0.24 
   1  -3 -12   -0.03    0.20 
  -1   3  12    0.52    0.23 
  -1   3  12    0.23    0.26 
   1  -2 -12    0.23    0.22 
   1  -2 -12    0.29    0.19 
   1  -2 -12    0.03    0.17 
  -1   2  12    0.25    0.21 
  -1   2  12    0.15    0.21 
  -1   2  12    0.17    0.16 
   1  -1 -12    0.24    0.17 
  -1   1  12    0.11    0.21 
  -1   1  12    0.51    0.20 
  -1   1  12    0.40    0.16 
   1   0 -12    3.29    0.47 
   1   0 -12    4.63    1.07 
   1   0 -12    2.99    0.50 
  -1   0  12    3.60    0.37 
  -1   0  12    3.62    0.62 
  -1   0  12    3.14    0.42 
   1   1 -12    0.21    0.16 
   1   1 -12    0.40    0.19 
  -1  -1  12    0.02    0.19 
  -1  -1  12    0.39    0.19 
  -1  -1  12    0.68    0.15 
   1   2 -12    0.68    0.17 
   1   2 -12    0.63    0.23 
  -1  -2  12    0.76    0.16 
  -1  -2  12    0.39    0.20 
   1   3 -12   -0.07    0.24 
   1   3 -12    0.52    0.19 
  -1  -3  12    0.21    0.22 
  -1  -3  12    0.27    0.17 
   1   4 -12   -0.20    0.27 
   1   4 -12    0.20    0.20 
  -1  -4  12    0.03    0.19 
  -1  -4  12   -0.07    0.24 
   0  -4 -12    0.41    0.29 
   0  -4 -12   -0.15    0.26 
   0  -3 -12    0.60    0.23 
   0  -2 -12    0.05    0.21 
   0  -2 -12    0.15    0.16 
   0   2  12    0.74    0.24 
   0   2  12    0.34    0.22 
   0  -1 -12   -0.01    0.16 
   0  -1 -12    0.19    0.19 
   0   1  12    0.58    0.19 
   0   1  12    0.42    0.22 
   0   0 -12    0.23    0.17 
   0   0 -12    0.29    0.24 
   0   0  12    0.30    0.20 
   0   0  12    0.11    0.25 
   0   0  12    0.00    0.17 
   0   1 -12    0.18    0.20 
   0   1 -12    0.30    0.18 
   0  -1  12    0.14    0.22 
   0  -1  12    0.19    0.21 
   0   2 -12    0.63    0.22 
   0  -2  12    0.73    0.22 
   0  -2  12    0.33    0.23 
   0  -2  12    0.65    0.19 
   0   3 -12    0.21    0.20 
   0   3 -12    0.22    0.25 
   0  -3  12    0.07    0.23 
   0   4 -12    0.11    0.22 
   0   4 -12    0.42    0.28 
   0  -4  12    0.04    0.20 
   0  -4  12   -0.09    0.28 
  -1  -3 -12   -0.21    0.30 
   1   3  12    0.32    0.23 
  -1  -2 -12    0.02    0.17 
  -1  -2 -12    0.21    0.23 
   1   2  12    0.52    0.25 
   1   2  12    0.09    0.25 
  -1  -1 -12    0.01    0.17 
   1   1  12    0.21    0.24 
   1   1  12    0.36    0.22 
  -1   0 -12   -0.13    0.22 
  -1   0 -12    0.01    0.17 
   1   0  12    0.37    0.25 
   1   0  12    0.11    0.23 
  -1   1 -12   -0.05    0.17 
  -1   1 -12   -0.25    0.24 
   1  -1  12    0.17    0.25 
   1  -1  12    0.44    0.25 
  -1   2 -12   -0.21    0.24 
  -1   2 -12    0.06    0.19 
   1  -2  12    0.41    0.23 
   1  -2  12    0.09    0.25 
  -1   3 -12    0.21    0.20 
   1  -3  12    0.04    0.26 
   1  -3  12   -0.03    0.20 
   1  -3  12    0.02    0.27 
  -2  -2 -12   -0.02    0.21 
   2   2  12   -0.01    0.27 
  -2  -1 -12   -0.02    0.18 
  -2  -1 -12    0.00    0.26 
   2   1  12    0.12    0.30 
  -2   0 -12    0.04    0.19 
   2   0  12   -0.06    0.30 
   2   0  12    0.80    0.28 
  -2   1 -12   -0.32    0.27 
  -2   1 -12    0.02    0.19 
   2  -1  12    0.10    0.27 
   8  -2 -13   -0.02    0.19 
   8  -1 -13   -0.13    0.20 
   8  -1 -13   -0.28    0.26 
  -8   1  13    0.07    0.21 
  -8   1  13   -0.06    0.28 
   8   0 -13   -0.03    0.23 
   8   0 -13    0.05    0.19 
  -8   0  13    0.47    1.14 
  -8   0  13   -0.01    0.29 
   8   1 -13    0.16    0.24 
   8   1 -13    0.12    0.24 
  -8  -1  13   -0.03    0.29 
  -8  -1  13   -0.11    1.21 
   8   2 -13    0.31    0.27 
  -8  -2  13    0.23    0.31 
  -8  -2  13    0.67    0.32 
  -7   3  13    0.06    0.31 
  -7   3  13   -0.40    0.29 
   7  -2 -13    0.54    0.26 
  -7   2  13   -0.10    0.27 
   7  -1 -13   -0.19    0.24 
  -7   1  13   -0.14    0.29 
  -7   1  13   -0.01    0.19 
   7   0 -13   -0.10    0.17 
   7   0 -13   -0.01    0.23 
   7   0 -13    0.18    0.18 
  -7   0  13   -0.02    0.19 
  -7   0  13   -0.08    0.26 
   7   1 -13    0.00    0.22 
   7   1 -13    0.22    0.22 
   7   1 -13    0.08    0.17 
  -7  -1  13    0.02    0.20 
  -7  -1  13    0.07    0.27 
   7   2 -13    0.19    0.22 
   7   2 -13   -0.25    0.23 
   7   2 -13   -0.18    0.21 
  -7  -2  13    0.26    0.27 
  -7  -2  13   -0.09    0.27 
  -7  -2  13    0.06    0.20 
   7   3 -13    0.07    0.24 
  -7  -3  13   -0.22    0.32 
   6  -3 -13    0.46    0.26 
  -6   3  13    0.05    0.27 
  -6   3  13    0.19    0.30 
   6  -2 -13    0.06    0.25 
  -6   2  13    0.15    0.25 
   6  -1 -13    0.66    0.21 
  -6   1  13    0.77    0.19 
   6   0 -13    0.72    0.23 
  -6   0  13    0.07    0.24 
  -6   0  13    0.28    0.18 
   6   1 -13    0.36    0.19 
   6   1 -13    0.04    0.21 
  -6  -1  13    0.42    0.22 
  -6  -1  13    0.35    0.19 
  -6  -1  13    0.32    0.23 
   6   2 -13    0.26    0.24 
   6   2 -13    0.31    0.21 
  -6  -2  13   -0.32    0.26 
  -6  -2  13   -0.03    0.20 
  -6  -2  13    0.08    0.24 
   6   3 -13    0.40    0.24 
   6   3 -13    0.59    0.28 
  -6  -3  13    0.70    0.28 
  -6  -3  13    0.18    0.22 
  -6  -3  13   -0.03    0.26 
  -5   4  13    0.14    0.33 
  -5   4  13    0.28    0.27 
   5  -3 -13    0.04    0.25 
  -5   3  13   -0.03    0.29 
  -5   3  13    0.33    0.24 
   5  -2 -13    0.39    0.22 
  -5   2  13    0.74    0.24 
  -5   2  13    0.18    0.23 
   5  -1 -13    0.55    1.06 
   5  -1 -13    0.08    0.18 
  -5   1  13    0.16    0.25 
  -5   1  13    0.04    0.17 
  -5   1  13   -0.17    0.22 
   5   0 -13    0.77    0.22 
  -5   0  13    0.35    0.18 
  -5   0  13    0.49    0.22 
   5   1 -13    0.08    0.22 
   5   1 -13    0.41    0.19 
  -5  -1  13    0.23    0.22 
  -5  -1  13    0.19    0.19 
   5   2 -13    0.47    0.24 
  -5  -2  13    0.12    0.23 
  -5  -2  13    0.28    0.20 
  -5  -2  13    0.51    0.25 
   5   3 -13    0.25    0.24 
   5   3 -13   -0.18    0.25 
  -5  -3  13   -0.27    0.24 
  -5  -3  13    0.03    0.21 
  -5  -3  13    0.09    0.27 
  -4   4  13    0.14    0.28 
  -4   4  13    0.60    0.28 
   4  -3 -13    0.25    0.27 
  -4   3  13   -0.10    0.26 
  -4   3  13   -0.07    0.24 
  -4   2  13    0.13    0.22 
  -4   2  13    0.14    0.23 
   4  -1 -13    2.20    0.84 
   4  -1 -13    0.73    0.18 
  -4   1  13    0.42    0.22 
  -4   1  13    0.94    0.22 
   4   0 -13    0.41    0.20 
   4   0 -13    0.10    0.19 
  -4   0  13    0.32    0.24 
  -4   0  13    0.26    0.17 
   4   1 -13    0.96    0.20 
  -4  -1  13    0.89    0.25 
  -4  -1  13    1.04    0.21 
   4   2 -13    0.57    0.22 
   4   2 -13    0.79    0.26 
  -4  -2  13    0.62    0.21 
  -4  -2  13    0.32    0.22 
   4   3 -13    0.21    0.26 
  -4  -3  13   -0.18    0.26 
  -4  -3  13   -0.01    0.19 
   4   4 -13   -0.08    0.28 
  -4  -4  13   -0.01    0.23 
  -4  -4  13    0.00    0.26 
   3  -4 -13    0.20    0.25 
   3  -3 -13    0.08    0.20 
  -3   3  13   -0.02    0.25 
  -3   3  13    0.19    0.23 
  -3   2  13    0.34    0.22 
  -3   2  13    0.12    0.18 
  -3   2  13    0.38    0.24 
   3  -1 -13    0.89    0.20 
  -3   1  13    1.48    0.25 
  -3   1  13    1.39    0.18 
   3   0 -13    1.06    1.00 
   3   0 -13   -0.10    0.19 
  -3   0  13   -0.17    0.21 
  -3   0  13    0.25    0.20 
   3   1 -13    0.80    0.21 
  -3  -1  13    1.13    0.18 
  -3  -1  13    0.63    0.22 
   3   2 -13    0.47    0.28 
   3   2 -13   -0.21    0.24 
  -3  -2  13    0.05    0.14 
  -3  -2  13   -0.10    0.22 
   3   3 -13    1.59    0.32 
   3   3 -13    0.96    0.28 
   3   4 -13    0.57    0.28 
  -3  -4  13   -0.10    0.29 
   2  -3 -13    1.79    0.32 
  -2   3  13    1.61    0.30 
  -2   3  13    1.50    0.29 
   2  -2 -13    0.67    0.25 
   2  -2 -13   -0.09    0.22 
   2  -2 -13    0.00    0.19 
  -2   2  13    0.28    0.22 
  -2   2  13    0.39    0.18 
   2  -1 -13    0.33    0.31 
   2  -1 -13    0.01    0.19 
  -2   1  13    0.44    0.26 
  -2   1  13    0.29    0.18 
   2   0 -13    0.17    0.19 
   2   0 -13    1.10    1.37 
  -2   0  13    0.36    0.18 
  -2   0  13    0.25    0.22 
  -2   0  13    0.11    0.22 
   2   1 -13    0.41    0.19 
   2   1 -13    0.37    0.22 
  -2  -1  13    0.24    0.23 
  -2  -1  13    0.30    0.19 
  -2  -1  13    0.26    0.22 
   2   2 -13    0.38    0.23 
   2   2 -13    0.42    0.18 
   2   2 -13    0.31    0.23 
  -2  -2  13    0.21    0.23 
  -2  -2  13    0.28    0.19 
   2   3 -13    0.50    0.20 
   2   3 -13    0.25    0.24 
  -2  -3  13    0.72    0.20 
  -2  -3  13    0.60    0.25 
  -1   3  13   -0.15    0.30 
   1  -2 -13    0.46    0.25 
  -1   2  13    0.54    0.26 
   1  -1 -13    0.35    0.20 
   1  -1 -13   -0.07    0.21 
  -1   1  13    0.23    0.25 
  -1   1  13    0.20    0.18 
  -1   1  13   -0.04    0.25 
   1   0 -13    0.08    0.19 
   1   0 -13    0.00    0.24 
  -1   0  13    0.40    0.27 
  -1   0  13    0.72    0.19 
  -1   0  13    0.35    0.23 
   1   1 -13    0.14    0.23 
   1   1 -13    0.16    0.20 
  -1  -1  13    0.35    0.23 
  -1  -1  13    0.07    0.24 
  -1  -1  13    0.14    0.23 
   1   2 -13    0.36    0.20 
   1   2 -13    0.34    0.23 
  -1  -2  13    0.17    0.26 
  -1  -2  13    0.08    0.20 
  -1  -2  13   -0.06    0.28 
   1   3 -13    0.28    0.25 
   1   3 -13   -0.03    0.21 
  -1  -3  13   -0.09    0.30 
  -1  -3  13    0.00    0.20 
   0  -2 -13    0.00    0.19 
   0   2  13    0.77    0.31 
   0  -1 -13    0.00    0.19 
   0   1  13    0.11    0.26 
   0   0 -13    0.65    0.19 
   0   0 -13    0.52    0.23 
   0   0  13    0.77    0.25 
   0   0  13    0.78    0.26 
   0   1 -13    0.16    0.24 
   0   1 -13    0.45    0.30 
   0  -1  13    0.02    0.27 
   0  -1  13    0.03    0.20 
   0   2 -13    0.70    0.37 
   0   2 -13   -0.22    0.25 
   0  -2  13    0.10    0.23 
  -7   0  14   -0.08    0.22 
   6  -1 -14    0.02    1.62 
   6  -1 -14    0.25    0.23 
  -6   1  14    0.01    0.28 
  -6   1  14    0.64    0.24 
   6   0 -14   -0.16    0.26 
  -6   0  14    0.08    0.21 
  -6   0  14   -0.14    0.27 
   6   1 -14    0.02    0.22 
   6   1 -14    0.42    0.26 
  -6  -1  14    0.09    0.27 
  -6  -1  14    0.29    0.22 
  -6  -2  14   -0.04    0.29 
   5  -2 -14   -0.32    0.23 
  -5   2  14   -0.20    0.31 
   5  -1 -14   -0.08    0.21 
  -5   1  14    0.09    0.27 
  -5   1  14    0.11    0.20 
   5   0 -14    0.29    0.22 
   5   0 -14   -0.32    1.13 
  -5   0  14   -0.07    0.26 
  -5   0  14   -0.09    0.20 
   5   1 -14   -0.35    0.23 
   5   1 -14   -0.26    0.25 
  -5  -1  14   -0.05    0.27 
  -5  -1  14    0.13    0.21 
   5   2 -14   -0.12    0.26 
  -5  -2  14   -0.13    0.30 
  -5  -2  14    0.00    0.24 
   4  -2 -14   -0.18    0.21 
   4  -2 -14    0.27    0.31 
  -4   2  14    0.05    0.28 
   4  -1 -14    0.01    0.21 
   4  -1 -14   -0.04    0.26 
  -4   1  14   -0.12    0.19 
  -4   1  14   -0.11    0.26 
   4   0 -14    0.15    0.21 
   4   0 -14    0.66    0.93 
   4   0 -14    0.43    0.24 
  -4   0  14   -0.06    0.26 
  -4   0  14    0.28    0.20 
   4   1 -14   -0.28    0.27 
  -4  -1  14   -0.01    0.27 
  -4  -1  14   -0.08    0.21 
   4   2 -14    0.40    0.25 
  -4  -2  14   -0.21    0.26 
  -4  -2  14    0.09    0.24 
   3  -2 -14   -0.24    0.22 
   3  -2 -14   -0.12    0.30 
  -3   2  14    0.28    0.28 
  -3   2  14    0.21    0.27 
   3  -1 -14    0.00    0.28 
   3  -1 -14   -0.13    0.24 
   3  -1 -14   -0.01    0.21 
  -3   1  14    0.35    0.20 
  -3   1  14    0.11    0.27 
   3   0 -14    0.15    0.21 
   3   0 -14    1.30    1.46 
  -3   0  14    0.39    0.20 
  -3   0  14    0.11    0.29 
  -3   0  14    0.29    0.26 
   3   1 -14    0.16    0.21 
   3   1 -14    0.69    0.26 
   3   1 -14    0.34    0.24 
  -3  -1  14   -0.09    0.26 
  -3  -1  14    0.21    0.21 
   3   2 -14    0.71    0.33 
   2  -1 -14    0.15    0.22 
   2  -1 -14    0.03    0.29 
  -2   1  14    0.09    0.21 
  -2   1  14    0.03    0.28 
   2   0 -14    0.07    0.22 
   2   0 -14   -0.11    0.28 
  -2   0  14    0.51    0.26 
  -2   0  14    0.20    0.26 
  -2   0  14   -0.02    0.21 
   2   1 -14   -0.05    0.27 
   2   1 -14    0.00    0.22 
  -2  -1  14   -0.04    0.22 
   0   0   0    0.00    0.00 
;
_shelx_hkl_checksum              '46241 &#x00FF;'
loop_
_space_group_symop_operation_xyz
'x, y, z'
'-x, y+1/2, -z'
'-x, -y, -z'
'x, -y-1/2, z'
loop_
_atom_site_label
_atom_site_type_symbol
_atom_site_fract_x
_atom_site_fract_y
_atom_site_fract_z
_atom_site_U_iso_or_equiv
_atom_site_adp_type
_atom_site_occupancy
_atom_site_site_symmetry_order
_atom_site_calc_flag
_atom_site_refinement_flags_posn
_atom_site_refinement_flags_adp
_atom_site_refinement_flags_occupancy
_atom_site_disorder_assembly
_atom_site_disorder_group
C1 C 0.3571(5) 0.2500 0.0590(4) 0.0471(10) Uani 1 2 d S T P . .
C2 C 0.1761(6) 0.2500 0.0322(4) 0.0596(12) Uani 1 2 d S T P . .
C3 C 0.0616(7) 0.2500 -0.1075(5) 0.0698(13) Uani 1 2 d S T P . .
H3 H -0.0559 0.2500 -0.1294 0.084 Uiso 1 2 calc R U P . .
C4 C 0.1213(8) 0.2500 -0.2015(5) 0.0811(15) Uani 1 2 d S T P . .
H4 H 0.0430 0.2500 -0.2887 0.097 Uiso 1 2 calc R U P . .
C5 C 0.4063(6) 0.2500 -0.0527(4) 0.0629(12) Uani 1 2 d S T P . .
C6 C 0.5720(7) 0.2500 -0.0412(6) 0.0698(14) Uani 1 2 d S T P . .
H6 H 0.6002 0.2500 -0.1161 0.084 Uiso 1 2 calc R U P . .
C7 C 0.6965(7) 0.2500 0.0840(6) 0.0753(14) Uani 1 2 d S T P . .
H7 H 0.8107 0.2500 0.0939 0.090 Uiso 1 2 calc R U P . .
C8 C 0.6548(5) 0.2500 0.1959(5) 0.0597(12) Uani 1 2 d S T P . .
H8 H 0.7413 0.2500 0.2799 0.072 Uiso 1 2 calc R U P . .
C9 C 0.4881(5) 0.2500 0.1845(4) 0.0501(10) Uani 1 2 d S T P . .
C10 C 0.4526(6) 0.2500 0.3129(4) 0.0736(15) Uani 1 2 d S T P A .
H10 H 0.5644 0.2500 0.3860 0.088 Uiso 1 2 calc R U P . .
O1 O 0.1173(4) 0.2500 0.1211(3) 0.0869(13) Uani 1 2 d S T P . .
O2 O 0.2900(6) 0.2500 -0.1821(3) 0.0859(13) Uani 1 2 d S T P . .
O3 O 0.3692(7) -0.0418(8) 0.3285(5) 0.0691(16) Uani 0.5 1 d . U P A .
C11 C 0.3561(6) 0.0934(12) 0.3404(4) 0.0987(16) Uani 1 1 d . U . . .
N1 N 0.2572(12) 0.2078(12) 0.4134(9) 0.065(4) Uani 0.5 1 d . U P A 1
C13 C 0.1730(5) 0.0315(8) 0.4617(4) 0.1211(17) Uani 0.5 1 d . U P A 1
C12 C 0.2596(12) 0.1087(13) 0.4093(8) 0.0562(19) Uani 0.5 1 d . U P A 2
O4 O 0.1730(5) 0.0315(8) 0.4617(4) 0.1211(17) Uani 0.5 1 d . U P A 2
loop_
_atom_site_aniso_label
_atom_site_aniso_U_11
_atom_site_aniso_U_22
_atom_site_aniso_U_33
_atom_site_aniso_U_23
_atom_site_aniso_U_13
_atom_site_aniso_U_12
C1 0.054(2) 0.0421(19) 0.045(2) 0.000 0.0178(16) 0.000
C2 0.056(2) 0.075(3) 0.053(2) 0.000 0.0253(19) 0.000
C3 0.069(3) 0.076(3) 0.060(3) 0.000 0.018(2) 0.000
C4 0.083(4) 0.092(4) 0.053(3) 0.000 0.008(3) 0.000
C5 0.079(3) 0.065(3) 0.047(2) 0.000 0.026(2) 0.000
C6 0.090(4) 0.054(3) 0.092(4) 0.000 0.065(3) 0.000
C7 0.065(3) 0.084(3) 0.093(4) 0.000 0.048(3) 0.000
C8 0.054(2) 0.068(3) 0.067(3) 0.000 0.033(2) 0.000
C9 0.0422(19) 0.049(2) 0.057(2) 0.000 0.0165(16) 0.000
C10 0.046(2) 0.130(4) 0.041(2) 0.000 0.0126(17) 0.000
O1 0.0408(17) 0.147(4) 0.074(2) 0.000 0.0232(16) 0.000
O2 0.120(3) 0.095(3) 0.0442(18) 0.000 0.033(2) 0.000
O3 0.088(4) 0.069(3) 0.069(3) -0.016(2) 0.051(3) -0.017(3)
C11 0.068(2) 0.164(5) 0.063(2) 0.019(3) 0.0225(19) -0.004(3)
N1 0.077(3) 0.068(10) 0.053(3) -0.008(4) 0.029(2) 0.008(4)
C13 0.099(3) 0.184(4) 0.098(3) 0.038(2) 0.057(2) -0.025(2)
C12 0.065(3) 0.070(5) 0.038(3) -0.009(4) 0.024(2) 0.004(4)
O4 0.099(3) 0.184(4) 0.098(3) 0.038(2) 0.057(2) -0.025(2)
loop_
_atom_type_symbol
_atom_type_description
_atom_type_scat_dispersion_real
_atom_type_scat_dispersion_imag
_atom_type_scat_source
C C 0.0033 0.0016 'International Tables Vol C Tables 4.2.6.8 and 6.1.1.4'
H H 0.0000 0.0000 'International Tables Vol C Tables 4.2.6.8 and 6.1.1.4'
N N 0.0061 0.0033 'International Tables Vol C Tables 4.2.6.8 and 6.1.1.4'
O O 0.0106 0.0060 'International Tables Vol C Tables 4.2.6.8 and 6.1.1.4'
loop_
_geom_angle_atom_site_label_1
_geom_angle_atom_site_label_2
_geom_angle_atom_site_label_3
_geom_angle
_geom_angle_site_symmetry_1
_geom_angle_site_symmetry_3
C9 C1 C5 117.0(4) . .
C9 C1 C2 126.0(4) . .
C5 C1 C2 117.0(4) . .
O1 C2 C1 123.1(4) . .
O1 C2 C3 120.3(4) . .
C1 C2 C3 116.6(4) . .
C4 C3 C2 121.0(5) . .
C4 C3 H3 119.5 . .
C2 C3 H3 119.5 . .
C3 C4 O2 124.9(5) . .
C3 C4 H4 117.5 . .
O2 C4 H4 117.5 . .
C6 C5 O2 114.2(4) . .
C6 C5 C1 122.9(4) . .
O2 C5 C1 123.0(4) . .
C5 C6 C7 118.2(4) . .
C5 C6 H6 120.9 . .
C7 C6 H6 120.9 . .
C6 C7 C8 121.0(4) . .
C6 C7 H7 119.5 . .
C8 C7 H7 119.5 . .
C9 C8 C7 120.9(5) . .
C9 C8 H8 119.6 . .
C7 C8 H8 119.6 . .
C8 C9 C1 120.1(4) . .
C8 C9 C10 117.7(4) . .
C1 C9 C10 122.2(3) . .
C11 C10 C11 96.1(6) . 4_565
C11 C10 C9 120.4(3) . .
C11 C10 C9 120.4(3) 4_565 .
C11 C10 H10 106.2 . .
C11 C10 H10 106.2 4_565 .
C9 C10 H10 106.2 . .
C4 O2 C5 117.5(4) . .
O3 C11 C12 106.7(7) . .
O3 C11 C10 126.6(6) . .
C12 C11 C10 125.5(7) . .
O3 C11 N1 132.3(7) . .
C10 C11 N1 100.4(6) . .
O3 C11 N1 147.4(6) . 4_565
C10 C11 N1 85.5(5) . 4_565
N1 C11 N1 15.1(5) . 4_565
N1 N1 C11 120.2(4) 4_565 .
N1 N1 C13 139.7(4) 4_565 .
C11 N1 C13 100.0(6) . .
N1 N1 C11 44.6(3) 4_565 4_565
C11 N1 C11 75.6(6) . 4_565
C13 N1 C11 174.6(6) . 4_565
C11 C12 C12 94.6(5) . 4_565
loop_
_geom_bond_atom_site_label_1
_geom_bond_atom_site_label_2
_geom_bond_distance
_geom_bond_site_symmetry_2
C1 C9 1.397(5) .
C1 C5 1.422(6) .
C1 C2 1.445(6) .
C2 O1 1.241(5) .
C2 C3 1.462(6) .
C3 C4 1.298(8) .
C3 H3 0.9300 .
C4 O2 1.360(8) .
C4 H4 0.9300 .
C5 C6 1.358(7) .
C5 O2 1.380(5) .
C6 C7 1.372(7) .
C6 H6 0.9300 .
C7 C8 1.388(6) .
C7 H7 0.9300 .
C8 C9 1.367(5) .
C8 H8 0.9300 .
C9 C10 1.532(6) .
C10 C11 1.449(7) .
C10 C11 1.449(7) 4_565
C10 H10 0.9800 .
O3 C11 0.952(6) .
C11 C12 1.301(10) .
C11 N1 1.563(11) .
C11 N1 1.923(12) 4_565
N1 N1 0.581(17) 4_565
N1 C13 1.591(10) .
N1 C11 1.923(12) 4_565
C12 C12 1.945(18) 4_565
