#------------------------------------------------------------------------------
#$Date: 2020-02-14 02:29:05 +0200 (Fri, 14 Feb 2020) $
#$Revision: 248140 $
#$URL: file:///home/coder/svn-repositories/cod/cif/4/03/79/4037922.cif $
#------------------------------------------------------------------------------
#
# This file is available in the Crystallography Open Database (COD),
# http://www.crystallography.net/
#
# All data on this site have been placed in the public domain by the
# contributors.
#
data_4037922
loop_
_publ_author_name
'Nikahd, Maryam'
'Mikusek, Jiri'
'Yu, Li-Juan'
'Coote, Michelle L.'
'Banwell, Martin G.'
'Ma, Chenxi'
'Gardiner, Michael G.'
_publ_section_title
;
 Exploiting Chitin as a Source of Biologically Fixed Nitrogen: Formation
 and Full Characterization of Small-Molecule Hetero- and Carbocyclic
 Pyrolysis Products.
;
_journal_name_full               'The Journal of organic chemistry'
_journal_paper_doi               10.1021/acs.joc.9b03438
_journal_year                    2020
_chemical_formula_moiety         'C7 H7 N O3'
_chemical_formula_sum            'C7 H7 N O3'
_chemical_formula_weight         153.14
_space_group_crystal_system      triclinic
_space_group_IT_number           2
_space_group_name_Hall           '-P 1'
_space_group_name_H-M_alt        'P -1'
_atom_sites_solution_hydrogens   geom
_atom_sites_solution_primary     dual
_audit_creation_date             2019-05-28
_audit_creation_method
;
Olex2 1.2
(compiled 2018.05.29 svn.r3508 for OlexSys, GUI svn.r5506)
;
_cell_angle_alpha                63.995(8)
_cell_angle_beta                 84.352(7)
_cell_angle_gamma                80.203(7)
_cell_formula_units_Z            2
_cell_length_a                   3.7878(3)
_cell_length_b                   9.6277(8)
_cell_length_c                   10.3407(8)
_cell_measurement_reflns_used    1162
_cell_measurement_temperature    150.00(10)
_cell_measurement_theta_max      73.2850
_cell_measurement_theta_min      5.1470
_cell_volume                     333.86(5)
_computing_cell_refinement       'CrysAlisPro 1.171.40.36a (Rigaku OD, 2018)'
_computing_data_collection       'CrysAlisPro 1.171.40.36a (Rigaku OD, 2018)'
_computing_data_reduction        'CrysAlisPro 1.171.40.36a (Rigaku OD, 2018)'
_computing_molecular_graphics    'Olex2 (Dolomanov et al., 2009)'
_computing_publication_material  'Olex2 (Dolomanov et al., 2009)'
_computing_structure_refinement  'ShelXL (Sheldrick, 2015)'
_computing_structure_solution    'ShelXT (Sheldrick, 2015)'
_diffrn_ambient_environment      N~2~
_diffrn_ambient_temperature      150.00(10)
_diffrn_detector                 'CCD plate'
_diffrn_detector_area_resol_mean 8.1297
_diffrn_detector_type            EosS2
_diffrn_measured_fraction_theta_full 0.996
_diffrn_measured_fraction_theta_max 0.992
_diffrn_measurement_details
;
List of Runs (angles in degrees, time in seconds):

  # Type    Start    End  Width  t~exp~   \w     \q     \k     \f   Frames
--------------------------------------------------------------------------
  1  \w    -43.00  -6.00   1.00    1.04    --  -37.23  38.00 -90.00   37
  2  \w     -2.00  29.00   1.00    1.04    --  -37.23  38.00 -90.00   31
  3  \w     18.00  74.00   1.00    1.04    --   37.23  38.00  60.00   56
  4  \w     50.00  89.00   1.00    1.04    --   37.23-125.00 -30.00   39
  5  \w    -30.00  52.00   1.00    1.04    --   37.23 -57.00 -90.00   82
  6  \w     27.00 105.00   1.00    1.04    --   37.23  38.00  90.00   78
  7  \w     36.00  87.00   1.00    1.04    --   37.23-125.00-180.00   51
  8  \w     53.00  78.00   1.00    1.04    --   37.23-125.00 150.00   25
  9  \w     17.00  47.00   1.00    1.04    --   37.23 -38.00 120.00   30
 10  \w    -31.00  16.00   1.00    1.04    --   37.23 -38.00 120.00   47
 11  \w     44.00 102.00   1.00    4.15    --  111.00 -50.00 -60.00   58
 12  \w     94.00 133.00   1.00    4.15    --  111.00  50.00 -90.00   39
 13  \w     44.00  94.00   1.00    4.15    --  111.00 -64.00  30.00   50
 14  \w     69.00  97.00   1.00    4.15    --  111.00 -92.00   0.00   28
 15  \w     89.00 132.00   1.00    4.15    --  111.00 178.00 -60.00   43
 16  \w     45.00  89.00   1.00    4.15    --  111.00 -77.00 -60.00   44
 17  \w     68.00 109.00   1.00    4.15    --  111.00-111.00-180.00   41
 18  \w     47.00  96.00   1.00    4.15    --  111.00-111.00 -60.00   49
 19  \w     87.00 124.00   1.00    4.15    --  111.00  25.00  30.00   37
 20  \w    114.00 151.00   1.00    4.15    --  111.00 -12.00  90.00   37
 21  \w     46.00 106.00   1.00    4.15    --  111.00 -12.00  90.00   60
 22  \w     42.00  93.00   1.00    4.15    --  111.00 -25.00 -30.00   51
 23  \w     75.00 109.00   1.00    4.15    --  111.00-111.00  90.00   34
 24  \w     82.00 114.00   1.00    4.15    --  111.00 -38.00  60.00   32
 25  \w     84.00 109.00   1.00    4.15    --  111.00-111.00-120.00   25
 26  \w    105.00 167.00   1.00    4.15    --  111.00 111.00  90.00   62
 27  \w     82.00 108.00   1.00    4.15    --  111.00-111.00  30.00   26
 28  \w     96.00 129.00   1.00    4.15    --  111.00 -64.00  30.00   33
 29  \w     43.00  77.00   1.00    4.15    --  111.00 -38.00  60.00   34
 30  \w     80.00 105.00   1.00    4.15    --  111.00 178.00  30.00   25
 31  \w    108.00 160.00   1.00    4.15    --  111.00 111.00   0.00   52
 32  \w     86.00 113.00   1.00    4.15    --  111.00 178.00-180.00   27
 33  \w     86.00 178.00   1.00    4.15    --  111.00  25.00 120.00   92
;
_diffrn_measurement_device       'four-circle diffractometer'
_diffrn_measurement_device_type  'SuperNova, Dual, Cu at home/near, EosS2'
_diffrn_measurement_method       '\w scans'
_diffrn_orient_matrix_type
'CrysAlisPro convention (1999,Acta A55,543-557)'
_diffrn_orient_matrix_UB_11      -0.2203111000
_diffrn_orient_matrix_UB_12      0.1062657000
_diffrn_orient_matrix_UB_13      0.0638946000
_diffrn_orient_matrix_UB_21      -0.1783459000
_diffrn_orient_matrix_UB_22      -0.1394901000
_diffrn_orient_matrix_UB_23      0.1101640000
_diffrn_orient_matrix_UB_31      0.3002133000
_diffrn_orient_matrix_UB_32      -0.0400100000
_diffrn_orient_matrix_UB_33      0.1062023000
_diffrn_radiation_monochromator  mirror
_diffrn_radiation_probe          x-ray
_diffrn_radiation_type           CuK\a
_diffrn_radiation_wavelength     1.54184
_diffrn_reflns_av_R_equivalents  0.0154
_diffrn_reflns_av_unetI/netI     0.0257
_diffrn_reflns_Laue_measured_fraction_full 0.996
_diffrn_reflns_Laue_measured_fraction_max 0.992
_diffrn_reflns_limit_h_max       4
_diffrn_reflns_limit_h_min       -4
_diffrn_reflns_limit_k_max       11
_diffrn_reflns_limit_k_min       -11
_diffrn_reflns_limit_l_max       12
_diffrn_reflns_limit_l_min       -11
_diffrn_reflns_number            2350
_diffrn_reflns_point_group_measured_fraction_full 0.996
_diffrn_reflns_point_group_measured_fraction_max 0.992
_diffrn_reflns_theta_full        67.684
_diffrn_reflns_theta_max         73.496
_diffrn_reflns_theta_min         4.760
_diffrn_source                   'micro-focus sealed X-ray tube'
_diffrn_source_type              'SuperNova (Cu) X-ray Source'
_exptl_absorpt_coefficient_mu    1.030
_exptl_absorpt_correction_T_max  1.00000
_exptl_absorpt_correction_T_min  0.95400
_exptl_absorpt_correction_type   multi-scan
_exptl_absorpt_process_details
;
CrysAlisPro 1.171.40.36a (Rigaku Oxford Diffraction, 2018)
Empirical absorption correction using spherical harmonics,
 implemented in SCALE3 ABSPACK scaling algorithm.
;
_exptl_crystal_colour            colourless
_exptl_crystal_colour_primary    colourless
_exptl_crystal_density_diffrn    1.523
_exptl_crystal_description       prism
_exptl_crystal_F_000             160
_exptl_crystal_size_max          0.154
_exptl_crystal_size_mid          0.096
_exptl_crystal_size_min          0.031
_refine_diff_density_max         0.242
_refine_diff_density_min         -0.217
_refine_diff_density_rms         0.042
_refine_ls_extinction_method     none
_refine_ls_goodness_of_fit_ref   1.051
_refine_ls_hydrogen_treatment    constr
_refine_ls_matrix_type           full
_refine_ls_number_parameters     101
_refine_ls_number_reflns         1337
_refine_ls_number_restraints     0
_refine_ls_restrained_S_all      1.051
_refine_ls_R_factor_all          0.0407
_refine_ls_R_factor_gt           0.0362
_refine_ls_shift/su_max          0.000
_refine_ls_shift/su_mean         0.000
_refine_ls_structure_factor_coef Fsqd
_refine_ls_weighting_details
'w=1/[\s^2^(Fo^2^)+(0.0534P)^2^+0.0588P] where P=(Fo^2^+2Fc^2^)/3'
_refine_ls_weighting_scheme      calc
_refine_ls_wR_factor_gt          0.0947
_refine_ls_wR_factor_ref         0.0985
_reflns_Friedel_coverage         0.000
_reflns_number_gt                1192
_reflns_number_total             1337
_reflns_threshold_expression     'I > 2\s(I)'
_cod_data_source_file            jo9b03438_si_002.cif
_cod_data_source_block           mn-27g1scaled
_cod_database_code               4037922
_shelx_shelxl_version_number     2016/6
_chemical_oxdiff_formula         c7h7n1o3
_shelx_space_group_comment
;
The symmetry employed for this shelxl refinement is uniquely defined
by the following loop, which should always be used as a source of
symmetry information in preference to the above space-group names.
They are only intended as comments.
;
_reflns_odcompleteness_completeness 98.17
_reflns_odcompleteness_iscentric 1
_reflns_odcompleteness_theta     74.33
_olex2_refinement_description
;
1. Fixed Uiso
 At 1.2 times of:
  All C(H) groups, All C(H,H,H,H,H,H) groups, All N(H) groups
2. Others
 Sof(H4D)=Sof(H4E)=Sof(H4F)=1-FVAR(1)
 Sof(H4A)=Sof(H4B)=Sof(H4C)=FVAR(1)
3.a Aromatic/amide H refined with riding coordinates:
 N1(H1), C5(H5), C6(H6), C7(H7)
3.b Disordered Me refined with riding coordinates:
 C4(H4A,H4B,H4C,H4D,H4E,H4F)
;
_shelx_res_file
;
TITL mn-27g1scaled_a.res in P-1
    mn-27g1scaled.res
    created by SHELXL-2016/6 at 13:14:57 on 28-May-2019
REM Old TITL MN-27g1scaled in P-1
REM SHELXT solution in P-1
REM R1 0.110, Rweak 0.004, Alpha 0.034, Orientation as input
REM Formula found by SHELXT: C7 N O3
CELL 1.54184 3.7878 9.6277 10.3407 63.995 84.352 80.203
ZERR 2 0.0003 0.0008 0.0008 0.008 0.007 0.007
LATT 1
SFAC C H N O
UNIT 14 14 2 6

L.S. 4
PLAN  20
BOND $H
list 4
fmap 2
ACTA
OMIT -1 0 1
OMIT 0 1 3
OMIT 1 0 2
OMIT -1 1 0
REM <olex2.extras>
REM <HklSrc "%.\\MN-27g1scaled.hkl">
REM </olex2.extras>

WGHT    0.053400    0.058800
FVAR       0.96861   0.34938
O1    4    0.463205    0.825332    0.564393    11.00000    0.03431    0.02316 =
         0.02463   -0.00944    0.00574   -0.00386
O2    4    0.808045    0.663333    0.490929    11.00000    0.03783    0.02899 =
         0.02296   -0.00981    0.01057   -0.00331
O3    4    0.414073    0.248338    0.939521    11.00000    0.04343    0.02737 =
         0.02564   -0.00878    0.01305   -0.00798
N1    3    0.663951    0.403289    0.726313    11.00000    0.02632    0.02494 =
         0.01850   -0.00923    0.00555   -0.00372
AFIX  43
H1    2    0.808162    0.402140    0.657033    11.00000   -1.20000
AFIX   0
C1    1    0.609631    0.677715    0.585118    11.00000    0.02450    0.02459 =
         0.02166   -0.01014    0.00179   -0.00360
C2    1    0.515907    0.549266    0.719162    11.00000    0.02197    0.02441 =
         0.01955   -0.00896    0.00053   -0.00455
C3    1    0.601453    0.261505    0.833248    11.00000    0.02512    0.02622 =
         0.02097   -0.00916    0.00147   -0.00512
C4    1    0.778751    0.122494    0.807707    11.00000    0.03117    0.02430 =
         0.02754   -0.00961    0.00480   -0.00363
AFIX 123
H4A   2    0.913756    0.157809    0.718349    21.00000   -1.20000
H4B   2    0.936546    0.055775    0.884980    21.00000   -1.20000
H4C   2    0.598646    0.065541    0.803559    21.00000   -1.20000
H4D   2    0.718876    0.028274    0.886243   -21.00000   -1.20000
H4E   2    0.696086    0.130308    0.719612   -21.00000   -1.20000
H4F   2    1.033986    0.120543    0.801033   -21.00000   -1.20000
AFIX   0
C5    1    0.305319    0.580241    0.820624    11.00000    0.02548    0.02794 =
         0.02106   -0.01004    0.00428   -0.00593
AFIX  43
H5    2    0.248459    0.498964    0.907165    11.00000   -1.20000
AFIX   0
C6    1    0.172032    0.738672    0.793242    11.00000    0.02704    0.03184 =
         0.02794   -0.01721    0.00484   -0.00393
AFIX  43
H6    2    0.030506    0.760966    0.862402    11.00000   -1.20000
AFIX   0
C7    1    0.251699    0.853945    0.668265    11.00000    0.03059    0.02720 =
         0.02962   -0.01547    0.00474   -0.00194
AFIX  43
H7    2    0.161811    0.956496    0.650845    11.00000   -1.20000
AFIX   0
HKLF 4




REM  mn-27g1scaled_a.res in P-1
REM R1 =  0.0362 for    1192 Fo > 4sig(Fo)  and  0.0407 for all    1337 data
REM    101 parameters refined using      0 restraints

END

WGHT      0.0534      0.0588

REM Highest difference peak  0.242,  deepest hole -0.217,  1-sigma level  0.042
Q1    1   0.5857  0.6115  0.6577  11.00000  0.05    0.24
Q2    1   0.2370  0.6628  0.8033  11.00000  0.05    0.22
Q3    1   0.2162  0.9837  0.6062  11.00000  0.05    0.18
Q4    1   0.5802  0.4766  0.7225  11.00000  0.05    0.17
Q5    1   0.6992  0.1883  0.8234  11.00000  0.05    0.17
Q6    1   0.2628  0.7937  0.7355  11.00000  0.05    0.17
Q7    1   0.6193  0.3275  0.7819  11.00000  0.05    0.15
Q8    1   0.5105  0.9507  0.5169  11.00000  0.05    0.14
Q9    1   0.3645  0.5616  0.7610  11.00000  0.05    0.13
Q10   1   0.3501  0.3551  0.8982  11.00000  0.05    0.13
Q11   1   1.0557  0.0953  0.8778  11.00000  0.05    0.13
Q12   1   0.3979  0.1534  1.0035  11.00000  0.05    0.13
Q13   1   0.8371  0.5488  0.5189  11.00000  0.05    0.11
Q14   1   0.0822  0.5511  0.7503  11.00000  0.05    0.10
Q15   1   0.8896  0.7719  0.4274  11.00000  0.05    0.10
Q16   1   0.5174  0.7594  0.5817  11.00000  0.05    0.09
Q17   1   0.6305  0.8441  0.5997  11.00000  0.05    0.09
Q18   1   1.0514  0.7349  0.4545  11.00000  0.05    0.09
Q19   1   0.6995  0.8720  0.5828  11.00000  0.05    0.09
Q20   1   0.0405  0.2754  0.9749  11.00000  0.05    0.08
;
_shelx_res_checksum              32823
_shelx_hkl_file
;
   0   0  -1  215.05    2.90
   0   0  -2  226.15    3.91
   0   0   2  228.62    3.61
   0   0   3  464.41    6.78
   0   0  -3  487.55    7.33
   0   0  -3  480.61    7.49
   0   0  -4  118.08    3.80
   0   0   4  121.25    3.41
   0   0  -4  123.61    4.00
   0   0  -5    1.89    0.64
   0   0  -6    4.26    1.00
   0   0  -7   -0.07    0.52
   0   0   8  154.21    3.83
   0   0   8  149.37    3.48
   0   0   8  154.30    3.31
   0   0   9   83.24    2.31
   0   0   9   81.33    2.70
   0   0   9   81.28    2.47
   0   0  10    4.95    0.63
   0   0  10    5.62    0.66
   0   0  11    6.80    0.54
   0  -1  11    7.19    0.43
   0  -1  10   41.61    1.60
   0  -1  10   42.52    1.48
   0  -1   9   14.79    1.03
   0  -1   9   15.64    0.94
   0  -1   9   15.07    1.14
   0  -1   8   31.40    1.43
   0  -1   8   32.04    1.74
   0  -1   7   43.06    1.65
   0  -1   7   41.11    1.69
   0   1  -6    0.94    0.62
   0   1  -5   35.67    2.59
   0   1  -4  741.45   11.90
   0  -1   4  744.87   11.42
   0   1  -3   40.87    2.08
   0   1  -2  406.48    6.36
   0   1  -1   55.08    1.63
   0   1   0  382.54    4.63
   0   1   0  389.97    4.62
   0   1   1    0.29    0.19
   0  -1  -1    0.09    0.13
   0  -1  -2 1785.62   16.44
   0  -1  -2 1802.91   16.36
   0   1   2 1803.67   17.03
   0   1   3    1.56    0.38
   0  -1  -3    2.08    0.53
   0  -1  -4   13.37    1.24
   0   1   4   14.88    1.04
   0  -1  -5  144.92    4.73
   0  -1  -5  142.58    4.85
   0  -1  -6   20.59    2.01
   0  -1  -6   20.81    2.03
   0  -1  -7    0.01    0.52
   0   1   8    5.34    0.64
   0   1   8    4.07    0.53
   0   1   8    4.42    0.67
   0   1   9  253.33    4.93
   0   1   9  250.99    4.71
   0   1   9  247.85    4.45
   0   1  10  180.96    3.86
   0   1  10  184.77    3.44
   0   1  10  189.37    3.78
   0   1  11    5.57    0.57
   0  -2  10    5.81    0.54
   0  -2  10    6.45    0.50
   0  -2   9   24.70    1.19
   0  -2   9   22.93    1.03
   0  -2   9   24.46    1.35
   0  -2   8    8.99    0.77
   0  -2   8    8.95    0.93
   0  -2   8    9.99    0.86
   0  -2   7   24.77    1.38
   0  -2   7   24.73    1.29
   0   2  -6   68.00    4.32
   0   2  -5    0.70    0.52
   0   2  -4  112.04    4.45
   0   2  -3  272.57    6.36
   0   2  -2 1421.01   16.74
   0   2  -1    4.43    0.64
   0   2   0 1041.98   11.61
   0   2   1   11.50    0.87
   0   2   2    3.70    0.58
   0  -2  -2    3.32    0.48
   0   2   3   72.24    2.02
   0  -2  -3   67.18    1.85
   0   2   4  144.72    3.16
   0  -2  -4  139.13    4.15
   0  -2  -5  285.29    6.86
   0  -2  -6  191.50    6.14
   0  -2  -6  193.23    6.24
   0  -2  -7   43.55    3.21
   0  -2  -7   43.90    3.28
   0  -2  -8  165.52    6.90
   0   2   8  160.45    3.57
   0  -2  -8  153.19    6.80
   0   2   9   54.17    2.06
   0   2   9   52.46    1.86
   0   2  10    0.26    0.36
   0   2  10    0.60    0.26
   0   2  11   75.15    2.08
   0   2  12    3.76    0.38
   0  -3   9   15.57    0.80
   0  -3   9   17.30    0.99
   0  -3   8   78.21    2.25
   0  -3   8   80.21    2.59
   0  -3   7    2.76    0.48
   0  -3   7    4.35    0.64
   0  -3   6   13.28    1.01
   0  -3   6   14.49    1.01
   0   3  -5   23.07    2.52
   0   3  -4  111.99    4.98
   0   3  -3    2.14    0.74
   0   3  -2  353.31    7.58
   0   3  -1   18.50    1.52
   0   3  -1   18.86    1.49
   0   3   0   23.38    1.51
   0   3   1   26.14    1.52
   0   3   2   14.66    1.21
   0  -3  -2   14.22    1.13
   0  -3  -3  761.90    9.91
   0   3   3  799.71   11.23
   0  -3  -4   31.12    2.03
   0   3   4   32.28    1.51
   0  -3  -4   32.14    1.56
   0  -3  -5    1.64    0.66
   0  -3  -6    0.78    0.60
   0  -3  -7  252.78    8.15
   0  -3  -7  255.93    8.05
   0  -3  -8   41.95    3.44
   0  -3  -8   39.84    3.42
   0   3   9   59.69    2.17
   0   3  10   98.38    2.53
   0   3  10  100.12    2.80
   0   3  11    0.93    0.26
   0   3  11    1.39    0.38
   0   3  12   24.58    0.98
   0  -4   9    4.08    0.38
   0  -4   8    0.40    0.26
   0  -4   8    1.08    0.32
   0   4  -7   52.28    1.81
   0  -4   7   57.27    1.90
   0  -4   7   55.11    2.13
   0  -4   6   -0.63    0.37
   0   4  -6    0.36    0.31
   0  -4   5    4.04    0.60
   0  -4   5    2.95    0.50
   0   4  -4   -0.55    0.64
   0   4  -3    2.78    0.91
   0   4  -2    7.95    1.27
   0   4  -1  146.42    4.65
   0   4   0   35.26    2.09
   0  -4  -1 1115.56   15.40
   0   4   1 1112.97   14.47
   0   4   2   46.82    2.38
   0  -4  -2   45.47    2.44
   0   4   3   12.07    1.30
   0  -4  -3   11.12    1.19
   0  -4  -4  237.05    5.33
   0  -4  -5   12.54    1.54
   0  -4  -6  204.63    6.79
   0  -4  -7   44.10    3.39
   0  -4  -8   25.50    2.80
   0  -4  -8   27.89    2.89
   0   4   9    6.52    0.76
   0   4  10   35.79    1.65
   0   4  11    7.39    0.71
   0   4  11    6.92    0.60
   0   4  12    0.74    0.26
   0  -5   8    3.37    0.35
   0  -5   7    7.95    0.74
   0  -5   7    8.14    0.61
   0   5  -6    7.42    0.73
   0  -5   6    7.25    0.69
   0  -5   5   10.53    0.86
   0   5  -5    9.66    1.01
   0   5  -4    3.97    0.67
   0  -5   4    5.89    0.68
   0  -5   3  100.18    5.46
   0  -5   2    0.17    0.56
   0  -5   1    0.29    0.58
   0  -5   0    5.61    1.26
   0   5   1    2.74    0.76
   0  -5  -1    4.36    1.05
   0  -5  -2   96.09    4.20
   0   5   2   92.20    3.80
   0   5   3  907.69   14.04
   0  -5  -3  888.99   14.11
   0   5   4   86.27    4.06
   0  -5  -4   89.33    3.73
   0  -5  -5    1.24    0.68
   0  -5  -6   35.55    2.95
   0  -5  -7  106.15    5.47
   0   5   8    4.24    0.62
   0   5   9    3.36    0.56
   0   5   9    3.32    0.61
   0   5  10    0.47    0.41
   0   5  11   40.07    1.43
   0   5  11   41.53    1.64
   0   5  12   12.36    0.74
   0  -6   7    7.20    0.43
   0  -6   6    2.38    0.40
   0  -6   6    2.72    0.36
   0  -6   5   11.52    0.81
   0   6  -5   11.19    0.86
   0  -6   4   41.91    1.62
   0   6  -4   38.70    1.71
   0   6  -3    6.07    0.76
   0  -6   3    7.04    0.69
   0   6  -2  303.25    5.37
   0  -6   1  539.55   13.47
   0  -6   0   14.21    2.13
   0  -6  -1  353.20    9.95
   0  -6  -2  160.37    6.25
   0  -6  -3   20.08    2.12
   0   6   4   78.11    4.07
   0  -6  -4   81.02    4.08
   0  -6  -5    0.08    0.52
   0  -6  -6   27.68    2.77
   0  -6  -7   -0.79    0.75
   0   6   8   49.66    1.99
   0  -6  -9  104.72    2.86
   0   6   9  105.05    2.99
   0   6  10    2.99    0.53
   0  -6 -10    3.62    0.51
   0   6  11   40.64    1.60
   0   6  12   19.52    0.90
   0  -7   6    0.39    0.15
   0  -7   5   54.31    1.61
   0   7  -4    0.84    0.34
   0   7  -3   16.55    1.14
   0   7  -2  147.43    3.59
   0   7  -1  147.79    3.64
   0   7   0  100.22    2.91
   0  -7  -1  102.85    5.80
   0  -7  -2   71.37    4.70
   0  -7  -3   33.83    3.13
   0  -7  -4    4.78    1.17
   0  -7  -5   19.91    2.40
   0   7   6   52.31    2.08
   0   7   7    6.90    0.81
   0   7   8  327.51    5.69
   0  -7  -9   21.51    1.30
   0   7   9   20.42    1.28
   0  -7 -10    5.08    0.62
   0   7  10    6.00    0.70
   0   7  11  132.41    2.85
   0   7  12   11.74    0.66
   0  -8   4   12.90    0.71
   0   8  -3    4.13    0.50
   0  -8   3    5.95    0.61
   0   8  -2   12.19    0.95
   0  -8   2   13.41    0.95
   0   8  -1   70.59    2.43
   0  -8   1   73.51    2.31
   0   8   0    2.89    0.57
   0  -8   0    3.35    0.57
   0   8   1  120.73    3.31
   0  -8  -1  122.29    2.96
   0   8   2   19.56    1.34
   0   8   3   23.13    1.43
   0   8   4   15.77    1.19
   0   8   5    9.32    0.94
   0   8   6    0.16    0.30
   0   8   6    0.96    0.50
   0   8   7  311.65    5.78
   0   8   8   28.37    1.62
   0   8   9    0.30    0.32
   0  -8 -10   22.02    1.17
   0   8  10   21.74    1.16
   0   8  11    0.42    0.25
   0  -8 -11    0.00    0.21
   0   8  12    0.09    0.14
   0  -9   3   36.81    1.03
   0  -9   2    8.02    0.59
   0   9  -2    6.94    0.57
   0  -9   1    4.23    0.51
   0   9  -1    4.29    0.54
   0  -9   0    0.51    0.25
   0   9   0    0.64    0.37
   0   9   1    0.44    0.37
   0  -9  -1    0.25    0.28
   0   9   2   54.00    2.17
   0   9   3   25.35    1.51
   0   9   4   11.14    1.04
   0   9   5   -0.04    0.39
   0   9   5    0.40    0.36
   0   9   6   24.76    1.42
   0   9   6   28.28    1.58
   0   9   7    1.75    0.53
   0   9   8   47.03    1.96
   0   9   8   43.55    1.75
   0   9   9   68.16    2.06
   0   9  10    5.45    0.54
   0  -9 -10    5.27    0.56
   0   9  11   30.83    1.02
   0  -9 -11   30.46    1.01
   0 -10   1    0.91    0.19
   0 -10   0   34.77    1.11
   0  10   0   36.36    1.29
   0  10   1    0.18    0.26
   0 -10  -1    0.03    0.18
   0  10   2    2.52    0.46
   0  10   3    0.02    0.29
   0  10   4    3.61    0.60
   0  10   4    4.17    0.64
   0  10   5   49.99    1.95
   0  10   5   47.76    1.88
   0  10   6   16.24    1.05
   0  10   6   16.35    1.12
   0 -10  -7   29.96    1.21
   0  10   7   31.34    1.50
   0  10   8    1.42    0.32
   0 -10  -9    0.60    0.27
   0  10   9    1.55    0.31
   0  10  10    0.85    0.21
   0 -10 -10    0.76    0.24
   0  11   1   18.10    0.75
   0  11   2    1.84    0.29
   0  11   2    1.82    0.31
   0  11   3   20.16    0.99
   0  11   3   21.05    0.97
   0  11   4    8.51    0.67
   0  11   4    8.21    0.65
   0  11   5    0.33    0.27
   0  11   5   -0.06    0.21
   0  11   6    1.30    0.31
   0  11   6    1.35    0.36
   0  11   7    5.71    0.55
   0 -11  -8    0.87    0.24
   0 -11  -9    5.24    0.41
   1 -11  -6   13.49    0.59
   1 -11  -5    0.56    0.16
   1 -11  -4    0.13    0.13
   1 -10  -9   15.43    0.70
   1 -10  -8    1.68    0.30
   1 -10  -8    1.51    0.26
   1 -10  -7    8.82    0.62
   1 -10  -7    7.51    0.58
   1 -10  -6    0.12    0.17
   1 -10  -6   -0.04    0.21
  -1  10   5    8.54    0.70
   1 -10  -4    2.63    0.35
  -1  10   4    1.98    0.38
   1 -10  -3    1.89    0.32
   1 -10  -2   14.87    0.74
   1 -10  -1   13.72    0.67
   1 -10   0    5.08    0.36
   1  -9 -10    0.05    0.18
   1  -9  -9   32.23    1.29
   1  -9  -8    1.84    0.35
   1  -9  -8    1.66    0.37
   1  -9  -7    0.03    0.24
   1  -9  -7    0.41    0.25
  -1   9   6    0.17    0.38
   1  -9  -6   -0.01    0.27
   1  -9  -5   17.86    0.98
  -1   9   5   18.61    1.19
   1  -9  -4    6.68    0.64
  -1   9   4    6.69    0.73
  -1   9   3   47.93    1.80
  -1   9   2    2.41    0.43
   1  -9  -1    1.39    0.34
   1  -9  -1    1.40    0.39
   1  -9   0    0.06    0.21
   1  -9   0    0.16    0.22
   1  -9   1    0.46    0.23
   1  -9   1    0.30    0.22
   1  -9   2   26.05    0.89
   1  -8 -11    0.54    0.21
   1  -8 -10    0.01    0.22
   1  -8  -9   49.96    1.85
   1  -8  -8    2.88    0.47
   1  -8  -8    1.99    0.51
   1  -8  -7  111.02    2.89
   1  -8  -7  112.59    3.04
  -1   8   6   57.88    2.28
  -1   8   5   10.21    0.95
   1  -8  -5   10.95    0.84
   1  -8  -4   75.33    2.29
  -1   8   4   76.16    2.53
  -1   8   3    4.41    0.67
   1  -8  -3    4.53    0.56
   1  -8  -2    7.01    0.72
  -1   8   2    5.44    0.68
   1  -8  -2    5.73    0.68
   1  -8  -1   15.23    1.08
   1  -8  -1   12.83    0.91
   1  -8   0   54.49    1.82
   1  -8   0   56.52    1.99
   1  -8   1   -0.26    0.28
   1  -8   1    0.60    0.35
   1  -8   2    4.39    0.54
   1  -8   2    3.85    0.45
   1  -8   3   -0.07    0.20
   1  -8   3    0.12    0.18
   1  -7 -11    1.45    0.27
   1  -7 -10    0.84    0.32
   1  -7  -9    6.01    0.74
   1  -7  -8   66.16    2.15
   1  -7  -8   67.25    2.38
   1  -7  -7   20.72    1.24
   1  -7  -7   19.57    1.29
  -1   7   6    5.99    0.78
   1  -7  -5  303.17    4.96
  -1   7   5  300.61    5.51
  -1   7   4    0.98    0.40
  -1   7   3    1.65    0.50
   1  -7  -3    2.23    0.46
   1  -7  -3    2.90    0.49
   1  -7  -2   20.16    1.13
  -1   7   2   19.39    1.22
   1  -7  -2   20.83    1.22
   1  -7  -1   34.97    1.62
   1  -7  -1   34.53    1.49
   1  -7   0   24.46    1.28
   1  -7   0   23.23    1.32
   1  -7   1   65.46    2.28
   1  -7   1   62.75    2.07
   1  -7   2    5.16    0.64
   1  -7   2    5.87    0.68
   1  -7   3   48.77    1.67
   1  -7   3   53.11    1.83
   1  -7   4    9.16    0.65
   1  -7   4   11.32    0.75
   1  -7   5   12.47    0.59
   1  -7   5   12.35    0.61
  -1   6  12    0.19    0.13
  -1   6  11    0.34    0.19
   1  -6 -10   14.44    0.99
  -1   6  10   16.26    0.94
   1  -6  -9  175.50    3.90
  -1   6   9  173.96    3.53
   1  -6  -8   26.56    1.36
   1  -6  -8   28.31    1.54
   1  -6  -7   74.14    2.36
   1  -6  -7   76.82    2.55
   1  -6  -6  535.21    7.47
  -1   6   6  520.49    7.94
   1  -6  -5   39.46    3.37
   1  -6  -4   28.68    2.94
   1  -6  -3    9.07    1.73
   1  -6  -2    2.53    1.03
   1  -6  -1   39.50    3.50
   1  -6   0   40.04    3.58
   1  -6   1  164.07    3.60
   1  -6   2  109.96    2.90
   1  -6   2  107.99    2.95
   1  -6   3   44.60    1.83
   1  -6   3   43.62    1.81
   1  -6   4   48.83    1.83
   1  -6   4   48.22    1.78
   1  -6   5    1.35    0.32
   1  -6   6    1.07    0.23
   1  -6   6    1.47    0.26
  -1   5  12    1.03    0.20
  -1   5  11   12.30    0.75
  -1   5  11   12.25    0.78
   1  -5 -10   38.64    1.62
  -1   5  10   38.75    1.54
   1  -5  -9  119.67    3.19
  -1   5   9  121.02    2.98
   1  -5  -8   17.12    1.08
  -1   5   8   16.70    1.07
   1  -5  -8   16.81    1.18
   1  -5  -7   79.88    2.37
   1  -5  -7   81.84    2.56
   1  -5  -6  141.87    6.17
   1  -5  -5    7.12    1.36
   1  -5  -5    7.48    1.38
   1  -5  -4   66.00    3.98
   1  -5  -4   64.33    3.51
   1  -5  -3    2.18    0.83
   1  -5  -2   53.21    3.56
   1  -5  -1   -0.22    0.70
   1  -5   0   99.23    5.13
   1  -5   1  118.53    5.74
   1  -5   2   13.38    1.99
   1  -5   3  432.37    6.61
   1  -5   4  250.90    4.70
   1  -5   5    0.41    0.32
   1  -5   5    0.99    0.38
   1  -5   6   14.52    0.93
   1  -5   6   13.24    0.81
   1  -5   7   14.67    0.78
  -1   4  12    5.55    0.39
  -1   4  11    2.35    0.38
  -1   4  11    1.31    0.32
  -1   4  10   34.12    1.48
  -1   4   9   62.06    2.11
   1  -4  -9   59.28    2.18
   1  -4  -8    0.29    0.34
  -1   4   8    0.00    0.30
   1  -4  -7   34.01    3.17
   1  -4  -7   32.72    3.05
   1  -4  -6    6.54    1.33
   1  -4  -5  153.48    5.71
   1  -4  -5  161.17    5.76
   1  -4  -4   85.66    4.15
   1  -4  -4   84.20    3.83
   1  -4  -3    1.11    0.52
   1  -4  -2   39.92    2.78
   1  -4  -2   36.79    2.02
   1  -4  -1 1051.14   16.54
   1  -4   0  127.61    5.16
   1  -4   1   23.93    2.30
   1  -4   2    3.86    1.06
   1  -4   3   27.30    3.08
   1  -4   4    0.36    0.32
   1  -4   5   52.70    2.01
   1  -4   5   50.75    2.02
   1  -4   6    0.53    0.35
   1  -4   6    0.68    0.37
   1  -4   7    6.78    0.68
   1  -4   7    6.90    0.71
   1  -4   8    2.90    0.39
  -1   3  12    7.43    0.42
  -1   3  11   48.66    1.53
  -1   3  10    0.35    0.32
  -1   3  10    0.65    0.32
   1  -3  -9    3.29    0.56
  -1   3   9    3.60    0.58
  -1   3   8   36.02    1.60
   1  -3  -8   38.92    1.71
   1  -3  -7   33.40    3.08
   1  -3  -7   33.41    3.10
   1  -3  -6   11.14    1.62
   1  -3  -6   11.65    1.69
   1  -3  -5    7.21    1.19
   1  -3  -5    5.34    1.04
   1  -3  -4  169.38    5.47
   1  -3  -4  166.43    5.28
   1  -3  -4  168.02    5.35
   1  -3  -3    0.48    0.55
   1  -3  -3    1.52    0.65
   1  -3  -3    0.38    0.37
   1  -3  -2  306.72    5.88
   1  -3  -2  297.34    7.02
   1  -3  -1   31.71    1.48
   1  -3  -1   29.09    2.12
   1  -3   0   31.85    2.27
   1  -3   1  612.86   11.08
   1  -3   2   17.27    1.74
   1  -3   3  117.48    4.75
   1  -3   3  114.82    5.65
   1  -3   4    0.52    0.65
   1  -3   5    0.82    0.36
   1  -3   5    0.02    0.33
   1  -3   5    0.60    0.49
   1  -3   6    1.77    0.44
   1  -3   6    1.83    0.46
   1  -3   7    4.68    0.70
   1  -3   7    4.18    0.62
   1  -3   8    2.27    0.39
   1  -3   8    2.64    0.53
   1  -3   8    2.86    0.47
   1  -3   9   29.01    1.03
  -1   2  11    8.29    0.61
  -1   2  10   35.77    1.51
  -1   2  10   36.23    1.54
  -1   2   9    9.28    0.85
  -1   2   9    9.40    0.86
  -1   2   8  144.77    3.36
   1  -2  -8  144.08    3.39
   1  -2  -7   62.00    4.25
   1  -2  -6  174.70    6.46
   1  -2  -6  172.27    6.57
   1  -2  -5  568.15   10.62
   1  -2  -5  531.87   11.00
   1  -2  -5  542.53   10.96
   1  -2  -4   57.47    2.95
   1  -2  -4   55.92    2.96
   1  -2  -3   13.80    1.30
   1  -2  -3   14.12    1.45
   1  -2  -3   15.07    1.45
   1  -2  -2    9.64    1.16
   1  -2  -2    9.00    0.92
   1  -2  -2    8.99    1.13
   1  -2  -1  731.72    8.78
   1  -2  -1  720.33   11.15
   1  -2  -1  739.06   10.98
   1  -2  -1  732.46    9.11
   1  -2   0   21.52    0.74
   1  -2   0   22.58    1.68
   1  -2   1  126.74    4.00
   1  -2   2   21.35    1.67
   1  -2   3   10.01    1.24
   1  -2   3    9.05    1.46
   1  -2   4   82.72    4.65
   1  -2   5    7.73    1.57
   1  -2   6   37.57    1.65
   1  -2   6   37.90    1.57
   1  -2   6   37.31    1.78
   1  -2   6   37.36    1.64
   1  -2   7   13.24    1.12
   1  -2   7   13.85    1.04
   1  -2   8    0.02    0.29
   1  -2   8    0.62    0.37
   1  -2   9   11.17    0.80
   1  -2  10   35.69    1.04
  -1   1  11    0.24    0.19
  -1   1  11    0.32    0.22
  -1   1  10   15.25    0.94
  -1   1   9  151.71    3.44
  -1   1   9  153.34    3.50
  -1   1   8   18.28    1.16
  -1   1   8   18.40    1.20
   1  -1  -7    9.78    1.76
   1  -1  -6   95.99    4.85
   1  -1  -5  172.60    5.84
   1  -1  -5  174.84    5.44
   1  -1  -5  166.74    5.86
   1  -1  -4  388.33    8.17
   1  -1  -4  389.00    8.38
   1  -1  -3  239.70    5.63
   1  -1  -3  239.65    5.74
   1  -1  -3  247.69    5.48
   1  -1  -2  163.62    2.51
   1  -1  -2  168.79    4.53
   1  -1  -2  167.99    3.78
   1  -1  -2  168.73    4.56
   1  -1  -2  170.28    4.02
   1  -1  -1   99.77    2.18
   1  -1  -1  102.47    3.35
   1  -1  -1  102.33    2.51
   1  -1  -1   98.82    2.56
   1  -1   0   17.38    0.66
   1  -1   0   19.52    1.43
   1  -1   0   19.67    1.35
   1  -1   0   19.99    1.26
   1  -1   0   17.89    1.07
   1  -1   0   16.03    0.47
   1  -1   0   17.64    1.35
   1  -1   1    0.41    0.35
   1  -1   1    0.34    0.49
   1  -1   1    0.66    0.41
   1  -1   2  405.55    8.18
   1  -1   2  414.23    6.81
  -1   1  -2  388.85    5.01
   1  -1   3   -0.04    0.29
   1  -1   3    1.02    0.67
   1  -1   4  739.58   13.80
   1  -1   5  118.65    5.50
   1  -1   6   16.27    2.22
   1  -1   6   19.07    2.53
   1  -1   7    0.45    0.45
   1  -1   7    0.25    0.40
   1  -1   7    0.24    0.31
   1  -1   7   -0.20    0.39
   1  -1   8   48.46    1.90
   1  -1   8   46.90    1.88
   1  -1   8   47.65    2.12
   1  -1   9   11.42    0.88
   1  -1   9   11.39    1.01
   1  -1  10   -0.05    0.21
  -1   0  11    7.02    0.44
  -1   0  11    6.60    0.42
  -1   0  10    5.78    0.56
  -1   0  10    6.05    0.58
  -1   0   9   29.17    1.40
  -1   0   8  327.12    5.46
  -1   0   8  328.37    5.59
  -1   0   7  352.83    5.71
  -1   0   7  356.81    5.66
   1   0  -6   43.82    3.39
   1   0  -5    2.21    0.68
   1   0  -5    2.92    0.91
   1   0  -4    3.81    0.81
   1   0  -4    3.22    0.83
   1   0  -3  251.56    5.62
   1   0  -3  253.81    5.85
   1   0  -2   18.65    1.29
   1   0  -2   16.79    1.32
   1   0  -1    1.39    0.42
   1   0  -1    1.25    0.32
   1   0   0 1582.70   16.62
   1   0   0 1558.03   17.36
   1   0   0 1581.79   14.46
   1   0   1    7.24    0.89
   1   0   1    7.85    0.62
   1   0   1    7.13    0.88
   1   0   1    7.35    0.85
   1   0   1    8.47    0.84
   1   0   1    6.61    0.75
   1   0   2    0.75    0.46
   1   0   2    1.22    0.37
  -1   0  -2    1.05    0.16
   1   0   2    0.48    0.45
   1   0   2    1.58    0.52
  -1   0  -2    1.08    0.19
   1   0   3   15.72    0.96
   1   0   3   14.58    1.56
   1   0   3   15.11    1.55
   1   0   3   12.52    1.43
  -1   0  -3   15.34    0.95
   1   0   4   10.86    1.52
  -1   0  -4   12.39    1.05
   1   0   4   13.15    1.57
   1   0   5    1.94    0.88
   1   0   5    2.19    0.83
   1   0   6  217.06    8.03
   1   0   6  231.28    7.75
   1   0   7   15.01    2.34
   1   0   7   14.96    1.03
   1   0   7   14.75    1.02
   1   0   7   16.30    1.18
   1   0   8   -0.58    0.50
   1   0   8    0.62    0.50
   1   0   8    0.55    0.34
   1   0   8    0.04    0.35
   1   0   9   33.32    1.54
   1   0   9   35.08    1.58
   1   0   9   33.42    1.75
   1   0  10   22.28    1.12
   1   0  11    6.91    0.49
  -1  -1  10   26.84    1.04
  -1  -1  10   26.06    0.99
  -1  -1   9    1.11    0.35
  -1  -1   9    2.20    0.43
  -1  -1   9    1.34    0.39
  -1  -1   8   56.86    2.04
  -1  -1   7  164.35    3.63
   1   1  -6  219.67    8.09
   1   1  -5    2.15    0.69
   1   1  -5    2.78    0.96
   1   1  -4   -0.05    0.36
   1   1  -4    1.01    0.54
   1   1  -3    2.74    0.69
   1   1  -3    2.23    0.66
   1   1  -2   63.75    2.66
   1   1  -2   63.70    2.61
   1   1  -1  237.95    4.95
   1   1  -1  247.76    4.72
   1   1   0  763.14    8.98
   1   1   0  768.82    9.66
   1   1   1   97.39    2.45
   1   1   1  102.56    2.93
   1   1   2 9999.00   86.41
   1   1   2 9998.38   88.07
   1   1   3   77.09    2.79
   1   1   3   79.28    3.25
  -1  -1  -3   83.70    2.32
   1   1   3   78.96    3.26
   1   1   3   78.60    3.27
   1   1   4    2.98    0.75
  -1  -1  -4    3.06    0.57
   1   1   4    3.15    0.77
  -1  -1  -4    2.52    0.57
   1   1   4    1.74    0.68
   1   1   5  234.45    6.89
   1   1   5  246.76    7.27
  -1  -1  -5  251.25    5.85
   1   1   6   74.45    4.06
   1   1   6   67.86    4.08
   1   1   7    0.32    0.66
   1   1   8    9.01    0.84
   1   1   8   10.12    0.99
   1   1   9    2.43    0.55
   1   1   9    3.61    0.64
   1   1   9    3.74    0.56
   1   1  10   63.84    1.99
   1   1  10   59.49    1.92
   1   1  11   30.56    1.13
   1   2 -10    6.04    0.45
  -1  -2   9    6.66    0.57
  -1  -2   9    6.06    0.57
  -1  -2   9    6.33    0.64
  -1  -2   8   70.72    2.11
  -1  -2   8   70.58    2.19
  -1  -2   7   27.35    1.44
  -1  -2   6   15.98    1.08
   1   2  -6   18.28    1.14
   1   2  -5   44.78    3.10
   1   2  -5   39.22    3.29
   1   2  -4    2.91    0.91
   1   2  -4    4.05    0.89
   1   2  -3   56.65    3.14
   1   2  -2  807.07   12.37
   1   2  -1   69.99    2.79
   1   2   0  639.19    8.98
   1   2   0  621.55   10.33
   1   2   1  290.76    6.21
   1   2   2 1102.93   11.77
   1   2   2 1120.67   14.34
   1   2   3    2.30    0.28
   1   2   3    2.14    0.64
   1   2   3    1.59    0.67
   1   2   4  522.30    9.46
  -1  -2  -4  515.66    8.32
   1   2   4  509.93    9.62
  -1  -2  -5    1.01    0.48
   1   2   5    0.41    0.45
   1   2   5    0.05    0.41
  -1  -2  -6    2.67    0.68
   1   2   6    1.93    0.78
   1   2   7   29.07    2.75
   1   2   8   17.81    1.10
   1   2   8   18.77    1.23
   1   2   8   17.84    1.24
   1   2   9    7.10    0.73
   1   2   9    7.73    0.75
   1   2  10    1.12    0.42
   1   2  10    1.86    0.43
   1   2  10    1.63    0.36
   1   2  11  116.70    2.49
   1   2  11  114.63    2.43
   1   2  12   60.36    1.40
   1   3  -9    3.73    0.42
  -1  -3   9    3.93    0.44
  -1  -3   8    7.48    0.67
  -1  -3   7   23.06    1.29
  -1  -3   6   46.91    1.86
   1   3  -6   43.18    1.79
  -1  -3   5   30.56    1.45
   1   3  -4   52.79    3.77
   1   3  -3   24.95    2.38
   1   3  -2  357.70    8.42
   1   3  -1  189.73    5.44
   1   3   0  676.31   11.80
   1   3   0  650.70   10.42
   1   3   1    8.16    1.21
   1   3   2  705.45   11.76
   1   3   3    2.68    0.91
   1   3   4   10.58    1.40
   1   3   4    9.35    1.23
  -1  -3  -5   43.47    2.55
   1   3   5   45.92    2.85
  -1  -3  -6   42.36    2.72
   1   3   6   41.48    2.93
  -1  -3  -7  133.23    5.46
   1   3   8   34.27    1.52
   1   3   8   36.92    1.69
   1   3   9   12.88    0.99
   1   3   9   15.39    1.17
   1   3  10  103.50    2.75
   1   3  10  106.24    2.70
   1   3  11   69.45    1.98
   1   3  11   69.07    1.88
   1   3  11   71.10    1.92
   1   3  12    3.72    0.38
   1   4  -8    2.89    0.44
  -1  -4   8    2.96    0.46
   1   4  -7   39.29    1.67
  -1  -4   7   36.60    1.52
  -1  -4   6   89.96    2.62
   1   4  -6   86.25    2.55
  -1  -4   5   -0.23    0.27
   1   4  -5    0.07    0.30
   1   4  -4   26.38    3.22
  -1  -4   4   33.71    1.50
   1   4  -3   34.81    3.44
   1   4  -3   40.08    3.36
   1   4  -2  125.51    5.40
   1   4  -2  134.78    6.09
   1   4  -1    1.88    0.86
   1   4  -1    2.26    0.84
   1   4   0  511.39   11.08
   1   4   1    9.32    1.43
   1   4   2   -0.21    0.55
   1   4   3   -0.17    0.52
   1   4   4    0.68    0.58
   1   4   5  233.89    7.21
   1   4   5  232.53    6.71
   1   4   6   17.42    1.91
  -1  -4  -6   15.49    1.80
  -1  -4  -7   23.70    2.40
   1   4   8    6.26    0.72
   1   4   8    5.25    0.65
   1   4   9   47.64    1.90
   1   4   9   49.08    2.05
   1   4  10    0.32    0.35
   1   4  11   22.81    1.14
   1   4  11   25.13    1.18
   1   4  12   40.90    1.18
   1   4  12   38.65    1.20
   1   5  -7   -0.44    0.29
   1   5  -6    7.48    0.79
   1   5  -5   55.55    2.17
  -1  -5   4    4.77    0.64
  -1  -5   4    4.26    0.55
   1   5  -4    4.30    0.65
  -1  -5   3    3.64    0.54
  -1  -5   3    3.52    0.54
   1   5  -3    3.88    0.62
   1   5  -2    2.38    1.06
   1   5  -1    5.10    1.32
   1   5   0    6.73    1.45
   1   5   1   52.80    3.52
   1   5   2    5.60    1.19
   1   5   3  547.67   11.81
   1   5   4   10.64    1.65
   1   5   5   31.28    2.50
   1   5   5   31.32    2.84
  -1  -5  -6   36.13    2.93
  -1  -5  -7    5.35    1.31
   1   5   8   86.90    2.69
   1   5   8   86.40    2.68
   1   5   8   84.93    2.58
   1   5   9   52.75    2.11
   1   5   9   53.97    2.06
   1   5   9   49.52    1.98
   1   5  10   16.93    1.13
   1   5  10   15.97    1.20
   1   5  11    0.02    0.25
   1   5  12   23.18    0.95
   1   5  12   23.73    0.95
  -1  -6   7    0.36    0.16
   1   6  -6    7.77    0.68
   1   6  -5   21.10    1.26
   1   6  -4    7.81    0.86
  -1  -6   4    8.33    0.77
  -1  -6   3    7.39    0.75
   1   6  -3    6.40    0.81
  -1  -6   2   14.96    1.03
   1   6  -2   14.65    1.12
   1   6  -1   90.16    5.44
   1   6   0    1.10    0.85
   1   6   1   24.11    2.61
   1   6   2   31.29    2.89
   1   6   3   48.47    3.60
   1   6   4   29.77    2.84
   1   6   5  258.44    8.74
   1   6   6   74.82    4.81
  -1  -6  -7    9.35    1.70
   1   6   8    3.34    0.60
   1   6   8    2.80    0.52
   1   6   9   31.35    1.59
   1   6   9   30.64    1.59
   1   6   9   32.18    1.65
   1   6  10    3.70    0.54
   1   6  10    4.62    0.66
   1   6  10    4.33    0.63
   1   6  11    0.08    0.26
   1   6  12   -0.07    0.27
   1   6  12    0.53    0.23
   1   7  -5   11.65    0.78
   1   7  -4    7.51    0.75
   1   7  -3    5.93    0.75
  -1  -7   3    5.00    0.62
  -1  -7   2   69.48    2.29
   1   7  -2   69.72    2.49
  -1  -7   1   32.33    1.55
   1   7  -1   34.13    1.70
  -1  -7   0  215.81    4.17
   1   7   0  218.27    4.52
   1   7   1  271.83    9.47
   1   7   2   13.68    2.08
  -1  -7  -2   15.87    2.20
   1   7   3  275.93    9.37
  -1  -7  -3  283.35    8.83
   1   7   4   90.27    5.37
   1   7   5   27.97    3.01
   1   7   6   37.04    1.77
   1   7   7    1.16    0.44
   1   7   7    0.84    0.39
   1   7   8   10.24    0.96
   1   7   8    9.45    0.93
   1   7   9    6.58    0.76
   1   7   9    5.05    0.67
   1   7   9    5.29    0.72
   1   7  10   13.48    0.94
   1   7  10   13.43    1.01
   1   7  10   14.66    1.05
   1   7  11   69.12    2.02
   1   7  12    0.50    0.21
   1   8  -4    0.18    0.22
  -1  -8   4    0.03    0.17
   1   8  -3   52.12    1.82
   1   8  -2    0.34    0.38
  -1  -8   1   27.36    1.42
   1   8  -1   24.60    1.51
  -1  -8   0  211.24    4.25
   1   8   0  219.26    4.61
  -1  -8  -1  223.34    4.31
   1   8   1  227.16    4.76
  -1  -8  -2   53.78    1.91
   1   8   2   56.15    2.17
   1   8   3   15.32    1.15
   1   8   4   59.62    2.22
   1   8   5   18.14    1.31
   1   8   5   17.73    1.22
   1   8   6    8.23    0.91
   1   8   6    8.38    0.86
   1   8   7   10.82    0.94
   1   8   7   13.23    1.11
   1   8   7   11.85    0.98
   1   8   8   55.00    2.06
   1   8   8   55.27    2.16
   1   8   8   51.47    1.99
   1   8   9    0.11    0.33
   1   8   9    0.79    0.38
   1   8   9    0.26    0.33
   1   8  10  134.26    3.12
   1   8  10  132.32    2.94
   1   8  10  133.90    2.97
   1   8  11    1.10    0.32
   1   8  12    1.23    0.25
   1   9  -3    3.30    0.37
  -1  -9   2    4.02    0.40
   1   9  -2    3.16    0.47
   1   9  -1    0.97    0.35
   1   9   0    4.32    0.66
   1   9   1   48.54    2.03
   1   9   2    0.64    0.39
   1   9   3  112.76    3.17
   1   9   4   12.01    1.08
   1   9   4   10.86    0.98
   1   9   5    8.74    0.94
   1   9   5    8.61    0.88
   1   9   6    4.51    0.64
   1   9   6    3.92    0.66
   1   9   7   22.52    1.26
   1   9   7   25.73    1.48
   1   9   7   24.59    1.40
   1   9   8    0.80    0.37
   1   9   8    1.14    0.41
   1   9   8    1.04    0.38
   1   9   9  169.87    3.53
   1   9   9  166.91    3.58
   1   9   9  170.67    3.28
   1   9  10   28.17    1.17
   1   9  10   32.68    1.36
   1   9  11    0.88    0.26
   1  10  -1   46.71    1.37
   1  10   0    2.92    0.41
   1  10   0    2.83    0.45
   1  10   1   11.27    0.84
   1  10   1   12.53    0.92
   1  10   2   -0.12    0.30
   1  10   2   -0.03    0.30
   1  10   3    1.86    0.49
   1  10   3    1.75    0.47
   1  10   4   37.55    1.75
   1  10   4   37.96    1.68
   1  10   5   29.45    1.56
   1  10   5   27.39    1.43
   1  10   6   14.99    1.11
   1  10   6   13.98    1.02
   1  10   7    0.11    0.32
   1  10   7   -0.05    0.29
   1  10   8    0.92    0.35
   1  10   8    1.28    0.35
   1  10   9   15.54    0.88
   1  10   9   14.93    0.92
   1  10  10   15.78    0.81
  -1 -10 -10   14.16    0.69
   1  10  11   22.76    0.78
   1  11   1    1.68    0.29
   1  11   2   22.72    0.99
   1  11   2   25.00    1.03
   1  11   3    0.12    0.27
   1  11   3    0.15    0.22
   1  11   4    2.88    0.46
   1  11   4    3.16    0.46
   1  11   5    3.16    0.46
   1  11   5    2.39    0.41
   1  11   6    1.36    0.37
   1  11   6    0.96    0.31
   1  11   7   23.86    1.11
   1  11   7   24.47    1.07
   1  11   8   10.78    0.69
   1  11   9   17.37    0.76
   2  -9  -7   28.57    1.01
   2  -9  -6    1.44    0.30
   2  -9  -5    8.25    0.57
   2  -9  -5    8.42    0.62
   2  -9  -4    0.79    0.25
   2  -9  -4    0.80    0.26
   2  -9  -3    6.01    0.51
   2  -9  -3    5.99    0.49
   2  -9  -2    1.19    0.23
   2  -9  -2    1.21    0.27
   2  -9  -1    4.69    0.41
   2  -8  -9   47.04    1.19
   2  -8  -8    0.50    0.22
   2  -8  -8    0.26    0.21
   2  -8  -7   24.05    1.14
   2  -8  -7   23.95    1.04
   2  -8  -6    1.40    0.32
   2  -8  -6    1.36    0.39
   2  -8  -5   -0.03    0.27
   2  -8  -5   -0.03    0.27
   2  -8  -4    3.33    0.50
   2  -8  -4    3.71    0.53
   2  -8  -3    3.84    0.50
   2  -8  -3    4.31    0.53
   2  -8  -2    0.42    0.26
   2  -8  -2    0.28    0.24
   2  -8  -1   18.16    1.01
   2  -8  -1   18.22    0.98
   2  -8   0    0.38    0.26
   2  -8   0    0.68    0.27
   2  -8   1    1.84    0.33
   2  -8   1    1.45    0.29
   2  -8   2    0.77    0.18
   2  -8   2    1.40    0.23
   2  -7  -9    2.49    0.34
   2  -7  -9    3.38    0.43
   2  -7  -8    0.07    0.26
   2  -7  -8    0.22    0.27
   2  -7  -7   41.64    1.68
   2  -7  -7   40.08    1.59
   2  -7  -6   -0.06    0.32
   2  -7  -6    0.08    0.31
   2  -7  -6    0.68    0.33
   2  -7  -5   86.21    2.49
   2  -7  -5   88.66    2.61
   2  -7  -4   35.40    1.61
   2  -7  -4   30.92    1.54
   2  -7  -3   19.62    1.20
   2  -7  -3   21.35    1.26
   2  -7  -2   88.63    2.55
   2  -7  -2   88.64    2.47
   2  -7  -1   14.89    1.01
   2  -7   0    4.64    0.58
   2  -7   1    4.91    0.58
   2  -7   2   28.36    1.18
   2  -7   3   -0.35    0.21
  -2   6  10    0.59    0.21
   2  -6 -10    1.00    0.23
   2  -6  -9    3.64    0.46
   2  -6  -9    3.35    0.48
   2  -6  -8    1.59    0.42
   2  -6  -8    2.35    0.55
   2  -6  -7   20.80    1.26
   2  -6  -7   20.35    1.24
   2  -6  -6   90.19    2.60
   2  -6  -6   91.19    2.73
   2  -6  -6   95.60    2.70
   2  -6  -5   68.10    2.29
   2  -6  -5   70.07    2.39
   2  -6  -5   65.59    2.15
   2  -6  -4    1.35    0.45
   2  -6  -4    1.49    0.39
   2  -6  -3  139.76    3.35
   2  -6  -2    5.06    0.62
   2  -6  -2    3.89    0.57
   2  -6  -1    1.30    0.42
   2  -6   0   12.65    1.00
   2  -6   0   12.88    0.96
   2  -6   1   29.47    1.43
   2  -6   1   27.34    1.39
   2  -6   2   19.38    1.14
   2  -6   2   21.01    1.17
   2  -6   3   18.10    0.99
   2  -6   3   20.25    1.07
   2  -6   4    4.47    0.48
   2  -6   5   14.72    0.65
  -2   5  10    1.39    0.29
   2  -5 -10    1.36    0.26
   2  -5  -9    3.61    0.49
   2  -5  -8   11.82    0.93
   2  -5  -8   11.61    1.00
   2  -5  -7  119.81    3.14
   2  -5  -7  115.59    3.12
   2  -5  -6   80.05    2.57
   2  -5  -6   79.26    2.52
   2  -5  -5   81.19    2.49
   2  -5  -5   81.73    2.59
   2  -5  -5   86.30    2.56
   2  -5  -4  491.04    7.06
   2  -5  -4  487.87    7.19
   2  -5  -3   47.86    1.86
   2  -5  -3   48.89    1.88
   2  -5  -2   14.61    0.97
   2  -5  -2   13.81    0.99
   2  -5  -1   -0.06    0.26
   2  -5   0    1.07    0.41
   2  -5   0    1.35    0.41
   2  -5   1   15.24    1.05
   2  -5   1   12.03    0.92
   2  -5   2   24.86    1.30
   2  -5   2   22.23    1.24
   2  -5   3  106.06    2.66
   2  -5   3  105.68    2.73
   2  -5   4   63.38    1.86
   2  -5   4   69.67    2.05
   2  -5   5    7.07    0.61
   2  -5   6    4.98    0.41
  -2   4  11    4.42    0.33
  -2   4  10    0.67    0.25
   2  -4  -9   18.43    1.04
   2  -4  -8   49.92    1.92
   2  -4  -8   49.41    1.99
   2  -4  -7  198.01    4.18
   2  -4  -7  194.54    4.25
   2  -4  -6   22.79    1.34
   2  -4  -6   21.80    1.33
   2  -4  -5   19.10    1.16
   2  -4  -5   17.97    1.17
   2  -4  -5   18.46    1.18
   2  -4  -4  232.15    8.78
   2  -4  -3    7.63    1.66
   2  -4  -2   54.50    4.13
   2  -4  -1    7.82    1.69
   2  -4   0   17.81    2.34
   2  -4   0   15.10    2.21
   2  -4   1    7.90    1.61
   2  -4   1    5.68    0.63
   2  -4   1    5.80    1.56
   2  -4   2   26.22    1.30
   2  -4   3    6.36    0.66
   2  -4   3    6.04    0.70
   2  -4   4   23.23    1.30
   2  -4   5  199.77    3.89
   2  -4   6  114.21    2.54
   2  -4   7    0.07    0.16
  -2   3  10    8.33    0.63
  -2   3   9    9.78    0.76
   2  -3  -9    9.92    0.77
   2  -3  -8   63.51    2.18
   2  -3  -7   44.50    1.88
   2  -3  -7   46.10    1.97
   2  -3  -6    3.24    0.52
   2  -3  -6    4.18    0.63
   2  -3  -5   54.81    4.21
   2  -3  -4    5.32    1.39
   2  -3  -3   60.32    4.20
   2  -3  -3   58.98    4.11
   2  -3  -2   59.13    4.01
   2  -3  -1    2.00    0.86
   2  -3   0    7.61    1.44
   2  -3   0   11.09    1.70
   2  -3   1  427.24   10.98
   2  -3   1  430.93   11.49
   2  -3   2   64.64    4.37
   2  -3   2   68.76    4.75
   2  -3   3   32.73    1.62
   2  -3   3   32.24    1.48
   2  -3   3   33.07    1.52
   2  -3   4   18.83    1.24
   2  -3   4   16.95    1.10
   2  -3   4   18.53    1.16
   2  -3   5   59.17    2.04
   2  -3   5   58.68    2.12
   2  -3   6    1.55    0.41
   2  -3   6    1.57    0.42
   2  -3   6    2.46    0.48
   2  -3   7   16.02    0.92
   2  -3   7   14.68    0.88
   2  -3   8    0.33    0.21
  -2   2  10    7.67    0.58
  -2   2   9   64.35    1.95
  -2   2   8    0.90    0.38
   2  -2  -8    0.76    0.33
   2  -2  -7    0.21    0.32
   2  -2  -6   33.85    1.60
   2  -2  -6   30.02    1.57
   2  -2  -5   43.37    3.68
   2  -2  -4   -0.38    0.59
   2  -2  -3    3.75    1.11
   2  -2  -2   38.65    3.10
   2  -2  -2   37.85    3.03
   2  -2  -1    1.09    0.75
   2  -2  -1    1.64    0.78
   2  -2   0   54.53    3.55
   2  -2   0   67.10    3.66
   2  -2   1  106.29    5.03
   2  -2   1  100.57    4.73
   2  -2   2   14.04    1.79
   2  -2   2   14.20    2.02
   2  -2   2   13.28    1.94
   2  -2   3  109.73    5.87
   2  -2   3  115.53    6.09
   2  -2   4    2.29    0.50
   2  -2   4    2.87    0.51
   2  -2   4    2.49    0.65
   2  -2   4    1.94    0.42
   2  -2   5   34.22    1.66
   2  -2   5   33.71    1.51
   2  -2   5   35.38    1.68
   2  -2   6    1.48    0.60
   2  -2   6    0.21    0.33
   2  -2   6    1.05    0.35
   2  -2   7    1.04    0.43
   2  -2   7    1.59    0.40
   2  -2   8    0.34    0.31
   2  -2   8    0.29    0.24
   2  -2   9    4.02    0.36
  -2   1  10    3.18    0.38
  -2   1   9   15.15    0.94
   2  -1  -9   15.51    0.94
  -2   1   8   27.61    1.36
  -2   1   7   25.07    1.33
   2  -1  -7   26.52    1.43
   2  -1  -6  114.60    3.07
   2  -1  -5   22.19    2.64
   2  -1  -4  173.45    7.01
   2  -1  -3  392.79   10.37
   2  -1  -2   62.85    3.84
   2  -1  -1   17.80    2.02
   2  -1   0    2.51    0.81
   2  -1   0    0.87    0.49
   2  -1   0    2.12    0.75
   2  -1   1  198.59    6.26
   2  -1   1  203.61    5.82
   2  -1   1  192.44    6.38
   2  -1   2    9.52    1.38
   2  -1   2   14.18    1.89
   2  -1   3   88.38    5.01
   2  -1   3   93.49    5.10
   2  -1   4    8.75    1.75
   2  -1   4    8.25    1.68
   2  -1   5    5.83    0.74
   2  -1   5    5.77    0.71
   2  -1   5    4.48    0.64
   2  -1   5    5.88    0.76
   2  -1   6   14.33    1.12
   2  -1   6   13.05    1.04
   2  -1   6   14.43    0.97
   2  -1   6   13.85    1.07
   2  -1   6   13.91    1.09
   2  -1   7    8.70    0.94
   2  -1   7    8.46    0.75
   2  -1   7    8.23    0.87
   2  -1   8    9.40    0.85
   2  -1   8    6.65    0.63
   2  -1   8    8.12    0.80
   2  -1   9    4.85    0.46
   2  -1   9    4.97    0.54
  -2   0  10   14.37    0.67
  -2   0   9    0.43    0.27
   2   0  -9    0.80    0.29
  -2   0   8   28.09    1.35
   2   0  -8   26.90    1.37
  -2   0   7  177.61    3.73
  -2   0   6   66.44    2.15
   2   0  -6   67.47    2.33
   2   0  -5    1.51    0.88
   2   0  -5    0.43    0.63
   2   0  -4    8.26    1.54
   2   0  -4    6.29    1.14
   2   0  -3  260.95    8.27
   2   0  -2  217.44    6.99
   2   0  -1   69.08    3.47
   2   0  -1   82.19    4.12
   2   0   0   53.01    3.21
   2   0   0   54.73    2.88
   2   0   0   49.51    2.65
   2   0   1   91.00    3.90
   2   0   1   98.84    4.19
   2   0   2   12.37    1.45
   2   0   2   13.95    1.78
   2   0   2   12.34    1.54
   2   0   3    1.45    0.82
   2   0   3    2.13    0.80
   2   0   4   52.43    3.99
   2   0   4   52.07    3.89
   2   0   5    1.76    0.84
   2   0   5    3.48    1.16
   2   0   6  205.66    4.08
   2   0   6  214.49    4.20
   2   0   6  212.40    4.36
   2   0   7   36.41    1.68
   2   0   7   32.74    1.64
   2   0   8    5.86    0.76
   2   0   8    7.95    0.87
   2   0   8    6.40    0.77
   2   0   9    0.55    0.42
   2   0   9   -0.37    0.34
   2   0  10   14.71    0.81
  -2  -1   9    1.80    0.32
   2   1  -9    1.92    0.33
  -2  -1   8    0.05    0.24
   2   1  -8    0.36    0.32
  -2  -1   7   72.44    2.28
   2   1  -7   75.29    2.44
  -2  -1   6  291.33    4.99
  -2  -1   5  254.55    4.43
   2   1  -5  256.49    4.75
   2   1  -4   66.91    3.99
   2   1  -3    1.71    0.85
   2   1  -3    2.59    0.74
   2   1  -2    3.28    0.87
   2   1  -1   98.29    4.53
   2   1   0    1.76    0.71
   2   1   1   -0.21    0.45
   2   1   1   -0.20    0.32
   2   1   2  500.18   10.76
   2   1   2  507.55    9.57
   2   1   2  488.74   10.45
   2   1   3    1.67    0.78
   2   1   3    2.17    0.79
   2   1   4   22.21    2.43
   2   1   4   16.76    2.13
   2   1   5   29.57    3.01
   2   1   5   36.94    3.25
   2   1   6    4.07    1.29
   2   1   7   -0.66    0.56
   2   1   7   -0.08    0.41
   2   1   7    0.13    0.39
   2   1   7   -0.33    0.34
   2   1   8   39.42    1.75
   2   1   8   46.07    1.87
   2   1   9    6.62    0.72
   2   1   9    8.05    0.84
   2   1   9    5.84    0.68
   2   1  10    3.79    0.53
   2   1  10    2.68    0.45
   2   1  11   19.28    0.75
  -2  -2   9   90.32    1.79
  -2  -2   8   33.33    1.30
   2   2  -8   32.73    1.33
  -2  -2   7   -0.15    0.26
   2   2  -7    0.13    0.38
  -2  -2   6  176.07    3.71
   2   2  -6  171.60    3.91
  -2  -2   5  214.21    4.09
   2   2  -4  174.06    6.96
   2   2  -4  156.01    6.66
   2   2  -3    9.27    1.53
   2   2  -3    7.89    1.43
   2   2  -2    1.87    0.75
   2   2  -2    0.43    0.43
   2   2  -1    3.53    0.96
   2   2  -1    2.61    0.93
   2   2  -1    3.00    0.75
   2   2   0    7.37    1.30
   2   2   0    4.05    0.88
   2   2   1   25.59    1.95
   2   2   1   22.08    2.05
   2   2   2  559.97    9.99
   2   2   2  515.01   10.32
   2   2   3   11.40    1.43
   2   2   3    8.51    1.43
   2   2   4 1783.07   25.47
   2   2   5    5.49    1.31
   2   2   6    4.69    1.32
   2   2   7  100.61    3.04
   2   2   7  101.30    2.84
   2   2   7  100.41    2.98
   2   2   7   97.64    2.72
   2   2   8   27.31    1.42
   2   2   8   30.56    1.70
   2   2   8   28.16    1.46
   2   2   9    0.49    0.48
   2   2   9    0.71    0.46
   2   2   9    0.84    0.37
   2   2  10    6.85    0.65
   2   2  10    8.20    0.77
   2   2  10    7.41    0.67
   2   2  11    4.80    0.45
   2   2  11    4.59    0.45
   2   3  -8    0.79    0.27
  -2  -3   8    0.66    0.22
  -2  -3   8    1.03    0.28
   2   3  -8    0.90    0.26
  -2  -3   7    1.34    0.35
   2   3  -7    0.92    0.34
  -2  -3   6   68.81    2.18
   2   3  -6   65.82    2.30
  -2  -3   5   35.96    1.59
   2   3  -5   36.81    1.76
  -2  -3   4    1.81    0.40
   2   3  -4    2.25    0.53
   2   3  -3   35.56    3.74
   2   3  -3   35.34    3.15
   2   3  -3   41.16    3.34
   2   3  -2    0.50    0.45
   2   3  -2    1.27    0.87
   2   3  -2    0.16    0.62
   2   3  -1   30.75    2.57
   2   3  -1   30.92    3.04
   2   3  -1   29.54    2.42
   2   3   0  294.92    8.99
   2   3   0  320.91    8.00
   2   3   1   17.53    2.00
   2   3   1   16.50    1.65
   2   3   2  200.14    5.49
   2   3   2  205.71    6.83
   2   3   3  213.31    6.88
   2   3   4  601.11   13.34
   2   3   4  636.93   12.53
   2   3   5    6.71    1.18
   2   3   5    6.25    1.41
   2   3   6   76.52    4.85
   2   3   7    1.17    0.44
   2   3   7    1.47    0.48
   2   3   7    1.56    0.54
   2   3   7    1.38    0.54
   2   3   7    1.54    0.43
   2   3   8    0.21    0.33
   2   3   8    0.68    0.50
   2   3   8    1.32    0.54
   2   3   9    6.58    0.79
   2   3   9    5.40    0.66
   2   3   9    6.69    0.73
   2   3  10    5.06    0.57
   2   3  10    6.41    0.71
   2   3  10    6.13    0.64
   2   3  11   13.02    0.76
   2   3  11   13.09    0.79
   2   3  11   11.93    0.69
   2   4  -8   43.36    1.14
   2   4  -7    2.96    0.43
   2   4  -7    2.86    0.42
  -2  -4   6    2.52    0.46
   2   4  -6    2.62    0.53
  -2  -4   5   11.94    0.92
  -2  -4   5   13.68    0.92
   2   4  -5   12.55    1.03
  -2  -4   4   72.60    2.25
  -2  -4   4   71.68    2.22
   2   4  -4   73.04    2.50
  -2  -4   3   26.87    1.30
   2   4  -3   27.33    1.47
   2   4  -2   23.22    3.01
   2   4  -2   24.45    2.68
   2   4  -2   23.21    2.55
   2   4  -1   46.62    4.06
   2   4  -1   54.70    3.65
   2   4   0  336.25   10.37
   2   4   0  374.07    9.33
   2   4   1   33.45    3.09
   2   4   1   32.66    2.48
   2   4   2   54.27    3.75
   2   4   2   57.74    3.05
   2   4   3   12.01    1.76
   2   4   4  158.36    6.66
   2   4   4  169.95    6.73
   2   4   5    1.10    0.63
   2   4   5    2.02    1.00
   2   4   6   10.58    1.88
   2   4   7   18.08    1.24
   2   4   7   18.67    1.31
   2   4   7   18.94    1.25
   2   4   7   17.93    1.21
   2   4   7   16.95    1.16
   2   4   8   13.10    1.16
   2   4   8   14.53    1.23
   2   4   8   14.45    1.18
   2   4   8   15.09    1.14
   2   4   9   38.98    1.75
   2   4  10    1.02    0.38
   2   4  11    6.47    0.58
   2   4  11    7.21    0.63
   2   4  12   39.70    1.04
   2   5  -7   51.50    1.34
   2   5  -6   14.88    0.91
  -2  -5   5   36.14    1.38
   2   5  -5   37.05    1.65
   2   5  -5   37.26    1.65
  -2  -5   4   53.36    1.89
   2   5  -4   52.18    2.11
   2   5  -4   56.40    2.14
  -2  -5   3    0.57    0.31
  -2  -5   3    0.49    0.37
   2   5  -3    0.44    0.33
   2   5  -3    0.88    0.43
   2   5  -2   15.07    1.12
   2   5  -2   17.01    1.15
   2   5  -1   15.28    2.10
   2   5  -1   11.56    2.27
   2   5   0   43.48    3.91
   2   5   0   49.65    3.53
   2   5   1   12.75    1.73
   2   5   1   11.56    2.03
   2   5   2  315.92    8.10
   2   5   2  310.15   10.09
   2   5   3    1.13    0.88
   2   5   4    9.95    1.78
   2   5   5    0.94    0.79
   2   5   5    0.72    0.71
   2   5   6    0.10    0.75
   2   5   6    0.30    0.62
   2   5   7   56.99    2.19
   2   5   7   60.17    2.29
   2   5   7   62.97    2.42
   2   5   7   59.90    2.20
   2   5   8    8.56    0.94
   2   5   8    8.33    0.90
   2   5   8    9.28    0.93
   2   5   9   25.10    1.44
   2   5  10    3.50    0.60
   2   5  11    3.04    0.45
   2   5  12    7.19    0.46
   2   5  12    8.52    0.51
   2   6  -6   12.82    0.66
  -2  -6   5    4.80    0.45
   2   6  -5    4.01    0.52
  -2  -6   4   13.63    0.89
   2   6  -4   15.15    1.04
  -2  -6   3   30.50    1.45
   2   6  -3   28.38    1.53
   2   6  -3   31.69    1.59
  -2  -6   2   15.44    1.08
   2   6  -2   15.70    1.16
   2   6  -2   14.84    1.11
  -2  -6   1    6.02    0.70
   2   6  -1    5.88    0.75
   2   6  -1    7.02    0.76
  -2  -6   0   11.56    0.89
   2   6   0   13.68    1.03
   2   6   1    3.42    1.01
   2   6   1   -0.18    0.70
   2   6   2    1.62    1.13
   2   6   3    4.69    1.35
   2   6   4   -0.92    0.92
   2   6   5  125.09    6.53
   2   6   6    3.09    0.57
   2   6   6    2.77    0.57
   2   6   6    3.03    0.62
   2   6   6    3.72    0.60
   2   6   7   10.45    1.01
   2   6   7   11.12    1.04
   2   6   7   10.01    0.91
   2   6   8    0.86    0.43
   2   6   8    1.81    0.54
   2   6   8    1.72    0.47
   2   6   9    0.62    0.43
   2   6   9    0.17    0.44
   2   6  10   17.80    1.13
   2   6  11   22.71    1.06
   2   6  12    3.07    0.31
   2   6  12    3.91    0.36
   2   7  -5    1.07    0.23
  -2  -7   4    7.31    0.56
   2   7  -4    7.17    0.64
  -2  -7   3   24.07    1.18
   2   7  -3   24.16    1.27
  -2  -7   2    3.91    0.58
   2   7  -2    3.46    0.59
  -2  -7   1    2.60    0.50
   2   7  -1    2.46    0.51
  -2  -7   0   13.27    0.99
   2   7   0   11.42    0.98
  -2  -7  -1   34.24    1.52
  -2  -7  -2    0.18    0.28
   2   7   3   24.62    1.40
   2   7   4   19.49    1.29
   2   7   5   43.15    1.92
   2   7   5   47.31    2.03
   2   7   6    6.60    0.77
   2   7   6    7.48    0.88
   2   7   7   55.78    2.22
   2   7   7   61.15    2.42
   2   7   8   30.50    1.63
   2   7   8   33.56    1.72
   2   7   9   15.94    1.16
   2   7   9   13.34    1.06
   2   7   9   12.51    0.90
   2   7  10    0.29    0.33
   2   7  10    0.05    0.22
   2   7  11    5.62    0.55
   2   8  -3   11.91    0.74
  -2  -8   2   11.90    0.81
   2   8  -2   11.55    0.84
  -2  -8   1    3.42    0.51
   2   8  -1    3.55    0.55
  -2  -8   0   69.14    2.18
   2   8   0   66.99    2.24
  -2  -8  -1   53.74    1.93
   2   8   1   53.87    2.01
   2   8   2   87.22    2.65
  -2  -8  -2   89.59    2.46
   2   8   3   55.02    2.16
   2   8   4   16.64    1.19
   2   8   5  104.89    3.05
   2   8   5  106.83    3.13
   2   8   6   23.25    1.37
   2   8   6   25.87    1.54
   2   8   7    8.31    0.91
   2   8   7    7.32    0.84
   2   8   8   10.56    0.96
   2   8   8   10.97    1.01
   2   8   9    0.48    0.34
   2   8   9    0.24    0.34
   2   8   9    0.16    0.26
   2   8  10    4.24    0.52
   2   8  10    4.35    0.56
   2   8  10    3.75    0.44
   2   8  11    8.43    0.60
   2   9  -2    0.18    0.16
   2   9  -1   24.53    1.08
  -2  -9   0    5.04    0.57
   2   9   0    5.66    0.60
  -2  -9  -1   12.93    0.87
   2   9   1   11.53    0.87
   2   9   2  169.14    3.56
  -2  -9  -2  174.33    3.36
   2   9   2  170.14    3.55
   2   9   3  162.98    3.68
   2   9   4   23.85    1.39
   2   9   5    0.56    0.35
   2   9   5    0.48    0.39
   2   9   6   31.67    1.51
   2   9   6   31.06    1.61
   2   9   7    3.25    0.59
   2   9   7    3.53    0.60
   2   9   8    5.90    0.67
   2   9   8    6.13    0.73
   2   9   9    2.65    0.44
   2   9   9    4.05    0.54
   2   9   9    3.23    0.46
   2   9  10   29.26    1.18
   2   9  10   28.14    1.03
   2   9  10   30.86    1.16
   2   9  11    0.18    0.16
   2  10   0    0.16    0.17
   2  10   1   14.96    0.79
   2  10   2    0.23    0.27
   2  10   3   11.37    0.81
   2  10   3   11.04    0.74
   2  10   4   -0.11    0.28
   2  10   4    0.29    0.27
   2  10   5   54.14    1.86
   2  10   5   52.20    1.89
   2  10   6    3.39    0.46
   2  10   6    3.94    0.58
   2  10   7    3.44    0.50
   2  10   7    4.45    0.58
   2  10   8    0.53    0.29
   2  10   8    0.57    0.31
   2  10   9   24.47    1.06
   2  10   9   22.38    0.93
   2  10   9   26.17    1.01
   2  10  10    0.17    0.16
   2  11   2    0.00    0.15
   2  11   3   12.73    0.69
   2  11   4   -0.02    0.19
   2  11   4    0.20    0.18
   2  11   5    4.41    0.44
   2  11   5    3.21    0.36
   2  11   5    4.13    0.44
   2  11   6   16.12    0.75
   2  11   6   18.13    0.88
   2  11   7   14.57    0.67
   2  11   7   14.64    0.78
   2  11   8    7.35    0.52
   2  11   8    6.17    0.45
   3  -7  -6    0.96    0.21
   3  -7  -5    8.30    0.53
   3  -7  -4    0.38    0.17
   3  -7  -3    0.04    0.20
   3  -7  -2    3.81    0.40
   3  -7  -1    0.01    0.16
   3  -6  -7    6.08    0.49
   3  -6  -6    0.13    0.19
   3  -6  -5   17.24    0.96
   3  -6  -5   17.23    0.91
   3  -6  -4    1.53    0.38
   3  -6  -4    1.77    0.35
   3  -6  -3   34.87    1.39
   3  -6  -3   37.91    1.44
   3  -6  -3   34.94    1.26
   3  -6  -2    5.07    0.56
   3  -6  -1    8.92    0.67
   3  -6   0   47.01    1.42
   3  -6   1    9.92    0.57
   3  -6   2    2.80    0.38
   3  -5  -8    0.17    0.17
   3  -5  -7    2.77    0.38
   3  -5  -6    1.07    0.32
   3  -5  -5   21.58    1.14
   3  -5  -4   65.66    2.01
   3  -5  -3   74.49    2.41
   3  -5  -3   71.50    2.21
   3  -5  -3   71.70    2.06
   3  -5  -2    9.15    0.88
   3  -5  -2   11.49    0.88
   3  -5  -1   33.91    1.59
   3  -5  -1   33.39    1.41
   3  -5   0    7.65    0.75
   3  -5   0    6.27    0.62
   3  -5   1    1.68    0.35
   3  -5   1    1.81    0.40
   3  -5   1    2.11    0.36
   3  -5   2    7.45    0.56
   3  -5   3   12.75    0.63
   3  -5   3   13.72    0.85
   3  -5   4   12.10    0.66
   3  -4  -8    2.93    0.39
   3  -4  -8    3.05    0.41
   3  -4  -7   14.58    0.88
   3  -4  -7   12.85    0.85
   3  -4  -6    4.94    0.59
   3  -4  -5   32.69    1.50
   3  -4  -4  126.70    3.03
   3  -4  -3   31.69    1.51
   3  -4  -3   31.87    1.43
   3  -4  -2  257.12    4.55
   3  -4  -1   30.06    1.63
   3  -4  -1   27.24    1.35
   3  -4   0    4.27    0.50
   3  -4   0    5.29    0.72
   3  -4   0    4.38    0.55
   3  -4   1    1.58    0.35
   3  -4   1    1.75    0.50
   3  -4   2   -0.02    0.21
   3  -4   2   -0.38    0.34
   3  -4   3    1.27    0.28
   3  -4   3    1.64    0.40
   3  -4   4   10.47    0.81
   3  -4   5   46.34    1.38
   3  -3  -9    4.56    0.37
   3  -3  -8    1.28    0.35
   3  -3  -7   11.18    0.88
   3  -3  -7   11.69    0.86
   3  -3  -6   32.81    1.51
   3  -3  -6   35.86    1.63
   3  -3  -5  182.36    3.96
   3  -3  -5  173.21    3.76
   3  -3  -4    8.60    0.87
   3  -3  -4    9.69    0.84
   3  -3  -3    0.17    0.25
   3  -3  -2  181.22    3.71
   3  -3  -1    0.41    0.25
   3  -3   0   35.97    1.81
   3  -3   1    3.55    0.64
   3  -3   2    3.68    0.60
   3  -3   3   10.58    0.94
   3  -3   4    5.12    0.70
   3  -3   5    2.67    0.46
   3  -3   6   19.22    0.88
   3  -2  -9    1.43    0.27
   3  -2  -8    8.24    0.72
   3  -2  -7   27.22    1.30
   3  -2  -7   29.04    1.43
   3  -2  -6   77.15    2.53
   3  -2  -6   77.30    2.37
   3  -2  -5   12.09    0.98
   3  -2  -5   11.80    1.05
   3  -2  -4    7.24    0.77
   3  -2  -4    7.95    0.92
   3  -2  -3   24.51    1.46
   3  -2  -3   25.93    1.33
   3  -2  -2    3.55    0.63
   3  -2   0   17.90    1.30
   3  -2   1    9.43    0.98
   3  -2   2    4.11    0.68
   3  -2   3  117.44    3.34
   3  -2   3  122.03    3.18
   3  -2   4   14.60    1.16
   3  -2   4   15.59    1.11
   3  -2   4   13.17    1.15
   3  -2   5    7.99    0.76
   3  -2   5    7.26    0.82
   3  -2   6   12.79    0.85
   3  -2   6   12.81    0.90
   3  -2   7   43.29    1.25
   3  -1  -8    3.95    0.46
   3  -1  -8    4.53    0.54
   3  -1  -7   49.27    1.89
   3  -1  -6    5.68    0.68
   3  -1  -6    7.13    0.85
   3  -1  -5    5.82    0.70
   3  -1  -5    6.06    0.86
   3  -1  -4   25.16    1.35
   3  -1  -4   22.64    1.49
   3  -1  -3   19.25    1.18
   3  -1  -3   16.45    1.29
   3  -1  -2    0.80    0.43
   3  -1  -1    8.63    0.94
   3  -1   0    1.46    0.48
   3  -1   1    0.59    0.40
   3  -1   1    1.21    0.51
   3  -1   1    1.06    0.51
   3  -1   2    8.37    0.93
   3  -1   2    6.92    0.83
   3  -1   3   90.91    2.91
   3  -1   3   86.89    2.73
   3  -1   3   83.00    2.79
   3  -1   4   13.23    1.14
   3  -1   4   12.73    1.06
   3  -1   4   12.39    1.11
   3  -1   5   13.50    1.12
   3  -1   5   13.62    1.05
   3  -1   5   12.23    1.07
   3  -1   6   -0.09    0.30
   3  -1   6    0.22    0.33
   3  -1   7    4.40    0.54
   3  -1   7    4.78    0.54
   3  -1   8    1.27    0.27
   3   0  -8    3.73    0.44
   3   0  -8    3.42    0.45
   3   0  -7   19.91    1.11
   3   0  -7   20.35    1.17
   3   0  -6   13.88    1.11
   3   0  -5   27.11    1.44
   3   0  -5   27.35    1.61
   3   0  -4   44.10    1.83
   3   0  -4   47.73    2.15
   3   0  -3    0.46    0.28
   3   0  -3   -0.15    0.41
   3   0  -2   59.53    2.36
   3   0  -1   96.34    3.01
   3   0   0   19.96    1.34
   3   0   1    2.16    0.52
   3   0   1    1.36    0.49
   3   0   1    1.46    0.50
   3   0   2    0.37    0.35
   3   0   2    0.15    0.30
   3   0   2   -0.11    0.44
   3   0   3   23.53    1.45
   3   0   3   25.07    1.44
   3   0   3   22.01    1.39
   3   0   4    7.42    0.81
   3   0   4    5.33    0.76
   3   0   4    6.15    0.78
   3   0   4    5.59    0.80
   3   0   5   35.14    1.82
   3   0   5   37.92    1.70
   3   0   5   39.11    1.79
   3   0   5   36.85    1.85
   3   0   6    3.07    0.62
   3   0   6    2.40    0.51
   3   0   6    2.68    0.58
   3   0   6    1.99    0.55
   3   0   7    3.21    0.53
   3   0   7    2.91    0.50
   3   0   8    2.94    0.45
   3   0   8    3.42    0.43
   3   0   9    3.69    0.34
   3   1  -8   12.36    0.64
   3   1  -7    1.79    0.37
   3   1  -7    2.79    0.48
   3   1  -6   21.16    1.22
   3   1  -6   19.31    1.24
   3   1  -5  107.79    3.15
   3   1  -4   76.81    2.69
   3   1  -3    5.61    0.68
   3   1  -3    6.39    0.85
   3   1  -2    5.01    0.79
   3   1  -1  161.79    4.01
   3   1   0   51.78    2.17
   3   1   1   16.63    1.24
   3   1   2   18.18    1.21
   3   1   2   20.49    1.28
   3   1   2   17.67    1.28
   3   1   3   38.34    1.79
   3   1   3   37.34    1.71
   3   1   3   34.75    1.64
   3   1   3   39.01    1.82
   3   1   3   35.00    1.80
   3   1   4    5.21    0.73
   3   1   4    4.34    0.64
   3   1   4    3.87    0.61
   3   1   4    4.01    0.67
   3   1   5    0.38    0.40
   3   1   5    0.42    0.43
   3   1   5   -0.25    0.31
   3   1   5   -0.41    0.37
   3   1   5    0.05    0.43
   3   1   6    3.97    0.69
   3   1   6    3.09    0.63
   3   1   6    2.84    0.56
   3   1   6    2.71    0.58
   3   1   6    2.20    0.54
   3   1   7    3.88    0.65
   3   1   7    2.50    0.54
   3   1   7    2.54    0.52
   3   1   7    3.25    0.60
   3   1   8   51.53    1.68
   3   1   8   51.02    1.72
   3   1   8   49.61    1.68
   3   1   9    7.84    0.58
   3   2  -7    0.74    0.28
   3   2  -7    0.20    0.22
   3   2  -6   16.59    1.03
   3   2  -6   15.77    1.01
   3   2  -5  111.40    2.97
   3   2  -5  109.01    3.00
   3   2  -4  135.83    3.38
   3   2  -4  129.51    3.47
   3   2  -3   95.62    3.01
   3   2  -2   32.98    1.75
   3   2  -1    0.62    0.44
   3   2   0    6.94    0.85
   3   2   1   21.30    1.42
   3   2   2    1.58    1.00
   3   2   2    1.12    0.42
   3   2   2    1.46    0.52
   3   2   3    0.43    0.41
   3   2   3    1.11    0.38
   3   2   3    1.13    0.46
   3   2   3    0.52    0.45
   3   2   4   93.16    2.80
   3   2   4   97.03    2.77
   3   2   4   97.55    2.89
   3   2   4   95.20    2.96
   3   2   5    0.07    0.34
   3   2   5    0.30    0.45
   3   2   5    0.19    0.39
   3   2   5   -0.28    0.48
   3   2   5    0.57    0.40
   3   2   6   12.66    0.98
   3   2   6   12.11    1.10
   3   2   6   12.95    1.04
   3   2   6   11.81    1.03
   3   2   6   14.07    1.18
   3   2   7   15.36    1.08
   3   2   7   17.20    1.26
   3   2   7   15.09    1.08
   3   2   7   16.54    1.21
   3   2   7   16.23    1.16
   3   2   8    6.79    0.74
   3   2   8    7.52    0.78
   3   2   8    6.53    0.69
   3   2   8    7.97    0.74
   3   2   9    1.70    0.42
   3   2   9    0.79    0.29
   3   3  -7   56.53    1.38
   3   3  -6   15.62    0.91
   3   3  -5    0.41    0.33
   3   3  -4  222.53    4.41
   3   3  -4  221.35    4.41
   3   3  -3  162.41    3.70
   3   3  -3  160.78    3.86
   3   3  -2   76.08    2.39
   3   3  -2   75.21    2.61
   3   3  -1    8.29    0.93
   3   3   0   -0.16    0.45
   3   3   1    4.72    0.65
   3   3   1    5.54    0.77
   3   3   2    2.26    0.48
   3   3   2    3.14    0.64
   3   3   3    0.67    0.43
   3   3   3    1.06    0.37
   3   3   3    0.87    0.51
   3   3   4  275.47    5.28
   3   3   4  274.24    5.29
   3   3   5    0.39    0.35
   3   3   5   -0.14    0.36
   3   3   5    0.70    0.44
   3   3   6  312.31    5.03
   3   3   6  308.04    5.97
   3   3   6  305.67    5.24
   3   3   6  313.88    5.72
   3   3   6  307.72    5.80
   3   3   7    0.65    0.36
   3   3   7    0.66    0.37
   3   3   7    0.49    0.35
   3   3   7    1.31    0.49
   3   3   7    0.76    0.44
   3   3   8    0.45    0.38
   3   3   8    0.60    0.46
   3   3   8    0.00    0.27
   3   3   8   -0.27    0.32
   3   3   9   32.45    1.29
   3   3   9   32.76    1.14
   3   3   9   30.07    1.17
   3   3  10    7.37    0.52
   3   4  -6    1.07    0.27
  -3  -4   5    0.24    0.19
   3   4  -5   -0.08    0.27
  -3  -4   4   27.37    1.25
   3   4  -4   29.47    1.43
   3   4  -3   30.95    1.54
   3   4  -2    1.06    0.45
   3   4  -1   24.87    1.44
   3   4   0    1.78    0.56
   3   4   1    7.64    0.78
   3   4   1    8.05    0.88
   3   4   2   45.29    1.92
   3   4   2   46.52    2.03
   3   4   3    0.12    0.32
   3   4   3    0.06    0.36
   3   4   3    0.18    0.38
   3   4   4   24.84    1.51
   3   4   4   27.31    1.55
   3   4   5   74.53    2.39
   3   4   5   70.53    2.57
   3   4   5   70.90    2.55
   3   4   6  228.94    4.96
   3   4   6  229.55    4.82
   3   4   6  232.05    4.91
   3   4   7    3.48    0.51
   3   4   7    4.44    0.76
   3   4   7    4.08    0.70
   3   4   8    9.82    0.79
   3   4   8   12.38    1.10
   3   4   8   13.75    1.09
   3   4   9    0.63    0.35
   3   4   9    1.23    0.32
   3   4  10    1.90    0.35
  -3  -5   5    1.55    0.24
  -3  -5   4   -0.03    0.21
   3   5  -4   -0.17    0.29
  -3  -5   3    5.48    0.63
   3   5  -3    3.71    0.55
   3   5  -2   49.25    1.89
   3   5  -1   14.90    1.05
   3   5   0   15.67    1.08
   3   5   1   37.39    1.74
   3   5   2  183.77    4.10
   3   5   2  181.19    4.04
   3   5   3    4.46    0.70
   3   5   3    4.92    0.73
   3   5   4    0.15    0.32
   3   5   4   -0.23    0.39
   3   5   4    0.46    0.48
   3   5   5   22.55    1.31
   3   5   5   24.63    1.49
   3   5   5   25.97    1.55
   3   5   6   22.84    1.31
   3   5   6   23.00    1.34
   3   5   6   22.97    1.46
   3   5   6   22.43    1.44
   3   5   7    1.74    0.41
   3   5   7    2.38    0.62
   3   5   7    1.50    0.46
   3   5   8    3.06    0.47
   3   5   8    2.30    0.41
   3   5   8    4.45    0.75
   3   5   8    4.24    0.66
   3   5   9    7.81    0.63
   3   5   9    8.49    0.66
   3   5  10    3.56    0.39
  -3  -6   4   19.58    0.79
  -3  -6   3   19.92    0.98
  -3  -6   2   19.73    1.10
   3   6  -2   17.13    1.04
  -3  -6   1    0.55    0.35
   3   6  -1   -0.30    0.29
   3   6   0    2.38    0.48
   3   6   1    0.04    0.29
   3   6   2    0.87    0.41
   3   6   3    7.91    0.88
   3   6   4   93.83    2.92
   3   6   4   87.91    2.88
   3   6   5    1.64    0.56
   3   6   5    0.75    0.35
   3   6   5    1.30    0.48
   3   6   6    7.60    0.81
   3   6   6    7.75    0.83
   3   6   6    7.62    0.86
   3   6   6    8.00    0.88
   3   6   7    0.61    0.35
   3   6   7    0.44    0.37
   3   6   7    0.49    0.44
   3   6   7   -0.28    0.38
   3   6   8    0.68    0.34
   3   6   8    0.12    0.38
   3   6   9   19.15    0.97
   3   6  10    2.43    0.32
  -3  -7   3   11.47    0.60
  -3  -7   2   13.81    0.79
  -3  -7   1   13.79    0.88
   3   7   0    8.12    0.74
  -3  -7   0   10.02    0.80
   3   7   1    4.62    0.64
  -3  -7  -1    5.59    0.60
   3   7   2    9.10    0.89
  -3  -7  -2   10.87    0.80
   3   7   3    0.61    0.38
   3   7   3   -0.02    0.32
   3   7   4    0.95    0.46
   3   7   4    1.42    0.44
   3   7   5    0.48    0.40
   3   7   5    0.94    0.35
   3   7   5    0.46    0.35
   3   7   6   -0.24    0.32
   3   7   6   -0.04    0.29
   3   7   6    0.67    0.37
   3   7   7   22.58    1.25
   3   7   7   24.65    1.30
   3   7   7   24.80    1.31
   3   7   8    1.04    0.36
   3   7   8    0.96    0.37
   3   7   9    2.18    0.36
   3   7  10    0.17    0.16
  -3  -8   2    2.78    0.29
  -3  -8   1   16.41    0.79
   3   8   0    0.29    0.21
  -3  -8   0   -0.12    0.23
   3   8   1    0.74    0.30
  -3  -8  -1    0.88    0.28
   3   8   2    4.02    0.57
  -3  -8  -2    3.56    0.46
   3   8   3    6.72    0.76
   3   8   3    6.38    0.70
   3   8   4    0.03    0.31
   3   8   4   -0.26    0.32
   3   8   5    6.48    0.68
   3   8   5    7.72    0.81
   3   8   6    6.37    0.70
   3   8   6    5.83    0.62
   3   8   7   23.62    1.22
   3   8   7   23.43    1.18
   3   8   7   24.16    1.13
   3   8   8    1.62    0.36
   3   8   8    1.29    0.33
   3   8   8    2.22    0.38
   3   8   9   14.41    0.77
  -3  -9   0   10.41    0.51
   3   9   1    2.36    0.34
  -3  -9  -1    2.28    0.30
   3   9   2   42.53    1.46
   3   9   3   37.41    1.45
   3   9   4   29.23    1.36
   3   9   5    4.48    0.56
   3   9   6   12.24    0.83
   3   9   6   11.29    0.73
   3   9   7   29.27    1.21
   3   9   7   29.74    1.14
   3   9   8    5.88    0.50
   3   9   8    5.71    0.51
   3   9   9    1.61    0.25
   3  10   3    0.98    0.23
   3  10   4   83.14    1.85
   3  10   5   65.44    1.62
   3  10   6    8.69    0.57
   3  10   7    1.90    0.27
   4  -4  -4    0.19    0.17
   4  -4  -3    8.48    0.55
   4  -4  -2   25.14    0.97
   4  -4  -1   42.07    1.26
   4  -4   0    7.13    0.50
   4  -3  -5   16.63    0.71
   4  -3  -4    2.26    0.35
   4  -3  -3    2.03    0.37
   4  -3  -2  107.33    2.45
   4  -3  -1    4.56    0.53
   4  -3   0   93.45    2.23
   4  -3   1    6.86    0.58
   4  -3   2    1.17    0.27
   4  -2  -5    1.34    0.26
   4  -2  -5    0.92    0.23
   4  -2  -4   11.70    0.74
   4  -2  -4   12.61    0.73
   4  -2  -3   75.06    2.04
   4  -2  -3   75.10    1.92
   4  -2  -2    0.30    0.31
   4  -2  -1    3.70    0.53
   4  -2   0  112.94    2.75
   4  -2   1    0.28    0.35
   4  -2   2   18.45    0.99
   4  -2   2   15.81    0.82
   4  -2   3   -0.06    0.22
   4  -2   3    0.55    0.25
   4  -2   4    0.48    0.19
   4  -1  -5   31.08    1.12
   4  -1  -4   50.77    1.51
   4  -1  -4   53.07    1.66
   4  -1  -3    0.72    0.31
   4  -1  -3    0.61    0.32
   4  -1  -2    5.88    0.63
   4  -1  -2    5.94    0.65
   4  -1  -1    4.77    0.61
   4  -1  -1    4.71    0.60
   4  -1   0    1.04    0.43
   4  -1   0    1.35    0.39
   4  -1   1    1.31    0.44
   4  -1   2    0.86    0.37
   4  -1   2    2.56    0.41
   4  -1   3   11.59    0.84
   4  -1   3   10.83    0.75
   4  -1   4    0.65    0.27
   4  -1   4    1.19    0.30
   4  -1   5   20.27    0.83
   4   0  -5   15.10    0.79
   4   0  -4   11.02    0.80
   4   0  -3    8.20    0.66
   4   0  -3    7.29    0.77
   4   0  -2   12.40    0.87
   4   0  -2   13.38    1.00
   4   0  -1    4.53    0.59
   4   0  -1    5.21    0.70
   4   0   0    0.74    0.36
   4   0   0    0.00    0.33
   4   0   1    2.62    0.49
   4   0   1    2.63    0.53
   4   0   2   -0.04    0.30
   4   0   2    0.50    0.29
   4   0   3    0.86    0.34
   4   0   3    0.37    0.26
   4   0   4    0.70    0.29
   4   0   5   38.94    1.35
   4   0   5   41.45    1.39
   4   0   6    6.32    0.47
   4   1  -5   15.19    0.75
   4   1  -4    3.39    0.49
   4   1  -3   10.62    0.86
   4   1  -2   10.99    0.93
   4   1  -1    1.28    0.50
   4   1   0    9.15    0.79
   4   1   0   10.32    0.97
   4   1   1   20.06    1.15
   4   1   1   20.07    1.29
   4   1   2    4.12    0.57
   4   1   3    0.39    0.30
   4   1   3   -0.07    0.26
   4   1   4    0.71    0.35
   4   1   4    0.45    0.29
   4   1   5    0.52    0.28
   4   1   5    0.58    0.30
   4   1   6    1.63    0.33
   4   1   6    2.73    0.40
   4   2  -4    6.19    0.54
   4   2  -3   34.78    1.43
   4   2  -2   33.23    1.52
   4   2  -1    1.78    0.50
   4   2   0   10.71    0.97
   4   2   1   65.10    2.37
   4   2   2   13.76    1.10
   4   2   3    5.80    0.65
   4   2   4    6.09    0.68
   4   2   5    9.83    0.85
   4   2   5   11.54    0.84
   4   2   6    0.67    0.33
   4   2   7    0.84    0.28
  -4  -3   4   28.06    0.87
   4   3  -3   77.31    1.93
   4   3  -2   27.73    1.31
   4   3  -1   17.69    1.00
   4   3  -1   20.33    1.20
   4   3   0    4.60    0.56
   4   3   0    5.36    0.69
   4   3   1    0.18    0.30
   4   3   1   -0.57    0.45
   4   3   2    3.46    0.51
   4   3   2    3.18    0.62
   4   3   3    6.31    0.69
   4   3   4    1.04    0.31
   4   3   5    0.52    0.32
   4   3   5    0.69    0.33
   4   3   6   16.20    1.00
   4   3   6   16.18    0.87
   4   3   7    0.82    0.30
  -4  -4   3    2.28    0.29
   4   4  -2  143.25    2.67
   4   4  -1   72.05    2.03
   4   4   0   19.82    1.10
   4   4   0   21.92    1.21
   4   4   1    5.75    0.63
   4   4   1    5.40    0.66
   4   4   2    0.01    0.28
   4   4   2   -0.28    0.35
   4   4   3    2.43    0.45
   4   4   3    3.96    0.55
   4   4   4    2.68    0.50
   4   4   4    4.06    0.56
   4   4   5    0.01    0.31
   4   4   5    0.10    0.29
   4   4   6  111.46    2.63
   4   4   6  112.59    2.47
   4   4   7    0.92    0.34
  -4  -5   2    4.14    0.38
  -4  -5   1   19.19    0.87
   4   5   0    2.14    0.42
   4   5   1   10.27    0.82
   4   5   2    2.23    0.45
   4   5   3    1.39    0.36
   4   5   4    3.42    0.50
   4   5   5    2.20    0.41
   4   5   5    1.90    0.39
   4   5   6    0.34    0.29
   4   5   6    0.45    0.29
   4   5   7   20.43    0.90
  -4  -6   1    1.82    0.26
   4   6  -1    1.60    0.28
  -4  -6   0   18.68    0.78
   4   6   0   17.49    0.89
  -4  -6  -1    9.56    0.57
   4   6   1    8.28    0.67
   4   6   2   10.73    0.79
   4   6   3   18.48    1.03
   4   6   4   56.77    1.80
   4   6   5    0.80    0.28
   4   6   6    5.07    0.52
   4   6   7   17.80    0.80
   4   7   1    0.53    0.22
   4   7   2    0.06    0.22
   4   7   3    0.80    0.28
   4   7   4    1.88    0.35
   4   7   5    1.56    0.31
   4   7   6   16.55    0.77
   0   0   0    0.00    0.00


TITL MN-27g1scaled in P-1
REM P-1 (#2 in standard setting)
CELL 1.54184   3.787821   9.627664  10.340677  63.9946  84.3520  80.2030
ZERR    2.00   0.000311   0.000778   0.000842   0.0080   0.0067   0.0068
LATT  1
SFAC C H N O
UNIT 14.00 14.00 2.00 6.00
TREF
HKLF 4
END
_computing_structure_solution     'SHELXT 2014/5 (Sheldrick, 2014)'
;
_shelx_hkl_checksum              82050
_ins_header
;
TITL MN-27g1scaled in P-1 
REM P-1 (#2 in standard setting)
CELL 1.54184   3.787821   9.627664  10.340677  63.9946  84.3520  80.2030
ZERR    2.00   0.000311   0.000778   0.000842   0.0080   0.0067   0.0068
LATT  1
SFAC C H N O
UNIT 14.00 14.00 2.00 6.00
TREF
HKLF 4
END
;
_olex2_date_sample_submission    2019-05-22
_olex2_exptl_crystal_mounting_method
'The crystal was mounted on a MITIGEN holder with oil'
_olex2_submission_special_instructions 'No special instructions were received'
_oxdiff_exptl_absorpt_empirical_details
;
Empirical correction (ABSPACK) includes:
- Absorption correction using spherical harmonics
- Frame scaling
;
_oxdiff_exptl_absorpt_empirical_full_max 1.361
_oxdiff_exptl_absorpt_empirical_full_min 0.800
loop_
_space_group_symop_operation_xyz
'x, y, z'
'-x, -y, -z'
loop_
_atom_site_label
_atom_site_type_symbol
_atom_site_fract_x
_atom_site_fract_y
_atom_site_fract_z
_atom_site_U_iso_or_equiv
_atom_site_adp_type
_atom_site_occupancy
_atom_site_site_symmetry_order
_atom_site_calc_flag
_atom_site_refinement_flags_posn
_atom_site_refinement_flags_adp
_atom_site_refinement_flags_occupancy
_atom_site_disorder_assembly
_atom_site_disorder_group
O1 O 0.4632(3) 0.82533(11) 0.56439(10) 0.0282(2) Uani 1 1 d . . . . .
O2 O 0.8080(3) 0.66333(11) 0.49093(10) 0.0315(3) Uani 1 1 d . . . . .
O3 O 0.4141(3) 0.24834(11) 0.93952(10) 0.0338(3) Uani 1 1 d . . . . .
N1 N 0.6640(3) 0.40329(13) 0.72631(11) 0.0237(3) Uani 1 1 d . . . . .
H1 H 0.808162 0.402140 0.657033 0.028 Uiso 1 1 calc R . . . .
C1 C 0.6096(3) 0.67772(15) 0.58512(13) 0.0237(3) Uani 1 1 d . . . . .
C2 C 0.5159(3) 0.54927(14) 0.71916(13) 0.0221(3) Uani 1 1 d . . . . .
C3 C 0.6015(3) 0.26151(15) 0.83325(13) 0.0244(3) Uani 1 1 d . . . . .
C4 C 0.7788(4) 0.12249(15) 0.80771(14) 0.0287(3) Uani 1 1 d . . . . .
H4A H 0.913756 0.157809 0.718349 0.034 Uiso 0.349(19) 1 calc R . P . .
H4B H 0.936546 0.055775 0.884980 0.034 Uiso 0.349(19) 1 calc R . P . .
H4C H 0.598646 0.065541 0.803559 0.034 Uiso 0.349(19) 1 calc R . P . .
H4D H 0.718876 0.028274 0.886243 0.034 Uiso 0.651(19) 1 calc R . P . .
H4E H 0.696086 0.130308 0.719612 0.034 Uiso 0.651(19) 1 calc R . P . .
H4F H 1.033986 0.120543 0.801033 0.034 Uiso 0.651(19) 1 calc R . P . .
C5 C 0.3053(3) 0.58024(15) 0.82062(13) 0.0251(3) Uani 1 1 d . . . . .
H5 H 0.248459 0.498964 0.907165 0.030 Uiso 1 1 calc R . . . .
C6 C 0.1720(4) 0.73867(16) 0.79324(15) 0.0278(3) Uani 1 1 d . . . . .
H6 H 0.030506 0.760966 0.862402 0.033 Uiso 1 1 calc R . . . .
C7 C 0.2517(4) 0.85395(16) 0.66826(15) 0.0286(3) Uani 1 1 d . . . . .
H7 H 0.161811 0.956496 0.650845 0.034 Uiso 1 1 calc R . . . .
loop_
_atom_site_aniso_label
_atom_site_aniso_U_11
_atom_site_aniso_U_22
_atom_site_aniso_U_33
_atom_site_aniso_U_23
_atom_site_aniso_U_13
_atom_site_aniso_U_12
O1 0.0343(5) 0.0232(5) 0.0246(5) -0.0094(4) 0.0057(4) -0.0039(4)
O2 0.0378(5) 0.0290(5) 0.0230(5) -0.0098(4) 0.0106(4) -0.0033(4)
O3 0.0434(6) 0.0274(5) 0.0256(5) -0.0088(4) 0.0131(4) -0.0080(4)
N1 0.0263(5) 0.0249(6) 0.0185(5) -0.0092(4) 0.0056(4) -0.0037(4)
C1 0.0245(6) 0.0246(6) 0.0217(6) -0.0101(5) 0.0018(4) -0.0036(5)
C2 0.0220(6) 0.0244(6) 0.0195(6) -0.0090(5) 0.0005(4) -0.0045(4)
C3 0.0251(6) 0.0262(6) 0.0210(6) -0.0092(5) 0.0015(4) -0.0051(5)
C4 0.0312(7) 0.0243(6) 0.0275(6) -0.0096(5) 0.0048(5) -0.0036(5)
C5 0.0255(6) 0.0279(6) 0.0211(6) -0.0100(5) 0.0043(5) -0.0059(5)
C6 0.0270(6) 0.0318(7) 0.0279(6) -0.0172(5) 0.0048(5) -0.0039(5)
C7 0.0306(7) 0.0272(6) 0.0296(7) -0.0155(5) 0.0047(5) -0.0019(5)
loop_
_atom_type_symbol
_atom_type_description
_atom_type_scat_dispersion_real
_atom_type_scat_dispersion_imag
_atom_type_scat_source
C C 0.0181 0.0091 'International Tables Vol C Tables 4.2.6.8 and 6.1.1.4'
H H 0.0000 0.0000 'International Tables Vol C Tables 4.2.6.8 and 6.1.1.4'
N N 0.0311 0.0180 'International Tables Vol C Tables 4.2.6.8 and 6.1.1.4'
O O 0.0492 0.0322 'International Tables Vol C Tables 4.2.6.8 and 6.1.1.4'
loop_
_exptl_crystal_face_index_h
_exptl_crystal_face_index_k
_exptl_crystal_face_index_l
_exptl_crystal_face_perp_dist
0 5 0 0.0157
0 -5 0 0.0157
0 2 7 0.0483
-2 0 0 0.0691
2 0 0 0.0312
-2 -1 -5 0.0278
loop_
_geom_angle_atom_site_label_1
_geom_angle_atom_site_label_2
_geom_angle_atom_site_label_3
_geom_angle
_geom_angle_site_symmetry_1
_geom_angle_site_symmetry_3
_geom_angle_publ_flag
C1 O1 C7 121.81(10) . . ?
C2 N1 H1 116.9 . . ?
C3 N1 H1 116.9 . . ?
C3 N1 C2 126.18(10) . . ?
O1 C1 C2 117.39(11) . . ?
O2 C1 O1 117.60(11) . . ?
O2 C1 C2 125.02(12) . . ?
N1 C2 C1 112.81(11) . . ?
C5 C2 N1 127.44(11) . . ?
C5 C2 C1 119.75(12) . . ?
O3 C3 N1 122.82(12) . . ?
O3 C3 C4 122.54(12) . . ?
N1 C3 C4 114.63(11) . . ?
C3 C4 H4A 109.5 . . ?
C3 C4 H4B 109.5 . . ?
C3 C4 H4C 109.5 . . ?
C3 C4 H4D 109.5 . . ?
C3 C4 H4E 109.5 . . ?
C3 C4 H4F 109.5 . . ?
H4A C4 H4B 109.5 . . ?
H4A C4 H4C 109.5 . . ?
H4A C4 H4D 141.1 . . ?
H4A C4 H4E 56.3 . . ?
H4A C4 H4F 56.3 . . ?
H4B C4 H4C 109.5 . . ?
H4B C4 H4D 56.3 . . ?
H4B C4 H4E 141.1 . . ?
H4B C4 H4F 56.3 . . ?
H4C C4 H4D 56.3 . . ?
H4C C4 H4E 56.3 . . ?
H4C C4 H4F 141.1 . . ?
H4D C4 H4E 109.5 . . ?
H4D C4 H4F 109.5 . . ?
H4E C4 H4F 109.5 . . ?
C2 C5 H5 120.2 . . ?
C2 C5 C6 119.59(12) . . ?
C6 C5 H5 120.2 . . ?
C5 C6 H6 120.2 . . ?
C7 C6 C5 119.66(12) . . ?
C7 C6 H6 120.2 . . ?
O1 C7 H7 119.1 . . ?
C6 C7 O1 121.70(12) . . ?
C6 C7 H7 119.1 . . ?
loop_
_geom_bond_atom_site_label_1
_geom_bond_atom_site_label_2
_geom_bond_distance
_geom_bond_site_symmetry_2
_geom_bond_publ_flag
O1 C1 1.3643(15) . ?
O1 C7 1.3735(16) . ?
O2 C1 1.2130(16) . ?
O3 C3 1.2175(16) . ?
N1 H1 0.8600 . ?
N1 C2 1.3943(16) . ?
N1 C3 1.3700(16) . ?
C1 C2 1.4581(17) . ?
C2 C5 1.3619(17) . ?
C3 C4 1.5103(18) . ?
C4 H4A 0.9600 . ?
C4 H4B 0.9600 . ?
C4 H4C 0.9600 . ?
C4 H4D 0.9600 . ?
C4 H4E 0.9600 . ?
C4 H4F 0.9600 . ?
C5 H5 0.9300 . ?
C5 C6 1.4314(18) . ?
C6 H6 0.9300 . ?
C6 C7 1.331(2) . ?
C7 H7 0.9300 . ?
loop_
_exptl_oxdiff_crystal_face_indexfrac_h
_exptl_oxdiff_crystal_face_indexfrac_k
_exptl_oxdiff_crystal_face_indexfrac_l
_exptl_oxdiff_crystal_face_x
_exptl_oxdiff_crystal_face_y
_exptl_oxdiff_crystal_face_z
-0.0002 4.9956 0.0027 0.5311 -0.6965 -0.1997
0.0002 -4.9956 -0.0027 -0.5311 0.6965 0.1997
0.0009 2.0061 7.0035 0.6605 0.4915 0.6638
-1.9950 -0.0016 -0.0060 0.4390 0.3554 -0.5995
1.9950 0.0016 0.0060 -0.4390 -0.3554 0.5995
-1.9957 -1.0063 -5.0082 0.0127 -0.0554 -1.0907
loop_
_hkl_oxdiff_h
_hkl_oxdiff_k
_hkl_oxdiff_l
_hkl_oxdiff_f2
_hkl_oxdiff_sig
_hkl_oxdiff_ba
0 0 -1 21507.5 290.349 3
0 0 -2 22617.3 390.906 3
0 0 2 22864.0 361.088 7
0 0 3 46445.7 677.955 7
0 0 -3 48760.3 733.205 3
0 0 -3 48065.6 749.054 6
0 0 -4 11808.8 379.812 3
0 0 4 12126.5 341.202 7
0 0 -4 12362.5 400.251 6
0 0 -5 189.027 64.0174 6
0 0 -6 425.808 100.405 6
0 0 -7 -7.43995 52.2138 6
0 0 8 15422.6 382.955 32
0 0 8 14938.1 348.258 11
0 0 8 15431.4 331.000 22
0 0 9 8324.47 231.151 22
0 0 9 8133.35 269.703 32
0 0 9 8129.18 247.519 11
0 0 10 494.688 63.3315 13
0 0 10 561.832 66.4763 32
0 0 11 680.538 54.2940 13
0 -1 11 718.623 43.3588 13
0 -1 10 4161.77 159.786 32
0 -1 10 4252.56 147.623 13
0 -1 9 1479.14 103.230 13
0 -1 9 1564.33 94.4465 22
0 -1 9 1506.98 113.538 32
0 -1 8 3140.13 143.208 22
0 -1 8 3203.95 173.999 32
0 -1 7 4306.58 165.179 22
0 -1 7 4111.87 169.076 11
0 1 -6 94.4716 61.6983 6
0 1 -5 3567.36 259.233 6
0 1 -4 74152.4 1190.57 6
0 -1 4 74494.7 1142.32 7
0 1 -3 4087.47 207.853 6
0 1 -2 40652.5 635.944 6
0 1 -1 5508.28 163.025 6
0 1 0 38258.0 463.516 5
0 1 0 39000.9 462.318 6
0 1 1 28.5869 19.3912 5
0 -1 -1 9.44685 13.0845 10
0 -1 -2 178580. 1643.76 1
0 -1 -2 180309. 1635.88 9
0 1 2 180385. 1703.20 4
0 1 3 155.764 38.0245 7
0 -1 -3 208.502 52.6412 3
0 -1 -4 1337.49 124.337 3
0 1 4 1487.70 103.606 7
0 -1 -5 14493.5 473.513 3
0 -1 -5 14259.1 485.060 6
0 -1 -6 2058.82 201.510 3
0 -1 -6 2081.20 203.514 6
0 -1 -7 0.84494 51.8113 6
0 1 8 534.190 63.9543 11
0 1 8 406.663 52.6614 22
0 1 8 441.777 67.5031 32
0 1 9 25335.6 492.985 32
0 1 9 25101.6 471.496 11
0 1 9 24787.9 445.016 22
0 1 10 18097.5 386.124 32
0 1 10 18479.3 343.827 22
0 1 10 18938.4 377.682 11
0 1 11 557.235 56.8297 13
0 -2 10 581.446 54.0675 32
0 -2 10 644.688 50.0974 13
0 -2 9 2470.65 119.050 13
0 -2 9 2293.68 102.950 22
0 -2 9 2446.31 135.156 32
0 -2 8 898.727 77.3031 22
0 -2 8 895.513 93.0822 32
0 -2 8 998.717 85.5577 13
0 -2 7 2477.73 137.949 13
0 -2 7 2473.53 128.872 22
0 2 -6 6800.72 432.371 6
0 2 -5 69.5804 52.2637 6
0 2 -4 11205.4 445.476 6
0 2 -3 27260.0 635.750 6
0 2 -2 142115. 1674.05 6
0 2 -1 442.852 64.4969 6
0 2 0 104208. 1161.54 5
0 2 1 1150.05 86.6730 5
0 2 2 369.879 58.3274 5
0 -2 -2 332.190 48.3174 10
0 2 3 7225.00 202.257 4
0 -2 -3 6718.86 185.015 9
0 2 4 14473.6 316.339 8
0 -2 -4 13914.8 415.425 3
0 -2 -5 28531.9 685.766 3
0 -2 -6 19151.5 614.037 3
0 -2 -6 19324.9 623.588 6
0 -2 -7 4355.56 321.498 3
0 -2 -7 4390.12 327.640 6
0 -2 -8 16553.9 689.877 3
0 2 8 16046.9 357.446 11
0 -2 -8 15320.2 679.714 6
0 2 9 5417.74 205.741 11
0 2 9 5246.44 186.420 22
0 2 10 26.0355 36.1791 11
0 2 10 60.4157 25.7815 22
0 2 11 7516.19 207.687 11
0 2 12 376.502 38.3183 13
0 -3 9 1556.75 80.4415 13
0 -3 9 1729.98 99.2847 32
0 -3 8 7821.95 225.009 13
0 -3 8 8021.69 259.272 32
0 -3 7 275.680 47.8638 22
0 -3 7 435.394 63.5104 13
0 -3 6 1328.36 101.396 13
0 -3 6 1449.63 100.756 22
0 3 -5 2307.48 252.080 6
0 3 -4 11199.7 497.663 6
0 3 -3 213.807 74.3354 6
0 3 -2 35334.8 758.131 6
0 3 -1 1850.25 152.089 6
0 3 -1 1885.88 149.411 5
0 3 0 2338.18 150.644 5
0 3 1 2614.03 152.171 5
0 3 2 1465.71 121.040 5
0 -3 -2 1421.96 113.269 10
0 -3 -3 76197.7 990.748 10
0 3 3 79978.9 1123.45 5
0 -3 -4 3112.78 202.938 3
0 3 4 3228.80 150.901 4
0 -3 -4 3214.41 155.815 9
0 -3 -5 164.221 66.0702 3
0 -3 -6 77.7093 60.1689 3
0 -3 -7 25280.2 815.077 6
0 -3 -7 25595.2 805.236 3
0 -3 -8 4195.03 343.662 3
0 -3 -8 3984.26 341.759 6
0 3 9 5969.59 216.994 11
0 3 10 9838.90 252.624 22
0 3 10 10013.2 279.678 11
0 3 11 92.7195 25.5982 22
0 3 11 139.047 38.1029 11
0 3 12 2457.94 97.5554 13
0 -4 9 408.392 37.6000 32
0 -4 8 40.5007 25.9096 13
0 -4 8 107.912 31.5997 32
0 4 -7 5228.08 181.290 33
0 -4 7 5727.32 189.569 13
0 -4 7 5511.60 212.726 32
0 -4 6 -63.0029 37.3068 13
0 4 -6 36.4409 31.4716 33
0 -4 5 403.793 60.4820 13
0 -4 5 294.535 50.3639 22
0 4 -4 -55.1397 63.8161 6
0 4 -3 278.298 90.5810 6
0 4 -2 794.849 126.956 6
0 4 -1 14643.3 464.826 5
0 4 0 3526.25 208.574 5
0 -4 -1 111567. 1540.60 10
0 4 1 111308. 1446.79 5
0 4 2 4682.90 238.325 5
0 -4 -2 4547.74 243.971 10
0 4 3 1207.45 130.005 5
0 -4 -3 1112.20 119.024 10
0 -4 -4 23707.1 532.705 10
0 -4 -5 1254.42 153.915 3
0 -4 -6 20464.6 679.463 3
0 -4 -7 4410.10 339.221 3
0 -4 -8 2550.71 279.672 6
0 -4 -8 2789.44 289.353 3
0 4 9 652.061 76.2384 11
0 4 10 3578.91 165.164 11
0 4 11 738.790 70.6175 11
0 4 11 691.745 59.6169 22
0 4 12 74.0041 26.2744 11
0 -5 8 336.834 34.7254 32
0 -5 7 795.509 73.5782 32
0 -5 7 814.137 61.1530 13
0 5 -6 742.085 72.6572 33
0 -5 6 724.650 69.0964 13
0 -5 5 1053.52 85.9885 13
0 5 -5 966.343 100.965 33
0 5 -4 397.521 67.3078 33
0 -5 4 588.584 68.1309 13
0 -5 3 10018.5 546.077 10
0 -5 2 17.1290 56.3006 10
0 -5 1 29.4842 57.5618 10
0 -5 0 561.145 125.550 10
0 5 1 274.412 75.7348 5
0 -5 -1 435.588 105.449 10
0 -5 -2 9609.98 419.972 10
0 5 2 9221.12 379.689 5
0 5 3 90778.0 1404.41 5
0 -5 -3 88908.0 1411.39 10
0 5 4 8627.66 405.969 5
0 -5 -4 8933.98 373.327 10
0 -5 -5 124.192 67.8496 3
0 -5 -6 3555.56 294.612 3
0 -5 -7 10616.4 546.774 3
0 5 8 424.424 62.1536 11
0 5 9 335.958 56.2528 16
0 5 9 331.977 61.2555 11
0 5 10 46.6732 40.7559 11
0 5 11 4007.11 142.980 22
0 5 11 4153.33 163.686 11
0 5 12 1235.71 73.7637 11
0 -6 7 719.661 43.0526 29
0 -6 6 237.649 40.3981 32
0 -6 6 271.943 36.0984 13
0 -6 5 1152.06 80.9241 13
0 6 -5 1119.33 86.0503 33
0 -6 4 4190.96 162.170 13
0 6 -4 3870.26 171.433 33
0 6 -3 606.777 75.6395 33
0 -6 3 704.492 69.4359 13
0 6 -2 30328.4 536.813 33
0 -6 1 53960.0 1347.55 10
0 -6 0 1421.53 212.568 10
0 -6 -1 35323.5 995.232 10
0 -6 -2 16038.6 625.152 10
0 -6 -3 2007.99 212.242 10
0 6 4 7811.79 407.087 5
0 -6 -4 8103.17 408.150 10
0 -6 -5 8.07066 52.2308 3
0 -6 -6 2768.64 277.413 3
0 -6 -7 -78.8086 74.5221 3
0 6 8 4966.88 199.387 11
0 -6 -9 10472.6 285.597 19
0 6 9 10506.3 299.105 11
0 6 10 299.334 53.1443 11
0 -6 -10 362.242 51.0982 19
0 6 11 4064.25 160.276 11
0 6 12 1952.56 90.4485 11
0 -7 6 39.1285 14.8379 29
0 -7 5 5432.03 160.701 29
0 7 -4 83.8235 33.6833 33
0 7 -3 1655.65 113.890 33
0 7 -2 14744.5 359.390 33
0 7 -1 14780.5 363.683 33
0 7 0 10022.9 291.143 33
0 -7 -1 10286.5 580.260 10
0 -7 -2 7138.05 469.668 10
0 -7 -3 3382.93 312.730 10
0 -7 -4 477.560 116.807 10
0 -7 -5 1990.90 239.918 3
0 7 6 5231.25 208.488 33
0 7 7 690.550 81.2981 33
0 7 8 32754.1 569.318 11
0 -7 -9 2150.99 130.273 19
0 7 9 2041.78 128.300 11
0 -7 -10 508.083 62.2227 19
0 7 10 599.602 69.6299 11
0 7 11 13242.2 285.323 11
0 7 12 1173.92 65.8320 11
0 -8 4 1290.28 71.1649 29
0 8 -3 412.543 49.9182 33
0 -8 3 595.005 61.4824 29
0 8 -2 1219.04 94.7631 33
0 -8 2 1341.11 95.1296 29
0 8 -1 7060.07 243.159 33
0 -8 1 7352.02 230.948 29
0 8 0 288.761 57.1370 33
0 -8 0 334.864 56.7765 29
0 8 1 12073.7 330.940 33
0 -8 -1 12230.3 296.446 29
0 8 2 1956.58 134.016 33
0 8 3 2313.68 143.223 33
0 8 4 1576.72 118.622 33
0 8 5 932.576 93.6835 33
0 8 6 16.0090 30.4363 26
0 8 6 95.9779 49.6402 33
0 8 7 31167.9 577.563 33
0 8 8 2837.47 161.641 33
0 8 9 30.0221 32.3942 11
0 -8 -10 2201.82 117.092 19
0 8 10 2174.37 115.905 11
0 8 11 42.0715 25.4624 11
0 -8 -11 0.03355 20.7415 19
0 8 12 8.71585 14.0382 11
0 -9 3 3681.19 102.887 29
0 -9 2 802.215 58.6135 29
0 9 -2 693.907 57.4053 33
0 -9 1 423.150 50.6952 29
0 9 -1 429.370 54.2654 33
0 -9 0 51.4251 25.2938 29
0 9 0 64.2834 37.3157 33
0 9 1 43.5890 36.9851 33
0 -9 -1 24.9207 28.0300 29
0 9 2 5400.40 217.163 33
0 9 3 2535.34 151.387 33
0 9 4 1114.44 103.748 33
0 9 5 -3.92335 38.6663 33
0 9 5 40.2259 36.1091 26
0 9 6 2475.98 142.100 26
0 9 6 2828.59 158.432 33
0 9 7 174.764 52.5603 33
0 9 8 4703.47 195.882 33
0 9 8 4355.84 174.555 11
0 9 9 6817.16 206.092 11
0 9 10 544.645 54.0330 11
0 -9 -10 527.282 55.7247 19
0 9 11 3083.71 101.935 11
0 -9 -11 3046.69 100.836 19
0 -10 1 91.3358 19.3034 29
0 -10 0 3476.93 110.817 29
0 10 0 3636.32 128.815 33
0 10 1 18.2853 26.0696 33
0 -10 -1 2.80374 18.0464 29
0 10 2 251.649 45.5262 33
0 10 3 2.19226 29.3418 33
0 10 4 360.877 60.3857 26
0 10 4 417.439 63.6278 33
0 10 5 4999.77 195.036 33
0 10 5 4776.84 187.916 26
0 10 6 1623.91 104.530 26
0 10 6 1634.72 112.487 33
0 -10 -7 2996.47 120.995 21
0 10 7 3134.60 149.924 33
0 10 8 141.948 32.3750 11
0 -10 -9 59.9798 26.6550 19
0 10 9 155.330 30.9493 11
0 10 10 84.8771 21.4028 11
0 -10 -10 76.3594 23.9278 19
0 11 1 1809.75 74.7802 26
0 11 2 183.993 28.6398 33
0 11 2 181.605 31.1029 26
0 11 3 2016.17 99.3708 26
0 11 3 2105.36 96.7207 33
0 11 4 850.770 67.2765 33
0 11 4 821.229 65.4687 26
0 11 5 33.4951 26.7710 33
0 11 5 -6.02031 20.7423 26
0 11 6 129.560 30.5455 26
0 11 6 135.012 36.3499 33
0 11 7 571.487 55.3480 33
0 -11 -8 86.8132 24.3816 19
0 -11 -9 524.008 41.2513 19
1 -11 -6 1348.77 59.1610 21
1 -11 -5 56.0731 16.3254 21
1 -11 -4 12.7467 12.8850 21
1 -10 -9 1543.61 69.8295 19
1 -10 -8 168.106 29.9205 19
1 -10 -8 151.345 26.3391 21
1 -10 -7 882.198 61.8500 19
1 -10 -7 751.436 58.0671 21
1 -10 -6 11.7857 16.7481 19
1 -10 -6 -3.82713 21.0622 21
-1 10 5 854.190 70.0196 33
1 -10 -4 263.139 35.3742 24
-1 10 4 197.682 38.4814 33
1 -10 -3 189.223 31.7748 24
1 -10 -2 1487.64 74.4873 24
1 -10 -1 1371.97 66.9571 24
1 -10 0 508.099 36.2061 24
1 -9 -10 5.15102 17.7918 19
1 -9 -9 3223.27 129.262 19
1 -9 -8 183.720 35.2469 21
1 -9 -8 166.229 37.4719 19
1 -9 -7 2.66164 24.3189 19
1 -9 -7 41.4865 24.9348 21
-1 9 6 17.4777 37.8263 33
1 -9 -6 -0.85255 27.0148 21
1 -9 -5 1786.51 97.5656 24
-1 9 5 1861.38 118.660 33
1 -9 -4 667.808 64.2716 24
-1 9 4 669.239 73.1345 33
-1 9 3 4793.78 180.287 33
-1 9 2 240.906 42.9200 33
1 -9 -1 138.770 34.2615 28
1 -9 -1 140.035 38.5204 29
1 -9 0 6.40830 21.4561 29
1 -9 0 15.9739 21.8726 28
1 -9 1 45.8479 22.7794 29
1 -9 1 29.7837 21.8049 28
1 -9 2 2605.28 89.4246 29
1 -8 -11 54.4998 20.7271 19
1 -8 -10 0.61999 21.5551 19
1 -8 -9 4996.16 184.726 19
1 -8 -8 287.680 46.6360 21
1 -8 -8 198.664 51.2190 19
1 -8 -7 11103.3 289.405 21
1 -8 -7 11259.7 303.801 19
-1 8 6 5788.22 228.120 33
-1 8 5 1020.88 95.1446 33
1 -8 -5 1094.69 83.6867 24
1 -8 -4 7533.42 228.901 24
-1 8 4 7617.02 253.259 33
-1 8 3 441.008 66.9756 33
1 -8 -3 453.133 56.3530 28
1 -8 -2 701.493 71.6213 28
-1 8 2 544.196 67.7188 33
1 -8 -2 573.116 67.9454 29
1 -8 -1 1523.31 107.669 29
1 -8 -1 1282.71 91.1479 28
1 -8 0 5449.49 182.406 28
1 -8 0 5652.15 199.229 29
1 -8 1 -26.3417 27.7572 28
1 -8 1 59.7861 34.6542 29
1 -8 2 439.390 53.7812 29
1 -8 2 385.428 45.3372 28
1 -8 3 -6.85506 19.6782 29
1 -8 3 12.4593 17.8953 28
1 -7 -11 145.050 27.3331 19
1 -7 -10 84.1568 31.8015 19
1 -7 -9 601.316 73.6615 19
1 -7 -8 6616.70 215.009 21
1 -7 -8 6725.48 238.441 19
1 -7 -7 2072.58 124.345 21
1 -7 -7 1957.50 128.712 19
-1 7 6 599.325 78.4221 33
1 -7 -5 30320.0 496.092 24
-1 7 5 30064.1 550.736 33
-1 7 4 97.7111 40.4212 33
-1 7 3 164.895 49.8177 33
1 -7 -3 222.618 46.4636 29
1 -7 -3 290.179 48.9799 28
1 -7 -2 2015.77 112.916 28
-1 7 2 1939.63 122.272 33
1 -7 -2 2083.64 121.755 29
1 -7 -1 3497.46 161.873 29
1 -7 -1 3453.27 149.399 28
1 -7 0 2446.18 127.782 28
1 -7 0 2323.73 131.960 29
1 -7 1 6546.25 227.691 29
1 -7 1 6276.09 206.570 28
1 -7 2 515.693 64.0526 29
1 -7 2 587.497 68.1745 28
1 -7 3 4877.95 167.398 28
1 -7 3 5311.25 183.509 29
1 -7 4 915.928 65.2689 28
1 -7 4 1132.40 75.4437 29
1 -7 5 1247.52 58.7661 28
1 -7 5 1235.34 60.7466 29
-1 6 12 18.9222 13.2665 22
-1 6 11 34.1587 19.2190 11
1 -6 -10 1444.63 99.4533 19
-1 6 10 1626.39 94.4167 11
1 -6 -9 17551.4 389.687 19
-1 6 9 17398.0 353.330 11
1 -6 -8 2656.23 136.124 21
1 -6 -8 2831.48 154.042 19
1 -6 -7 7414.42 235.731 21
1 -6 -7 7682.78 254.673 19
1 -6 -6 53525.8 746.986 21
-1 6 6 52054.6 794.030 33
1 -6 -5 3946.27 337.137 9
1 -6 -4 2868.52 294.387 9
1 -6 -3 907.079 172.745 10
1 -6 -2 252.739 103.004 10
1 -6 -1 3950.49 350.096 10
1 -6 0 4004.68 357.707 10
1 -6 1 16408.5 360.450 29
1 -6 2 10996.7 290.040 13
1 -6 2 10800.1 294.699 29
1 -6 3 4460.70 182.644 13
1 -6 3 4362.93 181.422 29
1 -6 4 4883.64 182.766 13
1 -6 4 4822.60 177.558 29
1 -6 5 134.552 31.8268 29
1 -6 6 107.314 22.7359 29
1 -6 6 147.513 25.8646 28
-1 5 12 103.429 20.2453 22
-1 5 11 1230.51 74.8160 11
-1 5 11 1225.16 78.0054 22
1 -5 -10 3864.44 161.704 19
-1 5 10 3875.72 153.549 11
1 -5 -9 11968.6 318.560 19
-1 5 9 12102.7 298.086 11
1 -5 -8 1712.37 107.890 21
-1 5 8 1670.39 107.244 11
1 -5 -8 1680.80 118.223 19
1 -5 -7 7989.22 236.667 21
1 -5 -7 8184.64 255.912 19
1 -5 -6 14188.3 616.681 3
1 -5 -5 711.994 136.511 9
1 -5 -5 748.075 138.351 3
1 -5 -4 6600.82 397.845 9
1 -5 -4 6433.58 351.125 3
1 -5 -3 218.200 83.0107 10
1 -5 -2 5321.67 356.040 10
1 -5 -1 -22.0536 70.2934 10
1 -5 0 9923.67 513.141 10
1 -5 1 11854.6 574.205 10
1 -5 2 1338.61 199.337 10
1 -5 3 43241.1 660.889 13
1 -5 4 25092.6 470.051 13
1 -5 5 41.2695 31.6562 29
1 -5 5 99.0810 38.4501 13
1 -5 6 1452.34 92.8260 13
1 -5 6 1324.11 81.4302 29
1 -5 7 1467.00 77.6437 13
-1 4 12 554.647 39.4849 22
-1 4 11 235.378 37.8178 22
-1 4 11 131.042 32.3955 11
-1 4 10 3412.73 147.650 11
-1 4 9 6206.18 211.384 11
1 -4 -9 5928.87 217.965 19
1 -4 -8 28.8638 33.5180 19
-1 4 8 0.05704 30.4807 11
1 -4 -7 3401.20 317.263 3
1 -4 -7 3271.99 304.769 6
1 -4 -6 653.851 133.145 3
1 -4 -5 15349.7 570.684 3
1 -4 -5 16118.9 575.736 9
1 -4 -4 8567.11 414.980 9
1 -4 -4 8421.12 382.889 3
1 -4 -3 111.056 51.8576 3
1 -4 -2 3992.63 277.754 10
1 -4 -2 3679.18 201.542 3
1 -4 -1 105124. 1654.17 10
1 -4 0 12761.9 515.590 10
1 -4 1 2393.37 230.331 10
1 -4 2 386.360 106.296 10
1 -4 3 2730.17 308.197 7
1 -4 4 35.8922 32.4937 13
1 -4 5 5270.24 200.541 13
1 -4 5 5075.82 202.265 32
1 -4 6 52.8309 34.7563 32
1 -4 6 67.5605 37.3088 13
1 -4 7 677.818 68.3801 13
1 -4 7 689.828 71.2672 32
1 -4 8 289.679 38.7373 13
-1 3 12 743.369 42.2465 22
-1 3 11 4866.48 152.926 22
-1 3 10 35.1100 32.1187 22
-1 3 10 64.8596 32.0171 11
1 -3 -9 328.801 55.8591 19
-1 3 9 359.587 58.1712 11
-1 3 8 3602.39 159.918 11
1 -3 -8 3892.76 171.020 19
1 -3 -7 3340.78 308.124 6
1 -3 -7 3341.68 310.056 3
1 -3 -6 1113.84 161.984 3
1 -3 -6 1165.44 169.025 6
1 -3 -5 721.088 119.405 3
1 -3 -5 534.003 104.439 1
1 -3 -4 16939.6 547.068 1
1 -3 -4 16644.6 527.612 3
1 -3 -4 16803.2 535.049 9
1 -3 -3 48.4904 54.6504 9
1 -3 -3 152.269 65.4761 1
1 -3 -3 37.7439 36.5192 3
1 -3 -2 30675.4 587.784 3
1 -3 -2 29737.3 702.282 10
1 -3 -1 3171.14 147.639 3
1 -3 -1 2909.30 212.419 10
1 -3 0 3185.80 227.496 10
1 -3 1 61292.3 1108.37 10
1 -3 2 1727.53 174.491 10
1 -3 3 11749.5 474.988 10
1 -3 3 11483.3 565.038 7
1 -3 4 51.8748 64.8996 7
1 -3 5 82.2448 35.8051 32
1 -3 5 1.51371 32.5413 13
1 -3 5 60.0210 49.4505 27
1 -3 6 177.489 44.3384 13
1 -3 6 182.840 46.0408 32
1 -3 7 468.392 69.7046 32
1 -3 7 417.712 62.1693 13
1 -3 8 227.294 39.0087 23
1 -3 8 263.796 52.8079 32
1 -3 8 285.749 47.4883 13
1 -3 9 2900.83 102.682 13
-1 2 11 828.997 60.9070 22
-1 2 10 3577.38 150.879 22
-1 2 10 3623.47 153.712 11
-1 2 9 927.846 84.7442 11
-1 2 9 940.050 86.2762 22
-1 2 8 14478.4 336.396 11
1 -2 -8 14409.8 339.128 19
1 -2 -7 6200.52 424.782 6
1 -2 -6 17471.3 645.700 6
1 -2 -6 17229.2 656.795 3
1 -2 -5 56821.1 1061.85 1
1 -2 -5 53191.8 1099.93 3
1 -2 -5 54258.1 1096.56 6
1 -2 -4 5747.41 295.404 1
1 -2 -4 5593.01 295.968 3
1 -2 -3 1379.84 129.752 3
1 -2 -3 1412.47 144.812 9
1 -2 -3 1507.55 144.970 1
1 -2 -2 964.595 115.780 1
1 -2 -2 899.764 91.7986 3
1 -2 -2 898.640 112.849 9
1 -2 -1 73179.1 878.490 3
1 -2 -1 72040.4 1115.34 1
1 -2 -1 73913.5 1098.01 10
1 -2 -1 73253.4 911.077 8
1 -2 0 2151.79 74.3988 3
1 -2 0 2257.90 168.031 10
1 -2 1 12675.7 399.964 10
1 -2 2 2135.13 167.115 10
1 -2 3 1001.55 124.266 10
1 -2 3 905.045 146.164 7
1 -2 4 8273.24 465.468 7
1 -2 5 772.918 156.647 7
1 -2 6 3757.15 164.706 14
1 -2 6 3790.07 156.556 27
1 -2 6 3731.33 178.410 32
1 -2 6 3736.59 164.320 13
1 -2 7 1323.67 112.231 32
1 -2 7 1385.10 104.326 13
1 -2 8 1.54729 28.5175 13
1 -2 8 62.2004 37.4691 32
1 -2 9 1117.22 79.5366 13
1 -2 10 3569.03 104.249 13
-1 1 11 24.2005 19.4584 22
-1 1 11 31.5284 21.8940 13
-1 1 10 1525.45 94.0852 22
-1 1 9 15172.1 344.140 22
-1 1 9 15335.7 349.750 11
-1 1 8 1827.87 116.253 22
-1 1 8 1839.71 119.514 11
1 -1 -7 977.877 175.801 6
1 -1 -6 9600.28 484.781 6
1 -1 -5 17262.0 584.339 6
1 -1 -5 17486.0 544.081 1
1 -1 -5 16675.8 586.043 3
1 -1 -4 38837.2 817.335 6
1 -1 -4 38903.5 838.358 3
1 -1 -3 23971.9 563.436 3
1 -1 -3 23967.5 573.873 1
1 -1 -3 24771.5 547.743 6
1 -1 -2 16363.9 250.689 7
1 -1 -2 16881.0 453.379 1
1 -1 -2 16800.6 377.742 6
1 -1 -2 16875.1 455.634 9
1 -1 -2 17030.1 402.267 3
1 -1 -1 9978.24 218.396 4
1 -1 -1 10248.2 334.742 1
1 -1 -1 10233.7 251.260 3
1 -1 -1 9883.42 255.848 7
1 -1 0 1738.00 65.6738 5
1 -1 0 1952.10 142.887 9
1 -1 0 1967.54 135.308 7
1 -1 0 1999.03 126.320 8
1 -1 0 1789.13 107.475 4
1 -1 0 1603.29 47.0324 6
1 -1 0 1763.97 135.420 1
1 -1 1 40.6962 34.5053 4
1 -1 1 33.8997 48.7381 7
1 -1 1 65.6216 40.8623 10
1 -1 2 40559.1 818.560 7
1 -1 2 41426.9 681.545 10
-1 1 -2 38888.7 500.803 6
1 -1 3 -3.58851 28.9861 10
1 -1 3 102.461 67.3978 7
1 -1 4 73965.2 1380.39 7
1 -1 5 11865.7 550.041 7
1 -1 6 1627.20 222.481 7
1 -1 6 1907.68 252.665 8
1 -1 7 44.9938 44.9620 14
1 -1 7 24.5634 39.5222 32
1 -1 7 23.7736 31.2078 13
1 -1 7 -19.7228 39.2338 27
1 -1 8 4846.04 190.114 13
1 -1 8 4690.71 187.956 14
1 -1 8 4765.41 211.894 32
1 -1 9 1142.07 88.0755 13
1 -1 9 1139.21 100.768 32
1 -1 10 -5.46107 21.2582 13
-1 0 11 702.200 43.7444 13
-1 0 11 660.133 42.3432 22
-1 0 10 577.618 56.0351 22
-1 0 10 604.564 57.7138 13
-1 0 9 2917.54 140.013 22
-1 0 8 32715.3 546.058 22
-1 0 8 32840.2 558.711 11
-1 0 7 35286.7 571.170 11
-1 0 7 35684.6 565.561 22
1 0 -6 4382.75 339.019 6
1 0 -5 221.050 67.9443 2
1 0 -5 292.358 91.3822 6
1 0 -4 381.498 81.3327 2
1 0 -4 322.060 83.3160 6
1 0 -3 25158.8 562.512 2
1 0 -3 25383.9 585.020 6
1 0 -2 1865.44 129.133 6
1 0 -2 1678.97 132.128 2
1 0 -1 138.718 42.4844 2
1 0 -1 124.957 32.4457 6
1 0 0 158286. 1662.02 7
1 0 0 155818. 1736.12 9
1 0 0 158195. 1445.95 6
1 0 1 723.862 89.1691 8
1 0 1 784.703 62.0152 5
1 0 1 712.650 88.4233 7
1 0 1 735.428 84.9024 4
1 0 1 847.048 83.9370 1
1 0 1 661.138 75.0357 9
1 0 2 74.7233 45.7245 8
1 0 2 121.917 37.4144 9
-1 0 -2 104.690 15.8957 3
1 0 2 48.1709 45.2632 7
1 0 2 157.763 51.9954 4
-1 0 -2 107.724 19.1593 6
1 0 3 1571.93 96.3191 9
1 0 3 1457.94 156.383 8
1 0 3 1511.46 154.933 7
1 0 3 1252.02 142.876 4
-1 0 -3 1534.43 95.0186 6
1 0 4 1086.29 152.097 8
-1 0 -4 1239.34 105.498 6
1 0 4 1315.11 157.080 7
1 0 5 193.575 88.4356 8
1 0 5 218.695 82.9163 7
1 0 6 21708.0 802.759 8
1 0 6 23130.3 775.264 7
1 0 7 1500.95 234.378 8
1 0 7 1496.54 103.351 14
1 0 7 1475.35 101.808 13
1 0 7 1630.11 118.073 32
1 0 8 -57.8047 50.4787 27
1 0 8 62.3641 49.5938 14
1 0 8 54.9077 33.7295 13
1 0 8 3.73829 34.7826 32
1 0 9 3332.49 153.690 13
1 0 9 3508.71 157.904 14
1 0 9 3342.69 174.519 32
1 0 10 2228.62 111.512 13
1 0 11 691.481 48.6295 13
-1 -1 10 2683.81 103.953 22
-1 -1 10 2606.46 99.4274 13
-1 -1 9 111.041 34.9551 13
-1 -1 9 220.188 42.8269 22
-1 -1 9 133.660 38.9700 32
-1 -1 8 5686.58 204.410 22
-1 -1 7 16437.1 362.883 22
1 1 -6 21969.4 809.126 6
1 1 -5 215.199 68.7186 2
1 1 -5 277.654 95.9952 6
1 1 -4 -5.32046 35.9756 2
1 1 -4 101.489 53.9111 6
1 1 -3 274.355 68.6288 2
1 1 -3 222.679 65.8988 6
1 1 -2 6375.89 265.620 2
1 1 -2 6370.19 261.488 6
1 1 -1 23797.1 494.788 2
1 1 -1 24778.6 471.980 6
1 1 0 76321.1 897.694 6
1 1 0 76889.2 966.231 2
1 1 1 9740.04 244.638 2
1 1 1 10256.9 293.324 5
1 1 2 999999. 8641.62 1
1 1 2 999937. 8807.67 5
1 1 3 7709.64 278.704 5
1 1 3 7928.71 324.686 7
-1 -1 -3 8371.12 232.233 3
1 1 3 7896.82 325.712 4
1 1 3 7860.35 326.847 8
1 1 4 298.055 75.0346 8
-1 -1 -4 306.286 56.9906 3
1 1 4 314.979 77.1372 4
-1 -1 -4 252.483 57.4452 6
1 1 4 174.266 68.3602 7
1 1 5 23447.2 689.131 7
1 1 5 24678.5 727.315 8
-1 -1 -5 25127.0 584.736 6
1 1 6 7445.58 406.452 7
1 1 6 6786.59 407.949 8
1 1 7 32.3453 66.4452 8
1 1 8 901.437 83.9885 14
1 1 8 1012.33 98.8504 32
1 1 9 242.788 54.7103 32
1 1 9 361.501 64.2621 14
1 1 9 373.583 55.7792 13
1 1 10 6384.81 199.261 14
1 1 10 5950.07 192.173 13
1 1 11 3056.03 112.828 13
1 2 -10 603.980 44.5595 33
-1 -2 9 666.433 56.9578 13
-1 -2 9 605.984 57.0440 22
-1 -2 9 633.524 64.1976 32
-1 -2 8 7072.35 211.308 13
-1 -2 8 7058.99 219.416 22
-1 -2 7 2734.95 143.646 22
-1 -2 6 1598.22 107.943 22
1 2 -6 1827.84 113.542 20
1 2 -5 4478.81 310.131 2
1 2 -5 3922.61 329.025 6
1 2 -4 290.707 90.5505 6
1 2 -4 404.598 89.4400 2
1 2 -3 5665.22 313.702 6
1 2 -2 80715.4 1237.35 6
1 2 -1 6999.61 278.754 6
1 2 0 63925.2 897.900 6
1 2 0 62161.4 1033.27 5
1 2 1 29078.7 621.475 5
1 2 2 110304. 1177.54 2
1 2 2 112078. 1433.84 5
1 2 3 229.789 28.2584 1
1 2 3 214.347 64.1060 5
1 2 3 158.789 67.1295 4
1 2 4 52235.1 946.437 5
-1 -2 -4 51570.8 832.320 3
1 2 4 50998.5 962.189 4
-1 -2 -5 100.954 47.9055 3
1 2 5 40.7625 45.4796 4
1 2 5 4.93556 40.5412 8
-1 -2 -6 266.651 67.7803 6
1 2 6 193.029 77.6905 8
1 2 7 2906.92 275.445 8
1 2 8 1781.22 110.220 11
1 2 8 1877.53 123.272 16
1 2 8 1783.89 123.845 32
1 2 9 710.490 73.4661 14
1 2 9 773.117 75.0174 11
1 2 10 112.260 41.6431 14
1 2 10 186.111 42.8979 13
1 2 10 163.464 36.0384 11
1 2 11 11671.6 249.437 14
1 2 11 11464.3 243.299 13
1 2 12 6036.90 140.508 23
1 3 -9 372.912 42.1615 33
-1 -3 9 392.788 44.4904 32
-1 -3 8 748.371 67.3352 22
-1 -3 7 2306.54 128.834 22
-1 -3 6 4691.81 186.092 22
1 3 -6 4318.36 179.103 20
-1 -3 5 3056.50 144.732 22
1 3 -4 5279.24 377.226 6
1 3 -3 2494.92 238.490 6
1 3 -2 35774.0 841.735 6
1 3 -1 18975.0 543.946 6
1 3 0 67637.7 1179.73 5
1 3 0 65076.0 1042.37 6
1 3 1 815.644 120.583 5
1 3 2 70552.1 1176.03 5
1 3 3 268.469 90.7321 5
1 3 4 1057.89 140.417 5
1 3 4 934.843 123.423 4
-1 -3 -5 4347.90 255.490 3
1 3 5 4592.84 285.511 4
-1 -3 -6 4236.44 272.350 3
1 3 6 4148.67 292.696 4
-1 -3 -7 13324.6 545.841 6
1 3 8 3427.42 152.499 11
1 3 8 3691.98 168.759 16
1 3 9 1287.96 99.4675 11
1 3 9 1539.43 116.787 16
1 3 10 10350.8 274.971 14
1 3 10 10625.5 270.398 11
1 3 11 6945.50 197.690 14
1 3 11 6907.41 187.519 13
1 3 11 7111.19 191.706 11
1 3 12 372.263 37.8729 14
1 4 -8 288.780 43.7755 33
-1 -4 8 296.203 46.0539 32
1 4 -7 3929.70 166.810 33
-1 -4 7 3660.08 151.814 22
-1 -4 6 8997.07 261.797 22
1 4 -6 8626.32 255.068 20
-1 -4 5 -23.0137 26.9748 22
1 4 -5 6.62791 30.4624 20
1 4 -4 2638.14 321.963 5
-1 -4 4 3371.78 149.726 22
1 4 -3 3480.94 344.352 5
1 4 -3 4008.01 335.636 6
1 4 -2 12552.7 539.998 6
1 4 -2 13479.6 609.080 5
1 4 -1 187.968 85.9990 5
1 4 -1 226.520 83.8675 6
1 4 0 51144.2 1107.66 5
1 4 1 931.930 142.678 5
1 4 2 -21.3574 55.3026 5
1 4 3 -17.1815 51.5569 5
1 4 4 68.1164 57.7827 5
1 4 5 23391.1 721.535 5
1 4 5 23255.0 671.109 4
1 4 6 1742.44 190.782 4
-1 -4 -6 1548.68 180.165 3
-1 -4 -7 2370.62 239.550 3
1 4 8 626.161 72.0753 16
1 4 8 524.761 65.4176 11
1 4 9 4764.49 189.797 11
1 4 9 4908.14 204.880 16
1 4 10 31.8768 34.6473 11
1 4 11 2281.29 114.427 14
1 4 11 2513.70 117.917 11
1 4 12 4090.34 118.505 11
1 4 12 3865.75 119.844 14
1 5 -7 -43.6385 28.8289 33
1 5 -6 748.180 79.0970 33
1 5 -5 5555.83 217.459 33
-1 -5 4 477.530 64.4176 22
-1 -5 4 425.997 55.3290 12
1 5 -4 430.247 65.4354 20
-1 -5 3 364.221 54.0182 12
-1 -5 3 352.182 54.1816 22
1 5 -3 388.015 61.7581 20
1 5 -2 237.846 105.516 5
1 5 -1 510.499 132.449 5
1 5 0 673.411 145.231 5
1 5 1 5280.24 352.275 5
1 5 2 560.130 118.628 5
1 5 3 54772.7 1181.47 5
1 5 4 1063.62 164.736 5
1 5 5 3128.62 249.830 4
1 5 5 3131.89 283.768 5
-1 -5 -6 3613.20 293.139 3
-1 -5 -7 534.616 131.003 3
1 5 8 8690.48 268.677 26
1 5 8 8641.21 267.906 16
1 5 8 8494.19 257.826 11
1 5 9 5275.06 211.148 16
1 5 9 5397.50 205.553 26
1 5 9 4952.30 198.498 11
1 5 10 1693.32 112.730 11
1 5 10 1596.84 120.377 16
1 5 11 1.79049 24.8462 11
1 5 12 2318.28 95.4631 14
1 5 12 2373.06 94.9001 11
-1 -6 7 35.9429 16.3518 32
1 6 -6 777.576 68.0254 33
1 6 -5 2110.03 126.259 33
1 6 -4 780.952 86.3877 33
-1 -6 4 833.108 77.4038 12
-1 -6 3 739.451 74.6602 12
1 6 -3 640.312 81.1948 33
-1 -6 2 1496.48 102.643 12
1 6 -2 1465.01 112.004 33
1 6 -1 9017.34 543.830 5
1 6 0 109.981 84.8573 5
1 6 1 2411.71 260.620 5
1 6 2 3129.57 289.048 5
1 6 3 4847.34 360.256 5
1 6 4 2977.60 284.088 5
1 6 5 25846.5 873.632 5
1 6 6 7482.34 481.390 5
-1 -6 -7 935.068 170.262 3
1 6 8 334.071 59.9731 16
1 6 8 280.418 52.0795 26
1 6 9 3135.62 158.534 26
1 6 9 3064.47 159.296 11
1 6 9 3218.27 164.836 16
1 6 10 370.355 54.4679 26
1 6 10 462.466 65.7557 16
1 6 10 432.973 62.8748 11
1 6 11 7.57926 25.8041 11
1 6 12 -6.52194 27.1229 14
1 6 12 52.8228 22.6499 11
1 7 -5 1164.75 78.2570 33
1 7 -4 751.188 75.1806 33
1 7 -3 592.826 74.9681 33
-1 -7 3 500.199 62.0270 12
-1 -7 2 6948.24 229.463 12
1 7 -2 6973.19 248.808 33
-1 -7 1 3233.17 154.959 12
1 7 -1 3413.09 170.173 33
-1 -7 0 21583.1 417.337 12
1 7 0 21829.3 452.217 33
1 7 1 27185.3 946.697 5
1 7 2 1368.03 207.679 5
-1 -7 -2 1586.77 220.021 10
1 7 3 27595.9 937.192 5
-1 -7 -3 28338.2 883.434 10
1 7 4 9028.28 537.343 5
1 7 5 2797.37 300.585 5
1 7 6 3704.13 177.465 26
1 7 7 116.167 43.6695 26
1 7 7 83.8425 38.8609 16
1 7 8 1023.71 96.3990 26
1 7 8 945.116 93.3276 16
1 7 9 657.975 75.6955 16
1 7 9 504.646 66.7303 26
1 7 9 529.384 72.4224 11
1 7 10 1348.29 94.4295 26
1 7 10 1342.89 101.069 11
1 7 10 1466.30 104.668 16
1 7 11 6912.71 202.140 11
1 7 12 49.9305 21.4392 11
1 8 -4 18.3526 22.0316 33
-1 -8 4 3.12906 16.5822 29
1 8 -3 5212.58 182.160 33
1 8 -2 34.2440 38.3519 33
-1 -8 1 2736.12 141.658 12
1 8 -1 2459.97 150.516 33
-1 -8 0 21125.9 424.928 12
1 8 0 21928.6 461.293 33
-1 -8 -1 22336.4 430.649 12
1 8 1 22717.9 476.251 33
-1 -8 -2 5378.06 190.909 12
1 8 2 5615.38 217.448 33
1 8 3 1531.85 114.551 33
1 8 4 5962.70 221.944 33
1 8 5 1813.99 130.932 26
1 8 5 1772.73 122.259 33
1 8 6 823.383 90.8903 26
1 8 6 838.201 85.6123 33
1 8 7 1081.84 94.2687 16
1 8 7 1323.12 111.381 26
1 8 7 1185.12 97.8696 33
1 8 8 5501.03 205.745 16
1 8 8 5527.20 216.084 26
1 8 8 5147.64 199.468 33
1 8 9 11.4929 32.5884 16
1 8 9 78.5560 38.3307 26
1 8 9 25.9081 33.2817 11
1 8 10 13427.1 312.014 11
1 8 10 13233.0 294.185 26
1 8 10 13391.7 296.588 16
1 8 11 110.211 31.7214 11
1 8 12 123.424 24.6497 11
1 9 -3 330.158 36.5416 33
-1 -9 2 402.044 39.5979 29
1 9 -2 315.914 47.2177 33
1 9 -1 96.9981 35.4190 33
1 9 0 431.993 65.6558 33
1 9 1 4854.01 203.081 33
1 9 2 63.8816 38.9493 33
1 9 3 11277.3 317.124 33
1 9 4 1201.05 108.122 26
1 9 4 1085.89 97.5657 33
1 9 5 874.501 93.7657 26
1 9 5 861.414 87.9325 33
1 9 6 450.951 64.1820 33
1 9 6 391.823 66.1250 26
1 9 7 2252.64 126.228 16
1 9 7 2572.77 147.817 26
1 9 7 2459.12 139.779 33
1 9 8 79.9150 36.6534 16
1 9 8 114.207 40.8302 26
1 9 8 104.136 37.7640 33
1 9 9 16988.6 352.536 26
1 9 9 16692.5 357.841 11
1 9 9 17068.8 327.894 16
1 9 10 2817.55 117.398 26
1 9 10 3268.37 135.959 11
1 9 11 88.3366 25.8387 11
1 10 -1 4671.33 136.853 33
1 10 0 292.419 40.5526 26
1 10 0 282.671 44.7242 33
1 10 1 1127.53 83.9798 26
1 10 1 1252.83 92.0991 33
1 10 2 -12.3151 30.3697 26
1 10 2 -2.54554 30.4554 33
1 10 3 185.533 48.5832 26
1 10 3 175.144 47.2163 33
1 10 4 3755.15 175.368 26
1 10 4 3796.61 167.957 33
1 10 5 2945.49 156.290 26
1 10 5 2738.86 143.474 33
1 10 6 1499.07 111.104 26
1 10 6 1397.92 102.362 33
1 10 7 10.7223 31.7167 26
1 10 7 -5.26167 29.1807 33
1 10 8 92.1439 34.9912 26
1 10 8 127.907 35.3701 33
1 10 9 1554.21 88.3427 26
1 10 9 1493.14 91.6897 11
1 10 10 1577.66 80.9594 11
-1 -10 -10 1416.25 69.1741 19
1 10 11 2276.54 78.3479 11
1 11 1 167.850 28.8424 33
1 11 2 2272.62 98.9018 26
1 11 2 2500.09 103.316 33
1 11 3 11.7895 26.7668 26
1 11 3 15.2594 21.5286 33
1 11 4 288.325 45.6323 26
1 11 4 316.255 46.3599 33
1 11 5 316.390 45.5815 26
1 11 5 239.408 40.8425 33
1 11 6 135.742 37.0342 26
1 11 6 96.4216 30.9701 33
1 11 7 2385.80 110.915 26
1 11 7 2446.93 107.143 33
1 11 8 1077.66 68.5107 26
1 11 9 1737.16 75.9297 11
2 -9 -7 2857.65 101.161 21
2 -9 -6 144.139 30.1731 21
2 -9 -5 825.113 57.3043 24
2 -9 -5 842.079 61.9847 21
2 -9 -4 78.6419 25.3788 24
2 -9 -4 80.0579 25.8312 21
2 -9 -3 601.535 51.0303 24
2 -9 -3 598.912 49.1667 21
2 -9 -2 119.379 23.2427 21
2 -9 -2 121.024 27.3349 24
2 -9 -1 468.553 40.8785 24
2 -8 -9 4704.08 118.695 21
2 -8 -8 50.4762 21.9296 21
2 -8 -8 25.9475 21.0780 19
2 -8 -7 2405.57 114.261 21
2 -8 -7 2395.36 104.059 19
2 -8 -6 139.650 31.6038 24
2 -8 -6 135.880 38.7910 21
2 -8 -5 -3.12507 27.1544 24
2 -8 -5 -3.36444 27.3093 21
2 -8 -4 332.965 49.9573 24
2 -8 -4 370.595 53.3213 21
2 -8 -3 384.368 49.5952 24
2 -8 -3 431.289 53.4713 21
2 -8 -2 41.7215 25.6197 24
2 -8 -2 28.3871 23.8809 21
2 -8 -1 1816.18 100.715 24
2 -8 -1 1822.38 98.3054 28
2 -8 0 37.9011 25.5105 24
2 -8 0 68.0442 27.1596 28
2 -8 1 184.134 32.5848 28
2 -8 1 144.622 29.4100 24
2 -8 2 76.9509 18.1481 28
2 -8 2 139.949 23.0314 24
2 -7 -9 249.007 33.6883 21
2 -7 -9 338.340 43.0911 19
2 -7 -8 7.11031 25.6079 21
2 -7 -8 22.4510 26.8686 19
2 -7 -7 4164.25 167.640 21
2 -7 -7 4008.77 159.131 19
2 -7 -6 -5.85891 31.8414 24
2 -7 -6 7.73259 31.3515 21
2 -7 -6 68.4143 33.1085 19
2 -7 -5 8622.03 248.816 24
2 -7 -5 8866.89 261.265 21
2 -7 -4 3540.72 160.942 24
2 -7 -4 3092.34 153.524 21
2 -7 -3 1961.78 119.740 21
2 -7 -3 2135.32 125.523 24
2 -7 -2 8864.01 255.154 24
2 -7 -2 8864.94 247.462 28
2 -7 -1 1489.63 100.975 28
2 -7 0 463.613 57.9173 28
2 -7 1 490.972 58.1382 28
2 -7 2 2836.41 118.125 28
2 -7 3 -35.1129 20.5167 28
-2 6 10 58.9125 21.2705 22
2 -6 -10 99.6769 22.6260 21
2 -6 -9 363.712 46.4562 21
2 -6 -9 335.157 48.2451 19
2 -6 -8 158.968 42.0050 21
2 -6 -8 235.151 55.2546 19
2 -6 -7 2080.22 126.195 21
2 -6 -7 2034.88 124.142 19
2 -6 -6 9019.98 260.069 24
2 -6 -6 9119.91 273.429 21
2 -6 -6 9561.02 270.148 19
2 -6 -5 6810.18 228.642 24
2 -6 -5 7008.14 238.846 21
2 -6 -5 6559.17 215.460 19
2 -6 -4 135.229 44.9039 24
2 -6 -4 148.794 38.9305 21
2 -6 -3 13977.7 335.220 24
2 -6 -2 506.333 61.8679 28
2 -6 -2 389.097 56.9719 24
2 -6 -1 130.269 41.7104 28
2 -6 0 1264.87 99.7282 29
2 -6 0 1287.78 95.8354 28
2 -6 1 2947.74 142.574 28
2 -6 1 2734.08 139.350 29
2 -6 2 1938.48 113.947 29
2 -6 2 2101.45 117.461 28
2 -6 3 1810.58 98.6756 29
2 -6 3 2025.38 106.959 28
2 -6 4 447.320 47.5868 28
2 -6 5 1472.61 65.2965 28
-2 5 10 138.656 28.9750 22
2 -5 -10 136.139 25.7078 21
2 -5 -9 361.084 48.5831 21
2 -5 -8 1182.54 93.0471 21
2 -5 -8 1160.63 99.6627 19
2 -5 -7 11982.1 314.028 21
2 -5 -7 11560.5 311.690 19
2 -5 -6 8005.34 257.486 21
2 -5 -6 7926.88 251.670 19
2 -5 -5 8120.21 249.135 24
2 -5 -5 8173.67 258.788 21
2 -5 -5 8630.65 255.657 19
2 -5 -4 49108.6 706.470 24
2 -5 -4 48792.2 719.387 21
2 -5 -3 4786.12 185.616 24
2 -5 -3 4889.02 187.941 21
2 -5 -2 1460.92 96.9039 28
2 -5 -2 1380.71 98.7177 24
2 -5 -1 -6.42092 25.7468 28
2 -5 0 106.915 40.8410 29
2 -5 0 134.804 41.1753 28
2 -5 1 1524.55 104.667 29
2 -5 1 1203.07 92.0987 28
2 -5 2 2485.77 129.732 28
2 -5 2 2223.45 124.161 29
2 -5 3 10607.3 265.913 29
2 -5 3 10568.7 273.461 28
2 -5 4 6338.92 185.909 29
2 -5 4 6967.64 205.336 28
2 -5 5 707.028 60.6463 28
2 -5 6 497.575 40.7879 28
-2 4 11 441.706 33.3615 22
-2 4 10 66.9781 25.2736 22
2 -4 -9 1842.80 103.745 21
2 -4 -8 4992.16 191.805 21
2 -4 -8 4941.54 199.503 19
2 -4 -7 19803.2 417.706 21
2 -4 -7 19455.9 425.277 19
2 -4 -6 2279.44 133.797 21
2 -4 -6 2180.22 133.121 19
2 -4 -5 1910.59 115.543 24
2 -4 -5 1797.16 116.755 21
2 -4 -5 1846.51 117.671 19
2 -4 -4 23217.1 877.609 9
2 -4 -3 762.807 165.865 9
2 -4 -2 5450.83 412.760 9
2 -4 -1 782.269 169.447 9
2 -4 0 1781.26 233.690 9
2 -4 0 1510.12 220.624 7
2 -4 1 790.360 160.673 9
2 -4 1 567.624 62.7879 28
2 -4 1 579.633 155.830 7
2 -4 2 2621.77 130.213 29
2 -4 3 636.454 66.0611 29
2 -4 3 604.412 70.4600 13
2 -4 4 2322.84 130.049 13
2 -4 5 19979.4 389.224 13
2 -4 6 11422.4 253.740 17
2 -4 7 7.43937 15.7267 28
-2 3 10 833.414 62.5201 22
-2 3 9 977.949 76.5024 22
2 -3 -9 992.399 77.3927 21
2 -3 -8 6351.27 217.925 21
2 -3 -7 4450.76 187.948 21
2 -3 -7 4610.51 197.068 19
2 -3 -6 324.279 51.6141 21
2 -3 -6 417.549 62.8332 19
2 -3 -5 5481.22 420.607 1
2 -3 -4 532.162 138.615 1
2 -3 -3 6032.54 420.147 1
2 -3 -3 5899.00 411.402 9
2 -3 -2 5913.88 401.052 9
2 -3 -1 199.870 86.3423 9
2 -3 0 761.437 144.369 9
2 -3 0 1109.59 169.672 7
2 -3 1 42728.4 1097.84 9
2 -3 1 43097.0 1149.59 7
2 -3 2 6464.33 436.860 8
2 -3 2 6876.20 475.133 7
2 -3 3 3273.31 161.804 15
2 -3 3 3224.20 148.507 13
2 -3 3 3306.87 151.854 23
2 -3 4 1882.98 123.596 15
2 -3 4 1695.24 110.506 13
2 -3 4 1853.58 116.505 23
2 -3 5 5917.90 204.078 13
2 -3 5 5868.14 212.006 23
2 -3 6 154.846 41.1072 13
2 -3 6 156.691 42.1311 17
2 -3 6 245.557 48.4238 23
2 -3 7 1602.53 91.9575 13
2 -3 7 1468.46 87.9288 23
2 -3 8 32.6659 20.5043 23
-2 2 10 767.165 57.5956 22
-2 2 9 6435.42 195.344 22
-2 2 8 90.3678 37.6863 22
2 -2 -8 76.3976 32.8540 21
2 -2 -7 21.4640 31.7300 21
2 -2 -6 3384.85 160.350 21
2 -2 -6 3002.00 156.604 19
2 -2 -5 4337.58 367.900 1
2 -2 -4 -38.2882 59.0425 1
2 -2 -3 374.609 111.146 1
2 -2 -2 3864.99 309.946 1
2 -2 -2 3784.90 303.336 9
2 -2 -1 108.824 75.3854 9
2 -2 -1 163.996 78.0980 1
2 -2 0 5454.00 354.936 9
2 -2 0 6711.09 366.130 7
2 -2 1 10630.4 503.439 7
2 -2 1 10058.1 472.862 9
2 -2 2 1403.84 179.091 9
2 -2 2 1420.54 202.022 7
2 -2 2 1327.81 194.301 8
2 -2 3 10974.1 586.941 8
2 -2 3 11553.8 609.245 7
2 -2 4 229.130 49.7743 15
2 -2 4 286.543 51.4415 23
2 -2 4 249.003 65.2313 27
2 -2 4 194.281 42.2882 13
2 -2 5 3422.23 165.966 27
2 -2 5 3371.14 151.485 13
2 -2 5 3538.85 168.269 23
2 -2 6 147.698 60.1057 27
2 -2 6 20.9695 32.6693 23
2 -2 6 104.692 34.7335 13
2 -2 7 103.985 42.5492 23
2 -2 7 158.769 40.1838 13
2 -2 8 33.6421 30.6711 23
2 -2 8 28.9464 24.5012 13
2 -2 9 401.603 36.3425 23
-2 1 10 317.895 38.0606 22
-2 1 9 1515.40 93.9153 22
2 -1 -9 1551.65 93.5295 20
-2 1 8 2761.62 136.117 22
-2 1 7 2507.28 132.629 22
2 -1 -7 2652.34 143.514 21
2 -1 -6 11461.2 306.803 21
2 -1 -5 2219.68 264.337 1
2 -1 -4 17346.5 701.427 1
2 -1 -3 39283.1 1037.42 1
2 -1 -2 6285.27 384.244 1
2 -1 -1 1780.17 202.024 1
2 -1 0 250.708 80.8092 9
2 -1 0 87.3150 48.8359 7
2 -1 0 212.450 75.2803 1
2 -1 1 19861.2 626.139 9
2 -1 1 20363.5 582.417 4
2 -1 1 19245.9 637.875 7
2 -1 2 951.886 137.858 9
2 -1 2 1418.13 189.090 7
2 -1 3 8839.24 501.526 8
2 -1 3 9350.28 510.532 7
2 -1 4 874.613 175.184 8
2 -1 4 825.001 168.313 7
2 -1 5 582.884 73.7268 14
2 -1 5 577.217 70.7332 27
2 -1 5 447.941 63.7334 23
2 -1 5 588.154 76.1953 15
2 -1 6 1433.53 112.296 27
2 -1 6 1305.16 104.490 14
2 -1 6 1443.28 97.4580 13
2 -1 6 1385.17 107.332 23
2 -1 6 1391.40 109.307 17
2 -1 7 869.740 94.1541 27
2 -1 7 845.709 75.2829 13
2 -1 7 822.971 87.2014 23
2 -1 8 939.949 84.8051 27
2 -1 8 665.176 62.6432 13
2 -1 8 811.587 80.2442 23
2 -1 9 485.056 45.5276 13
2 -1 9 496.602 54.0815 23
-2 0 10 1437.44 66.6239 22
-2 0 9 42.6218 27.2152 22
2 0 -9 80.4655 29.3168 20
-2 0 8 2809.47 135.101 22
2 0 -8 2690.54 137.008 20
-2 0 7 17762.9 372.983 22
-2 0 6 6645.12 214.914 22
2 0 -6 6747.63 232.737 21
2 0 -5 150.600 88.3684 1
2 0 -5 42.8275 63.1020 6
2 0 -4 825.745 153.564 1
2 0 -4 629.360 114.135 6
2 0 -3 26097.3 826.919 1
2 0 -2 21745.8 698.721 1
2 0 -1 6908.36 347.366 5
2 0 -1 8220.14 412.287 1
2 0 0 5301.51 320.709 1
2 0 0 5473.16 288.228 7
2 0 0 4951.05 265.286 4
2 0 1 9100.53 389.725 4
2 0 1 9884.62 419.472 1
2 0 2 1236.68 145.298 1
2 0 2 1394.99 177.581 7
2 0 2 1234.24 154.128 4
2 0 3 145.141 81.6037 7
2 0 3 212.830 80.1159 4
2 0 4 5243.55 399.177 8
2 0 4 5207.51 389.399 7
2 0 5 175.866 83.7671 8
2 0 5 347.971 115.881 7
2 0 6 20568.4 408.156 14
2 0 6 21451.5 420.114 27
2 0 6 21242.2 436.299 17
2 0 7 3641.47 168.268 14
2 0 7 3273.91 163.562 27
2 0 8 586.393 76.2945 27
2 0 8 794.973 87.2094 14
2 0 8 640.437 76.5332 23
2 0 9 55.1005 41.6166 27
2 0 9 -37.2876 34.4134 23
2 0 10 1471.14 81.3997 23
-2 -1 9 179.885 31.8081 22
2 1 -9 191.944 32.5746 20
-2 -1 8 5.42187 24.1759 22
2 1 -8 36.4017 31.7080 20
-2 -1 7 7244.43 228.123 22
2 1 -7 7530.08 243.651 20
-2 -1 6 29136.1 499.059 22
-2 -1 5 25457.9 442.833 22
2 1 -5 25652.0 475.409 21
2 1 -4 6691.20 398.987 6
2 1 -3 170.582 85.0674 2
2 1 -3 258.611 74.2060 6
2 1 -2 328.390 87.4034 2
2 1 -1 9830.16 452.686 5
2 1 0 175.697 70.9054 5
2 1 1 -21.4302 44.5563 5
2 1 1 -20.4301 31.6112 1
2 1 2 50022.5 1075.96 7
2 1 2 50759.6 956.961 1
2 1 2 48878.4 1045.46 4
2 1 3 167.145 78.3181 7
2 1 3 216.668 78.9478 4
2 1 4 2221.05 243.376 7
2 1 4 1675.73 212.753 4
2 1 5 2957.11 301.309 7
2 1 5 3694.15 324.690 4
2 1 6 407.422 129.299 7
2 1 7 -65.9108 56.1854 27
2 1 7 -7.88134 40.5109 14
2 1 7 13.4722 39.4271 25
2 1 7 -32.5876 34.4034 17
2 1 8 3942.71 174.564 27
2 1 8 4607.79 186.822 14
2 1 9 661.755 71.6166 27
2 1 9 805.124 84.3324 14
2 1 9 583.588 68.3082 23
2 1 10 379.272 52.9698 27
2 1 10 267.848 44.8312 23
2 1 11 1928.46 75.1246 23
-2 -2 9 9033.30 178.878 22
-2 -2 8 3333.74 130.346 22
2 2 -8 3273.75 132.796 20
-2 -2 7 -14.8537 26.1267 22
2 2 -7 13.2363 37.8618 20
-2 -2 6 17608.3 370.629 22
2 2 -6 17162.0 391.167 20
-2 -2 5 21423.6 408.789 22
2 2 -4 17408.0 695.684 2
2 2 -4 15602.2 666.355 6
2 2 -3 926.855 152.554 2
2 2 -3 788.862 143.020 6
2 2 -2 187.455 74.7280 2
2 2 -2 43.3036 43.3753 6
2 2 -1 353.062 95.6759 2
2 2 -1 261.392 93.4713 5
2 2 -1 299.989 75.1971 6
2 2 0 736.621 130.283 5
2 2 0 405.202 88.1118 2
2 2 1 2559.29 194.861 2
2 2 1 2207.99 205.065 5
2 2 2 56002.3 999.555 1
2 2 2 51506.1 1032.47 5
2 2 3 1140.60 142.727 5
2 2 3 850.712 143.251 4
2 2 4 178325. 2547.25 4
2 2 5 548.893 130.719 4
2 2 6 468.604 132.511 4
2 2 7 10062.2 303.808 25
2 2 7 10131.0 283.648 17
2 2 7 10041.8 298.168 18
2 2 7 9764.78 272.311 16
2 2 8 2731.20 142.295 14
2 2 8 3056.25 169.713 25
2 2 8 2816.10 146.094 16
2 2 9 49.4071 48.0914 27
2 2 9 70.5496 45.9268 14
2 2 9 84.4586 37.4409 23
2 2 10 684.669 65.2946 27
2 2 10 820.095 77.0160 14
2 2 10 741.217 67.2634 23
2 2 11 479.771 45.1278 27
2 2 11 459.301 44.6174 23
2 3 -8 79.1069 27.4092 33
-2 -3 8 66.1904 22.3695 32
-2 -3 8 103.093 28.4370 22
2 3 -8 89.9617 26.3581 20
-2 -3 7 134.234 35.2557 22
2 3 -7 92.1182 34.2223 20
-2 -3 6 6881.85 218.349 22
2 3 -6 6583.05 230.106 20
-2 -3 5 3596.79 158.589 22
2 3 -5 3681.56 175.696 20
-2 -3 4 180.681 40.2286 22
2 3 -4 225.269 53.3891 20
2 3 -3 3556.37 374.425 5
2 3 -3 3534.15 314.628 6
2 3 -3 4116.37 334.345 2
2 3 -2 50.2212 44.9803 2
2 3 -2 127.398 87.1170 5
2 3 -2 15.9146 62.1858 6
2 3 -1 3075.53 257.361 2
2 3 -1 3091.87 304.465 5
2 3 -1 2954.69 241.566 6
2 3 0 29495.0 898.820 5
2 3 0 32093.7 800.125 2
2 3 1 1753.58 200.328 5
2 3 1 1649.71 165.431 2
2 3 2 20015.7 548.938 2
2 3 2 20572.9 683.393 5
2 3 3 21333.2 687.660 5
2 3 4 60117.0 1334.50 4
2 3 4 63699.8 1252.64 5
2 3 5 670.608 117.533 5
2 3 5 624.848 141.482 4
2 3 6 7652.30 484.713 4
2 3 7 117.196 44.3220 16
2 3 7 147.345 48.4557 26
2 3 7 156.245 53.5823 25
2 3 7 138.423 53.8537 18
2 3 7 153.896 43.3290 17
2 3 8 20.5912 33.3508 16
2 3 8 68.4418 49.9501 25
2 3 8 131.973 53.7538 18
2 3 9 657.672 78.8179 16
2 3 9 539.961 65.9931 14
2 3 9 668.936 72.8130 23
2 3 10 506.090 57.3445 27
2 3 10 641.419 71.3223 14
2 3 10 613.458 64.1915 23
2 3 11 1302.16 76.1451 27
2 3 11 1309.15 79.3946 14
2 3 11 1193.33 69.4915 23
2 4 -8 4336.37 114.282 33
2 4 -7 295.736 42.5692 33
2 4 -7 285.792 41.9305 20
-2 -4 6 251.931 45.5549 22
2 4 -6 261.699 52.7597 20
-2 -4 5 1194.48 91.9875 22
-2 -4 5 1368.34 91.9703 12
2 4 -5 1255.08 103.343 20
-2 -4 4 7261.10 225.276 22
-2 -4 4 7168.96 222.256 12
2 4 -4 7304.83 250.001 20
-2 -4 3 2687.49 129.979 22
2 4 -3 2733.75 146.874 20
2 4 -2 2321.86 300.832 5
2 4 -2 2445.69 267.648 6
2 4 -2 2320.79 255.478 2
2 4 -1 4662.33 405.625 5
2 4 -1 5470.29 364.655 2
2 4 0 33628.3 1037.48 5
2 4 0 37410.9 933.415 2
2 4 1 3345.57 308.988 5
2 4 1 3266.67 248.473 2
2 4 2 5428.00 375.267 5
2 4 2 5774.96 305.315 2
2 4 3 1200.85 175.995 5
2 4 4 15837.4 666.183 4
2 4 4 16996.2 673.292 5
2 4 5 109.869 62.8790 5
2 4 5 202.283 99.9237 4
2 4 6 1058.22 188.465 4
2 4 7 1808.66 124.210 26
2 4 7 1867.48 130.871 25
2 4 7 1894.37 125.286 18
2 4 7 1793.14 120.719 17
2 4 7 1695.32 116.021 16
2 4 8 1309.95 115.780 26
2 4 8 1453.01 122.757 25
2 4 8 1444.68 118.245 18
2 4 8 1508.92 114.429 16
2 4 9 3898.42 174.854 16
2 4 10 101.665 38.2297 14
2 4 11 646.684 58.1560 27
2 4 11 720.665 62.6815 14
2 4 12 3969.98 103.651 14
2 5 -7 5150.38 133.637 33
2 5 -6 1487.84 90.5807 33
-2 -5 5 3614.32 138.355 12
2 5 -5 3704.88 165.420 20
2 5 -5 3726.71 165.156 33
-2 -5 4 5336.72 188.925 12
2 5 -4 5218.29 211.196 20
2 5 -4 5640.50 213.675 33
-2 -5 3 57.2730 31.1137 22
-2 -5 3 48.6506 36.8756 12
2 5 -3 43.5204 32.8280 20
2 5 -3 87.7343 43.4785 33
2 5 -2 1507.14 111.957 20
2 5 -2 1701.03 114.562 33
2 5 -1 1528.52 209.765 2
2 5 -1 1155.93 227.029 5
2 5 0 4348.62 390.931 5
2 5 0 4965.50 352.792 2
2 5 1 1274.74 172.796 2
2 5 1 1156.09 203.350 5
2 5 2 31595.5 809.810 2
2 5 2 31018.0 1009.56 5
2 5 3 112.983 87.9618 5
2 5 4 994.691 178.041 5
2 5 5 93.6382 79.2384 5
2 5 5 71.7617 71.1966 4
2 5 6 10.2246 74.5883 5
2 5 6 29.9082 61.6448 4
2 5 7 5699.98 218.592 16
2 5 7 6017.72 228.691 26
2 5 7 6297.67 241.700 25
2 5 7 5990.32 220.307 18
2 5 8 856.376 93.9125 26
2 5 8 832.758 89.9863 16
2 5 8 928.102 92.7502 18
2 5 9 2510.55 143.810 16
2 5 10 350.447 59.8349 16
2 5 11 303.692 45.3957 14
2 5 12 719.088 46.3990 27
2 5 12 851.637 51.2711 14
2 6 -6 1281.86 66.4060 33
-2 -6 5 480.158 45.2941 12
2 6 -5 400.890 51.9357 33
-2 -6 4 1362.96 89.0541 12
2 6 -4 1515.13 104.472 33
-2 -6 3 3050.47 145.173 12
2 6 -3 2838.14 152.759 20
2 6 -3 3169.81 159.473 33
-2 -6 2 1543.92 107.562 12
2 6 -2 1569.78 115.667 20
2 6 -2 1483.71 111.383 33
-2 -6 1 601.688 69.8064 12
2 6 -1 587.853 74.8003 20
2 6 -1 702.481 76.0266 33
-2 -6 0 1155.62 89.1743 12
2 6 0 1368.33 102.558 20
2 6 1 341.760 100.771 2
2 6 1 -17.6681 69.7231 5
2 6 2 161.621 112.653 5
2 6 3 468.722 135.378 5
2 6 4 -92.3653 92.4177 5
2 6 5 12510.0 652.974 4
2 6 6 308.895 57.4369 30
2 6 6 277.215 57.0146 26
2 6 6 302.978 62.3593 25
2 6 6 372.375 60.2397 18
2 6 7 1044.78 100.867 16
2 6 7 1112.31 103.833 26
2 6 7 1000.91 91.1706 18
2 6 8 86.1746 43.0917 16
2 6 8 180.605 54.3314 26
2 6 8 172.006 46.9427 18
2 6 9 61.9825 43.1401 16
2 6 9 17.1090 44.2679 26
2 6 10 1780.10 112.889 16
2 6 11 2271.24 105.537 14
2 6 12 307.178 31.4856 27
2 6 12 391.369 36.1025 14
2 7 -5 106.803 23.0359 33
-2 -7 4 731.039 55.9511 12
2 7 -4 717.504 64.3756 33
-2 -7 3 2406.75 118.407 12
2 7 -3 2416.32 127.098 33
-2 -7 2 390.948 57.9557 12
2 7 -2 345.962 58.6462 33
-2 -7 1 260.450 50.2615 12
2 7 -1 245.742 50.5834 33
-2 -7 0 1326.94 99.4311 12
2 7 0 1142.50 97.7822 33
-2 -7 -1 3424.39 152.473 12
-2 -7 -2 18.3243 28.2474 12
2 7 3 2461.83 139.826 26
2 7 4 1949.39 129.182 26
2 7 5 4315.16 192.183 30
2 7 5 4731.90 203.067 26
2 7 6 659.624 76.7999 30
2 7 6 748.545 87.5754 26
2 7 7 5578.73 221.683 16
2 7 7 6116.08 241.772 26
2 7 8 3050.51 163.138 16
2 7 8 3356.07 172.170 26
2 7 9 1594.48 116.435 26
2 7 9 1333.80 105.838 16
2 7 9 1251.52 89.6559 11
2 7 10 29.3323 32.8153 16
2 7 10 4.87933 21.8962 11
2 7 11 562.535 55.1594 16
2 8 -3 1191.44 74.2211 33
-2 -8 2 1190.28 80.6800 12
2 8 -2 1154.66 84.0269 33
-2 -8 1 342.140 51.3487 12
2 8 -1 354.971 55.1134 33
-2 -8 0 6914.54 218.399 12
2 8 0 6699.64 224.105 33
-2 -8 -1 5374.06 192.525 12
2 8 1 5387.61 201.195 33
2 8 2 8723.28 264.719 26
-2 -8 -2 8960.31 246.172 12
2 8 3 5502.76 215.861 26
2 8 4 1664.29 119.495 26
2 8 5 10490.2 305.315 30
2 8 5 10683.9 313.070 26
2 8 6 2325.65 136.726 30
2 8 6 2587.70 153.865 26
2 8 7 831.048 91.0813 16
2 8 7 731.755 84.3839 26
2 8 8 1056.05 96.0171 16
2 8 8 1097.49 100.533 26
2 8 9 48.2180 34.4613 16
2 8 9 24.2619 33.7067 26
2 8 9 16.4493 25.6614 11
2 8 10 424.060 52.3296 16
2 8 10 434.991 55.9522 26
2 8 10 375.362 43.5369 11
2 8 11 843.387 59.5859 16
2 9 -2 18.4550 15.7033 33
2 9 -1 2453.41 107.998 33
-2 -9 0 504.136 57.1438 12
2 9 0 566.465 60.1102 33
-2 -9 -1 1293.33 87.4995 12
2 9 1 1152.64 86.9982 33
2 9 2 16915.6 355.933 26
-2 -9 -2 17434.9 336.411 12
2 9 2 17015.6 355.023 33
2 9 3 16299.9 367.968 26
2 9 4 2385.32 139.485 26
2 9 5 55.6982 34.8669 30
2 9 5 48.3948 39.0427 26
2 9 6 3167.64 150.949 30
2 9 6 3105.83 160.654 26
2 9 7 325.218 58.5497 16
2 9 7 352.660 59.7750 26
2 9 8 589.883 67.4117 16
2 9 8 613.428 72.5396 26
2 9 9 265.002 44.3909 16
2 9 9 404.644 53.8189 26
2 9 9 323.125 45.8468 11
2 9 10 2926.42 117.708 26
2 9 10 2813.78 102.982 11
2 9 10 3086.04 115.907 16
2 9 11 17.6592 16.0157 16
2 10 0 16.4628 16.6422 33
2 10 1 1496.34 78.7361 33
2 10 2 22.7013 27.1047 33
2 10 3 1137.14 81.0769 26
2 10 3 1104.20 74.4590 33
2 10 4 -11.1237 27.7399 30
2 10 4 28.6879 27.2442 26
2 10 5 5414.32 185.649 30
2 10 5 5220.34 189.162 26
2 10 6 339.249 46.1436 30
2 10 6 394.191 58.0678 26
2 10 7 344.437 50.1341 16
2 10 7 445.025 57.9042 26
2 10 8 53.2890 28.9691 16
2 10 8 56.5749 30.7285 26
2 10 9 2447.01 106.394 26
2 10 9 2237.73 93.1318 11
2 10 9 2617.51 101.462 16
2 10 10 16.6554 16.2904 26
2 11 2 0.02434 14.8911 30
2 11 3 1273.26 68.7821 30
2 11 4 -1.88220 18.5918 30
2 11 4 19.7119 17.7385 26
2 11 5 441.425 43.5543 30
2 11 5 320.924 36.2333 16
2 11 5 412.709 43.5391 26
2 11 6 1612.08 75.1663 16
2 11 6 1813.30 88.4656 26
2 11 7 1457.60 66.9555 16
2 11 7 1464.64 77.5121 26
2 11 8 734.850 51.5369 26
2 11 8 617.052 44.7772 11
3 -7 -6 96.4651 21.4102 21
3 -7 -5 829.852 52.9025 21
3 -7 -4 38.0354 17.4214 21
3 -7 -3 3.57829 19.6662 24
3 -7 -2 381.516 40.0816 24
3 -7 -1 0.83921 16.4125 24
3 -6 -7 608.017 48.9298 21
3 -6 -6 13.2167 18.5204 21
3 -6 -5 1723.80 95.6099 15
3 -6 -5 1723.00 90.9682 21
3 -6 -4 152.872 37.6816 15
3 -6 -4 177.429 35.0394 21
3 -6 -3 3487.79 139.333 15
3 -6 -3 3790.97 143.547 24
3 -6 -3 3494.67 125.539 21
3 -6 -2 507.379 56.0952 24
3 -6 -1 891.661 66.9531 24
3 -6 0 4701.88 141.546 24
3 -6 1 991.693 56.7553 24
3 -6 2 280.129 37.8911 17
3 -5 -8 16.8255 17.4164 21
3 -5 -7 276.907 38.4775 21
3 -5 -6 106.997 31.8041 21
3 -5 -5 2158.59 113.991 21
3 -5 -4 6566.83 200.648 21
3 -5 -3 7450.05 241.137 15
3 -5 -3 7150.75 221.084 24
3 -5 -3 7170.44 206.483 21
3 -5 -2 914.666 87.9649 15
3 -5 -2 1149.42 87.8261 24
3 -5 -1 3391.71 158.721 15
3 -5 -1 3338.91 140.640 24
3 -5 0 764.756 74.7654 15
3 -5 0 626.914 62.3228 24
3 -5 1 167.711 34.5263 28
3 -5 1 181.404 40.2489 15
3 -5 1 210.953 35.7430 24
3 -5 2 744.633 55.5401 28
3 -5 3 1275.01 62.8813 28
3 -5 3 1371.82 84.9577 17
3 -5 4 1210.23 65.7079 17
3 -4 -8 293.231 38.5562 21
3 -4 -8 305.402 40.6022 31
3 -4 -7 1458.44 88.3887 31
3 -4 -7 1285.55 84.9025 21
3 -4 -6 493.746 59.3493 21
3 -4 -5 3269.63 150.443 21
3 -4 -4 12671.3 303.428 21
3 -4 -3 3169.14 151.103 24
3 -4 -3 3187.60 143.094 21
3 -4 -2 25714.3 454.697 24
3 -4 -1 3006.27 163.177 15
3 -4 -1 2724.04 134.846 24
3 -4 0 427.309 50.3918 28
3 -4 0 529.511 71.9485 15
3 -4 0 437.669 54.6015 24
3 -4 1 157.662 34.7392 28
3 -4 1 175.358 50.4683 15
3 -4 2 -2.07467 20.5589 28
3 -4 2 -38.2928 34.4501 15
3 -4 3 126.552 28.2034 28
3 -4 3 164.493 40.3589 15
3 -4 4 1047.16 80.5197 17
3 -4 5 4634.41 137.793 17
3 -3 -9 455.757 37.0187 20
3 -3 -8 128.038 34.9381 31
3 -3 -7 1118.30 88.2441 31
3 -3 -7 1168.97 85.7746 21
3 -3 -6 3281.24 150.735 21
3 -3 -6 3586.07 162.630 31
3 -3 -5 18237.5 395.551 31
3 -3 -5 17323.0 375.624 21
3 -3 -4 859.958 86.7799 31
3 -3 -4 968.877 84.2951 21
3 -3 -3 17.4734 24.6645 21
3 -3 -2 18123.8 370.647 24
3 -3 -1 40.6461 24.6858 24
3 -3 0 3597.82 181.281 15
3 -3 1 355.383 64.3469 15
3 -3 2 367.969 60.3749 15
3 -3 3 1057.69 94.4347 15
3 -3 4 511.593 70.0069 17
3 -3 5 267.354 45.8230 17
3 -3 6 1922.24 88.0417 17
3 -2 -9 143.175 26.7140 31
3 -2 -8 823.583 71.6526 31
3 -2 -7 2722.74 130.308 21
3 -2 -7 2904.57 142.601 31
3 -2 -6 7716.02 253.360 31
3 -2 -6 7731.25 237.388 21
3 -2 -5 1208.85 97.5665 21
3 -2 -5 1180.16 104.848 31
3 -2 -4 724.175 76.6066 21
3 -2 -4 795.363 91.6040 31
3 -2 -3 2450.79 146.256 31
3 -2 -3 2593.64 133.375 21
3 -2 -2 354.770 62.6586 31
3 -2 0 1790.02 130.066 15
3 -2 1 943.301 97.6725 15
3 -2 2 411.400 67.8950 15
3 -2 3 11744.9 333.671 15
3 -2 3 12203.8 318.279 23
3 -2 4 1460.50 115.754 15
3 -2 4 1559.25 111.062 23
3 -2 4 1317.28 114.904 17
3 -2 5 798.770 75.8808 23
3 -2 5 725.919 82.4344 17
3 -2 6 1278.95 85.1929 23
3 -2 6 1281.26 89.8678 17
3 -2 7 4329.05 125.117 17
3 -1 -8 395.078 46.3951 20
3 -1 -8 452.626 54.0916 31
3 -1 -7 4927.20 188.629 31
3 -1 -6 568.343 68.5029 21
3 -1 -6 713.544 84.6531 31
3 -1 -5 581.783 70.0873 21
3 -1 -5 606.174 85.8040 31
3 -1 -4 2516.00 135.411 21
3 -1 -4 2264.44 149.149 31
3 -1 -3 1925.64 117.873 21
3 -1 -3 1645.04 128.647 31
3 -1 -2 80.4257 43.3834 31
3 -1 -1 862.682 94.3072 31
3 -1 0 145.943 47.7746 31
3 -1 1 59.2739 39.7570 17
3 -1 1 121.449 51.0762 15
3 -1 1 106.394 50.9163 31
3 -1 2 837.186 92.5478 15
3 -1 2 692.051 82.7408 17
3 -1 3 9092.34 291.464 15
3 -1 3 8689.89 273.311 23
3 -1 3 8300.96 278.908 17
3 -1 4 1322.78 114.298 15
3 -1 4 1272.92 106.133 23
3 -1 4 1239.18 110.518 17
3 -1 5 1350.50 111.933 15
3 -1 5 1362.38 105.458 23
3 -1 5 1223.18 107.160 17
3 -1 6 -9.09638 30.3420 23
3 -1 6 22.1616 32.7884 17
3 -1 7 439.556 53.7080 23
3 -1 7 477.881 53.8710 17
3 -1 8 126.591 26.9076 23
3 0 -8 372.905 44.3224 20
3 0 -8 341.712 45.3704 31
3 0 -7 1991.19 110.778 20
3 0 -7 2035.32 117.090 31
3 0 -6 1387.87 110.614 31
3 0 -5 2711.42 144.443 21
3 0 -5 2735.66 161.452 31
3 0 -4 4410.08 183.393 21
3 0 -4 4773.28 215.025 31
3 0 -3 46.1557 28.4538 21
3 0 -3 -14.9002 40.5971 31
3 0 -2 5953.40 236.072 31
3 0 -1 9635.29 300.940 31
3 0 0 1996.30 133.999 31
3 0 1 216.135 52.4542 15
3 0 1 136.048 48.6717 17
3 0 1 146.276 50.0707 31
3 0 2 37.4857 34.9735 15
3 0 2 14.7153 30.3725 17
3 0 2 -11.4357 43.8960 31
3 0 3 2352.85 145.444 15
3 0 3 2507.31 143.883 23
3 0 3 2201.01 138.601 17
3 0 4 741.735 80.9552 27
3 0 4 533.110 76.3994 15
3 0 4 615.079 78.1571 23
3 0 4 558.974 80.3200 17
3 0 5 3514.38 182.313 15
3 0 5 3792.47 169.827 27
3 0 5 3910.91 179.339 23
3 0 5 3685.71 184.990 17
3 0 6 306.647 62.1906 27
3 0 6 240.173 51.0334 25
3 0 6 267.624 58.4178 23
3 0 6 199.348 55.1677 17
3 0 7 321.489 52.8055 23
3 0 7 291.074 49.9467 17
3 0 8 294.095 44.5590 23
3 0 8 342.085 42.5227 17
3 0 9 369.436 34.4316 23
3 1 -8 1235.86 64.3506 20
3 1 -7 178.623 36.6159 20
3 1 -7 279.406 47.9133 31
3 1 -6 2115.82 121.931 20
3 1 -6 1931.46 123.968 31
3 1 -5 10779.9 315.281 31
3 1 -4 7681.89 268.817 31
3 1 -3 561.538 67.5960 21
3 1 -3 639.415 84.9623 31
3 1 -2 501.024 79.0713 31
3 1 -1 16180.8 401.176 31
3 1 0 5178.05 217.278 31
3 1 1 1662.70 123.606 31
3 1 2 1817.75 121.378 15
3 1 2 2048.82 127.900 17
3 1 2 1767.49 128.042 31
3 1 3 3834.76 178.553 15
3 1 3 3733.94 171.237 23
3 1 3 3475.16 163.850 18
3 1 3 3901.52 182.052 17
3 1 3 3500.25 180.423 31
3 1 4 520.845 73.4277 15
3 1 4 434.254 64.1051 23
3 1 4 387.051 60.8689 18
3 1 4 400.782 67.3127 17
3 1 5 37.8584 39.8021 27
3 1 5 41.8149 42.6250 15
3 1 5 -25.2712 31.3340 23
3 1 5 -41.1923 36.9773 18
3 1 5 4.70127 43.2520 17
3 1 6 396.721 69.4836 27
3 1 6 308.874 63.3245 25
3 1 6 284.190 56.2809 23
3 1 6 271.158 58.2464 18
3 1 6 220.252 54.0199 17
3 1 7 387.716 65.3306 27
3 1 7 250.155 53.8909 25
3 1 7 254.215 51.6486 23
3 1 7 324.737 60.0529 17
3 1 8 5153.46 167.891 27
3 1 8 5102.20 172.368 23
3 1 8 4961.40 167.707 17
3 1 9 784.399 57.5279 23
3 2 -7 73.8104 28.4611 20
3 2 -7 20.3447 21.5477 31
3 2 -6 1659.15 103.290 20
3 2 -6 1577.15 101.125 31
3 2 -5 11141.3 297.083 20
3 2 -5 10902.2 300.085 31
3 2 -4 13584.8 337.566 20
3 2 -4 12951.8 346.694 31
3 2 -3 9562.68 300.599 31
3 2 -2 3298.49 174.741 31
3 2 -1 62.2389 44.0292 31
3 2 0 693.847 84.9837 31
3 2 1 2129.93 141.865 31
3 2 2 158.135 99.8612 4
3 2 2 111.725 42.4514 18
3 2 2 146.108 51.6273 31
3 2 3 43.4292 41.1883 15
3 2 3 111.336 38.0932 18
3 2 3 113.030 46.0537 17
3 2 3 51.5207 44.8870 31
3 2 4 9317.20 279.650 15
3 2 4 9704.36 276.914 23
3 2 4 9755.88 288.946 18
3 2 4 9520.82 295.761 17
3 2 5 6.56464 33.9136 27
3 2 5 29.7965 44.7981 15
3 2 5 18.9234 39.2164 23
3 2 5 -27.9693 47.8724 18
3 2 5 57.4392 39.9765 17
3 2 6 1266.19 97.7360 27
3 2 6 1211.62 110.259 25
3 2 6 1294.99 103.867 23
3 2 6 1180.86 103.062 18
3 2 6 1407.02 118.294 17
3 2 7 1536.20 107.824 27
3 2 7 1720.31 126.337 25
3 2 7 1509.62 108.127 23
3 2 7 1653.94 120.971 18
3 2 7 1622.79 116.120 17
3 2 8 679.119 74.4639 27
3 2 8 752.111 78.4566 25
3 2 8 652.857 68.6343 23
3 2 8 796.865 74.3009 17
3 2 9 169.904 42.2455 27
3 2 9 79.2868 28.9300 23
3 3 -7 5653.15 138.150 20
3 3 -6 1562.31 91.2231 20
3 3 -5 40.8730 32.6345 20
3 3 -4 22255.2 441.000 20
3 3 -4 22137.4 441.405 31
3 3 -3 16242.4 370.383 20
3 3 -3 16079.4 385.566 31
3 3 -2 7608.61 238.930 20
3 3 -2 7521.98 260.818 31
3 3 -1 829.464 93.2755 31
3 3 0 -15.7556 45.3726 31
3 3 1 472.393 65.0856 30
3 3 1 553.853 77.2420 31
3 3 2 225.690 48.2421 17
3 3 2 314.179 64.2913 31
3 3 3 66.8353 43.3090 18
3 3 3 105.585 36.9415 17
3 3 3 86.9350 51.2052 31
3 3 4 27549.3 527.611 18
3 3 4 27426.8 528.816 17
3 3 5 39.4433 34.7107 23
3 3 5 -13.6091 35.8315 18
3 3 5 69.9476 44.1567 17
3 3 6 31234.0 502.677 27
3 3 6 30807.1 597.416 25
3 3 6 30570.2 524.437 23
3 3 6 31390.9 572.512 18
3 3 6 30774.9 580.371 17
3 3 7 65.4039 35.7580 27
3 3 7 65.8256 37.4344 25
3 3 7 49.0197 35.4992 23
3 3 7 131.311 49.1355 18
3 3 7 76.1253 43.7455 17
3 3 8 45.1777 37.6812 27
3 3 8 59.7171 45.6238 25
3 3 8 0.43061 27.4309 23
3 3 8 -27.0312 32.2916 17
3 3 9 3245.03 128.829 27
3 3 9 3276.09 114.272 14
3 3 9 3006.86 117.447 23
3 3 10 737.257 52.3917 27
3 4 -6 107.306 26.6768 20
-3 -4 5 24.1965 18.5789 12
3 4 -5 -7.91195 27.2844 20
-3 -4 4 2737.45 125.409 12
3 4 -4 2946.92 143.508 20
3 4 -3 3095.17 153.578 20
3 4 -2 106.028 45.4813 20
3 4 -1 2487.35 144.429 31
3 4 0 178.159 56.3902 31
3 4 1 763.960 78.3646 30
3 4 1 805.392 88.3865 31
3 4 2 4529.48 192.417 30
3 4 2 4652.47 202.673 31
3 4 3 11.8416 32.1542 30
3 4 3 5.50627 35.5257 18
3 4 3 17.8912 38.1390 31
3 4 4 2484.13 151.502 18
3 4 4 2731.63 155.160 17
3 4 5 7453.79 238.559 26
3 4 5 7053.80 256.609 18
3 4 5 7090.70 254.949 17
3 4 6 22896.3 496.540 25
3 4 6 22957.0 481.564 18
3 4 6 23206.8 490.848 17
3 4 7 348.267 51.3038 27
3 4 7 444.264 76.4635 25
3 4 7 407.899 70.1132 18
3 4 8 982.452 79.5063 27
3 4 8 1238.40 110.337 25
3 4 8 1375.15 109.255 18
3 4 9 62.5117 35.3835 27
3 4 9 123.015 32.0569 14
3 4 10 190.343 35.3988 27
-3 -5 5 154.711 24.4758 12
-3 -5 4 -3.08552 20.9265 12
3 5 -4 -17.0845 29.1422 20
-3 -5 3 548.195 62.7367 12
3 5 -3 371.271 55.1657 20
3 5 -2 4925.29 188.556 20
3 5 -1 1489.85 105.376 20
3 5 0 1567.31 107.533 30
3 5 1 3739.81 174.517 30
3 5 2 18379.0 410.489 30
3 5 2 18121.0 404.370 31
3 5 3 445.915 70.3533 30
3 5 3 491.901 72.9681 31
3 5 4 14.8829 32.3914 30
3 5 4 -23.4934 39.0451 25
3 5 4 46.2582 47.5452 18
3 5 5 2254.90 130.661 26
3 5 5 2463.44 148.939 25
3 5 5 2597.73 155.136 18
3 5 6 2284.07 131.471 16
3 5 6 2300.64 134.103 26
3 5 6 2297.49 146.365 25
3 5 6 2243.72 143.712 18
3 5 7 173.699 40.8875 16
3 5 7 238.041 61.8035 25
3 5 7 149.641 45.9877 18
3 5 8 305.890 46.6878 16
3 5 8 229.730 40.6653 27
3 5 8 444.781 74.7040 25
3 5 8 423.943 65.5206 18
3 5 9 781.219 62.8655 27
3 5 9 848.605 66.0542 16
3 5 10 356.029 38.8545 27
-3 -6 4 1957.74 78.9495 12
-3 -6 3 1991.87 98.3708 12
-3 -6 2 1973.25 109.676 12
3 6 -2 1712.93 103.719 20
-3 -6 1 55.2653 35.2442 12
3 6 -1 -29.9172 28.6684 20
3 6 0 238.419 48.2948 30
3 6 1 4.43160 28.7042 30
3 6 2 87.3676 41.4529 30
3 6 3 791.000 87.5253 30
3 6 4 9384.05 291.531 30
3 6 4 8791.80 287.886 18
3 6 5 164.218 55.7663 30
3 6 5 75.2482 34.9703 26
3 6 5 130.262 47.9952 18
3 6 6 759.700 80.5144 16
3 6 6 774.866 82.8930 26
3 6 6 761.978 85.9801 25
3 6 6 800.513 88.4272 18
3 6 7 61.2053 34.6949 16
3 6 7 43.6125 37.0057 26
3 6 7 49.1036 43.6972 25
3 6 7 -27.8919 38.2757 18
3 6 8 67.7547 34.0493 16
3 6 8 12.1027 37.7239 18
3 6 9 1914.70 97.2874 16
3 6 10 242.967 31.5756 27
-3 -7 3 1147.10 60.1312 12
-3 -7 2 1380.88 79.3942 12
-3 -7 1 1379.49 87.9095 12
3 7 0 811.902 74.1015 30
-3 -7 0 1002.01 80.3764 12
3 7 1 462.350 64.2491 30
-3 -7 -1 559.204 59.8984 12
3 7 2 909.998 89.0804 30
-3 -7 -2 1086.81 80.3308 12
3 7 3 61.2665 38.2737 30
3 7 3 -1.59871 31.8849 18
3 7 4 95.2728 46.4047 30
3 7 4 142.017 44.0178 18
3 7 5 48.0013 39.8483 30
3 7 5 94.3426 34.9730 26
3 7 5 46.2084 34.7178 18
3 7 6 -23.8969 31.6784 16
3 7 6 -3.92645 29.0172 26
3 7 6 67.4918 36.9841 18
3 7 7 2258.23 125.168 16
3 7 7 2465.27 130.395 26
3 7 7 2480.36 131.101 18
3 7 8 104.136 35.6195 16
3 7 8 95.9646 37.3859 18
3 7 9 217.691 35.9841 16
3 7 10 17.3102 16.1703 16
-3 -8 2 277.612 28.9528 12
-3 -8 1 1641.28 78.7827 12
3 8 0 29.1313 21.0386 30
-3 -8 0 -11.9490 23.2233 12
3 8 1 73.9953 30.4499 30
-3 -8 -1 88.4879 28.2554 12
3 8 2 401.782 56.6402 30
-3 -8 -2 356.355 45.8575 12
3 8 3 672.129 75.9822 30
3 8 3 638.047 69.6712 18
3 8 4 3.44492 31.3927 30
3 8 4 -26.1062 31.8477 18
3 8 5 647.958 68.2512 18
3 8 5 772.275 81.0833 30
3 8 6 637.077 70.1457 16
3 8 6 583.495 61.9101 18
3 8 7 2361.99 121.986 16
3 8 7 2343.07 117.718 26
3 8 7 2416.22 112.581 18
3 8 8 161.727 35.7996 16
3 8 8 129.060 32.8728 26
3 8 8 221.653 37.7841 18
3 8 9 1441.12 76.8568 16
-3 -9 0 1040.82 51.0661 12
3 9 1 235.988 33.9438 30
-3 -9 -1 227.878 30.2463 12
3 9 2 4253.35 146.017 30
3 9 3 3741.31 145.258 30
3 9 4 2923.03 136.075 30
3 9 5 447.906 56.1081 30
3 9 6 1224.48 83.0356 16
3 9 6 1128.94 72.5115 26
3 9 7 2927.37 120.574 16
3 9 7 2974.72 114.176 26
3 9 8 587.851 49.6641 26
3 9 8 571.018 50.7832 16
3 9 9 160.696 25.4368 16
3 10 3 97.7485 23.3819 30
3 10 4 8314.91 185.426 30
3 10 5 6544.87 161.981 16
3 10 6 869.273 57.3836 16
3 10 7 190.080 27.3562 16
4 -4 -4 18.9205 16.6239 15
4 -4 -3 847.971 55.4764 15
4 -4 -2 2514.53 96.8123 15
4 -4 -1 4207.38 125.619 15
4 -4 0 713.104 49.5082 15
4 -3 -5 1662.78 71.1126 15
4 -3 -4 225.751 35.3860 15
4 -3 -3 203.188 37.3871 15
4 -3 -2 10733.9 244.634 15
4 -3 -1 456.301 53.3779 15
4 -3 0 9346.30 223.253 15
4 -3 1 685.961 57.8058 15
4 -3 2 117.365 26.9033 15
4 -2 -5 134.452 26.3029 15
4 -2 -5 92.4183 23.0597 31
4 -2 -4 1170.11 74.4799 15
4 -2 -4 1261.46 73.4107 31
4 -2 -3 7507.17 204.015 15
4 -2 -3 7511.13 191.629 31
4 -2 -2 30.0917 31.3638 15
4 -2 -1 370.336 52.7806 15
4 -2 0 11295.5 275.394 15
4 -2 1 27.8299 34.8161 15
4 -2 2 1844.74 99.1584 15
4 -2 2 1580.79 82.0046 17
4 -2 3 -6.03250 22.1700 25
4 -2 3 55.4515 25.0394 17
4 -2 4 47.9057 18.6182 17
4 -1 -5 3108.42 111.793 31
4 -1 -4 5077.55 151.065 15
4 -1 -4 5307.67 166.045 31
4 -1 -3 72.3109 30.7048 15
4 -1 -3 60.8039 32.2113 31
4 -1 -2 588.535 63.0925 15
4 -1 -2 593.694 65.0960 31
4 -1 -1 477.469 60.5133 15
4 -1 -1 471.243 60.3286 31
4 -1 0 104.308 43.0712 15
4 -1 0 135.233 39.0546 31
4 -1 1 130.679 44.2078 15
4 -1 2 86.0294 36.8214 15
4 -1 2 255.673 41.4708 17
4 -1 3 1159.09 83.9138 15
4 -1 3 1083.46 75.0738 17
4 -1 4 65.1441 27.0223 25
4 -1 4 118.740 29.8673 17
4 -1 5 2027.13 83.1996 17
4 0 -5 1510.38 79.4294 31
4 0 -4 1102.38 80.1123 31
4 0 -3 819.730 65.5295 15
4 0 -3 729.138 77.2111 31
4 0 -2 1239.72 87.0623 15
4 0 -2 1338.27 100.292 31
4 0 -1 452.817 59.4547 15
4 0 -1 521.051 70.1150 31
4 0 0 73.9932 36.0559 15
4 0 0 0.17932 32.8497 31
4 0 1 262.490 49.0998 15
4 0 1 263.049 53.2624 31
4 0 2 -3.87730 29.7019 15
4 0 2 50.0969 28.8163 17
4 0 3 86.0856 34.4758 15
4 0 3 36.8382 25.5611 17
4 0 4 70.1134 29.3262 17
4 0 5 3894.63 135.294 25
4 0 5 4145.25 138.939 17
4 0 6 632.348 46.7094 17
4 1 -5 1519.48 75.0985 31
4 1 -4 339.304 48.5824 31
4 1 -3 1062.46 85.9866 31
4 1 -2 1099.43 93.0260 31
4 1 -1 127.692 50.1654 31
4 1 0 914.793 78.6568 15
4 1 0 1031.64 97.0495 31
4 1 1 2006.60 115.445 15
4 1 1 2007.53 129.361 31
4 1 2 412.305 57.0390 15
4 1 3 38.8570 30.4613 15
4 1 3 -6.98686 26.1255 17
4 1 4 70.6036 34.8945 15
4 1 4 45.2973 29.2616 17
4 1 5 51.7159 28.0896 25
4 1 5 58.4819 29.5425 17
4 1 6 162.766 33.1765 25
4 1 6 273.400 39.9039 17
4 2 -4 619.038 54.3163 31
4 2 -3 3478.27 143.090 31
4 2 -2 3323.61 152.157 31
4 2 -1 178.436 50.4082 31
4 2 0 1071.52 96.7372 31
4 2 1 6510.22 236.932 31
4 2 2 1375.74 110.250 31
4 2 3 580.065 65.1501 17
4 2 4 608.587 67.7449 17
4 2 5 983.057 84.5878 25
4 2 5 1153.79 84.4914 17
4 2 6 67.4198 32.6307 25
4 2 7 84.1268 28.0515 25
-4 -3 4 2806.71 87.0127 12
4 3 -3 7732.26 193.149 31
4 3 -2 2772.85 130.947 31
4 3 -1 1769.61 100.256 18
4 3 -1 2033.09 119.801 31
4 3 0 460.145 55.8192 18
4 3 0 535.554 69.0493 31
4 3 1 18.1671 30.2205 18
4 3 1 -56.7131 45.2058 31
4 3 2 346.081 50.7452 18
4 3 2 318.212 61.7163 31
4 3 3 631.500 68.6008 18
4 3 4 104.343 30.7548 18
4 3 5 51.5520 31.9411 25
4 3 5 68.9994 33.4617 18
4 3 6 1619.76 99.7338 25
4 3 6 1617.83 86.9704 18
4 3 7 82.1589 29.5658 25
-4 -4 3 227.603 29.1094 12
4 4 -2 14326.5 266.537 31
4 4 -1 7206.04 203.482 31
4 4 0 1982.33 110.221 18
4 4 0 2192.61 120.599 31
4 4 1 574.828 62.8520 18
4 4 1 540.001 65.9029 31
4 4 2 0.70082 28.2393 18
4 4 2 -28.1117 34.6951 31
4 4 3 243.389 45.3584 25
4 4 3 395.837 55.4593 18
4 4 4 267.559 49.8962 25
4 4 4 406.463 55.8648 18
4 4 5 1.42172 31.2019 25
4 4 5 9.91141 28.6407 18
4 4 6 11147.5 262.948 25
4 4 6 11260.1 247.280 18
4 4 7 91.7273 34.3677 25
-4 -5 2 414.173 38.1865 12
-4 -5 1 1919.23 87.2720 12
4 5 0 213.996 42.1028 18
4 5 1 1027.18 81.6415 18
4 5 2 222.812 45.0560 18
4 5 3 138.963 36.0714 18
4 5 4 341.584 50.2293 18
4 5 5 220.086 40.5157 25
4 5 5 190.496 38.5759 18
4 5 6 33.9658 29.2752 25
4 5 6 44.7681 29.0434 18
4 5 7 2043.04 90.0957 18
-4 -6 1 182.472 25.9100 12
4 6 -1 159.553 27.6453 18
-4 -6 0 1867.93 77.5264 12
4 6 0 1748.91 89.0496 18
-4 -6 -1 955.964 57.2581 12
4 6 1 827.791 67.4965 18
4 6 2 1072.69 79.1339 18
4 6 3 1848.00 103.212 18
4 6 4 5677.81 180.044 18
4 6 5 79.8069 28.4918 18
4 6 6 507.034 51.8272 18
4 6 7 1779.98 80.4810 18
4 7 1 53.2590 22.4136 18
4 7 2 5.73150 22.4381 18
4 7 3 79.6889 27.7368 18
4 7 4 188.314 35.3188 18
4 7 5 155.918 30.7563 18
4 7 6 1654.93 76.6341 18
