#------------------------------------------------------------------------------
#$Date: 2019-11-24 02:34:36 +0200 (Sun, 24 Nov 2019) $
#$Revision: 236282 $
#$URL: file:///home/coder/svn-repositories/cod/cif/4/03/75/4037528.cif $
#------------------------------------------------------------------------------
#
# This file is available in the Crystallography Open Database (COD),
# http://www.crystallography.net/
#
# All data on this site have been placed in the public domain by the
# contributors.
#
data_4037528
loop_
_publ_author_name
'Miao, Maozhong'
'Luo, Yi'
'Xu, Huaping'
'Jin, Mengchao'
'Chen, Zhengkai'
'Xu, Jianfeng'
'Ren, Hongjun'
_publ_section_title
;
 Strain-Promoted Nitration of 3-Cyclopropylideneprop-2-en-1-ones and the
 Application for the Synthesis of Pyrroles.
;
_journal_issue                   23
_journal_name_full               'The Journal of organic chemistry'
_journal_page_first              12224
_journal_page_last               12237
_journal_paper_doi               10.1021/acs.joc.7b02087
_journal_volume                  82
_journal_year                    2017
_chemical_formula_moiety         'C18 H18 N O2 S'
_chemical_formula_sum            'C18 H18 N O2 S'
_chemical_formula_weight         312.39
_space_group_crystal_system      triclinic
_space_group_IT_number           2
_space_group_name_Hall           '-P 1'
_space_group_name_H-M_alt        'P -1'
_atom_sites_solution_hydrogens   geom
_atom_sites_solution_primary     direct
_audit_creation_date             2017-04-27
_audit_creation_method
;
Olex2 1.2
(compiled 2017.03.28 svn.r3405 for OlexSys, GUI svn.r5335)
;
_cell_angle_alpha                108.463(10)
_cell_angle_beta                 90.621(8)
_cell_angle_gamma                108.390(9)
_cell_formula_units_Z            2
_cell_length_a                   8.1086(8)
_cell_length_b                   9.7037(10)
_cell_length_c                   11.3963(12)
_cell_measurement_reflns_used    1681
_cell_measurement_temperature    293(2)
_cell_measurement_theta_max      29.2392
_cell_measurement_theta_min      3.4531
_cell_volume                     800.98(16)
_computing_cell_refinement
;
CrysAlisPro, Agilent Technologies,
Version 1.171.35.11 (release 16-05-2011 CrysAlis171 .NET)
(compiled May 16 2011,17:55:39)
;
_computing_data_collection
;
CrysAlisPro, Agilent Technologies,
Version 1.171.35.11 (release 16-05-2011 CrysAlis171 .NET)
(compiled May 16 2011,17:55:39)
;
_computing_data_reduction
;
CrysAlisPro, Agilent Technologies,
Version 1.171.35.11 (release 16-05-2011 CrysAlis171 .NET)
(compiled May 16 2011,17:55:39)
;
_computing_molecular_graphics    'Olex2 (Dolomanov et al., 2009)'
_computing_publication_material  'Olex2 (Dolomanov et al., 2009)'
_computing_structure_refinement  'ShelXL (Sheldrick, 2015)'
_computing_structure_solution    'ShelXS (Sheldrick, 2008)'
_diffrn_ambient_temperature      293.15
_diffrn_detector_area_resol_mean 10.3592
_diffrn_measured_fraction_theta_full 0.996
_diffrn_measured_fraction_theta_max 0.996
_diffrn_measurement_details
;
#__ type_ start__ end____ width___ exp.time_
  1 omega  -74.00   12.00   1.0000   18.0000
omega____ theta____ kappa____ phi______ frames
    -      -11.4683  -38.0000  -30.0000 86

#__ type_ start__ end____ width___ exp.time_
  2 omega  -38.00   63.00   1.0000   18.0000
omega____ theta____ kappa____ phi______ frames
    -      -11.4683   38.0000  150.0000 101

#__ type_ start__ end____ width___ exp.time_
  3 omega  -22.00   69.00   1.0000   18.0000
omega____ theta____ kappa____ phi______ frames
    -       11.7808   77.0000  -90.0000 91
;
_diffrn_measurement_device_type  'Xcalibur, Atlas, Gemini ultra'
_diffrn_measurement_method       '\w scans'
_diffrn_orient_matrix_UB_11      -0.0351054000
_diffrn_orient_matrix_UB_12      0.0553847000
_diffrn_orient_matrix_UB_13      -0.0076455000
_diffrn_orient_matrix_UB_21      -0.0803514000
_diffrn_orient_matrix_UB_22      -0.0595238000
_diffrn_orient_matrix_UB_23      -0.0286157000
_diffrn_orient_matrix_UB_31      -0.0306517000
_diffrn_orient_matrix_UB_32      0.0092258000
_diffrn_orient_matrix_UB_33      0.0591141000
_diffrn_radiation_monochromator  graphite
_diffrn_radiation_type           MoK\a
_diffrn_radiation_wavelength     0.71073
_diffrn_reflns_av_R_equivalents  0.0332
_diffrn_reflns_av_unetI/netI     0.0531
_diffrn_reflns_Laue_measured_fraction_full 0.996
_diffrn_reflns_Laue_measured_fraction_max 0.996
_diffrn_reflns_limit_h_max       9
_diffrn_reflns_limit_h_min       -8
_diffrn_reflns_limit_k_max       9
_diffrn_reflns_limit_k_min       -11
_diffrn_reflns_limit_l_max       12
_diffrn_reflns_limit_l_min       -13
_diffrn_reflns_number            4994
_diffrn_reflns_point_group_measured_fraction_full 0.996
_diffrn_reflns_point_group_measured_fraction_max 0.996
_diffrn_reflns_theta_full        25.242
_diffrn_reflns_theta_max         25.350
_diffrn_reflns_theta_min         3.460
_diffrn_source                   'Enhance (Mo) X-ray Source'
_exptl_absorpt_coefficient_mu    0.208
_exptl_absorpt_correction_T_max  1.00000
_exptl_absorpt_correction_T_min  0.71870
_exptl_absorpt_correction_type   multi-scan
_exptl_absorpt_process_details
;
CrysAlisPro, Agilent Technologies,
Version 1.171.35.11 (release 16-05-2011 CrysAlis171 .NET)
(compiled May 16 2011,17:55:39)
Empirical absorption correction using spherical harmonics,
 implemented in SCALE3 ABSPACK scaling algorithm.
;
_exptl_crystal_colour            yellow
_exptl_crystal_colour_primary    yellow
_exptl_crystal_density_diffrn    1.295
_exptl_crystal_description       block
_exptl_crystal_F_000             330
_exptl_crystal_size_max          0.42
_exptl_crystal_size_mid          0.36
_exptl_crystal_size_min          0.3
_refine_diff_density_max         0.681
_refine_diff_density_min         -0.516
_refine_diff_density_rms         0.092
_refine_ls_extinction_method     none
_refine_ls_goodness_of_fit_ref   1.036
_refine_ls_hydrogen_treatment    constr
_refine_ls_matrix_type           full
_refine_ls_number_parameters     200
_refine_ls_number_reflns         2925
_refine_ls_number_restraints     0
_refine_ls_restrained_S_all      1.036
_refine_ls_R_factor_all          0.1130
_refine_ls_R_factor_gt           0.0817
_refine_ls_shift/su_max          0.002
_refine_ls_shift/su_mean         0.000
_refine_ls_structure_factor_coef Fsqd
_refine_ls_weighting_details
'w=1/[\s^2^(Fo^2^)+(0.1557P)^2^+0.3197P] where P=(Fo^2^+2Fc^2^)/3'
_refine_ls_weighting_scheme      calc
_refine_ls_wR_factor_gt          0.2263
_refine_ls_wR_factor_ref         0.2667
_reflns_Friedel_coverage         0.000
_reflns_number_gt                1963
_reflns_number_total             2925
_reflns_threshold_expression     'I > 2\s(I)'
_cod_data_source_file            jo7b02087_si_001.cif
_cod_data_source_block           170426_xhp_3_105_cmpd_5j
_cod_original_cell_volume        800.97(15)
_cod_database_code               4037528
_shelx_shelxl_version_number     2016/6
_chemical_oxdiff_formula         'c10 h10 n2 o8 s1'
_shelx_space_group_comment
;
The symmetry employed for this shelxl refinement is uniquely defined
by the following loop, which should always be used as a source of
symmetry information in preference to the above space-group names.
They are only intended as comments.
;
_shelx_estimated_absorpt_t_max   0.940
_shelx_estimated_absorpt_t_min   0.918
_reflns_odcompleteness_completeness 99.51
_reflns_odcompleteness_iscentric 1
_reflns_odcompleteness_theta     26.32
_olex2_refinement_description
;
1. Fixed Uiso
 At 1.2 times of:
  All C(H) groups, All C(H,H) groups, All N(H) groups
 At 1.5 times of:
  All C(H,H,H) groups
2.a Secondary CH2 refined with riding coordinates:
 C3(H3A,H3B), C15(H15A,H15B), C16(H16A,H16B)
2.b Aromatic/amide H refined with riding coordinates:
 N1(H1), C1(H1A), C2(H2), C7(H7), C10(H10), C11(H11), C12(H12), C13(H13),
 C14(H14)
2.c Idealised Me refined as rotating group:
 C18(H18A,H18B,H18C)
;
_shelx_res_file
;
TITL 170426_xhp_3_105 in P-1 #2
    170426_xhp_3_105.res
    created by SHELXL-2016/6 at 10:45:11 on 27-Apr-2017
REM reset to P-1 #2
CELL 0.71073 8.10862 9.70367 11.39628 108.463 90.6215 108.3901
ZERR 2 0.00076 0.00103 0.00122 0.0099 0.0082 0.009
LATT 1
SFAC C H N O S
UNIT 36 36 2 4 2

L.S. 4
PLAN  20
SIZE 0.42 0.36 0.3
TEMP 20
BOND $h
htab
fmap 2
ACTA
SHEL 999 0.83
OMIT -2 0 2
REM <olex2.extras>
REM <HklSrc "%.\\170426_xhp_3_105.hkl">
REM </olex2.extras>

WGHT    0.155700    0.319700
FVAR       7.65559
S1    5    0.276225    0.598610    0.724443    11.00000    0.06692    0.05859 =
         0.08651    0.02655   -0.00157    0.01811
O1    4    1.089404    0.324193    0.379746    11.00000    0.06665    0.08033 =
         0.07459    0.04281    0.01654    0.02285
O2    4    1.029450    0.221537    0.528974    11.00000    0.07858    0.08620 =
         0.06967    0.04366    0.03459    0.05047
N1    3    0.665890    0.456491    0.727234    11.00000    0.04419    0.04394 =
         0.05334    0.02159    0.01098    0.00740
AFIX  43
H1    2    0.741830    0.528914    0.708886    11.00000   -1.20000
AFIX   0
C1    1    0.324907    0.788558    0.780618    11.00000    0.08345    0.06373 =
         0.07079    0.03477    0.02052    0.04150
AFIX  43
H1A   2    0.250862    0.839499    0.766693    11.00000   -1.20000
AFIX   0
C2    1    0.485844    0.861792    0.849594    11.00000    0.08919    0.04268 =
         0.05192    0.01616    0.01134    0.01407
AFIX  43
H2    2    0.533548    0.968621    0.884467    11.00000   -1.20000
AFIX   0
C3    1    0.574769    0.762229    0.863973    11.00000    0.04467    0.03516 =
         0.04580    0.02276    0.01500    0.00978
AFIX  23
H3A   2    0.592785    0.773373    0.951241    11.00000   -1.20000
H3B   2    0.688172    0.787810    0.833943    11.00000   -1.20000
AFIX   0
C4    1    0.467314    0.604850    0.792243    11.00000    0.05381    0.03851 =
         0.04506    0.01901    0.01133    0.01174
C5    1    0.512489    0.464905    0.772696    11.00000    0.04252    0.03883 =
         0.04792    0.01760    0.00670    0.01150
C6    1    0.426301    0.327325    0.791196    11.00000    0.04120    0.03864 =
         0.05007    0.01866    0.00729    0.00973
C7    1    0.534462    0.234104    0.752485    11.00000    0.05183    0.04306 =
         0.05737    0.02438    0.01196    0.01458
AFIX  43
H7    2    0.509180    0.133791    0.752663    11.00000   -1.20000
AFIX   0
C8    1    0.681016    0.316616    0.715204    11.00000    0.05159    0.05020 =
         0.05024    0.02248    0.01269    0.02009
C9    1    0.262338    0.281371    0.845536    11.00000    0.04381    0.04157 =
         0.04818    0.02321    0.00895    0.01244
C10   1    0.212634    0.385464    0.941264    11.00000    0.05154    0.04980 =
         0.05002    0.02076    0.01064    0.01821
AFIX  43
H10   2    0.280148    0.489557    0.969755    11.00000   -1.20000
AFIX   0
C11   1    0.061972    0.333292    0.993994    11.00000    0.06141    0.07554 =
         0.05134    0.02373    0.01817    0.03436
AFIX  43
H11   2    0.029247    0.403389    1.057652    11.00000   -1.20000
AFIX   0
C12   1   -0.039564    0.180151    0.953893    11.00000    0.04952    0.07987 =
         0.06437    0.03671    0.01679    0.01213
AFIX  43
H12   2   -0.139685    0.146498    0.990398    11.00000   -1.20000
AFIX   0
C13   1    0.008264    0.077899    0.859777    11.00000    0.05599    0.05545 =
         0.07662    0.03311    0.01195    0.00667
AFIX  43
H13   2   -0.059535   -0.026107    0.832463    11.00000   -1.20000
AFIX   0
C14   1    0.155401    0.126914    0.804975    11.00000    0.05611    0.04225 =
         0.05372    0.01927    0.01202    0.01191
AFIX  43
H14   2    0.184233    0.055832    0.739652    11.00000   -1.20000
AFIX   0
C15   1    0.839782    0.276639    0.677431    11.00000    0.05560    0.06497 =
         0.06227    0.02644    0.01751    0.02526
AFIX  23
H15A  2    0.940852    0.354301    0.733399    11.00000   -1.20000
H15B  2    0.828679    0.178851    0.687911    11.00000   -1.20000
AFIX   0
C16   1    0.873089    0.264735    0.547221    11.00000    0.07373    0.08652 =
         0.06240    0.03849    0.02207    0.04010
AFIX  23
H16A  2    0.774507    0.187089    0.488774    11.00000   -1.20000
H16B  2    0.891588    0.362797    0.535080    11.00000   -1.20000
AFIX   0
C17   1    1.128133    0.262734    0.446911    11.00000    0.05751    0.05493 =
         0.04930    0.01275    0.01212    0.02006
C18   1    1.292052    0.223722    0.448519    11.00000    0.08229    0.10691 =
         0.06805    0.02871    0.02197    0.04764
AFIX 137
H18A  2    1.389510    0.316298    0.487808    11.00000   -1.50000
H18B  2    1.310967    0.175726    0.364579    11.00000   -1.50000
H18C  2    1.281016    0.154071    0.494205    11.00000   -1.50000
AFIX   0
HKLF 4




REM  170426_xhp_3_105 in P-1 #2
REM R1 =  0.0817 for    1963 Fo > 4sig(Fo)  and  0.1130 for all    2925 data
REM    200 parameters refined using      0 restraints

END

WGHT      0.1544      0.3581

REM Instructions for potential hydrogen bonds
EQIV $1 -x+2, -y+1, -z+1
HTAB N1 O1_$1
EQIV $2 x+1, y, z
HTAB C15 S1_$2

REM Highest difference peak  0.681,  deepest hole -0.516,  1-sigma level  0.092
Q1    1   0.6177  0.7813  0.8809  11.00000  0.05    0.68
Q2    1   0.3904  0.5879  0.7571  11.00000  0.05    0.54
Q3    1   0.3923  0.8277  0.8326  11.00000  0.05    0.46
Q4    1   0.4749  0.5480  0.7794  11.00000  0.05    0.38
Q5    1   1.2316  0.2537  0.4626  11.00000  0.05    0.35
Q6    1   0.1660  0.6328  0.6861  11.00000  0.05    0.33
Q7    1   0.1900  0.6751  0.7034  11.00000  0.05    0.31
Q8    1   1.0176  0.3004  0.3609  11.00000  0.05    0.30
Q9    1   1.1428  0.2514  0.4174  11.00000  0.05    0.27
Q10   1   0.7680  0.3226  0.7146  11.00000  0.05    0.26
Q11   1   0.9442  0.1909  0.5011  11.00000  0.05    0.26
Q12   1   1.3469  0.2526  0.5270  11.00000  0.05    0.24
Q13   1   1.0872  0.3719  0.4434  11.00000  0.05    0.23
Q14   1   0.4591  0.2847  0.7591  11.00000  0.05    0.23
Q15   1   0.9256  0.2999  0.7362  11.00000  0.05    0.22
Q16   1   0.0417  0.1282  0.9373  11.00000  0.05    0.22
Q17   1   0.2239  0.3534  0.9040  11.00000  0.05    0.22
Q18   1   0.9158  0.4052  0.3754  11.00000  0.05    0.21
Q19   1   0.3798  0.4492  0.7363  11.00000  0.05    0.21
Q20   1   0.5401  0.2692  0.7772  11.00000  0.05    0.21
;
_shelx_res_checksum              42334
_shelx_hkl_file
;
   0   0   2 173471. 1597.22   3
   0   0   3 64340.7 1187.90   3
   0   0   4 114193. 1835.13   3
   0   0   5 135.194 72.1396   3
   0   0   6 533.026 162.603   3
   0   0   7 6625.38 603.007   3
   0   0  -7 8588.14 670.919   3
   0   0  -8-99.1060 129.751   3
   0   0  -9 278.476 149.992   3
   0   0 -10 1956.08 384.220   3
   0   0 -11 375.872 214.808   3
   0   0 -12 2529.29 507.647   3
   0   0 -13 319.790 246.238   3
   0   1 -13 176.126 193.566   3
   0   1 -12 1338.38 372.248   3
   0   1 -11 619.612 253.587   3
   0   1 -10 107.103 94.4901   3
   0   1  -9 759.718 238.038   3
   0   1  -8 180.212 152.107   3
   0   1  -7 21459.8 1096.69   3
   0  -1   5 9177.59 268.117   2
   0  -1   4 168858. 1259.25   2
   0  -1   3 39580.0 641.848   2
   0   1  -2 43657.7 690.602   2
   0  -1  -1 22044.2 477.409   2
   0   1   2 125527. 1619.17   3
   0  -1  -2 123333. 1135.12   2
   0  -1  -3 114565. 1062.27   2
   0   1   3 113822. 1314.76   1
   0   1   3 116004. 1780.14   3
   0   1   4 15810.2 770.795   3
   0   1   4 15124.3 502.759   1
   0   1   5 12110.5 461.788   1
   0  -1  -5 11651.3 711.128   3
   0   1   5 13094.4 783.967   3
   0  -1  -6 15291.9 886.569   3
   0   1   6 15800.0 538.848   1
   0  -1  -7 7224.44 658.805   3
   0   1   7 5570.06 317.628   1
   0   1   7 7764.14 687.644   3
   0   1   8 220.541 58.3582   1
   0  -1  -8 449.189 199.229   3
   0  -1  -9 462.127 192.598   3
   0   1   9 252.879 56.7063   1
   0  -1 -10 285.458 190.069   3
   0  -1 -11 994.341 315.988   3
   0  -1 -12 172.767 195.537   3
   0  -1 -13 433.620 266.854   3
   0   2 -14 1.41747 132.179   3
   0   2 -13 1073.64 327.114   3
   0   2 -12 30.1078 124.534   3
   0   2 -11 1491.33 368.085   3
   0   2 -10 7836.39 823.231   3
   0   2  -9 4261.07 559.007   3
   0  -2   8 74.5599 20.9906   2
   0   2  -8 104.293 81.3860   3
   0  -2   7 269.735 86.8653   2
   0   2  -6 10018.3 263.378   1
   0  -2   6 14433.0 519.188   2
   0  -2   5 3113.72 251.321   2
   0   2  -5 2475.77 170.253   1
   0  -2   4 20.4563 59.5775   2
   0  -2   3 65891.3 1187.43   2
   0   2  -3 65463.4 1173.11   2
   0  -2   2 21153.6 673.285   2
   0  -2   1 24883.1 748.725   2
   0  -2   0 468301. 3126.55   2
   0   2   0 469635. 3135.78   3
   0  -2  -1 89457.7 1362.31   2
   0   2   1 87136.5 1455.68   3
   0  -2  -2 97944.0 1434.15   2
   0   2   2 98176.5 1631.53   1
   0   2   2 100086. 1704.81   3
   0   2   3 10486.1 525.131   1
   0  -2  -3 10001.0 452.298   2
   0   2   3 10698.0 630.794   3
   0  -2  -4 18.2770 103.870   3
   0   2   4 137.274 68.6237   1
   0   2   4-38.5557 101.530   3
   0  -2  -4 73.6310 51.9125   2
   0  -2  -5-19.4739 40.8939   2
   0  -2  -5-67.3939 123.116   3
   0   2   5-8.02772 85.7202   3
   0   2   5 44.5121 46.3387   1
   0  -2  -6 2126.94 344.998   3
   0   2   6 2216.29 259.451   1
   0  -2  -6 1831.89 167.877   2
   0   2   6 2007.86 362.624   3
   0  -2  -7 1566.32 324.308   3
   0  -2  -7 1224.82 100.884   2
   0   2   7 1669.94 232.856   1
   0   2   8 661.166 136.036   1
   0  -2  -8 916.449 280.243   3
   0   2   9 1223.16 184.685   1
   0  -2  -9 1990.90 408.993   3
   0  -2 -10 115.662 86.9847   3
   0  -2 -11 491.151 273.227   3
   0  -2 -12 751.356 299.988   3
   0   3 -14-89.0967 114.129   3
   0   3 -13 1619.14 426.733   3
   0   3 -12 55.3477 190.469   3
   0   3 -11 2018.36 448.060   3
   0  -3  10 58.6863 59.2579   2
   0   3 -10 87.0879 139.133   3
   0   3  -9 31.4441 102.876   3
   0  -3   9 62.7805 47.7011   2
   0   3  -8 784.520 223.798   3
   0   3  -8 604.228 72.8835   1
   0  -3   8 676.118 137.717   2
   0   3  -7 5778.15 302.147   1
   0  -3   7 7320.73 461.815   2
   0  -3   6 3947.84 348.222   2
   0   3  -6 3239.51 255.537   1
   0  -3   5 10484.0 567.982   2
   0   3  -5 8379.61 445.450   1
   0  -3   4-71.3337 107.894   2
   0   3  -4 95.4957 63.4125   1
   0   3  -3 144.602 96.6457   2
   0  -3   3-113.620 111.455   2
   0  -3   2 25095.8 899.651   2
   0  -3   1 3542.81 352.063   2
   0   3   0 802.284 166.634   3
   0  -3   0 573.554 156.669   2
   0  -3  -1 12216.9 623.493   2
   0   3   1 12795.8 684.673   3
   0   3   2 10839.4 648.566   1
   0   3   2 9781.27 630.059   3
   0  -3  -2 10521.2 566.051   2
   0  -3  -2 10264.9 620.347   3
   0   3   3 69927.9 1632.34   1
   0  -3  -3 65862.8 1683.12   3
   0   3   3 69859.2 1782.55   3
   0  -3  -3 66045.4 1418.17   2
   0  -3  -4 8053.96 626.754   3
   0   3   4 9181.11 603.973   1
   0  -3  -4 8949.02 513.554   2
   0   3   5 75.1221 81.4330   1
   0  -3  -5 139.386 126.537   3
   0   3   5-16.6307 108.660   3
   0  -3  -5 289.442 112.940   2
   0  -3  -6 2761.42 263.393   2
   0  -3  -6 2839.49 418.417   3
   0   3   6 2853.94 447.594   3
   0   3   7-40.8929 57.7843   1
   0  -3  -7 26.9823 147.493   3
   0  -3  -7 129.870 62.3664   2
   0  -3  -8 566.463 188.653   3
   0  -3  -8 481.326 78.6615   2
   0  -3  -9 78.7124 132.788   3
   0  -3 -10 1737.19 422.918   3
   0  -3 -11 93.3372 141.460   3
   0  -3 -12-110.028 170.392   3
   0   4 -14 1022.87 350.676   3
   0   4 -13 3850.70 680.909   3
   0   4 -12 126.404 151.806   3
   0   4 -11 434.673 198.291   3
   0  -4  11 237.526 48.5752   2
   0   4 -10 10576.7 914.444   3
   0  -4  10 9022.48 574.374   2
   0  -4   9 16206.1 787.533   2
   0   4  -9 15526.1 530.492   1
   0   4  -8 332.204 87.1580   1
   0  -4   8 377.783 126.216   2
   0   4  -7-45.5834 44.0473   1
   0  -4   7-187.096 126.410   2
   0  -4   6 12589.5 731.174   2
   0   4  -6 11647.2 623.065   1
   0   4  -5-75.8773 92.1567   1
   0  -4   5-216.339 154.790   2
   0   4  -4 1524.65 252.379   1
   0  -4   4 1746.77 282.427   2
   0  -4   3 205.354 96.5629   2
   0   4  -3 279.155 101.443   1
   0  -4   2 354.644 122.566   2
   0  -4   1 141709. 2400.80   2
   0   4   0 420.970 131.528   3
   0  -4   0 277.714 105.306   2
   0  -4  -1 89.5944 77.2106   3
   0  -4  -1-95.0767 118.940   2
   0   4   2 29273.2 1215.67   3
   0  -4  -2 27337.2 1052.92   2
   0  -4  -2 26264.5 1105.32   3
   0  -4  -3 24042.9 978.979   2
   0  -4  -3 22104.6 1055.00   3
   0  -4  -4 1387.15 308.131   3
   0  -4  -4 1630.77 278.466   2
   0   4   4 1013.65 253.761   3
   0  -4  -5 3340.08 467.190   3
   0   4   5 3469.41 496.088   3
   0  -4  -5 3588.21 372.688   2
   0   4   6 2844.52 413.757   1
   0  -4  -6 2956.63 332.455   2
   0  -4  -6 3007.07 481.952   3
   0  -4  -7 816.506 171.307   2
   0  -4  -7 824.466 277.107   3
   0   4   7 652.173 207.258   1
   0   4   8 507.656 169.750   1
   0  -4  -8 450.624 198.825   3
   0  -4  -8 644.226 129.171   2
   0  -4  -9 888.536 289.648   3
   0  -4 -10 462.159 230.506   3
   0  -4 -11 80.0758 145.132   3
   0   5 -14 750.525 379.599   3
   0   5 -13 3562.36 642.532   3
   0   5 -12 233.524 148.831   3
   0   5 -11 651.875 243.679   3
   0  -5  11 519.054 147.952   2
   0   5 -10 42.2741 57.6745   1
   0  -5  10-113.944 123.162   2
   0  -5   9 7260.16 611.197   2
   0   5  -9 8511.78 538.081   1
   0   5  -8 414.547 122.859   1
   0  -5   8 448.234 158.750   2
   0   5  -7 72.9742 67.4240   1
   0  -5   7-3.03781 84.5937   2
   0   5  -6 3527.39 425.919   1
   0  -5   6 3620.66 455.900   2
   0  -5   5 3877.73 436.204   2
   0   5  -5 3774.99 430.273   1
   0   5  -4 33187.4 1302.83   1
   0  -5   4 34204.3 1325.90   2
   0   5  -3 4285.83 478.394   1
   0  -5   3 4297.28 459.400   2
   0  -5   2 5903.49 555.881   2
   0   5  -1 4908.57 523.992   3
   0  -5   1 4263.96 467.576   2
   0  -5   0 2419.67 362.823   2
   0   5   0 2377.25 373.724   3
   0   5   1 3064.31 442.208   3
   0  -5  -1 3399.64 415.674   2
   0  -5  -2 1605.82 315.269   3
   0   5   2 1210.18 273.239   1
   0   5   2 1423.59 304.823   3
   0  -5  -2 1727.23 310.685   2
   0  -5  -3 455.783 191.654   2
   0   5   3 362.723 170.802   1
   0   5   3 149.733 126.988   3
   0  -5  -3 488.353 184.496   3
   0   5   4 4172.13 524.200   1
   0  -5  -4 4866.36 583.125   3
   0  -5  -4 5205.53 512.836   2
   0  -5  -5 2753.89 478.346   3
   0   5   5 2330.19 407.715   1
   0  -5  -5 3417.01 414.544   2
   0  -5  -6 4786.91 630.804   3
   0  -5  -6 4597.40 459.288   2
   0   5   6 5742.63 646.242   1
   0  -5  -7 1043.81 224.537   2
   0  -5  -7 1122.22 337.645   3
   0  -5  -8 65.3894 131.639   3
   0  -5  -9 364.814 251.971   3
   0  -5 -10-48.1119 105.686   3
   0   6 -13 224.224 235.171   3
   0   6 -12 925.440 311.111   3
   0  -6  12 1065.90 270.050   2
   0  -6  11-38.1840 86.6015   2
   0  -6  10 6832.98 644.557   2
   0   6 -10 7920.53 578.606   1
   0   6  -9 3048.70 371.878   1
   0  -6   9 2483.29 402.355   2
   0  -6   8 80.3089 107.950   2
   0   6  -8 218.599 124.236   1
   0  -6   7 12038.6 869.696   2
   0   6  -7 11429.7 794.556   1
   0  -6   6 659.802 237.713   2
   0   6  -6 433.870 176.610   1
   0  -6   5 20234.5 1133.23   2
   0   6  -5 20193.9 1142.02   1
   0  -6   4 4189.43 507.795   2
   0   6  -4 4328.32 534.734   1
   0  -6   3 7579.11 694.573   2
   0   6  -3 8112.68 754.876   1
   0   6  -2 6085.90 660.798   1
   0  -6   2 5757.90 602.397   2
   0   6  -1 42059.5 1696.68   3
   0  -6   1 52124.4 1789.72   2
   0  -6   0 9849.08 789.272   2
   0   6   0 9063.81 809.679   3
   0   6   0 10813.6 892.594   1
   0   6   1 12886.8 992.832   3
   0   6   1 12564.8 979.179   1
   0  -6  -1 10389.0 822.475   2
   0  -6  -2 1100.45 296.512   2
   0  -6  -3 19660.4 1096.38   2
   0  -6  -3 18331.0 1149.88   3
   0  -6  -4 21.7174 117.742   2
   0  -6  -4 39.0584 150.703   3
   0  -6  -5 1119.80 313.866   3
   0  -6  -5 991.790 242.659   2
   0  -6  -6 663.073 252.443   3
   0  -6  -6 768.362 210.137   2
   0  -6  -7 630.229 256.675   3
   0  -6  -7 559.662 184.478   2
   0  -6  -8 19.4940 138.153   3
   0  -6  -9 146.364 179.904   3
   0   7 -13 672.625 301.039   3
   0  -7  12 261.550 130.969   2
   0  -7  11-93.5906 116.352   2
   0  -7  10 289.553 153.467   2
   0   7 -10-66.4446 86.4804   1
   0   7  -9 1403.48 307.524   1
   0  -7   9 777.821 239.213   2
   0   7  -8 10104.1 813.231   1
   0  -7   8 10437.6 874.881   2
   0  -7   7 3586.62 520.726   2
   0   7  -7 4114.15 530.548   1
   0  -7   6 7733.55 775.846   2
   0   7  -6 7690.27 749.258   1
   0  -7   5 10157.1 877.260   2
   0   7  -5 11110.9 936.040   1
   0  -7   4 1883.44 408.584   2
   0  -7   3 18560.9 1158.58   2
   0  -7   2 5966.82 677.188   2
   0  -7   1 15181.3 1057.37   2
   0  -7   0 209.382 147.365   2
   0  -7  -1 7799.51 761.603   2
   0  -7  -2 1221.98 311.616   2
   0  -7  -3 4031.92 559.558   2
   0  -7  -4 11.0971 106.295   3
   0  -7  -4-35.7309 91.2212   2
   0  -7  -5 474.678 188.741   2
   0  -7  -5 726.422 288.963   3
   0  -7  -6 96.3714 102.539   3
   0  -7  -6-46.8134 117.680   2
   0  -7  -7 223.878 128.694   3
   0  -7  -8 124.631 189.857   3
   0  -8  12 599.939 220.303   2
   0  -8  11 598.954 250.085   2
   0  -8  10 2704.49 468.759   2
   0  -8   9 1653.55 386.803   2
   0  -8   8 253.931 170.957   2
   0  -8   7 802.587 260.802   2
   0  -8   6 846.538 268.148   2
   0  -8   5 6313.97 752.155   2
   0  -8   4 90.4041 168.292   2
   0  -8   3 24448.6 1452.45   2
   0  -8   2-202.518 114.095   2
   0  -8   1 6669.46 757.253   2
   0  -8   0 784.051 283.846   2
   0  -8  -1 3855.31 560.271   2
   0  -8  -2 53.4248 114.847   2
   0  -8  -3 1381.05 323.153   2
   0  -8  -4-128.191 152.182   2
   0  -8  -5 1641.30 376.205   2
   0  -8  -6 169.860 140.510   3
   0  -9  12 498.717 239.230   2
   0  -9  11-150.078 143.865   2
   0  -9  10 1397.29 389.156   2
   0  -9   9 1476.09 393.110   2
   0  -9   8 4952.95 710.062   2
   0  -9   7 27.7184 167.861   2
   0  -9   6 1712.72 422.054   2
   0  -9   5 764.777 259.782   2
   0  -9   4 109.111 166.904   2
   0  -9   3 2616.08 508.122   2
   0  -9   2 374.757 162.118   2
   0  -9   1 1187.14 335.385   2
   0  -9   0 119.025 183.176   2
   0  -9  -1 502.196 213.487   2
   0  -9  -2 649.841 231.684   2
   0  -9  -3 2429.89 471.107   2
   0  -9  -4-51.0368 141.985   2
   0  -9  -5 1786.83 411.283   2
   0 -10  12 1927.80 482.083   2
   0 -10  11 436.854 239.876   2
   0 -10  10 780.347 320.270   2
   0 -10   9 323.435 241.917   2
   0 -10   8 191.350 127.668   2
   0 -10   7 303.907 245.526   2
   0 -10   6 673.398 272.702   2
   0 -10   5 1686.57 433.901   2
   0 -10   4 1995.44 481.440   2
   0 -10   3 3028.33 570.940   2
   0 -10   2 213.108 183.877   2
   0 -10   1-48.8175 100.900   2
   0 -10   0 146.659 195.058   2
   0 -10  -1 11.0880 121.010   2
   0 -10  -2 1062.74 322.793   2
   0 -10  -3 295.969 206.304   2
   0 -10  -4 4.00841 146.721   2
   0 -11  11-172.881 194.186   2
   0 -11  10 477.549 272.611   2
   0 -11   9-215.233 191.395   2
   0 -11   8 141.167 96.6546   2
   0 -11   7-32.1760 141.130   2
   0 -11   6 253.540 213.456   2
   0 -11   5 111.778 182.647   2
   0 -11   4 400.163 273.875   2
   0 -11   3 400.817 243.105   2
   0 -11   2 456.577 271.723   2
   0 -11   1 18.4682 110.477   2
   0 -11   0 540.476 264.810   2
   0 -11  -1-26.6755 153.459   2
   0 -11  -2 732.070 312.467   2
   1 -11  -3 944.988 340.510   2
   1 -11  -2 291.397 238.534   2
   1 -11  -1 1461.95 419.240   2
   1 -11   0 319.245 221.019   2
   1 -11   1 305.868 196.858   2
   1 -11   2 804.009 342.168   2
   1 -11   3 415.111 247.637   2
   1 -11   4 488.287 290.533   2
   1 -11   5 2371.17 573.540   2
   1 -11   6-109.685 103.905   2
   1 -11   7-19.0944 95.5411   2
   1 -11   8 122.805 110.470   2
   1 -11   9 479.149 253.599   2
   1 -11  10 532.780 288.320   2
   1 -11  11 1774.78 479.689   2
   1 -11  12 640.095 278.023   2
   1 -10  -4 230.286 158.827   2
   1 -10  -3 223.977 176.408   2
   1 -10  -2-79.8449 179.563   2
   1 -10  -1 1748.21 445.566   2
   1 -10   0 89.1237 152.563   2
   1 -10   1 3756.01 632.236   2
   1 -10   2 488.917 267.395   2
   1 -10   3 1860.75 456.235   2
   1 -10   4 368.735 236.849   2
   1 -10   5 1642.77 403.379   2
   1 -10   6 75.0574 140.008   2
   1 -10   7 557.284 220.852   2
   1 -10   8 1860.88 458.623   2
   1 -10   9 18.1232 82.8171   2
   1 -10  10 370.791 252.362   2
   1 -10  11 338.320 230.810   2
   1 -10  12-117.904 197.696   2
   1  -9  -5 132.940 134.764   2
   1  -9  -4 1111.01 320.375   2
   1  -9  -3 140.877 130.679   2
   1  -9  -2 166.199 202.950   2
   1  -9  -1 215.475 153.964   2
   1  -9   0 214.689 185.034   2
   1  -9   1 1133.18 316.077   2
   1  -9   2-55.5092 215.441   2
   1  -9   3-335.547 242.155   2
   1  -9   4-92.4093 178.833   2
   1  -9   5 873.063 313.198   2
   1  -9   6 5168.72 721.001   2
   1  -9   7 704.319 264.307   2
   1  -9   8 8125.81 895.299   2
   1  -9   9 1636.77 392.419   2
   1  -9  10 8742.71 921.174   2
   1  -9  11 1445.99 374.812   2
   1  -9  12 210.327 140.122   2
   1  -8  -7 436.373 240.008   3
   1  -8  -6-117.552 125.759   2
   1  -8  -6 183.400 175.437   3
   1  -8  -5 338.567 169.111   2
   1  -8  -4 269.861 171.373   2
   1  -8  -3 2126.06 439.573   2
   1  -8  -2 261.776 125.469   2
   1  -8  -1 221.664 113.447   2
   1  -8   0 3431.14 529.596   2
   1  -8   1 1256.92 307.116   2
   1  -8   2 321.327 129.739   2
   1  -8   3-512.649 311.222   2
   1  -8   4 1976.26 375.257   2
   1  -8   5 149.445 160.729   2
   1  -8   6 1540.80 328.688   2
   1  -8   7 946.017 281.958   2
   1  -8   8-80.4521 196.589   2
   1  -8   9 658.282 232.680   2
  -1   8  -9 484.803 181.508   1
   1  -8  10 992.347 300.799   2
   1  -8  11 395.835 215.566   2
   1  -8  12-144.756 183.535   2
  -1   8 -13 177.300 295.807   3
   1  -7  -9 85.1612 180.804   3
   1  -7  -8 75.0230 139.079   3
   1  -7  -7 5.01213 156.150   3
   1  -7  -6 238.576 147.579   2
   1  -7  -6 106.286 132.711   3
   1  -7  -5 592.926 262.910   3
   1  -7  -5 701.079 224.598   2
   1  -7  -4 3561.72 550.852   3
   1  -7  -4 3543.05 502.303   2
   1  -7  -3 4165.92 534.840   2
   1  -7  -2 7917.02 743.682   2
   1  -7  -1 18638.3 1157.32   2
  -1   7   0 53.8406 123.005   3
   1  -7   0 148.131 118.753   2
   1  -7   1 7756.15 746.122   2
  -1   7  -1 6060.08 670.106   3
   1  -7   2 704.658 227.820   2
  -1   7  -2 539.757 185.308   3
   1  -7   3-47.0879 178.401   2
  -1   7  -3 189.351 157.678   1
  -1   7  -4 2470.54 419.158   1
   1  -7   4 2474.46 417.559   2
   1  -7   5 514.816 200.389   2
  -1   7  -5 377.801 152.557   1
  -1   7  -6 2320.84 386.820   1
   1  -7   6 3308.26 485.489   2
  -1   7  -7 1359.98 288.496   1
   1  -7   7 2053.18 372.629   2
   1  -7   8 520.560 138.306   2
  -1   7  -8 569.514 184.005   1
   1  -7   9 1421.21 320.202   2
  -1   7  -9 1768.98 319.409   1
  -1   7 -10-167.833 122.739   1
   1  -7  10-39.4341 84.0193   2
   1  -7  11 1319.90 303.031   2
   1  -7  12-101.216 98.3419   2
  -1   7 -12-88.8993 149.324   3
  -1   7 -13 1434.49 429.369   3
   1  -6 -10 379.567 281.630   3
   1  -6  -9-58.0057 113.600   3
   1  -6  -8 834.360 302.264   3
   1  -6  -7 367.111 188.122   3
   1  -6  -7 230.856 135.806   2
   1  -6  -6 246.685 152.655   3
   1  -6  -6 242.603 134.284   2
   1  -6  -5 956.967 261.817   3
   1  -6  -5 877.483 237.604   2
   1  -6  -4 1695.97 344.829   3
   1  -6  -4 1985.11 351.255   2
   1  -6  -3 331.023 158.999   3
  -1   6   3 181.382 111.963   3
   1  -6  -3 140.069 82.4088   2
  -1   6   2 824.163 234.942   1
   1  -6  -2 935.028 248.074   2
  -1   6   2 563.940 181.914   3
   1  -6  -1 20305.6 1097.61   2
  -1   6   1 22692.6 1263.52   1
   1  -6   0 6.32691 103.960   2
  -1   6   0 27.7062 111.376   3
  -1   6  -1 10621.5 808.607   3
   1  -6   1 13218.4 880.393   2
  -1   6  -2 9424.91 777.697   1
   1  -6   2 8598.91 719.960   2
   1  -6   3 60382.9 1889.13   2
  -1   6  -3 65671.7 1967.35   1
   1  -6   4 4987.31 551.843   2
  -1   6  -4 5123.12 553.162   1
  -1   6  -5 19602.2 1034.38   1
   1  -6   5 19407.0 1096.63   2
   1  -6   6 781.611 225.954   2
  -1   6  -6 850.414 210.378   1
   1  -6   7 3416.19 456.160   2
  -1   6  -7 4027.06 445.607   1
   1  -6   8-286.396 220.236   2
  -1   6  -8-127.505 142.436   1
   1  -6   9 1398.00 294.934   2
  -1   6  -9 1667.36 253.959   1
   1  -6  10 2835.12 410.727   2
  -1   6 -10 3203.05 320.503   1
  -1   6 -11 2676.44 538.843   3
   1  -6  11 1744.20 317.593   2
  -1   6 -12 211.463 154.971   3
   1  -6  12 246.860 148.443   2
  -1   6 -13 952.082 352.730   3
   1  -5 -11-420.729 168.828   3
   1  -5 -10 232.630 103.210   3
   1  -5  -9 208.898 201.502   3
   1  -5  -8 914.122 195.580   2
   1  -5  -8 532.624 223.446   3
   1  -5  -7 1384.58 340.255   3
  -1   5   7 1506.87 324.479   1
   1  -5  -7 1169.28 235.885   2
  -1   5   6 325.072 175.639   1
   1  -5  -6 270.863 214.607   3
   1  -5  -6 179.598 111.894   2
   1  -5  -5 18790.9 1105.33   3
   1  -5  -5 19326.5 970.890   2
   1  -5  -4 7459.19 672.074   3
  -1   5   4 6399.95 663.417   3
   1  -5  -4 8027.81 636.443   2
  -1   5   4 6566.40 643.368   1
  -1   5   3 5914.81 606.695   3
  -1   5   3 6176.49 613.641   1
   1  -5  -3 7567.56 610.153   2
   1  -5  -3 7096.89 618.744   3
   1  -5  -2 21780.0 1049.57   3
   1  -5  -2 23183.1 1055.36   2
  -1   5   2 19322.6 1055.56   1
  -1   5   2 18420.6 1003.97   3
   1  -5  -1 25773.9 1120.67   2
  -1   5   1 22074.2 1081.69   3
   1  -5   0 10612.6 721.974   2
  -1   5   0 11201.0 733.065   3
  -1   5  -1 30678.7 1209.20   3
   1  -5   1 28011.1 1160.21   2
   1  -5   2 4932.29 490.580   2
  -1   5  -3 87357.1 2026.09   1
   1  -5   3 86475.5 2032.99   2
   1  -5   4 30337.0 1222.09   2
  -1   5  -4 29794.9 1150.80   1
   1  -5   5 13251.9 812.286   2
  -1   5  -5 13272.3 748.370   1
   1  -5   6 757.960 205.888   2
  -1   5  -6 745.050 186.211   1
  -1   5  -7 468.297 135.042   1
   1  -5   7 279.971 134.143   2
   1  -5   8 831.144 178.543   2
  -1   5  -8 909.301 183.021   1
  -1   5  -9 1321.50 176.790   1
   1  -5   9 1160.34 235.793   2
  -1   5 -10 5394.84 675.548   3
  -1   5 -10 4862.31 279.748   1
   1  -5  10 5054.34 478.065   2
   1  -5  11 1419.61 237.038   2
  -1   5 -11 1125.01 346.536   3
  -1   5 -12 237.646 190.145   3
  -1   5 -13-42.2307 120.576   3
  -1   5 -14-106.518 120.964   3
   1  -4 -11 196.759 237.081   3
   1  -4 -10-64.7595 132.168   3
   1  -4  -9-52.2150 154.219   3
   1  -4  -8-273.466 162.223   3
  -1   4   8-197.760 140.972   1
   1  -4  -8 12.2575 58.5208   2
   1  -4  -7 158.878 85.3252   2
  -1   4   7 126.004 94.2367   1
   1  -4  -7 12.9787 109.036   3
   1  -4  -6 3807.60 375.386   2
   1  -4  -6 3221.08 433.456   3
   1  -4  -5 6579.07 617.506   3
   1  -4  -5 6557.36 496.239   2
  -1   4   5 5483.16 589.226   3
   1  -4  -4 11294.7 653.032   2
   1  -4  -4 11083.0 758.535   3
  -1   4   4 9230.46 720.413   3
   1  -4  -3 14042.2 722.420   2
   1  -4  -3 13899.1 779.738   3
   1  -4  -2 6405.60 507.649   3
  -1   4   2 6708.11 539.188   3
  -1   4   2 5578.65 510.259   1
   1  -4  -2 6448.06 496.478   2
  -1   4   1 1689.62 274.992   3
   1  -4  -1 1485.02 233.239   1
   1  -4  -1 1713.55 261.802   2
   1  -4   0 21259.5 911.509   1
  -1   4   0 23861.0 933.232   3
   1  -4   1 70264.4 1610.97   1
   1  -4   2 6992.84 513.058   1
   1  -4   3 2045.37 285.579   2
  -1   4  -3 1900.17 263.711   1
   1  -4   4 284.638 146.937   2
  -1   4  -4-38.9346 68.2907   1
  -1   4  -5 8765.64 515.938   1
   1  -4   5 9738.37 619.872   2
   1  -4   6 29837.3 1096.86   2
  -1   4  -6 27431.4 853.365   1
   1  -4   7 867.781 186.519   2
  -1   4  -7 896.083 141.458   1
   1  -4   8 1996.19 271.283   2
  -1   4  -8 1981.95 187.266   1
  -1   4  -8 2063.00 365.743   3
  -1   4  -9 435.207 167.933   3
   1  -4   9 749.905 176.398   2
  -1   4  -9 366.064 56.2327   1
  -1   4 -10-57.8634 155.951   3
   1  -4  10 50.8290 56.7387   2
   1  -4  11 5652.08 370.438   2
  -1   4 -11 5721.24 724.083   3
  -1   4 -12 2453.46 529.237   3
  -1   4 -13 210.438 219.811   3
  -1   4 -14 236.590 180.776   3
   1  -3 -12 131.692 115.975   3
   1  -3 -11 432.670 240.647   3
   1  -3 -10-39.2613 111.988   3
  -1   3   9-32.6824 71.9605   1
   1  -3  -9 68.9840 81.8385   3
  -1   3   8-92.9337 77.4800   1
   1  -3  -8 146.681 129.308   3
   1  -3  -8 224.765 59.1616   2
   1  -3  -7 3413.90 449.285   3
   1  -3  -7 3963.50 307.817   2
  -1   3   6 4399.08 434.945   1
   1  -3  -6 4253.85 464.925   3
  -1   3   6 4211.69 519.335   3
   1  -3  -6 4939.35 371.275   2
   1  -3  -5 605.737 138.607   2
   1  -3  -5 361.373 83.9920   3
  -1   3   5 263.733 139.176   3
  -1   3   5 561.703 147.161   1
   1  -3  -4 16959.9 691.612   2
   1  -3  -4 16620.1 770.842   1
  -1   3   4 18260.0 830.878   1
   1  -3  -4 16279.6 813.944   3
   1  -3  -3 536.829 154.309   3
  -1   3   3 821.883 163.912   1
   1  -3  -3 576.720 148.111   1
  -1   3   3 709.238 173.235   3
   1  -3  -2 1363.25 210.364   1
   1  -3  -2 1487.77 222.275   3
  -1   3   2 1317.85 212.314   3
  -1   3   1 19770.9 740.701   3
   1  -3  -1 17957.8 691.520   3
   1  -3  -1 17561.5 740.567   1
  -1   3   0 794.684 150.549   3
   1  -3   0 773.835 156.631   1
   1  -3   1 141.141 87.4066   1
  -1   3  -2 2922.36 286.482   1
   1  -3   2 2686.61 265.996   1
  -1   3  -3 44730.9 1016.59   1
   1  -3   3 45079.0 1028.71   1
  -1   3  -4 641.831 126.853   1
   1  -3   4 858.965 148.021   1
  -1   3  -5 53480.6 997.717   1
   1  -3   5 56242.3 1261.94   2
   1  -3   6 4660.36 371.151   2
  -1   3  -6 3576.24 227.192   1
   1  -3   7 2683.97 278.011   2
  -1   3  -7 1976.35 139.435   1
   1  -3   8 991.759 170.169   2
  -1   3  -8 931.293 238.240   3
  -1   3  -9 9464.14 836.893   3
   1  -3   9 8254.03 408.877   2
   1  -3  10 43.7109 31.2346   2
  -1   3 -10 81.7203 133.303   3
  -1   3 -11 2443.32 479.878   3
  -1   3 -12 600.137 258.910   3
  -1   3 -13 2321.36 505.578   3
  -1   3 -14 283.467 204.341   3
   1  -2 -13 463.266 255.345   3
   1  -2 -12 561.970 278.962   3
   1  -2 -11 141.868 134.357   3
   1  -2 -10 192.015 161.971   3
   1  -2  -9 507.422 191.934   3
  -1   2   9 158.262 73.8226   1
   1  -2  -8 1790.83 348.101   3
  -1   2   8 1487.07 208.315   1
  -1   2   7 4192.00 351.281   1
   1  -2  -7 5041.07 264.412   2
   1  -2  -7 5734.98 574.365   3
   1  -2  -7 4604.68 230.187   2
  -1   2   7 4499.56 525.743   3
  -1   2   6 580.925 176.442   3
   1  -2  -6 1124.37 258.445   3
  -1   2   6 1112.37 171.833   1
   1  -2  -6 896.085 126.319   2
   1  -2  -5 43189.0 1331.68   3
  -1   2   5 44522.0 1118.51   1
   1  -2  -5 43074.2 1086.63   1
   1  -2  -4 8907.58 477.876   1
   1  -2  -4 9199.55 563.245   3
  -1   2   4 8946.98 495.314   1
  -1   2   4 9681.84 601.660   3
   1  -2  -3 13384.9 607.242   3
  -1   2   3 13453.5 585.976   1
  -1   2   3 13990.8 646.524   3
   1  -2  -3 13000.0 545.941   1
   1  -2  -2 36380.1 894.311   1
  -1   2   2 38295.2 934.954   3
   1  -2  -2 36500.6 876.517   3
   1  -2  -1 39938.7 795.005   3
   1  -2  -1 40084.1 896.759   1
  -1   2   1 39392.0 807.208   3
   1  -2   0 1111.32 154.376   1
  -1   2   0 544.042 88.7946   3
   1  -2   1 5135.22 308.024   1
  -1   2  -2 766559. 3572.04   1
   1  -2   2 761421. 3414.48   1
  -1   2  -3 2299.31 178.305   1
   1  -2   3 2305.26 183.012   1
  -1   2  -4 17306.5 437.570   1
   1  -2   4 16505.2 435.670   1
  -1   2  -5 158.430 35.6493   1
   1  -2   6 25526.2 667.866   2
   1  -2   7 27325.9 639.340   2
   1  -2   8 2.64085 17.1263   2
  -1   2  -8 84.1538 125.112   3
   1  -2   8 13.3906 16.0094   2
  -1   2  -9 5112.64 616.139   3
  -1   2 -10 553.939 222.894   3
  -1   2 -11 6.16549 87.7089   3
  -1   2 -12 1163.16 353.438   3
  -1   2 -13 1129.25 394.026   3
   1  -1 -13 64.6175 91.8187   3
   1  -1 -12 910.984 294.458   3
   1  -1 -11 85.8737 106.639   3
   1  -1 -10 67.4721 90.6038   3
   1  -1  -9 3349.88 504.282   3
   1  -1  -8 131.174 156.249   3
   1  -1  -7 3784.25 454.028   3
  -1   1   7 3132.75 421.786   3
  -1   1   7 3675.10 276.928   1
   1  -1  -6 4760.72 309.696   1
  -1   1   6 3174.94 388.582   3
   1  -1  -6 3997.71 429.476   3
  -1   1   6 4165.89 286.287   1
   1  -1  -6 3579.66 184.031   2
  -1   1   5 28530.8 734.909   1
   1  -1  -5 30670.4 1081.65   3
   1  -1  -5 30014.3 738.276   1
  -1   1   5 30216.9 1069.59   3
   1  -1  -4 1793.98 183.446   1
  -1   1   4 1337.92 158.864   1
  -1   1   4 1400.49 207.190   3
   1  -1  -4 1084.24 154.554   3
   1  -1  -3 15817.1 498.062   1
  -1   1   3 15063.3 592.110   3
   1  -1  -3 15317.2 577.825   3
  -1   1   3 13724.4 477.829   1
  -1   1   2 159640. 1617.62   3
   1  -1  -2 164193. 1531.67   3
   1  -1  -2 159188. 1547.70   1
   1  -1  -1 61668.9 675.410   3
   1  -1  -1 60521.8 862.011   1
  -1   1  -2 36114.4 553.712   1
   1  -1   2 36276.0 559.841   1
   1  -1   3 302234. 1506.73   1
   1  -1   3 301159. 2615.30   3
   1  -1   4 11459.7 269.548   1
   1  -1   4 12887.7 635.520   3
   1  -1   5 12033.7 316.406   2
  -1   1  -8 2808.80 415.758   3
  -1   1  -9-45.9554 85.9754   3
  -1   1 -10 280.719 149.324   3
  -1   1 -11 330.216 192.134   3
  -1   1 -12 10.0095 125.538   3
  -1   1 -13 465.426 235.805   3
   1   0 -13-65.4545 125.428   3
   1   0 -12 10.9288 113.666   3
   1   0 -11 561.976 243.174   3
   1   0 -10 168.408 123.027   3
   1   0  -9 28.0131 144.642   3
   1   0  -8 3723.63 462.426   3
   1   0  -7 375.180 70.7115   1
   1   0  -7 457.073 162.060   3
   1   0  -6 247.377 53.0667   2
   1   0  -6 272.914 53.7180   1
   1   0  -6 397.065 158.668   3
   1   0  -5 531.565 84.3483   2
   1   0  -5 623.711 92.5528   1
   1   0  -5 664.355 160.738   3
   1   0  -4 2900.44 181.409   1
   1   0  -4 2827.59 183.462   2
   1   0  -4 2704.80 275.718   3
   1   0  -3 247555. 1723.58   2
   1   0  -3 248291. 2179.17   3
  -1   0   3 245031. 1713.52   2
   1   0  -3 248498. 1666.72   1
   1   0  -2 123237. 1179.09   1
   1   0  -2 121782. 1206.90   2
  -1   0   2 121239. 1204.34   2
  -1   0  -1 9019.05 308.776   2
   1   0   1 9035.34 351.379   3
   1   0   2 992634. 4438.81   3
  -1   0  -2 999999. 3161.53   2
   1   0   3 1013.99 183.277   3
   1   0   3 888.900 96.0714   2
   1   0   4 6251.23 248.479   2
   1   0   4 6645.06 500.275   3
   1   0   5 37.1717 75.3831   3
   1   0   6 34323.9 630.691   1
   1   0   6 31642.8 1285.92   3
  -1   0  -7 242.702 153.624   3
   1   0   7 43.8496 25.1304   1
   1   0   7 67.4935 105.364   3
  -1   0  -8-9.95692 81.2028   3
  -1   0  -9 632.588 189.278   3
  -1   0 -10 557.400 263.114   3
  -1   0 -11 842.671 338.765   3
  -1   0 -12 121.754 167.438   3
  -1   0 -13 179.859 147.016   3
   1   1 -14 282.203 207.328   3
   1   1 -13 1336.37 386.461   3
   1   1 -12-114.544 144.613   3
   1   1 -11 1426.22 353.861   3
   1   1 -10 168.712 96.6866   3
   1   1  -9 977.636 257.632   3
   1   1  -8 452.256 193.987   3
  -1  -1   7 19907.1 539.412   2
   1   1  -7 18701.3 432.317   1
   1   1  -7 21689.4 1064.94   3
   1   1  -7 20827.0 605.703   2
   1   1  -6 346.982 68.0055   1
   1   1  -6 346.653 110.125   3
  -1  -1   6 410.173 85.2020   2
   1   1  -6 226.151 62.4679   2
  -1  -1   5 3677.94 255.338   2
   1   1  -5 3848.23 275.841   2
   1   1  -5 3470.40 214.305   1
  -1  -1   4 277819. 2222.78   2
   1   1  -4 275033. 2317.34   2
  -1  -1   3 2687.64 232.343   2
   1   1  -3 2436.61 216.786   2
  -1  -1   2 776745. 3796.17   2
  -1  -1   1 20255.4 613.486   2
  -1  -1   0 36633.1 810.416   2
   1   1   0 36241.5 804.977   3
  -1  -1  -1 4416.78 275.809   2
   1   1   1 4244.49 307.843   3
   1   1   2 113613. 1434.80   2
   1   1   2 115874. 1763.90   3
  -1  -1  -2 113038. 1368.99   2
   1   1   3 34082.6 771.961   2
  -1  -1  -3 34647.6 743.911   2
   1   1   3 35935.1 1129.20   3
  -1  -1  -4 30136.1 661.194   2
   1   1   4 32019.1 1159.05   3
   1   1   4 31782.0 755.310   2
   1   1   5 23420.7 592.285   2
   1   1   5 24694.0 1132.93   3
  -1  -1  -5 22206.4 518.960   2
   1   1   6 15331.7 981.611   3
   1   1   6 14948.4 602.220   1
  -1  -1  -7 4321.62 528.963   3
   1   1   7 3357.01 279.974   1
  -1  -1  -8 509.046 218.001   3
   1   1   8 105.901 50.8365   1
   1   1   9 40.6221 36.8516   1
  -1  -1  -9 134.885 171.127   3
  -1  -1 -10 2450.75 484.196   3
  -1  -1 -11 222.408 177.694   3
  -1  -1 -12 569.398 277.859   3
   1   2 -14-223.137 175.217   3
   1   2 -13 2367.24 523.927   3
   1   2 -12 815.819 295.959   3
   1   2 -11 6486.16 770.871   3
   1   2 -10 252.150 135.477   3
   1   2  -9 566.579 196.874   3
  -1  -2   9 359.522 76.5382   2
   1   2  -8 255.743 56.7931   1
   1   2  -8 313.392 152.206   3
   1   2  -8 510.603 139.113   2
  -1  -2   8 326.696 78.5116   2
  -1  -2   7 14228.7 591.997   2
   1   2  -7 13332.6 622.652   2
   1   2  -6 17221.4 709.746   2
  -1  -2   6 18000.3 683.206   2
  -1  -2   5 17798.7 698.834   2
   1   2  -5 18007.7 721.581   2
  -1  -2   4 76415.3 1442.93   2
   1   2  -4 76066.9 1509.30   2
   1   2  -3 185379. 2340.67   2
  -1  -2   3 189364. 2242.37   2
  -1  -2   2 30758.1 911.985   2
  -1  -2   1 6136.66 417.980   2
  -1  -2   0 75803.6 1427.81   2
   1   2   0 79392.2 1510.75   3
   1   2   1 323842. 3201.53   3
  -1  -2  -1 317340. 2879.95   2
  -1  -2  -2 0.96379 74.2156   2
   1   2   2-48.3785 94.7665   3
   1   2   2 17.2836 62.7010   2
   1   2   3 4094.71 352.989   2
  -1  -2  -3 4251.66 327.607   2
   1   2   3 4684.23 461.246   3
   1   2   4 39816.3 1053.61   2
  -1  -2  -4 39000.2 961.913   2
   1   2   5 8518.95 564.456   1
  -1  -2  -5 7244.70 398.334   2
   1   2   5 8246.54 698.519   3
  -1  -2  -6 407.509 156.498   3
  -1  -2  -6 660.283 114.882   2
   1   2   6 448.502 122.388   1
   1   2   6 794.448 249.645   3
   1   2   7 487.206 130.992   1
  -1  -2  -7 548.866 86.9567   2
  -1  -2  -7 355.719 112.756   3
   1   2   8 654.087 156.933   1
  -1  -2  -8 634.299 173.054   3
   1   2   9 433.459 124.661   1
  -1  -2  -9 431.233 183.513   3
  -1  -2 -10 242.050 196.088   3
  -1  -2 -11 1903.95 454.838   3
  -1  -2 -12 410.774 248.253   3
   1   3 -14 422.060 231.959   3
   1   3 -13 2235.56 500.471   3
   1   3 -12-1.15292 98.2815   3
   1   3 -11 7965.70 833.760   3
  -1  -3  11 7874.70 425.007   2
  -1  -3  10 1662.04 222.825   2
   1   3 -10 1670.56 387.559   3
  -1  -3   9 563.364 119.915   2
   1   3  -9 453.054 208.812   3
   1   3  -9 613.910 104.621   1
   1   3  -9 672.512 107.683   1
   1   3  -8 4576.48 420.923   2
  -1  -3   8 4785.54 403.013   2
  -1  -3   7 81140.4 1720.70   2
   1   3  -7 76112.3 1739.50   2
  -1  -3   6 5265.73 445.911   2
   1   3  -6 5036.11 442.757   2
  -1  -3   5 1486.72 228.700   2
   1   3  -5 1506.03 246.950   2
   1   3  -4 3379.34 380.429   2
  -1  -3   4 3392.89 361.252   2
  -1  -3   3 11038.7 642.183   2
  -1  -3   2 77265.6 1673.79   2
  -1  -3   1 27124.0 1002.87   2
  -1  -3   0 63680.0 1505.24   2
   1   3   0 67709.4 1645.11   3
  -1  -3  -1 217.270 124.104   2
   1   3   1 72.0684 100.593   2
   1   3   1 259.373 148.049   3
   1   3   2 117.705 100.601   3
  -1  -3  -2 166.127 89.5095   2
   1   3   2 108.079 71.3828   2
   1   3   3 1099.08 249.884   3
  -1  -3  -3 1509.05 238.787   2
   1   3   3 1288.03 247.051   2
   1   3   4-16.5240 111.751   1
   1   3   4 85.3119 113.966   2
  -1  -3  -4-173.291 124.224   2
   1   3   4 109.829 131.234   3
  -1  -3  -5 398.716 188.558   3
  -1  -3  -5 150.963 100.273   2
   1   3   5 127.872 98.6053   3
  -1  -3  -6 299.263 115.473   2
  -1  -3  -6 188.166 133.835   3
  -1  -3  -7 9100.66 482.335   2
  -1  -3  -7 8413.86 799.282   3
  -1  -3  -8 7779.87 818.766   3
  -1  -3  -8 6651.49 345.000   2
  -1  -3  -9 242.465 153.988   3
  -1  -3 -10 1515.27 413.998   3
  -1  -3 -11 462.022 243.308   3
   1   4 -14 1911.60 540.337   3
   1   4 -13 1533.63 439.818   3
   1   4 -12 35.3517 118.859   3
   1   4 -11 1777.71 381.962   3
   1   4 -11 1136.93 106.702   1
  -1  -4  11 2131.29 292.833   2
   1   4 -10 1802.73 206.910   1
  -1  -4  10 1769.53 272.980   2
  -1  -4   9 605.940 170.383   2
   1   4  -9 511.931 110.872   1
  -1  -4   8 19618.9 948.326   2
   1   4  -8 17696.1 942.928   2
  -1  -4   7 2995.71 382.557   2
   1   4  -7 2575.75 377.285   2
  -1  -4   6 4844.93 474.320   2
   1   4  -6 4957.98 525.928   2
   1   4  -5 2889.21 389.829   2
  -1  -4   5 3357.49 391.233   2
  -1  -4   4 4019.59 424.385   2
   1   4  -4 3724.04 450.787   2
  -1  -4   3 771.038 203.308   2
  -1  -4   2 19818.3 959.169   2
  -1  -4   1 9221.56 662.189   2
   1   4  -1 10289.9 725.008   3
   1   4   0 34638.2 1353.84   3
  -1  -4   0 31959.9 1216.78   2
   1   4   1 99069.0 2386.93   3
  -1  -4  -1 113457. 2241.13   2
  -1  -4  -2 24596.9 1038.63   2
   1   4   2 25187.9 1215.93   3
   1   4   3 617.552 200.872   1
  -1  -4  -3 1321.09 247.170   2
   1   4   3 1346.68 323.205   3
  -1  -4  -3 819.345 220.008   3
  -1  -4  -4 1324.61 242.253   2
   1   4   4 1235.35 273.996   1
   1   4   4 1538.99 337.029   3
  -1  -4  -4 1515.68 324.675   3
  -1  -4  -5 9825.02 839.501   3
  -1  -4  -5 9627.14 639.130   2
   1   4   5 7982.65 704.299   1
  -1  -4  -6 1608.66 246.283   2
   1   4   6 1588.56 314.463   1
  -1  -4  -6 1643.60 374.328   3
  -1  -4  -7 797.128 245.973   3
  -1  -4  -7 919.064 190.229   2
   1   4   7 1091.47 256.387   1
  -1  -4  -8 2411.81 266.570   2
  -1  -4  -8 2094.56 457.878   3
  -1  -4  -9 945.646 318.855   3
  -1  -4 -10 53.1088 121.226   3
   1   5 -14 201.922 164.105   3
   1   5 -13 311.018 207.220   3
   1   5 -12-71.2784 190.202   3
  -1  -5  12 5.90601 56.2049   2
  -1  -5  11 2476.32 362.102   2
  -1  -5  10 3280.00 431.344   2
   1   5 -10 3998.43 396.746   1
  -1  -5   9 719.495 216.784   2
   1   5  -9 849.713 208.885   1
   1   5  -8 980.647 287.375   2
  -1  -5   8 1295.49 276.330   2
  -1  -5   7 2033.69 342.719   2
   1   5  -7 2069.26 369.640   2
   1   5  -6 5081.90 583.734   2
  -1  -5   6 4767.32 522.912   2
   1   5  -5 2144.80 376.335   2
  -1  -5   5 2316.39 371.992   2
   1   5  -4-39.3774 88.1234   2
  -1  -5   4 18.3805 85.7008   2
  -1  -5   3 5739.27 580.771   2
  -1  -5   2 19524.5 1052.72   2
  -1  -5   1 9463.74 730.601   2
   1   5  -1 9552.20 781.189   3
  -1  -5   0 426.987 168.244   2
   1   5   0 238.469 114.055   3
   1   5   0 124.171 70.3564   2
  -1  -5  -1 6859.72 613.868   2
   1   5   1 5334.66 592.327   2
   1   5   1 7687.92 733.722   3
   1   5   2 5448.97 602.714   2
  -1  -5  -2 6984.42 616.146   2
   1   5   2 6828.32 701.922   1
   1   5   2 7838.60 763.254   3
  -1  -5  -2 6875.81 685.283   3
  -1  -5  -3 267.415 141.146   3
  -1  -5  -3 418.909 187.000   2
   1   5   3 242.410 119.905   1
  -1  -5  -4 11843.4 787.230   2
  -1  -5  -4 10931.3 904.933   3
   1   5   4 13867.6 1033.61   1
  -1  -5  -5 366.889 133.511   2
  -1  -5  -5 822.613 282.941   3
  -1  -5  -6 2382.52 353.588   2
  -1  -5  -6 2583.62 480.419   3
  -1  -5  -7 939.740 214.923   2
  -1  -5  -7 892.311 294.459   3
  -1  -5  -8 4.48095 95.8682   3
  -1  -5  -9 340.352 215.566   3
   1   6 -13 75.6711 120.382   3
  -1  -6  12 372.061 157.396   2
  -1  -6  11 300.243 145.517   2
  -1  -6  10 687.052 222.010   2
   1   6 -10 603.910 198.922   1
  -1  -6   9 1762.01 370.874   2
   1   6  -9 2206.98 364.357   1
   1   6  -8 26363.2 1290.17   1
  -1  -6   8 26604.2 1330.07   2
  -1  -6   7 2795.61 440.679   2
   1   6  -7 3006.31 510.607   2
   1   6  -6 286.734 149.295   2
  -1  -6   6 442.299 202.300   2
   1   6  -5 2108.28 420.766   2
  -1  -6   5 2273.77 397.134   2
   1   6  -4 11910.6 982.195   2
  -1  -6   4 11179.3 864.342   2
   1   6  -3 1058.81 308.352   2
  -1  -6   3 922.717 260.333   2
   1   6  -2 9704.16 869.513   3
  -1  -6   2 8173.09 740.373   2
   1   6  -2 8634.26 835.574   2
   1   6  -1 1481.91 336.631   3
   1   6  -1 1688.40 402.162   2
  -1  -6   1 1625.78 341.253   2
   1   6   0 933.151 303.450   2
  -1  -6   0 922.664 272.325   2
  -1  -6  -1 895.396 242.240   2
  -1  -6  -2 746.989 226.364   2
  -1  -6  -3 874.820 263.177   2
  -1  -6  -3 1432.73 346.068   3
  -1  -6  -4 1097.54 340.420   3
  -1  -6  -4 664.028 211.149   2
  -1  -6  -5 2061.93 437.580   3
  -1  -6  -5 1935.26 339.840   2
  -1  -6  -6 384.393 224.602   3
  -1  -6  -6 457.943 171.203   2
  -1  -6  -7 71.9013 149.787   3
  -1  -6  -8 205.090 187.586   3
  -1  -7  12 438.677 217.368   2
  -1  -7  11 1007.10 287.229   2
  -1  -7  10-39.4924 115.198   2
   1   7  -9 227.599 158.101   1
  -1  -7   9 6.70717 81.2738   2
  -1  -7   8 15015.4 1084.53   2
  -1  -7   7 1796.26 389.043   2
  -1  -7   6-205.935 202.489   2
  -1  -7   5 784.395 262.342   2
  -1  -7   4 1090.73 300.512   2
  -1  -7   3 2100.89 415.210   2
  -1  -7   2 173.794 169.180   2
  -1  -7   1 6809.02 722.044   2
  -1  -7   0 289.655 168.474   2
  -1  -7  -1 2191.81 411.669   2
  -1  -7  -2 493.621 214.475   2
  -1  -7  -3 105.724 108.134   2
  -1  -7  -4-127.210 177.255   2
  -1  -7  -4 7.70638 106.035   3
  -1  -7  -5-52.1614 133.610   3
  -1  -7  -5 42.1014 104.199   2
  -1  -7  -6 674.970 205.728   2
  -1  -7  -6 932.698 377.593   3
  -1  -7  -7 361.467 235.340   3
  -1  -8  12 701.174 252.342   2
  -1  -8  11 998.319 317.588   2
  -1  -8  10 4355.69 619.126   2
  -1  -8   9 2388.89 455.762   2
  -1  -8   8 5104.42 701.091   2
  -1  -8   7 397.882 173.770   2
  -1  -8   6 6592.36 757.491   2
  -1  -8   5 5747.86 710.254   2
  -1  -8   4 679.020 285.922   2
  -1  -8   3 13184.0 1079.38   2
  -1  -8   2 472.821 247.916   2
  -1  -8   1 15217.7 1146.98   2
  -1  -8   0 145.155 117.229   2
  -1  -8  -1 791.590 289.142   2
  -1  -8  -2 415.233 217.269   2
  -1  -8  -3 426.415 203.520   2
  -1  -8  -4 1954.32 428.585   2
  -1  -8  -5-78.7779 163.543   2
  -1  -9  12 173.102 183.309   2
  -1  -9  11-61.8738 165.636   2
  -1  -9  10-144.476 144.580   2
  -1  -9   9 1065.60 334.311   2
  -1  -9   8 3021.83 565.506   2
  -1  -9   7 3686.13 609.872   2
  -1  -9   6 320.072 256.102   2
  -1  -9   5 7841.92 876.338   2
  -1  -9   4 265.804 199.422   2
  -1  -9   3 1486.07 399.901   2
  -1  -9   2 1286.87 374.985   2
  -1  -9   1 1887.88 436.097   2
  -1  -9   0 2606.45 487.841   2
  -1  -9  -1 1949.14 453.084   2
  -1  -9  -2 503.064 264.651   2
  -1  -9  -3 603.413 239.254   2
  -1  -9  -4 621.731 265.368   2
  -1 -10  12-32.5416 135.007   2
  -1 -10  11 73.0293 147.876   2
  -1 -10  10 303.141 183.583   2
  -1 -10   9 1953.40 460.271   2
  -1 -10   8-39.9953 84.6717   2
  -1 -10   7 421.871 240.693   2
  -1 -10   6 716.316 276.958   2
  -1 -10   5 2153.76 494.020   2
  -1 -10   4 332.648 198.092   2
  -1 -10   3 553.827 265.884   2
  -1 -10   2 235.385 171.317   2
  -1 -10   1 1069.73 339.978   2
  -1 -10   0-15.8273 115.058   2
  -1 -10  -1 1479.65 410.568   2
  -1 -10  -2-208.185 182.021   2
  -1 -10  -3 124.854 195.675   2
  -1 -11   8 582.292 288.962   2
  -1 -11   7 451.491 274.452   2
  -1 -11   6 900.659 384.361   2
  -1 -11   5 5.33346 172.927   2
  -1 -11   4 698.229 323.206   2
  -1 -11   3 837.904 313.724   2
  -1 -11   2 959.597 352.216   2
   2 -12   3 1395.53 436.991   2
   2 -12   4 108.057 220.730   2
   2 -12   5 477.348 308.793   2
   2 -12   6-394.277 245.428   2
   2 -12   7 315.936 244.735   2
   2 -11  -4-243.996 191.736   2
   2 -11  -3-5.39054 157.925   2
   2 -11  -2 710.174 308.382   2
   2 -11  -1 33.9272 180.981   2
   2 -11   0-156.929 187.928   2
   2 -11   1 80.8910 116.877   2
   2 -11   2 213.498 174.933   2
   2 -11   3 118.298 151.115   2
   2 -11   4 477.798 260.554   2
   2 -11   5 553.427 281.602   2
   2 -11   6-73.7053 171.533   2
   2 -11   7-102.602 230.123   2
   2 -11   8 186.447 175.729   2
   2 -11   9 317.783 195.181   2
   2 -11  10 30.7099 113.680   2
   2 -11  11 131.157 228.385   2
   2 -11  12 791.510 326.471   2
   2 -10  -5 221.486 190.371   2
   2 -10  -4 42.1771 163.623   2
   2 -10  -3 197.198 107.417   2
   2 -10  -2 46.2702 152.215   2
   2 -10  -1-25.9188 97.0940   2
   2 -10   0 1812.78 443.658   2
   2 -10   1 2390.47 523.022   2
   2 -10   2 935.131 360.803   2
   2 -10   3 2315.34 508.287   2
   2 -10   4 165.795 132.524   2
   2 -10   5-92.5657 130.703   2
   2 -10   6 446.319 192.890   2
   2 -10   7 902.861 314.164   2
   2 -10   8 27.2139 100.272   2
   2 -10   9 96.9684 93.5811   2
   2 -10  10 578.695 291.802   2
   2 -10  11 33.2525 122.288   2
   2 -10  12-289.917 198.324   2
   2  -9  -5 94.7733 127.414   2
   2  -9  -4-105.882 179.436   2
   2  -9  -3 185.252 193.494   2
   2  -9  -2 107.578 185.192   2
   2  -9  -1 2229.59 480.045   2
   2  -9   0 3347.16 568.481   2
   2  -9   1 5429.89 712.856   2
   2  -9   2-297.526 267.215   2
   2  -9   3-297.084 234.883   2
   2  -9   4 2426.94 494.610   2
   2  -9   5-42.3798 132.517   2
   2  -9   6 11310.0 1059.42   2
   2  -9   7 2178.80 475.884   2
   2  -9   8 4421.61 660.316   2
   2  -9   9 21.3395 96.6838   2
   2  -9  10 1373.20 384.291   2
   2  -9  11-10.0310 107.766   2
   2  -9  12 1494.75 379.556   2
   2  -8  -8 553.167 231.667   3
   2  -8  -7 227.093 214.357   3
   2  -8  -6 3000.35 495.952   2
   2  -8  -6 2963.78 533.923   3
   2  -8  -5 407.825 186.865   2
   2  -8  -4 2146.14 424.105   2
   2  -8  -3 2248.32 414.136   2
   2  -8  -2 9634.35 886.754   2
   2  -8  -1 1456.17 352.809   2
   2  -8   0 114.642 93.3181   2
   2  -8   1 1503.45 349.747   2
   2  -8   2 3687.61 561.102   2
   2  -8   3 178.061 160.533   2
   2  -8   4 16429.5 1176.72   2
   2  -8   5 4268.51 625.634   2
   2  -8   6 12523.3 1015.78   2
   2  -8   7 4979.71 645.882   2
   2  -8   8 5118.46 686.277   2
  -2   8  -8 6963.61 706.131   1
   2  -8   9 124.668 95.0647   2
  -2   8  -9 551.271 192.952   1
   2  -8  10 2350.89 455.234   2
   2  -8  11-68.1957 89.4870   2
  -2   8 -12 3902.88 691.339   3
   2  -8  12 3616.80 550.754   2
  -2   8 -13-18.0521 157.140   3
   2  -7  -9 192.635 177.962   3
   2  -7  -8 492.028 217.570   3
   2  -7  -7 740.880 282.975   3
   2  -7  -7 1049.08 298.978   2
   2  -7  -6 950.328 336.670   3
   2  -7  -6 612.411 210.651   2
   2  -7  -5-64.1249 141.060   2
   2  -7  -5 153.375 126.162   3
   2  -7  -4 3519.26 490.762   2
   2  -7  -4 3598.78 506.536   3
   2  -7  -3 9204.50 780.834   2
   2  -7  -2 7828.92 737.213   2
  -2   7   2 6255.44 670.855   3
  -2   7   1 313.411 157.308   3
   2  -7  -1 277.790 170.920   2
   2  -7   0 4816.40 574.327   2
  -2   7   0 3949.41 523.465   3
   2  -7   1 204.894 99.8222   2
  -2   7  -1 55.3408 67.5454   3
   2  -7   2 1868.24 368.962   2
  -2   7  -2 1701.04 371.181   1
   2  -7   3 2993.30 474.944   2
  -2   7  -3 3599.43 511.952   1
   2  -7   4 549.922 206.183   2
  -2   7  -4 259.168 148.633   1
   2  -7   5 1868.89 382.744   2
  -2   7  -5 1639.20 331.014   1
   2  -7   6 3803.64 526.272   2
  -2   7  -6 4265.36 513.190   1
   2  -7   7 5712.44 647.713   2
  -2   7  -7 5832.41 586.905   1
   2  -7   8 7025.72 711.400   2
  -2   7  -8 6520.75 601.394   1
   2  -7   9-31.4663 126.036   2
  -2   7  -9 26.2407 81.8245   1
   2  -7  10 3943.26 541.612   2
  -2   7 -11 477.871 233.200   3
   2  -7  11 185.016 109.040   2
  -2   7 -12 1339.94 389.684   3
   2  -7  12 2191.13 389.281   2
  -2   7 -13 740.302 272.875   3
   2  -6 -10 362.676 238.369   3
   2  -6  -9 535.457 295.447   3
   2  -6  -8 550.502 280.370   3
   2  -6  -7 324.194 149.128   3
   2  -6  -7 110.468 96.3694   2
   2  -6  -6 420.275 183.408   3
   2  -6  -6 82.7738 125.542   2
   2  -6  -5 769.801 206.583   3
   2  -6  -5 962.838 244.086   2
   2  -6  -4 379.305 183.203   3
  -2   6   4 335.357 125.368   3
   2  -6  -4 397.609 168.790   2
   2  -6  -3 2554.59 388.957   3
  -2   6   3 3367.65 497.701   1
  -2   6   3 2110.94 368.691   3
   2  -6  -3 2644.33 409.886   2
   2  -6  -2 84.7797 89.4356   1
   2  -6  -2-8.99426 83.0911   2
  -2   6   2 18.9210 74.9739   3
  -2   6   2-153.915 132.324   1
  -2   6   1 7193.26 643.255   3
   2  -6  -1 8703.95 714.861   1
  -2   6   1 9803.37 796.745   1
  -2   6   0 2524.20 365.426   3
   2  -6   0 2891.61 414.346   1
   2  -6   1 9264.90 729.823   1
  -2   6  -1 8166.18 652.824   3
   2  -6   2 809.869 241.722   1
  -2   6  -2 1082.41 265.655   1
   2  -6   3 4906.50 523.803   1
  -2   6  -3 5957.08 590.940   1
   2  -6   4 9987.97 715.999   1
  -2   6  -4 10586.1 764.333   1
   2  -6   5 3653.87 465.905   2
  -2   6  -5 3579.14 433.331   1
   2  -6   6 1011.93 277.161   2
  -2   6  -6 918.500 237.301   1
  -2   6  -7-87.3987 87.5891   1
   2  -6   7-95.3017 90.3130   2
   2  -6   8 8297.59 731.371   2
  -2   6  -8 7748.36 564.925   1
   2  -6   9 4752.56 543.515   2
  -2   6  -9 5383.87 443.233   1
  -2   6 -10 1527.28 210.214   1
   2  -6  10 1114.92 249.693   2
  -2   6 -10 1682.18 382.367   3
  -2   6 -11-52.3546 124.506   3
   2  -6  11-33.7053 76.8929   2
  -2   6 -12 449.982 238.609   3
  -2   6 -13-91.6782 173.873   3
   2  -5 -11 46.6286 135.274   3
   2  -5 -10-24.8978 116.231   3
   2  -5  -9 92.0457 123.065   3
   2  -5  -8 97.0157 73.4566   2
   2  -5  -8 16.0339 104.822   3
   2  -5  -7 1592.57 268.753   2
   2  -5  -7 1614.43 350.449   3
  -2   5   7 2140.70 376.041   1
   2  -5  -6-14.9823 118.592   3
   2  -5  -6 5.96865 71.9256   2
  -2   5   6 50.8720 94.9918   1
   2  -5  -5 2150.14 378.013   3
  -2   5   5 1693.81 339.842   3
   2  -5  -5 1694.30 286.664   2
  -2   5   5 1301.26 273.340   1
   2  -5  -4 402.014 163.024   3
   2  -5  -4 63.5717 94.7820   1
  -2   5   4 177.678 115.769   3
  -2   5   4 50.2038 75.0146   1
   2  -5  -3 21572.0 1001.88   3
  -2   5   3 16648.1 926.005   3
  -2   5   3 17531.3 1022.68   1
   2  -5  -3 20526.0 1056.51   1
  -2   5   2 1438.79 292.939   1
   2  -5  -2 1787.26 266.996   3
   2  -5  -2 2198.47 344.389   1
  -2   5   2 1565.23 270.275   3
  -2   5   1 3025.54 359.009   3
   2  -5  -1 2965.12 399.186   1
  -2   5   0 8480.92 579.056   3
   2  -5   0 7972.93 618.764   1
   2  -5   1 17517.6 895.829   1
   2  -5   2 154.492 107.193   1
  -2   5  -3 5649.01 511.907   1
   2  -5   3 5175.21 477.877   1
  -2   5  -4 13237.7 759.908   1
   2  -5   4 12041.0 716.033   1
  -2   5  -5 9441.20 621.291   1
   2  -5   5 8273.14 570.959   1
  -2   5  -6 26.7675 59.3236   1
   2  -5   6 50.1291 77.5927   1
  -2   5  -7 816.823 156.024   1
   2  -5   7 1072.20 249.835   2
   2  -5   8 1042.17 263.256   2
  -2   5  -8 988.266 169.831   1
  -2   5  -9 259.494 141.700   3
   2  -5   9 169.787 99.6937   2
  -2   5  -9 268.508 80.0346   1
  -2   5 -10 3.86314 134.832   3
   2  -5  10-12.1202 96.8605   2
   2  -5  11 869.696 203.160   2
  -2   5 -11 941.899 314.394   3
  -2   5 -12 256.562 190.260   3
  -2   5 -13 139.410 164.576   3
   2  -4 -12 173.510 141.945   3
   2  -4 -11 238.354 188.797   3
   2  -4 -10 138.257 167.839   3
   2  -4  -9 2249.58 421.954   3
   2  -4  -8 56.3721 87.9918   2
  -2   4   8 49.6631 77.7237   1
   2  -4  -8-31.6394 144.969   3
   2  -4  -7 3830.22 380.073   2
  -2   4   7 2702.17 384.179   1
   2  -4  -7 3623.35 477.069   3
   2  -4  -6-51.5893 77.1254   2
  -2   4   6-42.0638 67.2890   3
  -2   4   6-5.24808 59.0155   1
   2  -4  -6-95.7023 110.782   1
   2  -4  -6 24.8824 74.7279   3
  -2   4   5 7495.88 641.783   3
   2  -4  -5 8569.98 655.966   1
   2  -4  -4 472.706 158.787   1
   2  -4  -4 694.324 187.017   3
  -2   4   4 547.485 151.021   3
   2  -4  -3 33314.2 1110.01   3
   2  -4  -3 31417.3 1143.08   1
   2  -4  -2 19897.8 882.971   1
  -2   4   2 20640.3 844.109   3
   2  -4  -2 20362.4 800.997   3
  -2   4   1 39690.7 1100.24   3
   2  -4  -1 36831.7 1188.41   1
  -2   4   0 104.276 75.8448   3
   2  -4   0 121.547 61.0102   1
   2  -4   1 21942.2 902.159   1
  -2   4  -2 1267.78 230.091   1
   2  -4   2 901.699 199.829   1
  -2   4  -3 1128.02 199.614   1
   2  -4   3 892.728 172.875   1
   2  -4   4 6206.18 444.303   1
  -2   4  -4 6681.12 469.402   1
   2  -4   5 495.617 136.040   1
  -2   4  -5 374.223 122.322   1
   2  -4   6 19419.9 759.606   1
  -2   4  -6 19573.3 708.998   1
  -2   4  -7 3763.31 290.370   1
  -2   4  -7 3804.43 456.380   3
  -2   4  -8 12001.9 877.284   3
  -2   4  -8 11649.6 455.496   1
  -2   4  -9-13.9440 92.7642   3
   2  -4   9-65.6133 54.5022   2
   2  -4  10 3272.12 333.998   2
  -2   4 -10 3185.24 521.626   3
   2  -4  11 955.972 148.301   2
  -2   4 -11 1247.44 348.357   3
  -2   4 -12 54.8540 161.092   3
  -2   4 -13 48.4633 169.200   3
   2  -3 -12-177.933 181.148   3
   2  -3 -11 324.635 217.883   3
   2  -3 -10 453.726 186.219   3
   2  -3  -9 511.671 178.583   3
   2  -3  -9 476.543 99.1159   2
   2  -3  -8 602.916 130.484   2
   2  -3  -8 664.926 124.601   2
   2  -3  -8 407.490 171.729   3
   2  -3  -7 1382.73 291.591   3
   2  -3  -7 1677.16 282.533   1
  -2   3   7 1251.63 284.781   3
  -2   3   6 1050.52 245.011   3
   2  -3  -6 1197.16 227.706   3
   2  -3  -6 1499.86 248.289   1
   2  -3  -5 3325.39 344.281   1
   2  -3  -5 3097.53 351.688   3
  -2   3   5 2679.71 366.902   3
  -2   3   5 3082.86 358.316   1
   2  -3  -4 494.794 126.428   1
   2  -3  -4 323.398 76.2200   3
  -2   3   4 635.378 163.904   1
  -2   3   4 837.840 174.762   3
   2  -3  -3 3129.58 298.218   3
   2  -3  -3 2859.19 302.649   1
  -2   3   3 2956.70 332.222   1
  -2   3   3 3126.55 313.707   3
  -2   3   2 16399.0 629.170   3
   2  -3  -2 15935.5 738.109   1
   2  -3  -2 17197.5 638.132   3
   2  -3  -1 58367.5 1330.60   1
  -2   3   1 59005.4 1049.61   3
  -2   3   0 25525.4 664.927   3
   2  -3   0 24408.8 850.340   1
   2  -3   1 52320.3 1231.69   1
   2  -3   2 322.435 111.444   1
  -2   3  -2 414.409 115.415   1
  -2   3  -3 12157.7 556.159   1
   2  -3   3 11942.1 547.844   1
  -2   3  -4 143.786 55.7760   1
   2  -3   4 66.9541 49.5284   1
   2  -3   5 45439.5 1013.49   1
  -2   3  -5 45231.8 955.272   1
  -2   3  -6 16887.7 546.265   1
   2  -3   6 16210.7 563.819   1
   2  -3   7 6662.79 326.940   1
   2  -3   8 6644.16 423.053   2
  -2   3  -8 6827.93 681.883   3
   2  -3   9 402.342 87.5212   2
  -2   3  -9 665.129 283.849   3
   2  -3  10 3796.47 225.880   2
  -2   3 -10 4643.22 639.830   3
  -2   3 -11 243.221 141.595   3
  -2   3 -12 708.201 287.436   3
  -2   3 -13 165.151 139.701   3
   2  -2 -13 313.164 234.150   3
   2  -2 -12 311.354 186.935   3
   2  -2 -11 789.347 252.742   3
   2  -2 -10 18.7454 93.1694   3
   2  -2  -9 2920.51 171.556   2
   2  -2  -9 2914.63 165.171   2
  -2   2   8 2980.33 325.064   1
   2  -2  -8 4512.22 390.744   1
   2  -2  -8 4224.76 527.648   3
   2  -2  -8 3736.46 258.541   2
  -2   2   7 1656.69 235.922   1
   2  -2  -7 2185.71 212.572   2
   2  -2  -7 2299.60 279.704   1
   2  -2  -7 2486.60 375.401   3
  -2   2   7 1624.57 301.210   3
   2  -2  -6 7312.97 585.054   3
  -2   2   6 7159.99 488.167   1
   2  -2  -6 7052.54 473.759   1
  -2   2   6 5344.83 497.385   3
   2  -2  -6 6628.06 388.125   2
   2  -2  -5 3368.63 325.472   1
  -2   2   5 3018.92 310.853   1
   2  -2  -5 2942.03 334.566   3
  -2   2   5 2245.51 297.741   3
   2  -2  -4 7233.21 461.009   3
  -2   2   4 7036.98 464.629   1
   2  -2  -4 7416.08 465.176   1
  -2   2   4 7024.54 470.661   3
  -2   2   3 14200.6 592.692   3
  -2   2   3 13416.5 619.235   1
   2  -2  -3 14031.6 548.200   3
   2  -2  -3 14172.9 621.924   1
   2  -2  -2 245.494 60.4283   3
   2  -2  -2 313.938 109.662   1
  -2   2   2 302.660 63.8372   3
   2  -2  -1 17376.1 389.137   3
   2  -2  -1 18310.1 680.138   1
  -2   2   1 17117.7 393.063   3
   2  -2   0 44814.7 1014.11   1
   2  -2   1 19930.2 661.490   1
  -2   2  -2 96891.2 1287.65   3
  -2   2  -2 94582.2 1387.77   1
   2  -2   2 96657.0 1420.66   1
  -2   2  -3 246184. 2173.56   1
   2  -2   3 244274. 2185.14   1
   2  -2   4 22635.7 643.256   1
   2  -2   5 13211.3 460.418   1
   2  -2   6 1376.39 146.516   1
   2  -2   7 4772.83 220.467   1
   2  -2   7 5400.91 322.560   2
   2  -2   8 4185.07 264.183   2
   2  -2   8 4032.16 249.913   2
  -2   2  -9 3569.04 532.677   3
  -2   2 -10-197.913 171.962   3
  -2   2 -11 1278.36 341.552   3
  -2   2 -12 688.904 274.399   3
  -2   2 -13 473.656 277.468   3
   2  -1 -13-72.7489 103.313   3
   2  -1 -12-57.9456 145.460   3
   2  -1 -11 1898.10 404.238   3
   2  -1 -10 453.108 202.691   3
   2  -1  -9 4128.34 524.273   3
   2  -1  -9 4613.44 350.231   1
   2  -1  -8 81.7702 45.1235   1
   2  -1  -8 180.736 72.8411   2
   2  -1  -8 306.098 96.0917   3
   2  -1  -7 9870.47 510.519   1
   2  -1  -7 9033.08 665.208   3
   2  -1  -7 8466.45 408.595   2
   2  -1  -6 13166.2 729.959   3
  -2   1   6 12519.6 593.421   1
   2  -1  -6 12879.2 525.067   2
   2  -1  -6 13232.0 581.709   1
   2  -1  -5 31181.7 816.280   2
   2  -1  -5 31012.1 874.400   1
  -2   1   5 30750.6 899.706   1
   2  -1  -5 32046.5 1028.18   3
   2  -1  -4 17113.1 672.875   3
   2  -1  -4 16504.3 593.153   2
   2  -1  -4 17222.2 638.985   1
  -2   1   4 15536.5 636.190   1
   2  -1  -3 55.4305 41.8705   2
   2  -1  -3 165.311 70.9654   1
  -2   1   3 173.983 64.1665   1
   2  -1  -3 181.794 60.4809   3
   2  -1  -2 63333.3 1157.42   1
   2  -1  -2 62657.8 838.919   3
   2  -1  -2 65865.4 1157.04   2
   2  -1  -1 584.664 118.375   1
   2  -1   0 105085. 1457.24   1
   2  -1   1 5837.03 350.854   1
   2  -1   1 5478.04 267.154   3
  -2   1  -1 5984.75 273.997   3
   2  -1   2 2217.24 210.099   1
   2  -1   2 2264.14 216.782   3
   2  -1   3 48596.8 937.299   1
   2  -1   3 48930.3 1003.51   2
   2  -1   3 49958.1 1176.07   3
   2  -1   4 502.183 92.9704   1
   2  -1   4 543.235 104.141   2
   2  -1   4 388.457 123.653   3
   2  -1   5 125633. 1447.32   1
   2  -1   5 131565. 1583.41   2
   2  -1   6 306.918 130.105   3
   2  -1   6 322.377 77.7878   2
   2  -1   6 159.295 45.2679   1
   2  -1   7 12792.8 441.714   2
   2  -1   7 14007.6 414.759   1
  -2   1  -7 16590.3 1006.85   3
   2  -1   7 17872.0 1021.64   3
  -2   1  -8 2635.67 426.047   3
  -2   1  -9 22912.9 1327.76   3
  -2   1 -10 367.263 203.528   3
  -2   1 -11 1653.04 403.474   3
  -2   1 -12 176.748 150.522   3
  -2   1 -13 443.743 275.991   3
   2   0 -14 539.984 262.054   3
   2   0 -13 30.9494 132.094   3
   2   0 -12-25.1425 108.394   3
   2   0 -11 1902.64 411.306   3
   2   0 -10 93.3442 97.4550   3
   2   0  -9 3435.57 470.257   3
   2   0  -9 3231.62 236.315   2
   2   0  -9 3077.98 246.013   1
   2   0  -8 673.608 125.894   1
   2   0  -8 575.349 112.977   2
   2   0  -8 520.047 168.473   3
   2   0  -7 2675.49 241.860   1
   2   0  -7 2962.13 262.862   2
   2   0  -7 2813.62 378.102   3
   2   0  -6 22932.0 719.224   1
   2   0  -6 23984.5 982.806   3
   2   0  -6 24739.2 780.680   2
   2   0  -5 33238.0 895.462   2
   2   0  -5 31433.4 833.847   1
   2   0  -5 31161.4 997.231   3
   2   0  -4 22839.3 735.503   2
   2   0  -4 22258.8 707.959   1
  -2   0   4 23205.4 741.767   2
   2   0  -3 24633.2 767.966   2
  -2   0   3 24694.7 781.812   2
   2   0  -3 23049.9 719.528   1
  -2   0   2 1680.80 202.256   2
  -2   0   1 63112.5 1205.53   2
   2   0   0 8270.63 356.453   3
  -2   0   0 8423.20 445.940   2
  -2   0  -1 8007.90 418.436   2
   2   0   1 7382.87 382.771   3
   2   0   2 82792.1 1385.41   2
  -2   0  -2 84019.5 1332.23   2
   2   0   2 81697.6 1476.71   3
   2   0   3 66938.0 1223.86   2
  -2   0  -3 65898.1 1157.05   2
   2   0   3 67066.2 1478.50   3
   2   0   4 0.60089 55.8474   2
   2   0   4-344.430 127.832   3
   2   0   5 21996.4 1083.08   3
   2   0   5 20570.6 665.573   2
   2   0   6 51.6654 43.3645   2
   2   0   6 28.0287 86.2936   3
   2   0   7 8588.05 364.560   2
  -2   0  -7 11669.9 878.689   3
   2   0   8 5681.64 330.784   1
  -2   0  -8 7990.11 794.159   3
   2   0   9 3341.57 187.038   1
   2   0   9 4446.16 211.513   1
  -2   0 -10 373.479 203.762   3
  -2   0 -11 1377.19 374.071   3
  -2   0 -12 99.0918 177.053   3
   2   1 -14 208.541 133.515   3
   2   1 -13 495.121 270.296   3
   2   1 -12 360.519 202.132   3
   2   1 -11 3040.43 515.176   3
   2   1 -10 5450.94 655.523   3
   2   1 -10 4050.81 234.820   1
   2   1 -10 4859.92 302.076   2
   2   1  -9 8739.30 773.190   3
   2   1  -9 8312.13 471.250   2
   2   1  -9 7478.37 377.436   1
   2   1  -8 5082.78 537.691   3
   2   1  -8 4641.93 311.804   1
   2   1  -8 5942.79 427.088   2
   2   1  -7 18962.0 957.287   3
  -2  -1   7 19981.8 743.431   2
   2   1  -7 17800.4 634.130   1
   2   1  -7 20553.9 797.078   2
   2   1  -6 1711.45 221.306   2
   2   1  -6 1428.89 185.398   1
  -2  -1   6 1719.72 218.056   2
   2   1  -5 334594. 3228.96   2
  -2  -1   5 337909. 3121.98   2
   2   1  -4 448.311 130.125   2
  -2  -1   4 414.345 134.723   2
   2   1  -3 5424.89 423.566   2
  -2  -1   3 5288.02 402.841   2
  -2  -1   2 44003.5 1131.29   2
  -2  -1   1-15.7728 71.3953   2
  -2  -1   0 2170.99 252.758   2
   2   1   0 2538.94 262.025   3
   2   1   1 27224.9 898.124   3
  -2  -1  -1 26441.0 849.239   2
   2   1   2 4605.61 372.261   2
  -2  -1  -2 3924.17 328.453   2
   2   1   2 3869.27 382.400   3
   2   1   3 4229.53 349.358   2
  -2  -1  -3 3662.11 304.185   2
   2   1   3 4200.67 420.473   3
   2   1   4 28221.1 911.035   2
   2   1   4 27293.5 1179.22   3
   2   1   5 2024.68 242.496   2
  -2  -1  -5 1776.54 194.641   2
   2   1   5 1954.89 330.980   3
  -2  -1  -6 855.216 131.663   2
   2   1   6 741.664 141.051   2
   2   1   6 922.462 256.863   3
  -2  -1  -6 767.407 233.096   3
   2   1   7 4594.37 310.758   2
  -2  -1  -7 6219.02 646.835   3
  -2  -1  -8 3174.33 489.172   3
   2   1   8 2199.72 261.103   1
   2   1   9 1728.76 219.145   1
  -2  -1  -9 2122.40 438.859   3
  -2  -1 -10 937.480 315.961   3
  -2  -1 -11 103.370 173.994   3
  -2  -1 -12 352.759 237.457   3
   2   2 -14-86.3061 138.501   3
   2   2 -13 2288.06 518.093   3
   2   2 -12 42.3210 128.150   3
   2   2 -11 20.9767 117.085   3
   2   2 -10 250.603 106.614   2
   2   2 -10 81.0274 79.0268   3
   2   2 -10 156.931 61.0665   1
   2   2  -9-162.070 110.046   3
   2   2  -9 74.3063 70.9663   1
   2   2  -9-37.4829 77.0708   2
  -2  -2   9-20.2883 53.6787   2
   2   2  -8 3793.43 381.093   2
   2   2  -8 3332.88 290.798   1
  -2  -2   8 3706.01 359.034   2
   2   2  -7 746.115 194.511   2
  -2  -2   7 474.970 130.627   2
   2   2  -6 17971.8 861.098   2
  -2  -2   6 17252.1 781.641   2
   2   2  -5 5644.79 474.608   2
  -2  -2   5 5416.78 455.006   2
   2   2  -4 4116.13 399.911   2
  -2  -2   4 4469.67 397.422   2
   2   2  -3 6344.21 501.586   2
  -2  -2   3 6856.39 500.132   2
  -2  -2   2 7559.90 530.456   2
   2   2  -1 5655.20 460.408   3
  -2  -2   1 5845.95 471.967   2
  -2  -2   0 4144.14 387.235   2
   2   2   0 3972.50 402.813   3
   2   2   1 7074.27 524.994   2
  -2  -2  -1 6837.94 488.011   2
   2   2   1 6878.33 547.024   3
   2   2   2 3309.24 361.700   2
   2   2   2 2976.96 377.006   3
  -2  -2  -2 2993.97 316.675   2
  -2  -2  -3 35435.1 1079.41   2
   2   2   3 38067.9 1400.89   3
   2   2   3 38913.8 1236.69   2
   2   2   4 3632.11 383.920   2
   2   2   4 3320.75 445.199   3
  -2  -2  -4 3138.44 312.896   2
   2   2   5 864.990 202.028   2
   2   2   5 1079.52 286.719   3
  -2  -2  -5 740.536 154.436   2
   2   2   6 2514.46 309.005   2
  -2  -2  -6 2806.71 280.802   2
  -2  -2  -6 2850.83 432.871   3
  -2  -2  -7 4576.21 326.483   2
  -2  -2  -7 4636.53 579.016   3
   2   2   8 0.70333 35.4760   1
  -2  -2  -8 1611.65 383.476   3
  -2  -2  -9 25.5964 95.3141   3
  -2  -2 -10-13.9992 134.184   3
  -2  -2 -11 400.200 257.488   3
   2   3 -14-87.6086 183.012   3
   2   3 -13 304.506 296.312   3
   2   3 -12 176.093 213.105   3
  -2  -3  11 3332.79 353.626   2
   2   3 -11 2742.11 222.476   1
   2   3 -11 3306.73 538.434   3
   2   3 -10 1617.05 345.346   3
   2   3 -10 1475.78 198.678   1
   2   3 -10 1860.86 306.004   2
  -2  -3  10 1492.27 244.663   2
   2   3  -9 3296.96 410.994   2
  -2  -3   9 2715.23 339.379   2
  -2  -3   8 12529.5 734.923   2
   2   3  -8 12220.8 795.726   2
  -2  -3   7 475.207 142.991   2
   2   3  -7 531.986 158.248   2
   2   3  -6 12760.1 824.540   2
  -2  -3   6 12966.2 772.393   2
   2   3  -5 86173.0 2090.73   2
  -2  -3   5 87537.5 1981.98   2
   2   3  -4 35615.0 1352.33   2
  -2  -3   4 34990.8 1262.27   2
  -2  -3   3 9788.29 665.540   2
  -2  -3   2 1407.61 244.991   2
  -2  -3   1 1180.97 220.464   2
   2   3  -1 1375.69 252.653   3
  -2  -3   0 53614.5 1529.77   2
   2   3   0 57030.2 1664.23   3
   2   3   1 15600.4 902.690   2
   2   3   1 15535.1 904.010   3
  -2  -3  -1 15023.2 801.713   2
  -2  -3  -2 15155.6 809.154   2
   2   3   2 13310.7 832.153   2
   2   3   2 16217.1 958.055   3
  -2  -3  -3 523.999 159.820   2
   2   3   3 66.0593 65.8081   2
   2   3   3 402.199 179.212   3
  -2  -3  -4 8635.09 591.256   2
   2   3   4 9996.43 868.627   3
  -2  -3  -4 8888.23 769.078   3
  -2  -3  -5 1329.12 318.392   3
  -2  -3  -5 834.636 179.362   2
   2   3   6 3802.94 474.371   1
   2   3   6 3024.58 378.754   2
  -2  -3  -6 4353.79 391.297   2
  -2  -3  -6 4506.48 575.254   3
  -2  -3  -7 2560.16 295.545   2
  -2  -3  -7 2456.40 468.584   3
   2   3   7 2457.14 385.253   1
  -2  -3  -8 5022.59 682.800   3
  -2  -3  -8 4020.61 326.378   2
   2   3   8 4829.27 524.899   1
  -2  -3  -9 1928.99 471.268   3
  -2  -3 -10 611.123 296.176   3
   2   4 -14 177.080 220.309   3
   2   4 -13 150.552 132.050   3
   2   4 -12 112.229 123.702   3
   2   4 -11-179.583 200.379   3
   2   4 -11-51.8075 75.6236   1
  -2  -4  11 30.8092 60.9417   2
   2   4 -10 724.083 214.968   2
  -2  -4  10 648.560 174.702   2
   2   4  -9 207.229 79.0210   2
  -2  -4   9 224.412 110.517   2
   2   4  -8 1235.10 286.770   2
  -2  -4   8 1053.52 245.204   2
   2   4  -7 1364.91 298.653   2
  -2  -4   7 1530.50 277.438   2
   2   4  -6 11819.4 874.867   2
  -2  -4   6 12278.2 812.651   2
   2   4  -5 161.870 136.626   2
  -2  -4   5 84.9944 93.0787   2
   2   4  -4 41626.1 1631.18   2
  -2  -4   4 40291.3 1478.02   2
  -2  -4   3 213.757 74.3798   2
  -2  -4   2 70302.8 1932.99   2
   2   4  -2 72734.0 2029.25   3
   2   4  -1 634.404 230.756   3
  -2  -4   1 308.607 133.072   2
   2   4   0 3750.15 479.303   2
   2   4   0 4567.91 529.201   3
  -2  -4   0 4284.40 466.273   2
   2   4   1 5475.54 603.528   3
   2   4   1 3909.71 495.621   2
  -2  -4  -1 5200.51 530.666   2
   2   4   2 1517.53 312.021   2
   2   4   2 2186.68 390.713   3
  -2  -4  -2 1983.98 324.677   2
   2   4   3 90.7226 93.1262   2
  -2  -4  -3 49.3587 92.2318   3
  -2  -4  -3 60.1977 106.039   2
  -2  -4  -4 8027.41 633.365   2
  -2  -4  -4 7640.69 727.968   3
  -2  -4  -5 8925.69 658.391   2
   2   4   5 7862.87 764.767   1
  -2  -4  -5 8828.29 825.221   3
  -2  -4  -6 2537.98 337.236   2
   2   4   6 2961.97 477.476   1
  -2  -4  -6 2339.93 468.354   3
  -2  -4  -7 1657.07 264.656   2
  -2  -4  -7 1553.46 398.285   3
  -2  -4  -8-175.185 194.026   3
  -2  -4  -9-98.3068 116.089   3
   2   5 -14 1225.73 401.023   3
   2   5 -13-27.0091 148.801   3
   2   5 -12 1172.54 339.687   3
  -2  -5  12 1117.28 259.633   2
  -2  -5  11 34.3909 54.6926   2
   2   5 -10-35.2751 101.908   2
  -2  -5  10 185.948 67.4969   2
  -2  -5   9 836.305 244.109   2
   2   5  -9 821.347 298.582   2
   2   5  -8 1537.13 387.301   2
  -2  -5   8 1686.91 331.016   2
   2   5  -7 124.513 139.951   2
  -2  -5   7 120.752 122.462   2
   2   5  -6 14935.6 1085.18   2
  -2  -5   6 17006.7 1045.70   2
  -2  -5   5 1227.47 266.866   2
   2   5  -5 1311.00 326.789   2
   2   5  -4 1986.09 406.044   2
  -2  -5   4 1581.65 301.364   2
  -2  -5   3 18298.7 1065.80   2
   2   5  -3 20467.7 1267.77   2
  -2  -5   2 13085.9 904.871   2
   2   5  -2 14302.3 1021.65   3
  -2  -5   1-21.4512 96.0064   2
   2   5  -1 84.2811 166.033   2
   2   5  -1-140.267 151.489   3
   2   5   0 1017.60 307.771   3
   2   5   0 693.501 241.819   2
  -2  -5   0 556.261 175.780   2
   2   5   1 883.406 275.217   2
  -2  -5  -1 810.167 223.199   2
  -2  -5  -2 1627.76 307.823   2
   2   5   2 1429.31 337.176   2
  -2  -5  -2 1799.72 338.022   3
   2   5   3 279.078 103.117   2
  -2  -5  -3 286.951 89.4547   2
  -2  -5  -4 7871.08 811.382   3
  -2  -5  -4 8280.18 705.593   2
   2   5   4 8149.54 789.154   2
  -2  -5  -5 670.754 200.493   2
  -2  -5  -5 571.539 250.044   3
  -2  -5  -6 2669.89 389.922   2
  -2  -5  -6 1986.94 450.585   3
  -2  -5  -7 9.93742 117.447   3
  -2  -5  -7-49.2520 65.6074   2
  -2  -5  -8 760.597 331.316   3
   2   6 -13 1057.57 344.869   3
  -2  -6  12 932.419 263.537   2
  -2  -6  11 1970.82 384.870   2
  -2  -6  10 1707.48 352.087   2
  -2  -6   9 4893.75 623.611   2
  -2  -6   8 3820.57 554.554   2
  -2  -6   7 39.5590 95.2343   2
  -2  -6   6 14372.7 1023.19   2
  -2  -6   5 1219.88 298.025   2
  -2  -6   4-80.6441 143.640   2
  -2  -6   3 9347.82 812.704   2
  -2  -6   2 1085.83 285.576   2
  -2  -6   1 2635.09 432.566   2
  -2  -6   0 2971.04 461.273   2
  -2  -6  -1 2942.19 441.196   2
  -2  -6  -2 3327.61 479.477   2
  -2  -6  -3 32.3551 124.970   3
  -2  -6  -3-109.127 160.872   2
  -2  -6  -4 695.704 264.764   3
  -2  -6  -4 294.239 141.956   2
  -2  -6  -5 222.723 160.615   2
  -2  -6  -5 19.9616 115.407   3
  -2  -6  -6 2996.39 572.190   3
  -2  -6  -6 3888.58 497.420   2
  -2  -6  -7 869.560 320.881   3
  -2  -7  12 309.434 157.766   2
  -2  -7  11 949.593 291.936   2
  -2  -7  10 1202.80 341.059   2
  -2  -7   9 4144.24 607.907   2
  -2  -7   8 315.130 205.099   2
  -2  -7   7 13702.4 1088.35   2
  -2  -7   6 31437.9 1606.66   2
  -2  -7   5 3993.51 577.281   2
  -2  -7   4 5182.36 655.230   2
  -2  -7   3 717.994 238.238   2
  -2  -7   2 1847.10 405.069   2
  -2  -7   1 874.580 225.673   2
  -2  -7   0 1483.55 351.295   2
  -2  -7  -1 10.3610 146.988   2
  -2  -7  -2 5157.07 668.974   2
  -2  -7  -3 228.359 172.121   2
  -2  -7  -4 1038.22 310.766   2
  -2  -7  -5 186.422 234.568   3
  -2  -7  -5 286.421 176.752   2
  -2  -7  -6 2492.33 559.258   3
  -2  -8  12 226.089 180.069   2
  -2  -8  11 69.9101 134.615   2
  -2  -8  10 821.929 289.277   2
  -2  -8   9 179.853 158.080   2
  -2  -8   8-183.428 194.513   2
  -2  -8   7 2711.51 515.916   2
  -2  -8   6 97.2062 108.547   2
  -2  -8   5 148.205 99.8507   2
  -2  -8   4 1249.94 359.689   2
  -2  -8   3 26.9500 130.278   2
  -2  -8   2-66.9739 117.127   2
  -2  -8   1-157.021 124.962   2
  -2  -8   0 59.6238 126.457   2
  -2  -8  -1 155.800 114.207   2
  -2  -8  -2 378.511 223.508   2
  -2  -8  -3 432.859 225.928   2
  -2  -8  -4 1209.99 313.294   2
  -2  -8  -5 155.894 171.264   2
  -2  -9  12 195.378 167.159   2
  -2  -9  11-30.0452 121.655   2
  -2  -9  10 551.260 294.317   2
  -2  -9   9 315.303 245.234   2
  -2  -9   8 2548.82 516.175   2
  -2  -9   7 456.010 210.031   2
  -2  -9   6 187.975 193.604   2
  -2  -9   5 3243.62 590.317   2
  -2  -9   4-35.3203 102.270   2
  -2  -9   3 599.413 246.484   2
  -2  -9   2-215.679 198.066   2
  -2  -9   1 131.661 91.3104   2
  -2  -9   0 1042.31 372.101   2
  -2  -9  -1-44.0957 166.024   2
  -2  -9  -2 491.955 249.098   2
  -2  -9  -3 111.169 195.799   2
  -2  -9  -4-140.488 164.267   2
  -2 -10  11 291.158 195.213   2
  -2 -10  10 229.109 213.891   2
  -2 -10   9 856.278 339.316   2
  -2 -10   8 185.470 197.689   2
  -2 -10   7 1772.82 470.415   2
  -2 -10   6 168.327 151.976   2
  -2 -10   5 55.5559 113.814   2
  -2 -10   4 150.235 164.391   2
  -2 -10   3 807.957 358.584   2
  -2 -10   2 1328.61 383.991   2
  -2 -10   1 696.102 289.068   2
  -2 -10   0 1232.91 377.551   2
  -2 -10  -1 714.531 340.034   2
  -2 -10  -2 102.553 115.466   2
   3 -12   2 693.077 339.794   2
   3 -12   3 292.315 237.356   2
   3 -12   4 2.52249 172.474   2
   3 -12   5 210.826 135.650   2
   3 -12   6-184.621 176.674   2
   3 -12   7 369.580 229.889   2
   3 -12   8 648.186 319.941   2
   3 -11  -4 290.611 252.341   2
   3 -11  -3-162.414 146.075   2
   3 -11  -2 168.617 110.053   2
   3 -11  -1 183.394 181.868   2
   3 -11   0 206.203 237.065   2
   3 -11   1 1369.97 426.957   2
   3 -11   2 471.363 293.231   2
   3 -11   3 899.880 359.302   2
   3 -11   4 714.021 329.157   2
   3 -11   5 369.405 217.744   2
   3 -11   6 99.0933 173.428   2
   3 -11   7 1345.60 417.312   2
   3 -11   8 1298.75 397.555   2
   3 -11   9 76.3848 114.842   2
   3 -11  10 83.2951 116.209   2
   3 -11  11-39.0941 132.468   2
   3 -11  12-345.005 226.506   2
   3 -10  -5 252.093 220.949   2
   3 -10  -4 538.858 272.150   2
   3 -10  -3 77.3986 103.846   2
   3 -10  -2 963.461 325.482   2
   3 -10  -1 208.400 206.070   2
   3 -10   0 6210.18 820.260   2
   3 -10   1 265.159 232.654   2
   3 -10   2 80.3848 128.736   2
   3 -10   3 209.654 141.871   2
   3 -10   4 1868.94 464.239   2
   3 -10   5 155.383 190.057   2
   3 -10   6 1692.92 441.232   2
   3 -10   7-15.3243 142.844   2
   3 -10   8 42.3027 168.873   2
   3 -10   9-50.2102 133.560   2
   3 -10  10 306.707 205.106   2
   3 -10  11-57.3918 147.892   2
   3 -10  12 274.046 193.800   2
   3  -9  -6 76.0854 110.842   2
   3  -9  -5-56.6066 130.512   2
   3  -9  -4 96.1517 153.909   2
   3  -9  -3-308.175 188.798   2
   3  -9  -2 1277.04 324.887   2
   3  -9  -1 1890.15 423.325   2
   3  -9   0-54.2848 106.090   2
   3  -9   1 1042.25 321.768   2
   3  -9   2 5805.48 751.134   2
   3  -9   3 1131.99 347.907   2
   3  -9   4 614.507 273.586   2
   3  -9   5 2695.30 517.866   2
   3  -9   6 176.068 156.282   2
   3  -9   7 1195.05 375.745   2
   3  -9   8 980.321 313.854   2
   3  -9   9 799.459 274.556   2
   3  -9  10 118.058 94.8347   2
   3  -9  11-184.482 174.569   2
  -3   9 -12 171.529 146.874   3
   3  -9  12-632.154 255.037   2
   3  -8  -8-12.3990 109.894   3
   3  -8  -7-205.409 188.276   3
   3  -8  -6 427.609 208.369   2
   3  -8  -5 137.911 143.214   2
   3  -8  -4 509.658 219.785   2
   3  -8  -3 1024.63 278.055   2
   3  -8  -2 726.046 262.407   2
   3  -8  -1 883.837 270.687   2
  -3   8   1 594.515 166.271   3
   3  -8  -1 542.741 219.249   1
   3  -8   0 12657.6 1002.43   2
  -3   8   0 10656.9 881.359   3
   3  -8   0 11422.4 986.072   1
  -3   8  -1 4964.58 585.231   3
   3  -8   1 5670.14 663.350   1
   3  -8   2 5913.23 673.649   1
  -3   8  -2 5776.37 639.981   3
   3  -8   3 7989.58 780.230   1
   3  -8   4 9987.12 858.004   1
   3  -8   5 7122.66 764.165   2
   3  -8   6 11583.9 978.626   2
   3  -8   7 1098.39 325.573   2
   3  -8   8 2661.00 471.950   2
   3  -8   9-61.9136 149.502   2
   3  -8  10 1109.34 329.472   2
  -3   8 -11 1175.92 391.929   3
   3  -8  11 1374.53 346.979   2
   3  -8  12 1316.31 319.780   2
  -3   8 -12 949.180 346.339   3
  -3   8 -13 261.824 265.260   3
   3  -7 -10-126.592 195.291   3
   3  -7  -9-238.363 175.945   3
   3  -7  -8 1336.14 348.982   3
   3  -7  -7 521.390 203.688   3
   3  -7  -7 99.7314 77.8045   2
   3  -7  -6 2664.59 429.239   2
   3  -7  -6 2311.40 413.846   3
   3  -7  -5 3193.36 481.646   2
   3  -7  -5 3750.51 523.126   3
   3  -7  -4 1907.45 402.271   1
   3  -7  -4 1844.13 357.453   2
  -3   7   3 528.508 215.127   3
   3  -7  -3 560.000 231.094   1
  -3   7   2 905.283 235.380   3
   3  -7  -2 975.151 281.284   1
  -3   7   1 5571.28 575.312   3
   3  -7  -1 6615.09 693.255   1
   3  -7   0 4971.06 616.090   1
  -3   7   0 4042.26 489.270   3
  -3   7  -1 2441.41 362.317   3
   3  -7   1 3395.57 490.980   1
   3  -7   2 3229.68 469.948   1
   3  -7   3 9411.06 772.179   1
  -3   7  -3 10264.4 852.045   1
  -3   7  -4 7023.26 690.147   1
   3  -7   4 6570.39 641.301   1
   3  -7   5 90.0275 100.068   1
  -3   7  -5 4.95700 69.3662   1
  -3   7  -6 1669.60 316.500   1
   3  -7   6 2481.67 393.899   1
   3  -7   7 8207.55 789.049   2
  -3   7  -7 8345.84 696.873   1
   3  -7   8 3006.52 486.273   2
  -3   7  -8 3549.98 432.915   1
  -3   7  -9 703.978 185.537   1
   3  -7   9 574.932 216.939   2
   3  -7  10 6876.47 727.596   2
  -3   7 -10 8839.10 894.207   3
  -3   7 -11-84.6769 160.784   3
   3  -7  11 172.065 149.436   2
  -3   7 -12 364.452 203.110   3
  -3   7 -13 263.152 204.328   3
   3  -6 -11 416.613 262.897   3
   3  -6 -10 320.041 190.437   3
   3  -6  -9-58.5099 111.014   3
   3  -6  -8 2131.13 430.593   3
   3  -6  -7 1512.40 294.292   2
   3  -6  -7 1918.40 382.884   3
   3  -6  -6 5045.48 538.714   2
   3  -6  -6 5070.28 592.563   3
   3  -6  -6 5371.78 621.584   1
   3  -6  -5 2944.37 469.614   1
   3  -6  -5 3429.12 463.650   3
  -3   6   5 3524.84 492.344   3
  -3   6   4 291.229 139.019   3
   3  -6  -4 121.579 107.614   1
   3  -6  -4 435.285 157.954   3
   3  -6  -3 4381.80 540.473   1
  -3   6   3 3500.54 435.252   3
  -3   6   2 979.042 222.951   3
   3  -6  -2 1280.96 304.026   1
  -3   6   2 1324.75 329.022   1
  -3   6   1 12811.6 760.933   3
   3  -6  -1 14960.0 944.842   1
  -3   6   0 1619.32 267.773   3
   3  -6   0 1936.96 340.093   1
  -3   6  -1 14668.2 806.476   3
   3  -6   1 17243.3 980.808   1
   3  -6   2 292.518 144.235   1
  -3   6  -2 623.717 185.189   1
  -3   6  -3 10755.3 781.560   1
   3  -6   3 9764.94 709.419   1
  -3   6  -4 10484.1 755.765   1
   3  -6   4 9290.38 685.520   1
   3  -6   5 1961.16 319.961   1
  -3   6  -5 1635.45 294.058   1
  -3   6  -6 13852.2 821.012   1
   3  -6   6 12489.6 791.159   1
  -3   6  -7-96.8013 122.736   1
   3  -6   7-11.2811 100.961   1
  -3   6  -8 13096.5 738.118   1
  -3   6  -8 13772.3 990.518   3
   3  -6   9 889.683 255.804   2
  -3   6  -9 745.967 269.333   3
  -3   6  -9 759.061 165.654   1
   3  -6  10 1628.09 330.077   2
  -3   6 -10 2183.59 459.683   3
   3  -6  11 261.568 139.337   2
  -3   6 -11 686.118 275.005   3
  -3   6 -12 1108.38 372.467   3
  -3   6 -13 436.221 234.554   3
   3  -5 -11-121.575 156.948   3
   3  -5 -10 1537.21 386.752   3
   3  -5  -9 137.418 134.414   3
   3  -5  -8 76.1741 104.675   3
   3  -5  -8 199.306 94.8804   2
   3  -5  -7-69.3714 111.527   3
   3  -5  -7-260.718 164.615   1
   3  -5  -6 308.570 159.294   3
  -3   5   6 509.774 196.361   1
   3  -5  -6 308.121 171.565   1
  -3   5   6 353.553 148.876   3
  -3   5   5 165.610 143.337   1
   3  -5  -5 161.990 174.105   3
  -3   5   5-86.8123 116.910   3
   3  -5  -5-5.57578 84.6003   1
  -3   5   4 3035.55 385.017   3
   3  -5  -4 4297.72 434.674   3
  -3   5   4 3479.34 473.585   1
   3  -5  -4 4097.88 477.645   1
  -3   5   3 6725.71 539.910   3
  -3   5   3 7186.89 658.046   1
   3  -5  -3 8150.81 658.812   1
  -3   5   2 4915.61 530.370   1
   3  -5  -2 5530.13 549.228   1
  -3   5   2 5038.47 431.018   3
  -3   5   1 94.9896 71.9892   3
   3  -5  -1 230.184 104.373   1
   3  -5   0 2376.86 334.951   1
  -3   5   0 2453.11 274.674   3
   3  -5   1 9149.75 658.861   1
  -3   5  -2 254.633 135.063   1
   3  -5   2 152.518 81.0301   1
   3  -5   3-45.9660 110.216   1
  -3   5  -3 61.7388 60.6939   1
   3  -5   4 8154.97 599.171   1
  -3   5  -4 9141.13 646.451   1
  -3   5  -5 20817.3 921.021   1
   3  -5   5 19587.4 908.386   1
  -3   5  -6 3160.04 342.802   1
   3  -5   6 3304.03 365.304   1
  -3   5  -7 277.103 104.679   1
  -3   5  -7 40.7674 67.8319   3
   3  -5   7 113.966 76.1728   1
  -3   5  -8 9845.08 567.698   1
  -3   5  -8 10790.7 846.843   3
   3  -5   9 495.268 192.089   2
  -3   5  -9 375.040 173.251   3
  -3   5 -10 374.952 227.627   3
   3  -5  10 321.225 158.096   2
   3  -5  11 662.702 178.135   2
  -3   5 -11 1068.70 380.261   3
  -3   5 -12 1350.27 393.533   3
  -3   5 -13 70.5271 140.872   3
   3  -4 -12 198.342 175.053   3
   3  -4 -11 165.251 162.724   3
   3  -4 -10 2198.93 428.405   3
   3  -4  -9 218.106 136.281   3
  -3   4   8 1105.08 276.153   1
   3  -4  -8 762.298 158.260   2
   3  -4  -8 606.539 208.874   3
   3  -4  -8 714.000 209.245   1
  -3   4   7 6239.13 632.282   3
  -3   4   7 4457.53 510.587   1
   3  -4  -7 5428.29 559.098   3
   3  -4  -7 6266.74 599.100   1
  -3   4   6 706.591 217.443   1
   3  -4  -6 1202.92 251.045   1
   3  -4  -6 1377.23 269.886   3
  -3   4   6 743.444 215.565   3
   3  -4  -5 5610.16 519.827   1
   3  -4  -5 5527.21 498.088   3
  -3   4   5 4470.61 473.600   3
  -3   4   4 11219.9 762.302   1
   3  -4  -4 14643.1 735.845   3
   3  -4  -4 13546.4 797.058   1
  -3   4   4 11368.1 672.362   3
  -3   4   3 3312.22 330.454   3
   3  -4  -3 4527.07 364.057   3
   3  -4  -3 4246.00 448.862   1
   3  -4  -2 32100.1 886.910   3
   3  -4  -2 30886.4 1155.07   1
   3  -4  -1 35503.9 1229.55   1
  -3   4   1 35639.0 855.160   3
  -3   4   0 11532.5 478.510   3
   3  -4   0 10701.0 671.375   1
   3  -4   1 1488.33 256.891   1
  -3   4  -2 4003.28 408.249   1
   3  -4   2 3975.56 392.066   1
   3  -4   3 354.085 124.495   1
  -3   4  -3 362.008 110.557   1
  -3   4  -4 14986.1 719.917   1
   3  -4   4 15045.4 730.024   1
  -3   4  -5 68612.1 1494.22   1
   3  -4   5 69530.0 1537.69   1
   3  -4   6 944.951 173.977   1
  -3   4  -6 921.262 205.684   3
  -3   4  -6 926.560 177.766   1
   3  -4   7 8091.10 513.208   1
  -3   4  -7 7181.59 663.696   3
   3  -4   8 147.161 82.2937   1
  -3   4  -8 164.864 130.821   3
  -3   4  -9 562.482 277.835   3
   3  -4  10 219.995 99.5464   2
   3  -4  10 460.068 159.788   2
  -3   4 -10 627.495 270.622   3
  -3   4 -11 455.460 255.410   3
  -3   4 -12 113.048 96.6777   3
  -3   4 -13 242.559 167.589   3
   3  -3 -13-100.532 163.170   3
   3  -3 -12-291.652 188.858   3
   3  -3 -11-366.407 248.240   3
   3  -3 -10-41.7031 103.040   3
   3  -3  -9 329.535 144.693   1
   3  -3  -9 204.927 111.661   3
   3  -3  -8 1424.06 256.109   1
   3  -3  -8 1300.74 262.326   3
   3  -3  -8 1341.49 206.537   2
   3  -3  -7 3468.55 340.048   2
   3  -3  -7 3962.16 450.256   3
   3  -3  -7 3722.25 417.405   1
  -3   3   7 2964.00 404.574   3
  -3   3   6 1425.03 261.201   3
   3  -3  -6 2053.46 297.034   1
   3  -3  -6 1870.24 279.049   3
   3  -3  -5 6027.70 461.753   3
   3  -3  -5 6706.93 529.042   1
  -3   3   5 5114.20 438.885   3
  -3   3   4 173.175 74.0339   3
   3  -3  -4 48.2754 61.8599   3
   3  -3  -3 6410.47 514.205   1
   3  -3  -3 6247.67 367.180   3
  -3   3   3 6067.98 384.115   3
   3  -3  -2 79968.1 1737.37   1
   3  -3  -2 77012.8 1090.01   3
  -3   3   2 78387.8 1097.28   3
   3  -3  -1 18478.2 825.023   1
  -3   3   1 16277.8 400.335   3
  -3   3   0 220.561 48.4483   3
   3  -3   0 326.501 128.661   1
   3  -3   1 3547.49 349.782   1
  -3   3  -2 18859.1 788.364   1
   3  -3   2 18799.5 785.936   1
  -3   3  -2 17517.8 592.626   3
   3  -3   3 747.256 166.117   1
  -3   3  -3 552.741 140.505   1
  -3   3  -3 717.867 136.227   3
  -3   3  -4 11021.1 576.634   1
   3  -3   4 11690.0 606.505   1
  -3   3  -4 10737.0 616.161   3
   3  -3   5 4810.72 374.977   1
   3  -3   6 1596.16 210.143   1
  -3   3  -6 1904.28 338.371   3
  -3   3  -7 21995.0 1156.86   3
   3  -3   7 21000.6 726.150   1
   3  -3   8 537.355 133.710   2
   3  -3   8 691.834 123.310   1
   3  -3   9 3809.83 218.715   1
  -3   3  -9 4474.98 592.332   3
   3  -3  10-25.8678 54.1794   2
   3  -3  10-5.86727 42.9913   2
  -3   3 -10-6.30899 113.314   3
  -3   3 -11 4114.39 659.944   3
  -3   3 -12 517.234 253.485   3
  -3   3 -13 50.3611 177.080   3
   3  -2 -13 5.27891 139.693   3
   3  -2 -12 251.446 159.707   3
   3  -2 -11 841.886 293.478   3
   3  -2 -10 1497.22 244.716   1
   3  -2 -10 1558.99 344.573   3
   3  -2  -9 470.641 151.680   1
   3  -2  -9 230.610 79.9273   2
   3  -2  -8 1147.27 201.218   1
   3  -2  -8 1078.40 177.604   2
   3  -2  -8 1018.62 255.249   3
   3  -2  -7 1379.86 245.160   1
   3  -2  -7 1204.26 250.949   3
   3  -2  -7 1323.45 203.138   2
   3  -2  -6 221.868 89.5108   2
   3  -2  -6 308.249 109.684   1
   3  -2  -6 172.184 82.4801   3
  -3   2   6 72.7283 76.0229   1
   3  -2  -5 195.313 80.6394   2
   3  -2  -5 325.138 114.609   3
  -3   2   5 272.171 107.696   1
   3  -2  -5 250.387 111.949   1
   3  -2  -4 297.120 96.2627   2
  -3   2   4 380.793 128.981   1
   3  -2  -4 239.572 84.1636   1
   3  -2  -4 200.050 79.2019   3
   3  -2  -3 329.712 120.386   1
   3  -2  -3 386.331 90.1209   3
  -3   2   3 263.790 70.9699   1
   3  -2  -2-46.9158 68.0028   1
   3  -2  -2 128.181 54.0039   3
   3  -2  -1 8798.53 527.358   1
   3  -2   0 24700.6 873.073   1
   3  -2   1 11131.4 576.895   1
  -3   2  -1 11376.1 376.887   3
   3  -2   2 457.709 155.207   1
  -3   2  -2 509.741 101.894   3
   3  -2   3 6475.16 434.715   1
  -3   2  -3 7232.33 446.127   3
   3  -2   4 50270.9 1182.76   1
  -3   2  -4 52388.3 1376.38   3
   3  -2   4 49230.2 1301.43   3
   3  -2   5 15920.2 657.682   1
   3  -2   5 15889.6 723.368   2
   3  -2   6 3785.83 347.924   2
   3  -2   6 4080.97 326.048   1
  -3   2  -6 3778.56 450.873   3
   3  -2   7 7.54663 41.1582   1
  -3   2  -7 33.0743 96.2795   3
   3  -2   7 89.9674 79.8775   2
   3  -2   8 1503.36 200.781   2
   3  -2   8 1684.00 174.268   1
   3  -2   9 101.536 37.6189   1
   3  -2   9 68.4967 62.3209   2
  -3   2  -9 89.5355 95.5727   3
  -3   2 -10 96.2133 136.782   3
  -3   2 -11 53.5647 118.195   3
  -3   2 -12 1031.99 350.809   3
  -3   2 -13 137.408 107.925   3
   3  -1 -14 419.363 199.905   3
   3  -1 -13 431.185 245.145   3
   3  -1 -12 426.488 189.910   3
   3  -1 -11-89.4313 123.845   3
   3  -1 -10 1631.76 227.179   1
   3  -1 -10 1468.86 315.027   3
   3  -1  -9 5122.36 394.831   2
   3  -1  -9 4982.38 423.448   1
   3  -1  -9 4992.56 567.708   3
   3  -1  -8 2785.11 299.975   2
   3  -1  -8 2840.04 389.523   3
   3  -1  -8 2752.17 310.396   1
   3  -1  -7 643.025 141.608   1
   3  -1  -7 856.690 159.838   2
   3  -1  -7 822.953 200.819   3
   3  -1  -6-7.85848 69.2179   1
   3  -1  -6-8.09119 72.4066   2
   3  -1  -6 35.1898 62.4526   3
   3  -1  -5 75.2630 72.6164   1
   3  -1  -5 140.883 66.0014   2
   3  -1  -5 132.235 67.8765   3
   3  -1  -4 10034.9 575.837   2
   3  -1  -4 10095.6 575.373   1
   3  -1  -4 9555.44 481.527   3
   3  -1  -3 1320.03 221.530   1
   3  -1  -3 1433.33 228.591   2
   3  -1  -3 1313.82 144.717   3
   3  -1  -2 30403.9 975.333   1
   3  -1  -2 31294.0 994.308   2
   3  -1  -1 48333.5 1241.25   1
   3  -1  -1 42625.9 589.813   3
   3  -1   0 11494.6 602.828   1
  -3   1   0 11192.1 362.445   3
   3  -1   0 10043.8 333.744   3
   3  -1   1 17293.4 551.119   3
   3  -1   1 18574.6 759.096   1
  -3   1  -1 17890.9 563.638   3
   3  -1   2 3925.96 346.338   1
   3  -1   2 3853.17 350.800   2
  -3   1  -2 4080.86 329.156   3
   3  -1   2 3862.00 312.941   3
   3  -1   3 19619.5 825.946   3
   3  -1   3 18556.6 747.727   1
   3  -1   3 18892.0 779.695   2
  -3   1  -3 19226.5 797.452   3
   3  -1   4 695.844 140.980   1
   3  -1   4 552.986 127.467   2
   3  -1   4 695.288 183.256   3
  -3   1  -4 495.383 155.196   3
   3  -1   5 18574.7 733.599   1
   3  -1   5 20512.6 813.390   2
   3  -1   5 20131.8 998.381   3
  -3   1  -6 378.969 135.110   3
   3  -1   6 149.130 99.7924   3
   3  -1   6 144.964 71.2301   2
   3  -1   6 310.872 112.894   1
   3  -1   7 6117.65 416.729   2
   3  -1   7 6095.72 406.232   1
   3  -1   8 690.502 122.708   1
  -3   1  -8 632.119 203.995   3
   3  -1   8 558.412 122.245   2
   3  -1   9 1032.98 127.909   2
  -3   1  -9 1721.39 382.163   3
   3  -1   9 1560.45 162.737   1
  -3   1 -10 188.906 182.732   3
  -3   1 -11 886.465 320.406   3
  -3   1 -12 48.4205 151.636   3
   3   0 -14 154.629 175.056   3
   3   0 -13 694.562 254.017   3
   3   0 -12 42.6189 95.7689   3
   3   0 -11-149.708 181.367   3
   3   0 -10 488.710 134.183   1
   3   0 -10 396.127 91.5579   2
   3   0 -10 503.297 198.813   3
   3   0  -9 414.110 116.807   2
   3   0  -9 144.109 49.6145   1
   3   0  -9 259.275 125.210   3
   3   0  -8 18483.9 784.441   1
   3   0  -8 19262.7 1053.20   3
   3   0  -7 2043.65 286.954   2
   3   0  -7 1473.01 215.673   1
   3   0  -7 1608.00 272.919   3
   3   0  -6 3145.97 343.226   2
   3   0  -6 2725.87 301.090   1
   3   0  -6 2836.52 338.989   3
   3   0  -5 13271.5 693.768   2
   3   0  -5 12570.4 654.262   1
  -3   0   5 13010.0 677.607   2
   3   0  -4 41439.7 1220.27   2
  -3   0   4 39919.5 1206.91   2
   3   0  -3 23752.7 926.371   2
  -3   0   3 23655.8 914.082   2
  -3   0   2 3315.25 347.290   2
  -3   0   1 46462.8 1254.64   2
   3   0  -1 43076.3 917.341   3
  -3   0   0 1051.52 193.521   2
  -3   0   0 750.845 133.598   3
   3   0   0 882.148 147.115   3
  -3   0  -1 57957.0 1238.99   3
  -3   0  -1 58543.0 1401.43   2
   3   0   1 54193.6 1194.95   3
  -3   0  -2 2370.78 283.390   3
   3   0   2 2879.33 322.317   2
  -3   0  -2 2462.42 285.415   2
   3   0   2 2441.68 289.981   3
  -3   0  -3 963.760 178.892   2
  -3   0  -3 974.357 177.914   3
   3   0   3 1124.26 203.147   2
   3   0   3 1077.45 197.598   3
  -3   0  -4 338.623 104.932   2
   3   0   4 307.690 115.344   2
   3   0   4 406.798 143.200   3
   3   0   5 19040.9 828.397   2
  -3   0  -5 18397.9 1012.61   3
   3   0   5 21155.3 1117.10   3
   3   0   6 822.019 169.878   2
  -3   0  -6 957.157 246.345   3
   3   0   6 1187.14 287.061   3
   3   0   7 11399.1 602.374   2
  -3   0  -7 14448.9 984.093   3
   3   0   8 689.036 142.314   2
  -3   0  -8 930.455 283.874   3
   3   0   9 7332.54 322.117   2
   3   0   9 9010.19 504.525   1
  -3   0  -9 8637.97 884.439   3
   3   0   9 9194.63 526.001   1
  -3   0 -10 931.174 319.252   3
  -3   0 -11 2396.92 526.308   3
  -3   0 -12-45.1492 156.396   3
   3   1 -14 86.4452 141.869   3
   3   1 -13 1064.66 332.577   3
   3   1 -12 297.903 187.636   3
   3   1 -11 4535.01 332.073   1
   3   1 -11 6025.32 717.374   3
   3   1 -10-42.8628 67.3640   1
   3   1 -10-11.1497 90.7213   3
   3   1 -10-69.9965 130.949   2
   3   1  -9 31.6158 52.5750   1
   3   1  -9 139.992 66.8000   2
   3   1  -9 37.4899 99.1836   3
   3   1  -8 29562.6 1006.06   1
   3   1  -8 30918.8 1301.43   3
   3   1  -7 15424.7 828.392   2
   3   1  -7 13461.4 695.967   1
  -3  -1   7 15731.6 790.395   2
   3   1  -6 14120.0 790.066   2
   3   1  -6 12092.5 670.335   1
  -3  -1   6 14536.3 771.394   2
   3   1  -5 3385.97 386.085   2
  -3  -1   5 3490.57 374.650   2
   3   1  -4 10130.0 679.949   2
  -3  -1   4 10102.5 657.199   2
   3   1  -3 66273.9 1703.70   2
  -3  -1   3 68202.5 1673.93   2
  -3  -1   2 23855.1 980.450   2
  -3  -1   1 4037.12 402.057   2
   3   1  -1 4021.30 356.788   3
  -3  -1   0 22140.7 929.517   2
   3   1   0 21987.2 868.988   3
   3   1   1 9043.71 590.349   3
  -3  -1  -1 9572.13 598.520   2
  -3  -1  -1 9823.79 598.786   3
   3   1   2 14055.7 777.855   2
  -3  -1  -2 12883.5 689.747   2
  -3  -1  -2 13194.0 750.597   3
   3   1   2 13030.7 752.872   3
   3   1   3 111.545 58.8992   2
  -3  -1  -3 148.987 56.7852   2
  -3  -1  -4 783.594 174.661   2
   3   1   4 942.752 217.760   2
  -3  -1  -4 605.809 183.831   3
   3   1   4 625.548 173.893   3
   3   1   5 1813.61 273.209   2
  -3  -1  -5 1889.69 258.778   2
   3   1   5 2080.13 369.359   3
  -3  -1  -5 1324.26 260.135   3
  -3  -1  -6 3948.40 509.677   3
   3   1   6 3642.53 388.448   2
  -3  -1  -6 4504.91 383.209   2
   3   1   7 5705.37 472.694   2
  -3  -1  -7 6131.16 697.922   3
  -3  -1  -8 257.173 144.365   3
   3   1   8 231.698 96.0251   2
  -3  -1  -9 2792.99 518.643   3
  -3  -1 -10 3673.53 661.848   3
  -3  -1 -11 1861.10 476.219   3
   3   2 -14 823.291 360.943   3
   3   2 -13 443.943 288.880   3
   3   2 -12 3413.57 599.580   3
   3   2 -11 9259.93 526.790   1
   3   2 -11 9353.26 897.812   3
   3   2 -10 360.437 178.128   3
  -3  -2  10 659.538 173.203   2
   3   2 -10 454.449 119.132   1
   3   2 -10 316.327 114.694   2
   3   2  -9 12431.4 676.594   1
  -3  -2   9 10838.1 709.545   2
   3   2  -9 12690.6 909.032   3
   3   2  -8-191.256 151.829   1
  -3  -2   8 37.1221 61.5828   2
   3   2  -7 19876.3 1030.90   2
  -3  -2   7 19546.6 960.285   2
   3   2  -6 440.687 173.354   2
  -3  -2   6 429.112 150.737   2
  -3  -2   5 2487.84 334.040   2
   3   2  -5 2310.05 331.911   2
   3   2  -4 15.4620 148.229   2
  -3  -2   4 56.8308 115.740   2
  -3  -2   3 107.728 88.1080   2
  -3  -2   2 42618.9 1385.28   2
  -3  -2   1 11854.0 725.353   2
   3   2  -1 11632.1 706.071   3
  -3  -2   0 21930.6 984.825   2
   3   2   0 23441.1 1041.21   3
  -3  -2  -1 4.10435 105.934   2
   3   2   1 221.013 113.272   3
   3   2   2 908.834 250.866   3
  -3  -2  -2 495.956 138.794   2
  -3  -2  -3 54053.9 1742.01   3
  -3  -2  -3 55458.2 1538.84   2
   3   2   3 59760.0 1893.26   3
  -3  -2  -4 2254.21 314.176   2
  -3  -2  -4 2115.47 367.350   3
   3   2   4 2087.68 378.022   3
  -3  -2  -5 6296.48 504.597   2
  -3  -2  -5 6349.32 663.545   3
  -3  -2  -6 2849.71 465.722   3
  -3  -2  -6 2599.68 313.384   2
  -3  -2  -7 5502.87 431.739   2
  -3  -2  -7 6411.36 729.759   3
  -3  -2  -8 2968.82 552.163   3
  -3  -2  -9 270.718 214.916   3
  -3  -2 -10-88.3848 210.639   3
   3   3 -14 519.800 255.532   3
   3   3 -13-207.476 202.781   3
   3   3 -12-72.6017 132.193   3
   3   3 -11 557.656 138.677   1
   3   3 -11 467.790 170.370   3
  -3  -3  11 659.759 185.304   2
   3   3 -10 2718.25 424.037   2
   3   3 -10 2835.15 340.205   1
  -3  -3  10 2335.46 349.045   2
   3   3  -9 1984.29 363.046   2
  -3  -3   9 1673.68 298.959   2
   3   3  -8 2782.66 421.667   2
  -3  -3   8 3125.02 429.857   2
   3   3  -7-139.320 115.889   2
  -3  -3   7 90.5712 92.1115   2
   3   3  -6 0.49309 87.9794   2
  -3  -3   6 124.613 98.7036   2
   3   3  -5 6381.79 627.332   2
  -3  -3   5 6032.82 572.344   2
   3   3  -4 4263.86 513.203   2
  -3  -3   4 4595.39 500.405   2
  -3  -3   3 603.982 180.481   2
  -3  -3   2 5940.33 559.097   2
   3   3  -2 7180.62 638.225   3
   3   3  -1 1520.09 283.286   3
  -3  -3   1 1760.96 306.966   2
   3   3   0 996.276 260.103   3
  -3  -3   0 957.846 213.719   2
  -3  -3  -1 2472.68 367.235   2
  -3  -3  -1 2669.73 381.246   3
   3   3   1 3013.39 433.343   3
   3   3   1 2091.93 351.209   2
   3   3   2 4094.24 507.340   2
  -3  -3  -2 4629.09 486.648   2
  -3  -3  -2 4454.66 507.816   3
   3   3   2 4945.94 567.709   3
   3   3   3 8188.25 714.638   2
  -3  -3  -3 9461.22 682.925   2
  -3  -3  -3 9162.99 773.464   3
   3   3   3 10223.1 868.562   3
   3   3   4 3238.36 445.911   2
  -3  -3  -4 3692.46 426.105   2
  -3  -3  -4 3518.51 515.169   3
  -3  -3  -5 500.837 247.009   3
  -3  -3  -5-23.3763 153.787   2
  -3  -3  -6 2414.86 327.904   2
  -3  -3  -6 2865.35 482.457   3
  -3  -3  -7 220.236 164.944   3
  -3  -3  -7 412.140 136.737   2
  -3  -3  -8 532.840 274.336   3
  -3  -3  -9 145.149 177.703   3
  -3  -3 -10 984.519 366.427   3
   3   4 -14 206.154 186.515   3
   3   4 -13-36.8555 113.465   3
  -3  -4  12 35.9096 82.4108   2
   3   4 -12-154.515 155.889   3
   3   4 -11-3.54716 70.5860   1
  -3  -4  11-39.1810 84.7267   2
   3   4 -10 1231.36 305.946   2
  -3  -4  10 942.015 256.455   2
   3   4  -9 1216.85 306.371   2
  -3  -4   9 778.229 206.821   2
  -3  -4   8 3211.56 447.281   2
   3   4  -8 2591.34 452.399   2
   3   4  -7 3968.02 546.566   2
  -3  -4   7 5240.89 583.297   2
   3   4  -6 2858.39 467.785   2
  -3  -4   6 2992.64 430.817   2
  -3  -4   5 12139.4 875.074   2
   3   4  -5 12852.6 973.935   2
   3   4  -4 10300.6 877.879   2
  -3  -4   4 9543.36 773.584   2
   3   4  -3 3331.43 513.630   2
  -3  -4   3 3009.29 445.202   2
  -3  -4   2 1284.21 292.877   2
   3   4  -2 1642.46 347.162   3
   3   4  -1 130.707 149.481   2
   3   4  -1 25.6514 93.6501   3
  -3  -4   1 141.659 116.096   2
   3   4   0 1001.85 271.669   3
   3   4   0 1422.21 325.797   2
  -3  -4   0 1061.19 244.445   2
   3   4   1 1534.09 344.745   2
   3   4   1 2169.10 420.131   3
  -3  -4  -1 1816.05 333.468   2
   3   4   2 2863.16 473.693   2
  -3  -4  -2 3204.40 437.189   2
  -3  -4  -2 2660.90 438.006   3
   3   4   3 6643.81 721.655   2
  -3  -4  -3 7078.45 648.373   2
  -3  -4  -3 7148.08 748.115   3
  -3  -4  -4 1008.07 235.723   2
   3   4   4 1084.46 310.354   2
  -3  -4  -4 1051.36 308.590   3
  -3  -4  -5 159.846 127.867   2
  -3  -4  -5 499.199 230.873   3
   3   4   6 182.428 197.761   2
  -3  -4  -6-61.8243 107.142   3
  -3  -4  -7-119.130 200.764   3
  -3  -4  -7 3.35551 61.4266   2
  -3  -4  -8 165.786 172.189   3
  -3  -4  -9 762.468 283.219   3
   3   5 -13-75.7685 164.894   3
  -3  -5  12 106.659 126.007   2
  -3  -5  11-19.0336 102.889   2
  -3  -5  10 1705.64 350.026   2
  -3  -5   9 687.363 233.601   2
  -3  -5   8 398.607 160.066   2
  -3  -5   7 4110.46 556.854   2
  -3  -5   6 97.4553 107.452   2
  -3  -5   5 16307.3 1080.76   2
  -3  -5   4 28551.8 1434.19   2
  -3  -5   3 4016.09 550.558   2
  -3  -5   2 668.382 242.418   2
  -3  -5   1 85.0614 90.0030   2
  -3  -5   0 3364.59 466.644   2
  -3  -5  -1 10506.2 854.656   2
  -3  -5  -2 1774.81 362.243   2
  -3  -5  -3 3897.47 513.058   2
  -3  -5  -3 3842.67 579.982   3
  -3  -5  -4-72.3180 106.189   3
  -3  -5  -4 51.6977 100.416   2
  -3  -5  -5 322.654 214.886   3
  -3  -5  -5 172.294 126.177   2
  -3  -5  -6-263.616 203.771   3
  -3  -5  -6-118.583 110.336   2
  -3  -5  -7 49.0817 127.159   3
  -3  -5  -8-197.715 142.340   3
  -3  -6  12-117.453 115.470   2
  -3  -6  11 61.3116 102.745   2
  -3  -6  10 204.588 118.887   2
  -3  -6   9 853.418 253.459   2
  -3  -6   8 251.615 125.978   2
  -3  -6   7 11670.1 988.798   2
  -3  -6   6 845.532 297.518   2
  -3  -6   5 1801.73 413.022   2
  -3  -6   4 4772.53 618.962   2
  -3  -6   3 6070.65 694.133   2
  -3  -6   2-52.7151 118.146   2
  -3  -6   1 1629.72 332.355   2
  -3  -6   0 158.923 123.370   2
  -3  -6  -1 1227.16 324.001   2
  -3  -6  -2 2674.51 458.802   2
  -3  -6  -3-20.5018 157.528   2
  -3  -6  -4-44.1726 143.165   3
  -3  -6  -4 95.6053 127.434   2
  -3  -6  -5 590.968 290.847   3
  -3  -6  -5 554.609 200.536   2
  -3  -6  -6 151.548 197.930   3
  -3  -6  -6-171.959 122.180   2
  -3  -7  12 38.4597 104.737   2
  -3  -7  11-97.7765 171.617   2
  -3  -7  10 135.953 79.7140   2
  -3  -7   9 1294.44 359.485   2
  -3  -7   8 531.104 244.085   2
  -3  -7   7 6111.61 761.474   2
  -3  -7   6 2746.18 532.494   2
  -3  -7   5 10154.5 991.739   2
  -3  -7   4 2123.88 444.211   2
  -3  -7   3 3867.72 604.139   2
  -3  -7   2-65.6591 148.132   2
  -3  -7   1 485.771 219.998   2
  -3  -7   0 578.233 234.020   2
  -3  -7  -1-84.0558 85.1493   2
  -3  -7  -2 760.660 283.553   2
  -3  -7  -3 231.325 165.919   2
  -3  -7  -4 2055.41 432.449   2
  -3  -7  -5 251.977 141.327   2
  -3  -8  12-61.9950 129.284   2
  -3  -8  11 11.5889 143.648   2
  -3  -8  10 177.805 167.213   2
  -3  -8   9 688.221 293.271   2
  -3  -8   8 1179.82 368.376   2
  -3  -8   7 633.116 256.667   2
  -3  -8   6 1148.82 357.452   2
  -3  -8   5 1801.84 455.695   2
  -3  -8   4 66.9963 172.231   2
  -3  -8   3 498.244 214.342   2
  -3  -8   2 939.298 321.679   2
  -3  -8   1 864.626 334.008   2
  -3  -8   0 1702.21 430.871   2
  -3  -8  -1-7.96091 168.908   2
  -3  -8  -2 1727.26 421.137   2
  -3  -8  -3-20.8015 103.096   2
  -3  -8  -4 1944.84 435.102   2
  -3  -9  12 318.781 214.058   2
  -3  -9  11 1000.12 344.357   2
  -3  -9  10 852.263 313.547   2
  -3  -9   9-355.748 201.486   2
  -3  -9   8 752.135 285.023   2
  -3  -9   7 377.195 237.349   2
  -3  -9   6 98.6440 197.595   2
  -3  -9   5 2310.28 529.477   2
  -3  -9   4 238.568 155.289   2
  -3  -9   3 960.689 360.298   2
  -3  -9   2 25.2465 172.109   2
  -3  -9   1 918.454 357.567   2
  -3  -9   0 315.501 224.820   2
  -3  -9  -1 126.266 170.983   2
  -3  -9  -2 357.883 219.414   2
  -3  -9  -3 127.946 131.524   2
   4 -12   2 746.019 329.702   2
   4 -12   3 2332.71 578.297   2
   4 -12   4 695.008 348.300   2
   4 -12   5 911.414 410.903   2
   4 -12   6 31.5825 154.355   2
   4 -12   7 833.340 345.879   2
   4 -12   8 28.7453 185.853   2
   4 -11  -4 219.128 180.301   2
   4 -11  -3 378.219 214.173   2
   4 -11  -2 121.917 193.381   2
   4 -11  -1-68.2114 136.629   2
   4 -11   0 1394.91 421.727   2
   4 -11   1 617.310 318.391   2
   4 -11   2 384.573 265.225   2
   4 -11   3 1367.05 426.834   2
   4 -11   4 4082.28 735.385   2
   4 -11   5 237.547 189.100   2
   4 -11   6 1345.80 433.545   2
   4 -11   7 268.125 190.322   2
   4 -11   8 64.2262 154.207   2
   4 -11   9-34.0834 166.212   2
   4 -11  10 44.5709 178.898   2
   4 -11  11 67.3402 136.509   2
   4 -11  12-119.720 228.961   2
   4 -10  -5-72.5525 122.439   2
   4 -10  -4 498.996 226.200   2
   4 -10  -3 479.649 234.967   2
   4 -10  -2 323.613 213.580   2
   4 -10  -1 1342.25 389.327   2
   4 -10   0 385.989 239.551   2
   4 -10   1 557.354 279.398   2
   4 -10   2 3206.03 586.527   2
   4 -10   3 88.2169 130.991   2
   4 -10   4 379.713 185.960   2
   4 -10   5 668.405 317.509   2
   4 -10   6 971.488 314.302   2
   4 -10   7 857.957 321.352   2
   4 -10   8 1453.62 409.611   2
   4 -10   9 1303.85 401.675   2
   4 -10  10 917.604 349.121   2
  -4  10 -11 447.970 264.693   3
   4 -10  11 172.473 144.136   2
  -4  10 -12 25.8433 139.747   3
   4 -10  12-323.740 236.165   2
   4  -9  -6 595.544 285.421   2
   4  -9  -5 15.4086 96.2244   2
   4  -9  -4 1123.11 351.842   2
   4  -9  -3 947.424 278.665   2
   4  -9  -2 422.451 259.134   2
   4  -9  -2 977.794 343.062   1
   4  -9  -1 48.4749 94.7829   1
   4  -9   0 103.973 150.249   1
  -4   9   0 266.406 161.126   3
  -4   9  -1 7871.50 762.669   3
   4  -9   1 7535.30 839.346   1
  -4   9  -2 6833.61 700.909   3
   4  -9   2 6224.93 767.203   1
   4  -9   3 6161.56 722.377   1
   4  -9   4 119.698 149.536   1
   4  -9   5 1854.64 405.505   1
   4  -9   6 215.225 147.092   1
   4  -9   7 285.034 112.386   2
   4  -9   8 972.993 336.817   2
   4  -9   9 3997.17 631.885   2
  -4   9 -10 142.739 161.936   3
   4  -9  10 304.794 186.952   2
  -4   9 -11 8.83314 125.725   3
   4  -9  11 213.721 186.519   2
  -4   9 -12 648.516 288.901   3
   4  -9  12 57.6152 131.978   2
   4  -8  -6 423.575 213.119   2
   4  -8  -5 221.290 157.704   2
   4  -8  -5 489.077 244.795   1
   4  -8  -4 761.210 274.486   1
   4  -8  -3 1404.55 344.356   1
  -4   8   3 2163.62 403.022   3
  -4   8   2 1041.07 259.913   3
   4  -8  -2 1030.43 314.626   1
  -4   8   1 4340.82 505.490   3
   4  -8  -1 4121.10 593.023   1
   4  -8   0-72.3600 193.735   1
  -4   8   0-70.8313 99.1026   3
  -4   8  -1 13481.9 894.876   3
   4  -8   1 17137.6 1155.70   1
  -4   8  -2 9905.09 779.276   3
   4  -8   2 12576.8 986.389   1
   4  -8   3 5875.90 653.719   1
   4  -8   4-170.460 180.257   1
   4  -8   5 3460.14 490.166   1
   4  -8   6 1446.36 315.133   1
   4  -8   7 4246.80 540.803   1
   4  -8   8 23.5870 80.7543   1
   4  -8   9 874.374 304.676   2
  -4   8  -9 1017.11 314.122   3
  -4   8 -10-6.84588 147.209   3
   4  -8  10 102.914 90.3511   2
   4  -8  11 183.277 177.980   2
  -4   8 -11-106.335 151.496   3
  -4   8 -12-154.414 158.163   3
   4  -7  -8-369.275 184.440   3
   4  -7  -7 49.7662 119.886   2
   4  -7  -7-2.03735 73.9597   3
   4  -7  -6 602.478 264.098   1
   4  -7  -6 784.665 233.444   3
   4  -7  -5 105.433 100.006   1
  -4   7   4 3717.63 485.971   3
   4  -7  -4 3156.45 518.905   1
   4  -7  -3 585.212 221.813   1
  -4   7   3 435.595 162.686   3
  -4   7   2 196.560 117.347   3
   4  -7  -2 250.300 193.540   1
   4  -7  -1 12882.8 945.684   1
  -4   7   1 10076.1 686.115   3
   4  -7   0 445.876 190.003   1
  -4   7   0 208.095 119.175   3
   4  -7   1-67.2249 123.606   1
  -4   7  -1 74.9082 57.4451   3
   4  -7   2 468.438 182.060   1
   4  -7   3 7782.01 705.899   1
   4  -7   4 809.546 227.095   1
   4  -7   5 208.284 148.089   1
  -4   7  -5-56.3904 146.148   1
  -4   7  -6 218.117 139.771   1
   4  -7   6 281.377 164.877   1
  -4   7  -7 3856.55 474.532   1
   4  -7   7 2729.88 403.144   1
  -4   7  -8 4209.48 477.831   1
  -4   7  -8 3657.23 542.633   3
   4  -7   8 3057.87 422.171   1
  -4   7  -9 3790.71 442.720   1
  -4   7  -9 4071.32 593.793   3
   4  -7   9 2952.28 406.303   1
   4  -7  10 111.718 110.619   2
  -4   7 -10-77.3751 99.4556   3
   4  -7  11 462.425 208.861   2
  -4   7 -11 1095.30 336.657   3
  -4   7 -12 37.0337 163.437   3
  -4   7 -13 337.638 154.336   3
   4  -6  -9 1045.88 314.932   3
   4  -6  -8-86.7604 96.0322   2
   4  -6  -8-83.8405 120.344   1
   4  -6  -8 88.3527 103.498   3
   4  -6  -7 232.191 155.323   1
   4  -6  -7-81.7668 91.6879   3
   4  -6  -6 261.904 162.244   1
   4  -6  -6 159.803 134.179   3
  -4   6   6 420.715 165.743   3
   4  -6  -5 7.24198 114.832   1
   4  -6  -5 50.6890 115.937   3
  -4   6   5-82.4591 125.540   3
   4  -6  -4 732.382 228.636   1
  -4   6   4 431.157 148.239   3
   4  -6  -3 1536.80 311.001   1
  -4   6   3 1019.98 215.586   3
  -4   6   2 3387.64 360.121   3
   4  -6  -2 4165.09 516.470   1
   4  -6  -1 1807.41 341.598   1
  -4   6   1 1617.91 238.280   3
  -4   6   0 5781.83 634.475   1
  -4   6   0 4174.17 378.543   3
   4  -6   0 4567.64 535.527   1
  -4   6  -1 34964.9 1487.37   1
   4  -6   1 31708.3 1373.49   1
  -4   6  -2 7336.88 674.094   1
   4  -6   2 7891.55 676.987   1
  -4   6  -3 1282.44 261.798   1
   4  -6   3 1438.60 298.295   1
  -4   6  -4 61.0862 105.555   1
   4  -6   4 104.962 103.329   1
  -4   6  -5 172.898 80.4063   1
   4  -6   5-65.1175 128.802   1
  -4   6  -6 3539.63 436.619   1
   4  -6   6 3290.61 423.892   1
  -4   6  -7 373.951 146.268   3
  -4   6  -7 251.510 109.118   1
   4  -6   7 176.254 105.870   1
  -4   6  -8 3345.84 395.034   1
  -4   6  -8 3535.70 503.211   3
   4  -6   8 2528.12 358.411   1
  -4   6  -9 837.436 180.470   1
   4  -6   9 697.168 186.410   1
  -4   6  -9 874.246 293.519   3
  -4   6 -10 614.175 239.473   3
   4  -6  11 467.731 220.369   2
  -4   6 -11 127.896 196.353   3
  -4   6 -12 305.100 192.331   3
  -4   6 -13 195.244 167.513   3
   4  -5 -11 212.441 213.666   3
   4  -5 -10 578.084 234.786   3
   4  -5  -9 76.8217 130.199   1
   4  -5  -9 433.087 187.968   3
   4  -5  -8 4145.44 540.715   3
   4  -5  -8 3779.28 512.379   1
  -4   5   7-76.1334 118.002   3
   4  -5  -7-105.811 147.432   1
   4  -5  -7 247.151 148.924   3
   4  -5  -6 199.455 154.266   1
   4  -5  -6 402.451 186.944   3
  -4   5   6 139.626 108.569   3
   4  -5  -5 1723.91 328.365   1
   4  -5  -5 1943.99 307.369   3
  -4   5   5 1294.35 255.343   3
  -4   5   4 2026.79 374.538   1
   4  -5  -4 1665.42 251.873   3
   4  -5  -4 1540.03 310.525   1
  -4   5   4 1334.05 232.561   3
  -4   5   3 4699.27 553.368   1
   4  -5  -3 4448.35 517.248   1
  -4   5   3 3411.63 334.626   3
  -4   5   2 7268.28 666.871   1
   4  -5  -2 7001.07 638.087   1
   4  -5  -1 16124.6 944.163   1
  -4   5   1 12398.1 521.101   3
  -4   5   0 21770.6 693.160   3
   4  -5   0 26869.4 1192.99   1
   4  -5   1 4664.03 504.622   1
  -4   5  -2 24755.6 1131.95   1
   4  -5   2 23543.2 1094.31   1
  -4   5  -3 3995.41 443.824   1
   4  -5   3 3636.77 431.060   1
  -4   5  -4 54548.7 1609.75   1
   4  -5   4 51624.3 1572.65   1
  -4   5  -5-70.1412 112.874   1
   4  -5   5 257.449 151.681   1
  -4   5  -6 11559.0 727.256   1
   4  -5   6 11124.4 732.097   1
  -4   5  -6 11048.2 782.116   3
  -4   5  -7 12199.4 717.687   1
   4  -5   7 10687.5 687.587   1
  -4   5  -7 12008.3 871.799   3
   4  -5   8 1976.12 291.812   1
  -4   5  -8 2615.64 445.665   3
   4  -5   9 385.888 132.315   1
  -4   5  -9 759.783 284.690   3
  -4   5 -10 3280.42 548.667   3
   4  -5  10 3136.25 323.861   1
   4  -5  11 3005.21 399.338   2
  -4   5 -11 3161.62 565.768   3
  -4   5 -12-113.105 224.072   3
  -4   5 -13 339.473 254.445   3
   4  -4 -12 1760.51 410.332   3
   4  -4 -11 101.171 181.084   3
   4  -4 -10 358.581 216.195   3
   4  -4  -9-30.5920 95.1574   1
   4  -4  -9-198.811 146.879   3
   4  -4  -8 9989.95 666.168   2
   4  -4  -8 9830.31 760.491   3
   4  -4  -8 9591.28 747.053   1
  -4   4   7 2675.28 430.189   1
   4  -4  -7 2386.26 323.036   2
   4  -4  -7 2357.29 342.293   3
   4  -4  -7 2893.58 415.273   1
   4  -4  -6 2126.14 294.561   3
   4  -4  -6 1391.99 283.790   1
  -4   4   6 1417.75 309.356   1
  -4   4   5 304.753 118.948   3
  -4   4   5 489.181 176.589   1
   4  -4  -5 426.317 159.587   1
   4  -4  -5 483.860 121.123   3
  -4   4   4 650.133 194.991   1
   4  -4  -4 661.487 204.348   1
   4  -4  -4 630.284 136.974   3
  -4   4   4 418.138 113.223   3
   4  -4  -3 787.157 209.219   1
  -4   4   3 432.269 149.570   1
  -4   4   3 550.749 115.716   3
   4  -4  -2 4002.75 455.665   1
  -4   4   2 2649.26 203.392   3
   4  -4  -1 546.375 183.218   1
  -4   4   1 319.959 54.0928   3
  -4   4   0 528.718 76.1507   3
   4  -4   0 595.999 181.677   1
   4  -4   1 9754.34 671.036   1
  -4   4  -2 14317.0 798.947   1
   4  -4   2 13270.7 772.560   1
  -4   4  -2 13657.9 540.302   3
  -4   4  -3 9237.82 643.890   1
   4  -4   3 8597.77 619.117   1
  -4   4  -3 9030.62 518.024   3
  -4   4  -4 9375.50 641.310   1
   4  -4   4 8924.27 611.924   1
  -4   4  -4 8689.64 575.238   3
  -4   4  -5 7809.79 569.552   1
   4  -4   5 8152.02 590.297   1
   4  -4   6 20708.5 928.788   1
  -4   4  -6 21017.7 1120.44   3
  -4   4  -7 1068.03 268.752   3
   4  -4   7 798.657 191.660   1
   4  -4   8 2411.10 300.650   1
  -4   4  -8 4087.23 566.665   3
   4  -4   9 493.587 152.049   1
  -4   4  -9 413.499 197.139   3
  -4   4 -10 4461.82 659.097   3
   4  -4  10 3426.79 276.868   1
  -4   4 -11 235.122 158.118   3
  -4   4 -12 181.295 157.079   3
  -4   4 -13-23.1323 117.567   3
   4  -3 -12 487.326 213.933   3
   4  -3 -11-511.858 221.910   3
   4  -3 -10 2373.48 360.921   1
   4  -3 -10 2332.27 406.868   3
   4  -3  -9 225.941 145.685   3
   4  -3  -9 70.0751 74.9272   1
   4  -3  -8 2669.22 335.328   2
   4  -3  -8 2817.43 391.726   1
   4  -3  -8 2521.77 378.589   3
   4  -3  -7 286.567 108.438   2
   4  -3  -7 210.675 90.4345   1
  -4   3   7 204.314 132.059   1
   4  -3  -7 142.104 104.429   3
  -4   3   6 4989.43 532.915   1
   4  -3  -6 6841.27 542.004   2
   4  -3  -6 6940.36 589.574   1
   4  -3  -6 6679.80 512.238   3
   4  -3  -5 362.958 123.452   2
   4  -3  -5 662.254 141.638   3
  -4   3   5 362.189 139.189   1
   4  -3  -5 366.666 143.509   1
   4  -3  -4 7433.83 604.163   1
   4  -3  -4 7467.65 410.084   3
   4  -3  -3-1.04494 60.7083   1
   4  -3  -3-72.2845 57.3801   3
  -4   3   3 110.836 102.432   1
   4  -3  -2 4150.45 445.926   1
   4  -3  -1 10760.6 678.125   1
   4  -3   0 43037.6 1343.86   1
   4  -3   1 64077.9 1620.77   1
  -4   3  -1 58541.7 841.991   3
   4  -3   2 207.022 64.7633   1
  -4   3  -2 320.010 138.309   1
  -4   3  -2 139.206 52.4231   3
   4  -3   3 14983.6 768.338   1
  -4   3  -3 16235.3 690.532   3
   4  -3   4 3827.52 391.491   1
  -4   3  -4 3675.30 373.075   3
   4  -3   5 7263.58 526.118   1
   4  -3   6 2246.38 298.521   1
  -4   3  -6 2008.55 342.478   3
   4  -3   7 45.6477 60.8512   2
   4  -3   7-64.4027 77.7396   1
   4  -3   8 4639.03 383.542   1
  -4   3  -8 7061.65 733.078   3
  -4   3  -9 1352.46 345.062   3
   4  -3   9 1139.51 185.727   1
  -4   3 -10 347.388 196.884   3
  -4   3 -11 1064.39 333.962   3
  -4   3 -12 582.936 253.873   3
   4  -2 -13 264.259 180.648   3
   4  -2 -12 413.637 197.905   3
   4  -2 -11-117.977 102.443   3
   4  -2 -10-1.52382 65.9776   1
   4  -2 -10 199.886 93.9370   3
   4  -2  -9 687.594 190.713   1
   4  -2  -9 364.503 112.055   2
   4  -2  -9 496.429 165.216   3
   4  -2  -8 1126.54 234.329   1
   4  -2  -8 975.582 234.324   3
   4  -2  -8 852.112 187.081   2
   4  -2  -7 1256.21 240.113   1
   4  -2  -7 1223.10 246.532   3
   4  -2  -7 1077.80 222.407   2
   4  -2  -6 26706.8 1089.49   2
   4  -2  -6 25201.2 1067.56   1
   4  -2  -6 25212.6 952.048   3
   4  -2  -5 1303.54 246.986   2
   4  -2  -5 1267.44 256.982   1
   4  -2  -5 1235.00 191.859   3
   4  -2  -4 5914.44 515.616   2
   4  -2  -4 6007.29 520.908   1
   4  -2  -4 5387.11 329.142   3
   4  -2  -3 11958.6 712.724   2
   4  -2  -3 11269.5 700.511   1
   4  -2  -3 9923.22 346.761   3
   4  -2  -2 9000.21 616.661   1
   4  -2  -2 8957.62 613.340   2
   4  -2  -1 1601.61 276.981   1
   4  -2   0 21975.5 936.615   1
   4  -2   1 46094.3 1370.51   1
  -4   2  -1 47150.8 875.023   3
   4  -2   1 43344.2 811.770   3
   4  -2   2 17206.6 833.695   1
  -4   2  -2 17603.1 663.285   3
   4  -2   2 15800.3 601.742   3
   4  -2   3 22701.2 950.833   1
  -4   2  -3 23996.5 892.214   3
   4  -2   3 21784.0 820.552   3
   4  -2   4 226.299 96.4023   3
   4  -2   4 139.165 86.3241   1
   4  -2   4 81.4325 78.9334   2
  -4   2  -4-34.2033 48.4139   3
   4  -2   5 18641.6 829.406   1
   4  -2   5 19293.6 961.286   3
   4  -2   6 267.059 144.310   3
   4  -2   6 296.863 112.964   1
  -4   2  -6 409.793 185.741   3
   4  -2   6-12.5609 61.4815   2
   4  -2   7 2162.86 275.144   1
  -4   2  -7 3099.74 453.457   3
   4  -2   8 744.406 154.523   1
   4  -2   8 605.529 163.249   2
  -4   2  -8 808.589 277.478   3
  -4   2  -9 671.349 244.506   3
   4  -2   9 916.019 155.406   1
   4  -2   9 576.938 157.168   2
  -4   2 -10 44.3436 103.100   3
  -4   2 -11 124.363 121.214   3
  -4   2 -12 800.856 315.710   3
   4  -1 -14 262.984 237.820   3
   4  -1 -13 1385.25 351.258   3
   4  -1 -12 310.882 177.333   3
   4  -1 -11 37.7418 79.1103   3
   4  -1 -10 285.807 119.026   1
   4  -1 -10 189.680 118.241   3
   4  -1  -9 7643.14 593.057   2
   4  -1  -9 7433.10 587.831   1
   4  -1  -9 7266.05 666.516   3
   4  -1  -8 3517.83 398.204   2
   4  -1  -8 3668.27 413.074   1
   4  -1  -8 4328.67 475.980   3
   4  -1  -7 1123.34 232.088   1
   4  -1  -7 1017.65 214.896   2
   4  -1  -7 1196.04 236.394   3
   4  -1  -6 9989.97 676.017   2
   4  -1  -6 8723.01 629.857   1
   4  -1  -6 9638.75 607.748   3
   4  -1  -5 169.534 104.634   1
   4  -1  -5-7.81485 87.1666   2
   4  -1  -5 149.639 90.3255   3
   4  -1  -4 18354.5 894.008   1
   4  -1  -4 16838.9 600.270   3
   4  -1  -3 7995.20 596.007   1
   4  -1  -3 9233.69 652.757   2
   4  -1  -2 80668.4 1855.20   1
   4  -1  -2 76771.7 1049.07   3
   4  -1  -1 42669.0 1331.78   1
   4  -1  -1 38098.0 718.882   3
   4  -1   0 2128.93 294.060   1
   4  -1   0 2671.59 219.328   3
   4  -1   1 9657.03 623.142   1
   4  -1   1 9871.83 489.018   3
  -4   1  -1 10291.1 510.515   3
   4  -1   2 28244.4 1088.62   1
  -4   1  -2 27643.0 930.280   3
   4  -1   2 26414.6 900.538   3
  -4   1  -3 7542.18 541.698   3
   4  -1   3 7206.60 545.558   1
   4  -1   3 7960.20 560.432   3
   4  -1   4 7575.88 570.755   1
   4  -1   4 8235.73 646.436   3
   4  -1   5 957.503 185.652   1
  -4   1  -5 1239.82 282.216   3
   4  -1   5 1396.78 292.258   3
   4  -1   6 5420.36 466.568   1
  -4   1  -6 5298.23 584.635   3
   4  -1   6 6010.67 620.712   3
   4  -1   7 62.5317 37.3810   2
  -4   1  -7 109.594 121.374   3
   4  -1   7 169.596 108.017   1
   4  -1   8 54.3765 67.8994   2
   4  -1   8 128.007 86.5264   1
   4  -1   9 60.6936 84.0184   1
  -4   1  -9 147.280 179.863   3
  -4   1 -10 564.177 280.383   3
  -4   1 -11 193.429 198.399   3
  -4   1 -12 1861.93 482.290   3
   4   0 -14-351.420 208.650   3
   4   0 -13 380.155 196.685   3
   4   0 -12 785.061 257.957   3
   4   0 -11-28.9097 122.651   3
   4   0 -10 4340.12 432.953   1
   4   0 -10 4990.64 589.939   3
   4   0  -9 9674.64 698.749   2
   4   0  -9 8134.16 606.985   1
   4   0  -9 8884.36 758.816   3
   4   0  -8 4057.88 463.718   2
   4   0  -8 3431.37 394.760   1
   4   0  -8 3369.07 432.120   3
   4   0  -7 842.649 201.513   3
   4   0  -7 799.210 191.315   1
   4   0  -7 936.214 230.097   2
   4   0  -6 8962.50 667.690   2
   4   0  -6 7668.79 584.530   1
   4   0  -6 7001.15 514.940   3
  -4   0   5 66.6610 82.4374   2
   4   0  -5 51.4674 77.0009   2
   4   0  -5 93.6595 69.1115   1
   4   0  -4 4675.18 456.329   1
   4   0  -4 5846.34 540.339   2
  -4   0   4 5567.56 522.331   2
  -4   0   3 1253.55 249.590   2
   4   0  -3 1330.32 246.238   2
  -4   0   2 8012.98 616.486   2
   4   0  -2 6859.32 416.181   3
  -4   0   1 23719.7 1070.50   2
   4   0  -1 22974.1 781.078   3
  -4   0   0 23356.1 1034.59   2
   4   0   0 22432.2 804.343   3
  -4   0  -1 8083.49 613.560   2
  -4   0  -1 8533.92 541.952   3
   4   0   1 8337.92 530.148   3
  -4   0  -2 5793.36 520.483   2
  -4   0  -2 6274.00 497.924   3
   4   0   2 6082.65 506.962   3
  -4   0  -3 6516.17 524.532   2
   4   0   3 6934.52 584.050   3
  -4   0  -4 3308.15 416.566   3
   4   0   4 4020.26 466.835   3
  -4   0  -5 3001.18 418.603   3
   4   0   5 2450.63 416.091   3
  -4   0  -6 7082.31 683.620   3
   4   0   6-3.99814 69.4570   2
   4   0   7-16.4443 41.5267   2
  -4   0  -7-597.594 281.713   3
   4   0   8 625.233 160.194   2
  -4   0  -8 682.579 252.320   3
  -4   0  -9 111.824 162.763   3
   4   0   9 147.932 98.1774   1
  -4   0 -10 342.048 212.005   3
  -4   0 -11 839.671 321.687   3
   4   1 -14-127.583 193.735   3
   4   1 -13-33.4102 112.452   3
   4   1 -12-120.114 175.967   3
   4   1 -11 130.860 65.7625   1
   4   1 -11 218.276 144.672   3
   4   1 -10-10.2461 66.2248   1
   4   1 -10-0.44445 107.297   2
   4   1  -9 8249.99 695.258   2
   4   1  -9 7395.16 581.333   1
   4   1  -9 7659.69 684.374   3
   4   1  -8 35.7667 100.178   3
  -4  -1   8-28.7485 79.8607   2
   4   1  -8 80.1109 90.8960   2
   4   1  -8-75.7791 78.5544   1
   4   1  -7 4525.65 528.467   2
   4   1  -7 3848.76 440.537   1
  -4  -1   7 4356.10 489.509   2
   4   1  -6 3463.29 410.426   1
   4   1  -6 4196.43 502.152   2
  -4  -1   6 3977.97 462.969   2
   4   1  -5 4005.12 474.893   2
  -4  -1   5 3777.26 474.592   2
  -4  -1   4 692.492 202.047   2
   4   1  -4 939.127 237.398   2
   4   1  -3 19460.8 1050.68   2
  -4  -1   3 19755.1 1012.33   2
  -4  -1   2 4581.07 486.113   2
   4   1  -2 4472.93 411.771   3
  -4  -1   1 3514.82 419.762   2
   4   1  -1 3569.54 377.286   3
   4   1   0 347.323 135.542   3
  -4  -1   0 156.317 114.753   2
  -4  -1  -1 4906.89 487.922   2
   4   1   1 5097.56 488.106   3
  -4  -1  -2 166.465 109.627   2
   4   1   2 246.382 119.383   3
  -4  -1  -3 3094.42 379.090   2
  -4  -1  -3 3528.86 441.672   3
   4   1   3 3265.35 448.446   3
  -4  -1  -4 4108.08 434.783   2
  -4  -1  -4 3687.05 490.126   3
   4   1   4 3618.77 496.615   3
  -4  -1  -5 1245.53 231.150   2
  -4  -1  -5 1453.71 318.229   3
  -4  -1  -6 621.636 224.260   3
  -4  -1  -7 8.84247 127.371   3
  -4  -1  -8 498.925 240.920   3
  -4  -1  -9-59.5831 135.914   3
  -4  -1 -10 180.279 178.639   3
   4   2 -14 239.966 235.873   3
   4   2 -13 1647.76 425.007   3
   4   2 -12 2430.91 486.931   3
   4   2 -11 1741.86 268.855   1
   4   2 -11 1584.27 345.594   3
   4   2 -10 1630.36 349.412   3
   4   2 -10 1780.55 289.403   1
   4   2 -10 2650.95 423.302   2
  -4  -2  10 1935.13 330.593   2
   4   2  -9 10249.4 728.362   1
  -4  -2   9 9091.07 726.566   2
  -4  -2   8 1111.97 267.608   2
   4   2  -8 1095.96 235.482   1
   4   2  -8 1352.95 329.598   2
  -4  -2   7 1590.95 304.093   2
   4   2  -7 1023.04 271.934   2
   4   2  -6 2058.20 378.458   2
  -4  -2   6 2130.35 363.735   2
   4   2  -5 3974.12 508.597   2
  -4  -2   5 3725.24 464.732   2
   4   2  -4 19466.6 1117.54   2
  -4  -2   4 19100.9 1051.56   2
   4   2  -3 3988.71 523.604   2
  -4  -2   3 3687.87 461.157   2
  -4  -2   2 8366.72 699.772   2
   4   2  -2 7844.07 627.896   3
   4   2  -1 195.594 100.753   3
  -4  -2   1-28.5011 138.597   2
   4   2   0 956.798 232.703   3
  -4  -2   0 530.823 156.647   2
  -4  -2  -1 512.660 189.597   3
   4   2   1 303.491 129.537   2
   4   2   1 471.284 169.721   3
  -4  -2  -1 618.594 182.800   2
   4   2   2 33.8063 76.8180   2
  -4  -2  -2 55.0372 90.0066   3
   4   2   2 229.467 164.626   3
  -4  -2  -2 125.343 130.307   2
   4   2   3 2519.25 398.237   2
  -4  -2  -3 2903.32 399.677   2
  -4  -2  -3 3152.92 446.103   3
   4   2   3 3612.64 498.150   3
   4   2   4 114.112 96.8237   2
  -4  -2  -4-56.5861 102.288   3
  -4  -2  -4 169.523 84.9606   2
  -4  -2  -5 12402.6 791.269   2
  -4  -2  -5 13814.5 1037.35   3
  -4  -2  -6 86.6618 113.598   2
   4   2   6 140.421 145.313   2
  -4  -2  -6 106.026 158.485   3
  -4  -2  -7 1545.20 276.300   2
  -4  -2  -7 1657.84 401.772   3
  -4  -2  -8 367.659 174.916   3
  -4  -2  -9 1066.24 353.944   3
  -4  -2 -10 167.085 247.015   3
   4   3 -14 228.499 138.437   3
   4   3 -13 819.998 311.468   3
   4   3 -12 671.716 251.504   3
   4   3 -11 5595.63 533.829   1
  -4  -3  11 4167.99 507.076   2
   4   3 -11 5053.63 662.272   3
  -4  -3  10 1776.20 345.448   2
   4   3 -10 1947.77 328.851   1
  -4  -3   9 1649.50 331.104   2
  -4  -3   8 356.660 160.824   2
  -4  -3   7-43.9661 118.998   2
   4   3  -6 547.348 188.102   2
  -4  -3   6 353.187 148.469   2
   4   3  -5 1081.16 277.413   2
  -4  -3   5 892.894 218.745   2
   4   3  -4-43.6922 198.375   2
  -4  -3   4-0.96912 152.041   2
   4   3  -3 293.210 139.301   3
   4   3  -3 827.663 264.954   2
  -4  -3   3 812.086 223.135   2
   4   3  -2 5225.19 625.449   2
  -4  -3   2 4764.82 549.361   2
   4   3  -2 4997.86 552.699   3
   4   3  -1 13054.9 1003.97   2
  -4  -3   1 12221.2 868.443   2
   4   3  -1 13987.4 972.674   3
   4   3   0 1564.11 344.852   2
   4   3   0 1413.05 294.128   3
  -4  -3   0 1538.22 329.145   2
   4   3   1 17180.8 1148.53   2
  -4  -3  -1 15745.4 987.788   2
   4   3   1 16174.3 1069.87   3
   4   3   2 1111.71 293.613   2
  -4  -3  -2 1693.07 354.506   3
  -4  -3  -2 1718.03 332.728   2
   4   3   3 8339.69 802.733   2
  -4  -3  -3 9774.89 771.170   2
  -4  -3  -3 9679.86 841.314   3
   4   3   4 5163.57 615.701   2
  -4  -3  -4 4530.22 525.314   2
  -4  -3  -4 4531.93 617.191   3
   4   3   5 6075.29 679.310   2
  -4  -3  -5 4062.09 488.623   2
  -4  -3  -5 5090.67 652.448   3
  -4  -3  -6 165.748 118.298   2
  -4  -3  -6 68.0998 127.846   3
  -4  -3  -7 1164.90 253.631   2
  -4  -3  -7 1831.40 443.944   3
  -4  -3  -8-51.9151 148.189   3
  -4  -3  -9 817.559 318.846   3
   4   4 -14-345.135 259.843   3
   4   4 -13 237.503 171.564   3
   4   4 -12 179.416 130.435   3
  -4  -4  12 759.875 228.426   2
  -4  -4  11-117.493 128.834   2
   4   4 -11 0.23601 104.955   1
  -4  -4  10 610.795 212.859   2
  -4  -4   9 224.254 173.013   2
  -4  -4   8 365.914 175.492   2
  -4  -4   7 5552.82 638.923   2
  -4  -4   6 29.7383 94.6330   2
  -4  -4   5 11376.4 892.684   2
  -4  -4   4 4127.94 535.993   2
  -4  -4   3 8414.18 774.118   2
   4   4  -3 9915.04 865.445   3
  -4  -4   2 2938.31 451.543   2
   4   4  -2 2549.12 430.718   3
  -4  -4   1 13110.0 959.067   2
  -4  -4   0 9276.75 804.180   2
  -4  -4  -1 3505.21 499.990   2
  -4  -4  -2 1798.11 359.487   3
  -4  -4  -2 1803.59 365.191   2
  -4  -4  -3 1262.53 334.430   3
  -4  -4  -3 1337.03 316.570   2
  -4  -4  -4 891.549 312.831   3
  -4  -4  -4 869.525 265.201   2
  -4  -4  -5 147.451 90.0693   3
  -4  -4  -5 414.850 175.325   2
  -4  -4  -6 309.862 196.605   3
  -4  -4  -6 9.87349 62.3999   2
  -4  -4  -7 683.841 208.374   2
  -4  -4  -7 1033.43 338.367   3
  -4  -4  -8 104.498 120.362   3
   4   5 -13-304.222 251.629   3
  -4  -5  12 88.9622 65.1120   2
  -4  -5  11 301.415 165.240   2
  -4  -5  10 349.933 136.875   2
  -4  -5   9 1872.34 393.672   2
  -4  -5   8 175.039 148.701   2
  -4  -5   7 3842.16 550.409   2
  -4  -5   6-62.3221 106.953   2
  -4  -5   5 134.971 141.825   2
  -4  -5   4 11927.7 1001.60   2
  -4  -5   3 17371.1 1166.87   2
  -4  -5   2 995.405 282.784   2
  -4  -5   1 13310.6 1022.72   2
  -4  -5   0 2585.39 457.263   2
  -4  -5  -1 3345.26 500.818   2
  -4  -5  -2 106.078 107.381   2
  -4  -5  -3 197.467 167.857   3
  -4  -5  -3 36.0811 95.5578   2
  -4  -5  -4 12.1705 101.488   3
  -4  -5  -4-13.4155 81.7405   2
  -4  -5  -5 56.2488 117.007   3
  -4  -5  -5-129.638 173.319   2
  -4  -5  -6 984.544 338.990   3
  -4  -5  -6 1043.60 303.714   2
  -4  -5  -7-30.4409 186.013   3
  -4  -6  12 175.885 132.758   2
  -4  -6  11 671.336 256.937   2
  -4  -6  10 485.018 216.163   2
  -4  -6   9 1129.84 327.767   2
  -4  -6   8-187.146 175.439   2
  -4  -6   7 1349.47 344.594   2
  -4  -6   6-68.6875 87.0528   2
  -4  -6   5 139.406 110.872   2
  -4  -6   4 1268.14 347.100   2
  -4  -6   3 617.535 252.935   2
  -4  -6   2 2247.18 445.537   2
  -4  -6   1 5617.74 709.284   2
  -4  -6   0 656.919 263.921   2
  -4  -6  -1 2006.74 425.874   2
  -4  -6  -2 2108.27 433.577   2
  -4  -6  -3 892.320 295.171   2
  -4  -6  -4 123.836 128.428   2
  -4  -6  -5 131.051 202.897   3
  -4  -6  -5 21.7102 111.951   2
  -4  -7  12-129.442 147.252   2
  -4  -7  11 29.1884 106.371   2
  -4  -7  10-42.5573 126.672   2
  -4  -7   9-59.6817 123.838   2
  -4  -7   8-175.562 192.578   2
  -4  -7   7-46.3328 92.6900   2
  -4  -7   6 390.331 199.471   2
  -4  -7   5-68.5825 188.721   2
  -4  -7   4-526.951 242.671   2
  -4  -7   3 168.493 102.362   2
  -4  -7   2 10.0502 99.1789   2
  -4  -7   1-37.9817 159.793   2
  -4  -7   0-23.3017 120.885   2
  -4  -7  -1 501.993 241.838   2
  -4  -7  -2 1179.26 330.547   2
  -4  -7  -3 947.929 288.523   2
  -4  -7  -4-161.181 197.290   2
  -4  -7  -5 102.295 113.319   2
  -4  -8  12 200.703 194.438   2
  -4  -8  11 891.941 337.762   2
  -4  -8  10-405.175 222.038   2
  -4  -8   9 609.661 281.386   2
  -4  -8   8-95.7944 184.702   2
  -4  -8   7-185.652 163.479   2
  -4  -8   6 111.452 119.117   2
  -4  -8   5 26.6631 136.090   2
  -4  -8   4 360.725 238.189   2
  -4  -8   3 121.776 165.924   2
  -4  -8   2-197.923 185.826   2
  -4  -8   1 113.647 153.054   2
  -4  -8   0-77.4319 191.045   2
  -4  -8  -1 154.701 180.470   2
  -4  -8  -2-54.7727 103.174   2
  -4  -8  -3 796.146 301.190   2
  -4  -8  -4 130.786 151.764   2
  -4  -9   7-91.9927 139.970   2
  -4  -9   6 26.8009 143.686   2
  -4  -9   5 1282.12 409.407   2
  -4  -9   4 745.134 302.913   2
  -4  -9   3 38.7630 109.142   2
  -4  -9   2 1006.49 342.470   2
   5 -11  -4-59.9138 194.449   2
   5 -11  -3 14.9479 223.430   2
   5 -11  -2 667.762 349.695   2
   5 -11  -1 36.9895 153.744   2
   5 -11   0 49.6885 139.268   2
   5 -11   1-115.628 142.435   2
   5 -11   2-46.4248 114.960   2
   5 -11   2 136.703 238.116   1
   5 -11   3 1379.05 413.877   1
   5 -11   3 1839.11 516.394   2
   5 -11   4 414.556 292.064   2
   5 -11   4 716.933 288.263   1
   5 -11   5 2574.05 569.032   2
   5 -11   6 276.198 223.040   2
   5 -11   7 313.887 254.173   2
   5 -11   8 414.502 273.979   2
   5 -11   9 519.176 272.301   2
   5 -11  10 155.117 196.566   2
  -5  11 -11 435.283 307.349   3
   5 -11  11 414.326 270.062   2
   5 -10  -5 200.758 190.171   2
   5 -10  -4 168.046 136.678   2
   5 -10  -3 34.9778 101.645   2
   5 -10  -3 82.1900 113.887   1
   5 -10  -2 1083.14 354.309   1
   5 -10  -1 202.023 251.820   1
   5 -10   0 200.997 204.115   1
   5 -10   1 389.600 243.086   1
   5 -10   2 5096.36 732.802   1
   5 -10   3 1033.37 341.070   1
   5 -10   4 1936.22 453.908   1
   5 -10   5 590.277 256.723   1
   5 -10   6 495.137 219.698   1
   5 -10   7 1336.00 358.126   1
   5 -10   8 1094.42 354.680   2
   5 -10   9 663.758 282.313   2
  -5  10 -10 132.316 144.629   3
   5 -10  10 75.1320 166.880   2
  -5  10 -11 157.850 201.168   3
   5 -10  11 395.110 254.646   2
   5  -9  -6-157.600 149.503   2
   5  -9  -5 327.403 199.460   2
   5  -9  -5 477.816 249.449   1
   5  -9  -4-171.697 123.182   1
   5  -9  -3 53.9387 119.898   1
   5  -9  -2-116.512 141.937   1
   5  -9  -1 42.8035 144.874   1
   5  -9   0-48.0240 96.8054   1
  -5   9  -1 816.630 228.576   3
   5  -9   1 921.981 322.051   1
  -5   9  -2 94.9009 71.4158   3
   5  -9   2 237.205 178.015   1
   5  -9   3-37.5404 105.786   1
   5  -9   4 708.773 277.899   1
   5  -9   5 325.557 112.369   1
   5  -9   6 150.581 142.617   1
   5  -9   7 324.069 194.371   1
   5  -9   8 77.5592 110.703   1
  -5   9  -9-83.5333 138.873   3
   5  -9   9 60.9159 104.484   1
  -5   9 -10 42.6646 76.2882   3
   5  -9  10 1.57371 111.292   2
   5  -9  11 1765.76 450.977   2
  -5   9 -11 1461.13 422.180   3
  -5   9 -12-179.864 222.153   3
   5  -8  -7 1037.34 361.717   1
   5  -8  -6 190.308 121.769   1
   5  -8  -5-67.9569 114.100   1
   5  -8  -4 197.642 146.493   1
   5  -8  -3 968.468 308.527   1
   5  -8  -2 696.398 290.588   1
  -5   8   2 895.581 224.678   3
  -5   8   1 4451.77 456.078   3
   5  -8  -1 3615.46 554.195   1
  -5   8   0 2630.20 354.503   3
   5  -8   0 3512.99 528.235   1
   5  -8   1 1702.23 361.825   1
  -5   8  -1 1304.57 248.848   3
   5  -8   2-108.146 204.195   1
  -5   8  -2 5.31376 62.0257   3
   5  -8   3 15056.9 1092.39   1
   5  -8   4 13391.8 1006.05   1
   5  -8   5 289.861 136.916   1
   5  -8   6 1086.75 270.645   1
  -5   8  -7 321.969 161.098   3
   5  -8   7 258.784 163.057   1
  -5   8  -8 1890.21 379.874   3
   5  -8   8 1777.44 363.725   1
   5  -8   9 55.2123 75.6705   1
  -5   8  -9-46.9227 139.156   3
   5  -8  10-93.8985 117.664   1
  -5   8 -10-166.677 157.048   3
   5  -8  11 494.161 234.065   2
  -5   8 -11 582.382 275.628   3
  -5   8 -12 380.579 264.379   3
   5  -7  -8 225.516 136.240   1
   5  -7  -7 28.0429 87.9160   1
   5  -7  -6 172.042 179.102   1
   5  -7  -5-2.88247 151.517   1
   5  -7  -4 705.995 250.676   1
  -5   7   3 7088.32 545.554   3
   5  -7  -3 6695.43 735.029   1
  -5   7   2 2520.72 305.065   3
   5  -7  -2 3531.29 536.505   1
  -5   7   1 8802.85 547.133   3
   5  -7  -1 11407.0 932.208   1
   5  -7   0 413.397 160.761   1
  -5   7   0 451.100 119.797   3
   5  -7   1 8339.91 793.978   1
  -5   7  -1 6820.77 495.665   3
   5  -7   2 10120.2 859.500   1
   5  -7   3 980.354 262.471   1
   5  -7   4 17986.2 1109.32   1
   5  -7   5 12365.8 916.733   1
   5  -7   6 10500.1 837.765   1
  -5   7  -6 13795.7 908.670   3
  -5   7  -7 428.260 183.749   3
   5  -7   7 72.2709 124.135   1
  -5   7  -8 3140.55 439.522   1
  -5   7  -8 3182.55 483.425   3
   5  -7   8 2254.73 371.661   1
   5  -7   9 78.2405 60.5633   1
  -5   7  -9 154.658 146.231   3
   5  -7  10 1431.32 293.152   1
  -5   7 -10 1362.37 386.314   3
  -5   7 -11 126.310 168.026   3
  -5   7 -12-183.779 187.766   3
   5  -6  -9 752.451 268.823   1
   5  -6  -8 565.661 226.180   1
   5  -6  -7-139.295 121.759   1
   5  -6  -7-29.1397 87.2922   3
   5  -6  -6 890.758 286.987   1
   5  -6  -6 1438.43 274.610   3
   5  -6  -5 9403.36 851.633   1
  -5   6   5 10248.1 667.368   3
   5  -6  -4 970.647 259.198   1
  -5   6   4 741.242 166.872   3
   5  -6  -3 3948.01 506.045   1
  -5   6   3 3450.28 328.400   3
   5  -6  -2 52.6399 107.928   1
  -5   6   2-17.5521 27.4624   3
   5  -6  -1 3508.54 486.635   1
  -5   6   1 2693.45 235.973   3
   5  -6   0 905.583 294.212   1
  -5   6   0 301.589 68.0337   3
  -5   6  -1 12230.1 554.809   3
   5  -6   1 16073.8 1022.39   1
   5  -6   2 4509.74 552.965   1
   5  -6   3 2552.41 415.814   1
  -5   6  -4 2003.29 370.501   1
   5  -6   4 1714.57 329.712   1
  -5   6  -5 6848.20 647.205   1
   5  -6   5 7032.10 651.501   1
   5  -6   6 311.564 155.630   1
  -5   6  -6 357.275 152.818   1
  -5   6  -6 407.390 168.094   3
  -5   6  -7 5103.47 550.890   1
   5  -6   7 4107.71 497.555   1
  -5   6  -7 5652.84 619.330   3
   5  -6   8 1669.26 303.038   1
  -5   6  -8 2467.23 445.867   3
   5  -6   9 1074.81 246.105   1
  -5   6  -9 1621.72 409.523   3
   5  -6  10 1898.97 311.844   1
  -5   6 -10 2013.34 460.763   3
  -5   6 -11-39.4583 108.481   3
  -5   6 -12 212.438 142.285   3
   5  -5  -9 632.921 221.794   1
   5  -5  -9 846.981 252.647   3
   5  -5  -8 51.9915 143.170   1
   5  -5  -8 324.052 173.434   3
   5  -5  -7 1393.56 281.531   3
   5  -5  -7 542.546 189.869   1
   5  -5  -6 142.247 101.292   3
   5  -5  -6 70.0700 88.3544   1
   5  -5  -5 1300.63 302.312   1
   5  -5  -5 1653.80 236.721   3
   5  -5  -4 1408.25 305.311   1
   5  -5  -3 210.050 116.933   1
   5  -5  -2 2519.94 409.494   1
  -5   5   2 1294.84 113.803   3
   5  -5  -1 3046.69 450.724   1
  -5   5   0 2668.84 403.329   1
  -5   5   0 1394.94 101.692   3
  -5   5   0 1292.82 95.9716   3
   5  -5   0 2500.48 387.196   1
  -5   5  -1 2663.41 408.516   1
   5  -5   1 2490.52 389.251   1
  -5   5  -1 1510.57 150.241   3
  -5   5  -2 7409.24 666.703   1
   5  -5   2 7312.80 664.702   1
  -5   5  -2 6833.99 392.620   3
  -5   5  -3 6153.26 603.735   1
   5  -5   3 7483.94 677.489   1
  -5   5  -3 7622.12 489.140   3
  -5   5  -4 4320.12 492.658   1
   5  -5   4 5589.21 559.776   1
  -5   5  -5 6.87268 88.3118   1
   5  -5   5 118.092 123.991   1
   5  -5   6 7262.46 629.467   1
  -5   5  -6 8142.53 693.229   3
   5  -5   7 1971.79 354.786   1
  -5   5  -7 2757.07 467.999   3
   5  -5   8 96.2713 84.0563   1
  -5   5  -8 257.251 154.886   3
   5  -5   9 1021.47 254.246   2
   5  -5   9 861.590 213.950   1
  -5   5  -9 922.126 305.577   3
  -5   5 -10 3786.37 609.375   3
  -5   5 -11 82.3801 149.547   3
  -5   5 -12-73.3229 149.921   3
   5  -4 -10 1954.53 378.007   1
   5  -4 -10 1466.76 326.978   3
   5  -4  -9 64.7801 96.1679   3
   5  -4  -9 231.049 150.323   1
   5  -4  -8 808.716 242.082   1
   5  -4  -8 497.450 151.548   3
   5  -4  -7 1455.27 277.314   2
   5  -4  -7 1796.57 354.617   1
   5  -4  -7 1396.07 246.917   3
   5  -4  -6 9191.72 718.073   2
   5  -4  -6 10006.6 801.773   1
   5  -4  -6 9884.02 593.359   3
   5  -4  -5 888.111 238.398   1
   5  -4  -5 975.226 222.035   2
   5  -4  -5 666.727 115.466   3
   5  -4  -4-10.9368 36.1503   3
   5  -4  -4-193.305 128.919   1
   5  -4  -3-2.25689 108.354   1
  -5   4   3 197.775 162.353   1
   5  -4  -2 458.097 139.271   1
  -5   4   2 806.513 239.163   1
   5  -4  -1 6895.94 625.026   1
   5  -4   0 9335.29 734.108   1
   5  -4   1 73.4986 77.9838   1
  -5   4  -1-16.0476 17.5711   3
  -5   4  -1 124.392 81.6205   1
  -5   4  -2 22927.6 1129.60   1
   5  -4   2 22653.9 1106.74   1
  -5   4  -2 22311.0 689.265   3
  -5   4  -3 15045.7 892.609   1
   5  -4   3 14119.5 876.403   1
  -5   4  -3 14465.1 666.675   3
   5  -4   4-117.919 151.021   1
  -5   4  -4-30.8355 46.3953   3
   5  -4   5 564.434 223.115   1
   5  -4   6 202.964 139.571   2
   5  -4   6 361.227 126.359   1
  -5   4  -6 360.594 154.743   3
   5  -4   7 12967.7 863.641   2
   5  -4   7 14320.4 835.273   1
   5  -4   8 1181.64 281.749   2
   5  -4   8 1169.76 232.855   1
  -5   4  -8 1943.70 418.515   3
   5  -4   9 2359.18 366.747   2
   5  -4   9 2212.76 317.746   1
  -5   4  -9 2351.95 464.455   3
  -5   4 -10-95.8030 123.869   3
  -5   4 -11-64.6362 133.282   3
  -5   4 -12 81.4940 108.171   3
   5  -3 -11 473.517 152.064   3
   5  -3 -10 2310.72 398.181   3
   5  -3 -10 2472.54 390.499   1
   5  -3  -9 1137.50 273.937   1
   5  -3  -9 777.571 206.248   3
   5  -3  -8 2097.67 373.957   1
   5  -3  -8 2066.60 344.896   2
   5  -3  -8 1909.39 300.864   3
   5  -3  -7 4499.79 497.116   2
   5  -3  -7 5138.53 559.873   1
   5  -3  -7 4630.29 437.093   3
   5  -3  -6 11035.7 779.315   2
   5  -3  -6 11518.2 834.132   1
   5  -3  -6 11279.4 608.727   3
   5  -3  -5 616.187 187.843   2
   5  -3  -5 1070.89 249.923   1
   5  -3  -5 1160.20 180.621   3
  -5   3   4 2703.36 400.288   1
   5  -3  -4 1970.66 336.881   2
   5  -3  -4 3028.92 420.814   1
   5  -3  -4 2540.55 193.844   3
   5  -3  -3 313.921 142.855   2
  -5   3   3 542.751 181.472   1
   5  -3  -3 699.905 211.681   1
   5  -3  -2 2459.08 375.674   2
   5  -3  -2 2181.79 351.304   1
   5  -3  -1 2575.09 377.552   2
   5  -3  -1 2762.53 385.984   1
   5  -3   0 23511.8 1098.06   1
   5  -3   1 6705.42 579.632   1
  -5   3  -1 6540.84 306.724   3
   5  -3   2-76.9689 128.162   2
   5  -3   2 167.365 140.166   1
  -5   3  -2 143.391 59.2302   3
   5  -3   3 56.1643 127.887   2
   5  -3   3 208.182 163.202   1
  -5   3  -3 503.470 180.514   3
   5  -3   4 1226.30 275.690   2
   5  -3   4 1980.47 318.301   1
   5  -3   5 3418.08 448.227   2
   5  -3   5 5307.85 521.016   1
   5  -3   6 233.894 126.290   2
   5  -3   6 247.540 129.727   1
  -5   3  -6 413.486 168.688   3
   5  -3   7 92.2725 89.9527   1
  -5   3  -7-70.6661 103.279   3
   5  -3   7-19.2556 61.1338   2
   5  -3   8 4308.56 496.336   2
   5  -3   8 3326.94 397.360   1
  -5   3  -8 4116.40 569.037   3
   5  -3   9-135.911 122.398   1
  -5   3  -9 121.853 140.765   3
  -5   3 -10 152.150 176.269   3
  -5   3 -11 85.3829 90.4886   3
  -5   3 -12 104.322 200.025   3
   5  -2 -11-10.6515 98.8685   3
   5  -2 -10 202.894 134.656   1
   5  -2 -10-120.820 141.226   3
   5  -2  -9 680.691 203.739   3
   5  -2  -9 680.570 216.927   1
   5  -2  -8 1004.18 233.017   1
   5  -2  -8 1023.31 218.126   2
   5  -2  -8 832.802 226.360   3
   5  -2  -7 13421.5 881.011   2
   5  -2  -7 12375.0 853.472   1
   5  -2  -7 12875.5 725.424   3
   5  -2  -6 13881.2 903.862   1
   5  -2  -6 14022.9 678.130   3
   5  -2  -5 1632.78 301.693   1
   5  -2  -5 1878.34 215.261   3
   5  -2  -5 1498.52 301.791   2
   5  -2  -4 10801.8 794.773   2
   5  -2  -4 10205.3 750.104   1
   5  -2  -4 8738.69 375.700   3
   5  -2  -3 2214.30 387.879   2
   5  -2  -3 1815.48 124.022   3
   5  -2  -3 1649.01 112.560   3
   5  -2  -2 192.995 88.6163   2
   5  -2  -2 223.429 109.381   1
   5  -2  -1 20263.9 1026.90   1
   5  -2   0 1434.71 330.256   1
   5  -2   0 1187.54 141.299   3
   5  -2   1 1985.32 352.196   1
   5  -2   1 2066.59 212.719   3
   5  -2   2 30.5558 77.3504   2
  -5   2  -2-28.0375 89.0992   3
   5  -2   2 71.8403 76.6789   1
   5  -2   2-59.6846 61.5319   3
   5  -2   3 9460.22 707.857   1
  -5   2  -3 9360.97 592.634   3
   5  -2   3 8845.07 567.707   3
   5  -2   4 4260.10 471.370   1
   5  -2   4 3357.61 444.130   2
   5  -2   4 4273.62 441.436   3
   5  -2   5 1207.83 269.086   3
  -5   2  -5 1434.64 282.316   3
   5  -2   5 841.612 208.441   2
   5  -2   5 1360.22 271.225   1
   5  -2   6-10.7364 105.363   3
   5  -2   6 187.294 111.508   1
  -5   2  -6 302.132 194.359   3
   5  -2   6 68.7060 108.513   2
   5  -2   7 923.915 214.491   1
   5  -2   7 938.162 230.120   2
   5  -2   8 696.216 196.955   1
  -5   2  -8 1082.00 301.545   3
   5  -2   9 29.8670 68.6866   1
  -5   2  -9 152.299 111.260   3
  -5   2 -10 1582.13 410.966   3
  -5   2 -11 224.407 170.715   3
  -5   2 -12 610.194 287.040   3
   5  -1 -12-371.766 186.738   3
   5  -1 -11 1013.82 300.571   3
   5  -1 -10 20.1856 72.2686   1
   5  -1 -10 171.223 143.919   3
   5  -1  -9-106.499 127.307   1
   5  -1  -9 125.222 124.273   2
   5  -1  -9 11.8358 87.9361   3
   5  -1  -8 1039.80 247.073   1
   5  -1  -8 1080.81 272.934   2
   5  -1  -8 995.467 226.570   3
   5  -1  -7 7638.77 675.883   2
   5  -1  -7 6855.44 611.564   1
   5  -1  -7 7312.29 571.901   3
   5  -1  -6 4047.57 489.575   2
   5  -1  -6 5155.28 533.614   1
   5  -1  -6 5299.92 426.186   3
   5  -1  -5 2287.13 379.310   2
   5  -1  -5 2933.14 398.208   1
   5  -1  -5 2769.84 263.630   3
   5  -1  -4 0.41259 66.5087   1
   5  -1  -4-86.2837 127.725   2
   5  -1  -3 1289.47 281.270   2
   5  -1  -3 823.685 211.943   1
   5  -1  -2 3682.61 466.000   1
   5  -1  -2 4052.41 494.899   2
   5  -1  -2 3412.19 247.853   3
   5  -1  -1 20741.2 1068.59   1
   5  -1  -1 20146.9 623.587   3
   5  -1   0 41960.0 1519.57   1
   5  -1   0 37791.6 970.796   3
   5  -1   1 48579.5 1621.80   1
  -5   1  -1 47022.0 1223.05   3
   5  -1   2 570.494 187.366   1
  -5   1  -2 863.271 193.496   3
   5  -1   2 526.350 105.911   3
   5  -1   2 672.295 202.134   2
   5  -1   3 1356.79 253.833   1
   5  -1   3 1428.40 291.755   2
   5  -1   3 1381.30 246.147   3
  -5   1  -4-49.6817 122.343   3
   5  -1   4-126.038 124.817   1
   5  -1   4 64.6173 91.3931   2
   5  -1   4 21.7535 103.884   3
   5  -1   5 8711.84 691.980   1
   5  -1   5 6998.25 641.042   2
  -5   1  -5 8406.56 699.678   3
   5  -1   5 8181.65 738.081   3
  -5   1  -6 237.616 164.535   3
   5  -1   6 196.447 87.8492   2
   5  -1   6 366.130 162.447   1
   5  -1   7 502.112 181.182   2
  -5   1  -7 612.948 239.361   3
   5  -1   7 527.191 174.167   1
  -5   1  -8 115.999 153.518   3
   5  -1   8 147.676 98.1114   1
   5  -1   9 273.739 106.202   1
  -5   1  -9 552.026 237.245   3
  -5   1 -10 602.728 274.112   3
  -5   1 -11 74.2520 188.037   3
   5   0 -13 51.6554 96.7936   3
   5   0 -12-118.687 113.136   3
   5   0 -11 2334.24 436.230   3
   5   0 -10 1134.26 255.532   1
   5   0 -10 978.419 252.162   3
   5   0  -9-2.40169 81.2374   1
   5   0  -9-109.803 160.154   2
   5   0  -9 251.090 122.020   3
   5   0  -8 803.245 205.579   1
   5   0  -8 1244.62 303.607   2
   5   0  -8 1130.95 258.067   3
   5   0  -7 9505.99 747.083   1
   5   0  -7 8506.79 610.193   3
   5   0  -6 22572.1 1208.97   2
   5   0  -6 27713.1 1264.70   1
   5   0  -5 3879.97 499.566   2
   5   0  -5 4830.95 534.654   1
   5   0  -4 7388.57 675.309   1
   5   0  -4 6508.86 662.298   2
  -5   0   4 8137.61 692.184   2
  -5   0   3 36.1595 125.487   2
   5   0  -3-10.9727 74.9053   1
   5   0  -3-53.2692 99.7546   3
   5   0  -3-44.3873 90.1519   2
  -5   0   2 30606.3 1338.47   2
   5   0  -2 28126.5 941.142   3
  -5   0   1 188.451 155.029   2
   5   0  -1 51.0490 78.0385   3
  -5   0   0 21859.6 1123.49   2
   5   0   0 20767.9 865.256   3
   5   0   1 28164.6 1311.14   2
  -5   0  -1 29801.1 1288.70   2
  -5   0  -1 27532.4 1063.41   3
   5   0   1 28006.7 1078.42   3
   5   0   2 2401.14 393.978   2
  -5   0  -2 2865.45 402.476   2
   5   0   2 3253.23 394.240   3
   5   0   3 3085.46 452.752   2
  -5   0  -3 3819.71 460.718   2
  -5   0  -3 4468.52 497.010   3
   5   0   3 3991.69 466.854   3
   5   0   4 2815.34 418.562   2
  -5   0  -4 3434.13 453.438   3
   5   0   4 3268.28 452.969   3
   5   0   5 381.496 158.876   2
  -5   0  -5 602.151 194.151   3
   5   0   6 434.194 159.392   2
  -5   0  -6 561.094 221.445   3
   5   0   7 264.859 148.273   2
  -5   0  -7 256.583 148.964   3
   5   0   8-67.9813 109.593   1
  -5   0  -8 16.8496 172.913   3
  -5   0  -9 276.235 186.633   3
  -5   0 -10 395.629 235.681   3
   5   1 -13 475.334 224.697   3
   5   1 -12 162.200 134.025   3
   5   1 -11 367.089 185.644   1
   5   1 -11 26.6060 74.1396   3
   5   1 -10 163.238 101.820   1
   5   1 -10 107.690 113.282   3
   5   1  -9 1489.37 298.639   3
   5   1  -9 1619.95 308.785   1
   5   1  -8 5489.55 579.528   1
  -5  -1   7 274.132 191.550   2
   5   1  -7-84.3231 111.512   1
   5   1  -6 12373.6 890.489   1
   5   1  -6 14778.5 1025.84   2
  -5  -1   6 14182.2 988.035   2
  -5  -1   5 1025.47 271.942   2
   5   1  -5 833.010 237.913   2
   5   1  -4 16242.2 1070.36   2
  -5  -1   4 14888.7 986.000   2
   5   1  -3 6157.64 667.821   2
  -5  -1   3 5250.76 588.862   2
   5   1  -3 5338.00 486.360   3
   5   1  -2 6685.26 692.661   2
  -5  -1   2 6396.16 642.150   2
   5   1  -2 5872.44 506.557   3
  -5  -1   1 1133.68 261.782   2
   5   1  -1 902.810 212.159   3
  -5  -1   0 2661.20 394.615   2
   5   1   0 2521.55 352.244   3
   5   1   0 2776.16 425.555   2
  -5  -1  -1 2126.83 362.346   2
   5   1   1 2264.24 353.772   3
   5   1   1 2485.07 425.526   2
   5   1   2 13189.8 971.243   2
  -5  -1  -2 14359.2 919.451   2
  -5  -1  -2 15263.7 937.597   3
   5   1   2 15679.1 978.004   3
   5   1   3 6112.32 654.528   2
  -5  -1  -3 7306.40 652.896   2
  -5  -1  -3 7838.29 702.401   3
   5   1   3 7306.47 712.600   3
  -5  -1  -4 1008.36 223.518   2
   5   1   4 1393.01 310.063   2
  -5  -1  -4 1808.18 373.048   3
  -5  -1  -5 443.054 158.947   2
   5   1   5 380.119 150.481   2
  -5  -1  -5 873.587 296.826   3
   5   1   6 1048.95 275.272   2
  -5  -1  -6 950.477 298.920   3
  -5  -1  -7 654.581 253.703   3
  -5  -1  -8 311.552 192.577   3
  -5  -1  -9 90.7130 165.726   3
  -5  -1 -10-3.25490 159.597   3
   5   2 -14 153.915 103.831   3
   5   2 -13 26.9214 96.4298   3
   5   2 -12 197.265 146.228   3
   5   2 -11 979.722 306.873   3
   5   2 -11 963.243 247.453   1
   5   2 -10 1098.87 310.561   3
  -5  -2  10 751.162 244.332   2
   5   2 -10 938.198 247.358   1
  -5  -2   9 1023.15 278.743   2
   5   2  -9 1202.37 295.307   1
   5   2  -8 4383.58 537.884   1
  -5  -2   8 3043.16 482.274   2
  -5  -2   7 3315.25 495.182   2
  -5  -2   6 595.413 209.929   2
  -5  -2   5 3255.66 481.278   2
  -5  -2   4 2429.44 411.060   2
   5   2  -3 1347.96 283.419   3
  -5  -2   3 1645.55 328.350   2
   5   2  -2 81.9873 104.374   3
  -5  -2   2-159.993 128.279   2
   5   2  -1 842.062 248.809   3
  -5  -2   1 696.975 213.415   2
   5   2   0 1348.59 303.308   3
  -5  -2   0 898.992 261.519   2
   5   2   1-61.1513 119.965   3
  -5  -2  -1 11.0746 74.3568   2
  -5  -2  -2 10386.6 824.234   2
  -5  -2  -2 10915.0 863.729   3
  -5  -2  -3 27.4210 108.487   2
  -5  -2  -3 50.7240 134.360   3
  -5  -2  -4 600.021 198.237   2
  -5  -2  -4 602.363 191.948   3
  -5  -2  -5 241.590 131.030   2
  -5  -2  -5 225.723 154.424   3
  -5  -2  -6 426.071 159.013   2
  -5  -2  -6 339.489 214.892   3
  -5  -2  -7 367.558 275.318   3
  -5  -2  -8 130.957 154.556   3
  -5  -2  -9 323.105 222.683   3
   5   3 -14 878.089 359.131   3
   5   3 -13 1645.89 420.367   3
   5   3 -12-76.3008 114.094   3
   5   3 -11 348.482 196.458   3
  -5  -3  11 326.831 148.181   2
   5   3 -11 199.801 140.473   1
  -5  -3  10 160.263 127.377   2
   5   3 -10 128.562 134.150   1
  -5  -3   9 798.261 251.241   2
  -5  -3   8 4033.02 574.254   2
  -5  -3   7 724.507 217.685   2
  -5  -3   6 256.219 94.8923   2
  -5  -3   5-313.937 225.394   2
   5   3  -4 6.81821 96.3647   3
  -5  -3   4-36.3101 148.563   2
   5   3  -3 744.179 230.939   3
  -5  -3   3 1008.15 254.651   2
  -5  -3   2 26018.1 1395.52   2
   5   3  -2 23821.1 1304.08   3
  -5  -3   1 10064.9 873.299   2
   5   3  -1 10607.5 899.630   3
  -5  -3   0 5125.52 624.394   2
  -5  -3  -1 16634.9 1095.02   2
  -5  -3  -2 9.28968 99.3323   3
  -5  -3  -2 29.5922 88.9342   2
  -5  -3  -3 5086.67 622.282   2
  -5  -3  -3 4484.91 611.458   3
  -5  -3  -4 757.639 269.762   3
  -5  -3  -4 330.940 170.285   2
  -5  -3  -5 327.708 173.010   2
  -5  -3  -5 644.829 271.282   3
  -5  -3  -6 98.0689 71.3879   2
  -5  -3  -6 116.386 93.9439   3
  -5  -3  -7 51.9502 111.190   2
  -5  -3  -7-8.96574 118.882   3
  -5  -3  -8 265.540 129.903   3
   5   4 -13-10.0438 150.652   3
  -5  -4  11 29.6950 109.191   2
   5   4 -11 67.7985 93.2213   1
  -5  -4  10 68.8865 94.9526   2
  -5  -4   9 288.223 181.612   2
  -5  -4   8 2581.06 481.331   2
  -5  -4   7-76.3305 106.749   2
  -5  -4   6-442.268 256.817   2
  -5  -4   5-165.286 199.897   2
  -5  -4   4-14.6131 157.475   2
  -5  -4   3 2048.15 427.166   2
  -5  -4   2 109.652 121.072   2
  -5  -4   1 143.481 155.100   2
  -5  -4   0 4026.42 575.469   2
  -5  -4  -1 2396.47 448.522   2
  -5  -4  -2-113.783 137.165   2
  -5  -4  -3 1924.73 422.121   3
  -5  -4  -3 1956.35 400.613   2
  -5  -4  -4 1694.61 429.406   3
  -5  -4  -4 1523.69 358.982   2
  -5  -4  -5 1595.43 421.376   3
  -5  -4  -5 1870.27 387.511   2
  -5  -4  -6 138.871 140.116   2
  -5  -4  -6 248.127 200.102   3
  -5  -4  -7 530.297 283.748   3
  -5  -5  12 258.516 156.353   2
  -5  -5  11 102.871 88.0238   2
  -5  -5  10 345.071 180.517   2
  -5  -5   9 783.906 265.410   2
  -5  -5   8 562.908 233.691   2
  -5  -5   7 667.471 258.932   2
  -5  -5   6-33.2043 168.953   2
  -5  -5   5 159.549 96.3284   2
  -5  -5   4-152.579 194.779   2
  -5  -5   3 1545.05 379.983   2
  -5  -5   2 8002.44 838.792   2
  -5  -5   1 659.943 270.857   2
  -5  -5   0 885.985 272.019   2
  -5  -5  -1 480.070 203.599   2
  -5  -5  -2-19.7801 139.285   2
  -5  -5  -3-126.415 155.493   2
  -5  -5  -4 242.675 183.431   2
  -5  -5  -5 655.565 317.406   3
  -5  -5  -5 311.317 185.982   2
  -5  -6  12 389.085 245.782   2
  -5  -6  11 165.065 156.362   2
  -5  -6  10-9.06668 84.8045   2
  -5  -6   9 1.22416 137.269   2
  -5  -6   8 227.398 143.427   2
  -5  -6   7 1132.29 350.711   2
  -5  -6   6 1024.07 335.473   2
  -5  -6   5 1806.22 418.009   2
  -5  -6   4 2927.23 539.638   2
  -5  -6   3 3641.08 591.022   2
  -5  -6   2 3689.94 606.067   2
  -5  -6   1 609.250 245.746   2
  -5  -6   0 480.885 214.522   2
  -5  -6  -1-142.535 188.532   2
  -5  -6  -2 776.152 267.129   2
  -5  -6  -3-248.353 224.896   2
  -5  -6  -4 892.052 300.509   2
  -5  -6  -5 97.2941 171.779   2
  -5  -7  11 119.362 159.069   2
  -5  -7  10 402.105 196.280   2
  -5  -7   9-16.0442 105.811   2
  -5  -7   8 157.033 155.026   2
  -5  -7   7 749.189 303.890   2
  -5  -7   6-61.0339 150.372   2
  -5  -7   5 1689.46 425.195   2
  -5  -7   4 95.6515 122.957   2
  -5  -7   3-29.3204 138.061   2
  -5  -7   2 2158.47 495.999   2
  -5  -7   1 390.709 239.685   2
  -5  -7   0 3377.83 593.774   2
  -5  -7  -1-144.213 198.119   2
  -5  -7  -2 1210.92 356.572   2
  -5  -7  -3 72.0163 161.539   2
  -5  -7  -4 487.433 239.965   2
  -5  -8   7 152.351 122.582   2
  -5  -8   6-15.0471 106.091   2
  -5  -8   5 1287.08 382.137   2
  -5  -8   4 28.4531 158.277   2
  -5  -8   3 685.824 324.527   2
  -5  -8   2-304.857 237.329   2
  -5  -8   1 582.750 288.505   2
   6 -11   0 945.450 359.623   1
   6 -11   1 63.9840 119.280   1
   6 -11   2 282.804 194.116   1
   6 -11   3 398.209 250.483   1
   6 -11   4 28.8254 99.0146   1
   6 -11   5 314.909 218.533   1
   6 -11   6 595.876 272.240   1
   6 -11   7 127.835 156.220   1
   6 -11   8 10.4072 106.978   2
   6 -11   8-163.432 194.891   1
  -6  11  -9 20.8061 114.506   3
   6 -11   9 546.252 309.123   2
  -6  11 -10 275.362 193.659   3
   6 -11  10 334.092 251.907   2
   6 -10  -5-306.364 206.880   2
   6 -10  -3 68.1788 111.908   1
   6 -10  -2-62.2705 135.092   1
   6 -10  -1 511.184 278.914   1
   6 -10   0 649.866 289.386   1
   6 -10   1 535.455 217.023   1
   6 -10   2 648.936 271.026   1
   6 -10   3-39.9869 134.119   1
   6 -10   4 33.6673 97.7988   1
   6 -10   5 246.300 188.279   1
   6 -10   6 1552.11 397.408   1
   6 -10   7-74.3651 140.289   1
  -6  10  -8 210.309 117.813   3
   6 -10   8 191.726 148.474   1
  -6  10  -9 310.298 211.619   3
   6 -10   9 43.3898 124.395   1
   6 -10  10 559.030 296.343   2
  -6  10 -10 627.787 277.760   3
   6 -10  11 322.999 251.945   2
  -6  10 -11 276.486 207.811   3
   6  -9  -6-39.4164 171.572   1
   6  -9  -5-7.50416 91.4990   1
   6  -9  -4 164.963 181.891   1
   6  -9  -3-79.6499 109.114   1
   6  -9  -2-6.95494 105.869   1
   6  -9  -1 8.63256 146.214   1
   6  -9   0-43.4228 124.224   1
   6  -9   1 807.003 277.730   1
   6  -9   2 1122.65 324.165   1
   6  -9   3 1394.65 375.050   1
   6  -9   4 2431.21 468.143   1
   6  -9   5 99.0042 77.6483   1
  -6   9  -6 3585.92 498.844   3
   6  -9   6 3049.07 519.225   1
  -6   9  -7 279.460 177.983   3
   6  -9   7 206.151 159.767   1
   6  -9   8 1773.68 397.717   1
  -6   9  -8 2024.69 414.404   3
   6  -9   9 25.9271 74.9376   1
  -6   9  -9 22.6896 149.476   3
  -6   9 -10 2996.91 573.922   3
   6  -9  11 56.9820 177.328   2
  -6   9 -11-6.30409 107.623   3
  -6   9 -12 437.480 275.747   3
   6  -8  -8 327.837 232.298   1
   6  -8  -7 250.497 220.502   1
   6  -8  -6 59.3528 167.768   1
   6  -8  -5-209.467 175.205   1
   6  -8  -4 155.501 176.395   1
   6  -8  -3 1360.50 403.060   1
   6  -8  -2 789.211 322.827   1
   6  -8  -1 92.7169 107.266   1
   6  -8   0 312.181 188.205   1
   6  -8   1-15.3294 125.639   1
  -6   8  -2-75.4715 81.1942   3
   6  -8   2 175.238 157.578   1
   6  -8   3 5485.17 689.360   1
   6  -8   4 1145.89 328.364   1
  -6   8  -5 663.524 190.070   3
   6  -8   5 939.963 320.758   1
   6  -8   6 168.933 132.474   1
  -6   8  -6 63.8193 104.229   3
  -6   8  -7 47.5901 79.1992   3
   6  -8   7 103.559 79.9934   1
   6  -8   8 625.601 231.360   1
  -6   8  -8 621.262 237.204   3
   6  -8   9 895.909 260.417   1
  -6   8  -9 843.637 296.017   3
  -6   8 -10 228.109 192.047   3
  -6   8 -11 101.804 143.805   3
  -6   8 -12 1480.79 433.972   3
   6  -7  -8-177.065 156.943   1
   6  -7  -7-4.01930 84.2655   1
   6  -7  -6 175.215 82.4732   1
   6  -7  -5 417.438 194.410   1
   6  -7  -4 708.438 261.311   1
   6  -7  -3 107.117 112.383   1
   6  -7  -2 450.020 196.280   1
   6  -7  -1 351.482 174.756   1
  -6   7   1 389.572 72.6529   3
   6  -7   0 3644.48 552.174   1
  -6   7   0 1844.60 167.850   3
   6  -7   1 978.632 323.576   1
  -6   7  -1 551.969 108.076   3
   6  -7   2 1506.48 350.908   1
  -6   7  -2 1441.08 195.760   3
   6  -7   3 132.747 209.121   1
  -6   7  -3-24.2169 56.8263   3
   6  -7   4 2518.79 435.808   1
   6  -7   5 74.1582 161.190   1
   6  -7   6 1495.50 335.065   1
  -6   7  -6 1571.44 309.526   3
   6  -7   7 213.351 113.572   1
  -6   7  -7 280.306 170.127   3
   6  -7   8 352.190 173.044   1
  -6   7  -8 420.818 200.252   3
   6  -7   9 387.046 164.948   1
  -6   7  -9 621.029 264.906   3
  -6   7 -10 1543.31 400.683   3
  -6   7 -11-40.9498 169.676   3
  -6   7 -12 317.355 202.586   3
   6  -6  -9 190.115 114.652   1
   6  -6  -8-145.574 161.279   1
   6  -6  -7 738.219 255.169   1
   6  -6  -6 1921.62 423.848   1
   6  -6  -5 1148.12 308.653   1
   6  -6  -4 357.746 202.362   1
   6  -6  -3 5118.06 650.100   1
   6  -6  -2 304.785 164.023   1
   6  -6  -1 1008.86 257.860   1
   6  -6   0 1438.97 328.159   1
  -6   6  -1 2402.94 159.220   3
  -6   6  -1 2435.43 152.950   3
   6  -6   2 7360.38 743.412   1
  -6   6  -2 5157.25 329.246   3
   6  -6   3 14903.1 1039.61   1
  -6   6  -3 11256.5 586.493   3
   6  -6   4 8399.48 784.749   1
  -6   6  -4-17.0281 43.7052   3
   6  -6   5 2224.39 410.047   1
   6  -6   6 66.1504 125.627   1
  -6   6  -6 141.847 110.118   3
   6  -6   7-100.823 100.019   1
  -6   6  -7 109.109 141.784   3
   6  -6   8 80.7376 133.040   1
  -6   6  -8 148.391 162.678   3
   6  -6   9 6836.68 663.451   1
  -6   6  -9 6401.13 745.372   3
  -6   6 -10 41.2926 139.148   3
  -6   6 -11 1273.84 361.190   3
  -6   6 -12 27.5849 151.649   3
   6  -5  -9 315.313 220.943   1
   6  -5  -8 287.521 167.227   1
   6  -5  -7 3957.24 571.766   1
   6  -5  -6 99.0879 150.000   1
   6  -5  -6 661.625 159.084   3
   6  -5  -5 3684.11 528.642   1
   6  -5  -4 1495.75 328.149   1
   6  -5  -3 9248.09 831.849   1
   6  -5  -2 155.123 162.543   1
   6  -5  -1 4262.58 545.789   1
   6  -5   0-163.815 159.549   1
   6  -5   1 14871.9 1030.00   1
   6  -5   2 161.781 117.365   1
  -6   5  -2 403.556 85.6699   3
  -6   5  -3 1428.47 203.746   3
   6  -5   3 1378.88 297.486   1
   6  -5   4 733.206 198.124   1
  -6   5  -4 101.210 93.2434   3
   6  -5   5 871.620 257.558   1
   6  -5   6 1799.74 355.504   1
  -6   5  -6 2002.99 357.142   3
   6  -5   7 2403.00 410.209   1
  -6   5  -7 2933.17 453.911   3
  -6   5  -8 221.586 124.321   3
   6  -5   8 107.082 123.637   1
   6  -5   9 117.259 111.603   1
  -6   5  -9 427.519 204.433   3
  -6   5 -10 10.3532 111.952   3
  -6   5 -11 377.717 200.654   3
  -6   5 -12 63.5667 190.315   3
   6  -4 -10 42.5859 114.551   1
   6  -4  -9 24.3378 105.730   1
   6  -4  -8 533.316 224.992   1
   6  -4  -7-208.441 112.584   1
   6  -4  -7-127.199 77.7848   3
   6  -4  -6 1260.58 179.430   3
   6  -4  -6 2008.37 380.528   1
   6  -4  -5 10698.3 878.135   1
   6  -4  -5 8390.18 341.298   3
   6  -4  -4 12486.1 954.441   1
   6  -4  -3 22314.4 1248.91   1
   6  -4  -2 2717.34 444.979   1
   6  -4  -1 19290.9 1145.49   1
   6  -4   0-58.6593 77.3469   1
   6  -4   1 7168.64 681.259   1
   6  -4   2 1100.04 270.219   1
  -6   4  -2 754.331 125.874   3
   6  -4   3 462.255 168.290   1
  -6   4  -3 487.121 173.325   3
   6  -4   4 249.882 135.724   1
  -6   4  -4-98.0106 81.2817   3
   6  -4   5 8283.79 739.741   1
   6  -4   6 5633.81 606.028   1
  -6   4  -6 7308.53 675.429   3
   6  -4   7 269.317 176.634   1
  -6   4  -7 609.461 263.733   3
   6  -4   8 40.4447 63.8244   1
  -6   4  -8 214.501 189.335   3
   6  -4   9 494.488 168.417   1
  -6   4  -9 685.833 254.918   3
  -6   4 -10 69.8971 97.9244   3
  -6   4 -11 79.7163 76.2188   3
  -6   4 -12 704.019 328.442   3
   6  -3 -10 496.794 213.694   1
   6  -3  -9 86.7079 143.877   1
   6  -3  -8 1500.60 262.093   3
   6  -3  -8 1746.86 372.348   1
   6  -3  -7 73.4706 84.1886   1
   6  -3  -7 190.368 95.2019   3
   6  -3  -6 832.115 227.123   1
   6  -3  -6 777.497 138.005   3
   6  -3  -5 1093.11 306.325   1
   6  -3  -5 681.801 101.104   3
   6  -3  -4 5884.34 625.192   1
   6  -3  -3 3481.22 486.341   1
   6  -3  -2 209.015 137.219   1
   6  -3  -1 7250.35 684.695   1
   6  -3   0 1485.86 309.060   1
   6  -3   1 2058.68 366.444   1
  -6   3  -1 1702.57 171.604   3
   6  -3   2 325.607 175.926   1
  -6   3  -2 162.205 46.9189   3
   6  -3   3 18824.8 1083.73   1
  -6   3  -3 19972.5 856.551   3
   6  -3   4 654.000 201.392   1
   6  -3   5 9208.12 753.125   1
  -6   3  -5 9345.29 714.768   3
   6  -3   6-51.7550 112.309   1
  -6   3  -6 122.968 147.766   3
   6  -3   7 4344.81 512.738   1
  -6   3  -7 6034.96 669.017   3
   6  -3   8 1027.35 254.492   1
  -6   3  -8 1288.15 321.048   3
   6  -3   9 913.168 251.370   1
  -6   3  -9 513.224 246.248   3
  -6   3 -10 111.547 180.387   3
  -6   3 -11 30.3803 148.157   3
   6  -2 -10 164.022 114.797   1
   6  -2  -9 221.601 176.943   1
   6  -2  -9 57.7935 72.0568   3
   6  -2  -8 110.094 139.172   1
   6  -2  -8 6.91704 78.3976   3
   6  -2  -7 4134.05 550.698   1
   6  -2  -7 4114.37 378.409   3
   6  -2  -6 466.736 181.659   1
   6  -2  -6 445.856 113.282   3
   6  -2  -5 7260.00 700.899   1
   6  -2  -5 6356.23 350.324   3
   6  -2  -4 26025.4 565.200   3
   6  -2  -4 23072.5 507.776   3
   6  -2  -3 693.284 211.646   1
   6  -2  -2-68.2825 107.836   1
   6  -2  -1 618.077 192.359   1
   6  -2  -1 460.601 70.7516   3
   6  -2   0 3645.66 489.864   1
   6  -2   0 3376.75 251.742   3
  -6   2  -1 51.1363 42.9652   3
   6  -2   1 22.3464 50.4759   3
   6  -2   1-23.9696 76.8084   1
  -6   2  -2-240.467 142.822   3
   6  -2   2-108.570 148.033   1
   6  -2   2-1.08293 46.5114   3
   6  -2   3 14672.2 981.094   1
   6  -2   3 15260.4 802.567   3
  -6   2  -4 57.2988 67.2635   3
   6  -2   4 67.3657 116.737   1
   6  -2   4 64.0072 80.2407   3
   6  -2   5 375.107 148.869   3
  -6   2  -5 526.872 194.968   3
   6  -2   5 38.0859 146.812   1
   6  -2   6 1374.39 293.408   1
  -6   2  -6 2287.07 402.886   3
   6  -2   7 899.076 232.173   1
  -6   2  -7 1577.47 369.526   3
   6  -2   7 1731.21 356.868   2
   6  -2   8 3590.17 472.873   1
  -6   2  -8 4608.57 640.044   3
   6  -2   9 492.148 182.798   1
  -6   2  -9 155.136 157.638   3
  -6   2 -10 399.029 231.952   3
  -6   2 -11 259.168 219.012   3
   6  -1 -10-159.497 147.845   1
   6  -1 -10-42.1753 87.6218   3
   6  -1  -9 51.8925 86.2975   1
   6  -1  -9 35.1937 97.7195   3
   6  -1  -8 1800.49 351.367   1
   6  -1  -8 1564.92 276.062   3
   6  -1  -7 68.2109 71.3921   1
   6  -1  -7 354.604 135.364   3
   6  -1  -6-112.805 123.491   1
   6  -1  -6 81.1458 76.3606   3
   6  -1  -5 154.231 71.2365   3
   6  -1  -5 16.6615 113.638   1
   6  -1  -4 8516.05 755.829   1
   6  -1  -4 9234.17 490.823   3
   6  -1  -3 1793.15 205.225   3
   6  -1  -3 1964.70 388.527   1
   6  -1  -2 4942.17 585.787   1
   6  -1  -2 4111.69 298.991   3
   6  -1  -1 675.093 122.565   3
   6  -1  -1 1232.50 299.544   1
   6  -1   0 9985.42 838.431   1
   6  -1   0 9374.55 543.531   3
  -6   1  -1 89.1156 84.2695   3
   6  -1   1 94.2590 124.169   1
   6  -1   1 111.560 66.5197   3
   6  -1   2-140.414 186.019   1
   6  -1   2-185.492 121.777   3
   6  -1   3 187.686 115.288   1
   6  -1   3 553.202 162.615   3
  -6   1  -4 147.789 134.975   3
   6  -1   4 16.4885 61.0020   3
  -6   1  -5 109.609 80.7388   3
   6  -1   5 196.874 168.837   1
  -6   1  -6 15.0204 95.5412   3
   6  -1   6 35.3147 93.2212   1
  -6   1  -7 433.787 209.043   3
   6  -1   7 140.214 89.0465   1
  -6   1  -8 15.3269 165.762   3
   6  -1   8 81.5859 89.1788   1
  -6   1  -9 279.213 88.7936   3
  -6   1 -10 70.3303 101.082   3
   6   0 -11 240.857 201.784   3
   6   0 -10 316.450 190.340   1
   6   0 -10 104.805 121.709   3
   6   0  -9 87.0991 79.9135   1
   6   0  -9 241.387 127.271   3
   6   0  -8 293.666 142.701   1
   6   0  -8 97.9380 59.4709   3
   6   0  -7 1019.81 203.440   3
   6   0  -7 1289.08 312.855   1
   6   0  -6 1936.92 380.580   1
   6   0  -5 4074.86 550.979   1
   6   0  -4 6379.16 666.677   1
  -6   0   4 7588.15 743.536   2
   6   0  -4 7121.20 522.275   3
   6   0  -3 9729.73 846.742   1
  -6   0   3 10159.4 841.216   2
   6   0  -3 9482.82 593.058   3
  -6   0   2-43.7780 121.667   2
   6   0  -2 23.8270 81.6438   3
  -6   0   1 111.647 76.2624   2
   6   0  -1 96.5743 48.4762   3
  -6   0   0 743.741 230.541   2
   6   0   0 698.341 186.719   3
  -6   0  -1 1109.51 284.222   2
   6   0   1 1435.99 275.276   3
  -6   0  -2 4186.97 523.117   2
  -6   0  -2 4909.42 521.242   3
   6   0   2 4860.45 523.481   3
  -6   0  -3 2518.74 382.962   3
   6   0   3 1886.55 340.850   3
  -6   0  -4 54.2497 101.185   3
  -6   0  -5 106.011 153.783   3
  -6   0  -6 564.919 221.504   3
   6   0   7-66.5982 98.3038   1
  -6   0  -7 50.4164 132.193   3
  -6   0  -8 1471.54 382.174   3
   6   0   8 854.227 242.731   1
  -6   0  -9 472.068 203.365   3
  -6   0 -10-152.943 166.610   3
   6   1 -11 464.732 204.939   1
   6   1 -11 623.056 253.252   3
   6   1 -10 367.932 140.576   1
   6   1 -10 276.372 168.325   3
   6   1  -9 350.742 136.930   3
   6   1  -9 424.156 219.080   1
   6   1  -8 1511.20 335.734   1
  -6  -1   7 788.676 266.890   2
   6   1  -7 1102.54 303.585   1
   6   1  -6 9774.22 874.754   1
  -6  -1   6 10308.0 917.714   2
  -6  -1   5 1196.62 337.991   2
  -6  -1   4 15774.3 1108.66   2
   6   1  -4 13795.5 840.702   3
  -6  -1   3 201.385 177.686   2
   6   1  -3 120.972 86.4178   3
  -6  -1   2 10627.7 905.132   2
   6   1  -2 10714.7 759.260   3
  -6  -1   1 2830.74 461.792   2
   6   1  -1 3070.05 401.570   3
  -6  -1   0 17.6562 161.432   2
   6   1   0-108.265 141.166   3
  -6  -1  -1 7792.83 763.790   2
   6   1   1 6344.21 637.482   3
  -6  -1  -2-168.688 186.609   2
  -6  -1  -2 39.3145 102.185   3
   6   1   2 194.459 159.774   3
  -6  -1  -3 5342.44 642.805   2
  -6  -1  -3 5361.56 630.686   3
  -6  -1  -4 521.738 197.560   2
  -6  -1  -4 472.502 204.913   3
  -6  -1  -5 970.227 309.470   3
  -6  -1  -6 254.806 173.359   3
  -6  -1  -7 241.000 145.763   3
  -6  -1  -8-36.9535 115.662   3
  -6  -1  -9-64.1272 150.526   3
   6   2 -12-92.1342 154.142   3
   6   2 -11 51.5076 120.380   3
   6   2 -11-240.496 163.133   1
   6   2 -10 1573.71 356.738   3
   6   2 -10 1208.10 309.204   1
  -6  -2   9-74.9337 134.790   2
   6   2  -9-134.925 138.186   1
  -6  -2   8 324.815 187.124   2
   6   2  -8 520.356 235.494   1
  -6  -2   7-146.247 131.425   2
  -6  -2   6 10479.8 958.769   2
  -6  -2   5 7221.13 794.512   2
   6   2  -5 7063.09 676.134   3
  -6  -2   4 2059.53 439.158   2
   6   2  -4 2077.83 362.105   3
  -6  -2   3 598.556 242.581   2
   6   2  -3 147.718 137.546   3
  -6  -2   2 17871.6 1193.11   2
   6   2  -2 13133.2 940.463   3
  -6  -2   1 10771.7 929.162   2
   6   2  -1 9632.63 807.608   3
  -6  -2   0 11179.9 939.926   2
   6   2   0 11860.0 924.898   3
  -6  -2  -1 91.3487 120.107   2
  -6  -2  -2 1736.59 369.986   2
  -6  -2  -3 449.821 217.045   2
  -6  -2  -3 124.492 117.535   3
  -6  -2  -4 201.072 158.437   2
  -6  -2  -4 116.856 166.094   3
  -6  -2  -5 800.175 258.777   2
  -6  -2  -5 951.886 310.711   3
  -6  -2  -6 904.663 312.890   3
  -6  -2  -7 297.277 196.145   3
  -6  -2  -8-28.4262 96.0915   3
   6   3 -12 27.1879 95.2554   3
  -6  -3  11-22.3844 107.435   2
   6   3 -11-167.337 141.453   1
  -6  -3  10 181.107 118.659   2
   6   3 -10 521.341 209.830   1
  -6  -3   9 237.902 150.392   2
   6   3  -9 239.446 163.606   1
  -6  -3   8 1582.92 391.017   2
  -6  -3   7-46.7059 150.959   2
  -6  -3   6-5.85976 155.742   2
  -6  -3   5 4371.75 638.134   2
  -6  -3   4 1327.09 350.066   2
  -6  -3   3 628.182 269.870   2
  -6  -3   2 1365.79 354.344   2
  -6  -3   1 3325.30 528.835   2
  -6  -3   0 14041.9 1094.16   2
  -6  -3  -1 188.108 115.448   2
  -6  -3  -2 2855.24 478.956   2
  -6  -3  -3 155.030 134.744   2
  -6  -3  -3 60.4216 112.970   3
  -6  -3  -4 437.372 225.381   2
  -6  -3  -4 237.596 168.754   3
  -6  -3  -5 100.867 106.607   2
  -6  -3  -5 138.431 169.471   3
  -6  -3  -6-327.581 192.658   2
  -6  -3  -6 41.0177 130.404   3
  -6  -3  -7 239.760 201.960   3
  -6  -4  11 12.7078 123.278   2
   6   4 -11 53.5599 131.090   1
  -6  -4  10 102.285 91.0837   2
  -6  -4   9 13.4871 83.7202   2
  -6  -4   8 463.011 216.253   2
  -6  -4   7 802.271 309.151   2
  -6  -4   6 847.919 307.802   2
  -6  -4   5 13.8824 152.356   2
  -6  -4   4 7265.81 836.166   2
  -6  -4   3 615.835 221.262   2
  -6  -4   2 1134.69 352.390   2
  -6  -4   1 4229.84 632.365   2
  -6  -4   0 665.967 248.679   2
  -6  -4  -1 71.3482 161.906   2
  -6  -4  -2 3856.89 583.150   2
  -6  -4  -3 186.344 147.563   2
  -6  -4  -4 681.330 272.954   2
  -6  -4  -5 81.3466 81.0597   2
  -6  -4  -5 202.348 134.216   3
  -6  -4  -6 930.203 290.933   2
  -6  -5  12 959.690 326.484   2
  -6  -5  11 380.561 186.859   2
  -6  -5  10-66.2967 154.626   2
  -6  -5   9 228.246 179.108   2
  -6  -5   8 235.848 170.290   2
  -6  -5   7 100.939 132.377   2
  -6  -5   6 719.210 271.106   2
  -6  -5   5 1735.93 420.132   2
  -6  -5   4 193.952 149.545   2
  -6  -5   3 48.0166 109.120   2
  -6  -5   2-185.341 129.637   2
  -6  -5   1 159.555 147.313   2
  -6  -5   0 556.218 230.071   2
  -6  -5  -1 198.618 195.630   2
  -6  -5  -2 2238.61 477.407   2
  -6  -5  -3 156.031 175.896   2
  -6  -5  -4 346.531 155.223   2
  -6  -5  -5 219.116 150.335   2
  -6  -6  11-296.506 226.065   2
  -6  -6  10 141.928 148.291   2
  -6  -6   9 435.429 251.333   2
  -6  -6   8 630.958 293.616   2
  -6  -6   7 1304.14 385.515   2
  -6  -6   6 572.887 269.103   2
  -6  -6   5 71.6955 141.627   2
  -6  -6   4 70.6297 121.054   2
  -6  -6   3-478.477 275.814   2
  -6  -6   2-270.515 189.817   2
  -6  -6   1-224.238 219.636   2
  -6  -6   0 40.0567 133.967   2
  -6  -6  -1 322.671 266.585   2
  -6  -6  -2 285.193 185.271   2
  -6  -6  -3-74.8369 95.5776   2
  -6  -6  -4-25.7338 104.120   2
  -6  -7   5 107.497 149.433   2
  -6  -7   4 204.862 140.328   2
  -6  -7   3 152.985 141.263   2
  -6  -7   2 411.591 230.541   2
   7 -11   2 362.748 257.277   1
   7 -11   3-60.7518 163.375   1
   7 -11   4-125.572 113.469   1
   7 -11   5 548.400 277.109   1
   7 -11   6 122.981 215.241   1
   7 -11   7 90.2087 134.383   1
   7 -11   8 519.812 267.845   1
   7 -11   9-68.4592 133.749   1
   7 -10  -2 125.454 120.163   1
   7 -10  -1 22.5937 133.813   1
   7 -10   0 560.913 209.807   1
   7 -10   1 80.4079 113.984   1
   7 -10   2 259.995 223.498   1
   7 -10   3-40.5739 96.9808   1
   7 -10   4 531.698 241.849   1
   7 -10   5 489.655 228.877   1
   7 -10   6-157.023 169.930   1
   7 -10   7 320.666 218.450   1
   7 -10   8 35.0215 113.890   1
   7 -10   9 190.110 221.078   1
   7  -9  -4-30.2022 135.349   1
   7  -9  -3 779.962 302.455   1
   7  -9  -2 88.3517 122.570   1
   7  -9  -1-132.360 129.527   1
   7  -9   0 298.694 153.245   1
   7  -9   1 123.144 117.339   1
   7  -9   2 1565.47 414.652   1
   7  -9   3-113.011 177.314   1
   7  -9   4 786.413 276.647   1
   7  -9   5-190.961 145.853   1
   7  -9   6 461.054 230.265   1
  -7   9  -6 704.366 229.979   3
   7  -9   7 1181.95 343.236   1
  -7   9  -7 1561.85 352.237   3
   7  -9   8 1214.74 341.700   1
  -7   9  -8 1478.12 366.125   3
   7  -9   9 903.128 304.818   1
  -7   9  -9 812.401 316.707   3
  -7   9 -10 1010.36 344.019   3
  -7   9 -11 521.271 291.387   3
   7  -8  -7-25.9230 125.540   1
   7  -8  -6 157.120 206.850   1
   7  -8  -5 400.190 236.206   1
   7  -8  -4 65.6418 96.6929   1
   7  -8  -3 715.463 294.530   1
   7  -8  -2 1076.41 341.882   1
   7  -8  -1 1229.74 392.157   1
   7  -8   0 923.473 324.350   1
   7  -8   1-200.620 234.566   1
   7  -8   2 2633.05 506.347   1
   7  -8   3 255.898 188.492   1
   7  -8   4 1714.97 401.590   1
  -7   8  -4 2915.96 354.226   3
   7  -8   5 609.127 222.393   1
   7  -8   6 2919.49 521.858   1
  -7   8  -6 2846.06 422.223   3
   7  -8   7 473.119 239.422   1
  -7   8  -7 877.827 247.192   3
   7  -8   8 2018.63 428.731   1
  -7   8  -8 1982.30 406.717   3
  -7   8  -9 229.795 174.288   3
   7  -8   9 135.830 145.416   1
  -7   8 -10 727.812 284.346   3
  -7   8 -11 2069.83 514.216   3
   7  -7  -8 47.3664 135.048   1
   7  -7  -7 110.591 151.286   1
   7  -7  -6-133.502 120.129   1
   7  -7  -5 362.154 190.592   1
   7  -7  -4 171.696 98.1470   1
   7  -7  -3 74.2548 151.473   1
   7  -7  -2-111.205 117.656   1
   7  -7  -1 3603.96 574.187   1
   7  -7   0 173.861 93.2805   1
   7  -7   1 1499.92 369.413   1
   7  -7   2 155.880 147.345   1
  -7   7  -2 47.7255 35.3282   3
   7  -7   3-44.0104 158.598   1
  -7   7  -3 75.3364 68.5834   3
   7  -7   4 776.914 271.018   1
  -7   7  -4 46.8563 58.3618   3
   7  -7   5 178.888 135.269   1
   7  -7   6 1657.57 373.104   1
  -7   7  -6 1846.53 340.009   3
   7  -7   7 249.556 167.319   1
  -7   7  -7 113.480 114.906   3
   7  -7   8 1342.90 339.677   1
  -7   7  -8 1353.68 338.273   3
   7  -7   9 342.975 171.456   1
  -7   7  -9 210.106 110.893   3
  -7   7 -10 678.021 262.939   3
  -7   7 -11 80.7527 107.128   3
  -7   7 -12 315.273 240.364   3
   7  -6  -9 504.812 244.456   1
   7  -6  -8 456.102 254.483   1
   7  -6  -7-42.4405 138.139   1
   7  -6  -6 47.1546 129.414   1
   7  -6  -5 21.2860 133.607   1
   7  -6  -4 605.248 247.957   1
   7  -6  -3 292.573 200.091   1
   7  -6  -2 365.728 145.337   1
   7  -6  -1 2559.44 486.693   1
   7  -6   0 1709.64 401.539   1
   7  -6   1 784.009 243.682   1
  -7   6  -2 10.5404 13.7035   3
   7  -6   2 100.979 128.616   1
   7  -6   3 32.5594 102.590   1
  -7   6  -3 95.6612 69.6491   3
   7  -6   4 609.283 233.468   1
  -7   6  -4 11.2577 75.1464   3
   7  -6   5 1080.57 311.476   1
  -7   6  -6 142.033 99.4057   3
   7  -6   6 135.932 148.759   1
  -7   6  -7 510.945 193.670   3
   7  -6   7 843.265 277.857   1
   7  -6   8 448.812 181.867   1
  -7   6  -8 344.860 182.203   3
   7  -6   9-23.6147 124.157   1
  -7   6  -9 234.003 194.232   3
  -7   6 -10 267.849 224.074   3
  -7   6 -11 41.4250 122.708   3
   7  -5  -9 143.077 168.957   1
   7  -5  -8 1366.02 353.272   1
   7  -5  -7 362.600 215.912   1
   7  -5  -6 100.247 141.175   1
   7  -5  -5 324.675 138.419   1
   7  -5  -4 3157.95 542.479   1
   7  -5  -3 2264.30 427.787   1
   7  -5  -2 424.773 219.860   1
   7  -5  -1 8517.87 841.238   1
   7  -5   0-73.3177 94.5131   1
   7  -5   1-147.195 130.830   1
  -7   5  -2 1396.67 138.329   3
   7  -5   2 1427.26 326.390   1
   7  -5   3-47.1932 161.540   1
  -7   5  -3 131.919 70.9816   3
   7  -5   4 1309.03 338.058   1
  -7   5  -4 27.7078 50.6071   3
   7  -5   5 1755.99 382.563   1
   7  -5   6 40.1156 81.0155   1
  -7   5  -6 7.44487 87.0049   3
   7  -5   7 629.803 209.555   1
  -7   5  -7 841.225 246.799   3
   7  -5   8 96.2757 111.610   1
  -7   5  -8-33.7943 101.961   3
  -7   5  -9 734.449 281.130   3
   7  -5   9 1142.82 305.691   1
  -7   5 -10 407.226 223.114   3
  -7   5 -11 1152.54 359.440   3
   7  -4  -9 141.154 123.205   1
   7  -4  -8 123.105 122.201   1
   7  -4  -7 13.6265 86.3202   1
   7  -4  -6 594.231 221.548   1
   7  -4  -5-53.3397 136.727   1
   7  -4  -4 55.5091 85.4120   1
   7  -4  -3 3243.82 521.966   1
   7  -4  -2 9343.96 874.017   1
   7  -4  -1 20384.8 1265.93   1
   7  -4   0 427.598 226.422   1
   7  -4   1 4992.91 612.132   1
   7  -4   2 3631.44 564.282   1
  -7   4  -2 2923.61 262.739   3
   7  -4   3 410.052 204.549   1
  -7   4  -3 501.485 147.576   3
   7  -4   4 343.884 215.913   1
   7  -4   5 1369.30 333.052   1
  -7   4  -5 1263.80 274.897   3
   7  -4   6 109.131 95.1540   1
  -7   4  -6-95.1316 121.642   3
   7  -4   7 144.208 172.453   1
  -7   4  -7 30.9985 67.8883   3
   7  -4   8 287.715 137.180   1
  -7   4  -8 121.448 127.210   3
  -7   4  -9 879.427 289.052   3
  -7   4 -10 557.353 243.512   3
  -7   4 -11 490.485 275.592   3
   7  -3 -10 99.1923 144.299   1
   7  -3  -9-200.202 153.633   1
   7  -3  -8-24.3715 99.5544   1
   7  -3  -7 633.608 216.107   1
   7  -3  -6 2113.49 422.260   1
   7  -3  -5 4670.74 617.955   1
   7  -3  -4 2597.79 462.620   1
   7  -3  -3 735.126 233.168   1
   7  -3  -2 2984.35 449.469   1
   7  -3  -1 128.427 99.7991   1
   7  -3   0 2174.61 396.212   1
   7  -3   1 2059.75 402.875   1
   7  -3   2 19918.4 1241.11   1
  -7   3  -2 15299.3 703.910   3
   7  -3   3 1391.30 331.509   1
  -7   3  -3 15.5150 37.1329   3
   7  -3   4 5032.22 620.689   1
   7  -3   5 841.801 241.944   1
  -7   3  -5 1076.42 270.086   3
   7  -3   6-136.740 112.729   1
  -7   3  -6 26.2772 80.6586   3
   7  -3   7 162.881 86.8765   1
  -7   3  -7-151.790 140.386   3
   7  -3   8 176.226 127.968   1
  -7   3  -8 84.1250 82.2224   3
  -7   3  -9 40.6327 104.572   3
  -7   3 -10 417.536 277.210   3
  -7   3 -11 214.140 185.900   3
   7  -2 -10 198.083 148.491   1
   7  -2  -9 125.047 91.7888   1
   7  -2  -8 361.074 199.674   1
   7  -2  -7 228.514 162.590   1
   7  -2  -6 541.474 194.108   1
   7  -2  -6 318.914 87.6070   3
   7  -2  -5 3110.01 194.637   3
   7  -2  -5 2752.30 173.918   3
   7  -2  -4 272.631 145.195   1
   7  -2  -3-16.4120 128.667   1
   7  -2  -2 371.223 152.147   1
   7  -2  -1 2010.62 400.977   1
   7  -2  -1 1193.21 130.710   3
   7  -2   0 470.594 171.784   1
   7  -2   0 707.397 131.460   3
   7  -2   1 1647.17 226.896   3
   7  -2   1 1523.47 335.598   1
  -7   2  -2-43.0562 40.4404   3
   7  -2   2 53.7391 77.5573   3
   7  -2   3 1420.14 350.244   1
   7  -2   3 1249.65 243.746   3
  -7   2  -4 420.999 162.237   3
   7  -2   4 400.735 139.931   1
   7  -2   4 176.654 105.862   3
   7  -2   5 1423.40 341.382   1
  -7   2  -5 1274.27 299.567   3
   7  -2   6 1227.12 318.812   1
  -7   2  -6 968.817 274.187   3
   7  -2   7 144.953 101.562   1
  -7   2  -7-155.612 151.506   3
   7  -2   8 191.223 145.652   1
  -7   2  -8-52.7094 104.346   3
  -7   2  -9 34.9837 131.373   3
  -7   2 -10 587.610 275.634   3
   7  -1 -10 140.254 160.369   1
   7  -1  -9 100.633 165.097   1
   7  -1  -8 534.047 209.366   1
   7  -1  -7 256.721 170.578   1
   7  -1  -7 97.8085 80.3667   3
   7  -1  -6 5400.61 667.089   1
   7  -1  -6 4950.38 387.058   3
   7  -1  -5 1713.05 376.336   1
   7  -1  -5 1856.89 231.694   3
   7  -1  -5 1493.67 191.335   3
   7  -1  -4 1226.37 178.848   3
   7  -1  -4 1601.32 371.094   1
   7  -1  -3 45.4112 56.2215   3
   7  -1  -3 219.427 162.905   1
   7  -1  -2 6191.78 720.775   1
   7  -1  -2 5333.53 378.318   3
   7  -1  -1 1036.08 180.443   3
   7  -1  -1 1026.25 305.220   1
   7  -1   0 1973.26 275.752   3
   7  -1   0 1845.73 405.549   1
   7  -1   1 1277.34 318.806   1
   7  -1   1 1056.46 205.407   3
   7  -1   2 3703.06 556.452   1
   7  -1   2 3615.36 440.259   3
  -7   1  -3 2633.97 396.785   3
   7  -1   3 2577.68 407.087   3
   7  -1   3 2695.55 485.056   1
  -7   1  -4 661.681 211.637   3
   7  -1   4 726.009 259.444   1
   7  -1   5 3402.34 535.951   1
  -7   1  -5 2996.02 482.891   3
  -7   1  -6 1327.99 357.648   3
   7  -1   6 1320.17 341.713   1
  -7   1  -7 1102.82 317.383   3
   7  -1   7 1095.55 321.272   1
  -7   1  -8 553.536 243.934   3
   7  -1   8 678.128 242.885   1
  -7   1  -9 334.132 178.043   3
   7   0 -10 140.403 162.241   1
   7   0  -9 751.238 247.601   1
   7   0  -8 537.481 217.758   1
   7   0  -8 515.747 158.707   3
   7   0  -7 451.806 148.169   3
   7   0  -7 238.639 127.594   1
   7   0  -6-20.5235 131.703   1
   7   0  -5 154.762 119.363   3
   7   0  -5 68.9097 112.891   1
   7   0  -4 5802.67 723.358   1
   7   0  -4 4962.36 452.419   3
   7   0  -3 10082.7 941.700   1
   7   0  -3 9357.63 616.924   3
   7   0  -2 1220.48 216.003   3
   7   0  -2 1598.90 391.107   1
   7   0  -1-12.4962 150.222   1
   7   0  -1-30.4324 90.1996   3
   7   0   0 3619.29 435.359   3
   7   0   1 3692.51 469.978   3
  -7   0  -2 1657.52 321.017   3
   7   0   2 1157.22 264.681   3
  -7   0  -3 58.0163 87.6030   3
  -7   0  -4 1503.28 337.834   3
   7   0   5 1559.76 390.409   1
  -7   0  -5 1364.59 331.858   3
  -7   0  -6 371.347 182.277   3
   7   0   6 559.276 243.898   1
  -7   0  -7 1193.67 363.342   3
   7   0   7 1592.17 390.456   1
  -7   0  -8 850.174 339.678   3
  -7   0  -9 59.4875 177.234   3
   7   1 -10 39.5392 79.6537   1
   7   1  -9-21.9832 85.2892   3
   7   1  -9-148.365 179.769   1
   7   1  -8 129.003 135.580   1
   7   1  -7 509.525 226.199   1
  -7  -1   6-153.660 137.678   2
   7   1  -6 83.6561 111.051   1
   7   1  -5 3824.28 608.164   1
  -7  -1   5 3475.51 573.468   2
   7   1  -5 3511.00 447.043   3
  -7  -1   4-16.9590 134.489   2
   7   1  -4-115.971 99.9399   3
  -7  -1   3 1253.72 345.708   2
   7   1  -3 1065.62 259.338   3
  -7  -1   2 431.560 183.869   2
   7   1  -2 575.178 173.814   3
  -7  -1   1-44.6780 152.411   2
   7   1  -1-95.2134 126.852   3
  -7  -1   0 3426.76 532.392   2
   7   1   0 3134.95 462.523   3
  -7  -1  -1 3397.00 543.164   2
  -7  -1  -2-33.7776 125.395   2
  -7  -1  -3 1032.74 313.937   2
  -7  -1  -3 1103.92 308.596   3
  -7  -1  -4 294.933 194.897   3
  -7  -1  -5 27.1703 89.8344   3
  -7  -1  -6 21.9585 105.087   3
  -7  -1  -7-67.6602 142.029   3
  -7  -1  -8 70.6759 119.745   3
   7   2 -10-155.440 172.827   1
   7   2  -9 447.674 211.421   1
  -7  -2   8-77.4203 126.025   2
   7   2  -8 310.979 208.916   1
  -7  -2   7-24.9952 90.9892   2
   7   2  -7-249.087 173.782   1
  -7  -2   6-129.679 163.408   2
  -7  -2   5-59.5558 133.373   2
  -7  -2   4 1319.77 366.019   2
  -7  -2   3 5063.14 698.967   2
   7   2  -3 5552.13 646.052   3
  -7  -2   2 165.152 205.965   2
  -7  -2   1 565.405 247.081   2
  -7  -2   0 2292.72 464.724   2
  -7  -2  -1 2515.71 489.829   2
  -7  -2  -2 2137.15 441.544   2
  -7  -2  -3 5.56900 109.822   2
  -7  -2  -4 1093.84 339.098   2
  -7  -2  -4 776.368 290.787   3
  -7  -2  -5 155.438 190.359   3
  -7  -2  -6 62.2396 155.322   3
  -7  -2  -7 111.298 183.406   3
   7   3 -11-236.188 154.272   1
  -7  -3  10 144.730 146.140   2
   7   3 -10-207.246 196.161   1
  -7  -3   9-51.0272 81.8625   2
   7   3  -9 39.0721 110.853   1
  -7  -3   8 205.078 143.256   2
  -7  -3   7 52.5807 132.556   2
  -7  -3   6 1084.30 341.143   2
  -7  -3   5 123.832 199.009   2
  -7  -3   4 2916.34 568.421   2
  -7  -3   3 4750.96 698.828   2
  -7  -3   2 1548.94 402.312   2
  -7  -3   1-16.0992 137.066   2
  -7  -3   0 0.38047 130.518   2
  -7  -3  -1 1335.03 369.378   2
  -7  -3  -2 35.0746 87.1800   2
  -7  -3  -3 410.279 198.522   2
  -7  -3  -4 63.8675 123.259   2
  -7  -3  -5 183.718 172.064   2
  -7  -3  -5 65.9039 119.406   3
  -7  -4  11 286.197 192.785   2
   7   4 -11-100.593 139.613   1
  -7  -4  10 142.616 149.528   2
   7   4 -10 254.431 193.186   1
  -7  -4   9 272.547 202.643   2
  -7  -4   8 365.455 236.860   2
  -7  -4   7 621.572 281.767   2
  -7  -4   6 2093.32 493.713   2
  -7  -4   5 1316.16 366.836   2
  -7  -4   4 2192.12 497.489   2
  -7  -4   3-83.2626 153.112   2
  -7  -4   2 2557.59 525.005   2
  -7  -4   1 1136.01 350.029   2
  -7  -4   0 59.9334 138.780   2
  -7  -4  -1-44.5092 150.416   2
  -7  -4  -2 601.700 254.617   2
  -7  -4  -3-69.2448 137.991   2
  -7  -4  -4 230.823 145.737   2
  -7  -4  -5 194.192 142.626   2
  -7  -5   9 346.089 204.351   2
  -7  -5   8 641.739 278.628   2
  -7  -5   7 32.6962 160.041   2
  -7  -5   6-88.9769 149.284   2
  -7  -5   5 262.663 241.297   2
  -7  -5   4 575.115 292.564   2
  -7  -5   3 230.437 203.523   2
  -7  -5   2 1005.33 354.388   2
  -7  -5   1 228.400 197.009   2
  -7  -5   0 186.475 187.827   2
  -7  -5  -1 238.711 168.806   2
  -7  -5  -2 184.933 170.493   2
  -7  -5  -3 255.711 175.511   2
  -7  -5  -4 278.778 155.191   2
   8 -10   1 665.332 288.475   1
   8 -10   2 32.8856 116.611   1
   8 -10   3 117.768 158.025   1
   8 -10   4 211.521 142.873   1
   8 -10   5 266.693 171.107   1
   8 -10   6 259.434 201.577   1
   8 -10   7 147.296 151.569   1
   8 -10   8 676.849 297.708   1
   8  -9  -2 63.0368 102.543   1
   8  -9  -1 47.0514 85.8900   1
   8  -9   0 247.509 225.129   1
   8  -9   1-76.0357 162.970   1
   8  -9   2 158.306 126.963   1
   8  -9   3 608.337 242.158   1
   8  -9   4 182.478 154.142   1
   8  -9   5 315.695 239.206   1
   8  -9   6 484.168 246.650   1
   8  -9   7 151.916 138.819   1
   8  -9   8 310.555 220.100   1
   8  -8  -5-36.7215 118.588   1
   8  -8  -4 28.9170 107.101   1
   8  -8  -3 114.007 120.485   1
   8  -8  -2 249.214 224.690   1
   8  -8  -1-10.7681 120.059   1
   8  -8   0 1047.15 346.472   1
   8  -8   1 34.2604 89.8975   1
   8  -8   2 397.088 174.504   1
   8  -8   3 705.442 245.405   1
   8  -8   4 781.509 289.174   1
   8  -8   5 2417.30 484.448   1
   8  -8   6 401.558 211.497   1
   8  -8   7 264.130 187.361   1
   8  -8   8 327.864 180.559   1
   8  -7  -7 177.897 180.663   1
   8  -7  -6-132.985 187.588   1
   8  -7  -5-21.8710 113.216   1
   8  -7  -4 875.205 304.960   1
   8  -7  -3 209.173 218.428   1
   8  -7  -2 1529.94 398.785   1
   8  -7  -1 471.896 231.582   1
   8  -7   0 2652.65 527.753   1
   8  -7   1 351.388 188.307   1
   8  -7   2-56.3300 126.724   1
   8  -7   3-43.6081 115.100   1
   8  -7   4 1355.65 386.136   1
   8  -7   5 325.763 188.438   1
   8  -7   6 297.434 179.848   1
   8  -7   7 851.901 283.868   1
   8  -7   8 491.608 242.073   1
   8  -6  -8 615.479 331.986   1
   8  -6  -7 429.781 208.996   1
   8  -6  -6 622.685 270.387   1
   8  -6  -5 172.854 205.560   1
   8  -6  -4 150.013 114.388   1
   8  -6  -3 1086.13 337.179   1
   8  -6  -2 185.590 172.477   1
   8  -6  -1 413.145 223.481   1
   8  -6   0 3274.47 560.989   1
   8  -6   1 1129.82 342.097   1
   8  -6   2 1241.12 369.418   1
   8  -6   3 25.9313 123.969   1
   8  -6   4 2672.64 507.241   1
   8  -6   5 161.387 125.395   1
  -8   6  -6 3259.90 460.154   3
   8  -6   6 2535.81 496.192   1
  -8   6  -7 454.019 198.295   3
   8  -6   7 339.152 189.332   1
  -8   6  -8 454.886 225.094   3
   8  -6   8 487.128 232.798   1
  -8   6  -9 483.975 243.467   3
  -8   6 -10 480.020 215.107   3
   8  -5  -9 51.6430 111.143   1
   8  -5  -8 236.189 202.954   1
   8  -5  -7 538.930 251.455   1
   8  -5  -6 705.805 312.107   1
   8  -5  -5 496.324 228.161   1
   8  -5  -4 42.3300 134.822   1
   8  -5  -3 2405.32 499.780   1
   8  -5  -2 2984.61 544.851   1
   8  -5  -1 466.828 241.505   1
   8  -5   0 818.130 318.237   1
   8  -5   1 1993.04 458.293   1
   8  -5   2 5940.70 747.840   1
   8  -5   3 209.100 97.0501   1
   8  -5   4 5289.70 701.052   1
  -8   5  -4 4376.59 419.217   3
   8  -5   5 231.246 181.836   1
  -8   5  -5-29.1221 61.0256   3
   8  -5   6 4774.61 660.966   1
  -8   5  -6 4334.99 523.863   3
   8  -5   7-34.9763 141.722   1
  -8   5  -7 31.2256 87.3556   3
   8  -5   8 1108.99 298.506   1
  -8   5  -8 1127.71 325.108   3
  -8   5  -9 197.831 172.599   3
  -8   5 -10 235.341 252.269   3
   8  -4  -9 425.172 249.839   1
   8  -4  -8 157.637 179.988   1
   8  -4  -7 150.960 159.698   1
   8  -4  -6 205.349 169.981   1
   8  -4  -5 510.641 226.411   1
   8  -4  -4 655.770 255.738   1
   8  -4  -3 376.455 189.785   1
   8  -4  -2 229.716 161.167   1
   8  -4  -1 884.634 272.826   1
   8  -4   0-112.853 119.023   1
   8  -4   1 235.479 171.658   1
   8  -4   2 1138.06 328.733   1
   8  -4   3 137.432 139.115   1
  -8   4  -3 49.4718 57.8915   3
   8  -4   4-107.311 180.754   1
   8  -4   5 381.028 227.916   1
  -8   4  -5 430.495 169.030   3
   8  -4   6 968.886 302.293   1
  -8   4  -6 979.442 258.167   3
   8  -4   7 157.538 119.823   1
  -8   4  -7 21.3166 90.7729   3
   8  -4   8 1505.46 371.211   1
  -8   4  -8 1631.36 384.296   3
  -8   4  -9-81.3805 166.895   3
  -8   4 -10 192.868 188.665   3
   8  -3 -10 18.4233 138.204   1
   8  -3  -9-118.462 138.697   1
   8  -3  -8 1334.88 382.870   1
   8  -3  -7 204.787 119.561   1
   8  -3  -6 380.081 164.274   1
   8  -3  -5 580.483 265.709   1
   8  -3  -4 1249.27 349.321   1
   8  -3  -3 377.651 177.425   1
   8  -3  -2-56.5557 120.854   1
   8  -3  -1 435.992 166.309   1
   8  -3   0 2837.86 522.255   1
   8  -3   1 268.408 145.365   1
   8  -3   2 151.167 170.244   1
   8  -3   3-61.6912 120.901   1
   8  -3   4 779.727 228.127   1
  -8   3  -4 867.694 235.949   3
   8  -3   5 49.6457 80.2129   1
  -8   3  -5-16.2040 127.777   3
   8  -3   6-169.688 150.366   1
  -8   3  -6 165.993 152.988   3
   8  -3   7 452.555 214.908   1
  -8   3  -7 349.394 197.216   3
   8  -3   8 118.145 108.858   1
  -8   3  -8-25.4865 100.353   3
  -8   3  -9 510.881 238.859   3
  -8   3 -10 157.097 205.781   3
   8  -2 -10-318.599 192.358   1
   8  -2  -9-138.355 134.064   1
   8  -2  -8-91.1952 148.675   1
   8  -2  -7 216.848 171.167   1
   8  -2  -6 247.663 182.792   1
   8  -2  -5-108.406 154.926   1
   8  -2  -4-329.645 189.754   1
   8  -2  -3 67.0439 131.664   1
   8  -2  -2 1072.35 334.888   1
   8  -2  -1 331.649 183.316   1
   8  -2   0 4229.69 638.670   1
   8  -2   1-36.2352 175.279   1
   8  -2   2 1901.24 416.532   1
   8  -2   3 819.162 280.941   1
  -8   2  -3 554.201 184.221   3
   8  -2   4 564.802 219.590   1
  -8   2  -4 668.409 216.741   3
   8  -2   5 536.406 254.950   1
  -8   2  -5 326.757 199.803   3
   8  -2   6 337.468 217.803   1
  -8   2  -6 211.295 157.999   3
   8  -2   7 30.1285 108.505   1
  -8   2  -7-108.652 152.628   3
   8  -2   8 191.438 160.813   1
  -8   2  -8 237.135 188.771   3
  -8   2  -9 60.5999 118.895   3
   8  -1 -10 9.38000 85.8250   1
   8  -1  -9 1828.56 431.896   1
   8  -1  -8 313.107 213.778   1
   8  -1  -7 95.4875 152.273   1
   8  -1  -6-38.1953 136.233   1
   8  -1  -5 170.820 148.212   1
   8  -1  -4-47.4217 139.455   1
   8  -1  -3 5269.92 728.595   1
   8  -1  -2 157.297 103.622   1
   8  -1  -1 1038.16 342.398   1
   8  -1   0 438.513 226.272   1
   8  -1   1 35.6019 167.108   1
   8  -1   2 53.7865 179.711   1
  -8   1  -3 1098.60 267.827   3
   8  -1   3 1125.62 353.737   1
  -8   1  -4 42.3064 68.6401   3
   8  -1   4 115.316 122.050   1
  -8   1  -5 150.950 157.081   3
   8  -1   5 354.990 207.704   1
  -8   1  -6 1008.32 325.674   3
   8  -1   6 1130.35 356.152   1
  -8   1  -7 595.798 262.199   3
   8  -1   7 169.641 155.860   1
  -8   1  -8 345.154 197.434   3
   8   0 -10-223.952 168.507   1
   8   0  -9 169.666 177.052   1
   8   0  -8 3.13471 123.959   1
   8   0  -7 1524.98 411.759   1
   8   0  -6 885.763 314.489   1
   8   0  -5 551.277 241.773   1
   8   0  -4 189.129 132.518   1
   8   0  -3 487.837 219.451   1
   8   0  -2 762.136 301.953   1
   8   0  -1 4659.95 699.591   1
   8   0   0-39.2606 101.250   1
   8   0   1 1220.27 374.828   1
   8   0   2 238.106 219.007   1
   8   0   3 4582.27 716.572   1
  -8   0  -4 230.569 173.829   3
   8   0   4 205.899 164.024   1
  -8   0  -5 321.203 157.713   3
   8   0   5-70.7054 136.413   1
  -8   0  -6 337.577 227.456   3
   8   0   6 433.080 245.594   1
  -8   0  -7-26.9835 116.538   3
   8   0   7 22.6068 165.555   1
  -8   0  -8 83.7736 122.679   3
   8   1 -10-319.167 199.853   1
   8   1  -9 495.697 233.421   1
   8   1  -8 656.163 284.786   1
   8   1  -7-20.7555 150.022   1
   8   1  -6 282.327 199.116   1
   8   1  -5 359.719 237.221   1
  -8  -1   4 211.691 170.469   2
   8   1  -4 127.411 175.881   1
  -8  -1   3 149.585 103.152   2
   8   1  -3 95.6721 106.964   1
  -8  -1   2-216.721 240.414   2
  -8  -1   1 1351.06 379.506   2
  -8  -1   0 89.9618 155.004   2
  -8  -1  -1 1020.68 360.401   2
  -8  -1  -4 696.814 284.366   3
   8   1   5 2411.80 549.200   1
  -8  -1  -5 1759.73 434.650   3
   8   1   6 650.919 314.772   1
  -8  -1  -6-6.09477 112.345   3
  -8  -1  -7 543.804 331.810   3
   8   1   7 80.1633 145.475   1
   8   2 -10 292.141 211.014   1
   8   2  -9 1128.03 390.028   1
   8   2  -8-201.153 178.342   1
  -8  -2   7-51.5094 138.116   2
   8   2  -7 52.6800 163.993   1
  -8  -2   6 143.418 100.521   2
   8   2  -6 749.356 318.737   1
  -8  -2   5 50.3608 109.038   2
  -8  -2   4-183.935 170.429   2
  -8  -2   3 27.4066 101.385   2
  -8  -2   2-41.3992 150.255   2
  -8  -2   1 75.1784 104.922   2
  -8  -2   0-64.8349 127.872   2
  -8  -2  -1 2123.12 471.657   2
  -8  -2  -2 28.0466 118.493   2
  -8  -2  -3 629.665 271.143   2
  -8  -2  -5 465.424 204.859   3
   8   3 -10 2723.90 607.037   1
  -8  -3   9 246.372 238.024   2
   8   3  -9 274.025 196.511   1
  -8  -3   8 326.972 231.236   2
   8   3  -8-46.4399 141.509   1
  -8  -3   7 329.401 225.241   2
   8   3  -7 604.100 310.645   1
  -8  -3   6 496.975 224.168   2
  -8  -3   5 451.391 227.376   2
  -8  -3   4 365.812 245.614   2
  -8  -3   3 231.171 188.653   2
  -8  -3   2 637.863 299.786   2
  -8  -3   1 105.016 152.430   2
  -8  -3   0-300.337 232.256   2
  -8  -3  -1 405.380 241.894   2
  -8  -3  -2 129.485 107.350   2
  -8  -3  -3 159.438 164.218   2
  -8  -3  -4-73.3358 92.1577   2
  -8  -4   5 292.082 242.671   2
  -8  -4   4 20.6400 102.565   2
  -8  -4   3 368.635 213.476   2
  -8  -4   2 415.933 196.967   2
  -8  -4   1 22.5918 143.259   2
  -8  -4   0 155.718 256.064   2
   9  -9   2 3347.21 642.450   1
   9  -9   3 1587.51 448.438   1
   9  -9   4 371.057 240.606   1
   9  -9   5-129.233 199.202   1
   9  -9   6 1199.52 371.930   1
   9  -9   7 454.390 274.060   1
   9  -8  -1 514.758 290.239   1
   9  -8   0-86.0447 101.064   1
   9  -8   1 143.026 136.342   1
   9  -8   2 1280.28 382.049   1
   9  -8   3 8.11137 106.441   1
   9  -8   4 830.321 291.793   1
   9  -8   5-0.44509 109.614   1
   9  -8   6 198.093 188.487   1
   9  -8   7 173.998 182.335   1
   9  -8   8 84.5059 106.891   1
   9  -7  -4 488.469 272.644   1
   9  -7  -3 336.410 181.302   1
   9  -7  -2 162.061 203.591   1
   9  -7  -1 824.445 344.468   1
   9  -7   0 603.947 291.198   1
   9  -7   1 165.606 148.296   1
   9  -7   2 905.462 348.926   1
   9  -7   3 281.814 205.036   1
   9  -7   4 539.960 258.342   1
   9  -7   5 193.887 180.661   1
   9  -7   6 553.773 241.347   1
   9  -7   7-101.655 175.015   1
   9  -7   8 381.275 249.440   1
   9  -6  -5 475.071 263.615   1
   9  -6  -4 91.6426 91.8577   1
   9  -6  -3 31.4492 126.180   1
   9  -6  -2-36.8263 97.1389   1
   9  -6  -1 64.3954 120.816   1
   9  -6   0-53.6549 170.051   1
   9  -6   1 1994.96 456.739   1
   9  -6   2 2148.28 482.779   1
   9  -6   3 218.084 154.562   1
   9  -6   4 419.958 227.662   1
   9  -6   5 363.046 204.177   1
   9  -6   6 8.34712 108.178   1
   9  -6   7 171.404 167.449   1
   9  -6   8 224.185 184.436   1
   9  -5  -7 1066.79 397.233   1
   9  -5  -6 970.123 364.799   1
   9  -5  -5 357.010 222.606   1
   9  -5  -4 179.484 159.605   1
   9  -5  -3 31.4260 113.782   1
   9  -5  -2 652.603 283.237   1
   9  -5  -1 362.017 223.245   1
   9  -5   0 74.0349 135.949   1
   9  -5   1 572.031 262.989   1
   9  -5   2 933.017 327.034   1
   9  -5   3 160.690 127.931   1
   9  -5   4 1828.61 461.890   1
   9  -5   5 1132.48 354.267   1
   9  -5   6 1121.21 391.915   1
   9  -5   7 436.799 266.884   1
   9  -5   8 1405.55 402.067   1
   9  -4  -8 174.904 211.907   1
   9  -4  -7 398.600 229.308   1
   9  -4  -6 86.2677 103.858   1
   9  -4  -5-157.009 143.828   1
   9  -4  -4 123.325 148.596   1
   9  -4  -3 590.561 281.152   1
   9  -4  -2 389.849 221.416   1
   9  -4  -1 316.863 200.174   1
   9  -4   0 990.892 335.962   1
   9  -4   1 25.2261 120.961   1
   9  -4   2 990.829 318.404   1
   9  -4   3 391.974 252.780   1
   9  -4   4 2258.24 482.300   1
   9  -4   5 410.848 196.192   1
   9  -4   6 1502.91 424.563   1
   9  -4   7 1487.24 412.895   1
   9  -3  -9-4.90835 162.813   1
   9  -3  -8 71.0882 142.699   1
   9  -3  -7-12.3068 137.930   1
   9  -3  -6 1517.87 423.933   1
   9  -3  -5 327.100 240.193   1
   9  -3  -4-240.827 228.349   1
   9  -3  -3 37.1630 107.885   1
   9  -3  -2 105.369 135.331   1
   9  -3  -1 488.725 242.909   1
   9  -3   0-58.0371 172.893   1
   9  -3   1 531.584 211.121   1
   9  -3   2-10.0344 101.234   1
   9  -3   3-152.750 222.560   1
   9  -3   4 633.083 264.564   1
   9  -3   5 11.8965 85.4591   1
   9  -3   6 445.128 198.173   1
   9  -3   7 243.549 237.619   1
   9  -2  -9 479.031 255.166   1
   9  -2  -8 146.948 169.613   1
   9  -2  -7 275.619 219.368   1
   9  -2  -6-23.9798 95.2614   1
   9  -2  -5 1243.71 384.541   1
   9  -2  -4 443.243 264.945   1
   9  -2  -3 1545.82 429.286   1
   9  -2  -2 396.597 195.708   1
   9  -2  -1 184.018 158.130   1
   9  -2   0 340.419 213.059   1
   9  -2   1 1033.83 343.217   1
   9  -2   2 25.9828 97.2246   1
   9  -2   3 837.497 313.609   1
   9  -2   4 221.057 177.863   1
   9  -2   5 2025.14 484.799   1
   9  -2   6-651.652 281.036   1
   9  -2   7 56.7755 104.708   1
   9  -1  -9-211.750 179.048   1
   9  -1  -8 624.435 254.067   1
   9  -1  -7-95.9499 122.765   1
   9  -1  -6-263.728 242.604   1
   9  -1  -5 144.963 125.117   1
   9  -1  -4 122.299 154.575   1
   9  -1  -3 305.248 208.457   1
   9  -1  -2 433.576 251.867   1
   9  -1  -1 96.2711 177.033   1
   9  -1   0-5.49111 155.284   1
   9  -1   1 329.729 205.136   1
   9  -1   2 151.205 177.166   1
   9  -1   3 379.644 227.086   1
   9  -1   4 225.883 194.669   1
   9  -1   5 1100.43 372.792   1
   9  -1   6 296.412 195.215   1
   9   0  -9 80.0078 122.556   1
   9   0  -8 60.0619 146.138   1
   9   0  -7 174.637 153.925   1
   9   0  -6-167.736 188.623   1
   9   0  -5 703.485 275.277   1
   9   0  -4 107.338 89.5718   1
   9   0  -3 423.611 221.939   1
   9   0  -2-128.689 151.101   1
   9   0  -1 177.060 214.754   1
   9   0   0 226.804 196.451   1
   9   0   1 124.930 145.608   1
   9   0   2 342.897 212.173   1
   9   0   3 66.0176 180.602   1
   9   0   4 414.712 216.582   1
  -9   0  -5 348.840 170.535   3
   9   0   5-24.7019 267.594   1
   9   0   6 407.152 307.503   1
   9   1  -7 83.8691 154.228   1
   9   1  -6 33.0387 121.630   1
   9   1  -5 365.823 237.490   1
   9   1  -4 127.956 199.713   1
   9   1  -3 313.287 239.236   1
   9   1  -2-29.0812 142.070   1
   9   1  -1-42.9742 127.924   1
   9   1   0 906.001 375.308   1
   9   1   1 132.562 225.477   1
   9   1   2 136.837 217.417   1
   9   1   3-263.866 268.813   1
  -9  -2   2 700.661 263.714   2
  -9  -2   1 876.619 341.355   2
  10  -6   1-151.038 229.092   1
  10  -6   2 1039.41 302.720   1
  10  -6   3 118.524 139.319   1
  10  -6   4 114.731 122.275   1
  10  -6   5-270.384 293.640   1
  10  -6   6 70.6115 241.709   1
  10  -5  -1 368.248 185.592   1
  10  -5   0 145.810 218.479   1
  10  -5   1 359.475 251.658   1
  10  -5   2 163.130 139.163   1
  10  -5   3 604.410 274.189   1
  10  -5   4-273.743 210.685   1
  10  -5   5-714.468 310.463   1
  10  -5   6 94.3887 217.935   1
  10  -4  -2 613.476 321.872   1
  10  -4  -1 464.967 251.441   1
  10  -4   0 772.141 340.582   1
  10  -4   1 1035.71 373.078   1
  10  -4   2 32.5242 99.1664   1
  10  -4   3 1183.47 391.827   1
  10  -4   4 189.189 155.752   1
  10  -4   5 724.405 333.637   1
  10  -4   6-318.714 223.941   1
  10  -3  -3-102.944 130.637   1
  10  -3  -2-52.5487 156.953   1
  10  -3  -1 807.914 324.544   1
  10  -3   0 432.727 256.810   1
  10  -3   1 41.9328 152.587   1
  10  -3   2 143.243 203.334   1
  10  -3   3 146.722 214.975   1
  10  -3   4 519.174 256.314   1
  10  -3   5 375.005 268.593   1
  10  -2  -2-28.4421 125.171   1
  10  -2  -1-220.437 252.810   1
  10  -2   0-52.1566 192.477   1
  10  -2   1-75.1467 113.968   1
  10  -2   2 1389.36 444.354   1
   0   0   0    0.00    0.00   0
;
_shelx_hkl_checksum              50866
_olex2_submission_special_instructions 'No special instructions were received'
loop_
_space_group_symop_operation_xyz
'x, y, z'
'-x, -y, -z'
loop_
_atom_site_label
_atom_site_type_symbol
_atom_site_fract_x
_atom_site_fract_y
_atom_site_fract_z
_atom_site_U_iso_or_equiv
_atom_site_adp_type
_atom_site_occupancy
_atom_site_site_symmetry_order
_atom_site_calc_flag
_atom_site_refinement_flags_posn
S1 S 0.27622(16) 0.59861(14) 0.72444(12) 0.0710(5) Uani 1 1 d .
O1 O 1.0894(4) 0.3242(4) 0.3797(3) 0.0701(9) Uani 1 1 d .
O2 O 1.0295(4) 0.2215(4) 0.5290(3) 0.0679(9) Uani 1 1 d .
N1 N 0.6659(4) 0.4565(4) 0.7272(3) 0.0477(8) Uani 1 1 d .
H1 H 0.741830 0.528914 0.708886 0.057 Uiso 1 1 calc R
C1 C 0.3249(7) 0.7886(5) 0.7806(4) 0.0653(12) Uani 1 1 d .
H1A H 0.250862 0.839499 0.766693 0.078 Uiso 1 1 calc R
C2 C 0.4858(7) 0.8618(5) 0.8496(4) 0.0632(12) Uani 1 1 d .
H2 H 0.533548 0.968621 0.884467 0.076 Uiso 1 1 calc R
C3 C 0.5748(5) 0.7622(4) 0.8640(3) 0.0404(8) Uani 1 1 d .
H3A H 0.592785 0.773373 0.951241 0.049 Uiso 1 1 calc R
H3B H 0.688172 0.787810 0.833943 0.049 Uiso 1 1 calc R
C4 C 0.4673(5) 0.6049(4) 0.7922(3) 0.0455(9) Uani 1 1 d .
C5 C 0.5125(5) 0.4649(4) 0.7727(3) 0.0429(9) Uani 1 1 d .
C6 C 0.4263(5) 0.3273(4) 0.7912(3) 0.0433(9) Uani 1 1 d .
C7 C 0.5345(5) 0.2341(5) 0.7525(3) 0.0492(9) Uani 1 1 d .
H7 H 0.509180 0.133791 0.752663 0.059 Uiso 1 1 calc R
C8 C 0.6810(5) 0.3166(5) 0.7152(3) 0.0485(9) Uani 1 1 d .
C9 C 0.2623(5) 0.2814(4) 0.8455(3) 0.0429(9) Uani 1 1 d .
C10 C 0.2126(5) 0.3855(5) 0.9413(3) 0.0491(9) Uani 1 1 d .
H10 H 0.280148 0.489557 0.969755 0.059 Uiso 1 1 calc R
C11 C 0.0620(6) 0.3333(6) 0.9940(4) 0.0593(11) Uani 1 1 d .
H11 H 0.029247 0.403389 1.057652 0.071 Uiso 1 1 calc R
C12 C -0.0396(6) 0.1802(6) 0.9539(4) 0.0638(12) Uani 1 1 d .
H12 H -0.139685 0.146498 0.990398 0.077 Uiso 1 1 calc R
C13 C 0.0083(6) 0.0779(5) 0.8598(4) 0.0630(12) Uani 1 1 d .
H13 H -0.059535 -0.026107 0.832463 0.076 Uiso 1 1 calc R
C14 C 0.1554(5) 0.1269(4) 0.8050(4) 0.0510(10) Uani 1 1 d .
H14 H 0.184233 0.055832 0.739652 0.061 Uiso 1 1 calc R
C15 C 0.8398(6) 0.2766(5) 0.6774(4) 0.0584(11) Uani 1 1 d .
H15A H 0.940852 0.354301 0.733399 0.070 Uiso 1 1 calc R
H15B H 0.828679 0.178851 0.687911 0.070 Uiso 1 1 calc R
C16 C 0.8731(6) 0.2647(6) 0.5472(4) 0.0675(13) Uani 1 1 d .
H16A H 0.774507 0.187089 0.488774 0.081 Uiso 1 1 calc R
H16B H 0.891588 0.362797 0.535080 0.081 Uiso 1 1 calc R
C17 C 1.1281(5) 0.2627(5) 0.4469(4) 0.0548(10) Uani 1 1 d .
C18 C 1.2921(7) 0.2237(7) 0.4485(4) 0.0819(15) Uani 1 1 d .
H18A H 1.389510 0.316298 0.487808 0.123 Uiso 1 1 calc GR
H18B H 1.310967 0.175726 0.364579 0.123 Uiso 1 1 calc GR
H18C H 1.281016 0.154071 0.494205 0.123 Uiso 1 1 calc GR
loop_
_atom_site_aniso_label
_atom_site_aniso_U_11
_atom_site_aniso_U_22
_atom_site_aniso_U_33
_atom_site_aniso_U_23
_atom_site_aniso_U_13
_atom_site_aniso_U_12
S1 0.0669(9) 0.0586(8) 0.0865(9) 0.0266(6) -0.0016(6) 0.0181(6)
O1 0.067(2) 0.080(2) 0.075(2) 0.0428(17) 0.0165(15) 0.0228(17)
O2 0.079(2) 0.086(2) 0.0697(19) 0.0437(17) 0.0346(15) 0.0505(18)
N1 0.0442(18) 0.0439(19) 0.0533(18) 0.0216(14) 0.0110(13) 0.0074(14)
C1 0.083(3) 0.064(3) 0.071(3) 0.035(2) 0.021(2) 0.042(3)
C2 0.089(3) 0.043(2) 0.052(2) 0.0162(18) 0.011(2) 0.014(2)
C3 0.045(2) 0.0352(19) 0.0458(18) 0.0228(14) 0.0150(14) 0.0098(15)
C4 0.054(2) 0.039(2) 0.0451(19) 0.0190(15) 0.0113(16) 0.0117(17)
C5 0.043(2) 0.039(2) 0.048(2) 0.0176(15) 0.0067(15) 0.0115(16)
C6 0.041(2) 0.039(2) 0.050(2) 0.0187(15) 0.0073(15) 0.0097(16)
C7 0.052(2) 0.043(2) 0.057(2) 0.0244(17) 0.0120(17) 0.0146(18)
C8 0.052(2) 0.050(2) 0.050(2) 0.0225(17) 0.0127(16) 0.0201(18)
C9 0.044(2) 0.042(2) 0.048(2) 0.0232(16) 0.0089(15) 0.0124(16)
C10 0.052(2) 0.050(2) 0.050(2) 0.0208(17) 0.0106(16) 0.0182(18)
C11 0.061(3) 0.076(3) 0.051(2) 0.024(2) 0.0182(18) 0.034(2)
C12 0.050(2) 0.080(3) 0.064(3) 0.037(2) 0.017(2) 0.012(2)
C13 0.056(3) 0.055(3) 0.077(3) 0.033(2) 0.012(2) 0.007(2)
C14 0.056(2) 0.042(2) 0.054(2) 0.0193(17) 0.0120(17) 0.0119(18)
C15 0.056(2) 0.065(3) 0.062(2) 0.026(2) 0.0175(19) 0.025(2)
C16 0.074(3) 0.087(4) 0.062(3) 0.038(2) 0.022(2) 0.040(3)
C17 0.058(3) 0.055(3) 0.049(2) 0.0127(18) 0.0121(18) 0.020(2)
C18 0.082(3) 0.107(4) 0.068(3) 0.029(3) 0.022(2) 0.048(3)
loop_
_atom_type_symbol
_atom_type_description
_atom_type_scat_dispersion_real
_atom_type_scat_dispersion_imag
_atom_type_scat_source
C C 0.0033 0.0016 'International Tables Vol C Tables 4.2.6.8 and 6.1.1.4'
H H 0.0000 0.0000 'International Tables Vol C Tables 4.2.6.8 and 6.1.1.4'
N N 0.0061 0.0033 'International Tables Vol C Tables 4.2.6.8 and 6.1.1.4'
O O 0.0106 0.0060 'International Tables Vol C Tables 4.2.6.8 and 6.1.1.4'
S S 0.1246 0.1234 'International Tables Vol C Tables 4.2.6.8 and 6.1.1.4'
loop_
_geom_angle_atom_site_label_1
_geom_angle_atom_site_label_2
_geom_angle_atom_site_label_3
_geom_angle
C1 S1 C4 93.4(2)
C17 O2 C16 118.3(3)
C5 N1 H1 124.9
C8 N1 H1 124.9
C8 N1 C5 110.2(3)
S1 C1 H1A 123.8
C2 C1 S1 112.5(3)
C2 C1 H1A 123.8
C1 C2 H2 122.6
C1 C2 C3 114.8(4)
C3 C2 H2 122.6
C2 C3 H3A 110.1
C2 C3 H3B 110.1
C2 C3 C4 107.8(3)
H3A C3 H3B 108.5
C4 C3 H3A 110.1
C4 C3 H3B 110.1
C3 C4 S1 111.4(3)
C3 C4 C5 126.9(3)
C5 C4 S1 121.6(3)
N1 C5 C4 119.9(3)
N1 C5 C6 108.0(3)
C6 C5 C4 132.1(3)
C5 C6 C7 105.9(3)
C5 C6 C9 129.6(3)
C7 C6 C9 124.4(3)
C6 C7 H7 125.7
C8 C7 C6 108.7(3)
C8 C7 H7 125.7
N1 C8 C15 123.1(4)
C7 C8 N1 107.2(3)
C7 C8 C15 129.5(4)
C10 C9 C6 122.5(3)
C10 C9 C14 117.9(3)
C14 C9 C6 119.5(3)
C9 C10 H10 120.1
C11 C10 C9 119.8(4)
C11 C10 H10 120.1
C10 C11 H11 119.4
C12 C11 C10 121.2(4)
C12 C11 H11 119.4
C11 C12 H12 120.4
C13 C12 C11 119.2(4)
C13 C12 H12 120.4
C12 C13 H13 119.6
C12 C13 C14 120.7(4)
C14 C13 H13 119.6
C9 C14 H14 119.4
C13 C14 C9 121.2(4)
C13 C14 H14 119.4
C8 C15 H15A 108.5
C8 C15 H15B 108.5
H15A C15 H15B 107.5
C16 C15 C8 115.0(4)
C16 C15 H15A 108.5
C16 C15 H15B 108.5
O2 C16 C15 106.1(3)
O2 C16 H16A 110.5
O2 C16 H16B 110.5
C15 C16 H16A 110.5
C15 C16 H16B 110.5
H16A C16 H16B 108.7
O1 C17 O2 123.4(4)
O1 C17 C18 125.0(4)
O2 C17 C18 111.6(4)
C17 C18 H18A 109.5
C17 C18 H18B 109.5
C17 C18 H18C 109.5
H18A C18 H18B 109.5
H18A C18 H18C 109.5
H18B C18 H18C 109.5
loop_
_geom_bond_atom_site_label_1
_geom_bond_atom_site_label_2
_geom_bond_distance
S1 C1 1.659(5)
S1 C4 1.699(4)
O1 C17 1.201(5)
O2 C16 1.453(5)
O2 C17 1.314(5)
N1 H1 0.8600
N1 C5 1.369(5)
N1 C8 1.365(5)
C1 H1A 0.9300
C1 C2 1.366(7)
C2 H2 0.9300
C2 C3 1.420(6)
C3 H3A 0.9700
C3 H3B 0.9700
C3 C4 1.454(5)
C4 C5 1.467(5)
C5 C6 1.381(5)
C6 C7 1.428(5)
C6 C9 1.473(5)
C7 H7 0.9300
C7 C8 1.364(5)
C8 C15 1.488(5)
C9 C10 1.393(5)
C9 C14 1.394(5)
C10 H10 0.9300
C10 C11 1.389(6)
C11 H11 0.9300
C11 C12 1.373(6)
C12 H12 0.9300
C12 C13 1.365(6)
C13 H13 0.9300
C13 C14 1.373(6)
C14 H14 0.9300
C15 H15A 0.9700
C15 H15B 0.9700
C15 C16 1.486(6)
C16 H16A 0.9700
C16 H16B 0.9700
C17 C18 1.494(6)
C18 H18A 0.9600
C18 H18B 0.9600
C18 H18C 0.9600
