#------------------------------------------------------------------------------
#$Date: 2019-12-14 03:15:32 +0200 (Sat, 14 Dec 2019) $
#$Revision: 245171 $
#$URL: file:///home/coder/svn-repositories/cod/cif/4/03/76/4037664.cif $
#------------------------------------------------------------------------------
#
# This file is available in the Crystallography Open Database (COD),
# http://www.crystallography.net/
#
# All data on this site have been placed in the public domain by the
# contributors.
#
data_4037664
loop_
_publ_author_name
'Brunner, Henri'
'Tsuno, Takashi'
'Bal\'azs, G\'abor'
_publ_section_title
;
 Chiral Selectivity in the Achiral Amino Acid Glycine.
;
_journal_name_full               'The Journal of organic chemistry'
_journal_paper_doi               10.1021/acs.joc.9b02726
_journal_year                    2019
_chemical_formula_moiety         'Cl, C3 H8 N O2'
_chemical_formula_sum            'C3 H8 Cl N O2'
_chemical_formula_weight         125.55
_chemical_name_systematic        'Methyl glycinate hydrochloride'
_space_group_crystal_system      monoclinic
_space_group_IT_number           14
_space_group_name_Hall           '-P 2ybc'
_space_group_name_H-M_alt        'P 1 21/c 1'
_atom_sites_solution_hydrogens   geom
_atom_sites_solution_primary     dual
_audit_creation_date             2019-05-15
_audit_creation_method
;
Olex2 1.2
(compiled 2018.05.29 svn.r3508 for OlexSys, GUI svn.r5506)
;
_cell_angle_alpha                90
_cell_angle_beta                 99.548(4)
_cell_angle_gamma                90
_cell_formula_units_Z            4
_cell_length_a                   8.3685(3)
_cell_length_b                   12.5338(4)
_cell_length_c                   5.6550(2)
_cell_measurement_reflns_used    2649
_cell_measurement_temperature    173
_cell_measurement_theta_max      30.4100
_cell_measurement_theta_min      2.9440
_cell_volume                     584.93(4)
_computing_cell_refinement       'CrysAlisPro 1.171.39.46e (Rigaku OD, 2018)'
_computing_data_collection       'CrysAlisPro 1.171.39.46e (Rigaku OD, 2018)'
_computing_data_reduction        'CrysAlisPro 1.171.39.46e (Rigaku OD, 2018)'
_computing_molecular_graphics    'Olex2 (Dolomanov et al., 2009)'
_computing_publication_material  'Olex2 (Dolomanov et al., 2009)'
_computing_structure_refinement  'ShelXL (Sheldrick, 2015)'
_computing_structure_solution    'ShelXT (Sheldrick, 2015)'
_diffrn_ambient_temperature      173
_diffrn_detector                 'Rigaku HyPix-3000 area detector'
_diffrn_detector_area_resol_mean 10.0
_diffrn_detector_type            'HPC area detector'
_diffrn_measured_fraction_theta_full 1.000
_diffrn_measured_fraction_theta_max 0.965
_diffrn_measurement_details
;
List of Runs (angles in degrees, time in seconds):

  # Type    Start    End  Width  t~exp~   \w     \q     \k     \f   Frames
--------------------------------------------------------------------------
  1  \w    -74.00 -40.00   0.50   23.27    --   20.00  54.00 -60.00   68
  2  \w    -34.00  -8.00   0.50   23.27    --   20.00  54.00 -60.00   52
  3  \w     23.00 108.00   0.50   23.27    --   20.00  54.00 -60.00  170
  4  \w    -73.00 -12.00   0.50   23.27    --   20.00  54.00 150.00  122
  5  \w     19.00  57.00   0.50   23.27    --   20.00  54.00 150.00   76
  6  \w    -42.00  -7.00   0.50   23.27    --   20.00  54.00  90.00   70
  7  \w     -5.00  21.00   0.50   23.27    --   20.00  54.00  90.00   52
  8  \w     51.00  95.00   0.50   23.27    --   20.00  54.00  90.00   88
  9  \w    -73.00 108.00   0.50   23.27    --   20.00  54.00  30.00  362
;
_diffrn_measurement_device       'fixed-chi diffractometer'
_diffrn_measurement_device_type  'Rigaku XtaLAB mini2'
_diffrn_measurement_method       '\w scans'
_diffrn_orient_matrix_type
'CrysAlisPro convention (1999,Acta A55,543-557)'
_diffrn_orient_matrix_UB_11      0.0228989000
_diffrn_orient_matrix_UB_12      -0.0183621000
_diffrn_orient_matrix_UB_13      0.1194457000
_diffrn_orient_matrix_UB_21      0.0737654000
_diffrn_orient_matrix_UB_22      0.0287317000
_diffrn_orient_matrix_UB_23      0.0093152000
_diffrn_orient_matrix_UB_31      -0.0376958000
_diffrn_orient_matrix_UB_32      0.0451955000
_diffrn_orient_matrix_UB_33      0.0425823000
_diffrn_radiation_monochromator  'curved graphite'
_diffrn_radiation_probe          x-ray
_diffrn_radiation_type           MoK\a
_diffrn_radiation_wavelength     0.71073
_diffrn_reflns_av_R_equivalents  0.0190
_diffrn_reflns_av_unetI/netI     0.0258
_diffrn_reflns_Laue_measured_fraction_full 1.000
_diffrn_reflns_Laue_measured_fraction_max 0.965
_diffrn_reflns_limit_h_max       11
_diffrn_reflns_limit_h_min       -11
_diffrn_reflns_limit_k_max       17
_diffrn_reflns_limit_k_min       -17
_diffrn_reflns_limit_l_max       7
_diffrn_reflns_limit_l_min       -8
_diffrn_reflns_number            5320
_diffrn_reflns_point_group_measured_fraction_full 1.000
_diffrn_reflns_point_group_measured_fraction_max 0.965
_diffrn_reflns_theta_full        25.000
_diffrn_reflns_theta_max         30.487
_diffrn_reflns_theta_min         2.468
_diffrn_source                   'Sealed X-ray tube'
_diffrn_source_type              'Sealed X-ray tube'
_exptl_absorpt_coefficient_mu    0.549
_exptl_absorpt_correction_T_max  1.00000
_exptl_absorpt_correction_T_min  0.99488
_exptl_absorpt_correction_type   multi-scan
_exptl_absorpt_process_details
;
CrysAlisPro 1.171.39.46e (Rigaku Oxford Diffraction, 2018)
Empirical absorption correction using spherical harmonics,
 implemented in SCALE3 ABSPACK scaling algorithm.
;
_exptl_crystal_colour            'clear colourless'
_exptl_crystal_colour_lustre     clear
_exptl_crystal_colour_primary    colourless
_exptl_crystal_density_diffrn    1.426
_exptl_crystal_description       block
_exptl_crystal_F_000             264
_exptl_crystal_preparation       'from TCI'
_exptl_crystal_recrystallization_method 'Crystallization from H2O/DMSO/THF'
_exptl_crystal_size_max          0.239
_exptl_crystal_size_mid          0.158
_exptl_crystal_size_min          0.127
_refine_diff_density_max         1.522
_refine_diff_density_min         -0.312
_refine_diff_density_rms         0.098
_refine_ls_extinction_method     none
_refine_ls_goodness_of_fit_ref   1.247
_refine_ls_hydrogen_treatment    constr
_refine_ls_matrix_type           full
_refine_ls_number_parameters     66
_refine_ls_number_reflns         1707
_refine_ls_number_restraints     0
_refine_ls_restrained_S_all      1.247
_refine_ls_R_factor_all          0.0583
_refine_ls_R_factor_gt           0.0503
_refine_ls_shift/su_max          0.000
_refine_ls_shift/su_mean         0.000
_refine_ls_structure_factor_coef Fsqd
_refine_ls_weighting_details
'w=1/[\s^2^(Fo^2^)+(0.0425P)^2^+1.3869P] where P=(Fo^2^+2Fc^2^)/3'
_refine_ls_weighting_scheme      calc
_refine_ls_wR_factor_gt          0.1502
_refine_ls_wR_factor_ref         0.1534
_reflns_Friedel_coverage         0.000
_reflns_number_gt                1468
_reflns_number_total             1707
_reflns_threshold_expression     'I > 2\s(I)'
_iucr_refine_instructions_details
;
TITL exp_51_a.res in P2(1)/c
    exp_51.res
    created by SHELXL-2018/3 at 09:30:13 on 15-May-2019
REM Old TITL
REM SHELXT solution in P2(1)/c: R1 0.122, Rweak 0.008, Alpha 0.043
REM <I/s> 0.625 for 65 systematic absences, Orientation as input
REM Formula found by SHELXT: C3 Cl N O2
CELL 0.71073 8.3685 12.5338 5.655 90 99.548 90
ZERR 4 0.0003 0.0004 0.0002 0 0.004 0
LATT 1
SYMM -X,0.5+Y,0.5-Z
SFAC C H Cl N O
UNIT 12 32 4 4 8

L.S. 20
PLAN  10
BOND
list 4
fmap 2
acta 50
REM <olex2.extras>
REM <HklSrc "%.\\exp_51.hkl">
REM </olex2.extras>

WGHT    0.042500    1.386900
FVAR       0.74769
CL01  3    1.024619    0.383358    0.252759    11.00000    0.02741    0.02402 =
         0.01639   -0.00175    0.00611   -0.00802
O002  5    0.629253    0.312854    0.974030    11.00000    0.02479    0.02986 =
         0.02882    0.00957    0.00765    0.00226
O003  5    0.444036    0.408435    0.728424    11.00000    0.02129    0.03905 =
         0.04067    0.01600    0.00950    0.00522
N004  4    0.866490    0.356045    0.709996    11.00000    0.01918    0.01932 =
         0.01668    0.00038    0.00496    0.00076
AFIX 137
H00A  2    0.931039    0.375758    0.607573    11.00000   -1.20000
H00B  2    0.855761    0.285390    0.706850    11.00000   -1.20000
H00C  2    0.909500    0.376800    0.857351    11.00000   -1.20000
AFIX   0
C005  1    0.591781    0.368689    0.802222    11.00000    0.01972    0.01812 =
         0.02297   -0.00045    0.00502   -0.00221
C006  1    0.705893    0.406114    0.640688    11.00000    0.01830    0.01898 =
         0.02445    0.00451    0.00349    0.00059
AFIX  23
H00D  2    0.662351    0.387830    0.475914    11.00000   -1.20000
H00E  2    0.716696    0.483093    0.651335    11.00000   -1.20000
AFIX   0
C007  1    0.320127    0.378991    0.868835    11.00000    0.01985    0.04539 =
         0.04923    0.00712    0.01212    0.00199
AFIX 137
H00F  2    0.230686    0.427677    0.835130    11.00000   -1.50000
H00G  2    0.364717    0.382034    1.036430    11.00000   -1.50000
H00H  2    0.283184    0.307825    0.827631    11.00000   -1.50000
AFIX   0
HKLF 4




REM  exp_51_a.res in P2(1)/c
REM wR2 = 0.1534, GooF = S = 1.247, Restrained GooF = 1.247 for all data
REM R1 = 0.0503 for 1468 Fo > 4sig(Fo) and 0.0583 for all 1707 data
REM 66 parameters refined using 0 restraints

END  
     
WGHT      0.0425      1.3869 

REM Highest difference peak  1.522,  deepest hole -0.312,  1-sigma level  0.098
Q1    1   1.0260  0.3819  0.7577  11.00000  0.05    1.52
Q2    1   0.4553  0.3984  0.5008  11.00000  0.05    0.56
Q3    1   0.6250  0.3147  0.3467  11.00000  0.05    0.54
Q4    1   0.8614  0.3564  0.2234  11.00000  0.05    0.52
Q5    1   0.4505  0.3997  1.0065  11.00000  0.05    0.50
Q6    1   0.5914  0.3748  0.9853  11.00000  0.05    0.47
Q7    1   0.5931  0.3745  0.4900  11.00000  0.05    0.42
Q8    1   0.6333  0.3123  0.8457  11.00000  0.05    0.38
Q9    1   0.7062  0.4038  0.2173  11.00000  0.05    0.37
Q10   1   0.6650  0.3867  0.7366  11.00000  0.05    0.37

  REM The information below was added by Olex2.
  REM
  REM R1 = 0.0503 for 1468 Fo > 4sig(Fo) and 0.0583 for all 5522 data
  REM n/a parameters refined using n/a restraints
  REM Highest difference peak 1.52, deepest hole -0.31
  REM Mean Shift 0, Max Shift 0.000.

  REM +++ Tabular Listing of Refinement Information +++
  REM R1_all = 0.0583
  REM R1_gt = 0.0503
  REM wR_ref = 0.1534
  REM GOOF = 1.247
  REM Shift_max = 0.000
  REM Shift_mean = 0
  REM Reflections_all = 5522
  REM Reflections_gt = 1468
  REM Parameters = n/a
  REM Hole = -0.31
  REM Peak = 1.52
  REM Flack = n/a

  
;
_cod_data_source_file            jo9b02726_si_002.cif
_cod_data_source_block           CCDC1916163
_cod_database_code               4037664
_shelx_shelxl_version_number     2018/3
_chemical_oxdiff_formula         'C3 H8 Cl1 N1 O2'
_chemical_oxdiff_usercomment     'Me glycine HCl'
_shelx_space_group_comment
;
The symmetry employed for this shelxl refinement is uniquely defined
by the following loop, which should always be used as a source of
symmetry information in preference to the above space-group names.
They are only intended as comments.
;
_reflns_odcompleteness_completeness 100.00
_reflns_odcompleteness_iscentric 1
_reflns_odcompleteness_theta     27.42
_olex2_refinement_description
;
1. Fixed Uiso
 At 1.2 times of:
  All C(H,H) groups, All N(H,H,H) groups
 At 1.5 times of:
  All C(H,H,H) groups
2.a Secondary CH2 refined with riding coordinates:
 C006(H00D,H00E)
2.b Idealised Me refined as rotating group:
 N004(H00A,H00B,H00C), C007(H00F,H00G,H00H)
;
_olex2_submission_special_instructions 'No special instructions were received'
_oxdiff_exptl_absorpt_empirical_details
;
Empirical correction (ABSPACK) includes:
- Absorption correction using spherical harmonics
- Frame scaling
;
_oxdiff_exptl_absorpt_empirical_full_max 1.044
_oxdiff_exptl_absorpt_empirical_full_min 0.979
loop_
_space_group_symop_operation_xyz
'x, y, z'
'-x, y+1/2, -z+1/2'
'-x, -y, -z'
'x, -y-1/2, z-1/2'
loop_
_atom_site_label
_atom_site_type_symbol
_atom_site_fract_x
_atom_site_fract_y
_atom_site_fract_z
_atom_site_U_iso_or_equiv
_atom_site_adp_type
_atom_site_occupancy
_atom_site_site_symmetry_order
_atom_site_calc_flag
_atom_site_refinement_flags_posn
Cl01 Cl 1.02462(8) 0.38336(5) 0.25276(12) 0.0223(2) Uani 1 1 d .
O002 O 0.6293(3) 0.31285(18) 0.9740(4) 0.0275(5) Uani 1 1 d .
O003 O 0.4440(3) 0.4084(2) 0.7284(5) 0.0332(6) Uani 1 1 d .
N004 N 0.8665(3) 0.35605(18) 0.7100(4) 0.0182(4) Uani 1 1 d .
H00A H 0.931039 0.375758 0.607573 0.022 Uiso 1 1 calc GR
H00B H 0.855761 0.285390 0.706850 0.022 Uiso 1 1 calc GR
H00C H 0.909500 0.376800 0.857351 0.022 Uiso 1 1 calc GR
C005 C 0.5918(3) 0.3687(2) 0.8022(5) 0.0201(5) Uani 1 1 d .
C006 C 0.7059(3) 0.4061(2) 0.6407(5) 0.0206(5) Uani 1 1 d .
H00D H 0.662351 0.387830 0.475914 0.025 Uiso 1 1 calc R
H00E H 0.716696 0.483093 0.651335 0.025 Uiso 1 1 calc R
C007 C 0.3201(4) 0.3790(3) 0.8688(7) 0.0374(8) Uani 1 1 d .
H00F H 0.230686 0.427677 0.835130 0.056 Uiso 1 1 calc GR
H00G H 0.364717 0.382034 1.036430 0.056 Uiso 1 1 calc GR
H00H H 0.283184 0.307825 0.827631 0.056 Uiso 1 1 calc GR
loop_
_atom_site_aniso_label
_atom_site_aniso_U_11
_atom_site_aniso_U_22
_atom_site_aniso_U_33
_atom_site_aniso_U_23
_atom_site_aniso_U_13
_atom_site_aniso_U_12
Cl01 0.0274(3) 0.0240(3) 0.0164(3) -0.0018(2) 0.0061(2) -0.0080(3)
O002 0.0248(10) 0.0299(11) 0.0288(11) 0.0096(9) 0.0076(8) 0.0023(9)
O003 0.0213(10) 0.0391(13) 0.0407(14) 0.0160(11) 0.0095(9) 0.0052(9)
N004 0.0192(10) 0.0193(10) 0.0167(10) 0.0004(8) 0.0050(8) 0.0008(8)
C005 0.0197(12) 0.0181(12) 0.0230(13) -0.0004(10) 0.0050(10) -0.0022(9)
C006 0.0183(12) 0.0190(12) 0.0244(13) 0.0045(10) 0.0035(10) 0.0006(9)
C007 0.0198(14) 0.045(2) 0.049(2) 0.0071(17) 0.0121(13) 0.0020(14)
loop_
_atom_type_symbol
_atom_type_description
_atom_type_scat_dispersion_real
_atom_type_scat_dispersion_imag
_atom_type_scat_source
C C 0.0033 0.0016 'International Tables Vol C Tables 4.2.6.8 and 6.1.1.4'
H H 0.0000 0.0000 'International Tables Vol C Tables 4.2.6.8 and 6.1.1.4'
Cl Cl 0.1484 0.1585 'International Tables Vol C Tables 4.2.6.8 and 6.1.1.4'
N N 0.0061 0.0033 'International Tables Vol C Tables 4.2.6.8 and 6.1.1.4'
O O 0.0106 0.0060 'International Tables Vol C Tables 4.2.6.8 and 6.1.1.4'
loop_
_geom_angle_atom_site_label_1
_geom_angle_atom_site_label_2
_geom_angle_atom_site_label_3
_geom_angle
C005 O003 C007 116.2(3)
O002 C005 O003 125.2(3)
O002 C005 C006 124.7(3)
O003 C005 C006 110.1(2)
N004 C006 C005 110.4(2)
loop_
_geom_bond_atom_site_label_1
_geom_bond_atom_site_label_2
_geom_bond_distance
O002 C005 1.196(4)
O003 C005 1.334(4)
O003 C007 1.454(4)
N004 C006 1.476(3)
C005 C006 1.502(4)
loop_
_refln_index_h
_refln_index_k
_refln_index_l
_refln_F_squared_meas
_refln_F_squared_sigma
1 0 0 1.43 0.38
-1 0 0 1.54 0.41
-1 0 0 1.42 0.4
1 0 0 0.5 0.33
-1 0 0 0.9 0.34
2 0 0 1164.85 24.83
-2 0 0 1153.23 24.92
-2 0 0 1164.44 24.87
2 0 0 1143.3 24.91
-2 0 0 1172.85 24.86
3 0 0 2512.38 52.67
3 0 0 2475.48 52.82
-3 0 0 2509.5 52.69
3 0 0 2447.97 52.1
-3 0 0 2529.43 52.84
-4 0 0 8.35 1.2
4 0 0 7.55 1.01
4 0 0 9.47 1.19
4 0 0 7.82 1.1
-4 0 0 8.56 1.12
-5 0 0 177.83 5.21
-6 0 0 112.38 4.01
-7 0 0 370.14 9.84
7 0 0 362.7 9.82
-8 0 0 6.57 1.83
8 0 0 4.13 1.77
9 0 0 18.41 2.44
-9 0 0 16.11 2.2
10 0 0 -0.79 2.22
-10 0 0 -1.41 1.97
11 0 0 12.31 2.75
-11 0 0 14.56 2.6
0 1 0 -0.08 0.2
1 1 0 516.68 11.39
-1 -1 0 529.63 11.33
1 -1 0 533.14 11.41
-1 -1 0 529.11 11.38
1 1 0 532.1 11.34
-1 1 0 526.71 11.45
-1 -1 0 526.92 11.45
-1 -1 0 520.65 11.35
1 1 0 536.53 11.32
-1 1 0 530.06 11.42
2 -1 0 72.2 2.01
-2 -1 0 75.83 1.91
2 1 0 75.52 2.2
2 1 0 70.73 1.86
-2 1 0 72.82 2.22
-2 1 0 73.48 2.19
2 -1 0 67.59 2.17
-2 -1 0 68.51 2.09
2 1 0 74.41 2.18
2 -1 0 74.37 2.17
-2 -1 0 73 2.2
2 1 0 73.82 2.08
-3 -1 0 54.91 1.97
3 -1 0 54.13 1.83
3 -1 0 49.79 1.95
-3 1 0 49.26 2.01
3 1 0 52.19 2.01
-3 -1 0 54.82 2.07
3 1 0 54.12 1.96
3 -1 0 53.57 1.92
-3 -1 0 49.3 1.91
3 1 0 52.2 1.5
-3 1 0 51.45 1.96
-3 -1 0 52.91 1.53
3 1 0 54.51 1.89
4 1 0 85.2 3.01
-4 -1 0 85.46 2.97
-4 -1 0 87.53 2.29
-4 -1 0 83.45 2.88
-4 1 0 93.86 2.85
4 -1 0 83.57 2.96
4 1 0 87.43 2.84
4 1 0 84.72 2.76
-4 -1 0 79.73 2.77
-4 1 0 86.99 3.01
4 -1 0 88.11 2.74
4 1 0 87.05 2.26
5 1 0 733.99 16.73
-5 1 0 726.89 16.8
5 -1 0 718.65 16.74
-5 -1 0 717 16.67
6 1 0 23.17 1.95
6 -1 0 25.08 1.92
-6 -1 0 24.56 1.86
-6 1 0 24.78 1.9
-7 -1 0 462.59 11.89
7 1 0 476.81 11.97
-7 1 0 456.93 11.96
8 1 0 4.2 1.79
-8 -1 0 5.46 1.6
-8 1 0 9.17 1.77
-9 1 0 12.79 2.15
9 1 0 21.48 2.54
9 -1 0 16.93 2.39
-9 -1 0 15.89 2.28
10 1 0 78.19 4.14
-10 1 0 69.16 4.01
-10 -1 0 73.28 3.98
10 -1 0 74.94 4.16
-11 1 0 -0.68 2.07
11 -1 0 -1.98 2.37
11 1 0 0.21 2.43
-11 -1 0 -0.86 2.18
0 -2 0 0.79 0.5
0 -2 0 0.56 0.37
0 2 0 0.72 0.53
0 -2 0 0.7 0.44
-1 -2 0 3.96 0.67
-1 2 0 4.49 0.62
-1 2 0 4.22 0.43
1 2 0 4.72 0.62
-1 2 0 3.94 0.7
1 -2 0 3.77 0.68
1 -2 0 4.2 0.45
-1 2 0 4.74 0.48
1 -2 0 3.46 0.54
1 2 0 4.09 0.42
-1 -2 0 4.93 0.41
-1 -2 0 3.56 0.72
1 -2 0 4.18 0.43
2 2 0 27.45 1.29
2 -2 0 25.59 1.26
-2 -2 0 24.56 1.22
-2 -2 0 24.34 1.12
2 2 0 25.16 1.08
2 -2 0 25.51 0.81
-2 -2 0 22.57 1.07
-2 -2 0 25.71 1.33
2 2 0 23.79 1.08
2 -2 0 24.11 1.26
-2 2 0 24.18 1.31
-2 2 0 27.29 1.32
-2 2 0 25.18 1.04
3 2 0 3.28 0.98
-3 -2 0 2.21 0.63
-3 2 0 2.35 0.94
3 -2 0 3.9 0.96
3 2 0 4.57 1.05
3 2 0 3.23 0.86
-3 -2 0 1.89 1
3 -2 0 3.69 0.95
3 -2 0 1.86 0.71
-3 -2 0 2.35 0.84
3 2 0 2.2 0.65
4 2 0 370.86 8.96
-4 -2 0 364.52 8.4
-4 2 0 359.06 9.02
4 2 0 370.98 8.36
-4 -2 0 370.43 8.77
-4 -2 0 361.91 9.02
4 2 0 371.67 8.67
-4 -2 0 365.39 8.82
4 -2 0 361.44 9
4 -2 0 383.48 8.61
-5 -2 0 14.24 1.5
-5 2 0 15.03 1.54
5 -2 0 14.64 1.52
-5 -2 0 13.7 1.37
5 -2 0 15.15 1.21
5 2 0 13.53 1.56
6 2 0 -0.11 1.27
-6 -2 0 0.11 1.14
-6 2 0 1.49 1.33
6 -2 0 0.73 1.22
7 2 0 43.79 2.68
-7 -2 0 48.96 2.69
-7 2 0 45.04 2.78
7 -2 0 43.25 2.65
8 2 0 34.78 2.78
-8 -2 0 37.29 2.54
-8 2 0 35.02 2.7
-9 2 0 11.72 2.15
9 2 0 9.24 2.14
-9 -2 0 8.07 1.92
10 2 0 2.72 2.26
10 -2 0 -1.04 2.4
-10 2 0 1.89 2
-10 -2 0 4.02 1.97
-11 2 0 -0.69 2.08
11 -2 0 -1.57 2.52
0 -3 0 0.14 0.68
0 3 0 0.74 0.69
0 -3 0 0.14 0.52
0 -3 0 0.18 0.68
-1 3 0 12.49 1.02
1 3 0 12.5 1.01
1 3 0 12.7 0.93
-1 -3 0 11.84 0.99
1 3 0 14.06 0.52
-1 3 0 14.06 0.83
1 -3 0 14.28 0.68
-1 -3 0 14.24 0.53
-1 3 0 13.03 0.83
-1 -3 0 12.83 1.03
1 -3 0 13.61 0.95
1 -3 0 12.81 0.78
1 3 0 14.93 0.94
1 -3 0 13.32 0.82
2 -3 0 83.22 2.46
-2 3 0 82.58 2.46
-2 -3 0 80.38 2.4
-2 -3 0 80.1 2.56
2 -3 0 75.72 2.1
-2 3 0 78.76 2.13
2 3 0 79.37 2.12
-2 -3 0 83.74 2.47
-2 -3 0 79.9 2.17
2 3 0 82.55 2.38
-2 3 0 76.87 2.54
2 -3 0 76.78 2.34
-3 3 0 519.3 11.95
-3 -3 0 502.84 12.02
-3 3 0 533.31 11.55
-3 -3 0 514.98 11.75
3 -3 0 514.79 11.84
3 3 0 520.5 11.83
3 3 0 507.47 11.61
3 -3 0 520.8 12.03
-3 -3 0 506.86 11.63
-3 -3 0 511.35 11.7
3 -3 0 523.23 11.21
3 3 0 527.84 11.57
3 -3 0 532.84 11.8
4 3 0 0.14 0.67
4 -3 0 -0.17 0.96
4 -3 0 -0.05 0.8
4 3 0 -0.33 0.83
-4 -3 0 -0.53 1.18
-4 -3 0 0.72 0.83
-4 3 0 1.96 1.05
-4 -3 0 0.86 0.69
4 3 0 1.22 1.13
-5 3 0 287.28 7.65
5 3 0 291.34 7.52
-5 -3 0 285.16 7.34
-5 -3 0 272.11 7.61
5 -3 0 291.62 7.65
6 3 0 175.9 5.31
-6 3 0 167 5.39
6 -3 0 168.42 5.38
-6 -3 0 168.82 5.39
-6 -3 0 164.57 5.09
-7 3 0 311.51 8.81
-7 -3 0 313.28 8.53
7 -3 0 315.94 8.83
7 3 0 312.96 8.68
8 -3 0 5.89 1.88
-8 -3 0 0.73 1.44
-8 3 0 2.22 1.64
8 3 0 4.79 1.84
-9 3 0 126.75 5.32
9 3 0 135.62 5.31
-9 -3 0 130.87 5.05
-10 3 0 63.13 3.93
10 3 0 73.51 4.14
11 -3 0 -1.61 2.5
-11 3 0 -0.23 2.22
0 4 0 9950.39 205.19
0 -4 0 9929.04 205.12
0 -4 0 9843.67 204.65
0 -4 0 9999 204.99
-1 4 0 331.26 7.96
1 4 0 341.85 7.94
-1 4 0 343.68 7.65
-1 -4 0 336.6 8.04
1 4 0 333.03 7.89
1 -4 0 346.21 7.88
-1 -4 0 335.26 7.88
1 4 0 337.48 7.81
-1 4 0 352.44 7.83
1 -4 0 350.33 7.63
1 -4 0 334.48 7.88
-2 4 0 1033.24 22.82
2 -4 0 1063.79 22.74
2 -4 0 1086.48 22.49
-2 -4 0 1056.27 23
-2 4 0 1030.4 23.05
-2 -4 0 1031.97 22.43
2 4 0 1045.74 22.87
2 4 0 1061.63 22.89
-2 4 0 1045.56 22.49
2 -4 0 1052.29 22.91
2 4 0 1047.1 22.4
2 -4 0 1051.76 22.66
3 4 0 911.52 19.66
3 -4 0 872.89 19.25
-3 -4 0 887.09 19.66
3 -4 0 921.15 19.71
-3 4 0 881.68 19.99
-3 4 0 871.57 19.84
-3 -4 0 867.89 19.43
-3 -4 0 887.54 19.77
3 4 0 913.83 19.37
-3 4 0 902.38 19.38
3 -4 0 920.63 19.79
-3 -4 0 897.06 20.03
4 4 0 49.71 1.87
-4 -4 0 54.62 2.06
-4 -4 0 48.89 2.35
-4 -4 0 52.39 2.02
-4 4 0 47.81 2.27
-4 4 0 47.57 1.83
4 -4 0 49.13 2.3
4 4 0 51.79 1.93
-5 -4 0 96.93 3.15
5 -4 0 98.72 3.65
-5 -4 0 103.97 3.33
-5 -4 0 100.08 3.75
-5 4 0 99.56 3.64
-6 -4 0 85.11 3.6
6 4 0 82.97 3.47
-6 4 0 85.37 3.54
-6 -4 0 87.67 3.21
6 -4 0 75.8 3.4
7 -4 0 297.63 8.59
-7 4 0 290.69 8.54
-7 -4 0 306.17 8.19
7 4 0 313.53 8.47
-7 -4 0 289.79 8.58
8 -4 0 -0.17 1.67
8 4 0 3.12 1.91
-8 4 0 -0.17 1.59
9 4 0 24.4 2.66
-9 4 0 21.79 2.54
9 -4 0 20.02 2.56
-10 4 0 -0.44 2.1
11 -4 0 26.76 3.31
-11 4 0 35.59 3.42
0 -5 0 -0.09 0.36
0 -5 0 0.9 0.67
0 5 0 -0.21 0.71
0 -5 0 0.77 0.8
0 -5 0 0.18 0.78
0 5 0 0.88 0.92
0 -5 0 0.69 0.38
1 -5 0 105.72 3.07
-1 5 0 104.29 3.01
1 5 0 103.69 2.98
-1 -5 0 101.47 3.04
1 5 0 108.45 3.13
-1 5 0 108.88 3.19
-1 -5 0 105.34 3.25
1 -5 0 98.39 3.06
1 5 0 106.45 3.13
-1 5 0 101.79 2.73
1 -5 0 106.29 2.71
2 5 0 6.59 0.96
2 -5 0 5.47 0.74
-2 -5 0 6.09 0.54
-2 -5 0 5.77 0.99
-2 -5 0 6.97 1.14
-2 5 0 5.99 1.06
2 5 0 6.78 0.55
2 -5 0 6.71 1.05
2 -5 0 5.12 0.64
2 5 0 6.19 1
2 -5 0 4.5 0.78
-2 5 0 4.75 0.86
-3 5 0 188.39 4.53
-3 -5 0 188.76 5.28
3 -5 0 188.72 4.84
-3 -5 0 192.42 4.91
-3 -5 0 180.46 4.5
3 5 0 183.45 4.89
3 -5 0 188.67 4.6
-3 5 0 183.3 5.19
-3 5 0 176.82 4.95
-3 -5 0 173.51 5.04
-4 -5 0 380.7 9.21
-4 -5 0 375.87 8.87
4 -5 0 370.84 9.53
-4 -5 0 378.21 9.59
-4 5 0 385.37 9.41
5 -5 0 122.3 4.28
-5 -5 0 129.24 3.8
-5 -5 0 116.78 4.3
-5 -5 0 125.8 3.88
-5 5 0 119.31 4.16
-6 5 0 66.19 3.12
-6 -5 0 63.22 3.19
6 -5 0 65.26 3.15
7 -5 0 197.68 6.38
-7 -5 0 196.95 6.43
-7 5 0 190.29 6.3
-8 5 0 8.35 2.01
8 -5 0 13.32 2.23
-9 5 0 2 1.89
9 -5 0 3.61 2.01
-10 5 0 7.3 2.3
-11 5 0 7.69 2.6
0 -6 0 154.11 4.37
0 -6 0 149.94 3.48
0 6 0 148.68 4.22
0 -6 0 150.42 4
0 -6 0 154.06 3.47
0 6 0 157.26 4.2
0 -6 0 150.36 4.11
1 6 0 2.67 0.95
1 6 0 1.58 0.87
-1 6 0 2.94 0.88
-1 6 0 2.31 0.61
-1 -6 0 1.64 0.9
1 -6 0 1.79 0.94
1 -6 0 2.6 0.62
1 -6 0 2.48 0.91
-1 -6 0 1.35 1.03
-1 6 0 2.77 0.99
-2 6 0 115.64 3.74
2 6 0 121.13 3.69
2 -6 0 124.07 3.57
-2 -6 0 114.34 3.69
-2 -6 0 127.6 3.91
2 6 0 129.71 3.59
-2 -6 0 118.87 2.85
2 -6 0 130.53 3.35
-2 6 0 123.21 3.43
2 -6 0 121.83 3.13
-3 6 0 40.71 1.89
3 -6 0 39.59 1.61
-3 -6 0 40.91 2.04
3 -6 0 39.24 1.7
-3 -6 0 40.93 2.18
-3 6 0 41.11 2.12
-3 -6 0 37.04 1.37
-4 -6 0 463.31 11.09
-4 6 0 432.79 10.99
-4 6 0 454.69 11.31
-4 -6 0 475.56 11.41
-5 -6 0 2.36 1.59
-5 6 0 0.8 1.13
-5 -6 0 0.1 1.03
5 -6 0 0.13 1.21
-6 -6 0 4.64 1.72
6 -6 0 6.74 1.65
-6 6 0 5.6 1.57
-7 6 0 88.9 3.96
-7 -6 0 88.19 4.09
7 -6 0 83.76 3.91
8 -6 0 63.87 3.59
-8 6 0 57.41 3.41
-9 6 0 22.32 2.64
9 -6 0 20.68 2.72
10 -6 0 4.72 2.35
-10 6 0 4.48 2.24
0 -7 0 0.17 0.36
0 -7 0 0.44 1.06
0 -7 0 0.64 0.76
0 7 0 1.33 0.97
-1 -7 0 93.59 3.33
1 -7 0 90.11 2.67
-1 7 0 94.52 2.54
-1 -7 0 92.64 2.99
-1 7 0 86.77 3.12
1 -7 0 88 3.11
1 7 0 92.29 3.1
2 -7 0 35.38 1.77
2 7 0 33.65 1.82
-2 -7 0 34.56 2
-2 -7 0 34.51 1.92
-2 7 0 36.84 1.58
-2 7 0 37.46 2.01
3 7 0 360.85 8.97
3 -7 0 360.05 8.64
-3 7 0 354.8 8.71
-3 7 0 353.03 9.16
-3 -7 0 345.99 9.11
-3 -7 0 371.98 9.18
-4 -7 0 28.87 1.93
-4 -7 0 32.15 2.21
-4 7 0 34.42 1.93
-4 7 0 33.31 2.19
-5 7 0 55.54 2.68
-5 -7 0 47.16 2.44
5 -7 0 49.72 2.78
-5 -7 0 51.11 2.92
-6 -7 0 178.58 6.08
-6 7 0 176.29 5.78
6 -7 0 185.24 6.03
-7 -7 0 154.76 5.77
7 -7 0 157.3 5.7
-7 7 0 156.62 5.53
-8 7 0 15.06 2.29
8 -7 0 14.48 2.37
-8 -7 0 13.43 2.41
-9 7 0 157.65 6.18
9 -7 0 172.52 6.49
-10 7 0 55.6 3.82
10 -7 0 56.78 3.97
0 -8 0 839.31 18.63
0 8 0 830.25 19.01
0 -8 0 838.99 19.22
1 8 0 603.55 13.69
1 -8 0 576.61 13.73
-1 -8 0 566.54 13.43
-1 -8 0 589.76 13.93
-1 8 0 571.32 13.7
1 -8 0 580.24 13.09
-2 -8 0 347.3 8.91
2 8 0 351 8.67
-2 -8 0 336.54 8.61
2 -8 0 334.54 8.53
-2 8 0 330.54 8.73
-3 -8 0 187.72 5.85
-3 -8 0 200.4 5.85
3 -8 0 200.62 5.41
-3 8 0 197.7 5.89
3 8 0 198.4 5.67
-4 8 0 127.46 4.52
-4 8 0 129.62 4.16
4 8 0 127.59 4.31
-4 -8 0 120.17 4.36
-4 -8 0 124.27 4.53
-5 8 0 47.96 2.56
-5 -8 0 46.01 2.59
-5 -8 0 44.09 2.83
-5 8 0 50.27 2.9
5 -8 0 41.98 2.72
-6 -8 0 44.16 2.99
-6 8 0 37.61 2.54
6 -8 0 43 2.8
-7 8 0 128.89 4.91
-7 -8 0 121.54 5.11
7 -8 0 127.8 5.12
-8 -8 0 -0.2 1.99
-8 8 0 2.24 1.78
8 -8 0 3.41 2.07
-9 8 0 6.02 2.23
9 -8 0 8.12 2.43
-10 8 0 6.82 2.42
10 -8 0 4.5 2.39
0 -9 0 -0.46 1.14
0 9 0 0.72 1.16
0 -9 0 -0.22 0.8
1 9 0 4.29 1.17
-1 -9 0 3.89 1.31
1 -9 0 2.41 1.13
-1 9 0 4.7 1.24
-1 -9 0 3.7 1.12
2 9 0 27.78 1.92
-2 -9 0 31.04 1.95
-2 9 0 29.93 2.01
2 -9 0 30.95 1.94
-2 -9 0 28.21 2.12
-3 -9 0 52.8 2.79
-3 9 0 48.27 2.62
3 -9 0 48.62 2.31
3 9 0 50.61 2.51
-3 -9 0 53.38 2.81
4 9 0 310.73 8.45
-4 -9 0 321.28 8.79
-4 9 0 313.85 8.73
-4 -9 0 312.37 8.66
-5 9 0 1.72 1.55
5 9 0 1.04 1.42
-5 -9 0 -0.78 1.58
-5 -9 0 1.83 1.39
-6 -9 0 109.78 4.64
6 -9 0 101.76 4.52
7 -9 0 39.54 2.97
-7 -9 0 35.6 3.06
-8 9 0 2.26 1.89
-8 -9 0 2.53 2.1
8 -9 0 4.37 2.12
9 -9 0 2.49 2.33
-9 9 0 6.27 2.08
-10 9 0 7.04 2.32
0 10 0 338.88 8.81
0 -10 0 329.19 9
-1 10 0 5.61 1.39
-1 -10 0 5.47 1.27
-1 -10 0 3.94 1.37
1 10 0 3.65 1.3
1 -10 0 4.45 1.31
-2 -10 0 51.19 2.89
-2 10 0 59.76 2.92
2 -10 0 58.87 2.72
2 10 0 55.44 2.7
3 10 0 274.41 7.7
3 -10 0 285.55 7.56
-3 -10 0 282.56 7.86
-3 10 0 279.18 7.96
-3 -10 0 274.31 8.03
-4 -10 0 102 4.35
-4 10 0 112.66 4.5
-4 -10 0 116.14 4.46
4 10 0 118.79 4.25
-5 -10 0 32.06 2.65
-5 10 0 25.19 2.4
-5 -10 0 29.12 2.39
-6 -10 0 24.7 2.65
6 -10 0 23.45 2.48
-7 -10 0 14.5 2.53
7 -10 0 12.18 2.29
-8 -10 0 -2.62 2.31
8 -10 0 -0.65 2.05
9 -10 0 4.88 2.32
0 11 0 -0.89 1.27
0 -11 0 0.14 1.39
1 11 0 7.77 1.56
-1 -11 0 7.8 1.68
-1 11 0 9.21 1.54
1 -11 0 7.55 1.59
-2 -11 0 66.72 3.32
2 -11 0 56.5 2.91
2 11 0 64.59 3.01
-2 11 0 56.94 3.01
-3 11 0 26.36 2.32
-3 -11 0 30.85 2.43
3 11 0 27.02 2.17
-3 -11 0 29.14 2.36
-4 -11 0 83.04 3.85
-4 -11 0 82.44 3.85
-4 11 0 79.7 3.84
-5 -11 0 35.84 2.79
-5 11 0 35.84 2.73
-5 -11 0 37.32 2.95
-6 -11 0 29.99 2.89
6 -11 0 30.62 2.8
-7 -11 0 117.03 5.22
7 -11 0 108.69 5.07
8 -11 0 39.66 3.43
-8 -11 0 47.66 3.63
0 -12 0 184.38 6.18
0 12 0 193.09 6.01
1 -12 0 149.37 5.25
1 12 0 141.02 5.04
-1 12 0 146.38 5.17
-1 -12 0 159.52 5.51
2 -12 0 121.55 4.54
2 12 0 122.12 4.56
-2 12 0 117.44 4.68
-2 -12 0 135.53 5.02
-3 12 0 118.84 4.71
-3 -12 0 128.92 4.68
-3 -12 0 113.14 4.79
-4 12 0 9.93 1.92
-4 -12 0 7.25 1.95
-4 -12 0 8.95 2.04
-5 -12 0 72.91 3.93
-5 -12 0 71.59 3.82
-5 12 0 78.02 3.96
-6 -12 0 9.98 2.3
6 -12 0 11.88 2.25
7 -12 0 0.87 2
-7 -12 0 2.37 2.27
-8 -12 0 4.62 2.48
8 -12 0 1.62 2.27
0 -13 0 3.45 1.72
0 13 0 0.3 1.45
-1 -13 0 0.72 1.66
-1 13 0 0.93 1.54
1 -13 0 2.98 1.68
2 -13 0 1.26 1.48
-2 13 0 1.14 1.65
-2 -13 0 0.74 1.77
-3 13 0 47.73 3.08
-3 -13 0 49.05 3.24
-4 13 0 115.28 4.9
-4 -13 0 115.28 5.02
-5 13 0 -2.18 1.81
-5 -13 0 -0.8 1.82
-5 -13 0 0.76 2.06
-6 -13 0 5.85 2.14
-6 -13 0 9.05 2.39
6 -13 0 8.57 2.4
-7 -13 0 16.83 2.77
7 -13 0 17.56 2.69
0 -14 0 60.77 3.52
-1 -14 0 16.08 2.33
-1 14 0 14.76 2.12
1 -14 0 21.16 2.36
-2 -14 0 31.63 2.84
-2 14 0 35.74 2.87
2 -14 0 35.96 2.78
-3 14 0 160.43 5.97
-3 -14 0 160.53 6.14
-4 14 0 75.6 4.02
-4 -14 0 77.1 4.19
-5 14 0 33.52 3.05
-5 -14 0 26.29 2.91
-6 -14 0 37.6 3.17
6 -14 0 30.12 3.19
-7 -14 0 -4.97 2.51
7 -14 0 0.46 2.34
0 -15 0 1.81 1.98
-1 -15 0 16.44 2.45
1 -15 0 10.81 2.21
-2 -15 0 59.82 3.78
-3 -15 0 5.28 2.23
-3 15 0 -0.2 1.87
-4 15 0 72.78 4.09
-4 -15 0 73.08 4.22
-5 -15 0 15.63 2.66
-5 15 0 14.11 2.55
6 -15 0 0.23 2.39
-6 -15 0 2.52 2.31
0 -16 0 41.59 3.28
-1 -16 0 13.3 2.48
1 -16 0 15.03 2.44
-2 -16 0 43.29 3.51
-3 -16 0 46.6 3.65
-4 -16 0 3.08 2.39
-5 16 0 46.1 3.61
0 -17 0 -2.71 2.18
1 -17 0 6.74 2.41
-1 -17 0 5.38 2.3
-2 -17 0 6.72 2.55
11 0 -1 4.67 2.54
-11 0 1 0.44 2.24
10 0 -1 1.02 2.21
-10 0 1 -1.39 1.85
9 0 -1 0.92 1.96
-9 0 1 0.71 1.6
-8 0 1 0.94 1.45
8 0 -1 2.42 1.88
7 0 -1 0.28 1.58
-7 0 1 -0.81 1.35
6 0 -1 -1.43 1.34
-6 0 1 2.72 1.25
5 0 -1 -0.59 1.24
-5 0 1 -0.28 0.99
4 0 -1 1.17 0.58
4 0 -1 -0.56 0.99
4 0 -1 0.5 0.83
4 0 -1 -1.49 1.23
-4 0 1 0.37 0.55
-4 0 1 -0.37 0.97
-4 0 1 0.57 0.92
-3 0 1 0.45 0.86
3 0 -1 -0.53 1
3 0 -1 0.29 0.8
-3 0 1 0.03 0.58
2 0 -1 0.55 0.88
2 0 -1 0.22 0.67
-2 0 1 0.44 0.8
-2 0 1 0.65 0.6
-1 0 1 -0.03 0.59
-1 0 1 0.09 0.66
1 0 -1 0.51 0.61
-1 0 1 1.21 0.6
-1 0 1 0.45 0.61
1 0 -1 1.75 0.57
1 0 -1 0.14 0.64
0 0 1 0.77 0.56
0 0 -1 0.72 0.62
0 0 1 -0.5 0.63
0 0 -1 0.48 0.34
0 0 -1 0.68 0.51
-1 0 -1 0.06 0.48
-1 0 -1 -0.03 0.73
1 0 1 0.05 0.48
1 0 1 -0.15 0.55
-1 0 -1 -0.26 0.54
-1 0 -1 -0.03 0.62
-2 0 -1 1.09 0.73
2 0 1 0.04 0.67
-2 0 -1 -0.55 0.89
-2 0 -1 0.02 0.52
2 0 1 -0.33 0.67
2 0 1 0.45 0.68
-3 0 -1 1.28 0.96
3 0 1 0.67 0.76
-3 0 -1 0.37 0.83
3 0 1 1.53 0.79
3 0 1 0.09 0.74
-3 0 -1 0.28 0.45
4 0 1 0.34 0.84
4 0 1 1.01 0.9
-4 0 -1 0.48 0.96
4 0 1 0.18 0.87
-4 0 -1 -0.34 1.07
5 0 1 0.73 1.04
-5 0 -1 0.09 1.02
-5 0 -1 0.74 1.17
-6 0 -1 -0.41 1.19
-6 0 -1 1.91 1.38
-7 0 -1 -0.44 1.42
8 0 1 -1.55 1.79
-8 0 -1 3.26 1.69
9 0 1 -0.87 1.96
-9 0 -1 1.93 1.91
-10 0 -1 1.49 1.92
-11 0 -1 0.91 2.21
-11 -1 1 76.89 4.19
11 -1 -1 73.03 4.36
11 1 -1 69.23 4.34
-11 1 1 74.83 4.26
10 -1 -1 31.28 3.13
10 1 -1 38.85 3.23
-10 -1 1 33.62 2.92
-10 1 1 34.2 2.96
-9 1 1 79.23 3.94
9 1 -1 71.4 4
-9 -1 1 68.96 3.6
9 -1 -1 73.9 3.98
-8 -1 1 328.46 9.25
8 -1 -1 330.04 9.51
8 1 -1 337.26 9.53
-8 1 1 342.35 9.48
7 1 -1 9.06 1.87
-7 -1 1 10.02 1.64
7 -1 -1 6.58 1.76
-7 1 1 9.03 1.66
-6 -1 1 190.19 5.64
-6 1 1 188.25 5.74
6 1 -1 199.05 5.88
-5 1 1 56.5 2.51
5 1 -1 59.25 2.6
-5 -1 1 51.47 2.36
4 1 -1 149.64 3.63
4 1 -1 150.8 4.11
4 1 -1 140.79 3.95
-4 1 1 136.8 3.46
-4 1 1 141.07 4.19
-4 -1 1 147.93 4.05
4 1 -1 131.96 4.19
-4 -1 1 138.52 4.09
-3 1 1 264.77 6.73
3 1 -1 282.18 6.5
3 1 -1 288.33 6.71
3 -1 -1 290 6.91
3 1 -1 288.79 6.95
3 1 -1 281.55 6.79
-3 -1 1 282.27 6.79
-3 1 1 289.94 6.94
-3 1 1 282.77 6.85
-3 1 1 277.9 6.41
-2 -1 1 494.59 10.96
2 1 -1 498.02 11.08
-2 1 1 491.47 11.06
-2 1 1 487.79 10.82
-2 1 1 489.33 11.08
2 -1 -1 497.26 10.79
-2 1 1 500.11 10.95
2 -1 -1 486.44 11
2 1 -1 494.1 10.91
-1 1 1 34.8 1.13
1 -1 -1 35.15 1.24
-1 -1 1 35.54 1.21
-1 1 1 35.48 1.35
1 -1 -1 35.48 1.36
-1 1 1 33.79 1.26
1 -1 -1 35.42 1.32
1 -1 -1 36.69 1.32
1 1 -1 33.64 1.2
0 1 -1 20.73 0.91
0 1 -1 18.52 0.74
0 1 -1 18.05 0.93
0 -1 1 22.35 0.89
0 -1 1 19.46 0.9
0 -1 -1 19.39 0.97
0 -1 1 19.69 0.77
-1 -1 -1 535.86 11.66
1 -1 1 535.84 11.86
-1 1 -1 546.03 11.92
1 -1 1 552.89 11.99
-1 1 -1 550.65 12.05
-1 -1 -1 542.99 12.04
1 -1 1 559.5 11.89
-1 1 -1 541.05 11.73
1 1 1 548.23 11.67
1 1 1 550.91 11.98
-1 -1 -1 557.21 12.02
2 -1 1 336.34 7.54
-2 -1 -1 340.66 7.65
2 1 1 332.6 7.87
-2 -1 -1 342.64 7.99
-2 -1 -1 339.93 7.91
2 1 1 352.15 7.86
2 -1 1 344.63 7.61
-2 1 -1 344.5 7.9
-2 1 -1 343.77 8.02
2 1 1 336.34 7.68
2 -1 1 341.47 7.8
2 -1 1 351.28 7.93
3 -1 1 6.67 0.91
3 1 1 6.92 0.93
-3 -1 -1 6.39 0.84
-3 -1 -1 5.29 1.07
3 1 1 8.07 1.07
-3 1 -1 6.35 1.07
3 -1 1 5.7 0.95
3 1 1 6.84 0.9
-3 1 -1 7.27 0.95
3 -1 1 7.1 0.81
3 -1 1 7.55 1.1
-4 -1 -1 605.04 13.27
-4 -1 -1 590.38 13.94
-4 1 -1 608.37 13.69
4 -1 1 602.81 13.95
4 -1 1 625.6 13.76
4 -1 1 611.49 13.53
4 1 1 610.71 13.74
-4 -1 -1 603.73 14.06
-4 1 -1 580.76 14.09
-4 -1 -1 603.73 13.64
-5 1 -1 10.49 1.41
-5 -1 -1 7.46 1.25
-5 1 -1 6.6 1.09
5 -1 1 8.94 1.28
-5 -1 -1 6.82 1.34
-6 -1 -1 107.33 3.93
-6 -1 -1 103.92 3.97
-6 1 -1 109.2 4.11
6 1 1 113.85 3.93
6 -1 1 114.7 3.99
7 -1 1 43.48 2.63
-7 1 -1 42.3 2.72
-7 -1 -1 45.35 2.73
7 1 1 44.3 2.71
-7 -1 -1 42.19 2.57
-8 1 -1 187.4 6.46
-8 -1 -1 192.03 6.42
8 1 1 197.21 6.31
-9 -1 -1 42.12 2.98
9 -1 1 33.31 2.93
-9 1 -1 41.49 3.04
-10 1 -1 29.19 2.95
-10 -1 -1 31.23 2.97
-11 1 -1 69.36 4.29
-11 -1 -1 72.21 4.26
11 -2 -1 2.96 2.6
-11 2 1 7.74 2.44
11 2 -1 5.54 2.56
-10 2 1 11.03 2.28
10 -2 -1 6.28 2.32
10 2 -1 8.75 2.4
-10 -2 1 10.31 2.14
9 2 -1 2.37 2.04
-9 2 1 0.93 1.75
-9 -2 1 3.52 1.73
9 -2 -1 2.85 2.06
-8 2 1 66.02 3.23
8 2 -1 63.97 3.56
-8 2 1 66.19 3.44
-8 -2 1 66.35 3.32
-7 2 1 142.28 4.67
7 2 -1 141.72 4.98
-7 2 1 139.11 4.91
-7 -2 1 129.17 4.63
-6 2 1 638.25 15.23
-6 2 1 630.77 14.91
-6 -2 1 631.37 14.93
6 2 -1 626.13 15.15
-5 2 1 466.94 11.22
5 2 -1 460.51 11.42
-5 -2 1 472.38 11.21
-5 2 1 460.8 11.44
5 -2 -1 483.09 11.48
4 2 -1 426.35 10.39
4 -2 -1 429.26 10.34
4 2 -1 440.98 9.99
-4 -2 1 430.28 10.11
-4 2 1 420.88 10.34
4 -2 -1 432.78 9.48
-4 2 1 425.5 10.2
4 2 -1 432.6 9.77
-3 -2 1 2152.65 46.3
3 -2 -1 2156.07 46.51
3 -2 -1 2176.29 45.99
-3 2 1 2126.37 46.45
-3 2 1 2191.83 46.37
-3 -2 1 2192.6 46.43
3 2 -1 2172.61 46.22
3 2 -1 2147.27 46.57
3 2 -1 2172.13 46.2
3 -2 -1 2217.5 46.43
-3 2 1 2166.67 46.57
-2 -2 1 664.45 15.25
2 2 -1 696.67 15.42
2 -2 -1 703.67 15.23
2 -2 -1 719.95 15.4
2 2 -1 704.94 15.39
-2 2 1 729.48 15.37
2 2 -1 689.25 15.24
2 -2 -1 696.7 15.41
2 -2 -1 719.59 15.45
-2 2 1 709.02 15.49
-2 2 1 709.11 15.53
-1 -2 1 2533.29 56.49
-1 2 1 2700.56 56.75
1 -2 -1 2739.12 56.68
1 -2 -1 2698.85 56.73
1 -2 -1 2694.4 56.51
1 -2 -1 2683.48 56.69
1 2 -1 2682.88 56.51
1 -2 -1 2713.25 56.53
1 2 -1 2720.6 56.73
0 -2 1 918.37 19.49
0 -2 -1 901 19.6
0 -2 1 889.97 19.33
0 2 -1 916.41 19.67
0 2 1 939.77 19.58
0 -2 1 931.67 19.62
0 2 -1 901.76 19.5
-1 -2 -1 4686.83 98.66
-1 2 -1 4686.64 99.03
1 2 1 4733.68 98.97
1 -2 1 4710.86 98.97
-1 2 -1 4677.1 99.06
-1 -2 -1 4652.62 99.14
-1 -2 -1 4709.42 99.01
1 -2 1 4717.68 99.01
2 -2 1 1481.48 31.73
2 -2 1 1503.38 31.84
-2 2 -1 1475.79 31.76
-2 -2 -1 1475.63 32.31
-2 2 -1 1501.66 32.26
2 2 1 1483.99 32.11
2 2 1 1524.26 32.21
2 2 1 1506.69 31.93
-2 -2 -1 1499.65 31.89
-2 2 -1 1491.84 32.3
2 -2 1 1562.28 32.21
-2 -2 -1 1498.09 32.21
2 -2 1 1524.93 32.15
3 -2 1 214.88 5.42
-3 2 -1 213.14 5.03
-3 2 -1 213.41 5.49
-3 -2 -1 215.32 5.55
3 2 1 212.88 5.3
-3 -2 -1 223.54 5.21
3 -2 1 213.87 5.34
-3 2 -1 208.71 4.76
3 2 1 214.3 5.39
-3 2 -1 211.26 5.57
3 -2 1 206.48 4.76
3 2 1 201.47 5.21
3 -2 1 193.71 5.42
-3 -2 -1 212.52 5.15
3 -2 1 218.07 4.97
-3 -2 -1 203.24 5.43
-4 2 -1 1636.34 36.6
-4 -2 -1 1634.65 36.52
-4 -2 -1 1699.66 35.89
-4 -2 -1 1634.8 36.44
4 2 1 1694.23 36.25
-4 -2 -1 1708.97 36.08
4 -2 1 1686.22 35.86
4 -2 1 1657.55 36.47
-5 -2 -1 300.98 8.07
5 2 1 314.71 7.86
-5 -2 -1 307.15 8.03
-5 2 -1 300.18 8.15
5 -2 1 310.26 8.03
6 -2 1 18.12 1.8
-6 -2 -1 13.89 1.71
-6 -2 -1 15.59 1.77
6 2 1 14.1 1.63
-6 2 -1 17.11 1.8
7 2 1 0.25 1.46
-7 -2 -1 0.57 1.38
-7 2 -1 1.09 1.58
-7 -2 -1 0.41 1.46
7 -2 1 -0.57 1.37
8 -2 1 62.51 3.35
-8 2 -1 69.06 3.6
-8 -2 -1 55.79 3.24
-9 2 -1 18.19 2.43
-9 -2 -1 15.68 2.33
-10 2 -1 2.63 2.08
10 -2 1 4.69 2.27
-10 -2 -1 3.66 2.03
-11 -2 -1 5.67 2.24
-11 2 -1 11.1 2.54
-11 3 1 37.32 3.36
11 -3 -1 36.12 3.52
10 -3 -1 48.24 3.69
-10 3 1 42.69 3.31
10 3 -1 56.11 3.67
-9 3 1 52.83 3.32
-9 -3 1 48.52 2.95
9 3 -1 53.95 3.5
-8 3 1 203.2 6.84
8 3 -1 217.91 6.96
-8 -3 1 218.75 6.57
-7 3 1 12.32 1.59
-7 3 1 14.64 1.94
7 3 -1 15.42 2.06
7 -3 -1 12.48 1.82
-7 -3 1 13.52 1.67
6 3 -1 92.43 3.65
6 -3 -1 86.56 3.54
-6 3 1 85.22 3.53
-6 3 1 89.6 3.25
-6 -3 1 83.43 3.21
-5 3 1 83.65 2.99
-5 3 1 80.61 3.19
5 3 -1 80.97 3.22
-5 -3 1 82.71 2.92
5 -3 -1 83.72 3.21
4 3 -1 70.92 2.28
-4 3 1 66.61 2.66
4 3 -1 66.02 2.24
4 -3 -1 70.02 1.94
4 -3 -1 68.22 2.64
-4 -3 1 64.68 2.34
-4 3 1 66.62 2.49
-3 -3 1 1558.69 33.55
3 3 -1 1558.44 33.47
-3 -3 1 1552.93 33.77
-3 -3 1 1588.2 33.8
3 3 -1 1607.94 33.8
-3 3 1 1576.76 33.95
3 -3 -1 1572.25 33.74
3 -3 -1 1563.04 33.36
-3 3 1 1543.51 33.77
3 -3 -1 1566 33.77
3 3 -1 1570.13 33.64
3 -3 -1 1529.65 33.86
2 -3 -1 187.09 4.55
2 -3 -1 183.3 4.54
-2 3 1 187.17 4.6
2 -3 -1 182.81 4.47
2 3 -1 180.34 4.56
-2 3 1 180.68 4.64
-2 -3 1 169.21 4.25
2 3 -1 180.32 4.23
-2 -3 1 170.68 4.63
2 -3 -1 186.05 4.49
2 3 -1 179.93 4.56
1 -3 -1 15.03 0.88
1 3 -1 14.36 0.71
1 3 -1 14.76 1.1
1 -3 -1 14.16 0.91
1 -3 -1 14.15 0.98
-1 -3 1 14.13 1.06
1 3 -1 15.77 0.96
-1 3 1 13.36 0.89
1 -3 -1 13.61 0.84
1 3 -1 13.5 1.13
-1 -3 1 12.69 0.68
0 -3 -1 384.43 8.74
0 -3 -1 401.89 8.52
0 3 1 387.2 8.53
0 3 -1 385.72 8.46
0 3 -1 391.84 8.59
0 -3 1 380.16 8.57
0 3 1 399.03 8.71
0 3 -1 407.17 8.88
0 3 -1 388.75 8.97
-1 3 -1 1032.1 21.93
1 3 1 1006.47 21.84
-1 -3 -1 1011.49 22.16
-1 3 -1 1002.12 22.12
1 -3 1 1014.41 21.85
1 3 1 1020.76 21.65
-1 3 -1 1027.74 21.89
-1 -3 -1 1006.52 21.88
-2 -3 -1 325.45 7.31
2 3 1 331.39 7.47
-2 -3 -1 319.48 7.55
-2 -3 -1 314.64 7.8
2 -3 1 321.02 6.97
-2 3 -1 320.2 7.77
2 -3 1 328.25 7.62
2 3 1 334.2 7.7
-2 3 -1 321.23 7.28
-2 3 -1 316.23 7.67
2 -3 1 324.09 7.58
-3 3 -1 45.92 2.07
-3 -3 -1 45.37 1.95
-3 -3 -1 46.55 1.85
-3 3 -1 44.7 1.42
3 -3 1 46.89 1.97
-3 3 -1 46.98 2.13
-3 -3 -1 53.32 2.23
3 -3 1 48.5 1.46
3 3 1 52.55 2.03
3 -3 1 48.63 1.93
-3 -3 -1 48.89 1.74
3 3 1 47.53 1.8
3 3 1 49.48 1.87
-4 3 -1 137.78 4.41
-4 -3 -1 146.09 4.48
4 3 1 143.76 4.14
4 -3 1 144.51 4.4
-4 -3 -1 149.99 4
-4 -3 -1 147.46 4.27
-4 -3 -1 143.87 3.95
-5 3 -1 2.17 1.22
5 -3 1 1.95 1.2
-5 -3 -1 2.46 1.22
5 3 1 2.24 1.13
-5 -3 -1 3.23 1.15
-6 -3 -1 38.33 2.51
-6 3 -1 43.58 2.57
6 3 1 43.13 2.39
-6 -3 -1 38.69 2.29
6 -3 1 43.17 2.5
7 3 1 35.75 2.52
-7 -3 -1 35.07 2.37
-7 -3 -1 36.29 2.59
7 -3 1 34.2 2.41
-7 3 -1 34.38 2.58
-8 3 -1 86.46 4.13
-8 -3 -1 83.45 3.98
-8 -3 -1 82.39 3.85
8 -3 1 90.33 4.11
9 -3 1 78.31 4.1
-9 3 -1 71.31 3.96
-9 -3 -1 70.04 3.73
-10 3 -1 27.72 2.94
-11 3 -1 16.01 2.73
11 -3 1 14.21 2.93
11 -4 -1 15.1 2.82
-11 4 1 14.64 2.78
-10 4 1 22.28 2.68
-9 4 1 5.28 1.92
8 -4 -1 69.08 3.63
-8 4 1 65.67 3.54
-7 4 1 3.8 1.59
-7 -4 1 3.24 1.28
7 -4 -1 3.03 1.58
-6 4 1 0.79 1.12
6 -4 -1 1.04 1.17
-6 4 1 0.39 1.34
-6 -4 1 1.15 1.07
-5 4 1 144.17 4.64
-5 -4 1 141.77 4.18
5 -4 -1 141.39 4.6
-5 4 1 149.76 4.33
-4 4 1 121.17 3.62
4 4 -1 128.26 3.54
-4 4 1 114.53 3.81
-4 -4 1 116.59 3.4
4 -4 -1 119.27 3.85
-4 -4 1 118.56 3.65
3 4 -1 1.47 0.63
3 4 -1 0.29 0.81
3 -4 -1 1.04 0.7
3 -4 -1 0.59 0.81
-3 4 1 1.22 0.99
-3 -4 1 -0.22 1.1
3 4 -1 1.13 1.01
-3 -4 1 1.8 0.95
3 -4 -1 0.42 0.85
-3 4 1 1.85 0.86
3 -4 -1 0.54 0.82
-3 -4 1 0.67 0.64
2 4 -1 493.87 11.21
2 -4 -1 485.99 11.06
2 -4 -1 497.32 11.08
2 4 -1 509.63 11.13
-2 -4 1 486.56 11.21
2 4 -1 478.73 10.68
-2 4 1 490.01 11.19
-2 -4 1 495.57 11.38
2 4 -1 484.65 10.66
-2 4 1 491.23 11.21
2 -4 -1 504.43 11.06
1 4 -1 19.71 1.24
1 -4 -1 23.15 1.08
-1 -4 1 20.21 1.1
-1 4 1 19.6 1.12
1 -4 -1 23.29 1.17
-1 -4 1 21.08 1.38
1 4 -1 20.66 0.76
1 -4 -1 19.74 1.08
1 -4 -1 20.26 1.09
1 4 -1 19.36 1.34
0 -4 1 0.55 0.5
0 -4 -1 0.18 0.56
0 4 -1 0.1 0.45
0 4 1 -0.22 0.61
0 -4 1 0.49 0.89
0 4 1 0.45 0.61
0 4 -1 -0.14 0.75
0 4 -1 0.8 0.92
0 -4 -1 1.43 0.55
0 4 -1 0.72 0.52
0 -4 1 0.64 0.79
0 -4 1 -0.06 0.47
-1 4 -1 1305.31 27.83
1 -4 1 1289.05 27.93
1 -4 1 1297.5 27.69
-1 -4 -1 1288.12 28.13
1 4 1 1292.61 27.63
-1 -4 -1 1285.33 27.72
-1 4 -1 1281.91 28.11
-1 4 -1 1295.7 27.75
1 4 1 1301.01 27.67
-2 4 -1 223.45 5.91
-2 -4 -1 236.94 5.89
-2 4 -1 236.1 5.74
-2 -4 -1 220.51 5.39
-2 -4 -1 224.01 5.95
2 -4 1 231.98 5.62
-2 4 -1 225.75 5.44
2 4 1 235.18 5.48
-2 -4 -1 225.31 5.55
-3 -4 -1 60.5 2.36
-3 -4 -1 63.41 2.17
-3 4 -1 64.19 2.49
-3 4 -1 66.55 2.59
-3 -4 -1 63.03 2.59
3 -4 1 66.9 2.35
3 4 1 65.45 2.18
-3 -4 -1 66.17 2.29
4 4 1 0.99 0.85
-4 -4 -1 0.57 0.78
-4 -4 -1 0.61 0.92
-4 4 -1 -0.39 1.06
-4 -4 -1 -0.71 0.8
-4 4 -1 0.38 1.06
5 4 1 1.41 1.2
-5 4 -1 0.23 1.17
-5 -4 -1 0.48 1.33
5 -4 1 1.04 1.14
-5 -4 -1 0.19 0.95
6 -4 1 98.87 3.9
-6 -4 -1 93.37 3.95
6 4 1 101.75 3.71
-6 -4 -1 101.68 3.76
-6 4 -1 99.11 3.97
-7 -4 -1 5.36 1.57
7 -4 1 5.71 1.68
-7 -4 -1 4.7 1.85
-7 4 -1 3.9 1.65
-8 -4 -1 68.92 3.68
-8 4 -1 61.41 3.5
-8 -4 -1 64.13 3.42
8 -4 1 62.45 3.52
-9 4 -1 0.21 1.96
9 -4 1 -0.58 1.92
-10 4 -1 -1.35 2.12
11 -5 -1 37.46 3.61
-11 5 1 30.18 3.29
-10 5 1 36.96 3.17
9 -5 -1 96.51 4.49
-9 5 1 88.62 4.41
-8 5 1 144.21 5.48
8 -5 -1 144.36 5.48
7 -5 -1 41.31 2.78
-7 5 1 47.83 2.87
-6 5 1 184.67 5.82
6 -5 -1 182.62 5.8
5 -5 -1 28.97 1.98
-5 -5 1 24.85 1.51
-5 5 1 29.26 1.67
-5 5 1 25.35 1.88
-5 -5 1 25.17 1.73
-4 5 1 565.59 13.4
-4 5 1 576.65 13.05
-4 -5 1 568.7 13.48
-4 -5 1 546.96 12.74
4 -5 -1 587.72 12.76
4 -5 -1 557.7 13.39
-4 -5 1 554.59 13.25
-3 5 1 26.8 1.46
-3 -5 1 27.69 1.75
3 -5 -1 30.6 1.49
3 -5 -1 27.84 1.62
-3 -5 1 25.71 1.12
-3 5 1 29.07 1.62
-3 -5 1 27.34 1.73
3 -5 -1 27.98 1.36
2 5 -1 254.73 6.23
-2 -5 1 254.53 6.21
-2 -5 1 236.91 6.38
-2 5 1 248.88 6.13
2 -5 -1 257.01 5.99
-2 5 1 245.18 6.17
2 5 -1 243.56 6.02
2 5 -1 244.69 5.45
2 5 -1 237.68 5.46
2 5 -1 246.02 6.4
2 -5 -1 260.43 6.01
2 -5 -1 239.97 5.99
1 5 -1 139.6 3.21
-1 5 1 140.29 3.83
1 5 -1 151.94 4.02
-1 -5 1 139.65 3.77
1 5 -1 144.89 3.68
1 5 -1 138.72 4.12
1 -5 -1 148.53 3.75
1 5 -1 146.77 3.21
1 -5 -1 152.41 3.72
1 -5 -1 147.4 3.78
-1 -5 1 137.13 4.1
0 5 1 234.86 5.48
0 -5 1 233.1 5.88
0 -5 -1 230.65 6.04
0 -5 1 238.14 6.01
0 -5 1 237.04 5.38
0 -5 -1 237.76 5.53
0 5 -1 239.61 5.34
0 5 -1 239.22 5.84
0 5 1 236.1 5.6
0 -5 -1 234.65 5.53
0 5 -1 229.73 6.02
0 -5 1 221.03 5.27
0 5 -1 235.12 5.29
1 -5 1 19.65 1.01
-1 5 -1 18.73 1.44
-1 5 -1 17.85 1.03
-1 5 -1 16.53 1.16
-1 -5 -1 16.15 1.31
1 -5 1 18.88 1.36
-1 -5 -1 18.24 1.01
1 5 1 18.72 0.98
1 -5 1 18.63 1.32
1 5 1 18.73 1.07
-1 -5 -1 18.23 1.37
-2 5 -1 139.97 4.29
-2 5 -1 143.83 4.01
-2 5 -1 153.61 3.87
2 5 1 153.09 3.76
2 -5 1 146.3 3.96
-2 -5 -1 143.31 3.81
2 -5 1 146.61 3.88
-2 -5 -1 141.1 4.31
-2 -5 -1 141.15 4.26
-2 -5 -1 146.63 3.83
2 5 1 150.06 3.87
-3 5 -1 78.99 2.76
-3 -5 -1 77.12 2.52
-3 5 -1 78.59 2.95
-3 -5 -1 75.36 2.76
-3 -5 -1 75.18 2.96
-3 -5 -1 75.26 2.46
-4 -5 -1 158.51 4.49
-4 5 -1 158.22 4.94
-4 -5 -1 164.39 4.66
-4 5 -1 155.34 4.83
-5 -5 -1 79.99 2.94
-5 -5 -1 82.8 3.47
5 -5 1 75.24 3.28
-5 5 -1 66.21 3.07
-6 5 -1 139.23 4.93
-6 -5 -1 146.78 5.12
-6 -5 -1 136.24 4.53
6 -5 1 137.4 4.9
7 -5 1 20.04 2.23
-7 -5 -1 18.32 2.33
-7 5 -1 17.81 2.15
-8 5 -1 263.89 8.41
-8 -5 -1 271.26 8.46
8 -5 1 289.42 8.53
9 -5 1 11.69 2.49
-9 -5 -1 10.36 2.3
-9 5 -1 8.31 2.26
10 -5 1 21.62 2.81
-10 5 -1 24.93 2.98
-10 6 1 1.34 2.23
9 -6 -1 4.08 1.94
-9 6 1 2.84 1.9
-8 6 1 56.58 3.37
8 -6 -1 46.79 3.18
7 -6 -1 6.16 1.73
-7 6 1 5.1 1.67
6 -6 -1 89.17 3.72
-6 6 1 84.43 3.63
5 -6 -1 444.29 11.32
-5 6 1 453.28 11.3
-5 -6 1 452.38 11.09
-5 -6 1 444.33 11.38
4 -6 -1 280.64 6.93
-4 6 1 274.92 7.07
-4 -6 1 290.4 7.64
4 -6 -1 289.84 7.57
-4 6 1 282.16 7.45
-4 -6 1 285.16 7.53
-3 -6 1 350.33 9.07
-3 6 1 356.67 8.97
3 -6 -1 354.09 8.67
-3 6 1 367.09 8.87
-3 -6 1 361.04 9
3 -6 -1 376.11 8.54
2 -6 -1 910.81 20.06
2 -6 -1 934.15 20.16
2 -6 -1 914.72 20.38
2 -6 -1 935.44 20.04
-2 -6 1 879.54 20.28
-2 6 1 907.48 20.34
2 6 -1 932.14 20.1
-2 6 1 923.1 20.19
-2 -6 1 895.98 20.62
2 6 -1 879.58 20.52
1 6 -1 343.25 8.58
-1 -6 1 346.5 8.13
-1 6 1 335.8 8.2
1 -6 -1 343.83 8.52
1 6 -1 345.27 7.99
1 -6 -1 339.78 8.04
1 -6 -1 355.29 8.12
1 -6 -1 359.98 7.99
-1 -6 1 336.45 8.56
0 -6 -1 12.61 1.27
0 6 -1 12.7 0.65
0 6 1 12.91 1.05
0 -6 1 11.91 0.67
0 6 -1 10.25 1.26
0 -6 -1 13.35 0.86
0 -6 1 12.69 0.9
0 6 -1 12.14 0.79
0 -6 -1 12.65 0.93
0 -6 -1 12.31 0.88
0 -6 1 13.31 1.29
0 6 -1 12.33 1.11
-1 6 -1 1679.55 35.42
1 -6 1 1665.16 35.33
-1 -6 -1 1685.46 36.19
-1 6 -1 1635.02 36.12
-1 -6 -1 1661.6 35.36
1 -6 1 1642.08 35.04
1 6 1 1686.59 35.61
-1 -6 -1 1640.18 36.01
-1 6 -1 1669.15 35.76
1 -6 1 1610.7 35.92
-2 6 -1 135.29 3.91
-2 6 -1 146.88 3.89
-2 -6 -1 145.45 4.38
-2 6 -1 136.18 4.34
2 -6 1 142.55 3.82
-2 -6 -1 141.91 4.35
-2 -6 -1 137.76 3.69
2 6 1 148.25 3.93
2 -6 1 152.59 4.09
-3 -6 -1 417.22 10.3
-3 6 -1 429.26 10.12
3 -6 1 429.95 9.79
-3 -6 -1 407.96 10.43
-3 6 -1 402.78 10.43
-3 -6 -1 422.38 9.73
-4 -6 -1 775.75 18
-4 -6 -1 776.9 17.56
-4 6 -1 782.63 18.05
-4 6 -1 797.54 18.36
-5 -6 -1 25.3 1.77
-5 6 -1 29.27 2.14
5 -6 1 26.58 2.06
-5 -6 -1 29.8 2.34
-5 6 -1 25.06 2.07
6 -6 1 109.2 4.39
-6 -6 -1 110.27 4.48
-6 6 -1 109.77 4.28
7 -6 1 0.85 1.66
-7 6 -1 -0.67 1.51
-7 -6 -1 1.23 1.75
-8 -6 -1 10.97 2.29
8 -6 1 10.95 2.17
-8 6 -1 10.95 2.15
9 -6 1 1.25 2.04
-9 -6 -1 1.25 2.1
-9 6 -1 2.3 2.04
10 -6 1 1.8 2.39
-10 6 -1 5.7 2.31
10 -7 -1 68.65 4.17
-10 7 1 60.03 4.04
-9 7 1 37.56 3.16
9 -7 -1 39.09 3.25
-8 7 1 9.98 2.08
8 -7 -1 8.91 1.98
7 -7 -1 13.96 2.05
-7 7 1 14.87 2.01
6 -7 -1 4.9 1.6
-6 7 1 5.41 1.55
5 -7 -1 39.44 2.41
-5 -7 1 38.97 2.51
-5 7 1 34.05 2.19
-5 -7 1 33.11 2.18
-4 -7 1 8.83 1.48
-4 -7 1 10.02 1.52
4 -7 -1 9.38 1.4
-4 7 1 10.85 1.4
-3 7 1 433.55 10.34
3 -7 -1 425.06 10.27
-3 -7 1 430.6 10.55
-3 7 1 425.97 10.53
3 7 -1 449.67 10.75
-3 -7 1 415.25 10.7
2 -7 -1 26.71 1.41
2 7 -1 27.12 1.83
-2 -7 1 25.9 1.61
-2 7 1 29.31 1.69
2 7 -1 31.86 1.53
-2 7 1 29.93 1.53
2 -7 -1 25.46 1.6
-2 -7 1 26.65 1.81
1 -7 -1 39.07 1.6
1 -7 -1 42.43 2.08
1 -7 -1 40 1.69
-1 -7 1 38.45 1.73
1 7 -1 40.95 2.11
-1 7 1 38.71 1.84
-1 -7 1 43.63 2.2
0 -7 -1 0.61 0.56
0 -7 1 1.36 1.06
0 7 1 0.7 0.79
0 -7 -1 0.33 0.68
0 7 -1 0.19 1.06
0 -7 -1 1.98 1.06
0 -7 1 0.76 0.68
0 -7 -1 -0.32 0.88
-1 7 -1 116.28 3.84
-1 -7 -1 115 3.86
-1 -7 -1 115.61 3.74
-1 -7 -1 114.2 3.01
1 7 1 115.96 3.39
1 -7 1 107.63 3.63
-2 -7 -1 55.4 2.56
-2 -7 -1 59.96 2.61
-2 7 -1 58.58 2.13
2 7 1 57.46 2.2
2 -7 1 55.93 2.31
-2 7 -1 55.48 2.57
-3 -7 -1 259.37 6.98
-3 -7 -1 255.08 7.03
-3 7 -1 253.78 6.59
-3 7 -1 250.58 7.02
3 -7 1 249.48 6.42
3 7 1 244.83 6.44
-4 -7 -1 72.39 2.98
-4 7 -1 60.56 2.97
-4 7 -1 60.98 2.73
-5 -7 -1 87.68 3.86
-5 -7 -1 80.91 3.31
-5 7 -1 91.56 3.85
-5 7 -1 86.69 3.49
6 -7 1 6.45 1.75
-6 -7 -1 7.19 1.94
-6 7 -1 7.2 1.6
7 -7 1 -1.08 1.61
-7 -7 -1 0.56 1.96
-7 7 -1 0.67 1.67
-8 -7 -1 97.13 4.65
-8 7 -1 90.79 4.34
8 -7 1 83.84 4.27
-9 -7 -1 30.34 3.17
9 -7 1 23.87 2.92
-9 7 -1 24.16 2.9
10 -7 1 16 2.81
-10 7 -1 14.42 2.67
10 -8 -1 7.22 2.58
-10 8 1 5.88 2.36
9 -8 -1 9.27 2.39
-9 8 1 8.71 2.24
-8 8 1 78.54 4
8 -8 -1 70.82 3.91
-7 8 1 3.32 1.77
7 -8 -1 0.88 1.65
6 -8 -1 54.57 3
-6 8 1 56.62 2.99
-6 -8 1 39.82 2.83
-5 -8 1 58.92 3.08
5 -8 -1 54.3 2.86
-5 -8 1 51.6 2.83
-5 8 1 61.88 2.87
4 -8 -1 19.37 1.77
4 8 -1 16.77 1.88
-4 -8 1 17.86 1.82
-4 8 1 18.98 1.84
-4 -8 1 22.23 1.94
-4 8 1 16.4 1.49
-3 -8 1 55.01 2.56
3 -8 -1 50.73 2.3
-3 8 1 60.68 2.65
-3 8 1 54.45 2.33
-3 -8 1 52.78 2.69
3 8 -1 56.73 2.7
2 -8 -1 114.93 3.85
2 8 -1 117.49 4.03
-2 -8 1 116.98 3.72
-2 8 1 115.09 3.79
-2 -8 1 109.4 4.03
2 -8 -1 115.87 3.45
1 8 -1 245.14 6.81
1 -8 -1 252.26 6.78
-1 -8 1 251.53 6.25
-1 8 1 241.98 6.43
-1 -8 1 238.94 6.82
0 -8 1 8.53 1.39
0 8 1 7.41 1.11
0 -8 -1 7.21 1.2
0 -8 -1 6.88 1.14
0 8 -1 8.52 1.34
-1 -8 -1 494.45 12.39
-1 8 -1 513.2 12.36
-1 -8 -1 496.37 12.17
1 8 1 512.31 11.83
1 -8 1 511.17 12.19
-2 -8 -1 8.56 1.42
2 -8 1 6.07 1.17
2 8 1 4.83 1
-2 -8 -1 6.5 1.34
-2 8 -1 6.35 1.36
3 -8 1 2 0.93
-3 8 -1 2.53 1.37
-3 -8 -1 1.71 1.22
-3 -8 -1 2.19 1.37
-4 8 -1 12.73 1.81
-4 -8 -1 15.23 1.74
-5 -8 -1 42.87 2.55
-5 -8 -1 52.55 3.14
-5 8 -1 50.8 2.93
-5 8 -1 45.7 2.57
-6 -8 -1 29.36 2.74
6 -8 1 26.87 2.45
-6 8 -1 29.96 2.29
7 -8 1 9.59 2.04
-7 -8 -1 8.39 2.24
-7 8 -1 8.3 2.01
8 -8 1 88.32 4.54
-8 -8 -1 95.72 4.72
-8 8 -1 91.54 4.32
-9 -8 -1 2.93 2.43
9 -8 1 1.78 2.2
-9 8 -1 1.9 2.09
-10 8 -1 0.23 2.24
-10 9 1 26.89 3.09
10 -9 -1 20.24 2.99
-9 9 1 51.97 3.58
9 -9 -1 57.08 3.86
8 -9 -1 90.15 4.5
-8 9 1 90.43 4.28
7 -9 -1 54.84 3.41
-7 9 1 60.04 3.35
-6 9 1 144.7 5.09
-6 -9 1 147.35 5.42
6 -9 -1 142.64 5.31
-6 -9 1 142.89 5.14
5 -9 -1 97.51 3.98
-5 -9 1 96.4 4.06
5 9 -1 93.1 3.98
-5 -9 1 96.16 4.01
-4 -9 1 94.57 3.84
-4 -9 1 86.17 3.63
-4 9 1 92.88 3.68
4 9 -1 83.49 3.63
-3 9 1 15.5 1.67
3 -9 -1 12.26 1.41
-3 -9 1 11.32 1.56
-3 -9 1 12.45 1.75
3 9 -1 16.15 1.79
2 -9 -1 28.51 1.93
-2 -9 1 26.46 2.05
-2 -9 1 30.97 1.87
-2 9 1 30.24 1.97
2 9 -1 28.79 2.09
-1 9 1 17.25 1.52
-1 -9 1 17.95 1.74
1 -9 -1 19.34 1.76
1 9 -1 16.89 1.72
1 -9 -1 16.09 1.41
0 9 1 9.43 1.26
0 -9 1 11.76 1.54
0 9 -1 8.22 1.48
0 -9 -1 8 1.46
0 -9 -1 8.32 1.22
1 -9 1 2 1.17
1 9 1 1.44 1.04
-1 -9 -1 1.64 1.17
-1 9 -1 1.57 1.31
-1 -9 -1 3.19 1.22
-2 -9 -1 19.75 1.83
-2 -9 -1 21.09 1.82
2 -9 1 18.5 1.67
-2 9 -1 17.52 1.85
-3 -9 -1 38.3 2.44
-3 -9 -1 41.28 2.58
-3 9 -1 45.4 2.66
-4 -9 -1 87.27 3.7
-4 9 -1 83.15 3.8
-5 -9 -1 103.51 4.18
-5 -9 -1 103.93 4.53
-5 9 -1 110.71 4.54
-6 -9 -1 105.97 4.7
6 -9 1 99.61 4.5
7 -9 1 45.63 3.18
-7 -9 -1 43.74 3.37
8 -9 1 118.62 5.27
-8 -9 -1 108.74 5.21
-9 -9 -1 15.41 2.82
9 -9 1 16.29 2.74
9 -10 -1 3.18 2.35
8 -10 -1 10.65 2.4
7 -10 -1 3.25 1.99
6 -10 -1 17.15 2.28
-6 -10 1 15.42 2.26
-6 -10 1 19.04 2.2
6 10 -1 20.56 2.33
-5 -10 1 116.08 4.57
5 -10 -1 115.45 4.56
-5 -10 1 109.18 4.56
5 10 -1 112.34 4.54
-4 -10 1 162.72 5.44
-4 10 1 165.4 5.51
4 10 -1 163.71 5.48
-4 -10 1 154.68 5.58
-3 -10 1 90.71 3.57
3 10 -1 91.14 3.78
3 -10 -1 89.78 3.5
-3 10 1 88.81 3.62
-3 -10 1 97.83 4.01
2 -10 -1 321.82 8.73
-2 10 1 338.96 8.69
2 10 -1 312.96 8.84
-2 -10 1 328.36 9.03
1 -10 -1 100.55 3.52
1 -10 -1 99.12 3.89
-1 10 1 101.44 3.63
1 10 -1 110.35 4.05
-1 -10 1 103.69 4.06
0 -10 -1 110.62 4.15
0 -10 -1 109.67 3.83
0 10 -1 111.69 4.14
0 -10 1 100.74 4.02
-1 -10 -1 313.1 8.75
-1 -10 -1 316.67 8.43
-1 10 -1 306.23 8.61
1 -10 1 326.48 8.6
-2 -10 -1 106.57 4.19
-2 -10 -1 108.44 4.04
-2 10 -1 110.13 4.2
2 -10 1 102.39 3.91
-3 -10 -1 137.85 4.99
-3 -10 -1 137.36 4.9
-3 10 -1 137.39 5.05
-4 -10 -1 283.65 8.1
-4 10 -1 261.1 8.05
-5 10 -1 4.6 1.89
-5 -10 -1 2.54 1.61
-5 -10 -1 3.9 1.77
-6 -10 -1 54.93 3.58
6 -10 1 55.52 3.47
7 -10 1 8.91 2.37
-7 -10 -1 8.53 2.41
8 -10 1 6.03 2.33
-8 -10 -1 -0.68 2.38
-9 -10 -1 1.21 2.47
9 -10 1 7.81 2.48
9 -11 -1 15.79 2.9
8 -11 -1 2.59 2.11
7 -11 -1 19.14 2.55
-6 -11 1 -2.7 1.96
6 -11 -1 0.18 1.8
6 11 -1 -0.52 1.82
-6 -11 1 -1.06 1.71
-5 -11 1 5.59 1.92
-5 -11 1 2.9 1.76
5 -11 -1 5.21 1.81
5 11 -1 4.27 1.74
-4 11 1 3.47 1.51
-4 -11 1 3.94 1.73
-4 -11 1 4.71 1.69
4 11 -1 4.22 1.79
3 -11 -1 166.12 5.35
3 11 -1 162.26 5.6
-3 11 1 168.78 5.46
-3 -11 1 159.84 5.75
-2 11 1 2 1.26
2 -11 -1 0.96 1.3
-2 -11 1 2.06 1.66
2 11 -1 2.33 1.52
-1 -11 1 9.89 1.82
1 11 -1 8.3 1.76
1 -11 -1 9.66 1.65
0 -11 -1 1.5 1.36
0 -11 1 1.31 1.5
0 11 -1 -0.29 1.45
0 -11 -1 1.24 1.2
1 -11 1 14.89 1.79
-1 -11 -1 9.83 1.67
-1 -11 -1 11.95 1.7
-1 11 -1 12.61 1.82
-2 11 -1 14.89 1.97
2 -11 1 17.82 1.89
-2 -11 -1 13.87 1.9
-2 -11 -1 16.48 1.91
-3 -11 -1 150.31 5.62
-3 -11 -1 163.51 5.6
-3 11 -1 168.56 5.75
-4 -11 -1 105.07 4.41
-4 11 -1 100.57 4.48
-5 -11 -1 57.52 3.3
-5 -11 -1 54.88 3.45
-5 11 -1 50.41 3.38
-6 -11 -1 9.35 2.33
6 -11 1 5.14 2.1
-6 11 -1 4.25 2.11
7 -11 1 13.01 2.58
-7 -11 -1 9.08 2.54
8 -11 1 42.13 3.57
-8 -11 -1 50.7 3.91
8 -12 -1 29.31 3.13
7 -12 -1 7.47 2.21
6 -12 -1 53.79 3.45
-6 -12 1 59.59 3.59
-6 -12 1 63.97 3.68
5 12 -1 16.27 2.26
-5 -12 1 14.76 2.29
5 -12 -1 17.45 2.25
-4 12 1 1.13 1.61
-4 -12 1 1.49 1.71
4 12 -1 0.5 1.73
-3 12 1 49.15 2.9
3 12 -1 52.94 3.09
-3 -12 1 52.83 3.3
2 -12 -1 60.11 3.15
-2 -12 1 59.12 3.36
2 12 -1 60.8 3.28
1 -12 -1 185.24 6.15
1 12 -1 185.05 6.17
-1 -12 1 190.89 6.32
0 -12 -1 74.12 3.68
0 12 -1 71.41 3.53
0 -12 1 84.75 3.77
-1 -12 -1 131.79 5.09
-1 12 -1 133.98 5
1 -12 1 130.23 4.9
-2 -12 -1 97.92 4.35
-2 -12 -1 97.79 4.01
-2 12 -1 92.76 4.15
2 -12 1 94.63 4
-3 12 -1 1.75 1.68
-3 -12 -1 -1.09 1.69
-3 -12 -1 1.58 1.73
-4 12 -1 15.16 2.34
-4 -12 -1 9.98 2.06
-4 -12 -1 10.14 2.15
-5 -12 -1 76.04 3.98
-5 -12 -1 79.81 4.23
-5 12 -1 79.13 4.12
-6 -12 -1 6.34 2.38
-6 12 -1 2.98 2.17
7 -12 1 36.17 3.32
-7 -12 -1 40.77 3.57
-8 -12 -1 50.56 3.89
8 -12 1 55.95 4.07
8 -13 -1 47.36 3.7
7 -13 -1 30.89 3.07
6 -13 -1 106.18 4.81
-6 -13 1 104.95 4.97
5 -13 -1 92.81 4.48
-5 -13 1 99.36 4.73
-4 -13 1 -0.2 1.92
4 13 -1 0.53 1.77
3 13 -1 88.4 4.16
-3 -13 1 93.53 4.44
2 13 -1 -0.68 1.78
-2 -13 1 2.08 1.8
2 -13 -1 0.99 1.57
-1 -13 1 6.55 1.89
1 13 -1 8.69 1.98
1 -13 -1 7.4 1.79
0 -13 1 25.07 2.51
0 13 -1 20.48 2.32
0 -13 -1 27.17 2.46
-1 13 -1 6.03 1.91
1 -13 1 4.36 1.86
-1 -13 -1 5.55 1.83
-2 13 -1 4.65 1.77
-2 -13 -1 2.29 1.72
-3 13 -1 11.64 2.19
-3 -13 -1 8.2 2.09
-4 -13 -1 42.69 3.18
-4 -13 -1 48.23 3.32
-4 13 -1 46.53 3.27
-5 -13 -1 79.45 4.13
-5 -13 -1 82.66 4.36
-5 13 -1 74.18 4.14
-6 -13 -1 69.08 4.13
-6 13 -1 57.84 3.95
7 -13 1 45.31 3.66
-7 -13 -1 39.81 3.6
7 -14 -1 2.21 2.14
-6 -14 1 19.56 2.8
6 -14 -1 17.18 2.66
-5 -14 1 1.95 2.17
-4 -14 1 76.79 4.32
3 14 -1 36.12 2.91
-3 -14 1 44.63 3.41
-2 -14 1 19.14 2.56
2 14 -1 18.53 2.43
2 -14 -1 18.69 2.28
1 -14 -1 109.17 4.77
-1 -14 1 123.7 5.14
1 14 -1 120.09 4.94
0 14 -1 79.72 3.96
0 -14 1 77.72 4.07
0 -14 -1 75.04 3.97
1 -14 1 34.89 2.86
-1 -14 -1 35.25 2.92
-1 14 -1 33.55 2.86
-2 14 -1 87.88 4.31
-2 -14 -1 84.56 4.32
-3 14 -1 14.78 2.48
-3 -14 -1 16.7 2.48
-4 -14 -1 53.58 3.54
-4 14 -1 51.23 3.49
-5 -14 -1 -0.21 1.97
-5 -14 -1 2.54 2.19
-5 14 -1 1.32 2.21
-6 -14 -1 3.16 2.37
-6 14 -1 3.24 2.35
-6 -15 1 2.06 2.44
-5 -15 1 0.69 2.13
-4 -15 1 11.98 2.51
-3 -15 1 73.68 4.26
-2 -15 1 0.22 2.09
2 -15 -1 2.47 1.85
2 15 -1 0.57 1.88
1 15 -1 -0.76 1.89
-1 -15 1 0.21 2.02
1 -15 -1 0.99 1.76
0 -15 1 9.11 2.32
0 15 -1 12.07 2.3
0 -15 -1 11.14 2.26
-1 15 -1 20.13 2.62
1 -15 1 19.14 2.58
-1 -15 -1 17.2 2.51
-2 -15 -1 1.09 2.06
-2 15 -1 -0.2 1.89
-3 15 -1 22.19 2.8
-3 -15 -1 24.37 2.85
-4 -15 -1 13.26 2.54
-4 15 -1 13.44 2.59
-5 15 -1 0.23 2.31
-5 -15 -1 -0.68 2.12
-6 -15 -1 4.4 2.55
-4 -16 1 2.14 2.29
-3 -16 1 12.41 2.63
-2 -16 1 72.16 4.28
-1 -16 1 41.8 3.43
1 -16 -1 38.62 3.17
0 -16 -1 107.3 5.07
0 16 -1 108.65 4.99
0 -16 1 111.05 5.14
1 -16 1 36.06 3.22
-1 -16 -1 46.86 3.47
-1 16 -1 40.57 3.3
-2 -16 -1 30.51 3.1
-2 16 -1 36.64 3.23
-3 16 -1 7.31 2.42
-3 -16 -1 9.59 2.42
-4 16 -1 4.36 2.27
-4 -16 -1 3.56 2.24
-2 -17 1 0.24 2.29
-1 -17 1 10.74 2.62
1 -17 -1 6.4 2.33
0 -17 -1 8.7 2.49
0 -17 1 11.69 2.53
-1 17 -1 -0.43 2.13
-1 -17 -1 0.71 2.21
-2 17 -1 1.33 2.19
-2 -17 -1 2.9 2.27
-11 0 2 7.32 2.31
-11 0 2 12.63 2.47
11 0 -2 13.24 2.87
-10 0 2 5.83 2.02
-10 0 2 5.74 2.02
10 0 -2 5.83 2.26
9 0 -2 32.75 3.03
-9 0 2 36.74 2.77
-9 0 2 34.06 2.72
8 0 -2 24 2.49
-8 0 2 18.98 2.1
-8 0 2 15.87 2.04
-7 0 2 963.46 22.08
-7 0 2 928.38 22.04
7 0 -2 943.87 22.21
-6 0 2 68.58 3.05
-6 0 2 70.45 3.03
6 0 -2 64.32 3.09
-5 0 2 45.88 1.88
-5 0 2 45.88 2.34
-5 0 2 50.51 2.36
5 0 -2 48.52 2.45
4 0 -2 1921.37 41.58
-4 0 2 1870.53 41.65
-4 0 2 1936.77 41.61
-4 0 2 1934.6 41.2
-3 0 2 335.46 8.28
3 0 -2 334.81 8.06
3 0 -2 345.77 8.14
3 0 -2 324.25 8.15
-3 0 2 336.15 8.03
-2 0 2 2529.83 54.99
2 0 -2 2594.33 55.04
-2 0 2 2581.09 55.06
2 0 -2 2612.2 54.91
-2 0 2 2573.8 54.75
-1 0 2 2980.21 66.98
-1 0 2 3175.01 66.68
-1 0 2 3211.53 67.01
1 0 -2 3209.74 66.92
1 0 -2 3085.82 67.11
-1 0 2 3183.31 67.11
1 0 -2 3238.16 66.98
0 0 -2 3715.97 78.15
0 0 -2 3695.43 78.42
0 0 -2 3630.4 78.69
0 0 2 3706.66 78.65
0 0 2 3784.36 78.55
-1 0 -2 434.94 9.67
1 0 2 473.26 10.17
1 0 2 434.04 10.09
-1 0 -2 456.02 10.01
1 0 2 411.57 9.65
-1 0 -2 462.73 10.31
-2 0 -2 918.64 20.72
-2 0 -2 916.28 20.38
2 0 2 902 20.17
2 0 2 953.44 20.11
-2 0 -2 940.71 20.28
2 0 2 954.61 20.55
3 0 2 478.11 11.1
3 0 2 497.09 11.02
-3 0 -2 492.04 10.95
-3 0 -2 472.27 11.63
-3 0 -2 489.6 11.24
-4 0 -2 25.11 1.86
4 0 2 27.19 1.58
-5 0 -2 208.39 6.19
5 0 2 200.95 5.71
-5 0 -2 210.63 5.81
-6 0 -2 265.96 7.74
-7 0 -2 176.02 6.04
-8 0 -2 9.47 2.12
-9 0 -2 39.1 3.16
-10 0 -2 5.42 2.22
11 1 -2 29.01 3.23
11 -1 -2 37.83 3.49
-11 -1 2 36.48 3.13
-11 -1 2 34.75 3.09
-11 1 2 32.04 3.23
-10 -1 2 7.1 2.04
10 1 -2 9.02 2.43
10 -1 -2 7.72 2.47
-10 1 2 6.66 2.04
-10 1 2 9.14 2.11
-10 -1 2 5.15 2.02
-9 1 2 87.95 4.04
-9 1 2 78.35 4
-9 -1 2 74.18 3.78
9 -1 -2 86.18 4.24
9 1 -2 89.47 4.32
8 -1 -2 18.79 2.36
-8 1 2 21.04 2.17
-8 -1 2 20.82 2.16
8 1 -2 21.83 2.45
-8 1 2 24.69 2.26
-7 1 2 289 8.29
-7 1 2 294.58 8.35
7 1 -2 308.86 8.54
7 -1 -2 285.74 8.38
-7 -1 2 304.94 8.29
6 -1 -2 273.98 7.58
-6 1 2 263.23 7.48
6 1 -2 273.47 7.62
-6 -1 2 272.41 7.41
-6 1 2 265.64 7.49
-5 -1 2 76.15 2.96
-5 1 2 69.07 2.97
5 -1 -2 73.74 3.03
-5 1 2 75.41 3.02
-5 -1 2 76.77 2.58
5 1 -2 72.8 3.08
-4 -1 2 231.68 6.02
-4 1 2 234.58 6.17
-4 1 2 229.91 6.14
-4 1 2 223.3 5.65
-4 -1 2 216.93 5.73
4 1 -2 228.21 6.15
4 -1 -2 219.18 6.04
3 -1 -2 19.55 1.15
3 1 -2 11.89 1.34
-3 1 2 16.73 1.36
-3 -1 2 18.31 1.44
-3 -1 2 13.64 1.39
-3 1 2 18.87 1.25
-3 1 2 17.53 1.26
-3 1 2 17.99 1.46
-3 -1 2 19.68 1.29
3 1 -2 16.09 1.18
3 -1 -2 18.87 1.44
2 1 -2 260.65 6.46
-2 1 2 261 6.58
-2 -1 2 260.38 6.52
2 -1 -2 265.98 6.58
2 1 -2 265.72 6.38
-2 1 2 267.92 6.21
-2 -1 2 265.64 6.32
-2 1 2 269.89 6.51
-2 -1 2 257.89 6.51
2 -1 -2 265.25 6.26
2 -1 -2 266.61 6.37
-1 -1 2 266.95 6.35
-1 1 2 266.58 6.47
1 -1 -2 258.65 6.5
-1 -1 2 264.17 6.33
1 1 -2 264.35 6.26
-1 1 2 265.33 6.49
1 -1 -2 268.91 6.4
-1 -1 2 254.99 6.47
1 1 -2 265.01 6.45
-1 1 2 279.12 6.42
0 -1 -2 41.11 1.58
0 1 2 38.89 1.01
0 -1 -2 34.24 1.64
0 1 -2 34.29 1.67
0 -1 2 42.04 1.72
0 -1 2 35.26 1.57
0 1 -2 31.19 1.4
0 1 -2 33.2 1.39
1 1 2 29.77 0.92
-1 1 -2 26.49 1.61
-1 -1 -2 27.48 1.64
-1 1 -2 28.18 1.28
1 1 2 22.82 0.88
1 -1 2 28.38 1.44
1 -1 2 32.2 1.56
-1 -1 -2 33.67 1.49
1 -1 2 30.56 1.26
-2 -1 -2 183.79 4.75
-2 1 -2 176.99 4.53
-2 1 -2 178.93 4.45
2 1 2 180.55 4.23
-2 1 -2 178 4.93
-2 1 -2 176.99 4.47
2 -1 2 183.84 4.59
2 -1 2 184.95 4.47
-2 -1 -2 171.08 4.88
2 -1 2 174.06 4.76
2 1 2 178.54 4.26
-2 -1 -2 175.54 4.56
-3 1 -2 393.37 9.11
3 -1 2 380.86 9.25
-3 -1 -2 399.77 9.46
3 -1 2 400.42 9.14
-3 1 -2 387.5 9.7
-3 -1 -2 383.95 9.64
3 1 2 403.32 9.08
-3 -1 -2 397.33 9.09
4 -1 2 41.13 1.9
4 1 2 38.17 1.76
-4 1 -2 38.92 1.83
-4 -1 -2 41.41 2.03
-4 -1 -2 34.39 2.16
-4 1 -2 41.46 2.27
-5 -1 -2 255.57 7.35
-5 -1 -2 261.31 7.11
-5 1 -2 274.83 7.51
5 -1 2 262.46 7
-6 -1 -2 220.41 6.37
-6 1 -2 205.61 6.6
-6 -1 -2 223 6.66
6 -1 2 211.65 6.26
-7 1 -2 40.19 2.8
-7 -1 -2 37.27 2.7
-8 -1 -2 14.2 2.18
-8 1 -2 16.83 2.33
-9 1 -2 60.37 3.74
-9 -1 -2 59.25 3.73
-10 -1 -2 4.21 2.2
-10 1 -2 8.25 2.35
11 2 -2 23.38 3.17
11 -2 -2 19.93 3
-11 2 2 18.75 2.79
-10 2 2 9.15 2.27
10 2 -2 5.25 2.42
10 -2 -2 5.05 2.27
-10 -2 2 3.71 1.83
9 2 -2 2.28 2
9 -2 -2 -0.95 1.93
-9 2 2 1.02 1.66
-9 -2 2 -0.17 1.61
-9 2 2 1.88 1.77
-8 2 2 5.19 1.66
8 2 -2 5.41 2.18
8 -2 -2 6.23 2.06
-8 -2 2 3.69 1.43
-8 2 2 4.37 1.7
7 2 -2 4.59 1.83
-7 2 2 3.26 1.46
7 -2 -2 1.03 1.7
-7 -2 2 3.21 1.42
-7 2 2 3.99 1.61
6 2 -2 3.45 1.56
-6 2 2 5.14 1.35
6 -2 -2 4.64 1.55
-6 -2 2 5.02 1.21
-6 2 2 5.24 1.44
-5 2 2 39.49 2.21
-5 -2 2 34.85 2
-5 2 2 39.48 2.16
5 2 -2 36.86 2.27
-4 -2 2 21.04 1.5
-4 2 2 20.36 1.6
-4 2 2 19.47 1.58
4 2 -2 22.6 1.38
4 -2 -2 23.69 1.24
4 2 -2 22.02 1.38
3 -2 -2 57.66 1.99
3 -2 -2 55.05 2.23
-3 2 2 56.27 2.33
-3 2 2 58.8 2.03
-3 2 2 57.73 2.31
3 -2 -2 59.85 2.2
3 2 -2 52.53 2.15
3 2 -2 53.36 2.05
-3 -2 2 54.71 2.22
2 -2 -2 26.83 1.25
2 2 -2 19.58 1.23
-2 2 2 28.31 1.2
2 -2 -2 21.08 1.48
-2 2 2 19.66 1.58
2 -2 -2 20.03 1.49
-2 -2 2 27.9 1.45
-2 -2 2 21.37 1.56
2 -2 -2 25.17 1.32
2 2 -2 14.98 1.27
2 -2 -2 22.06 1.57
-1 -2 2 42.34 1.8
-1 2 2 55.43 1.46
-1 -2 2 48.53 1.82
1 -2 -2 56.37 1.98
1 2 -2 39.49 1.72
1 -2 -2 51.17 2.03
1 -2 -2 48.27 1.47
0 2 -2 265.45 6.19
0 -2 2 269.85 6.22
0 -2 2 271.57 6.37
0 2 -2 281.68 6.56
0 -2 -2 269.69 6.64
0 -2 2 262.06 6.43
0 2 -2 272.52 6.44
0 -2 2 259.62 6.58
0 2 2 281.72 6.54
-1 2 -2 250.91 5.92
1 -2 2 265.18 6.35
-1 2 -2 261.97 6.46
-1 -2 -2 264.38 6.5
-1 -2 -2 274.12 6.36
1 2 2 262.86 6.36
1 -2 2 267.06 6.21
1 -2 2 248.33 6.33
-1 2 -2 260.2 6.27
2 2 2 158.6 3.72
2 2 2 153.63 4.26
-2 -2 -2 164.8 4.44
-2 -2 -2 163.59 4.16
2 2 2 158.44 3.67
-2 2 -2 153.16 3.81
-2 2 -2 153.8 4.21
2 -2 2 158.99 4.11
-2 -2 -2 152.2 4.41
-2 2 -2 149.85 4.43
2 -2 2 153.73 4.08
2 -2 2 146.43 4.25
3 2 2 96.62 2.71
-3 -2 -2 93.49 3.27
3 -2 2 89.33 2.7
-3 2 -2 93.84 3.06
-3 -2 -2 94.59 2.82
-3 -2 -2 92.72 3.19
3 -2 2 94 2.89
-3 2 -2 98.53 3.36
4 -2 2 13.69 1.33
-4 -2 -2 15.13 1.5
-4 -2 -2 12.9 1.53
-4 2 -2 14.23 1.52
5 -2 2 27.98 1.84
-5 2 -2 30.31 2.2
-5 -2 -2 28.81 2.08
-5 -2 -2 27.38 2.04
6 -2 2 0.86 1.28
-6 -2 -2 1.28 1.47
-6 2 -2 -0.15 1.4
-6 -2 -2 0.56 1.4
7 -2 2 2.12 1.46
-7 -2 -2 0.58 1.66
-7 2 -2 -0.85 1.6
-7 -2 -2 3.5 1.6
-8 -2 -2 -1.79 1.88
-8 2 -2 0.38 1.85
-9 -2 -2 4.34 1.82
-9 2 -2 -0.85 1.98
-10 2 -2 4.88 2.32
-10 -2 -2 -0.22 2.09
11 -3 -2 41.46 3.7
-11 3 2 45.39 3.67
-10 3 2 60.17 3.85
10 -3 -2 74.9 4.24
9 -3 -2 38.98 3.12
-9 3 2 40.34 2.99
8 -3 -2 52.75 3.28
-8 3 2 55.81 3.08
-8 -3 2 53.74 2.87
-8 3 2 54.85 3.19
-7 3 2 439.33 11.26
-7 -3 2 435.76 11.11
-7 3 2 436.58 11.49
-6 -3 2 64.78 2.82
-6 3 2 65.62 2.95
-6 3 2 59.63 2.99
-5 3 2 361.19 9.06
-5 -3 2 344.47 8.73
-5 3 2 349.9 9.13
-4 3 2 36.22 2.07
4 3 -2 35.8 1.65
-4 3 2 39.26 2.03
4 -3 -2 38.81 1.92
-4 -3 2 35.15 1.73
4 -3 -2 36.49 1.54
3 3 -2 101.16 3.12
-3 3 2 107.45 3.44
3 3 -2 105.24 3.25
-3 3 2 108.58 3.14
-3 3 2 102.51 3.47
3 3 -2 102.21 3.03
3 -3 -2 109.87 3.21
3 -3 -2 110.64 3.13
3 3 -2 106.11 3.24
2 3 -2 5.92 0.84
2 -3 -2 8.21 1.14
2 3 -2 7.67 1.08
-2 3 2 6.29 1.07
2 -3 -2 7.6 1
2 -3 -2 10.82 1.11
2 3 -2 7.63 0.84
2 -3 -2 7.96 1.03
2 -3 -2 8.59 0.83
2 -3 -2 7.77 0.8
1 -3 -2 12.89 1.17
1 3 -2 9.45 1.01
1 -3 -2 13.2 1.19
-1 -3 2 10.87 0.96
-1 3 2 12.64 1.13
1 -3 -2 11.43 1.2
-1 -3 2 11.49 0.95
1 -3 -2 13.31 0.73
1 -3 -2 14.02 0.76
1 3 -2 13.01 1.21
0 -3 -2 40.11 1.81
0 -3 2 40.56 1.6
0 -3 2 40.76 1.38
0 3 -2 41.58 1.66
0 3 -2 40.43 1.81
0 3 2 40.57 1.73
0 -3 2 41.79 1.68
-1 3 -2 1.5 0.95
-1 -3 -2 0.51 0.97
1 -3 2 1.36 0.94
1 3 2 1.09 0.84
-1 3 -2 0.24 0.83
-1 3 -2 0.27 0.43
1 -3 2 0.05 0.81
2 3 2 67.44 2.35
-2 -3 -2 67.59 2.51
2 -3 2 67.46 2.3
-2 -3 -2 64.22 1.73
-2 3 -2 64.93 1.75
-2 3 -2 61.75 2.35
-2 -3 -2 60.56 2.51
-2 3 -2 63.7 2.48
2 -3 2 64.56 2.38
2 -3 2 63.37 2.2
-3 3 -2 115.24 3.58
-3 -3 -2 108.25 3.64
-3 3 -2 106.61 3.67
-3 -3 -2 108.98 3.6
3 -3 2 110.61 3.1
-4 -3 -2 35 2.14
-4 3 -2 40.33 2.07
-4 -3 -2 37.09 2.15
-4 3 -2 36.24 2.22
4 -3 2 36.8 2.12
5 -3 2 480.4 11.76
-5 -3 -2 469.81 11.85
-5 3 -2 477.33 12.02
-6 3 -2 76.21 3.66
6 -3 2 79.6 3.41
-6 -3 -2 76.71 3.41
-6 -3 -2 77.57 3.51
-7 -3 -2 132.17 4.9
-7 3 -2 124.03 4.99
-7 -3 -2 120.35 4.74
7 -3 2 124.43 4.71
8 -3 2 23.86 2.45
-8 -3 -2 25.54 2.52
-8 3 -2 28.22 2.64
-9 3 -2 66.66 4
-9 -3 -2 79.77 4.02
-10 3 -2 45.27 3.68
11 -4 -2 0.93 2.53
-11 4 2 6.79 2.5
10 -4 -2 -2.17 2.42
-10 4 2 4.76 2.15
9 -4 -2 11.02 2.38
-9 4 2 10.45 2.17
-8 4 2 19.76 2.08
-8 4 2 16.96 2.26
-7 4 2 418.9 10.75
-7 4 2 405.88 11.03
6 -4 -2 37.13 2.39
-6 -4 2 33.98 2.05
-6 4 2 36.26 2.44
-6 4 2 36.83 2.26
-5 4 2 82.84 3.36
-5 -4 2 82.68 2.94
-5 4 2 87.07 3.27
5 -4 -2 85.58 3.28
-4 4 2 640.39 14.85
-4 4 2 633.42 14.96
4 4 -2 633.95 14.43
4 -4 -2 638.48 14.75
-3 4 2 111.01 3.52
3 -4 -2 115.15 3.22
3 -4 -2 110.4 3.22
3 -4 -2 108.26 3.59
3 -4 -2 111.47 3.31
3 4 -2 99.01 3.1
2 -4 -2 1269.91 27.75
2 -4 -2 1291.28 27.61
2 4 -2 1266.52 27.43
2 -4 -2 1275.58 27.26
2 -4 -2 1306.96 27.59
2 4 -2 1266.84 27.32
2 4 -2 1232.35 27.21
2 -4 -2 1259.31 27.35
2 4 -2 1237.37 27.86
1 -4 -2 1261.98 27.28
1 -4 -2 1328.64 27.82
-1 -4 2 1292.47 27.51
1 4 -2 1290.54 27.43
1 -4 -2 1282.9 27.24
1 4 -2 1240.68 27.5
1 -4 -2 1263.42 27.86
-1 -4 2 1252.27 27.42
-1 4 2 1314.73 27.71
1 4 -2 1256.94 27.95
0 -4 -2 2589.68 55.32
0 4 2 2633.42 55.21
0 -4 2 2540.43 54.75
0 4 -2 2585.69 55.09
0 4 -2 2591.47 55.46
0 -4 2 2610.83 55.02
0 -4 -2 2589.68 54.54
0 -4 2 2632.91 55.29
0 4 -2 2585.75 55.3
1 4 2 202.33 4.88
-1 -4 -2 216.63 5.79
-1 4 -2 218.12 5.87
-1 4 -2 227.83 5.65
1 4 2 240.57 5.64
1 -4 2 237.41 5.75
1 -4 2 236.82 5.6
-1 4 -2 240.45 5.69
-1 -4 -2 227.7 4.88
-2 4 -2 677.76 16.54
-2 -4 -2 726.65 16.84
-2 4 -2 725.03 16.69
-2 -4 -2 747.34 16.6
2 -4 2 744.46 16.44
2 4 2 757.31 16.41
-2 4 -2 746.85 16.28
-3 4 -2 421.62 10.28
-3 4 -2 419.83 10.23
-3 -4 -2 421.62 10.4
-3 -4 -2 419.61 10.14
3 -4 2 410.29 9.64
-4 4 -2 8.83 1.42
-4 -4 -2 12.23 1.22
-4 -4 -2 9.7 1.41
-4 4 -2 10.89 1.54
-4 -4 -2 9.67 1.45
5 -4 2 333.69 8.92
-5 4 -2 336.54 9.09
-5 -4 -2 339.01 8.86
-6 4 -2 134.19 4.93
6 -4 2 129.78 4.67
-6 -4 -2 130.86 4.87
-6 -4 -2 130.06 4.65
-7 -4 -2 68.57 3.39
-7 -4 -2 59.66 3.46
-7 4 -2 59.85 3.45
7 -4 2 69.27 3.43
-8 -4 -2 3.25 1.85
-8 4 -2 7.07 2.01
-8 -4 -2 6.66 1.91
8 -4 2 9.64 2.07
-9 4 -2 4.58 2.16
-10 4 -2 2.6 2.31
11 -5 -2 19.03 3.14
-11 5 2 19.43 2.89
10 -5 -2 4.41 2.48
-10 5 2 2.86 2.13
-9 5 2 35.93 3.06
-8 5 2 58.12 3.44
-7 5 2 90.4 3.68
7 -5 -2 83.47 3.84
-7 5 2 90.4 3.94
6 -5 -2 199.74 6.24
-6 5 2 212.1 6.13
-6 5 2 205.37 6.36
-5 5 2 55.8 2.57
5 -5 -2 58.48 2.69
-5 5 2 55.78 2.76
-4 5 2 200.78 5.72
4 -5 -2 190.79 5.45
-4 5 2 192.46 5.51
3 -5 -2 130.13 3.81
3 -5 -2 128.1 4.04
3 -5 -2 137.03 3.71
3 5 -2 125.94 3.51
2 5 -2 7.37 0.84
2 -5 -2 11.43 0.93
2 -5 -2 9.25 1.16
2 -5 -2 10.2 0.96
2 5 -2 11.5 1.1
2 5 -2 10.18 1.4
2 -5 -2 9.71 1.08
1 -5 -2 32.01 1.65
1 -5 -2 31.08 1.45
1 5 -2 31.55 1.36
1 -5 -2 31.28 1.29
1 -5 -2 29.79 1.22
-1 -5 2 30.38 1.25
1 5 -2 32 1.88
1 5 -2 28.92 1.27
0 -5 2 36.37 1.24
0 5 2 35.53 1.22
0 5 -2 36.38 1.51
0 5 -2 34.62 1.92
0 -5 -2 36.91 1.69
0 5 2 37.51 1.62
0 -5 -2 36.16 1.2
0 -5 2 34.53 1.43
-1 5 -2 102.51 3.4
-1 5 -2 99.9 3.08
-1 -5 -2 102.62 3.21
1 -5 2 101.4 2.98
-1 5 -2 102.03 3.14
1 5 2 105.27 3.05
-2 -5 -2 19.78 1.48
2 -5 2 21.91 1.39
-2 5 -2 21.43 1.61
-2 -5 -2 19.41 1.69
-2 5 -2 20.71 1.47
2 5 2 18.35 1.29
-3 -5 -2 54.73 2.64
-3 5 -2 57.38 2.57
-3 5 -2 55.35 2.52
-3 -5 -2 53.76 2.34
-4 -5 -2 184.29 5.28
-4 5 -2 184.94 5.5
-4 -5 -2 178.67 5.58
-4 5 -2 174.14 5.41
-4 -5 -2 172.39 5.23
-5 -5 -2 67.68 3.25
5 -5 2 65.76 3.13
-5 5 -2 67.57 3.18
-5 -5 -2 66.45 2.96
6 -5 2 125.34 4.72
-6 -5 -2 131.44 4.91
-6 5 -2 123.72 4.73
-6 -5 -2 121.2 4.46
7 -5 2 68.69 3.5
-7 -5 -2 68.21 3.68
-7 5 -2 66.44 3.55
8 -5 2 -0.18 1.81
-8 5 -2 3.78 1.96
9 -5 2 13.84 2.43
-9 -5 -2 15.5 2.65
-9 5 -2 9.45 2.37
-10 5 -2 10.23 2.52
-10 6 2 8.24 2.32
-9 6 2 0.61 1.94
-8 6 2 3.5 1.86
8 -6 -2 6.84 1.92
-7 6 2 5.56 1.75
7 -6 -2 6.53 1.78
6 -6 -2 14.04 1.79
-6 6 2 15.15 1.71
-6 6 2 13.6 1.84
-5 6 2 77.3 3.05
5 -6 -2 74.12 3.13
-5 6 2 70.84 3.18
4 -6 -2 174.2 5.16
-4 6 2 176.76 5.21
-4 6 2 182.49 5.38
3 -6 -2 71.95 2.6
3 -6 -2 66.75 2.74
3 6 -2 65.03 2.96
2 -6 -2 47.03 1.91
2 -6 -2 45.35 2.06
2 6 -2 47.74 2.37
1 -6 -2 35.41 1.67
-1 6 2 37.45 1.52
1 -6 -2 32.65 1.77
1 6 -2 32.07 1.96
0 6 -2 311 7.35
0 6 -2 309.68 8.08
0 -6 -2 319.77 7.67
0 6 2 317.53 7.52
-1 -6 -2 141.73 4.37
-1 6 -2 138.26 3.81
-1 6 -2 128.17 4.25
-1 -6 -2 134.14 3.89
-2 6 -2 318.11 7.93
-2 -6 -2 326.08 8.47
-2 6 -2 324.38 8.36
-2 -6 -2 314.43 7.86
-3 -6 -2 194.48 5.64
-3 6 -2 190.81 5.39
-3 -6 -2 183.1 5.7
-3 6 -2 180.72 5.58
-3 -6 -2 186.16 5.21
-4 6 -2 7.72 1.48
-4 -6 -2 8.42 1.35
-4 -6 -2 8.36 1.68
-4 6 -2 6.77 1.38
-4 -6 -2 7.46 1.34
-5 6 -2 52.43 2.92
-5 -6 -2 61.39 3.19
-5 6 -2 57.82 2.99
6 -6 2 8.83 1.81
-6 -6 -2 6.05 1.89
-6 6 -2 7.56 1.73
7 -6 2 0.35 1.7
-7 -6 -2 3.5 2.02
-7 6 -2 1.25 1.74
-8 -6 -2 1.81 2.16
8 -6 2 2.1 1.91
-8 6 -2 2.01 2
9 -6 2 31.04 2.96
-9 -6 -2 24.19 2.98
-9 6 -2 22.53 2.87
-10 7 2 101.1 4.95
-9 7 2 38.02 3.13
-8 7 2 91.07 4.17
8 -7 -2 74.41 3.96
-7 7 2 249.2 7.74
7 -7 -2 258.88 7.78
-6 7 2 25.42 2.27
6 -7 -2 29.63 2.29
-5 7 2 270.97 7.27
-5 7 2 265.4 7.5
5 -7 -2 252.61 7.32
4 -7 -2 46.46 2.26
-4 7 2 46 2.45
3 -7 -2 62.49 2.55
3 -7 -2 59.4 2.41
3 7 -2 52.87 2.76
-2 7 2 113.65 3.49
2 7 -2 109.11 3.97
2 -7 -2 117.09 3.62
1 -7 -2 23.03 1.42
1 7 -2 22.98 1.8
0 -7 -2 12.57 1.09
0 7 -2 11.06 1.46
-1 -7 -2 10.8 1.14
-1 7 -2 11.36 1.57
-1 -7 -2 13.64 1.5
-1 -7 -2 11.13 1.49
-2 -7 -2 155.98 4.38
-2 -7 -2 157.38 5.02
-2 -7 -2 153.38 4.99
-2 7 -2 153.2 4.98
-3 -7 -2 35.92 2.22
-3 -7 -2 33.85 2.34
-3 7 -2 43.73 2.51
-3 7 -2 38.46 2.09
-4 -7 -2 37.51 2.33
-4 -7 -2 38.1 2.54
-4 7 -2 29.7 2.37
-4 7 -2 35.12 2.23
-5 7 -2 244.76 7.37
-5 -7 -2 248.68 7.47
-5 7 -2 238.42 7.14
-6 -7 -2 47.22 3.21
6 -7 2 41.04 2.94
-6 7 -2 44.69 2.87
7 -7 2 117.19 4.99
-7 -7 -2 126.82 5.24
-7 7 -2 116.61 4.93
8 -7 2 50.99 3.4
-8 -7 -2 48.43 3.54
-8 7 -2 44.22 3.32
-9 7 -2 56.7 3.86
-9 -7 -2 65.6 4.18
9 -7 2 67.79 4.05
-10 8 2 2.05 2.16
9 -8 -2 6.29 2.17
-9 8 2 4.41 2.21
-8 8 2 26.81 2.7
8 -8 -2 19.63 2.63
-7 8 2 58.96 3.4
7 -8 -2 63.73 3.49
-6 8 2 49.5 2.95
6 -8 -2 55.49 2.98
5 -8 -2 91.88 3.69
-5 8 2 89.93 3.72
4 -8 -2 94.39 3.42
4 -8 -2 94.21 3.46
4 -8 -2 89.37 3.44
4 8 -2 89.33 3.81
3 -8 -2 313.6 8.26
3 -8 -2 314.45 8.08
3 -8 -2 316.42 8.05
3 8 -2 300.55 8.49
2 -8 -2 308.23 8.21
2 8 -2 304.65 8.34
2 -8 -2 305.12 7.76
1 -8 -2 421.14 10.56
1 8 -2 399.48 10.53
1 -8 -2 414.31 9.89
0 -8 -2 1016.14 22.81
0 8 -2 963.75 22.66
-1 -8 -2 110.16 3.95
-1 -8 -2 111.32 4.1
-1 8 -2 101.02 3.92
-2 -8 -2 291.88 8.07
-2 -8 -2 295.45 8.04
-2 8 -2 271.64 7.92
-3 -8 -2 322.23 8.81
-3 -8 -2 316.24 8.85
-3 8 -2 326.49 8.88
-4 8 -2 22.36 2.12
-4 -8 -2 20.62 1.88
-4 -8 -2 19.08 2.11
-5 8 -2 270.05 8.02
-5 -8 -2 259.13 8.02
6 -8 2 34.44 2.74
-6 8 -2 30.89 2.56
-6 -8 -2 40.9 3.06
-7 -8 -2 5.34 2.29
7 -8 2 5.04 2.06
-7 8 -2 5.81 1.91
-8 -8 -2 48.01 3.59
8 -8 2 46.65 3.45
-8 8 -2 39.17 3.25
-9 -8 -2 8.38 2.61
9 -8 2 5.58 2.32
-9 8 -2 3.74 2.25
-10 9 2 3.23 2.27
9 -9 -2 -0.64 2.1
-9 9 2 2.56 2.11
-8 9 2 59.88 3.54
8 -9 -2 59.35 3.65
7 -9 -2 15.12 2.24
-7 9 2 18.26 2.28
6 -9 -2 46.67 2.89
-6 9 2 47.65 2.9
5 -9 -2 79.77 3.41
-5 9 2 70.45 3.3
5 9 -2 75.9 3.76
4 -9 -2 61.05 2.86
4 -9 -2 62.33 2.84
4 9 -2 70.32 3.4
3 -9 -2 190.16 5.81
3 9 -2 197.19 6.16
3 -9 -2 194.31 5.61
-3 -9 2 182.42 6.08
2 -9 -2 117.62 4.17
2 9 -2 107.39 4.18
-2 -9 2 102.51 4.18
-1 -9 2 22.28 2.03
1 9 -2 20.08 1.99
1 -9 -2 20.48 1.92
0 -9 -2 17.05 1.77
0 9 -2 16.19 1.8
0 -9 -2 18.18 1.87
-1 9 -2 153.26 5.16
-1 -9 -2 158.28 5.25
-1 -9 -2 149.15 5.04
-2 -9 -2 67.27 3.18
-2 -9 -2 61.59 3.15
-2 9 -2 63.34 3.16
-3 9 -2 23.14 2.18
-3 -9 -2 19.55 2.02
-3 -9 -2 20.78 2.13
-4 -9 -2 174.77 5.84
-4 -9 -2 183.82 6.09
-4 9 -2 170.52 5.99
-5 9 -2 17.14 2.27
-5 -9 -2 16.79 1.96
6 -9 2 14.81 2.4
-6 -9 -2 16.07 2.49
-6 9 -2 12.66 2.32
7 -9 2 84.45 4.42
-7 -9 -2 90.09 4.7
-8 -9 -2 6.68 2.44
8 -9 2 2.41 2.06
-9 -9 -2 0.48 2.52
9 -9 2 2.54 2.25
9 -10 -2 0.44 2.17
8 -10 -2 1.81 1.91
7 10 -2 44.92 3.28
7 -10 -2 49.91 3.25
6 10 -2 0.91 1.93
6 -10 -2 7.48 1.88
5 -10 -2 51.16 2.9
5 10 -2 48.71 3.1
4 10 -2 343.33 9.66
-3 -10 2 18.73 2.17
3 -10 -2 21.97 1.93
3 10 -2 18.8 2.15
2 -10 -2 52.06 2.81
2 10 -2 47.44 2.87
-2 -10 2 59.31 3.14
1 -10 -2 55.84 2.97
1 10 -2 57.55 3.09
-1 -10 2 60.97 3.12
0 -10 2 25.91 2.19
0 10 -2 24.92 2.28
0 -10 -2 23.8 2.15
0 -10 -2 23.94 2.06
-1 10 -2 21.07 2.1
-1 -10 -2 21.31 2.03
-1 -10 -2 19.87 1.99
-2 -10 -2 154.02 5.4
-2 -10 -2 154.14 5.35
-2 10 -2 149.84 5.38
-3 -10 -2 143.39 5.23
-3 -10 -2 136.75 5.16
-3 10 -2 140.13 5.19
-4 -10 -2 84.68 3.87
-4 -10 -2 80.8 3.94
-4 10 -2 75.25 3.88
-5 10 -2 9.14 2.02
-5 -10 -2 8.86 1.83
-6 -10 -2 19.76 2.79
-6 10 -2 21.42 2.61
7 -10 2 4.71 2.23
-7 -10 -2 7.85 2.49
8 -10 2 15.04 2.7
-8 -10 -2 13.62 2.86
9 -11 -2 69.65 4.29
9 11 -2 63.57 4.18
8 -11 -2 62.7 3.89
8 11 -2 68.21 4.06
7 -11 -2 55.77 3.49
7 11 -2 60.69 3.72
6 11 -2 36.53 3.01
5 11 -2 30.02 2.71
4 11 -2 113.11 4.77
-4 -11 2 115.19 4.84
-3 -11 2 24.15 2.44
3 -11 -2 23.99 2.11
3 11 -2 24.15 2.38
-2 -11 2 30.44 2.54
2 -11 -2 31.8 2.38
2 11 -2 31.2 2.54
-1 -11 2 18.38 2.2
1 11 -2 20.41 2.15
1 -11 -2 16.2 1.98
1 -11 -2 19.32 2
0 -11 2 11.33 1.89
0 11 -2 13.67 2.09
0 -11 -2 12.58 1.86
0 -11 -2 12.46 1.75
-1 11 -2 12.28 1.99
-1 -11 -2 16.12 2.04
-1 -11 -2 14.72 1.95
-2 11 -2 26.19 2.44
-2 -11 -2 24.21 2.33
-2 -11 -2 24.21 2.29
-3 -11 -2 71.08 3.68
-3 -11 -2 67.74 3.62
-3 11 -2 74.16 3.83
-4 11 -2 24.12 2.49
-4 -11 -2 22.67 2.32
-4 -11 -2 26.93 2.62
-5 11 -2 30.3 2.83
-5 -11 -2 32.21 2.63
-6 -11 -2 68.95 4.15
-6 11 -2 65.43 3.98
-7 -11 -2 42.16 3.63
7 -11 2 45.6 3.6
8 -11 2 54.09 3.92
8 12 -2 -0.22 2.16
7 12 -2 14.07 2.53
6 12 -2 20.19 2.6
5 12 -2 40.61 3.1
-4 -12 2 32.41 2.88
4 12 -2 41.85 3.02
3 -12 -2 95.43 4.03
3 12 -2 97.23 4.37
-3 -12 2 84.41 4.29
2 -12 -2 147.89 5.29
2 12 -2 142.92 5.41
-2 -12 2 137.57 5.44
-1 -12 2 113.44 4.7
1 -12 -2 108.79 4.56
1 12 -2 112.97 4.67
0 -12 -2 130.3 5.14
0 -12 -2 136.85 4.87
0 12 -2 126.74 5.07
0 -12 2 133.67 5.12
-1 -12 -2 163.54 5.94
-1 -12 -2 173.9 5.78
-1 12 -2 161.35 5.91
-2 -12 -2 55.08 3.32
-2 -12 -2 52.58 3.2
-2 12 -2 57.81 3.35
-3 -12 -2 88.04 4.31
-3 -12 -2 92.07 4.27
-3 12 -2 97.47 4.46
-4 12 -2 13.55 2.41
-4 -12 -2 7.53 2.06
-4 -12 -2 16.43 2.37
-5 -12 -2 52.88 3.42
-5 12 -2 49.86 3.56
-6 -12 -2 9.94 2.59
-6 12 -2 6.87 2.38
-7 -12 -2 1.68 2.44
7 -12 2 -0.23 2.3
7 13 -2 0.22 2.1
6 13 -2 19.34 2.69
5 13 -2 13.19 2.47
-4 -13 2 21.37 2.71
4 13 -2 21.04 2.65
3 13 -2 71.44 3.86
-3 -13 2 67.8 3.91
-2 -13 2 29.83 2.84
2 -13 -2 29.37 2.54
2 13 -2 28.18 2.75
-1 -13 2 4.87 1.94
1 13 -2 0.18 1.76
1 -13 -2 4.38 1.8
0 -13 2 27.48 2.6
0 13 -2 25.65 2.49
0 -13 -2 29.23 2.6
-1 -13 -2 55.17 3.39
-1 -13 -2 47.79 3.02
-1 13 -2 54.86 3.46
-2 13 -2 9.85 2.17
-2 -13 -2 10.97 2.14
-2 -13 -2 12.46 2.07
-3 13 -2 3.22 2.04
-3 -13 -2 2.45 1.86
-3 -13 -2 1.67 1.95
-4 -13 -2 53.86 3.53
-4 -13 -2 46.66 3.37
-4 13 -2 52.77 3.6
-5 13 -2 3.97 2.17
-5 -13 -2 3.12 2.13
-5 -13 -2 4.81 2.34
-6 -13 -2 0.94 2.43
-6 13 -2 1.62 2.25
6 14 -2 21.87 2.76
5 14 -2 37.29 3.21
4 14 -2 161.43 6.27
-3 -14 2 38.83 3.24
3 14 -2 35.08 3.07
-2 -14 2 27.37 2.87
2 -14 -2 25.15 2.61
2 14 -2 23.99 2.55
1 -14 -2 67.95 3.74
1 14 -2 62.6 3.73
-1 -14 2 66.35 3.84
0 -14 2 9.44 2.2
0 14 -2 6.88 2.07
0 -14 -2 7.5 2.01
-1 -14 -2 44.63 3.32
-1 14 -2 52.27 3.5
-2 -14 -2 88.87 4.5
-2 14 -2 88.2 4.49
-3 -14 -2 83.74 4.38
-3 -14 -2 71.58 4.07
-3 14 -2 80.5 4.37
-4 -14 -2 68.39 4.02
-4 14 -2 67.59 4.09
-5 14 -2 14.56 2.75
-5 -14 -2 15.42 2.58
-5 -14 -2 14.89 2.86
5 15 -2 9.94 2.54
4 15 -2 55.61 3.76
-3 -15 2 9.73 2.49
3 15 -2 4.66 2.23
-2 -15 2 28.65 3.04
2 15 -2 24.96 2.87
2 -15 -2 27.96 2.79
-1 -15 2 21.33 2.83
1 15 -2 23.26 2.81
1 -15 -2 20.48 2.66
0 15 -2 22.32 2.69
0 -15 -2 20.5 2.75
-1 15 -2 11.01 2.27
-1 -15 -2 13.95 2.46
-2 15 -2 3.69 1.98
-2 -15 -2 1.36 2.03
-3 15 -2 40.6 3.39
-3 -15 -2 36.12 3.33
-4 15 -2 28.38 3.26
-4 -15 -2 25.47 2.94
-5 -15 -2 3.7 2.19
-5 -15 -2 4.41 2.57
4 16 -2 17.44 2.72
3 16 -2 18.28 2.73
2 -16 -2 49.63 3.53
2 16 -2 53.68 3.76
1 16 -2 16.34 2.7
1 -16 -2 15.21 2.6
0 16 -2 5.69 2.09
0 -16 -2 10.01 2.45
-1 -16 -2 87.52 4.66
-1 16 -2 78.93 4.5
-2 16 -2 10.25 2.6
-2 -16 -2 10.95 2.61
-3 16 -2 11.02 2.56
-3 -16 -2 13.99 2.62
2 17 -2 -0.45 2.17
1 17 -2 9.97 2.48
1 -17 -2 2.3 2.17
0 17 -2 10.98 2.55
0 -17 -2 15.95 2.84
11 0 -3 3.48 2.53
-11 0 3 -0.22 2.1
-11 0 3 -0.66 2.18
10 0 -3 4.05 2.49
-10 0 3 1.04 1.94
-10 0 3 -0.41 1.87
9 0 -3 2.51 2.06
-9 0 3 -1.34 1.9
-9 0 3 -0.37 1.84
8 0 -3 2.4 2.04
-8 0 3 1.57 1.64
7 0 -3 2.25 1.81
-7 0 3 0.62 1.51
-7 0 3 -0.15 1.43
6 0 -3 3.36 1.69
-6 0 3 -0.53 1.26
-6 0 3 -0.28 1.35
5 0 -3 2.18 1.29
5 0 -3 0.58 1.17
-5 0 3 0.85 1.2
-5 0 3 -0.73 1.01
4 0 -3 0.27 1.06
4 0 -3 -0.62 1.04
-4 0 3 -0.96 1.08
-4 0 3 -0.09 0.99
3 0 -3 0.56 1.02
-3 0 3 -0.09 1.03
-3 0 3 0.18 1.01
2 0 -3 0.61 1.01
-2 0 3 -0.35 1.02
-2 0 3 -0.16 0.96
-2 0 3 -0.68 0.85
1 0 -3 -0.66 1.07
-1 0 3 2.35 0.79
-1 0 3 0.58 0.9
1 0 -3 0.12 0.79
1 0 -3 -0.17 0.64
-1 0 3 -0.09 0.99
0 0 -3 1.03 1.1
0 0 3 0.75 0.98
0 0 -3 0.87 0.82
0 0 -3 0.71 0.58
-1 0 -3 -0.64 1.07
-1 0 -3 -0.42 0.55
-1 0 -3 -0.06 0.76
1 0 3 -0.24 0.94
-2 0 -3 1.1 1.14
-2 0 -3 -0.07 0.91
-2 0 -3 0.17 0.62
-3 0 -3 0.57 1.26
-3 0 -3 0.71 0.9
-4 0 -3 -0.26 1.35
-5 0 -3 0.15 1.43
-6 0 -3 1.33 1.67
-7 0 -3 1.67 1.78
-8 0 -3 0.41 1.97
-9 0 -3 -2 2.31
11 -1 -3 11.36 2.85
-11 1 3 6.75 2.24
-11 -1 3 7.7 2.37
-11 1 3 8.32 2.53
10 -1 -3 144.17 5.91
10 1 -3 138.07 5.98
-10 1 3 138.11 5.63
-10 -1 3 140.63 5.76
-10 -1 3 138.44 5.5
-10 1 3 136.69 5.66
-9 1 3 85.9 4.18
-9 1 3 83.77 4.1
-9 -1 3 77.57 4.1
9 -1 -3 87.97 4.32
-9 -1 3 81.15 4.03
9 1 -3 92.52 4.45
-8 1 3 70.66 3.66
-8 -1 3 74.03 3.76
-8 -1 3 78.54 3.67
-8 1 3 68.66 3.64
8 1 -3 76.3 3.89
8 -1 -3 72.09 3.75
7 1 -3 22.89 2.37
-7 1 3 19.35 2.08
7 -1 -3 21.27 2.27
-7 1 3 18.84 2.1
-7 -1 3 21 2.21
-7 -1 3 16.03 1.87
-6 -1 3 123.34 4.4
-6 1 3 126.67 4.58
-6 -1 3 125.79 4.59
-6 1 3 127.61 4.59
6 1 -3 126.92 4.62
6 -1 -3 126.68 4.5
5 1 -3 19.57 1.69
5 -1 -3 17.09 1.73
5 -1 -3 19.35 1.72
-5 1 3 19.12 1.8
-5 -1 3 17.66 1.73
-5 1 3 15.94 1.46
-5 -1 3 17.24 1.54
-4 1 3 201.14 5.68
-4 1 3 200.43 5.92
-4 -1 3 214.47 5.96
-4 -1 3 201.7 5.69
4 -1 -3 206.97 5.68
4 1 -3 200.28 5.78
4 -1 -3 204.55 5.91
-3 1 3 44.95 2.19
-3 -1 3 43.96 2.15
3 -1 -3 44.33 2.22
-3 1 3 47.23 2.17
-3 1 3 42.93 1.79
3 -1 -3 44.65 2
-3 -1 3 42.46 2.13
3 1 -3 43.08 2.14
-2 1 3 204.8 5.59
-2 -1 3 195.72 5.46
-2 1 3 191.46 5.55
-2 -1 3 194.68 5.55
2 1 -3 204.23 5.57
2 -1 -3 208.82 5.67
-2 -1 3 210.56 5.18
1 1 -3 4.9 1.12
1 -1 -3 3.08 1.05
-1 -1 3 4.07 0.98
1 1 -3 3.39 0.86
1 1 -3 4.15 0.83
-1 1 3 3.25 0.98
-1 -1 3 4.46 1.08
0 1 -3 98.56 2.77
0 -1 -3 91.09 2.96
0 1 -3 95.23 2.83
0 1 3 89.07 3.19
0 -1 -3 96 2.38
0 -1 3 99.89 3.29
0 1 -3 87.74 3.23
0 -1 -3 92.97 3.29
-1 1 -3 12.26 1.41
-1 -1 -3 13.4 1.47
-1 1 -3 11.98 0.95
-1 1 -3 14.22 1.05
1 -1 3 11.73 1.25
-2 1 -3 108.71 3.73
-2 -1 -3 109.96 3.73
-2 1 -3 104.58 3.09
-2 1 -3 106.53 3.22
-2 -1 -3 107.47 3.47
2 -1 3 105.36 3.41
-3 1 -3 21.48 1.85
-3 -1 -3 24.31 1.93
-3 1 -3 22.57 1.39
-3 -1 -3 20.67 1.59
-4 -1 -3 99.02 3.52
-4 1 -3 101.23 3.95
-4 -1 -3 99.24 3.9
-5 1 -3 0.74 1.43
-5 -1 -3 0.44 1.43
-6 -1 -3 117.32 4.68
-6 1 -3 118.21 4.75
-7 1 -3 55.41 3.42
-7 -1 -3 53.4 3.34
-8 1 -3 80.38 4.3
-8 -1 -3 85.05 4.31
-9 1 -3 30.87 3.1
-9 -1 -3 28.66 3.13
-10 -1 -3 34.83 3.29
11 -2 -3 5.3 2.64
-11 -2 3 9.68 2.51
-11 2 3 4.37 2.29
10 -2 -3 19.44 2.73
-10 2 3 20.26 2.57
-10 -2 3 18.71 2.74
-10 2 3 19.86 2.65
9 -2 -3 14.48 2.48
-9 2 3 14.28 2.25
-9 -2 3 15.76 2.32
-9 -2 3 15.16 2.1
-9 2 3 13.89 2.28
8 -2 -3 19.48 2.43
-8 2 3 18.14 2.2
-8 -2 3 19.1 2.31
-8 -2 3 15.36 1.95
-8 2 3 21.67 2.34
7 -2 -3 1.03 1.68
-7 2 3 2.46 1.59
-7 -2 3 0.32 1.55
-7 -2 3 1.24 1.29
-7 2 3 1.27 1.47
-6 2 3 418.24 10.79
-6 -2 3 407.67 10.74
-6 2 3 422.45 10.81
6 2 -3 405.5 10.5
6 -2 -3 394.42 10.53
-5 2 3 443.9 11.21
-5 -2 3 445.93 11.21
-5 -2 3 437.82 10.82
5 2 -3 444.77 10.97
5 -2 -3 447.55 11.22
5 -2 -3 429.67 10.9
-4 2 3 85.04 3.34
-4 -2 3 89.72 3.35
-4 -2 3 88.9 3.24
4 2 -3 86.59 3.19
4 -2 -3 87.45 3.39
4 -2 -3 87.88 3.11
-3 2 3 1919.55 42.48
-3 -2 3 1971.78 42.34
-3 -2 3 1932.01 42.36
3 2 -3 1978.42 42.27
3 -2 -3 1944.13 42.5
3 -2 -3 1939.99 41.89
-2 2 3 135.04 4.36
-2 -2 3 147.59 4.28
-2 -2 3 146.85 4.08
2 -2 -3 149.72 3.83
2 2 -3 145.42 4.31
2 -2 -3 146.23 4.48
-2 -2 3 148.85 4.47
-1 -2 3 210.1 5.5
1 2 -3 219.11 5.43
1 2 -3 213.93 5.77
-1 -2 3 215 5.89
1 -2 -3 211.58 5.88
1 2 -3 217.33 5.52
0 2 -3 280.34 7.29
0 2 -3 292.61 6.82
0 2 -3 284.81 6.94
0 -2 3 278.9 7.31
0 -2 -3 286.79 7.42
-1 2 -3 1704.23 36.48
-1 2 -3 1672.12 36.96
-1 -2 -3 1721.89 37.05
1 -2 3 1672.12 36.85
-2 2 -3 162.82 4.38
-2 -2 -3 159.93 4.7
-2 2 -3 152.67 4.79
2 -2 3 154.51 4.51
-2 -2 -3 154.63 4.83
-3 2 -3 575.24 13.41
-3 -2 -3 579.41 13.76
-3 2 -3 579.86 13.99
3 -2 3 577.71 13.39
-3 -2 -3 590.15 14
-4 2 -3 740.31 17.66
-4 -2 -3 731.85 17.29
-4 -2 -3 754.29 17.65
-5 -2 -3 3.62 1.39
-5 2 -3 4.65 1.63
-5 -2 -3 4.33 1.65
-6 -2 -3 73.96 3.61
-6 2 -3 69.93 3.63
-7 2 -3 0.19 1.74
-7 -2 -3 0.54 1.79
-8 2 -3 2.71 2.08
-8 -2 -3 1.98 2.04
-9 2 -3 1.6 2.06
-9 -2 -3 -1.72 2.16
-10 -2 -3 3.44 2.38
11 -3 -3 3.69 2.56
-11 3 3 2.82 2.34
-11 -3 3 0.94 2.29
-10 3 3 164.23 6.16
-10 -3 3 166.26 6.49
-10 3 3 171.93 6.48
10 -3 -3 163.36 6.46
-9 3 3 47.24 3.16
9 -3 -3 37.4 3.13
-9 -3 3 42.55 3.14
-9 3 3 44.87 3.28
-8 3 3 7.83 1.81
8 -3 -3 8.17 2.08
-8 -3 3 7.76 2.03
-8 3 3 5.61 1.83
-7 3 3 95.21 4.04
-7 -3 3 91.19 3.98
-7 -3 3 84.47 3.59
-7 3 3 87.89 3.99
7 -3 -3 89.25 3.95
6 3 -3 -1.04 1.18
-6 3 3 0.97 1.39
-6 -3 3 2.7 1.4
6 -3 -3 -0.25 1.54
-6 3 3 1.02 1.48
5 3 -3 18.5 1.66
5 -3 -3 13.67 1.71
-5 3 3 18.01 1.78
-5 -3 3 14.92 1.74
5 -3 -3 19.02 1.77
-5 -3 3 17.08 1.64
-4 3 3 212.38 6.08
-4 -3 3 208.25 5.96
-4 -3 3 202.4 5.86
4 3 -3 201.26 5.69
4 -3 -3 213.28 6.11
4 -3 -3 207.29 5.68
-3 3 3 87.26 3.24
-3 -3 3 86.66 3.12
3 3 -3 80.47 2.98
3 -3 -3 87.66 3.28
3 -3 -3 86.99 2.78
-2 -3 3 99.06 3.23
2 3 -3 108.98 3.35
-2 -3 3 103.03 3.54
2 -3 -3 97.89 3.51
-2 -3 3 100.47 3.15
2 -3 -3 101.49 2.84
2 3 -3 101.42 3.34
1 3 -3 9.03 1.22
1 -3 -3 15.81 1.5
-1 -3 3 13.46 1.23
-1 -3 3 13.54 1.1
1 3 -3 15.44 1.32
-1 -3 3 15.4 1.45
0 -3 -3 83.15 3.08
0 3 -3 80.19 2.82
0 3 -3 81.98 2.96
0 -3 3 90.31 3.11
-1 3 -3 51.72 2.39
-1 3 -3 53.97 2.2
-1 -3 -3 54.17 2.47
1 -3 3 55.12 2.33
1 -3 3 55.26 2.06
-2 -3 -3 103.16 3.59
-2 3 -3 101.88 3.29
-2 3 -3 97.61 3.56
-2 -3 -3 98.94 3.59
2 -3 3 97.41 3.29
-3 3 -3 35.77 1.91
-3 -3 -3 33.61 2.11
-3 3 -3 35.31 2.25
-3 -3 -3 31.63 2.12
3 -3 3 32.57 1.71
-4 -3 -3 -0.51 1.33
-4 -3 -3 1.55 1.37
-4 3 -3 1.11 1.14
-4 3 -3 3.19 1.42
-5 -3 -3 24.25 2.09
-5 3 -3 20.72 2.22
-5 -3 -3 21.13 2.12
-6 -3 -3 24.56 2.41
-6 3 -3 30.44 2.56
-6 -3 -3 31.78 2.54
-7 3 -3 18.48 2.34
-7 -3 -3 17.06 2.26
-8 3 -3 117.12 5.35
-8 -3 -3 136.44 5.36
-9 3 -3 16.04 2.75
-9 -3 -3 11.16 2.49
11 -4 -3 12.29 2.94
-11 -4 3 13.29 2.72
-11 4 3 7.85 2.58
10 -4 -3 7.05 2.4
-10 -4 3 7.95 2.4
-10 4 3 8.24 2.32
-9 4 3 23.42 2.54
9 -4 -3 22.6 2.8
-9 4 3 24.88 2.73
-8 4 3 -2.85 1.64
8 -4 -3 -0.87 1.82
-8 4 3 -0.56 1.68
-7 4 3 3.83 1.66
7 -4 -3 4.69 1.81
-7 4 3 5.35 1.66
6 -4 -3 79.99 3.45
-6 4 3 77.34 3.48
-6 4 3 74.55 3.56
-5 4 3 57.58 2.86
5 -4 -3 50.99 2.76
4 4 -3 1.1 0.99
4 -4 -3 2.86 1.26
-4 4 3 1.98 1.19
-4 -4 3 3.23 1.21
-3 4 3 192.28 5.61
-3 -4 3 190.49 5.38
3 4 -3 184.28 5.17
3 -4 -3 188.74 5.57
-2 -4 3 38.23 1.83
2 4 -3 35.49 1.81
2 -4 -3 42.04 2.13
-2 -4 3 36.17 1.68
2 4 -3 38.11 2.05
-1 -4 3 397.14 9.14
1 4 -3 380.6 9.33
1 -4 -3 379.43 9.63
-1 -4 3 398.32 9.2
1 4 -3 386.24 9.54
0 4 -3 -0.54 0.95
0 -4 -3 -0.09 1
0 -4 3 0.45 0.65
0 4 -3 0.33 0.96
-1 4 -3 93.99 3.2
-1 4 -3 92.08 3.19
-1 -4 -3 88.6 3.29
1 -4 3 93.33 3.23
-2 4 -3 1.41 1.12
-2 -4 -3 4.2 1.22
-2 4 -3 3.24 1.08
-2 -4 -3 3 1.25
2 -4 3 3.49 1.01
-3 -4 -3 20.2 1.85
-3 4 -3 20.6 1.68
-3 -4 -3 20.66 1.83
-3 4 -3 17.85 1.78
-4 4 -3 43.43 2.41
-4 -4 -3 44.3 2.55
-4 4 -3 45.22 2.64
-4 -4 -3 47.72 2.59
-5 -4 -3 15.15 2.02
5 -4 3 11.7 1.72
-5 4 -3 17.09 2
-5 -4 -3 10.29 1.76
-6 4 -3 0.34 1.7
-6 -4 -3 0.63 1.51
-7 -4 -3 32.63 2.79
-7 4 -3 28.94 2.73
-7 -4 -3 21.47 2.45
-8 4 -3 12.3 2.37
-8 -4 -3 16.41 2.34
-9 4 -3 16.33 2.63
11 -5 -3 27.04 3.31
-10 5 3 58.68 3.89
10 -5 -3 57.34 3.86
9 -5 -3 69.24 3.95
-9 5 3 67.6 3.89
8 -5 -3 170.86 6.08
-8 5 3 171.91 5.98
-8 5 3 170.56 6.21
-7 5 3 0.62 1.5
-7 5 3 0.34 1.58
-6 5 3 341.74 9.23
-6 5 3 328.4 9.32
-5 5 3 45.75 2.6
5 -5 -3 46.48 2.69
4 -5 -3 21.77 1.84
-4 5 3 21.31 1.82
-3 -5 3 156.3 4.69
3 -5 -3 154.17 4.91
3 5 -3 164.1 5.02
2 5 -3 13.49 1.21
2 -5 -3 12.63 1.47
-2 -5 3 14.72 1.27
2 5 -3 13.4 1.51
1 5 -3 1.04 0.91
1 -5 -3 1.06 1.07
-1 -5 3 0.86 0.73
1 5 -3 1.28 1.06
0 5 -3 13.48 1.26
0 -5 -3 12.3 1.42
0 5 -3 10.85 1.33
-1 5 -3 71.29 2.9
-1 5 -3 74.94 2.83
-1 -5 -3 73.15 2.95
-2 5 -3 16.35 1.54
-2 -5 -3 14.18 1.56
-2 5 -3 14.88 1.55
-2 -5 -3 16.51 1.73
2 -5 3 14.89 1.39
-3 -5 -3 7.04 1.44
-3 5 -3 5.92 1.38
-3 -5 -3 7.04 1.48
-3 5 -3 4.9 1.41
-4 5 -3 343.31 9.07
-4 -5 -3 350.74 9.31
-4 -5 -3 329.6 9.03
-4 5 -3 336.28 9.17
-5 -5 -3 10.8 1.91
5 -5 3 10.46 1.78
-5 5 -3 11.08 1.74
-5 5 -3 11.38 1.84
-5 -5 -3 11.13 1.76
-6 5 -3 166.36 5.83
-6 -5 -3 157.73 5.57
-7 -5 -3 94.43 4.42
-7 5 -3 91.4 4.45
-8 5 -3 13.7 2.46
-9 5 -3 64.58 4.09
10 -6 -3 2.41 2.35
-10 6 3 3.21 2.31
9 -6 -3 3.4 2.21
-9 6 3 3.39 2.01
-8 6 3 -0.19 1.84
-7 6 3 1.71 1.61
-7 6 3 0.18 1.63
-6 6 3 338.1 9.17
6 -6 -3 322.81 9.23
-5 6 3 83.58 3.56
5 -6 -3 84.79 3.28
5 -6 -3 85.21 3.66
4 -6 -3 212.42 6.33
3 -6 -3 791.79 18.26
3 6 -3 771.49 18.38
-2 -6 3 31.8 1.69
2 -6 -3 31.14 1.98
2 6 -3 30.31 2.12
1 -6 -3 569.3 13.61
1 6 -3 581.09 13.82
0 6 -3 151.93 4.91
0 -6 -3 163.7 4.79
-1 6 -3 433.48 10.53
-1 6 -3 433.98 10.88
-1 -6 -3 444 10.75
-2 -6 -3 460.64 11.66
-2 6 -3 440.8 11.39
-2 6 -3 466.41 11.22
-2 -6 -3 459.82 11.24
-3 -6 -3 105.03 4.15
-3 6 -3 102.86 3.87
-3 6 -3 100.19 3.73
-3 -6 -3 102.33 3.8
-4 -6 -3 494.51 12.17
-4 6 -3 468.99 12.18
-4 -6 -3 464.94 12.34
-4 6 -3 477.19 12.21
-4 -6 -3 493.33 12.09
-5 -6 -3 5.53 1.88
-5 6 -3 4.48 1.69
-5 -6 -3 4.38 1.65
-5 6 -3 4.44 1.7
6 -6 3 9.6 1.95
-6 6 -3 8.54 1.91
-7 -6 -3 33.06 2.98
-7 6 -3 26.99 2.71
-8 -6 -3 1.25 2.17
-8 6 -3 4.05 2.24
-9 6 -3 2.1 2.29
10 -7 -3 74.23 4.37
-10 7 3 68.34 4.3
-9 7 3 9.67 2.29
-8 7 3 8.87 2.11
-7 7 3 24.39 2.48
6 -7 -3 0.16 1.5
-6 7 3 2.18 1.44
6 -7 -3 2.34 1.32
5 -7 -3 40.77 2.63
4 -7 -3 0.65 1.3
4 7 -3 2.16 1.47
3 -7 -3 329 8.73
3 7 -3 331.62 8.99
2 -7 -3 2.82 1.2
2 7 -3 2.18 1.36
1 -7 -3 1.01 1.13
1 7 -3 -0.25 1.2
0 7 -3 21.88 1.93
0 -7 -3 23.45 1.8
-1 -7 -3 325.61 8.83
-1 7 -3 312.98 8.61
-1 -7 -3 323.95 8.3
-2 -7 -3 0.41 1.18
-2 7 -3 2.94 1.48
-2 -7 -3 0.42 1.38
-3 7 -3 13.88 1.84
-3 -7 -3 19.03 2.1
-4 7 -3 1.92 1.5
-4 -7 -3 1.29 1.4
-4 -7 -3 4.35 1.7
-4 7 -3 3.11 1.55
-5 7 -3 4.79 1.79
-5 7 -3 7.41 1.8
6 -7 3 3.67 1.84
-6 7 -3 8.55 2.02
7 -7 3 8.62 2.11
-7 -7 -3 11.55 2.51
-7 7 -3 11.13 2.3
-8 -7 -3 55.98 3.88
-8 7 -3 59.44 3.76
-9 -7 -3 16.38 2.93
-9 7 -3 16.29 2.78
10 -8 -3 27.81 3.23
-10 8 3 31.99 3.22
-9 8 3 11.31 2.44
-8 8 3 15.22 2.4
7 -8 -3 22.14 2.46
6 -8 -3 40.6 2.77
5 -8 -3 1.04 1.48
5 8 -3 2.5 1.71
4 -8 -3 2.66 1.29
4 8 -3 2.47 1.57
3 -8 -3 196.06 5.75
3 8 -3 172.72 5.88
2 8 -3 26.47 2.23
2 -8 -3 32.44 2.04
1 8 -3 116.15 4.34
1 -8 -3 111.92 3.86
0 8 -3 82.83 3.58
0 -8 -3 80.87 3.12
-1 -8 -3 150.17 5.18
-1 8 -3 147.71 5.03
-2 -8 -3 5.27 1.65
-2 8 -3 4.92 1.59
-3 8 -3 16.07 1.93
-3 -8 -3 16.47 1.97
-3 -8 -3 16.61 2.1
-4 -8 -3 39.82 2.64
-4 8 -3 42.06 2.75
-4 -8 -3 37.43 2.8
-5 8 -3 10.8 2.04
-5 -8 -3 11.38 2.24
6 -8 3 33.79 2.77
-7 -8 -3 22.31 2.99
7 -8 3 19.4 2.52
-8 -8 -3 39.75 3.57
-9 9 3 46.02 3.45
8 -9 -3 80.26 4.1
7 -9 -3 48.48 3.18
6 -9 -3 159.3 5.66
6 9 -3 155.32 5.93
5 -9 -3 61.54 3.13
5 9 -3 55.87 3.41
4 -9 -3 16.55 1.86
4 9 -3 16.87 2.19
3 -9 -3 58.37 2.75
3 9 -3 57.85 3.15
2 9 -3 2.58 1.54
1 9 -3 0.75 1.5
0 9 -3 2.65 1.4
-1 9 -3 11.76 1.86
-1 -9 -3 12.84 1.82
-1 -9 -3 10.34 1.81
-2 9 -3 9.55 1.77
-2 -9 -3 11.25 1.85
-2 -9 -3 11.3 1.97
-3 9 -3 17.32 2.2
-3 -9 -3 16.69 2.06
-3 -9 -3 17.13 2.17
-4 -9 -3 137.66 5.19
-4 -9 -3 131.67 5.27
-4 9 -3 141.03 5.32
-5 9 -3 22.91 2.55
-5 -9 -3 16.28 2.43
-6 9 -3 62.36 3.72
7 -9 3 62.13 3.9
-7 -9 -3 66.35 4.18
8 -9 3 12.58 2.63
-8 -9 -3 15.45 2.95
9 -10 -3 6.34 2.18
8 -10 -3 0.4 2.02
8 10 -3 1.79 2.29
7 10 -3 1.68 2.04
6 10 -3 105.58 4.81
5 10 -3 38.38 3
4 10 -3 112 4.77
3 -10 -3 210.86 6.71
3 10 -3 212.59 6.93
2 -10 -3 50.57 2.91
2 10 -3 42.32 2.95
1 -10 -3 223.38 7.06
1 10 -3 224.2 7.07
0 -10 -3 144.67 5.28
0 -10 -3 131.04 4.96
0 10 -3 135.78 5.09
-1 -10 -3 84.64 3.91
-1 -10 -3 73.16 3.68
-1 10 -3 77.8 3.72
-2 -10 -3 294.48 8.71
-2 -10 -3 291.2 8.7
-2 10 -3 295.34 8.72
-3 10 -3 32.35 2.73
-3 -10 -3 30.61 2.54
-3 -10 -3 36.81 2.84
-4 -10 -3 126.17 5.1
-4 -10 -3 129.81 5.34
-4 10 -3 135.81 5.35
-5 10 -3 15.02 2.28
-5 -10 -3 9.98 2.36
-6 10 -3 3.93 2.15
7 -10 3 15.96 2.77
-7 -10 -3 22.38 3.05
8 11 -3 4.35 2.42
7 11 -3 10.87 2.42
6 11 -3 5.37 2.21
5 11 -3 21.9 2.62
4 11 -3 1.52 1.91
3 -11 -3 197.99 6.47
3 11 -3 194.56 6.72
2 -11 -3 12.83 1.96
2 11 -3 12.12 2.08
1 11 -3 1.58 1.76
1 -11 -3 0.53 1.56
0 11 -3 53.41 3.33
0 -11 -3 58.2 3.37
0 -11 -3 56.92 3.2
-1 -11 -3 232.22 7.39
-1 -11 -3 221.02 7.18
-1 11 -3 221.84 7.26
-2 11 -3 0.36 1.76
-2 -11 -3 0.19 1.7
-2 -11 -3 0.36 1.8
-3 11 -3 0.19 1.79
-3 -11 -3 1.7 1.82
-3 -11 -3 2.09 1.9
-4 11 -3 2.17 1.92
-4 -11 -3 2.67 1.79
-4 -11 -3 2.8 2.03
-5 11 -3 3.1 2.01
-5 -11 -3 5.97 2.4
-6 -11 -3 2.77 2.34
-6 11 -3 0.44 2.22
-7 -11 -3 2.2 2.54
7 -11 3 1.14 2.16
7 12 -3 37.38 3.28
6 12 -3 3.03 2.26
5 12 -3 20.36 2.68
4 12 -3 -0.4 1.94
3 -12 -3 76.91 3.75
3 12 -3 78.71 4.18
2 -12 -3 128.46 5.13
2 12 -3 130.58 5.32
1 12 -3 26.78 2.6
1 -12 -3 25.67 2.47
1 -12 -3 22.67 2.38
0 -12 -3 159.58 5.87
0 -12 -3 156.44 5.62
0 12 -3 147.06 5.71
-1 -12 -3 95.96 4.49
-1 -12 -3 94.77 4.38
-1 12 -3 97.09 4.47
-2 12 -3 2.9 1.91
-2 -12 -3 -0.8 1.75
-2 -12 -3 1.9 1.79
-3 12 -3 40.51 3.15
-3 -12 -3 40.91 3.04
-3 -12 -3 34.48 3.01
-4 12 -3 18.88 2.66
-4 -12 -3 27.85 2.72
-4 -12 -3 22 2.78
-5 12 -3 7.42 2.37
-5 -12 -3 9.76 2.6
-6 -12 -3 60.06 4.16
-6 12 -3 54.53 3.92
7 13 -3 138.82 5.98
6 13 -3 35.97 3.38
5 13 -3 34.58 3.23
4 13 -3 26.69 2.82
3 -13 -3 2.58 1.72
3 13 -3 7.87 2.16
2 13 -3 -1.22 1.95
2 -13 -3 2.49 1.74
1 13 -3 5.99 2.06
1 -13 -3 5.14 1.95
0 13 -3 2.4 2.01
0 -13 -3 1.22 1.79
0 -13 -3 1.25 1.81
-1 13 -3 -1.62 1.99
-1 -13 -3 2.91 2.01
-1 -13 -3 3.02 2.02
-2 13 -3 6.61 2.21
-2 -13 -3 5.91 2.06
-2 -13 -3 7.7 2.19
-3 13 -3 24.04 2.73
-3 -13 -3 22.48 2.73
-3 -13 -3 24.12 2.76
-4 13 -3 24.14 2.84
-4 -13 -3 23.15 2.66
-4 -13 -3 24.81 2.92
-5 13 -3 96.41 4.94
6 14 -3 6.8 2.51
5 14 -3 32.25 3.29
4 14 -3 17.18 2.64
3 14 -3 25.5 2.93
2 -14 -3 61.7 3.71
2 14 -3 65.23 3.97
1 -14 -3 59.32 3.64
1 14 -3 54.88 3.76
0 -14 -3 76.95 4.14
0 14 -3 70.95 4.13
-1 14 -3 18.22 2.74
-1 -14 -3 17.14 2.46
-1 -14 -3 14.68 2.41
-2 -14 -3 56.63 3.76
-2 14 -3 46.58 3.47
-2 -14 -3 54 3.61
-3 14 -3 29.19 3.06
-3 -14 -3 22.26 2.78
-3 -14 -3 27.53 2.94
-4 14 -3 10.69 2.57
-4 -14 -3 11.44 2.41
-4 -14 -3 11.24 2.66
4 15 -3 1.16 2.2
3 15 -3 14.34 2.67
2 15 -3 -2.24 2.14
2 -15 -3 -1.5 1.93
1 15 -3 3.35 2.22
1 -15 -3 -1.55 1.94
0 15 -3 8.26 2.38
0 -15 -3 9.76 2.32
-1 15 -3 28.88 3.14
-1 -15 -3 35.5 3.18
-2 15 -3 0.92 2.36
-2 -15 -3 1.18 2.1
-2 -15 -3 0.63 2.01
-3 15 -3 -1.18 2.29
-3 -15 -3 0.96 2.13
-3 -15 -3 1.98 2.18
2 -16 -3 64.59 4
2 16 -3 67.07 4.22
1 16 -3 37.4 3.46
1 -16 -3 36.43 3.34
0 -16 -3 76.47 4.46
0 16 -3 73.91 4.42
11 0 -4 19.9 2.85
10 0 -4 42.64 3.3
-10 0 4 46.29 3.59
-9 0 4 95.68 4.59
9 0 -4 93 4.48
-8 0 4 104.23 4.68
8 0 -4 116.15 4.75
-7 0 4 87.65 4.14
7 0 -4 87.56 4.09
6 0 -4 33.69 2.44
-6 0 4 35.95 2.64
-5 0 4 188.85 6.05
-5 0 4 185.29 5.75
5 0 -4 191.41 6
-4 0 4 238.82 7.18
-4 0 4 250.07 7.15
4 0 -4 270.58 7.37
-3 0 4 60.67 2.82
-3 0 4 64.33 2.9
3 0 -4 63.15 2.98
-2 0 4 1450.08 32.53
-2 0 4 1478.62 32.75
2 0 -4 1479.97 32.71
-1 0 4 597.03 14.08
1 0 -4 566.51 14
0 0 4 1021.85 22.76
0 0 -4 968.82 22.83
1 0 4 47.49 2.43
-1 0 -4 43.77 2.53
-2 0 -4 473.92 12.03
-3 0 -4 154.89 5.31
-4 0 -4 2.37 1.63
-5 0 -4 561.94 14.5
-6 0 -4 35.67 2.89
-7 0 -4 23.77 2.89
-8 0 -4 37.45 3.32
11 -1 -4 37.63 3.7
11 -1 -4 35.6 3.3
-11 1 4 38.21 3.47
10 -1 -4 3.85 2.49
10 -1 -4 1.94 2.11
-10 1 4 5.76 2.39
-10 -1 4 2.01 2.13
9 -1 -4 36.65 3.07
9 1 -4 30.58 2.8
9 -1 -4 37.58 3.06
-9 1 4 34.58 3.03
-9 -1 4 29.51 2.88
-8 1 4 145.34 5.58
-8 -1 4 136.77 5.52
8 -1 -4 144.04 5.48
8 1 -4 138.46 5.37
8 -1 -4 147.45 5.52
-7 1 4 156.6 5.64
-7 -1 4 140.21 5.51
7 -1 -4 151.71 5.43
7 1 -4 158.34 5.51
7 -1 -4 151.09 5.6
-6 1 4 62.05 3.27
-6 -1 4 60.89 3.24
6 -1 -4 59.63 3.08
6 1 -4 60.88 3.12
6 -1 -4 60.01 3.26
-5 1 4 219.74 6.89
-5 -1 4 235.01 6.97
-5 1 4 232.1 6.66
-5 -1 4 238.87 6.79
5 1 -4 235.82 6.92
5 -1 -4 227.29 6.97
4 1 -4 4.91 1.4
4 -1 -4 5.01 1.48
-4 1 4 3.67 1.5
-4 -1 4 7.54 1.57
-4 1 4 5.86 1.47
-4 -1 4 4.68 1.38
3 1 -4 0.82 1.22
3 -1 -4 0.37 1.26
-3 1 4 0.48 1.19
-3 -1 4 1.46 1.2
-3 1 4 -0.12 1.18
-3 -1 4 -0.12 1.28
-2 -1 4 35.86 2.1
-2 1 4 31.92 2.12
-2 -1 4 35.93 2.21
2 1 -4 28.14 2.09
2 -1 -4 34.39 2.22
2 1 -4 35.33 1.77
1 1 -4 12.97 1.61
1 -1 -4 13.23 1.6
-1 1 4 12.3 1.52
-1 -1 4 10.05 1.49
0 -1 4 43.41 2.36
0 1 -4 43.73 2.42
0 -1 -4 41.26 2.42
-1 1 -4 9.89 1.63
-1 -1 -4 12.49 1.71
1 -1 4 11.28 1.45
2 -1 4 68.83 2.91
-2 1 -4 69.83 3.18
-2 -1 -4 67.92 3.2
-3 1 -4 35 2.7
-3 -1 -4 36.71 2.53
-4 1 -4 77.06 3.71
-4 -1 -4 76.71 3.73
-5 1 -4 246.34 7.76
-5 -1 -4 247.16 7.76
-6 1 -4 12.66 2.37
-6 -1 -4 16.68 2.33
-7 1 -4 60.88 3.88
-7 -1 -4 59.97 3.7
-8 1 -4 11.54 2.41
-8 -1 -4 19.12 2.64
-9 -1 -4 4.98 2.43
11 -2 -4 3.45 2.55
-11 2 4 2.99 2.15
10 -2 -4 2.98 2.37
10 -2 -4 0.22 2.06
-10 2 4 -1.53 2.21
-10 -2 4 2.05 2.13
9 -2 -4 3.66 2.33
9 -2 -4 0.21 2.03
-9 2 4 0.82 1.93
-9 -2 4 1.69 1.9
8 -2 -4 3.61 2.05
8 2 -4 1.34 1.69
8 -2 -4 2.29 1.95
-8 2 4 3.22 1.96
-8 -2 4 -0.97 1.84
7 2 -4 12.71 1.94
7 -2 -4 12.03 2.1
7 -2 -4 10.99 2.1
-7 2 4 12.52 2.07
-7 -2 4 9.27 1.92
6 -2 -4 4.13 1.76
6 2 -4 0.28 1.34
6 -2 -4 2.23 1.65
-6 2 4 0.16 1.51
-6 -2 4 0.63 1.54
-6 -2 4 0.65 1.27
5 -2 -4 22.01 1.92
5 2 -4 23.96 1.98
5 -2 -4 23.96 2.22
-5 2 4 23.58 2.15
-5 -2 4 23.49 2.1
-5 -2 4 20.98 1.91
-4 2 4 50.04 2.72
-4 -2 4 47.91 2.63
-4 -2 4 52.88 2.69
4 2 -4 48.47 2.56
4 -2 -4 45.27 2.69
-3 2 4 46.33 2.53
-3 -2 4 50.75 2.46
-3 -2 4 46.86 2.56
3 2 -4 50.43 2.57
3 -2 -4 47 2.67
-2 -2 4 62.3 2.68
-2 -2 4 63.78 2.92
2 2 -4 61.87 2.78
2 -2 -4 53.87 2.79
2 2 -4 62.99 2.51
1 2 -4 -0.22 1.33
1 -2 -4 1.32 1.36
1 2 -4 0.3 0.9
-1 -2 4 1.07 1.23
0 2 -4 12.41 1.57
0 -2 -4 10.78 1.68
0 -2 4 12.36 1.56
1 -2 4 30.33 2.01
-1 2 -4 26.08 2.1
-1 -2 -4 28.45 2.18
-2 2 -4 26.85 2.15
-2 -2 -4 25.53 2.13
2 -2 4 22.87 1.82
-3 2 -4 5.03 1.74
-3 -2 -4 3.85 1.57
-3 -2 -4 2.98 1.39
-4 -2 -4 10.21 1.95
-4 2 -4 9.7 1.96
-5 2 -4 1.93 1.75
-5 -2 -4 0.69 1.82
-6 2 -4 -0.58 1.81
-6 -2 -4 1.5 1.82
-7 2 -4 1.27 1.99
-7 -2 -4 -0.82 2.06
-8 2 -4 1.14 2.19
-8 -2 -4 2.19 2.13
-9 -2 -4 9.83 2.58
10 -3 -4 9.94 2.45
10 -3 -4 6.76 2.55
-10 3 4 10.96 2.44
-10 -3 4 7.34 2.41
-9 3 4 102.93 4.76
-9 -3 4 101.75 4.84
9 -3 -4 105.9 4.83
9 -3 -4 104.85 4.91
-8 3 4 68.48 3.72
-8 -3 4 63 3.64
8 -3 -4 60.94 3.72
8 -3 -4 63.43 3.54
-7 3 4 204.3 6.79
-7 -3 4 203.68 6.79
7 -3 -4 206.8 6.85
7 -3 -4 201.63 6.54
-6 3 4 48.52 2.99
-6 -3 4 55.3 3.05
-6 -3 4 54.77 2.81
6 3 -4 46.48 2.75
6 -3 -4 55.02 3.14
-5 3 4 123.99 4.61
-5 -3 4 121.91 4.46
-5 -3 4 109.39 4.26
5 3 -4 122.81 4.32
5 -3 -4 118.01 4.55
-4 3 4 61.24 3.05
-4 -3 4 58.69 2.9
-4 -3 4 65.28 3.03
4 3 -4 55.9 2.74
4 -3 -4 71.01 3.24
3 -3 -4 28.27 2.14
-3 -3 4 25.78 1.87
-3 -3 4 29.38 2.17
3 3 -4 30.45 2
3 3 -4 26.63 1.93
2 3 -4 5.48 1.35
2 -3 -4 3.72 1.37
-2 -3 4 3.46 1.02
2 3 -4 3.47 1.11
-2 -3 4 3.48 1.32
-1 -3 4 45.71 2.12
1 3 -4 44.81 2.41
-1 -3 4 56.7 2.68
1 -3 -4 48.77 2.61
1 3 -4 47.24 2.24
0 3 -4 2.65 1.27
0 -3 -4 0.62 1.33
0 3 -4 0.91 1.02
0 -3 4 0.59 1.21
-1 3 -4 25.27 2.03
-1 -3 -4 31.2 2.22
1 -3 4 29.09 2.06
-2 3 -4 10.05 1.71
-2 -3 -4 5.73 1.62
-2 -3 -4 2.74 1.38
2 -3 4 6.53 1.36
-3 -3 -4 119.12 4.36
-3 3 -4 118.88 4.49
-3 -3 -4 112.03 4.41
-4 -3 -4 17.36 2.09
-4 -3 -4 17.31 1.85
-4 3 -4 14.53 2.08
-5 3 -4 252.04 7.84
-5 -3 -4 248.8 7.79
-6 3 -4 16.68 2.47
-6 -3 -4 13.94 2.27
-7 -3 -4 43.79 3.22
-7 3 -4 36.88 3.18
-8 3 -4 60.54 4.03
-8 -3 -4 61.39 4.01
-9 -3 -4 18.35 2.79
10 -4 -4 11.05 2.54
10 -4 -4 7.98 2.66
-10 4 4 5.97 2.22
-10 -4 4 10.4 2.51
9 -4 -4 42.04 3.27
-9 4 4 41.35 3.15
-9 -4 4 44.34 3.33
9 -4 -4 50.42 3.54
-8 4 4 51.15 3.31
-8 -4 4 41.54 3.14
8 -4 -4 46.15 3.26
-7 4 4 124.59 4.84
-7 -4 4 101.86 4.64
7 -4 -4 111.42 4.82
6 -4 -4 5.71 1.74
-6 4 4 7.55 1.85
-6 -4 4 7.29 1.66
-6 -4 4 9.79 1.71
-5 4 4 140.7 5.15
-5 -4 4 143.75 5.04
-5 -4 4 149.96 5.08
5 -4 -4 145.43 5.2
-4 4 4 298.42 8.45
-4 -4 4 311.84 8.26
-4 -4 4 296.81 8.36
4 -4 -4 296.48 8.46
-3 -4 4 35.35 2.26
3 4 -4 34.36 2.19
-3 -4 4 45.25 2.63
3 -4 -4 41.94 2.56
3 4 -4 41.31 2.5
-2 -4 4 1189.45 26.17
2 4 -4 1170.83 26.38
-2 -4 4 1165.93 26.72
2 -4 -4 1148.92 26.7
2 4 -4 1198.76 26.4
1 4 -4 404.22 10.24
1 -4 -4 417.38 10.6
-1 -4 4 406.26 10.63
1 4 -4 418.82 10.22
0 4 -4 500.6 12.35
0 4 -4 497.6 12.45
0 -4 -4 529.11 12.9
0 -4 4 533.62 12.78
-1 4 -4 239.88 6.5
-1 4 -4 247.86 6.83
-1 -4 -4 229.45 6.89
1 -4 4 239.24 6.77
-2 -4 -4 216.25 6.69
-2 4 -4 229.6 6.63
-2 -4 -4 209.14 6.57
2 -4 4 227.58 6.41
-3 -4 -4 135.3 4.84
-3 4 -4 141.1 4.98
-3 -4 -4 126.89 4.77
-4 -4 -4 14.79 2.05
-4 -4 -4 15.1 1.93
-4 4 -4 12.88 1.99
-5 4 -4 263.18 8.29
-5 -4 -4 277.45 8.14
-5 -4 -4 284.45 8.36
-6 4 -4 45.79 3.3
-6 -4 -4 38.4 3.08
-7 4 -4 24.84 2.89
-7 -4 -4 11.88 2.39
-8 4 -4 12.91 2.63
-8 -4 -4 19.33 2.73
10 -5 -4 -0.7 2.27
-10 -5 4 1.4 2.09
9 -5 -4 31.46 3.03
-9 5 4 31.22 2.96
-9 -5 4 35.15 3.18
-8 5 4 84.39 4.18
-8 -5 4 81.61 4.19
8 -5 -4 83.32 4.25
7 -5 -4 40.48 3.06
-7 5 4 41.22 2.93
-7 -5 4 37.67 2.9
-6 5 4 164.88 5.76
-6 -5 4 167.43 5.74
-6 -5 4 160.38 5.55
6 -5 -4 167.21 5.88
5 -5 -4 33.88 2.53
-5 5 4 34.53 2.55
-5 -5 4 35.47 2.4
-5 -5 4 32.26 2.41
4 -5 -4 10.33 1.84
-4 -5 4 9.44 1.64
4 5 -4 12.8 1.8
-4 -5 4 12.45 1.88
3 -5 -4 21.09 2.13
-3 -5 4 18.43 1.66
3 5 -4 20.8 2.01
-3 -5 4 20.76 2.06
2 -5 -4 22.98 1.96
2 5 -4 22.6 1.9
-2 -5 4 21.23 1.97
1 5 -4 3.17 1.21
1 -5 -4 2.28 1.33
1 5 -4 0.34 1.18
-1 -5 4 1.83 1.35
0 5 -4 4.86 1.24
0 -5 -4 2.8 1.5
0 5 -4 0.97 1.18
0 -5 4 2.77 1.33
-1 5 -4 78.52 3.22
-1 5 -4 88.2 3.42
-1 -5 -4 89.6 3.58
1 -5 4 80.32 3.39
-2 -5 -4 58.49 3.11
-2 5 -4 63.79 2.88
-2 5 -4 65.8 3.11
-2 -5 -4 62.93 3.14
2 -5 4 65.11 2.91
-3 -5 -4 27.69 2.27
-3 -5 -4 32.06 2.43
-3 5 -4 27.75 2.35
-4 -5 -4 66.72 3.39
-4 5 -4 67.32 3.44
-4 -5 -4 63.53 3.32
-5 -5 -4 109.58 4.57
-5 5 -4 102.47 4.46
-5 -5 -4 101.83 4.45
-6 -5 -4 22.64 2.56
-6 5 -4 24.55 2.7
-6 -5 -4 20.11 2.49
-7 5 -4 17.62 2.56
-8 5 -4 0.46 2.3
10 -6 -4 6.18 2.3
-10 -6 4 7.54 2.45
9 -6 -4 4.02 2.23
-9 -6 4 4.59 2.19
8 -6 -4 -1.04 1.94
-8 6 4 1.32 1.9
-8 -6 4 1 1.93
7 -6 -4 9.74 2.08
-7 6 4 16.87 2.29
-7 -6 4 11.21 2.15
6 -6 -4 9.31 1.92
-6 6 4 8.6 1.89
-6 -6 4 10.65 1.85
-5 -6 4 79.63 3.55
5 -6 -4 81.99 3.81
-4 -6 4 132.01 4.51
4 -6 -4 135 4.94
4 6 -4 132.23 4.85
3 -6 -4 30.13 2.35
3 6 -4 24.26 2.1
2 -6 -4 122.21 4.37
2 6 -4 113.14 4.23
1 -6 -4 2.58 1.4
1 6 -4 5.48 1.52
0 -6 -4 8.65 1.78
0 6 -4 7.75 1.67
0 -6 4 12.22 1.76
-1 6 -4 44.4 2.47
-1 -6 -4 40.01 2.52
1 -6 4 40.84 2.48
-2 -6 -4 150.66 5.33
-2 6 -4 154.64 5.04
-2 6 -4 149.8 4.99
-2 -6 -4 152.34 5.19
2 -6 4 147.66 4.91
-3 -6 -4 17.26 2.01
-3 6 -4 15.56 1.91
-3 -6 -4 14.95 2.15
-3 6 -4 16.45 1.97
-4 -6 -4 22.07 2.31
-4 -6 -4 25.17 2.46
-4 6 -4 26 2.38
-5 -6 -4 13.1 2.27
-5 6 -4 14.33 2.17
-5 -6 -4 16.55 2.27
-6 -6 -4 4.19 2.05
-6 6 -4 -1.36 1.86
-7 6 -4 7.46 2.4
-8 6 -4 -1.83 2.2
-9 -7 4 118.23 5.25
9 -7 -4 115.27 5.32
8 -7 -4 41.8 3.25
-8 -7 4 37.26 3.08
-7 -7 4 93.98 4.41
7 -7 -4 106.23 4.66
-6 -7 4 77.04 3.67
6 -7 -4 75.56 3.83
-5 -7 4 50.6 2.94
5 -7 -4 55.54 3.19
5 7 -4 58.07 3.34
4 -7 -4 110.03 4.37
4 7 -4 106.58 4.38
3 -7 -4 41.15 2.63
3 7 -4 43.88 2.74
2 -7 -4 0.27 1.32
2 7 -4 2.69 1.59
1 7 -4 51.19 2.75
1 -7 -4 40.25 2.54
0 -7 -4 3.39 1.49
0 7 -4 4.69 1.5
-1 7 -4 42.89 2.62
-1 -7 -4 47.53 2.69
1 -7 4 44.38 2.66
-2 -7 -4 8.34 1.82
-2 7 -4 7.47 1.64
-2 -7 -4 10.49 1.98
-3 -7 -4 90.38 4.12
-3 7 -4 92.92 3.89
-3 -7 -4 89.32 3.79
-4 7 -4 10.71 1.97
-4 -7 -4 10.52 2.18
-5 -7 -4 112.15 4.91
-6 -7 -4 41.65 3.22
-6 7 -4 35.73 2.94
-7 -7 -4 35.1 3.31
-7 7 -4 28.5 3.01
-8 7 -4 70.63 4.28
9 -8 -4 7.06 2.4
-9 -8 4 7.29 2.37
8 -8 -4 5.31 2.23
-8 -8 4 6.29 2.09
-7 -8 4 105.24 4.63
7 -8 -4 110.33 4.85
6 -8 -4 3.46 1.96
6 8 -4 3.85 2.04
5 -8 -4 75.28 3.73
5 8 -4 72.11 3.75
4 -8 -4 224.24 6.94
4 8 -4 222.3 7.2
3 -8 -4 42.92 2.85
3 8 -4 43.57 2.88
2 -8 -4 519.98 12.94
2 8 -4 508.21 13.18
1 8 -4 282.01 8.11
1 -8 -4 275.31 7.89
0 8 -4 129.25 4.92
0 -8 -4 138.29 4.81
-1 -8 -4 367.7 10.19
-1 8 -4 361.57 9.89
-2 -8 -4 59.82 3.44
-2 8 -4 53.71 3.14
-3 -8 -4 89.22 4.23
-3 8 -4 87.5 4
-4 8 -4 45.87 3.05
-4 -8 -4 52.79 3.34
-5 -8 -4 63.05 3.81
-6 -8 -4 25.81 2.92
-7 -8 -4 5.9 2.49
9 -9 -4 38.81 3.38
-9 -9 4 44.42 3.55
8 -9 -4 10.49 2.45
8 9 -4 14.6 2.74
7 -9 -4 4.57 2.02
7 9 -4 5.79 2.36
6 -9 -4 208.82 6.93
6 9 -4 199.55 7.1
5 -9 -4 10.99 2.1
5 9 -4 11.2 2.23
4 -9 -4 23.87 2.27
4 9 -4 18.09 2.24
3 -9 -4 17.63 2.07
3 9 -4 17.51 2.32
2 9 -4 2.35 1.56
1 9 -4 15.34 2.05
0 9 -4 24.78 2.37
-1 -9 -4 85.46 4.1
-1 9 -4 85.9 3.96
-2 9 -4 12.55 2.03
-2 -9 -4 14.86 2.25
-3 -9 -4 42.41 3.04
-3 -9 -4 52.3 3.38
-3 9 -4 60.2 3.37
-4 9 -4 27.12 2.7
-4 -9 -4 30.36 2.71
-4 -9 -4 31.67 2.9
-5 9 -4 13.08 2.21
-5 -9 -4 18.14 2.73
-6 -9 -4 43.83 3.47
-7 -9 -4 5.91 2.56
8 -10 -4 18.87 2.76
8 10 -4 19.44 3.01
7 -10 -4 5.4 2
7 10 -4 2 2.21
6 10 -4 51.49 3.55
5 10 -4 97.9 4.69
4 10 -4 65.99 3.76
3 10 -4 13.68 2.24
2 10 -4 34.25 2.78
1 10 -4 13.22 2.23
0 10 -4 24.24 2.4
-1 10 -4 11.03 2
-1 -10 -4 8.03 2.01
-2 -10 -4 209.79 7.15
-2 -10 -4 207.95 7.17
-2 10 -4 207.27 6.94
-3 10 -4 40.34 3.13
-3 -10 -4 42.07 3.08
-3 -10 -4 41.86 3.21
-4 10 -4 15.48 2.41
-4 -10 -4 12.5 2.2
-4 -10 -4 15.37 2.57
-5 10 -4 51.78 3.6
-5 -10 -4 61.04 3.93
-6 -10 -4 0.92 2.4
7 11 -4 17.72 2.89
6 11 -4 42.19 3.49
5 11 -4 59.94 3.86
4 11 -4 37.84 3.1
3 11 -4 30.09 2.86
2 11 -4 29.12 2.79
1 11 -4 2.45 1.93
1 -11 -4 2.98 1.87
0 11 -4 5.81 1.92
0 -11 -4 4.88 1.93
0 -11 -4 0.96 1.88
-1 11 -4 17.69 2.42
-1 -11 -4 13.94 2.33
-1 -11 -4 16.4 2.44
-2 11 -4 41.83 3.16
-2 -11 -4 36.42 3
-2 -11 -4 36.8 3.18
-3 11 -4 10.88 2.22
-3 -11 -4 13.43 2.36
-3 -11 -4 11.05 2.34
-4 11 -4 24.69 2.81
-4 -11 -4 21.98 2.62
-4 -11 -4 24.79 2.91
-5 11 -4 31.95 3.09
-5 -11 -4 27.74 3.18
6 12 -4 6.49 2.6
5 12 -4 15.88 2.83
4 12 -4 64.22 4.01
3 -12 -4 63.07 3.75
3 12 -4 63.59 3.87
2 -12 -4 81.8 4.23
2 12 -4 83.45 4.32
1 -12 -4 93.76 4.58
1 -12 -4 92.01 4.43
1 12 -4 99.35 4.65
0 -12 -4 66.72 3.9
0 -12 -4 74.17 3.97
0 12 -4 72.07 4.01
-1 -12 -4 116.69 5.17
-1 -12 -4 123.73 5.2
-1 12 -4 110.55 5.06
-2 12 -4 15.78 2.41
-2 -12 -4 18.16 2.57
-2 -12 -4 23.86 2.8
-3 -12 -4 59.55 3.73
-3 -12 -4 55.37 3.8
-3 12 -4 56.34 3.72
-4 12 -4 16.54 2.62
-4 -12 -4 24.74 2.83
-4 -12 -4 15.95 2.72
-5 12 -4 13.88 2.57
-5 -12 -4 14 2.66
6 13 -4 83.57 4.71
5 13 -4 2.78 2.36
4 13 -4 -0.68 2.19
3 13 -4 7.08 2.29
3 -13 -4 4.1 1.98
2 13 -4 -0.22 2.04
2 -13 -4 0.64 1.79
1 13 -4 1.71 2.05
1 -13 -4 0.65 1.96
1 -13 -4 1.4 2.02
0 13 -4 8.7 2.32
0 -13 -4 11.06 2.32
0 -13 -4 10.64 2.34
-1 13 -4 44.11 3.41
-1 -13 -4 41.05 3.38
-1 -13 -4 40.51 3.27
-2 13 -4 6.3 2.33
-2 -13 -4 6.79 2.22
-2 -13 -4 9.49 2.41
-3 13 -4 5.11 2.3
-3 -13 -4 11.86 2.37
-3 -13 -4 15 2.71
-4 13 -4 6.4 2.44
-4 -13 -4 11.35 2.48
-4 -13 -4 9.18 2.54
4 14 -4 26.44 3.16
3 14 -4 35.85 3.32
3 -14 -4 38.68 3.15
2 14 -4 14.26 2.7
2 -14 -4 19.11 2.66
1 14 -4 14.84 2.63
1 -14 -4 20.76 2.74
0 14 -4 18.38 2.82
0 -14 -4 12.23 2.47
0 -14 -4 17.32 2.57
-1 14 -4 37.9 3.41
-1 -14 -4 34.04 3.17
-1 -14 -4 38.87 3.32
-2 -14 -4 75.19 4.48
-2 -14 -4 83.15 4.56
-2 14 -4 84.85 4.6
2 15 -4 42.15 3.57
2 -15 -4 43.54 3.48
1 15 -4 7.76 2.51
1 -15 -4 6.12 2.27
0 15 -4 6.09 2.43
0 -15 -4 10.58 2.48
-1 -15 -4 2.25 2.22
10 0 -5 1.99 2.12
-10 0 5 0.71 2.21
9 0 -5 -1.88 1.94
-9 0 5 -0.89 2.09
8 0 -5 0.98 1.86
-8 0 5 -1.25 2
7 0 -5 -0.55 1.81
-7 0 5 -2.69 1.9
6 0 -5 -0.87 1.57
-6 0 5 -1.07 1.63
5 0 -5 0.33 1.56
-5 0 5 -1.48 1.52
-5 0 5 0.46 1.48
4 0 -5 -0.31 1.49
-4 0 5 0.9 1.45
-4 0 5 0.15 1.49
3 0 -5 0.15 1.5
-3 0 5 0.56 1.47
-3 0 5 -0.15 1.41
2 0 -5 0.15 1.49
-2 0 5 1.2 1.43
1 0 -5 -0.15 1.58
-1 0 5 0.74 1.45
0 0 -5 -0.59 1.52
0 0 5 -0.58 1.43
-1 0 -5 0.93 1.56
-2 0 -5 -0.49 1.7
-3 0 -5 0.35 1.78
-4 0 -5 -0.19 1.88
-5 0 -5 1.82 2.01
-6 0 -5 2.82 2.12
-7 0 -5 1.84 2.2
-10 1 5 103.63 5.15
-10 -1 5 112.98 5.36
10 -1 -5 100.73 5.01
9 -1 -5 22.1 2.76
-9 1 5 27.07 2.96
-9 -1 5 23.65 2.88
8 1 -5 43.4 3.16
8 -1 -5 43.58 3.25
-8 1 5 47.2 3.34
-8 -1 5 46.22 3.37
7 1 -5 15.45 2.35
7 -1 -5 24.23 2.52
-7 1 5 23.06 2.54
-7 -1 5 21.68 2.5
-6 1 5 96.16 4.27
-6 -1 5 86.97 4.09
-6 -1 5 92.32 4.01
6 1 -5 97.72 4.19
6 -1 -5 89.11 4.21
5 1 -5 32.41 2.55
5 -1 -5 27.42 2.42
-5 1 5 29.06 2.48
-5 -1 5 24.48 2.31
-5 1 5 29.11 2.31
-5 -1 5 29.95 2.38
-4 1 5 66.14 3.29
-4 -1 5 60.55 3.2
-4 1 5 61.48 3.22
-4 -1 5 62.96 3.26
4 1 -5 68.96 3.33
4 -1 -5 61.64 3.36
-3 -1 5 93.07 3.7
-3 1 5 88.61 3.87
-3 -1 5 87.56 3.9
3 1 -5 88.38 3.81
3 -1 -5 88 3.87
2 1 -5 21.1 2.06
2 -1 -5 16.6 2.03
-2 1 5 15.83 1.92
-2 -1 5 17.7 2.04
1 1 -5 6.79 1.72
1 -1 -5 9.03 1.79
-1 -1 5 6.39 1.58
0 1 -5 5.71 1.62
0 -1 -5 4.08 1.66
0 -1 5 5.99 1.59
-1 1 -5 19.63 2.17
-1 -1 -5 18.58 2.06
1 -1 5 18.89 1.95
-2 1 -5 34.96 2.69
-2 -1 -5 39.33 2.81
-3 1 -5 6.96 2
-3 -1 -5 0.7 1.78
-4 1 -5 46.05 3.21
-4 -1 -5 45.08 3.22
-5 1 -5 -0.2 2.07
-5 -1 -5 0.4 1.95
-6 1 -5 112.83 5.19
-6 -1 -5 119.77 5.31
-7 1 -5 30.19 3.22
-7 -1 -5 32.32 3.28
10 -2 -5 17.19 2.83
-10 2 5 18.24 2.87
-10 -2 5 18.63 2.89
9 -2 -5 14.72 2.45
-9 2 5 11.33 2.41
-9 -2 5 14.66 2.59
8 -2 -5 3.93 2.01
-8 2 5 2.09 1.94
-8 -2 5 2.51 1.91
-7 2 5 87.66 4.21
-7 -2 5 77.38 4.07
7 2 -5 84.3 4.04
7 -2 -5 78.84 4.04
-6 2 5 214.59 6.93
-6 -2 5 214.51 6.86
-6 -2 5 200.05 6.59
6 2 -5 199.37 6.59
6 -2 -5 199.22 6.83
-5 2 5 107.32 4.45
-5 -2 5 104.77 4.35
-5 -2 5 102.7 4.36
5 2 -5 111.73 4.39
5 -2 -5 109.8 4.58
-4 2 5 263.94 7.91
-4 -2 5 261.5 7.75
-4 -2 5 260.16 7.92
4 2 -5 275.96 7.87
4 -2 -5 275.6 8.12
-3 -2 5 631.38 15.47
-3 -2 5 650.52 15.91
3 2 -5 642.07 15.68
3 -2 -5 636.72 15.9
2 2 -5 5.93 1.64
2 -2 -5 7.16 1.68
-2 -2 5 8.59 1.72
-1 -2 5 519.25 13.39
1 2 -5 535.01 13.35
1 -2 -5 528.81 13.45
0 -2 5 279.49 8.02
0 2 -5 268.52 7.94
0 -2 -5 279.33 8.13
1 -2 5 202.23 6.35
-1 2 -5 201.82 6.46
-1 -2 -5 198.59 6.51
2 -2 5 414.25 10.69
-2 2 -5 397.46 10.95
-2 -2 -5 404.48 11.02
-3 2 -5 165.85 5.91
-3 -2 -5 154.34 5.81
-4 2 -5 185.58 6.55
-4 -2 -5 187.47 6.63
-5 -2 -5 -1.81 1.98
-5 2 -5 -0.2 2.04
-6 2 -5 17.64 2.61
-6 -2 -5 12 2.39
-7 2 -5 15.87 2.75
-7 -2 -5 13.41 2.69
-10 3 5 51.6 3.81
9 -3 -5 14.59 2.66
-9 3 5 10.47 2.47
-9 -3 5 12.98 2.56
8 -3 -5 34.06 3.06
-8 3 5 27.36 2.87
-8 -3 5 24.08 2.74
7 -3 -5 6.15 2.11
-7 3 5 4.35 1.95
-7 -3 5 5.96 1.98
6 -3 -5 19.68 2.42
-6 3 5 20.25 2.35
-6 -3 5 19.11 2.28
-6 -3 5 17.55 2.16
-5 3 5 58.18 3.31
-5 -3 5 59.23 3.19
-5 -3 5 56.87 3.24
5 3 -5 65.67 3.23
5 -3 -5 59.21 3.38
-4 -3 5 33.45 2.41
-4 -3 5 36.75 2.68
4 3 -5 35.52 2.41
4 -3 -5 37.18 2.79
-3 -3 5 145.24 4.81
-3 -3 5 143.12 5.24
3 3 -5 141.43 4.97
3 -3 -5 137.33 5.18
2 3 -5 0.27 1.45
2 -3 -5 0.31 1.49
-2 -3 5 0.16 1.49
1 3 -5 4.53 1.67
1 -3 -5 6.4 1.77
-1 -3 5 4.28 1.58
0 3 -5 1.7 1.48
0 -3 -5 0.16 1.57
0 -3 5 0.75 1.5
1 -3 5 136.97 4.93
-1 3 -5 136.83 4.96
-1 -3 -5 132.3 5.03
-2 3 -5 0.96 1.7
-2 -3 -5 0.83 1.77
-2 -3 -5 -0.15 1.47
2 -3 5 -1.68 1.45
-3 3 -5 3.29 1.86
-3 -3 -5 2.96 1.79
-4 -3 -5 39.46 3.03
-4 3 -5 34.85 2.92
-5 -3 -5 3.39 2.07
-5 3 -5 2.63 1.98
-6 3 -5 65.54 3.94
-6 -3 -5 57.96 3.77
-7 3 -5 32.19 3.37
-7 -3 -5 37.07 3.38
9 -4 -5 5.26 2.17
-9 4 5 5.57 2.22
-9 -4 5 6.94 2.21
8 -4 -5 25.48 2.84
-8 4 5 22.94 2.74
-8 -4 5 17.83 2.56
7 -4 -5 13.17 2.35
-7 4 5 9.11 2.17
-7 -4 5 9.32 2.14
6 -4 -5 3.83 1.92
-6 4 5 4.3 1.92
-6 -4 5 4.88 1.87
-6 -4 5 4.24 1.81
5 -4 -5 12.35 2.01
-5 -4 5 11.69 1.94
-5 -4 5 10.22 1.87
4 -4 -5 0.69 1.64
-4 -4 5 2.63 1.44
4 4 -5 1.24 1.59
-4 -4 5 1.49 1.54
-3 -4 5 59.22 3.22
3 -4 -5 59.53 3.26
2 4 -5 11.8 1.72
2 -4 -5 12.66 1.93
-2 -4 5 11.41 1.89
1 4 -5 14.03 1.89
1 -4 -5 12.53 2.04
-1 -4 5 12.14 1.87
0 4 -5 52.61 2.95
0 -4 5 50.7 2.94
0 -4 -5 57.11 3.16
-1 4 -5 6.15 1.76
-1 -4 -5 7.55 1.85
1 -4 5 8.72 1.71
-2 4 -5 18.55 2.15
-2 -4 -5 17.94 2.25
-2 -4 -5 20.8 2.21
2 -4 5 18.11 2.02
-3 -4 -5 53.65 3.2
-3 4 -5 60.78 3.47
-3 -4 -5 54.58 3.34
-4 -4 -5 3.53 2.05
-4 4 -5 0.56 1.91
-5 -4 -5 -1.58 1.94
-5 4 -5 0.4 2.08
-6 4 -5 47.36 3.56
-6 -4 -5 42.23 3.38
-7 4 -5 0.93 2.35
-7 -4 -5 -1.55 2.23
9 -5 -5 18.83 2.77
-9 5 5 20.3 2.74
-9 -5 5 16.84 2.56
8 -5 -5 34.5 3.16
-8 5 5 40.75 3.25
-8 -5 5 37.71 3.21
-7 5 5 99.11 4.7
-7 -5 5 100.94 4.56
7 -5 -5 107.14 4.86
-6 -5 5 50.92 3.16
-6 -5 5 53.11 3.29
6 -5 -5 55.08 3.44
5 -5 -5 28.69 2.63
-5 -5 5 25.98 2.39
5 5 -5 33.46 2.59
-5 -5 5 34.1 2.66
-4 -5 5 96.14 4.24
4 -5 -5 93.91 4.23
4 5 -5 90.11 3.94
3 -5 -5 3.98 1.79
3 5 -5 2.75 1.52
-3 -5 5 4.04 1.7
-2 -5 5 59.06 3.26
2 -5 -5 59.86 3.25
1 -5 -5 2.57 1.78
-1 -5 5 0.16 1.52
0 5 -5 16.86 1.88
0 -5 -5 17.91 2.21
0 -5 5 18.26 2.09
-1 5 -5 15.46 2.03
-1 -5 -5 14.07 2.03
1 -5 5 12.12 1.83
-2 -5 -5 101.94 4.32
-2 5 -5 96.37 4.2
-2 -5 -5 98.04 4.32
-3 5 -5 19.11 2.41
-3 -5 -5 14.23 2.12
-3 -5 -5 16.59 2.18
-4 -5 -5 21.83 2.61
-4 -5 -5 20.52 2.42
-4 5 -5 22.6 2.51
-5 -5 -5 19.4 2.59
-5 5 -5 22.51 2.66
-6 5 -5 71.04 4.23
-6 -5 -5 69.87 4.07
-7 5 -5 15.53 2.64
9 -6 -5 12.49 2.62
-9 6 5 17.9 2.73
-9 -6 5 13.31 2.62
8 -6 -5 12.94 2.56
-8 6 5 19.56 2.57
-8 -6 5 14.81 2.45
7 -6 -5 27.76 2.91
-7 -6 5 32.47 2.85
-6 -6 5 77.76 4
6 -6 -5 89.85 4.31
6 6 -5 81.45 4.14
-5 -6 5 176.93 6.3
5 -6 -5 184.5 6.37
5 6 -5 171.82 6.08
-4 -6 5 77.34 3.87
4 -6 -5 78.55 3.87
4 6 -5 72.75 3.63
3 -6 -5 352.86 10.16
-3 -6 5 362.59 10.27
3 6 -5 378.79 10.04
2 -6 -5 40.83 2.78
2 6 -5 40.43 2.61
-2 -6 5 35.16 2.71
1 -6 -5 143.41 5.29
-1 -6 5 140.74 5.22
0 -6 -5 326.82 9.31
0 -6 5 327.94 9.27
-1 -6 -5 98.29 4.26
1 -6 5 102.25 4.17
-2 -6 -5 209.4 7.07
-2 -6 -5 222.56 7.05
-3 -6 -5 169.32 6.12
-3 -6 -5 166.29 5.98
-4 -6 -5 65.09 3.74
-4 6 -5 73.27 3.87
-4 -6 -5 70.28 3.81
-5 -6 -5 3.1 2.07
-5 -6 -5 4.7 2.11
-5 6 -5 0.4 2.01
-6 6 -5 22.19 2.84
-7 6 -5 -0.69 2.14
-9 -7 5 2.72 2.15
8 -7 -5 2.26 1.97
-8 -7 5 2.3 2.08
7 -7 -5 40.38 3.22
7 7 -5 40.02 3.34
6 -7 -5 22.59 2.64
6 7 -5 18.24 2.46
-6 -7 5 24.8 2.56
-5 -7 5 93.15 4.34
5 -7 -5 86.05 4.24
5 7 -5 92.47 4.24
4 -7 -5 38.06 2.88
4 7 -5 31.81 2.61
-4 -7 5 34.82 2.8
3 -7 -5 15.89 2.18
3 7 -5 20.26 2.3
-3 -7 5 19.74 2.29
2 -7 -5 15.05 2.11
2 7 -5 13.32 1.95
-2 -7 5 16.23 2.2
1 -7 -5 1.81 1.74
1 7 -5 2.68 1.64
-1 -7 5 2.75 1.81
0 -7 -5 6.48 1.91
0 -7 5 6.02 1.81
-1 -7 -5 71.3 3.62
1 -7 5 71.21 3.54
-2 -7 -5 0.17 1.75
-2 -7 -5 2.63 1.89
-3 -7 -5 2.57 1.82
-3 -7 -5 3.32 1.88
-4 -7 -5 6.85 2.08
-5 -7 -5 3.72 2.2
8 -8 -5 6.83 2.33
8 8 -5 6.41 2.35
7 -8 -5 40.3 3.22
7 8 -5 35.43 3.32
6 -8 -5 1.02 1.98
6 8 -5 2.84 1.96
-6 -8 5 0.2 1.91
5 -8 -5 0.19 2.01
5 8 -5 -0.57 1.81
-5 -8 5 3.74 2.02
4 -8 -5 30.92 2.7
4 8 -5 30.36 2.75
-4 -8 5 25.35 2.75
3 -8 -5 77.1 3.81
-3 -8 5 71.3 3.87
3 8 -5 71.94 3.79
2 -8 -5 10.54 1.89
2 8 -5 13.04 2.16
-2 -8 5 11.05 2.06
1 8 -5 107.9 4.46
1 -8 -5 106.34 4.47
-1 -8 5 110.24 4.67
0 8 -5 43.82 2.87
0 -8 -5 43.73 2.9
0 -8 5 47.55 3.06
-1 -8 -5 18.28 2.44
1 -8 5 19.22 2.25
-2 -8 -5 -1.58 1.9
-3 -8 -5 31.86 2.95
-4 -8 -5 18.85 2.65
-5 -8 -5 -1.52 2.1
-6 -8 -5 48.81 3.78
8 -9 -5 40.11 3.44
7 -9 -5 96.12 4.8
7 9 -5 93.05 4.77
6 -9 -5 44.01 3.36
6 9 -5 45.23 3.44
-6 -9 5 40.13 3.24
5 -9 -5 34.09 2.96
5 9 -5 31.63 2.91
4 -9 -5 42.62 3.04
4 9 -5 33.83 3.01
3 -9 -5 6.46 1.95
3 9 -5 7.98 2.05
2 9 -5 4.5 1.9
1 9 -5 0.87 1.68
-1 -9 5 3.17 1.83
0 9 -5 4.13 1.77
0 -9 5 5.76 1.94
-1 -9 -5 1.84 1.93
1 -9 5 1.21 1.69
-2 -9 -5 18.84 2.57
-3 -9 -5 28.19 2.99
-4 -9 -5 29.85 3.03
-5 -9 -5 27.15 3.15
7 -10 -5 7.41 2.25
7 10 -5 8.81 2.41
-7 -10 5 4.34 2.2
6 10 -5 23.13 2.87
5 10 -5 100.68 4.94
4 10 -5 32.41 2.89
3 10 -5 104.97 4.76
2 10 -5 71.49 3.86
1 10 -5 54.4 3.43
0 10 -5 138.7 5.48
0 -10 5 141.19 5.49
-1 10 -5 48.57 3.24
-1 -10 -5 41.89 3.38
-2 -10 -5 119.38 5.33
-3 -10 -5 50.59 3.51
-3 -10 -5 39.28 3.41
-4 -10 -5 39.5 3.45
6 11 -5 41.52 3.67
5 11 -5 41.49 3.51
4 11 -5 25.28 2.96
3 11 -5 -1.89 2.12
2 11 -5 10.22 2.3
1 11 -5 -0.6 1.98
0 11 -5 4.74 2.04
0 -11 -5 5.21 2.27
-1 11 -5 42.42 3.28
-1 -11 -5 46.35 3.53
-1 -11 -5 43.67 3.44
-2 11 -5 1 2.01
-2 -11 -5 2.29 2.04
-2 -11 -5 4.99 2.32
-3 -11 -5 -0.45 2.06
-3 -11 -5 0.47 2.24
5 12 -5 1.86 2.35
4 12 -5 45.3 3.65
3 -12 -5 53.27 3.59
3 12 -5 42.91 3.55
2 12 -5 17.24 2.7
2 -12 -5 17.22 2.51
1 -12 -5 117.29 5.43
1 -12 -5 131.55 5.53
1 12 -5 117.04 5.3
0 12 -5 36.75 3.23
0 -12 -5 37.67 3.25
0 -12 -5 36.3 3.25
-1 12 -5 9.47 2.42
-1 -12 -5 7.6 2.43
-1 -12 -5 6.8 2.29
-2 12 -5 8.5 2.47
-2 -12 -5 8.03 2.3
-2 -12 -5 9.4 2.61
-3 -12 -5 3.27 2.14
3 13 -5 8.33 2.42
3 -13 -5 10.55 2.47
2 13 -5 1.13 2.16
2 -13 -5 0.47 2.1
1 13 -5 6.48 2.31
1 -13 -5 8.66 2.44
1 -13 -5 8.36 2.48
0 13 -5 0.67 2.17
0 -13 -5 2.43 2.16
0 -13 -5 2.06 2.23
-1 13 -5 11.31 2.57
-1 -13 -5 8.03 2.48
-1 -13 -5 11.31 2.66
-2 13 -5 0.67 2.07
2 -14 -5 24.95 3.01
9 0 -6 108.33 5.18
8 0 -6 9.87 2.52
-8 0 6 9.47 2.42
7 0 -6 37.89 3.18
-7 0 6 33.68 3.03
-6 0 6 40.32 3.16
-6 0 6 43.61 3.11
6 0 -6 46.34 3.31
-5 0 6 61.26 3.49
-5 0 6 59.56 3.48
5 0 -6 60.23 3.53
-4 0 6 210.52 6.97
4 0 -6 201.25 6.97
-3 0 6 68.39 3.65
3 0 -6 57.92 3.57
-2 0 6 978.57 23.64
2 0 -6 998.96 23.64
1 0 -6 168.43 6.05
0 0 -6 116.51 4.89
-1 0 -6 396.22 11.2
-2 0 -6 13.01 2.36
-3 0 -6 65 3.87
-4 0 -6 109.51 5.1
-5 0 -6 74.11 4.42
-6 0 -6 20.93 3.15
9 -1 -6 102.17 5.13
8 -1 -6 38.83 3.42
-8 1 6 42.68 3.41
-8 -1 6 38.88 3.32
-7 1 6 62.33 3.86
-7 -1 6 65.31 3.91
7 1 -6 63.61 3.81
7 -1 -6 62.45 3.96
-6 1 6 99.75 4.62
-6 -1 6 103.47 4.66
-6 -1 6 98.27 4.51
6 1 -6 96.22 4.6
6 -1 -6 95.81 4.72
5 1 -6 3.86 1.83
5 -1 -6 1.93 1.94
-5 1 6 0.38 1.67
-5 -1 6 2.53 1.77
-5 -1 6 1.32 1.81
4 1 -6 15.55 2.21
4 -1 -6 14.82 2.29
-4 -1 6 15.96 2.14
-4 -1 6 17.23 2.27
3 1 -6 2.66 1.82
3 -1 -6 1.1 1.76
-3 -1 6 0.37 1.7
2 1 -6 1.58 1.82
2 -1 -6 6.42 2
-2 -1 6 3.84 1.8
-1 -1 6 58.28 3.36
1 1 -6 54.5 3.31
1 -1 -6 56.53 3.48
0 1 -6 5.2 2
0 -1 -6 3.5 1.93
0 -1 6 2.82 1.67
-1 1 -6 2.96 1.91
-1 -1 -6 -0.95 1.84
-2 1 -6 2.7 2
-2 -1 -6 2.73 1.92
-3 1 -6 108.21 5.06
-3 -1 -6 110.87 5.1
-4 1 -6 20.73 2.85
-4 -1 -6 20.22 2.73
-5 1 -6 46.87 3.75
-5 -1 -6 50.6 3.75
-6 -1 -6 21.35 3.02
8 -2 -6 0.23 2.15
-8 2 6 1.59 2.12
-8 -2 6 0.44 2.04
7 -2 -6 2.6 2.12
-7 2 6 1.5 2.05
-7 -2 6 4.15 2.12
6 -2 -6 24.93 2.8
-6 2 6 21.83 2.52
-6 -2 6 22.93 2.67
-6 -2 6 24.89 2.7
5 2 -6 0.72 1.78
5 -2 -6 0.59 1.91
-5 -2 6 0.36 1.72
-5 -2 6 2.87 1.86
4 2 -6 -0.52 1.68
4 -2 -6 -0.96 1.77
-4 -2 6 3.58 1.82
-4 -2 6 -1.71 1.83
3 2 -6 6.41 1.85
3 -2 -6 7.67 2.09
-3 -2 6 8.46 2.03
2 2 -6 2.58 1.8
2 -2 -6 2.43 1.88
-2 -2 6 0.74 1.72
1 2 -6 0.69 1.77
1 -2 -6 0.93 1.77
-1 -2 6 -1.82 1.69
0 2 -6 11.99 2.08
0 -2 -6 5.58 2.03
0 -2 6 9.25 1.93
-1 2 -6 0.18 1.82
-1 -2 -6 0.95 1.85
1 -2 6 -0.35 1.58
-2 2 -6 18.95 2.56
-2 -2 -6 20.4 2.55
-3 2 -6 -2.24 2.08
-3 -2 -6 1.85 2.1
-4 2 -6 -0.43 2.24
-4 -2 -6 1.96 2.24
-5 -2 -6 9.36 2.58
-5 2 -6 7.3 2.59
-8 3 6 80.17 4.49
-8 -3 6 79.59 4.4
8 -3 -6 82.42 4.59
7 -3 -6 46.71 3.61
-7 3 6 50.23 3.6
-7 -3 6 54.46 3.58
6 -3 -6 38.47 3.28
-6 -3 6 33.42 2.8
-6 -3 6 42.3 3.09
-5 -3 6 86.93 4.01
-5 -3 6 80.09 4.12
5 -3 -6 78.07 4.18
4 -3 -6 7.59 2.09
-4 -3 6 4.07 1.91
3 3 -6 9.76 2.06
3 -3 -6 11.62 2.26
-3 -3 6 10.32 2.1
2 3 -6 4.36 1.88
2 -3 -6 2.08 1.71
-2 -3 6 5.83 1.98
1 3 -6 8.62 1.95
1 -3 -6 6.02 2.04
-1 -3 6 7.94 2.09
0 3 -6 -0.7 1.66
0 -3 -6 1.13 1.85
0 -3 6 -0.18 1.7
-1 3 -6 17.79 2.44
-1 -3 -6 18.05 2.49
1 -3 6 14.49 2.15
-2 3 -6 7.6 2.13
-2 -3 -6 7.88 2.29
-3 3 -6 48.65 3.44
-3 -3 -6 47.76 3.49
-4 -3 -6 39.67 3.43
-4 3 -6 31.19 3.22
-5 -3 -6 45.57 3.74
-5 3 -6 42.97 3.65
8 -4 -6 12.21 2.64
-8 4 6 11.07 2.53
-8 -4 6 7.64 2.31
7 -4 -6 16.14 2.71
-7 -4 6 11.35 2.44
-6 -4 6 62.22 3.85
6 -4 -6 78.44 4.23
5 -4 -6 33.36 3.02
-5 -4 6 30.05 2.79
-4 -4 6 151.11 5.84
4 -4 -6 152.32 5.88
-3 -4 6 124.2 5.05
3 -4 -6 105.19 4.84
-2 -4 6 555.95 14.58
2 -4 -6 555.96 14.62
-1 -4 6 165.18 6.2
1 4 -6 174.54 6.01
1 -4 -6 175.86 6.43
0 -4 6 132.62 5.28
0 4 -6 138.92 5.24
0 -4 -6 127.95 5.36
1 -4 6 243.69 7.68
-1 4 -6 232.19 7.63
-1 -4 -6 248.87 7.92
-2 4 -6 22.81 2.63
-2 -4 -6 20.94 2.55
-3 4 -6 67.31 3.96
-3 -4 -6 61.51 3.8
-4 4 -6 68.44 4.14
-4 -4 -6 66.47 4.1
-5 4 -6 68.76 4.21
-5 -4 -6 68.18 4.21
8 -5 -6 37.31 3.48
-8 -5 6 31.26 3.11
7 -5 -6 19.59 2.78
-6 -5 6 116.88 5.11
6 -5 -6 109.2 5.21
5 -5 -6 10.1 2.31
-5 -5 6 1.02 1.9
4 -5 -6 5.63 2.14
-4 -5 6 4.83 2.06
3 -5 -6 1.96 1.88
-3 -5 6 -0.8 1.8
2 -5 -6 5.44 1.97
-2 -5 6 7.42 2.15
1 -5 -6 16.72 2.6
-1 -5 6 22.12 2.48
0 -5 -6 1.52 1.98
0 -5 6 -2.23 1.86
-1 -5 -6 2.9 1.99
1 -5 6 2.16 1.72
-2 -5 -6 16.4 2.51
-2 -5 -6 13.54 2.33
-3 -5 -6 45.98 3.51
-3 5 -6 52.49 3.57
-4 -5 -6 15.22 2.66
-4 5 -6 16.86 2.68
-5 -5 -6 34.74 3.38
-5 5 -6 41.64 3.45
7 -6 -6 -2.31 2.27
-6 -6 6 68.35 4.01
6 -6 -6 75.5 4.28
5 -6 -6 27.77 2.98
-5 -6 6 24.73 2.83
4 -6 -6 4.68 2.04
-4 -6 6 0.21 1.89
3 -6 -6 17.22 2.42
-3 -6 6 17.56 2.48
2 -6 -6 20.42 2.54
-2 -6 6 17.66 2.41
1 -6 -6 1.74 1.97
-1 -6 6 1.37 1.85
0 -6 -6 32.18 2.94
0 -6 6 35.82 2.96
-1 -6 -6 17.84 2.51
1 -6 6 16.53 2.29
-2 -6 -6 47.12 3.38
-2 -6 -6 51.67 3.49
-3 -6 -6 9.96 2.32
-3 -6 -6 9.63 2.51
-4 -6 -6 5.52 2.37
7 -7 -6 31.04 3.21
6 -7 -6 25.57 2.94
-6 -7 6 31.66 3.07
-5 -7 6 83.58 4.5
5 -7 -6 92.93 4.63
4 -7 -6 9.68 2.22
-4 -7 6 8.68 2.21
3 -7 -6 15.02 2.43
-3 -7 6 15.39 2.46
2 -7 -6 16.06 2.48
-2 -7 6 13.21 2.4
1 -7 -6 1.56 2.04
-1 -7 6 1.78 1.89
0 -7 -6 1.34 1.93
0 -7 6 3.09 1.97
-1 -7 -6 12.02 2.41
-1 -7 -6 13.58 2.46
-2 -7 -6 9.02 2.42
-2 -7 -6 8.39 2.45
-3 -7 -6 13.76 2.55
-4 -7 -6 34.25 3.22
7 -8 -6 1.41 2.27
7 8 -6 1.77 2.38
-7 -8 6 1.55 2.08
6 -8 -6 52.87 3.92
-6 -8 6 59.03 3.93
5 -8 -6 15.44 2.56
-5 -8 6 16.43 2.62
-4 -8 6 63.12 3.99
4 -8 -6 79.94 4.22
3 -8 -6 133.07 5.44
-3 -8 6 116.45 5.35
2 -8 -6 154.21 6.02
-2 -8 6 153.23 6.07
1 -8 -6 129.04 5.4
-1 -8 6 125.62 5.34
0 -8 -6 114.1 4.99
0 -8 6 108.09 4.86
-1 -8 -6 95.8 4.84
-2 -8 -6 22.15 2.81
-3 -8 -6 65.42 4.15
-4 -8 -6 15.91 2.82
-6 -9 6 59.22 4
6 -9 -6 63.8 4.11
6 9 -6 64.83 4.13
5 -9 -6 3.67 2.22
-5 -9 6 5.03 2.4
4 -9 -6 0.62 1.98
-4 -9 6 0.23 2.1
3 -9 -6 3.64 2.05
-3 -9 6 2.44 2.18
-2 -9 6 1.3 2.1
-1 -9 6 -1.05 2.07
0 -9 6 7.09 2.13
-1 -9 -6 6.56 2.27
-2 -9 -6 42.64 3.54
-3 -9 -6 9.58 2.49
5 10 -6 43.09 3.52
-5 -10 6 43.23 3.57
-4 -10 6 13.86 2.7
-3 -10 6 4.33 2.27
-2 -10 6 49.87 3.57
-1 -10 6 3.04 2.14
0 -10 -6 12.55 2.55
0 -10 6 15.24 2.45
-1 -10 -6 84.27 4.63
-2 -10 -6 29.33 3.22
4 11 -6 35.3 3.29
-3 -11 6 12.86 2.69
-2 -11 6 6.84 2.38
-1 -11 6 -0.22 2.16
0 -11 -6 9.11 2.67
7 0 -7 -1.35 2.2
-7 0 7 -1.81 2.14
6 0 -7 -0.22 2.2
5 0 -7 4.52 2.3
4 0 -7 -0.64 1.98
3 0 -7 1.06 2.16
2 0 -7 0.42 2.05
1 0 -7 1.68 2.14
0 0 -7 -1.49 2.13
-1 0 -7 1.3 2.2
-2 0 -7 -1.12 2.11
-3 0 -7 0.23 2.39
7 -1 -7 32.9 3.24
-7 1 7 38.91 3.42
-7 -1 7 32.87 3.12
6 1 -7 15.45 2.51
6 -1 -7 17.1 2.79
-6 -1 7 16.48 2.56
-6 -1 7 15.48 2.62
5 1 -7 34.57 3.12
5 -1 -7 29.42 3.11
-5 -1 7 30.54 3.05
-4 -1 7 61.07 3.93
4 1 -7 68.76 4.04
4 -1 -7 72.86 4.05
3 1 -7 9.91 2.45
3 -1 -7 6.89 2.4
-3 -1 7 8.6 2.33
2 1 -7 5.54 2.14
2 -1 -7 2.99 2.13
1 1 -7 1.86 2.14
1 -1 -7 7 2.33
0 1 -7 6.32 2.29
0 -1 -7 1.72 2.13
-1 1 -7 -0.43 2.15
-1 -1 -7 3.08 2.33
-2 1 -7 34.56 3.35
-2 -1 -7 38.09 3.37
-3 1 -7 2.1 2.57
-3 -1 -7 3.28 2.55
7 -2 -7 48.58 3.8
-7 -2 7 55.9 3.76
6 -2 -7 19.7 2.91
-6 -2 7 17.3 2.63
-5 -2 7 252.01 8.37
5 -2 -7 251.95 8.46
-4 -2 7 60.53 3.82
4 2 -7 56.21 3.7
4 -2 -7 55.36 3.84
-3 -2 7 115.62 5.17
3 2 -7 106.16 4.98
3 -2 -7 110.92 5.14
2 2 -7 24.84 2.7
2 -2 -7 35.14 3.22
-2 -2 7 30.22 2.97
-1 -2 7 167.44 6.36
1 2 -7 164.37 6.22
1 -2 -7 163.91 6.39
0 2 -7 173.84 6.41
0 -2 -7 156.47 6.36
-1 2 -7 68.95 4.08
-1 -2 -7 59.57 3.95
-2 2 -7 210.79 7.61
-2 -2 -7 213.7 7.69
-3 2 -7 73.09 4.42
-3 -2 -7 69.16 4.37
6 -3 -7 -0.23 2.26
-6 -3 7 0.22 2.09
-5 -3 7 70.41 4.18
5 -3 -7 63.73 4.1
4 -3 -7 47.04 3.63
-4 -3 7 59.44 3.81
3 -3 -7 1.11 2.14
-3 -3 7 2.43 2.09
2 3 -7 20.93 2.63
2 -3 -7 20.63 2.69
-2 -3 7 18.27 2.53
1 3 -7 13.7 2.45
1 -3 -7 13.91 2.56
-1 -3 7 11.93 2.35
0 3 -7 16.25 2.58
0 -3 -7 13.59 2.7
0 -3 7 14.31 2.4
-1 3 -7 1.67 2.06
-1 -3 -7 3.8 2.46
-2 3 -7 13.14 2.55
-2 -3 -7 13.36 2.75
-3 3 -7 2.29 2.36
-3 -3 -7 2.34 2.39
6 -4 -7 -0.47 2.15
-6 -4 7 1.36 2.18
5 -4 -7 2.31 2.27
-5 -4 7 2.05 2.1
4 -4 -7 28.11 3.03
-4 -4 7 26.95 2.95
3 -4 -7 4.28 2.27
-3 -4 7 0.9 2.12
2 -4 -7 0.22 2.24
-2 -4 7 0.22 2.01
-1 -4 7 61.25 3.89
1 -4 -7 63.95 4
0 -4 -7 2.21 2.19
0 -4 7 1.47 1.99
-1 -4 -7 4.03 2.38
-2 4 -7 2.16 2.3
-2 -4 -7 2.95 2.37
-3 4 -7 0.45 2.31
-3 -4 -7 -0.23 2.38
-6 -5 7 55.13 3.89
5 -5 -7 10.04 2.69
-5 -5 7 11.82 2.62
4 -5 -7 29.78 3.21
-4 -5 7 33.39 3.19
3 -5 -7 30.92 3.1
-3 -5 7 21.38 2.81
2 -5 -7 -2.9 2.21
-2 -5 7 0.22 2.1
1 -5 -7 2.21 2.15
-1 -5 7 -1.31 2.01
0 -5 -7 1.11 2.26
0 -5 7 2.76 2.09
-1 -5 -7 12.77 2.71
-2 -5 -7 18.99 2.98
-5 -6 7 95.09 5
5 -6 -7 101.66 5.11
-4 -6 7 79.61 4.45
4 -6 -7 69.06 4.23
3 -6 -7 53.13 3.89
-3 -6 7 53.15 3.83
2 -6 -7 29.64 3.18
-2 -6 7 30 3.16
-1 -6 7 146.75 5.97
1 -6 -7 139.27 5.91
0 -6 7 79.16 4.3
0 -6 -7 74.96 4.38
-1 -6 -7 60.59 3.97
-1 -6 -7 56.1 3.92
-2 -6 -7 167.3 6.62
4 -7 -7 9.05 2.49
-4 -7 7 12.38 2.68
3 -7 -7 1.15 2.2
-3 -7 7 4.46 2.33
2 -7 -7 7.65 2.33
-2 -7 7 6.46 2.4
1 -7 -7 8.62 2.35
-1 -7 7 8.11 2.4
0 -7 -7 8.62 2.43
0 -7 7 5.68 2.28
-1 -7 -7 12.67 2.72
-1 -7 -7 10.98 2.5
3 -8 -7 22.2 2.96
2 -8 -7 6.29 2.37
-2 -8 7 11.5 2.52
-1 -8 7 70.8 4.24
1 -8 -7 63.81 4.06
2 2 -8 5.65 2.48
