#------------------------------------------------------------------------------
#$Date: 2020-02-27 02:20:06 +0200 (Thu, 27 Feb 2020) $
#$Revision: 248465 $
#$URL: file:///home/coder/svn-repositories/cod/cif/4/03/79/4037961.cif $
#------------------------------------------------------------------------------
#
# This file is available in the Crystallography Open Database (COD),
# http://www.crystallography.net/
#
# All data on this site have been placed in the public domain by the
# contributors.
#
data_4037961
loop_
_publ_author_name
'K\"ollmann, Christoph'
'Sake, Svenja M.'
'Jones, Peter G.'
'Pietschmann, Thomas'
'Werz, Daniel B.'
_publ_section_title
;
 Protecting-Group-Mediated Diastereoselective Synthesis of C4'-Methylated
 Uridine Analogs and their Activity against the Human Respiratory
 Syncytial Virus.
;
_journal_name_full               'The Journal of organic chemistry'
_journal_paper_doi               10.1021/acs.joc.9b03425
_journal_year                    2020
_chemical_absolute_configuration ad
_chemical_formula_sum            'C10 H14 N2 O6'
_chemical_formula_weight         258.23
_space_group_crystal_system      monoclinic
_space_group_IT_number           4
_space_group_name_Hall           'P 2yb'
_space_group_name_H-M_alt        'P 1 21 1'
_atom_sites_solution_hydrogens   mixed
_audit_creation_method           SHELXL-2017/1
_cell_angle_alpha                90
_cell_angle_beta                 95.1416(16)
_cell_angle_gamma                90
_cell_formula_units_Z            2
_cell_length_a                   8.35326(14)
_cell_length_b                   5.76025(11)
_cell_length_c                   11.5435(2)
_cell_measurement_reflns_used    19394
_cell_measurement_temperature    100(2)
_cell_measurement_theta_max      76.9970
_cell_measurement_theta_min      3.8620
_cell_volume                     553.202(17)
_computing_cell_refinement       'CrysAlisPro 1.171.40.61a (Rigaku OD, 2019)'
_computing_data_collection       'CrysAlisPro 1.171.40.61a (Rigaku OD, 2019)'
_computing_data_reduction        'CrysAlisPro 1.171.40.61a (Rigaku OD, 2019)'
_computing_molecular_graphics    'Siemens XP'
_computing_publication_material  SHELXL-2017
_computing_structure_refinement  'SHELXL-2017/1 (Sheldrick, 2017)'
_computing_structure_solution    SHELXT
_diffrn_ambient_temperature      100(2)
_diffrn_detector_area_resol_mean 10.0000
_diffrn_measured_fraction_theta_full 0.991
_diffrn_measured_fraction_theta_max 0.987
_diffrn_measurement_device_type
'XtaLAB Synergy, Single source at home/near, HyP'
_diffrn_measurement_method       '\w scans'
_diffrn_radiation_type           CuK\a
_diffrn_radiation_wavelength     1.54184
_diffrn_reflns_av_R_equivalents  0.0310
_diffrn_reflns_av_unetI/netI     0.0129
_diffrn_reflns_Laue_measured_fraction_full 0.991
_diffrn_reflns_Laue_measured_fraction_max 0.987
_diffrn_reflns_limit_h_max       10
_diffrn_reflns_limit_h_min       -10
_diffrn_reflns_limit_k_max       7
_diffrn_reflns_limit_k_min       -7
_diffrn_reflns_limit_l_max       14
_diffrn_reflns_limit_l_min       -14
_diffrn_reflns_number            22406
_diffrn_reflns_point_group_measured_fraction_full 0.979
_diffrn_reflns_point_group_measured_fraction_max 0.973
_diffrn_reflns_theta_full        77.000
_diffrn_reflns_theta_max         77.573
_diffrn_reflns_theta_min         3.845
_diffrn_source                   'micro-focus sealed X-ray tube'
_exptl_absorpt_coefficient_mu    1.113
_exptl_absorpt_correction_T_max  1.00000
_exptl_absorpt_correction_T_min  0.89496
_exptl_absorpt_correction_type   multi-scan
_exptl_absorpt_process_details
;
CrysAlisPro 1.171.40.61a (Rigaku Oxford Diffraction, 2019)
Empirical absorption correction using spherical harmonics,
 implemented in SCALE3 ABSPACK scaling algorithm.
;
_exptl_crystal_colour            colourless
_exptl_crystal_density_diffrn    1.550
_exptl_crystal_description       block
_exptl_crystal_F_000             272
_exptl_crystal_size_max          0.12
_exptl_crystal_size_mid          0.10
_exptl_crystal_size_min          0.08
_refine_diff_density_max         0.186
_refine_diff_density_min         -0.159
_refine_diff_density_rms         0.032
_refine_ls_abs_structure_details
;
 Flack x determined using 1000 quotients [(I+)-(I-)]/[(I+)+(I-)]
 (Parsons, Flack and Wagner, Acta Cryst. B69 (2013) 249-259).
;
_refine_ls_abs_structure_Flack   -0.03(5)
_refine_ls_extinction_coef       0.0060(12)
_refine_ls_extinction_expression Fc^*^=kFc[1+0.001xFc^2^\l^3^/sin(2\q)]^-1/4^
_refine_ls_extinction_method     'SHELXL-2017/1 (Sheldrick 2017)'
_refine_ls_goodness_of_fit_ref   1.065
_refine_ls_hydrogen_treatment    mixed
_refine_ls_matrix_type           full
_refine_ls_number_parameters     181
_refine_ls_number_reflns         2297
_refine_ls_number_restraints     1
_refine_ls_restrained_S_all      1.065
_refine_ls_R_factor_all          0.0222
_refine_ls_R_factor_gt           0.0221
_refine_ls_shift/su_max          0.000
_refine_ls_shift/su_mean         0.000
_refine_ls_structure_factor_coef Fsqd
_refine_ls_weighting_details
'w=1/[\s^2^(Fo^2^)+(0.0311P)^2^+0.1232P] where P=(Fo^2^+2Fc^2^)/3'
_refine_ls_weighting_scheme      calc
_refine_ls_wR_factor_gt          0.0578
_refine_ls_wR_factor_ref         0.0579
_reflns_Friedel_coverage         0.789
_reflns_Friedel_fraction_full    0.965
_reflns_Friedel_fraction_max     0.957
_reflns_number_gt                2280
_reflns_number_total             2297
_reflns_threshold_expression     'I > 2\s(I)'
_cod_data_source_file            jo9b03425_si_002.cif
_cod_data_source_block           knoell
_cod_original_cell_volume        553.203(17)
_cod_original_sg_symbol_H-M      'P 21'
_cod_database_code               4037961
_shelx_shelxl_version_number     2017/1
_shelx_space_group_comment
;
The symmetry employed for this shelxl refinement is uniquely defined
by the following loop, which should always be used as a source of
symmetry information in preference to the above space-group names.
They are only intended as comments.
;
_shelx_estimated_absorpt_t_min   0.878
_shelx_estimated_absorpt_t_max   0.916
_shelx_res_file
;
TITL knoell in P2(1)
    shelx.res
    created by SHELXL-2017/1 at 11:47:00 on 22-Nov-2019
CELL 1.54184   8.353263   5.760246  11.543532  90.0000  95.1416  90.0000
ZERR    2.00   0.00014   0.00011  0.0002   0.0000   0.0016   0.0000
LATT  -1
SYMM -x, y+1/2,-z
SFAC C H N O
UNIT 20.00 28.00 4.00 12.00
TEMP -173
SIZE 0.12 0.1 0.08
L.S. 4
PLAN 10
CONF
ACTA 154

REM Instructions for potential hydrogen bonds
EQIV $1 -x+1, y-1/2, -z+1
EQIV $2 -x+1, y-1/2, -z
EQIV $3 x, y-1, z
EQIV $4 -x, y+1/2, -z
HTAB O2 O3_$1
HTAB O3 O5_$1
HTAB O4 O1_$3
HTAB O4 O6_$2
HTAB N2 O6_$4
HTAB C7 O4

WGHT    0.031100    0.123200
EXTI    0.006000
FVAR      14.55643
C1    1    0.556853    0.602226    0.295131    11.00000    0.01269    0.01574 =
         0.01254   -0.00022   -0.00235   -0.00031
AFIX  13
H1    2    0.544351    0.755499    0.333989    11.00000   -1.20000
AFIX   0
C2    1    0.551327    0.407244    0.383887    11.00000    0.01284    0.01433 =
         0.01385   -0.00029   -0.00004    0.00021
AFIX  13
H2    2    0.523323    0.257513    0.343152    11.00000   -1.20000
AFIX   0
C3    1    0.726263    0.399666    0.437667    11.00000    0.01415    0.01393 =
         0.01369   -0.00014   -0.00169    0.00049
AFIX  13
H3    2    0.754756    0.240172    0.466875    11.00000   -1.20000
AFIX   0
C4    1    0.822803    0.462505    0.334324    11.00000    0.01267    0.01619 =
         0.01466    0.00226   -0.00192    0.00097
C5    1    0.877285    0.247396    0.272183    11.00000    0.01543    0.01936 =
         0.02137   -0.00057    0.00201    0.00123
AFIX  23
H5A   2    0.920605    0.292463    0.198346    11.00000   -1.20000
H5B   2    0.963422    0.167501    0.321492    11.00000   -1.20000
AFIX   0
C6    1    0.966681    0.619164    0.365290    11.00000    0.01492    0.02301 =
         0.01935    0.00148   -0.00122   -0.00344
AFIX 137
H6A   2    1.012021    0.669016    0.293929    11.00000   -1.50000
H6B   2    1.048328    0.533860    0.414547    11.00000   -1.50000
H6C   2    0.932474    0.755639    0.407364    11.00000   -1.50000
AFIX   0
C7    1    0.438852    0.388160    0.124340    11.00000    0.01933    0.01703 =
         0.01671    0.00042    0.00021   -0.00017
AFIX  43
H7    2    0.526881    0.283813    0.136083    11.00000   -1.20000
AFIX   0
C8    1    0.324201    0.345640    0.037393    11.00000    0.02484    0.01819 =
         0.01494   -0.00176   -0.00209   -0.00204
AFIX  43
H8    2    0.333015    0.215818   -0.012393    11.00000   -1.20000
AFIX   0
C9    1    0.188440    0.498746    0.020762    11.00000    0.01894    0.02339 =
         0.01334    0.00338   -0.00094   -0.00577
C10   1    0.309144    0.735986    0.184833    11.00000    0.01467    0.01877 =
         0.01241    0.00337    0.00057    0.00058
O1    4    0.709904    0.589543    0.251572    11.00000    0.01313    0.01789 =
         0.01463    0.00375   -0.00026    0.00043
O2    4    0.436852    0.458135    0.462688    11.00000    0.01510    0.01712 =
         0.01711    0.00035    0.00325   -0.00005
H02   2    0.383066    0.328852    0.470837    11.00000    0.03266
O3    4    0.753401    0.566745    0.529218    11.00000    0.01705    0.02001 =
         0.01213   -0.00111   -0.00146   -0.00121
H03   2    0.725560    0.494568    0.591700    11.00000    0.03456
O4    4    0.743344    0.095484    0.248975    11.00000    0.01926    0.01556 =
         0.02669   -0.00426    0.00310    0.00018
H04   2    0.780469   -0.031138    0.229472    11.00000    0.03455
O5    4    0.298590    0.904625    0.247791    11.00000    0.01940    0.02009 =
         0.01555   -0.00119   -0.00208    0.00446
O6    4    0.072472    0.475309   -0.052050    11.00000    0.02143    0.03104 =
         0.01752    0.00410   -0.00781   -0.00818
N1    3    0.433350    0.577144    0.196880    11.00000    0.01406    0.01673 =
         0.01300    0.00011   -0.00343    0.00007
N2    3    0.194081    0.688638    0.094533    11.00000    0.01371    0.02299 =
         0.01505    0.00059   -0.00305    0.00227
H01   2    0.113140    0.788276    0.084197    11.00000    0.02982

HKLF 4




REM  knoell in P2(1)
REM R1 =  0.0221 for    2280 Fo > 4sig(Fo)  and  0.0222 for all    2297 data
REM    181 parameters refined using      1 restraints

END

WGHT      0.0311      0.1221

REM Highest difference peak  0.186,  deepest hole -0.159,  1-sigma level  0.032
Q1    1   0.5513  0.4880  0.3321  11.00000  0.05    0.19
Q2    1   0.8585  0.3446  0.3131  11.00000  0.05    0.18
Q3    1   0.6399  0.3988  0.4129  11.00000  0.05    0.18
Q4    1   0.8938  0.5396  0.3453  11.00000  0.05    0.16
Q5    1   0.7877  0.4297  0.3864  11.00000  0.05    0.16
Q6    1   0.4865  0.5820  0.2437  11.00000  0.05    0.15
Q7    1   0.2596  0.4091  0.0370  11.00000  0.05    0.15
Q8    1   0.3824  0.6763  0.1808  11.00000  0.05    0.12
Q9    1   0.6294  0.5931  0.2761  11.00000  0.05    0.12
Q10   1  -0.0050  0.5349 -0.0227  11.00000  0.05    0.11
;
_shelx_res_checksum              48787
_shelx_hkl_file
;
   0   0  -1 15121.2 397.699  36
   0   0   1 14514.5 447.084  35
   0   0   1 14337.7 419.082   2
   0   0  -2 43722.9 1242.02  32
   0   0   2 45624.9 1271.37  35
   0   0   2 44678.3 1220.45  37
   0   0  -2 43675.0 1150.35  36
   0   0   2 43172.7 1187.49  89
   0   0  -2 46292.0 1261.12  42
   0   0  -2 43073.6 1215.36  40
   0   0   2 44309.8 1185.87  38
   0   0   2 44875.0 1208.25   2
   0   0   3 4663.61 327.190  28
   0   0  -3 4781.09 329.774  32
   0   0   3 4333.93 323.575  35
   0   0   3 5361.55 324.596  37
   0   0  -3 4622.04 327.539  29
   0   0   3 4825.25 285.151  89
   0   0  -3 5481.89 321.509  40
   0   0  -3 4820.21 330.293  42
   0   0   3 5056.60 285.728  38
   0   0   3 4836.58 296.890   2
   0   0   4 378203. 9081.75  37
   0   0   4 369380. 9143.01  28
   0   0  -4 362807. 9121.13  32
   0   0   4 373347. 9192.25  35
   0   0  -4 364354. 9159.22  29
   0   0   4 377687. 9006.90  89
   0   0   4 371614. 9134.53  94
   0   0  -4 382811. 9163.52  42
   0   0  -4 368658. 9076.82  40
   0   0   4 378662. 8983.27  38
   0   0   4 389760. 9062.92   2
   0   0  -5 3724.58 386.653  42
   0   0  -5 2696.84 150.359  46
   0   0   5 3321.10 287.899  38
   0   0   5 3000.51 321.437  37
   0   0  -5 2650.13 302.609  40
   0   0   5 3125.16 299.037  89
   0   0   5 2885.44 333.093  94
   0   0  -5 3064.30 360.966  29
   0   0  -5 3555.70 382.353  34
   0   0   5 2221.55 304.482  28
   0   0  -5 3141.18 347.426  32
   0   0   5 3103.32 365.186  35
   0   0   5 3076.61 181.667  56
   0   0   5 3067.51 315.681   2
   0   0  -6 65533.9 2177.59  40
   0   0  -6 66937.9 2135.19  41
   0   0   6 65996.6 2173.88  37
   0   0  -6 67665.0 2310.87  42
   0   0   6 65461.6 1993.48  38
   0   0   6 69142.9 2288.51  94
   0   0   6 69156.9 2313.57  28
   0   0  -6 66834.7 2308.87  34
   0   0  -6 66950.3 2268.96  32
   0   0  -6 66234.0 2308.75  29
   0   0   6 68381.9 2345.72  35
   0   0   6 62973.4 1926.32  87
   0   0   6 67520.6 2090.35  89
   0   0  -6 66929.3 1784.85  74
   0   0   6 65370.3 1746.27  56
   0   0   6 70263.1 2175.61   2
   0   0   7 7297.51 592.383  37
   0   0   7 6088.13 453.272  38
   0   0  -7 6210.41 568.433  40
   0   0  -7 6979.86 650.611  42
   0   0  -7 8266.93 603.025  41
   0   0   7 7260.47 652.769  94
   0   0  -7 7323.39 678.706  29
   0   0  -7 6837.60 652.754  34
   0   0   7 6739.67 642.531  28
   0   0  -7 7163.14 642.219  32
   0   0  -7 7307.86 383.686  74
   0   0   7 6169.50 428.425  87
   0   0   7 7231.80 554.282  89
   0   0   7 6853.10 314.461  59
   0   0   7 7169.95 579.278   2
   0   0   8 9950.92 755.766   2
   0   0   8 10490.4 515.834 106
   0   0   8 11048.0 508.536  99
   0   0   8 11881.2 915.908  94
   0   0   8 10853.4 507.139  98
   0   0   8 10363.8 865.723  28
   0   0  -8 11551.2 900.582  32
   0   0  -8 10622.5 908.130  29
   0   0  -8 10800.3 904.858  34
   0   0   8 10010.9 701.805  89
   0   0  -8 10969.7 526.934  74
   0   0  -8 9751.78 481.716  78
   0   0  -8 10314.5 508.958  81
   0   0  -8 10746.2 517.812  77
   0   0   8 10696.3 476.318  64
   0   0   8 10365.9 503.849  66
   0   0   8 10127.0 754.553  37
   0   0  -8 9811.62 719.846  41
   0   0  -8 12551.3 865.384  40
   0   0  -8 9595.30 858.125  42
   0   0   9 15.3159 111.280 106
   0   0   9 13.9615 95.9532  99
   0   0   9-51.3393 181.528  94
   0   0   9-14.1729 98.8279  98
   0   0  -9 53.4145 178.064  34
   0   0  -9-50.5094 178.594  32
   0   0  -9 54.2951 181.000  29
   0   0  -9-15.4301 99.6131  74
   0   0  -9 118.661 121.121  81
   0   0  -9 61.1427 109.589  77
   0   0  -9 78.7188 90.1690  78
   0   0   9 70.0595 77.8555  64
   0   0   9 115.895 113.261  66
   0   0  -9 270.854 221.170  42
   0   0  -9 84.6985 157.841  40
   0   0  10 41593.6 1389.19 106
   0   0  10 44532.4 2144.54  94
   0   0  10 43910.4 1362.80  99
   0   0  10 40833.6 1354.13  98
   0   0 -10 46705.9 2217.35  29
   0   0 -10 41749.3 2062.46  32
   0   0 -10 40986.4 2088.23  34
   0   0 -10 39961.8 1249.87  73
   0   0 -10 40671.6 1361.82  76
   0   0 -10 42724.4 1377.15  81
   0   0 -10 40973.3 1378.32  77
   0   0 -10 36888.0 1781.32  71
   0   0 -10 40242.3 1382.66  70
   0   0  10 42122.5 1368.40  66
   0   0 -10 41054.5 2107.37  42
   0   0  11 19751.8 1388.18  94
   0   0  11 20241.9 812.462  99
   0   0  11 22119.6 851.622  98
   0   0 -11 20946.0 1387.53  32
   0   0 -11 22739.3 1488.51  29
   0   0 -11 17879.0 1343.44  34
   0   0 -11 21149.1 850.257  76
   0   0 -11 20470.8 841.770  81
   0   0 -11 21413.9 865.169  77
   0   0 -11 19889.7 776.988  72
   0   0 -11 20446.8 1412.56  86
   0   0 -11 20767.3 839.049  84
   0   0  11 21160.2 873.131 106
   0   0 -11 19440.4 1417.66  42
   0   0 -12 6978.39 408.312 110
   0   0  12 7908.28 459.716 106
   0   0  12 7972.60 420.113  99
   0   0  12 6279.78 730.710  94
   0   0  12 7270.83 414.279  98
   0   0 -12 6909.40 732.016  32
   0   0 -12 7077.14 791.125  29
   0   0 -12 7162.61 776.219  86
   0   0 -12 7678.85 433.865  76
   0   0 -12 7853.13 436.064  84
   0   0 -12 6490.38 362.863  72
   0   0  12 7246.88 395.194   7
   0   0 -13 3889.36 264.480  84
   0   0 -13 3856.29 266.598  76
   0   0 -13 3745.25 254.712 110
   0   0  13 3968.83 290.502 106
   0   0  13 3633.53 233.758  99
   0   0  13 3456.00 244.817  98
   0   0 -14 45028.3 1222.92  27
   0   0 -14 41480.9 1135.19  84
   0   0  14 44029.3 1194.85 106
   0  -1   0 8.07346 76.1237  46
   0   1   0-8.27014 76.7501  45
   0   1   0 40.2876 76.5645  46
   0   1   0 11.4413 54.7760   1
   0   1   0 16.6573 73.4578  18
   0  -1   1 265575. 6609.99  39
   0   1  -1 282301. 6634.96  42
   0   1  -1 272945. 6676.63  40
   0   1  -1 282347. 6667.16  45
   0   1   1 278425. 6663.04  45
   0   1  -1 279963. 6648.82  46
   0  -1   1 281037. 6687.92  35
   0  -1   1 285186. 6625.49  31
   0  -1   1 269417. 6577.70  33
   0  -1  -1 280107. 6535.30  87
   0   1   1 275653. 6590.25   1
   0   1   1 290552. 6675.53  18
   0   1  -1 290469. 6673.67  18
   0   1  -2 141716. 3456.80  46
   0   1  -2 147784. 3570.00  42
   0  -1  -2 138706. 3378.89  40
   0  -1  -2 145172. 3507.38  46
   0  -1  -2 143815. 3478.65  42
   0   1   2 140667. 3496.30  38
   0  -1   2 136752. 3425.57  39
   0   1   2 142673. 3470.27  45
   0  -1  -2 140838. 3441.78  44
   0   1   2 140956. 3483.98  37
   0   1  -2 138418. 3469.60  45
   0  -1   2 141216. 3569.13  89
   0   1  -2 140132. 3563.46  32
   0   1  -2 137863. 3445.74  34
   0  -1   2 139854. 3511.59  31
   0  -1   2 142816. 3438.19  33
   0  -1   2 142564. 3572.37  35
   0  -1  -2 145509. 3568.39  34
   0   1   2 138420. 3571.23   2
   0   1   2 137473. 3465.78  18
   0   1   2 137693. 3282.55  19
   0   1  -2 138092. 3461.31  18
   0  -1   2 131419. 3524.60  28
   0   1  -3 146783. 3853.74  40
   0  -1  -3 152921. 3693.44  46
   0  -1  -3 147949. 3621.22  40
   0   1  -3 150730. 3831.20  42
   0   1   3 153851. 3721.30  37
   0  -1   3 146881. 3634.46  39
   0   1  -3 142639. 3601.46  46
   0   1   3 150156. 3695.52  38
   0  -1  -3 150102. 3757.27  42
   0   1   3 147499. 3778.18  94
   0  -1   3 146035. 3781.25  31
   0  -1  -3 146005. 3766.17  29
   0  -1  -3 148563. 3707.15  32
   0  -1   3 150811. 3840.75  35
   0   1  -3 145253. 3720.98  34
   0  -1  -3 149973. 3843.69  34
   0   1  -3 146856. 3824.58  29
   0   1   3 139598. 3516.51  89
   0  -1   3 141996. 3781.43  28
   0   1   3 143904. 3613.73  18
   0   1  -3 148340. 3615.11  18
   0   1   3 143462. 3516.83  19
   0   1   3 151688. 3837.94   2
   0   1   4 12740.6 672.326   2
   0  -1   4 12809.2 585.577   2
   0   1   4 13476.0 608.844  37
   0  -1  -4 13690.8 560.680  46
   0   1  -4 12721.4 687.098  40
   0  -1  -4 12820.4 555.956  40
   0  -1  -4 14040.2 668.313  42
   0   1  -4 12729.8 480.882  46
   0   1   4 13094.1 575.330  38
   0   1   4 12419.8 665.320  94
   0  -1   4 12382.7 621.041  94
   0  -1   4 12275.5 655.484  89
   0   1  -4 12602.5 629.484  34
   0  -1  -4 12611.3 658.732  29
   0   1  -4 12950.4 689.169  29
   0  -1  -4 12630.3 613.241  32
   0  -1  -4 13766.7 722.240  34
   0  -1   4 13121.9 692.621  35
   0   1   4 12189.4 467.795  89
   0   1  -4 12808.7 442.748  70
   0  -1   4 12381.2 657.327  28
   0   1   4 12301.9 468.513  18
   0   1  -4 12621.5 468.818  18
   0  -1   5 87424.8 2479.83   2
   0   1   5 96273.6 2693.48   2
   0   1  -5 85836.2 2701.16  40
   0  -1  -5 84703.7 2336.50  46
   0  -1  -5 89163.2 2651.54  42
   0   1   5 90885.8 2516.85  37
   0   1  -5 83077.1 2182.75  46
   0   1   5 84456.3 2403.87  38
   0  -1  -5 87069.1 2443.80  40
   0  -1   5 94759.8 2600.24  38
   0  -1   5 88814.7 2648.00  89
   0  -1   5 86628.1 2586.98  94
   0   1   5 89120.8 2672.68  94
   0  -1   5 92093.9 2731.14  35
   0   1  -5 93135.1 2635.31  34
   0   1  -5 91627.8 2726.55  29
   0  -1   5 99651.7 2773.16  37
   0  -1  -5 89328.6 2672.59  29
   0  -1  -5 89234.4 2600.59  32
   0   1  -5 91428.7 2731.42  32
   0  -1  -5 93114.8 2768.18  34
   0   1   5 83579.9 2273.11  89
   0  -1  -5 87281.5 2197.56  69
   0  -1   5 86021.8 2217.23  58
   0   1  -5 86355.6 2491.11  71
   0   1  -5 88437.4 2219.09  70
   0  -1   5 86358.8 2213.35  55
   0  -1   5 90363.5 2669.83  28
   0  -1  -6 34567.1 1280.09  40
   0   1   6 33844.4 1304.56  37
   0   1   6 32572.3 1185.23  38
   0  -1  -6 33892.7 1446.66  42
   0  -1   6 35959.1 1360.39  38
   0   1  -6 35769.5 1506.53  40
   0  -1   6 33027.9 1412.71  89
   0  -1   6 34632.5 1427.64  94
   0   1   6 34875.7 1483.94  94
   0  -1   6 35836.0 1520.02  35
   0  -1  -6 34037.3 1529.02  34
   0  -1  -6 34674.3 1487.01  29
   0  -1   6 34913.4 1462.53  28
   0   1  -6 34607.8 1528.28  32
   0   1  -6 35147.5 1436.42  34
   0  -1   6 35854.9 1502.89  37
   0   1  -6 34535.2 1506.04  29
   0  -1  -6 34799.4 1406.78  32
   0  -1   6 35339.5 1382.37  87
   0   1  -6 34490.2 996.910  72
   0   1   6 31497.1 1088.60  89
   0  -1   6 33832.7 1043.15  58
   0   1  -6 33178.4 1310.40  71
   0  -1   6 35837.2 1046.16  56
   0  -1  -6 33766.2 1014.89  69
   0   1  -6 33865.4 1041.17  70
   0   1   6 35692.3 1465.16   2
   0  -1   6 34992.2 1312.07   2
   0   1   7 23012.1 1206.42   2
   0  -1   7 22848.4 1076.25   2
   0   1   7 23760.3 831.585 106
   0   1   7 22228.7 820.029  98
   0  -1   7 23904.8 1223.57  89
   0  -1   7 24174.5 1246.89  94
   0  -1  -7 27861.8 1413.12  34
   0   1  -7 23293.7 1224.71  34
   0  -1   7 25468.6 1297.01  37
   0  -1  -7 23114.9 1283.18  29
   0   1  -7 24846.8 1348.16  32
   0  -1   7 23173.9 1236.99  28
   0  -1  -7 24455.7 1210.95  32
   0  -1   7 25326.9 1331.89  35
   0  -1  -7 24648.7 807.519  75
   0   1  -7 24420.0 840.710  77
   0  -1   7 23472.8 1137.75  87
   0   1  -7 24050.5 824.896  76
   0   1  -7 23590.5 835.579  81
   0   1  -7 23030.5 749.557  73
   0  -1  -7 23753.4 835.458  74
   0   1  -7 22469.7 768.166  72
   0  -1   7 23025.9 816.194  56
   0   1  -7 23603.8 1111.29  71
   0  -1   7 24264.0 838.631  60
   0  -1   7 24012.8 842.507  58
   0  -1   7 23729.8 797.816  59
   0   1   7 22861.5 1065.97  37
   0  -1   7 22614.2 1078.12  38
   0  -1  -7 23002.8 1256.72  41
   0  -1  -7 23694.7 1079.04  40
   0  -1  -7 23447.1 1245.22  42
   0   1  -7 24789.1 1302.60  40
   0   1   8 4319.01 527.251   2
   0  -1   8 4379.54 311.537 106
   0   1   8 4103.24 319.203 106
   0  -1   8 4113.16 317.004  99
   0  -1   8 4380.40 565.410  94
   0   1   8 4226.89 285.639  99
   0  -1   8 3799.39 275.334  98
   0   1   8 4897.73 340.022  98
   0   1  -8 4881.41 607.745  32
   0  -1  -8 3534.56 489.113  32
   0  -1   8 4467.44 562.826  28
   0  -1  -8 3524.97 531.821  29
   0   1  -8 4216.05 546.720  34
   0  -1   8 3772.27 548.248  35
   0   1  -8 4233.64 263.669  73
   0   1  -8 3679.35 302.976  81
   0   1  -8 4159.78 306.171  84
   0  -1  -8 4273.43 295.466  75
   0   1  -8 3955.35 574.023  86
   0   1  -8 5112.32 342.455  77
   0   1  -8 4537.08 317.864  76
   0  -1   8 4110.94 520.664  89
   0   1  -8 4634.07 293.857  72
   0  -1  -8 3792.78 290.983  78
   0  -1   8 3445.29 426.205  87
   0  -1  -8 3974.11 305.592  74
   0   1   8 3829.47 278.902  66
   0  -1   8 4361.47 290.665  59
   0  -1   8 4543.57 314.465  56
   0   1  -8 3939.55 452.474  71
   0  -1   8 4309.41 321.461  60
   0  -1  -8 4200.93 553.215  42
   0  -1  -8 3763.27 526.705  41
   0   1   8 4145.51 311.928  49
   0   1  -8 3670.45 537.324  40
   0  -1   8 3797.74 520.075  37
   0   1   9 38622.7 1809.93   2
   0   1   9 37327.5 1221.87   6
   0  -1   9 40639.3 1286.49 106
   0   1   9 39559.6 1308.33  98
   0   1   9 40047.6 1220.85  99
   0  -1   9 39008.2 1889.89  94
   0  -1   9 38573.1 1286.06  99
   0  -1   9 36912.1 1205.87  98
   0   1   9 39915.5 1296.52  93
   0  -1  -9 37601.6 1917.82  29
   0   1  -9 38570.3 1873.47  34
   0  -1   9 37416.4 1841.63  28
   0  -1  -9 38593.1 1821.98  32
   0   1  -9 39280.5 1994.36  32
   0   1  -9 40120.3 1992.66  86
   0  -1  -9 39811.6 1292.63  81
   0   1  -9 39002.9 1294.97  81
   0   1  -9 38474.6 1266.63  84
   0  -1  -9 37692.3 1232.31  78
   0  -1   9 37577.3 1770.49  89
   0   1  -9 40451.4 1283.92  76
   0  -1  -9 41741.4 1317.00  74
   0   1  -9 39881.3 1304.96  77
   0   1  -9 38854.7 1207.78  72
   0  -1   9 37792.2 1252.71  64
   0  -1   9 38502.2 1293.31  66
   0   1  -9 34777.3 1582.91  71
   0  -1   9 37595.6 1200.58  59
   0  -1   9 36864.2 1198.78  67
   0  -1  -9 39227.2 1937.33  42
   0  -1   9 35921.2 1768.79  37
   0   1  -9 38572.9 1907.24  40
   0  -1  -9 39729.2 1876.84  41
   0   1 -10 9194.25 506.286  26
   0   1  10 9649.81 494.882   6
   0   1 -10 10865.4 548.467 110
   0  -1  10 9430.60 527.830 106
   0  -1  10 9235.98 905.023  94
   0  -1  10 11000.3 571.208  99
   0   1  10 10156.7 495.621  99
   0  -1  10 10061.5 502.072  98
   0   1  10 11380.0 575.856  93
   0   1  10 11373.7 589.260  98
   0  -1  10 10828.6 932.917  28
   0   1 -10 8145.52 897.388  32
   0  -1 -10 9564.45 877.246  32
   0   1 -10 10463.6 938.851  34
   0  -1 -10 9928.72 959.918  29
   0  -1  10 8956.04 795.289  89
   0   1 -10 10091.3 535.158  84
   0   1 -10 10952.7 569.089  81
   0  -1 -10 10573.7 570.570  77
   0  -1 -10 10304.3 520.293  78
   0  -1 -10 10307.0 548.737  81
   0  -1 -10 10561.4 569.396  74
   0   1 -10 11094.0 1027.49  86
   0   1 -10 9704.60 532.296  76
   0  -1  10 10536.1 565.038  66
   0  -1  10 10389.5 528.915  64
   0  -1  10 9539.57 471.108  67
   0  -1  10 9558.67 468.593  59
   0   1 -10 9782.46 479.704  72
   0   1 -10 9921.09 936.454  40
   0  -1 -10 9428.48 861.640  41
   0  -1 -10 10348.3 969.869  42
   0   1 -10 10365.6 1027.01  42
   0   1  11 25418.4 950.887   7
   0   1 -11 25075.5 926.523 110
   0  -1  11 26092.1 959.612 106
   0   1  11 25657.9 965.620  93
   0   1  11 23570.1 851.203  99
   0  -1  11 25639.4 969.827  93
   0   1  11 24210.2 966.733  98
   0  -1  11 23057.7 1450.28  94
   0  -1  11 26088.5 967.689  99
   0  -1 -11 23626.8 1505.48  29
   0   1 -11 26199.2 1598.00  32
   0   1 -11 25054.8 929.335  84
   0   1 -11 24472.8 927.255  76
   0   1 -11 24511.5 1540.67  86
   0  -1 -11 25177.7 945.003  81
   0  -1 -11 24955.4 966.570  77
   0  -1 -11 25473.9 966.121  74
   0  -1  11 24260.3 897.060  64
   0  -1  11 25147.8 969.243  66
   0   1 -11 23391.0 880.135  26
   0  -1  12 35006.9 1125.02 106
   0   1 -12 31504.5 1066.85 110
   0  -1  12 32511.9 1649.02  94
   0   1  12 33168.8 1121.67  93
   0   1 -12 33997.7 1059.97 100
   0   1  12 34070.2 1145.08  98
   0  -1  12 34601.4 1124.75  99
   0  -1  12 34133.1 1137.54  93
   0   1 -12 32731.7 1741.30  32
   0  -1 -12 32464.9 1697.77  29
   0   1 -12 30447.8 1685.54  86
   0   1 -12 33459.8 1094.57  76
   0   1 -12 32697.4 1083.45  84
   0  -1 -12 32337.8 1069.17  72
   0  -1 -12 32421.3 1118.17  76
   0  -1 -12 33494.2 1106.93  81
   0  -1 -12 35130.6 1146.05  77
   0  -1 -12 36630.5 1806.08  86
   0   1 -12 31934.7 1019.77  26
   0   1  12 33578.9 1096.44   7
   0   1  13 3645.07 236.122   7
   0  -1  13 3432.26 249.299 106
   0  -1 -13 3797.58 251.598 110
   0   1 -13 3734.47 235.279 110
   0  -1 -13 3903.21 262.399  84
   0   1 -13 3386.58 232.345  84
   0  -1 -13 3807.28 261.364  76
   0   1  13 3411.10 256.496  98
   0  -1  13 4020.76 261.419  99
   0  -1  13 3909.77 271.366  93
   0   1  13 3522.05 255.182  93
   0  -1 -13 3822.73 292.530  27
   0   1 -13 3616.79 268.646  27
   0   1  13 3318.07 223.669  48
   0   1  14 6198.15 266.133  98
   0  -1  14 6693.67 292.378  93
   0  -1 -14 6179.13 264.660  84
   0   1 -14 6186.23 269.946  27
   0  -1 -14 6426.02 300.432  27
   0   1 -14 7094.62 298.549 101
   0  -2   0 335847. 8204.46  33
   0  -2   0 337226. 8178.02  31
   0  -2   0 342218. 8193.96  87
   0   2   0 335103. 8294.71  45
   0   2   0 338152. 8297.79  18
   0   2  -1 56125.9 1760.98  46
   0   2  -1 56656.8 1785.17  45
   0  -2   1 58031.4 1731.46  39
   0   2   1 54386.9 1690.26  96
   0   2  -1 57598.4 1665.19  32
   0  -2   1 59245.2 1830.53  35
   0  -2   1 55655.6 1646.78  33
   0  -2   1 54218.3 1659.57  31
   0  -2  -1 57394.1 1622.14  87
   0   2   1 58054.1 1627.72   1
   0   2  -1 59520.6 1804.35  18
   0   2  -2 249855. 6372.56  46
   0  -2  -2 255787. 6197.00  42
   0  -2  -2 256614. 6275.41  44
   0   2  -2 266276. 6484.29  40
   0  -2   2 254082. 6299.71  39
   0  -2  -2 263647. 6453.33  46
   0  -2   2 250120. 6428.75  89
   0  -2   2 270010. 6514.52  35
   0   2  -2 251216. 6363.92  32
   0  -2  -2 249157. 6324.70  34
   0  -2   2 251453. 6224.36  33
   0  -2   2 255487. 6330.05  31
   0   2  -2 253213. 6284.67  29
   0  -2  -2 250240. 6105.66  87
   0   2   2 254554. 6236.28   1
   0   2   2 261515. 6439.45  18
   0   2  -2 266926. 6439.10  18
   0  -2   2 256431. 6467.20  28
   0  -2   3 6326.62 493.165  89
   0   2   3 6357.66 428.266  94
   0   2  -3 6592.74 433.349  46
   0  -2   3 6400.61 389.884  39
   0   2  -3 6990.49 523.419  40
   0  -2  -3 5988.41 385.577  44
   0   2  -3 5635.40 435.985  42
   0  -2  -3 6189.52 390.762  42
   0  -2  -3 5745.92 300.302  40
   0  -2  -3 6351.74 461.145  46
   0  -2  -3 6330.72 357.196  32
   0   2  -3 6024.60 444.343  29
   0  -2   3 6217.13 491.027  35
   0  -2   3 6079.97 367.307  33
   0  -2  -3 6637.63 478.175  34
   0  -2   3 6617.26 449.609  31
   0  -2  -3 5502.01 381.279  29
   0   2  -3 6707.88 490.813  32
   0  -2   3 6395.87 486.590  28
   0   2   3 5943.19 436.884  18
   0   2  -3 6440.77 444.185  18
   0   2   3 6156.61 507.815   2
   0   2   3 5973.06 393.300   1
   0   2   4 141637. 3839.52   2
   0  -2  -4 131576. 3546.81  42
   0   2  -4 129791. 3480.24  46
   0  -2  -4 135264. 3627.33  46
   0  -2   4 125048. 3390.98  39
   0   2  -4 133204. 3720.50  42
   0   2   4 133957. 3637.24  94
   0  -2   4 124301. 3447.60  94
   0  -2   4 137473. 3803.49  89
   0  -2  -4 128111. 3568.09  29
   0  -2   4 132846. 3641.07  31
   0  -2   4 133163. 3766.69  35
   0   2  -4 131545. 3445.51  34
   0   2  -4 127423. 3651.85  29
   0   2  -4 130650. 3752.94  32
   0  -2  -4 126150. 3426.74  32
   0  -2  -4 139855. 3773.27  34
   0  -2   4 131927. 3236.62  56
   0  -2   4 128212. 3191.45  55
   0  -2   4 132711. 3714.15  28
   0   2   4 129920. 3531.29  18
   0   2  -4 128487. 3516.09  18
   0   2   5 14408.2 902.510   2
   0   2  -5 14997.7 903.836  42
   0  -2  -5 15866.0 818.732  42
   0   2  -5 14359.0 670.025  46
   0  -2   5 14600.5 759.062  94
   0   2   5 14604.6 845.160  94
   0   2  -5 15897.1 938.805  32
   0  -2  -5 15580.1 836.736  29
   0  -2  -5 15211.4 742.610  32
   0   2  -5 14209.7 859.272  29
   0  -2  -5 15728.8 937.693  34
   0   2  -5 15528.3 754.906  34
   0  -2   5 15353.3 919.313  35
   0  -2   5 15629.1 913.537  87
   0   2  -5 15242.7 915.153  86
   0  -2   5 13518.3 538.073  58
   0  -2   5 13958.7 529.199  55
   0  -2   5 15482.5 571.807  56
   0   2  -5 14878.9 694.826  18
   0  -2   5 14077.1 852.750  28
   0   2   5 14408.2 687.354  18
   0  -2   6 90.6851 106.889   2
   0   2   6 76.0585 161.611   2
   0   2  -6 154.984 193.750  42
   0   2   6 261.890 95.1662  49
   0  -2  -6 59.6843 116.659  42
   0   2  -6-40.8526 159.697  40
   0  -2   6 33.6361 118.937  38
   0  -2   6 27.2257 111.164  94
   0   2   6 102.475 145.162  94
   0   2   6 125.630 84.0721  97
   0  -2  -6 316.297 208.399  34
   0  -2  -6 31.3249 116.757  29
   0  -2   6-38.1836 168.392  35
   0   2  -6 73.3197 149.680  29
   0   2  -6 77.4384 100.910  34
   0  -2   6-40.6412 179.229  37
   0  -2  -6-24.3028 99.2316  32
   0   2  -6 39.5561 174.444  32
   0   2  -6 51.1656 80.9165  76
   0  -2   6-36.3166 148.279  87
   0   2  -6-38.4889 150.458  86
   0  -2   6 38.1838 142.320  89
   0   2  -6 121.446 64.0253  72
   0  -2  -6 51.4159 79.4851  69
   0  -2   6-10.3045 71.8618  60
   0  -2   6 43.3209 83.7124  58
   0  -2   6 78.9349 81.9377  56
   0  -2   6 137.141 151.201  28
   0   2   7 14870.7 1034.17   2
   0   2   7 14005.7 610.989   6
   0   2   7 13797.9 584.573   3
   0   2  -7 13606.8 590.429 110
   0   2   7 13351.0 590.332 106
   0   2   7 13577.8 612.656  98
   0  -2   7 14119.4 1003.79  89
   0   2   7 14138.1 1001.05  94
   0   2   7 14610.3 589.108  93
   0   2   7 14247.3 615.784  97
   0  -2   7 13705.3 885.782  94
   0   2  -7 14557.0 1059.19  32
   0  -2   7 13687.6 961.454  28
   0   2  -7 13797.5 861.988  34
   0  -2   7 14534.5 1028.55  35
   0  -2   7 14038.8 1055.55  37
   0   2  -7 13292.6 985.268  29
   0  -2  -7 14184.1 955.724  29
   0  -2  -7 14513.0 1060.02  34
   0  -2   7 13792.2 964.463  87
   0   2  -7 14138.4 592.608  76
   0  -2  -7 13334.1 570.918  75
   0   2  -7 13874.3 1020.49  86
   0   2  -7 14405.1 597.440  84
   0  -2  -7 13184.1 1034.63  86
   0  -2   7 13673.8 589.386  60
   0  -2   7 14171.1 610.767  58
   0   2  -7 13277.0 533.131  72
   0  -2   7 14256.0 616.773  56
   0  -2  -7 13839.9 584.468  69
   0  -2  -7 14766.6 954.314  42
   0   2  -7 14101.4 1034.55  42
   0  -2   7 13090.2 907.570  38
   0   2   7 13456.6 612.524  49
   0   2  -7 13965.9 1049.92  40
   0  -2  -7 15658.2 1099.54  41
   0  -2   8 1930.20 380.491  28
   0   2   8 2072.61 238.925   6
   0   2   8 1986.47 217.389   3
   0   2   8 1859.88 418.406   2
   0   2   8 1962.36 249.421   7
   0   2   8 2450.89 253.133 106
   0   2  -8 1719.56 217.010 110
   0  -2   8 2048.97 213.826 106
   0   2   8 2063.67 219.573  93
   0   2   8 1459.60 395.691  94
   0  -2   8 1882.05 363.723  94
   0   2  -8 1940.41 350.788  34
   0   2  -8 2498.29 471.483  29
   0  -2   8 2336.33 464.170  37
   0  -2  -8 1989.97 444.152  34
   0  -2  -8 1864.44 397.561  29
   0  -2   8 1637.88 384.175  35
   0   2  -8 1873.21 431.640  86
   0  -2  -8 1810.87 441.713  86
   0   2  -8 1872.01 218.935  76
   0  -2   8 1869.82 424.595  89
   0  -2  -8 2046.18 215.043  75
   0  -2   8 1870.92 388.423  87
   0   2  -8 1731.52 211.005  84
   0   2  -8 1888.13 192.540  72
   0  -2   8 2099.39 244.730  66
   0  -2   8 2231.20 231.618  59
   0  -2   8 1801.86 219.460  60
   0  -2  -8 2051.81 221.898  69
   0  -2  -8 2138.47 399.457  42
   0   2  -8 2206.77 468.330  42
   0   2  -8 2119.20 445.982  40
   0  -2   8 1665.49 338.069  38
   0   2   8 1726.15 226.731  49
   0  -2  -8 2186.77 484.943  41
   0   2  -9 7004.24 451.261  26
   0   2   9 7973.00 459.840   6
   0   2   9 8153.49 492.487   7
   0   2   9 7272.24 788.287   2
   0   2  -9 7624.19 448.697 110
   0  -2   9 6826.93 412.160 106
   0   2   9 7899.08 468.042 106
   0  -2   9 7321.87 463.136  99
   0   2   9 6873.34 430.495  93
   0  -2   9 7644.22 734.324  94
   0   2   9 8144.43 843.884  94
   0   2  -9 7455.96 458.524 100
   0   2  -9 8600.45 869.980  29
   0  -2   9 6891.72 795.776  35
   0  -2   9 6613.71 769.156  37
   0  -2   9 7014.08 748.035  28
   0  -2  -9 7301.84 869.034  34
   0  -2  -9 6709.30 744.736  29
   0   2  -9 6651.72 425.503  84
   0  -2  -9 7329.38 417.836  75
   0  -2  -9 7271.06 428.223  78
   0  -2   9 6326.21 694.885  87
   0  -2   9 5679.78 698.856  89
   0  -2  -9 8462.69 487.429  74
   0   2  -9 7368.97 836.123  86
   0  -2  -9 8123.50 494.233  70
   0  -2   9 6854.23 452.216  66
   0   2  -9 7225.75 422.686  51
   0  -2   9 7791.45 472.659  64
   0  -2   9 7321.17 438.450  59
   0   2  -9 6475.91 784.610  40
   0   2   9 7217.62 460.478  49
   0  -2  -9 8057.97 860.533  41
   0   2  -9 7986.33 870.925  42
   0  -2  -9 5964.65 683.492  42
   0   2 -10 38078.9 1320.60  26
   0   2  10 41327.2 1375.91   7
   0   2  10 40487.7 1294.47   8
   0   2  10 37332.0 1929.55   2
   0   2  10 41307.6 1305.66   6
   0   2 -10 39291.9 1302.57 110
   0  -2  10 40709.8 1284.77 106
   0   2  10 40815.3 1357.05 106
   0   2 -10 40888.2 1333.62 100
   0   2  10 39570.7 1303.80  93
   0   2  10 40708.9 1389.50  98
   0   2  10 40236.6 2048.97  94
   0  -2  10 37366.9 1809.95  94
   0  -2 -10 41280.4 1964.59  29
   0  -2 -10 42984.3 2202.69  34
   0   2 -10 37638.3 2015.99  29
   0  -2 -10 39848.7 1329.08  81
   0  -2 -10 43107.7 1371.41  74
   0  -2 -10 39526.7 1269.25  78
   0   2 -10 38932.4 1295.49  84
   0   2 -10 37720.9 2028.23  86
   0  -2  10 38806.4 1930.33  89
   0  -2  10 40675.9 1367.53  66
   0  -2  10 39706.7 1289.45  67
   0  -2  10 38856.7 1282.52  59
   0  -2  10 40496.3 1342.12  64
   0   2 -10 36565.1 2032.64  42
   0  -2 -10 36581.9 1983.04  41
   0   2 -11 25996.6 948.968  26
   0   2  11 25626.2 885.262   8
   0   2  11 26403.3 981.596   7
   0   2  11 26480.4 981.206 106
   0   2 -11 26301.0 931.557 110
   0  -2  11 26703.7 915.047 106
   0   2  11 25601.2 1003.71  98
   0  -2  11 26446.2 958.785  93
   0   2 -11 26937.3 947.993 100
   0   2  11 25489.6 927.586  93
   0   2 -11 25950.2 1601.06  32
   0  -2 -11 23939.4 1404.14  29
   0   2 -11 27718.5 1597.08  29
   0   2 -11 24717.9 1527.40  86
   0   2 -11 25905.7 927.008  84
   0  -2 -11 27087.1 979.316  74
   0  -2 -11 26381.2 951.167  81
   0  -2 -11 27162.7 993.745  77
   0  -2  11 25884.9 984.978  66
   0  -2  11 26618.6 962.012  64
   0  -2  11 25451.0 892.032  67
   0  -2 -11 20780.2 1390.48  41
   0  -2 -12 5927.38 374.045  27
   0   2 -12 4682.72 306.247  27
   0   2 -12 5983.12 338.325  26
   0   2  12 5525.93 347.510   7
   0   2 -12 4827.76 305.265 110
   0   2  12 5579.21 358.298 106
   0  -2  12 4831.37 294.931 106
   0   2 -12 6048.34 373.849 101
   0  -2  12 5656.95 343.224  93
   0   2 -12 5441.11 319.371 100
   0   2  12 6208.75 385.966  98
   0   2 -12 6165.38 663.932  29
   0  -2 -12 5417.97 328.094  81
   0  -2 -12 5389.04 345.430  77
   0  -2 -12 6328.91 377.240  76
   0   2 -12 5715.89 644.973  86
   0  -2 -12 6026.54 613.600  71
   0  -2  12 5207.66 329.518  64
   0   2  12 5584.36 345.909  48
   0   2  13 4958.49 264.962   7
   0   2  13 5047.71 278.535 106
   0   2 -13 5045.63 289.191 101
   0  -2  13 5112.83 274.882  93
   0   2  13 4440.61 279.549  98
   0  -2  13 5275.60 287.419  99
   0  -2 -13 5226.61 288.996  76
   0  -2 -13 4889.42 276.856  77
   0  -2 -13 5199.70 283.975  84
   0   2 -13 4133.44 219.539  26
   0  -2 -13 4393.67 270.301  27
   0   2  13 4597.99 258.033  48
   0   3   0 16.3466 70.7889 102
   0  -3   0 22.9223 114.620  33
   0  -3   0 105.726 111.454  31
   0  -3   0-20.9066 104.541  89
   0  -3   0-22.8427 107.690  87
   0   3   0 30.0507 132.522  18
   0  -3   0-28.4073 125.274  39
   0  -3   0 18.9667 83.6423  41
   0   3   1 27619.4 869.765 102
   0   3  -1 26757.8 841.028 102
   0  -3  -1 27133.0 1044.08  89
   0  -3   1 28647.6 1197.71  89
   0  -3  -1 27314.4 1156.32  31
   0  -3   1 28613.2 1115.54  33
   0  -3  -1 26123.8 984.860  34
   0  -3   1 28286.3 1127.56  31
   0  -3  -1 28841.5 1241.55  33
   0  -3   1 29551.5 1318.93  35
   0  -3   1 28251.4 1233.88  87
   0  -3  -1 27269.2 1089.91  87
   0  -3   1 28574.4 1220.43  39
   0   3  -1 31595.4 1334.58  18
   0   3  -2 43220.0 1688.95  18
   0  -3   2 45299.4 1732.44  28
   0   3   2 42581.9 1686.23  18
   0   3   2 46693.7 1791.12   2
   0   3   2 43353.7 1412.74   1
   0   3  -2 41904.1 1179.20 102
   0  -3   2 43443.7 1661.65  89
   0  -3   2 41457.2 1501.11  30
   0  -3   2 43039.3 1511.90  31
   0  -3   2 40521.0 1411.80  33
   0  -3   2 45279.0 1769.36  35
   0  -3  -2 39718.5 1433.26  34
   0  -3  -2 41001.7 1344.03  87
   0  -3   2 44655.6 1692.38  87
   0  -3   2 40187.8 1154.58  56
   0  -3   2 39781.9 1514.97  39
   0   3   3 271050. 7163.05   1
   0  -3   3 288623. 7302.71  39
   0  -3  -3 278405. 7252.50  44
   0   3  -3 284879. 6969.74 100
   0  -3   3 297890. 7653.52  89
   0  -3   3 307370. 7733.34  35
   0   3  -3 281248. 7263.79  29
   0  -3   3 276618. 7337.10  31
   0  -3  -3 291708. 7415.27  34
   0   3  -3 300360. 7507.95  32
   0   3  -3 300947. 7714.13  86
   0  -3   3 306455. 7711.07  87
   0  -3   3 293045. 6910.31  56
   0  -3   3 294670. 7636.26  28
   0   3  -3 295832. 7561.77  18
   0   3   3 298860. 7600.59  18
   0   3   4 69056.5 2095.94   1
   0   3   4 70999.3 2567.95   2
   0   3   4 68468.0 1888.13  50
   0   3  -4 64721.9 1866.08 100
   0  -3   4 66520.9 2464.35  89
   0  -3  -4 69526.1 2350.00  34
   0  -3   4 69305.1 2506.00  35
   0  -3   4 60853.8 2176.17  31
   0   3  -4 66142.0 2211.85  29
   0   3  -4 69391.9 2393.28  32
   0   3  -4 68341.5 2497.49  86
   0  -3   4 70105.8 2515.50  87
   0   3  -4 66639.9 1860.49  51
   0  -3   4 67633.7 1826.68  56
   0  -3   4 63950.2 1776.82  58
   0   3  -4 64859.0 2282.05  18
   0   3   4 69350.5 2340.17  18
   0  -3   4 66607.3 2412.62  28
   0  -3   5 3474.98 488.191  28
   0   3   5 4141.52 458.039  18
   0   3  -5 3693.93 431.649  18
   0   3  -5 4294.41 310.060  26
   0   3   5 4369.38 320.769   3
   0   3   5 4302.74 313.537   6
   0   3   5 4540.59 580.424   2
   0   3   5 4013.14 309.515   8
   0   3   5 4071.04 308.535   7
   0   3  -5 4788.54 332.723 101
   0   3  -5 4359.82 304.967 110
   0   3  -5 4307.84 318.170 100
   0  -3   5 3383.76 501.052  89
   0   3   5 4244.10 306.299  97
   0   3   5 4269.56 298.247  98
   0  -3  -5 4157.15 515.978  34
   0   3  -5 4685.04 566.967  32
   0  -3   5 4249.72 560.556  35
   0   3  -5 4130.50 477.043  29
   0   3  -5 4190.96 565.126  86
   0   3  -5 4107.61 307.962  51
   0  -3   5 4605.03 287.667  58
   0  -3   5 4544.96 306.561  56
   0   3   5 4384.23 325.807  50
   0  -3  -5 4548.57 593.890  41
   0   3   5 4216.27 311.706  49
   0  -3   6 26679.1 1434.58  28
   0   3   6 27408.4 994.539   3
   0   3   6 27835.9 1006.82   8
   0   3   6 25815.3 930.086  17
   0   3   6 27967.8 1005.62   6
   0   3   6 29454.4 1611.65   2
   0   3  -6 28475.4 1015.28 101
   0   3  -6 26908.2 965.362 110
   0  -3   6 27635.4 1551.95  89
   0   3   6 27553.0 973.494  98
   0   3  -6 29359.1 1013.87 100
   0   3  -6 27629.7 1522.58  32
   0  -3   6 29656.1 1666.25  37
   0  -3  -6 27381.2 1500.65  34
   0  -3   6 28790.7 1560.53  35
   0   3  -6 29405.9 1451.06  29
   0  -3   6 27379.0 1535.82  87
   0   3  -6 28597.2 1594.76  86
   0  -3   6 27849.4 949.224  58
   0   3  -6 27993.1 991.161  51
   0  -3   6 28239.6 989.960  56
   0  -3  -6 30803.6 1690.07  41
   0  -3   6 26113.6 1500.72  38
   0  -3   7 21394.4 1314.49  28
   0   3   7 22478.0 835.146  17
   0   3   7 22595.8 905.268   6
   0   3   7 23693.0 912.393   3
   0   3   7 23765.9 924.977   8
   0   3   7 23693.7 937.049   7
   0   3   7 22524.4 1459.98   2
   0   3  -7 23584.4 898.890 110
   0   3   7 22191.5 847.523 106
   0   3  -7 24057.2 943.446 101
   0   3   7 24904.1 929.071  98
   0   3  -7 24307.0 929.088 100
   0   3  -7 26936.4 1556.45  32
   0  -3  -7 23568.4 1455.25  34
   0  -3   7 26246.2 1613.80  37
   0   3  -7 23980.9 1371.53  29
   0  -3   7 24131.0 1465.45  35
   0   3  -7 22467.6 1474.85  86
   0  -3   7 22409.3 1433.19  87
   0  -3   7 23969.1 898.864  66
   0  -3   7 23464.3 848.296  60
   0  -3  -7 24334.7 895.679  69
   0   3  -7 23458.1 910.106  51
   0  -3   7 24767.4 894.760  58
   0  -3   7 24393.5 925.241  56
   0   3   7 25385.4 957.001  49
   0  -3  -7 24210.5 1554.38  41
   0  -3   7 23988.1 1431.42  38
   0   3  -8 24213.0 960.311  26
   0   3   8 25386.9 990.937   7
   0   3   8 25397.6 1581.78   2
   0   3   8 24828.9 957.268   8
   0   3  -8 22240.0 846.735  13
   0   3   8 24478.9 931.935   3
   0   3   8 23170.9 938.085   6
   0   3  -8 25182.3 976.434 101
   0   3   8 23046.1 886.185 106
   0   3  -8 25079.1 937.136 110
   0   3  -8 23564.5 942.259 100
   0  -3   8 23016.4 1508.40  89
   0  -3   8 24767.7 948.821  99
   0   3   8 24394.2 960.059  98
   0  -3   8 23530.3 1577.86  37
   0   3  -8 24463.2 1543.45  32
   0  -3   8 21269.2 1440.12  35
   0  -3  -8 20924.2 1466.70  34
   0  -3   8 21047.2 1338.86  28
   0   3  -8 26106.1 1489.61  29
   0  -3  -8 26216.1 1656.92  86
   0   3  -8 22049.2 1503.58  86
   0  -3  -8 23664.5 883.170  75
   0  -3   8 23042.9 1485.92  87
   0  -3   8 24841.0 894.251  60
   0  -3   8 25369.5 950.053  66
   0   3  -8 24671.3 934.133  51
   0  -3  -8 24921.2 916.023  69
   0  -3   8 25030.7 959.087  59
   0  -3   8 25409.6 969.389  56
   0   3   8 25201.8 987.417  49
   0   3  -9 2968.42 307.613  26
   0  -3  -9 2725.89 265.085  27
   0   3   9 2856.79 294.091   8
   0   3   9 3006.66 553.839   2
   0   3   9 3461.28 329.830   7
   0   3  -9 3149.84 319.167 101
   0   3  -9 3212.78 299.559 110
   0   3   9 3016.37 276.910 106
   0  -3   9 3134.72 301.658  99
   0   3   9 2946.30 312.089  98
   0   3  -9 3156.20 305.543 100
   0   3  -9 3003.12 506.756  29
   0   3  -9 2974.56 552.060  32
   0  -3  -9 3111.29 581.428  34
   0  -3   9 3052.45 561.697  37
   0  -3   9 2767.55 526.620  89
   0   3  -9 2833.53 538.957  86
   0  -3  -9 2185.77 515.787  86
   0  -3  -9 3100.43 278.643  78
   0  -3  -9 3470.14 309.360  74
   0  -3   9 2379.80 464.954  87
   0   3  -9 3313.15 294.788  51
   0  -3   9 2699.34 286.713  66
   0  -3   9 3269.22 305.760  59
   0  -3  -9 2593.63 562.288  41
   0   3   9 3398.00 321.931  48
   0   3   9 2911.59 305.144  49
   0   3 -10 3290.77 305.486  26
   0  -3 -10 3343.62 285.823  27
   0   3  10 3544.97 303.666   8
   0   3  10 3682.81 327.865   7
   0   3 -10 3384.80 288.250 110
   0   3  10 3577.00 290.743 106
   0   3 -10 3453.98 319.166 101
   0  -3  10 3458.22 312.788  99
   0   3  10 3525.35 320.886  98
   0   3 -10 3189.77 300.512 100
   0   3 -10 2562.06 461.216  29
   0   3 -10 3535.61 600.598  32
   0  -3 -10 3503.19 272.440  78
   0  -3 -10 3124.50 282.015  81
   0  -3 -10 4363.15 336.777  74
   0  -3  10 2461.67 472.806  89
   0   3 -10 4179.29 619.995  86
   0  -3 -10 3468.10 581.900  86
   0   3 -10 3354.18 277.220  51
   0  -3  10 3668.25 309.337  59
   0  -3  10 3684.67 315.351  66
   0  -3 -10 3715.68 329.451  70
   0  -3  10 3405.58 298.944  67
   0   3  10 3650.78 326.560  48
   0  -3 -10 3208.67 596.822  41
   0  -3 -11 5848.97 344.887  27
   0   3 -11 6925.06 398.169  26
   0   3 -11 5619.65 336.565 110
   0   3  11 6227.91 355.103 106
   0   3 -11 6607.05 402.442 101
   0   3  11 6207.81 398.168  98
   0   3 -11 5629.89 355.208 100
   0  -3  11 6702.16 354.320  93
   0  -3  11 7407.91 414.081  99
   0   3  11 5577.53 338.849   8
   0   3  11 6244.01 363.835   4
   0   3  11 6602.21 399.149   7
   0   3 -11 5711.35 660.874  86
   0  -3 -11 6873.23 403.689  77
   0  -3 -11 6537.44 367.244  81
   0  -3 -11 6042.96 363.354  74
   0  -3 -11 6440.52 401.425  70
   0  -3  11 7101.12 406.096  64
   0  -3  11 6730.23 393.394  66
   0  -3  11 6462.00 365.766  67
   0  -3  11 5983.72 357.981  59
   0   3  11 7093.77 409.970  48
   0   3 -12 1064.15 144.454  26
   0   3  12 749.121 104.980   4
   0   3  12 1149.94 148.231   7
   0   3 -12 1192.79 159.877 101
   0  -3  12 1071.10 151.964  99
   0   3  12 1038.27 148.918  98
   0  -3  12 899.012 106.678  93
   0  -3 -12 983.474 145.901  70
   0  -3  12 852.659 135.726  64
   0   3  12 777.410 130.260  48
   0  -3 -12 803.053 109.343  81
   0  -3 -12 788.769 131.095  77
   0  -3 -13 10880.2 382.626  84
   0  -3  13 11256.7 389.710  99
   0   3 -13 10447.9 382.266 101
   0   3  13 10160.5 365.846  48
   0   4   0 27615.2 1479.87  18
   0   4   0 24686.5 889.956  17
   0   4   0 23677.7 887.296  20
   0   4   0 25720.8 896.396   4
   0   4   0 24782.9 906.380  12
   0   4   0 24935.1 900.713  13
   0   4   0 25900.6 892.800   8
   0   4   0 23125.1 890.605 110
   0  -4   0 24026.9 1163.82  89
   0  -4   0 23723.8 1403.88  35
   0  -4   0 24102.3 1209.09  33
   0  -4   0 23734.0 1213.51  87
   0   4   0 25755.8 895.614  51
   0   4   0 25697.9 908.139  54
   0   4   0 25536.2 907.474  53
   0  -4   0 25984.7 1388.74  39
   0   4  -1 8652.79 443.518  17
   0   4  -1 7865.95 443.191  20
   0   4   1 8196.71 454.445  17
   0   4  -1 8097.05 786.327  18
   0   4   1 8191.67 452.333  20
   0   4   1 8563.39 462.335   4
   0   4   1 8583.03 450.707  13
   0   4  -1 8641.69 465.651  13
   0   4  -1 8073.91 430.582   8
   0   4  -1 9007.91 465.234  12
   0   4   1 8465.16 451.730   8
   0   4   1 8344.82 446.699   3
   0   4   1 8342.26 455.118  12
   0   4  -1 8201.34 433.046   4
   0   4  -1 8418.87 426.812 102
   0   4  -1 7977.87 449.731 110
   0   4   1 9152.22 481.570 110
   0  -4   1 8366.36 684.923  89
   0  -4   1 8656.98 719.873  30
   0  -4   1 8685.09 822.176  35
   0  -4  -1 8559.42 716.287  33
   0  -4  -1 7266.40 614.808  31
   0  -4   1 8990.51 740.710  87
   0   4   1 8572.61 459.276  54
   0   4   1 8835.22 467.252  53
   0   4  -1 8422.72 458.200  53
   0   4  -1 7978.36 443.312  51
   0   4  -1 7837.09 440.015  54
   0  -4   1 8765.53 735.498  39
   0  -4  -1 8559.13 811.389  39
   0  -4  -1 7447.44 639.327  41
   0   4   2 64556.1 2514.87  18
   0  -4   2 66779.6 2520.78  28
   0   4  -2 59638.8 1701.55  26
   0   4   2 58055.3 1757.10  20
   0   4  -2 59721.8 1724.01  17
   0   4  -2 60412.6 2429.66  18
   0   4   2 60579.9 1784.97  17
   0   4  -2 58619.4 1751.94  20
   0   4  -2 60123.6 1757.35  12
   0   4  -2 60806.3 1790.43  13
   0   4   2 61761.4 1776.65  12
   0   4   2 63681.8 1810.90   4
   0   4   2 61234.7 1782.53   8
   0   4   2 61447.4 1754.70  13
   0   4   2 58332.4 1761.07   3
   0   4  -2 60489.9 1703.92 102
   0   4  -2 61674.7 1783.78 110
   0  -4  -2 60728.2 2254.59  92
   0  -4   2 63650.8 2358.72  89
   0  -4  -2 57311.5 2330.82  33
   0  -4   2 61608.2 2491.31  35
   0  -4  -2 62980.5 2257.78  31
   0  -4   2 62425.2 2404.11  87
   0   4  -2 60536.2 1761.81  53
   0   4  -2 60272.7 1781.35  51
   0   4   2 63356.0 1812.43  50
   0   4   2 63702.0 1800.94  53
   0  -4  -2 60725.3 2307.89  41
   0  -4   2 59103.1 2202.70  39
   0   4   2 59410.5 1703.67  48
   0  -4  -2 62609.4 2555.25  39
   0  -4   3 3796.65 535.283  28
   0   4  -3 3750.05 297.437  20
   0   4   3 3296.31 522.576  18
   0   4  -3 4022.38 549.268  18
   0   4  -3 3578.22 282.774  26
   0   4   3 3542.36 290.341  20
   0   4   3 3594.59 312.099   4
   0   4   3 3554.07 293.615  12
   0   4  -3 3933.66 322.679  13
   0   4   3 3201.32 272.612  13
   0   4   3 3679.48 307.189   3
   0   4   3 3352.87 301.359   8
   0   4  -3 3598.05 286.078  12
   0   4  -3 3138.84 246.171 102
   0   4  -3 4150.87 322.072 110
   0  -4   3 3844.22 538.253  89
   0  -4  -3 3809.20 556.946  33
   0  -4   3 3728.04 564.746  35
   0  -4  -3 3611.38 497.252  31
   0  -4   3 3344.01 518.198  87
   0   4   3 3507.72 309.693  50
   0   4   3 3703.77 305.692  53
   0  -4   3 3574.67 253.209  56
   0   4  -3 3413.84 283.843  53
   0  -4  -3 3276.94 548.449  39
   0   4   3 3411.19 273.327  48
   0   4   3 3325.77 286.008  49
   0  -4  -3 3317.65 501.239  41
   0   4   4 37700.9 1246.13  20
   0   4  -4 39512.3 1249.05  20
   0   4  -4 38220.2 1810.75  18
   0   4   4 39205.4 1848.30  18
   0   4   4 41517.0 1330.05  17
   0   4  -4 40508.4 1288.62  26
   0  -4   4 42044.1 1939.50  28
   0   4  -4 38922.8 1244.36  12
   0   4   4 39232.8 1306.67   7
   0   4  -4 40568.0 1322.88  13
   0   4   4 38135.1 1223.85  10
   0   4   4 41975.5 1347.22   8
   0   4   4 38362.9 1251.64  12
   0   4  -4 40234.0 1307.41 110
   0  -4   4 38393.4 1905.39  89
   0  -4  -4 43268.6 2046.11  33
   0  -4  -4 40178.1 1862.48  31
   0  -4   4 41939.2 2012.05  35
   0  -4   4 38725.7 1941.92  87
   0  -4   4 39024.5 1227.43  56
   0   4  -4 38476.8 1239.82  53
   0   4  -4 40945.9 1326.58  51
   0   4   4 40616.6 1287.41  48
   0  -4   4 39721.7 2037.16  43
   0   4   4 40548.9 1309.34  49
   0   4   4 41921.8 1352.61  50
   0  -4  -4 40352.2 1955.45  41
   0   4   5 1759.97 367.261  18
   0   4   5 1637.95 200.960  20
   0  -4   5 1996.79 416.066  28
   0   4   5 2037.66 248.001  17
   0   4  -5 2081.21 379.180  18
   0   4  -5 2229.14 245.696  26
   0   4   5 1775.36 236.012   7
   0   4  -5 1818.22 243.137  13
   0   4   5 1609.38 194.529  12
   0   4   5 2074.14 260.052   8
   0   4   5 1849.69 246.947   3
   0   4  -5 2021.99 236.759 110
   0   4   5 1488.23 193.383  98
   0  -4  -5 1818.36 444.674  33
   0  -4   5 2175.90 464.247  35
   0  -4   5 1988.20 451.100  87
   0  -4   5 2261.52 461.626  89
   0   4  -5 2004.37 245.152  51
   0  -4   5 2198.60 229.245  56
   0   4   5 1251.55 219.933  50
   0   4   5 1949.85 244.655  49
   0   4   5 1938.67 231.107  48
   0  -4  -5 1565.81 386.625  41
   0  -4   6 30791.3 1684.72  28
   0   4   6 33707.0 1183.60  17
   0   4  -6 35321.9 1222.33  26
   0   4  -6 34597.5 1190.65  13
   0   4   6 35911.9 1248.09   7
   0   4   6 36044.5 1247.75   3
   0   4  -6 34905.9 1198.46 110
   0   4  -6 36052.2 1247.11 101
   0  -4   6 34635.9 1897.32  89
   0   4   6 32276.4 1137.55  98
   0  -4  -6 36625.1 1986.40  33
   0  -4   6 31833.4 1811.83  35
   0  -4   6 34349.1 1988.14  37
   0   4  -6 31887.9 1848.41  86
   0  -4   6 32123.3 1865.99  87
   0   4  -6 35585.2 1231.92  51
   0  -4   6 33240.6 1113.93  66
   0  -4   6 34820.6 1178.62  56
   0  -4  -6 32420.9 1903.18  41
   0   4   6 36962.4 1249.30  49
   0  -4   6 33752.5 1902.59  38
   0   4   6 35772.2 1224.91  48
   0   4  -7 514.095 163.078  26
   0   4   7 362.770 128.293  17
   0   4  -7 387.420 140.779  13
   0   4   7 392.816 159.131   7
   0   4   7 303.066 151.778   8
   0   4  -7 346.647 147.671 110
   0  -4   7 253.473 132.974  99
   0   4  -7 217.018 133.409 101
   0   4   7 475.372 150.211  98
   0  -4  -7 388.430 285.630  33
   0  -4   7 675.022 308.257  37
   0  -4   7 670.312 304.841  89
   0  -4   7 558.534 292.709  87
   0   4  -7 416.815 253.194  86
   0  -4   7 449.455 136.501  66
   0  -4  -7 408.781 140.787  69
   0  -4   7 247.041 141.336  59
   0   4  -7 565.135 161.717  51
   0  -4   7 230.163 235.096  38
   0  -4  -7 827.676 335.701  41
   0   4   7 445.485 151.383  48
   0   4   7 372.235 159.353  49
   0   4   8 27029.0 960.405  17
   0   4  -8 30647.5 1097.07  26
   0   4  -8 28661.6 1034.15 110
   0   4  -8 31814.6 1126.79 101
   0  -4   8 30582.6 1053.91  99
   0   4   8 28419.7 1033.90  98
   0   4  -8 27831.4 989.029  13
   0   4   8 30456.4 1098.70   8
   0  -4   8 29837.2 1742.88  89
   0  -4  -8 31805.8 1827.24  86
   0   4  -8 28727.2 1723.63  86
   0  -4  -8 27197.7 996.190  69
   0  -4   8 29248.2 1015.09  66
   0   4  -8 29734.2 1070.36  51
   0  -4  -8 29668.8 1797.59  41
   0   4   8 29459.6 1086.06  48
   0   4  -9 4099.35 343.569 101
   0   4  -9 4031.43 305.639 110
   0   4   9 4241.28 327.033  98
   0  -4   9 4382.37 322.363  99
   0   4   9 4352.79 338.736   8
   0   4   9 4669.34 349.543   4
   0   4  -9 3549.99 259.565  11
   0  -4  -9 3384.54 570.698  86
   0  -4  -9 3655.34 279.158  78
   0  -4  -9 4158.44 315.990  74
   0  -4   9 4625.88 348.357  64
   0   4  -9 4213.41 319.657  51
   0  -4   9 4097.32 305.112  66
   0   4   9 4638.38 362.258  49
   0   4 -10 2286.25 199.077 110
   0   4  10 2324.93 220.097  98
   0   4 -10 2135.51 227.717 101
   0  -4  10 2583.03 234.851  99
   0   4 -10 1968.05 222.985  26
   0  -4 -10 2489.85 216.086  74
   0  -4 -10 2218.16 204.289  81
   0  -4  10 2532.99 234.216  67
   0  -4 -10 2267.65 232.490  70
   0   4 -10 1957.71 197.749  51
   0  -4  10 2551.85 241.626  64
   0  -4  10 2269.55 229.116  59
   0   4  10 2061.45 216.691   8
   0   4  10 2445.15 235.243   4
   0   4  11 1361.48 145.915   4
   0   4  11 1417.64 162.285  48
   0  -4  11 1307.64 148.001  99
   0  -4 -11 1409.12 153.314  77
   0  -4  11 1387.94 149.750  67
   0  -4  11 1459.58 165.186  64
   0   4 -11 1456.37 163.570  26
   0   4 -12 2319.38 146.486  26
   0   5   0 67.8660 131.128  20
   0   5   0 120.278 200.479  18
   0   5   0 51.6805 126.797 110
   0  -5   0 104.759 185.205  92
   0   5   0 33.0424 123.152  17
   0   5   0 61.2534 115.567  11
   0   5   0-17.0324 115.320  12
   0   5   0 45.9098 111.185   8
   0   5   0 16.8080 135.811  13
   0  -5   0 243.330 237.793  35
   0  -5   0-141.061 199.814  30
   0   5   0 17.2235 121.799  53
   0  -5   0 50.6873 158.058  39
   0  -5   1 3457.03 573.737  28
   0   5  -1 3094.92 551.042  18
   0   5  -1 2495.70 272.873  17
   0   5   1 2636.22 286.440  17
   0   5  -1 2264.37 268.098  20
   0   5   1 2644.13 533.297  18
   0   5   1 2194.83 268.749   8
   0   5  -1 3144.10 313.718  13
   0   5  -1 2627.95 286.237  12
   0   5   1 2312.15 272.583  13
   0   5   1 2536.15 280.624   4
   0   5   1 2515.80 259.125  11
   0   5  -1 2594.03 290.517 110
   0  -5  -1 2619.47 466.635  92
   0  -5  -1 3181.10 581.858  35
   0  -5   1 2815.09 545.439  35
   0   5   1 2288.52 280.218  53
   0   5  -1 2982.41 298.442  53
   0   5   1 2656.03 301.707  50
   0  -5  -1 2196.17 463.595  39
   0   5   2 53615.9 1652.32  17
   0   5   2 51735.8 1623.88  20
   0   5  -2 48371.5 1538.76  17
   0  -5   2 52998.8 2382.59  28
   0   5  -2 53600.8 1623.13  20
   0   5  -2 50680.3 2382.39  18
   0   5   2 50111.8 2390.81  18
   0   5  -2 50401.5 1601.37  12
   0   5   2 50392.8 1576.58  13
   0   5   2 49928.4 1612.14   4
   0   5   2 50544.6 1503.38  11
   0   5   2 50852.9 1615.79  12
   0   5   2 50079.5 1614.33   8
   0   5  -2 49562.2 1607.43 110
   0  -5   2 50967.2 2404.06  35
   0  -5  -2 47452.3 2428.09  35
   0  -5   2 48225.8 2208.62  87
   0   5   2 51280.9 1645.45  50
   0   5  -2 51059.0 1603.88  53
   0   5  -2 52154.6 1627.97  51
   0   5   2 51878.7 1531.02  49
   0  -5  -2 48228.4 2385.20  39
   0   5   3 8134.39 485.125  20
   0   5  -3 7491.01 839.664  18
   0   5  -3 7739.46 421.882  26
   0   5  -3 8471.08 483.304  20
   0  -5   3 6717.43 780.124  28
   0   5   3 8560.29 893.224  18
   0   5   3 7773.87 492.463   8
   0   5  -3 7747.15 491.464  13
   0   5  -3 7767.50 468.325  12
   0   5   3 8254.83 507.887   4
   0   5   3 8185.97 481.782  12
   0   5  -3 7798.33 488.704 110
   0  -5   3 6594.60 729.297  89
   0  -5   3 7391.36 848.822  35
   0  -5  -3 6623.60 859.705  35
   0  -5   3 7486.21 810.929  87
   0   5  -3 7476.25 460.025  53
   0   5  -3 8410.91 506.383  51
   0  -5  -3 7232.68 868.845  39
   0   5   3 7985.79 510.582  50
   0  -5   3 6786.11 845.785  43
   0   5   3 7740.04 446.162  49
   0   5  -4 51.6844 172.352  18
   0   5   4 163.762 122.905  20
   0   5  -4 271.984 125.202  20
   0   5  -4 339.702 127.192  26
   0  -5   4 50.8431 158.606  28
   0   5   4 160.237 178.111  18
   0   5   4 161.064 143.123   8
   0   5   4 178.995 114.847  10
   0   5   4 306.403 167.325   4
   0   5  -4 260.805 144.971  13
   0   5   4 441.457 161.271  17
   0   5  -4 203.313 128.162  12
   0   5   4 285.471 136.092  12
   0   5  -4 245.406 136.420 110
   0  -5   4 114.928 203.231  35
   0  -5   4 402.503 244.389  87
   0  -5   4 52.5857 138.657  89
   0   5  -4 255.710 126.488  53
   0  -5   4 259.594 132.329  59
   0  -5   4-128.486 214.206  43
   0   5   4 228.316 120.424  49
   0  -5  -4 262.774 219.040  39
   0   5   4 199.397 144.969  50
   0   5  -5 5695.17 365.356  20
   0   5  -5 6392.54 400.694  26
   0   5   5 6318.81 435.999  17
   0   5   5 5972.83 377.325  20
   0   5  -5 6493.54 424.576 110
   0  -5   5 6883.82 794.259  89
   0   5   5 6310.66 415.027  49
   0  -5  -5 4369.71 638.816  41
   0  -5  -5 4840.99 736.976  39
   0  -5   5 6840.94 432.831  59
   0   5  -5 5851.38 427.664  51
   0   5  -5 6076.99 372.398  12
   0   5   5 6131.55 380.085  12
   0   5  -5 6384.54 435.565  13
   0   5   5 6732.95 456.965   8
   0   5   6 35394.3 1209.43  17
   0   5  -6 35854.3 1185.25  26
   0   5  -6 33491.4 1168.49 110
   0   5   6 36223.8 1252.94   8
   0   5  -6 35391.0 1200.11  13
   0   5  -6 37959.6 1233.30  11
   0  -5   6 31149.2 1790.98  89
   0  -5   6 35275.3 1213.81  59
   0  -5  -6 33994.3 1165.57  69
   0   5  -6 36108.0 1237.79  51
   0  -5  -6 32101.6 1833.40  41
   0   5   6 36710.8 1220.10  49
   0   5  -7 456.283 137.271  26
   0   5  -7 449.987 136.118 110
   0  -5   7 362.810 236.758  92
   0   5   7 346.613 131.051  49
   0   5  -7 475.760 139.371  51
   0  -5   7 448.926 133.262  64
   0  -5   7 177.666 112.090  59
   0  -5  -7 321.784 110.963  69
   0   5   7 543.061 162.786   4
   0   5  -7 575.180 147.321  11
   0   5  -7 309.427 121.892  13
   0   5   7 422.883 131.104  17
   0   5  -8 20414.2 738.748  26
   0   5   8 18760.4 740.162   4
   0   5  -8 18711.3 670.159  13
   0   5   8 19836.6 758.364   8
   0   5  -8 18509.5 682.714  11
   0   5  -8 17106.9 656.597 110
   0  -5   8 19199.9 716.916  64
   0   5  -8 18828.3 725.042  51
   0  -5   8 19514.6 744.078  59
   0  -5  -8 17380.6 661.127  74
   0   5   8 18557.1 733.371  49
   0   5  -9 12213.4 488.483  26
   0  -5   9 12285.7 486.810  64
   0  -5   9 11926.1 497.462  59
   0  -5   9 12253.3 501.359  67
   0   5   9 12063.0 498.635   8
   0   5  -9 10489.4 408.260  11
   0   5   9 12868.2 512.383   4
   0  -5  -9 9861.27 410.657  81
   0   5 -10 8114.81 322.197  26
   0  -5  10 7728.72 316.493  64
   0   5  10 7637.33 319.112   4
   0   5  10 7214.27 306.397   8
   0  -5 -10 6854.62 296.692  77
   0   6   0 75139.5 2110.97  17
   0   6   0 72087.9 2128.18  20
   0  -6   0 68396.4 2824.07  28
   0   6   0 74392.2 2142.45  50
   0   6   0 74394.6 2135.01  12
   0   6   0 74737.3 2058.15  11
   0   6   0 72918.6 2101.95  13
   0  -6   1 30090.6 1652.03  28
   0   6  -1 31839.7 1076.43  17
   0  -6  -1 30750.7 1722.24  28
   0   6  -1 32204.4 1121.95  20
   0   6   1 32668.6 1129.48  17
   0   6  -1 31566.4 1129.51  50
   0   6   1 32603.4 1138.70  50
   0   6   1 31665.1 1017.43  11
   0   6  -1 32946.0 1096.86  11
   0   6  -1 31979.2 1126.45  13
   0   6  -1 32551.7 1125.63  12
   0  -6   1 30098.6 1654.27  92
   0  -6   2 59014.8 2517.27  92
   0   6   2 64565.6 1867.26  50
   0   6   2 63915.6 1842.22  12
   0   6  -2 62400.9 1827.60  12
   0   6  -2 65710.4 1842.82  11
   0   6   2 59531.4 1803.36   8
   0   6   2 62755.8 1785.02  10
   0   6   2 62416.9 1857.74  17
   0   6  -2 56607.0 1726.08  17
   0   6   2 64132.5 1848.24  20
   0   6  -2 63529.9 1835.23  20
   0  -6  -2 59305.9 2575.93  28
   0  -6   3 22445.1 1431.17  92
   0   6   3 26420.1 953.410  50
   0  -6  -3 22852.1 1380.89  30
   0   6   3 25672.1 913.204  20
   0   6   3 26394.8 957.055  17
   0   6  -3 25783.7 904.948  20
   0   6  -3 26808.7 941.525  11
   0   6  -3 25248.3 939.385  13
   0   6   3 24087.2 900.377  12
   0   6  -3 24944.8 899.601  12
   0   6   3 24891.1 920.570   8
   0   6   3 24139.3 840.573  10
   0  -6  -4 12248.6 973.142  30
   0   6  -4 12344.6 533.377  12
   0   6  -4 13287.8 596.449  13
   0   6   4 13405.2 595.202   8
   0   6   4 12556.6 542.565  12
   0  -6   4 11241.5 962.333  92
   0   6   4 13539.6 555.923  20
   0   6  -4 12834.9 537.894  20
   0  -6  -5 797.135 132.885  69
   0  -6   5 840.001 126.212  59
   0  -6   5 872.166 132.188  67
   0   6   5 1029.11 165.786  17
   0   6  -5 934.106 156.383  13
   0   6  -5 1285.89 178.085  11
   0   6  -5 721.174 112.479  12
   0   6   5 846.169 156.294   8
   0  -6   6 12818.1 505.438  59
   0  -6   6 13468.8 511.966  67
   0   6  -6 15128.4 565.501  11
   0   6   6 13973.0 563.689   8
   0   6  -6 14048.8 541.006  13
   0   6   6 12801.2 530.602  17
   0  -6   7 2353.26 170.855  67
   0   6  -7 2191.76 164.009  13
   0   6  -7 2295.53 175.273  11
   0   6   7 2355.67 191.154   8
   0   6   7 2169.92 161.107  17
   0   7   0 7.55096 77.0731  50
   0   7   0 17.0255 51.8117  17
   0   7   0 38.2509 72.6940  12
   0   7   0-6.18096 61.3843  10
   0   7  -1 2828.84 196.913  12
   0   7   1 2909.13 199.713  12
   0   7  -1 2979.68 195.282  10
   0   7   1 2809.20 196.760  50
   0   7  -1 2678.14 197.221  50
   0   7   1 2463.07 179.458  17
   0   7  -2 3558.50 193.699  11
   0   7  -2 4179.81 224.539  12
   0   7   2 4120.28 224.757  12
   0   7  -2 3939.80 228.833  50
   0   7   2 4195.51 231.386  17
   0   7  -3 6676.95 267.324  11
   0   7  -3 6300.99 279.488  50
   0   7   3 6124.15 282.996  17
   0   7  -4 2518.45 150.113  10
   1   0 -14 9223.60 367.424  84
   1   0 -14 8619.14 350.752 110
   1   0 -14 9353.07 356.327 101
  -1   0  14 8970.04 370.947 106
   1   0 -13 4261.70 284.842 110
  -1   0  13 3993.21 292.537 106
  -1   0  13 3553.50 239.749  98
  -1   0  13 4320.76 300.409  93
  -1   0  13 4060.92 266.704  99
   1   0 -13 4576.47 302.274  76
   1   0 -13 4620.32 300.738  84
   1   0 -13 3650.47 243.172  72
  -1   0  13 3936.43 260.137   7
  -1   0  12 17248.3 696.292  98
  -1   0  12 17034.7 707.937  99
  -1   0  12 17614.0 750.951  93
   1   0 -12 17287.9 1215.92  32
   1   0 -12 16365.7 1223.21  29
   1   0 -12 18683.8 756.661  76
   1   0 -12 18410.6 750.445  84
   1   0 -12 18444.9 1274.61  86
   1   0 -12 17212.9 694.334  72
   1   0 -12 17902.4 739.700 110
  -1   0  12 18408.8 761.040 106
  -1   0  11 54781.6 1630.90 108
  -1   0  11 55986.2 1758.14 106
  -1   0  11 58140.0 1735.48  99
  -1   0  11 55008.2 1699.39  98
  -1   0  11 53062.4 2477.22  94
  -1   0  11 59753.2 1779.67  93
   1   0 -11 59997.4 2660.09  29
   1   0 -11 56841.2 2527.68  32
   1   0 -11 54062.6 2495.75  34
   1   0 -11 54806.9 1638.71  73
   1   0 -11 54946.6 2522.44  86
   1   0 -11 55963.8 1693.81  81
   1   0 -11 55907.8 1700.98  72
   1   0 -11 58838.4 1745.63  77
   1   0 -11 58259.9 1766.25  76
   1   0 -11 58166.4 1759.38  84
   1   0 -11 56240.4 2329.06  71
   1   0 -11 58903.2 2632.70  42
  -1   0  10 18651.8 789.702 106
  -1   0  10 17708.1 754.540  99
  -1   0  10 17032.7 763.947  93
  -1   0  10 17401.1 739.446  98
  -1   0  10 16611.5 1235.33  94
   1   0 -10 17029.6 1274.44  34
   1   0 -10 18042.4 1334.10  29
   1   0 -10 17951.2 1286.47  32
   1   0 -10 17939.4 750.728  72
   1   0 -10 16427.9 717.187  81
   1   0 -10 16278.1 1259.28  86
   1   0 -10 16837.8 745.731  77
   1   0 -10 16471.0 1165.99  71
   1   0 -10 17771.2 779.763  70
   1   0 -10 15488.3 1136.12  40
   1   0 -10 17216.3 1324.57  42
  -1   0   9 2850.23 556.208  28
  -1   0   9 2796.71 454.211   2
  -1   0   9 3306.80 295.793 106
  -1   0   9 2632.21 485.867  94
  -1   0   9 3011.74 279.687  99
  -1   0   9 2789.26 262.814  98
  -1   0   9 3085.35 286.278  93
   1   0  -9 3438.75 561.344  29
   1   0  -9 2708.08 495.813  32
   1   0  -9 2784.43 487.228  34
   1   0  -9 2668.89 258.924  81
   1   0  -9 3059.09 282.625  77
  -1   0   9 2440.35 383.656  89
   1   0  -9 2924.42 525.064  86
  -1   0   9 3244.38 272.144  64
  -1   0   9 3284.71 294.353  66
   1   0  -9 3244.47 293.925  70
   1   0  -9 2572.48 500.236  42
   1   0  -9 3148.94 500.626  40
  -1   0   8 26125.3 1337.98   2
  -1   0   8 22565.6 850.646 106
  -1   0   8 22548.0 1333.51  94
  -1   0   8 22054.7 823.980  98
  -1   0   8 23649.7 847.224  99
  -1   0   8 24624.1 1428.60  28
   1   0  -8 23597.7 1368.47  32
   1   0  -8 22261.0 1363.29  29
   1   0  -8 23810.0 1372.80  34
   1   0  -8 23847.8 1369.66  86
  -1   0   8 22992.6 1183.48  89
   1   0  -8 22545.7 834.382  77
   1   0  -8 23476.8 846.584  74
   1   0  -8 24410.7 839.839  81
  -1   0   8 22639.1 842.912  66
  -1   0   8 23096.1 819.195  64
   1   0  -8 23674.9 867.893  70
   1   0  -8 24157.2 1304.00  40
   1   0  -8 22156.8 1129.69  41
   1   0  -8 23122.9 1373.00  42
  -1   0   7 20952.5 968.753  37
   1   0  -7 22832.1 1266.35  42
   1   0  -7 25678.3 1238.11  40
  -1   0   7 22228.3 1208.14  94
   1   0  -7 24504.6 1263.96  34
  -1   0   7 22501.9 1260.23  28
   1   0  -7 24912.4 1329.06  29
  -1   0   7 22563.3 1286.14  35
   1   0  -7 23146.0 1249.28  32
  -1   0   7 21183.8 1074.75  89
  -1   0   7 19699.0 847.548  87
   1   0  -7 23618.0 795.283  74
   1   0  -7 23689.3 1250.59  86
   1   0  -7 23256.5 802.109  70
  -1   0   7 20488.1 1128.48   2
  -1   0   6 2462.59 345.649   2
  -1   0   6 2168.56 270.447  37
   1   0  -6 2090.19 323.125  40
   1   0  -6 2403.27 370.812  42
  -1   0   6 2102.03 330.085  94
   1   0  -6 2670.20 365.184  34
  -1   0   6 2242.01 374.384  35
   1   0  -6 2943.17 408.272  32
   1   0  -6 2030.25 343.781  29
  -1   0   6 2043.04 303.432  89
   1   0  -6 2716.25 200.388  74
   1   0  -6 2525.97 368.116  86
  -1   0   6 2046.44 228.612  87
   1   0  -6 2678.66 205.787  70
  -1   0   6 2228.66 374.524  28
  -1   0   5 2039.40 147.209  38
   1   0  -5 2497.28 326.336  42
   1   0  -5 2594.44 321.787  40
  -1   0   5 1994.04 302.047  94
   1   0  -5 2366.70 331.681  29
   1   0  -5 2615.16 256.918  36
  -1   0   5 2952.54 382.179  35
   1   0  -5 2611.24 323.766  34
  -1   0   5 2441.72 252.322  37
   1   0  -5 2118.60 302.249  32
  -1   0   5 2718.29 352.506  28
  -1   0   5 2071.30 221.312  87
   1   0  -5 2386.27 316.358  86
  -1   0   5 2690.91 298.449  89
   1   0  -5 2221.43 169.605  70
  -1   0   5 2164.17 296.894   2
  -1   0   4 102655. 2815.86  94
  -1   0   4 106955. 2790.84  89
  -1   0   4 99019.1 2622.27  87
   1   0  -4 106259. 2848.42  86
  -1   0   4 110042. 2956.84  35
   1   0  -4 112825. 2868.99  34
  -1   0   4 103188. 2638.50  37
   1   0  -4 99453.3 2671.56  36
  -1   0   4 104856. 2904.79  28
   1   0  -4 101781. 2868.48  32
  -1   0   4 111131. 2858.49   2
  -1   0   4 91370.9 2432.82  38
   1   0  -4 102617. 2851.21  42
   1   0  -4 108683. 2846.35  40
  -1   0   4 99752.5 2442.21  45
   1   0  -3 913245. 19837.5  86
  -1   0   3 896919. 19802.7  89
  -1   0   3 872517. 19665.3  87
   1   0  -3 923724. 19845.4  34
   1   0  -3 911470. 19745.5  36
  -1   0   3 925956. 19918.0  28
  -1   0   3 876199. 19944.4  35
   1   0  -3 918198. 19867.1  32
  -1   0   3 892088. 19639.6  37
  -1   0   3 912774. 19853.7   2
  -1   0   3 880551. 19588.3  45
   1   0  -3 899466. 19838.7  40
   1   0  -2 632073. 14086.6  40
  -1   0   2 632053. 14107.8  39
  -1   0   2 578493. 14064.6  44
  -1   0   2 586018. 13965.3  87
   1   0  -2 585545. 14013.9  36
  -1   0   2 585374. 14073.3   2
   1   0  -2 608240. 13999.7  19
  -1   0   1 390.750 82.4903  89
  -1   0   1 218.274 70.7946  35
   1   0  -1 260.214 82.7275  36
   1   0  -1 258.253 44.6215  38
  -1   0   1 246.725 74.8637  41
  -1   0   1 412.505 83.4649  44
  -1   0   1 249.746 86.3802  39
   1   0  -1 287.631 71.0781  19
  -1   0   0 151631. 3705.24  41
  -1   0   0 153182. 3674.77  39
   1   0   0 158434. 3700.38  38
   1   0   0 157822. 3677.27  37
  -1   0   0 153818. 3678.53  89
  -1   0   0 155863. 3702.62  87
   1   0   0 145480. 3665.51   1
   1   0   0 155888. 3700.85  19
  -1   0   0 148467. 3590.21  35
  -1   0   0 159582. 3656.47  31
  -1   0  -1 224482. 5368.06  39
   1   0   1 228268. 5497.37  37
  -1   0  -1 222763. 5443.69  42
   1   0   1 227750. 5494.62  38
  -1   0  -1 236330. 5407.66  33
  -1   0  -1 229505. 5479.34  34
  -1   0  -2 165116. 4144.52  32
  -1   0  -2 170111. 4207.22  34
   1   0   2 173797. 4021.84   2
  -1   0  -2 162190. 4098.44  40
  -1   0  -2 170285. 4171.29  42
  -1   0  -2 164216. 4158.79  41
   1   0   3 1631.25 231.295  37
   1   0   3 1532.61 202.578  38
  -1   0  -3 1256.32 110.722  45
  -1   0  -3 1141.60 166.984  40
  -1   0  -3 1435.77 205.922  42
  -1   0  -3 1518.48 196.883  41
   1   0   3 1142.68 186.627  94
  -1   0  -3 1262.70 199.595  29
  -1   0  -3 1114.58 185.839  32
  -1   0  -3 1230.39 183.020  86
   1   0   3 1420.38 189.589  23
   1   0   3 1416.87 146.018   2
   1   0   4 13436.5 548.229   2
  -1   0  -4 13066.9 669.947  42
   1   0   4 13622.8 701.658  37
  -1   0  -4 12894.9 625.483  41
  -1   0  -4 13423.8 612.405  40
   1   0   4 14621.9 683.057  38
   1   0   4 12779.0 550.623  89
   1   0   4 13229.5 677.540  94
   1   0   4 12332.0 570.549  96
  -1   0  -4 12550.3 642.274  32
   1   0   4 11501.7 579.646  28
  -1   0  -4 11950.3 652.855  29
  -1   0  -4 13220.6 652.463  86
  -1   0  -4 13184.9 436.240  69
   1   0   4 12820.8 606.892  23
   1   0   5 6829.53 428.763   2
  -1   0  -5 7593.54 517.966  41
   1   0   5 7231.70 510.956  38
   1   0   5 7084.84 548.635  37
  -1   0  -5 6929.26 485.197  40
  -1   0  -5 7457.75 559.870  42
   1   0   5 6685.28 426.954  89
   1   0   5 7025.26 538.793  94
   1   0   5 6359.78 485.502  28
  -1   0  -5 6901.56 519.752  32
  -1   0  -5 6590.45 532.728  29
  -1   0  -5 6931.34 525.191  86
  -1   0  -5 7268.52 321.340  70
   1   0   5 6534.82 309.061  55
   1   0   5 6740.07 292.582  56
   1   0   5 6576.17 456.804  23
   1   0   6 3815.83 356.798   2
  -1   0  -6 3910.32 395.402  40
  -1   0  -6 3212.46 377.042  41
   1   0   6 4278.59 422.419  38
   1   0   6 4783.51 502.271  37
  -1   0  -6 4277.59 473.291  42
   1   0   6 2948.94 401.348  94
   1   0   6 4198.53 370.897  89
   1   0   6 4045.48 426.640  28
  -1   0  -6 3674.34 455.101  29
  -1   0  -6 4318.73 468.574  32
  -1   0  -6 4143.52 463.842  86
   1   0   6 3958.16 232.452  56
  -1   0  -6 4418.87 265.729  70
   1   0   6 4216.59 259.641  58
   1   0   6 4266.88 262.381  55
   1   0   6 4340.74 269.733  63
   1   0   6 4316.70 378.961  23
   1   0   7 134841. 3787.69   2
   1   0   7 130115. 3460.28 106
   1   0   7 139461. 4187.94  94
  -1   0  -7 137134. 4233.57  29
  -1   0  -7 135692. 4112.04  32
  -1   0  -7 135875. 4232.85  34
   1   0   7 132889. 3754.54  89
  -1   0  -7 142341. 4192.06  86
  -1   0  -7 136165. 3460.31  75
  -1   0  -7 133403. 3466.87  81
   1   0   7 134843. 3455.93  58
   1   0   7 137468. 3469.76  63
   1   0   7 137694. 3402.82  56
   1   0   7 134804. 3477.20  60
  -1   0  -7 137207. 3458.98  70
   1   0   7 139407. 3478.28  65
  -1   0  -7 141311. 4208.64  42
  -1   0  -7 132900. 3935.71  41
   1   0   7 134953. 3918.54  38
  -1   0  -7 136630. 3959.28  40
   1   0   7 141164. 4134.98  37
   1   0   8 12442.6 576.121 106
   1   0   8 11987.7 541.670  99
   1   0   8 12292.8 966.549  94
   1   0   8 12290.5 570.026  98
  -1   0  -8 12891.1 1008.57  34
  -1   0  -8 11672.9 913.066  32
  -1   0  -8 13162.0 1002.56  29
  -1   0  -8 12928.2 595.570  74
  -1   0  -8 11989.1 576.582  81
  -1   0  -8 12835.2 967.470  86
  -1   0  -8 12653.4 577.067  78
   1   0   8 13256.5 571.300  66
  -1   0  -8 12622.8 574.713  70
   1   0   8 13651.8 602.880  60
   1   0   8 9978.50 739.552  38
  -1   0  -8 12845.0 870.562  40
  -1   0  -8 12333.5 980.137  42
  -1   0  -8 12063.5 825.530  41
   1   0   8 13161.4 944.112  37
   1   0   9 5142.39 375.237 106
   1   0   9 5008.52 654.708  94
   1   0   9 4834.22 366.123  98
   1   0   9 5315.92 357.204  99
  -1   0  -9 5692.67 679.261  32
  -1   0  -9 5765.99 722.095  29
  -1   0  -9 4737.06 662.312  34
  -1   0  -9 5336.00 382.255  81
  -1   0  -9 5642.04 394.260  74
  -1   0  -9 4805.24 363.618  77
  -1   0  -9 5488.44 378.472  78
  -1   0  -9 5981.84 703.400  86
  -1   0  -9 5055.91 360.810  70
   1   0   9 5598.20 372.829  66
   1   0   9 5561.73 638.601  37
  -1   0  -9 4721.02 648.546  42
   1   0  10 1003.30 194.459 106
   1   0  10 746.651 325.346  94
   1   0  10 1096.19 187.527  98
   1   0  10 1150.83 183.205  99
  -1   0 -10 904.376 320.422  32
  -1   0 -10 1062.33 355.329  29
  -1   0 -10 846.843 327.401  34
  -1   0 -10 823.792 179.610  81
  -1   0 -10 716.003 158.696  76
  -1   0 -10 1049.16 326.107  86
  -1   0 -10 792.657 172.322  77
  -1   0 -10 993.168 151.602  72
  -1   0 -10 925.983 175.804  70
   1   0  10 1069.57 181.456  66
  -1   0 -10 651.511 305.030  42
   1   0  11 74508.4 2113.42  99
   1   0  11 76435.2 2184.87  98
   1   0  11 77656.6 3070.35  94
  -1   0 -11 78483.5 2968.04  32
  -1   0 -11 78520.3 3090.66  29
  -1   0 -11 73448.3 2127.71  84
  -1   0 -11 79086.2 3042.86  86
  -1   0 -11 75034.5 2144.13  76
  -1   0 -11 75936.4 2209.39  77
  -1   0 -11 80595.6 2237.61  81
   1   0  11 74779.5 2148.22  66
   1   0  11 77543.7 2226.14 106
  -1   0 -12 6997.45 385.042  76
  -1   0 -12 6668.79 371.985  84
  -1   0 -12 6328.16 692.729  86
  -1   0 -12 6996.23 418.028  81
  -1   0 -12 5301.39 671.432  29
   1   0  12 6089.09 699.319  94
   1   0  12 6104.09 347.018  99
   1   0  12 6829.50 398.296  98
   1   0  12 7032.93 418.651  93
  -1   0 -12 6528.88 360.878 110
   1   0  12 7294.56 430.658 106
  -1   0 -13 24882.4 788.200  76
  -1   0 -13 23775.1 769.716  84
   1   0  13 27139.6 877.665 106
  -1   0 -13 27372.3 908.777  27
   1   0  13 24865.6 809.074  98
   1   0  13 26077.3 857.246  93
   1   0  14 3827.30 210.443 106
  -1   0 -14 3907.41 220.684  27
   1  -1 -14 3642.68 208.016  84
   1  -1 -14 3631.72 211.877  76
   1   1 -14 3267.80 183.021 110
   1   1 -14 3408.80 192.148 101
   1  -1 -14 3583.11 204.348 110
   1  -1 -14 3940.76 229.578  27
   1   1 -14 3654.21 203.469  27
  -1  -1  14 3202.48 189.137  99
  -1   1  13 17601.7 683.738 106
  -1  -1  13 16489.6 629.003 106
   1   1 -13 17522.4 645.116 110
   1  -1 -13 18045.2 666.088 110
  -1  -1  13 18050.8 666.365  93
  -1   1  13 17019.7 651.354  98
  -1  -1  13 17275.4 656.620  99
   1  -1 -13 18232.3 673.839  84
   1   1 -13 17005.0 642.762  84
   1  -1 -13 16908.7 629.925  72
  -1   1  13 18842.3 660.504   7
   1   1 -12 37257.3 1182.19  26
  -1   1  12 39358.0 1266.03   7
  -1   1  12 37247.4 1154.07   6
   1   1 -12 40035.3 1257.69 110
  -1   1  12 39952.2 1300.39 106
  -1  -1  12 37981.2 1200.29 108
  -1  -1  12 39881.1 1243.69 106
  -1   1  12 40409.2 1281.25  98
  -1  -1  12 42061.8 1285.56  93
  -1   1  12 40204.2 1283.57  93
  -1   1  12 34912.9 1148.62  99
  -1  -1  12 40367.8 1276.05  99
   1   1 -12 38700.9 1935.09  29
   1  -1 -12 37901.0 1894.66  29
   1   1 -12 36711.3 1896.02  32
   1  -1 -12 39391.7 1192.19  81
   1   1 -12 39394.8 1261.33  76
   1   1 -12 39083.4 1252.62  84
   1   1 -12 38021.5 1910.87  86
   1  -1 -12 41214.2 1259.32  77
   1  -1 -12 39867.3 1249.87  72
   1  -1 -12 37883.7 1904.30  86
   1  -1 -12 37471.7 1178.47  73
   1  -1 -12 40150.3 1812.51  71
   1   1 -12 34373.8 1140.32  72
  -1   1  12 37585.3 1177.19  48
  -1   1  11 17200.8 701.540   6
   1   1 -11 17140.0 743.717 110
  -1  -1  11 17762.3 739.102 106
  -1  -1  11 16982.2 743.076  93
  -1   1  11 16504.3 748.014  93
  -1  -1  11 17307.9 754.647  99
  -1  -1  11 14517.6 1116.19  94
  -1   1  11 16171.2 682.134  99
  -1   1  11 16801.2 757.227  98
   1  -1 -11 16458.2 1181.79  32
  -1  -1  11 15734.8 1202.36  28
   1  -1 -11 18694.1 1326.12  29
   1   1 -11 16412.9 1271.72  32
   1   1 -11 15465.4 1236.08  29
   1  -1 -11 16745.4 696.518  81
   1   1 -11 16818.8 1271.68  86
   1   1 -11 17954.9 756.402  84
   1   1 -11 17345.2 749.781  76
   1  -1 -11 17350.5 744.475  77
   1  -1 -11 16457.2 1282.74  86
  -1  -1  11 16040.3 638.392  67
   1   1 -11 16235.3 682.172  72
   1  -1 -11 15304.0 1160.74  71
   1  -1 -11 17582.3 772.878  70
   1   1 -11 16896.3 1235.15  40
  -1  -1  10 971.051 337.752  28
  -1   1  10 1012.71 188.635   6
  -1   1  10 1021.43 313.997   2
  -1  -1  10 1281.06 197.874 106
   1   1 -10 1312.15 210.929 110
  -1  -1  10 1256.25 206.276  93
  -1   1  10 1162.65 205.377  93
  -1  -1  10 764.043 282.943  94
  -1   1  10 1284.08 384.017  94
  -1   1  10 1181.36 182.307  99
   1   1 -10 1432.72 185.271 100
  -1   1  10 1533.91 228.204  98
  -1  -1  10 1207.90 212.926  99
   1  -1 -10 1876.83 459.366  29
   1   1 -10 1198.86 368.146  32
   1  -1 -10 1422.00 406.660  34
   1  -1 -10 879.298 323.766  32
   1   1 -10 832.205 337.136  29
   1   1 -10 1351.49 347.146  34
  -1  -1  10 1148.87 312.373  89
   1  -1 -10 1105.78 183.611  81
   1  -1 -10 1006.18 193.038  77
   1   1 -10 1171.16 207.605  76
   1   1 -10 1177.15 368.114  86
   1   1 -10 1231.75 209.419  84
   1  -1 -10 1182.91 395.306  86
   1   1 -10 1287.36 171.619  73
   1  -1 -10 1209.35 196.985  74
   1  -1 -10 1088.75 202.511  70
   1   1 -10 1371.86 322.484  71
  -1  -1  10 1221.57 203.197  64
  -1  -1  10 1420.31 190.266  67
   1   1 -10 1074.22 176.905  72
   1  -1 -10 1863.88 429.608  42
   1  -1 -10 1071.29 330.545  41
   1   1 -10 1510.46 402.021  40
  -1  -1   9 7617.52 720.323   2
  -1   1   9 7318.20 776.459   2
  -1  -1   9 8288.67 466.082 106
  -1   1   9 8919.62 904.790  94
  -1   1   9 8534.92 454.032  99
  -1   1   9 8575.94 490.475  93
  -1  -1   9 8181.39 797.142  94
  -1   1   9 7735.61 478.669  98
   1  -1  -9 8251.27 851.043  29
  -1  -1   9 9310.53 899.963  28
   1   1  -9 8394.19 796.424  34
   1   1  -9 7834.50 842.550  32
   1   1  -9 7587.59 841.709  29
   1  -1  -9 8797.54 900.984  34
   1  -1  -9 8250.40 809.287  32
  -1  -1   9 8019.66 875.181  35
   1  -1  -9 8704.10 480.650  77
   1   1  -9 8339.45 435.610  73
   1  -1  -9 7327.21 829.854  86
  -1  -1   9 7655.07 758.886  89
   1   1  -9 9028.70 497.341  76
   1   1  -9 8488.80 457.438  72
   1  -1  -9 8290.04 451.500  81
   1  -1  -9 8584.52 473.016  74
   1   1  -9 6696.78 806.297  86
   1   1  -9 8805.27 487.885  84
   1  -1  -9 9190.98 512.647  70
  -1  -1   9 8202.73 472.566  64
  -1  -1   9 7863.58 436.832  59
  -1  -1   9 7929.43 439.304  67
   1   1  -9 7964.74 738.009  71
   1   1  -9 9449.34 926.479  42
   1  -1  -9 8213.70 844.482  42
   1  -1  -9 9012.14 833.322  41
   1   1  -9 8491.66 864.639  40
  -1  -1   8 1483.30 384.051  28
  -1  -1   8 1424.98 315.416   2
  -1   1   8 1717.67 368.683   2
  -1  -1   8 1510.43 191.724 106
  -1   1   8 1356.45 178.687  99
  -1   1   8 1723.05 204.587  93
  -1  -1   8 1544.07 340.406  94
  -1   1   8 1821.38 217.300  98
   1   1  -8 1582.96 334.888  34
  -1  -1   8 1446.90 381.920  35
  -1  -1   8 1445.08 298.676  37
   1  -1  -8 1960.12 370.676  32
   1  -1  -8 1604.11 382.788  29
   1   1  -8 1602.01 389.602  32
   1   1  -8 1193.33 348.525  29
   1   1  -8 1404.99 181.070  72
   1   1  -8 1546.20 195.136  81
   1   1  -8 1385.77 184.291  77
  -1  -1   8 1470.29 292.374  87
   1  -1  -8 1568.57 195.575  74
   1   1  -8 1566.87 181.774  73
   1   1  -8 1567.42 377.124  86
   1   1  -8 1206.55 181.969  84
  -1  -1   8 2084.03 397.570  89
   1   1  -8 1544.47 199.250  76
   1  -1  -8 1607.50 190.220  81
   1  -1  -8 1378.99 369.135  86
  -1  -1   8 1609.05 207.112  66
  -1  -1   8 1514.45 202.880  64
   1   1  -8 1675.69 333.156  71
   1  -1  -8 1331.69 191.533  70
  -1  -1   8 1479.79 184.500  59
  -1  -1   8 1472.02 183.736  67
   1   1  -8 1258.43 335.934  40
   1  -1  -8 1623.63 312.008  40
   1   1  -8 1704.91 390.923  42
   1  -1  -8 1299.77 347.753  42
   1   1  -7 22449.9 1277.70  42
   1  -1  -7 22928.2 1258.98  42
  -1   1   7 23065.0 826.635  49
   1  -1  -7 23383.1 1143.65  40
   1   1  -7 23073.3 1269.54  40
  -1   1   7 24316.7 829.805  98
  -1  -1   7 22017.5 1171.13  94
  -1   1   7 22625.5 805.077  93
  -1  -1   7 23325.0 1324.12  35
  -1   1   7 23898.8 1337.26  28
   1  -1  -7 23453.1 1231.79  32
  -1  -1   7 23777.6 1306.38  28
   1   1  -7 23399.8 1190.64  34
   1   1  -7 23006.4 1285.84  29
  -1  -1   7 23397.3 1173.58  37
   1  -1  -7 23300.1 1311.42  29
   1  -1  -7 21737.5 786.581  74
   1   1  -7 22956.4 811.804  76
  -1   1   7 20717.0 970.564  89
   1   1  -7 23138.4 780.162  73
  -1  -1   7 23839.4 1240.69  89
   1   1  -7 23568.1 796.299  72
   1   1  -7 23747.4 1292.69  86
   1   1  -7 23428.3 813.704  84
   1  -1  -7 23515.0 1281.87  86
  -1  -1   7 21135.6 1084.80  87
  -1  -1   7 22692.8 813.077  66
   1  -1  -7 24878.1 839.291  70
  -1  -1   7 22274.4 804.757  64
   1   1  -7 22918.2 1165.37  71
  -1  -1   7 22032.8 784.564  59
  -1   1   7 22828.2 1248.27   2
  -1  -1   7 21459.8 1136.07   2
  -1  -1   6 38680.4 1368.72  38
   1  -1  -6 44099.9 1583.72  40
   1   1  -6 42979.3 1726.45  40
   1   1  -6 40422.1 1683.73  42
   1  -1  -6 44349.9 1726.87  42
  -1   1   6 37863.9 1262.04  37
   1  -1  -6 41642.3 1427.72  46
  -1  -1   6 44180.1 1627.67  94
   1   1  -6 42184.8 1585.25  34
  -1  -1   6 42880.5 1607.99  37
  -1   1   6 47375.1 1859.93  28
   1  -1  -6 41261.8 1658.17  32
  -1  -1   6 42420.1 1796.04  35
   1   1  -6 43756.4 1728.15  29
  -1  -1   6 43509.5 1752.47  28
   1  -1  -6 40215.1 1693.66  29
  -1  -1   6 42549.4 1672.90  89
  -1  -1   6 41594.6 1558.82  87
   1   1  -6 42147.5 1196.80  73
   1   1  -6 41574.3 1222.58  76
   1   1  -6 44526.5 1734.13  86
   1  -1  -6 42147.3 1208.38  74
   1   1  -6 41045.3 1197.14  72
  -1   1   6 41215.4 1434.20  89
   1  -1  -6 43130.4 1735.59  86
   1  -1  -6 39276.8 1145.59  69
   1   1  -6 43860.2 1619.20  71
  -1  -1   6 41966.5 1206.84  59
  -1  -1   6 45397.4 1640.45   2
  -1   1   6 47116.7 1761.38   2
  -1   1   5 144862. 3877.63   2
  -1  -1   5 141960. 3749.75   2
   1   1  -5 144269. 3873.34  42
  -1  -1   5 134519. 3683.02  39
   1  -1  -5 134752. 3669.53  40
   1  -1  -5 131906. 3800.59  42
   1   1  -5 139954. 3858.49  40
  -1   1   5 125474. 3358.93  37
  -1  -1   5 130555. 3524.06  38
  -1  -1   5 139026. 3823.20  89
  -1  -1   5 134165. 3686.95  94
   1  -1  -5 139894. 3896.39  34
   1   1  -5 135994. 3730.86  36
   1  -1  -5 134069. 3764.49  32
   1   1  -5 141510. 3849.46  29
  -1   1   5 134654. 3907.94  28
  -1  -1   5 139463. 3921.24  35
   1  -1  -5 137450. 3869.89  29
   1   1  -5 138968. 3677.01  34
   1  -1  -5 136382. 3841.58  86
  -1   1   5 139060. 3566.73  89
   1   1  -5 135223. 3298.42  72
  -1  -1   5 139514. 3722.75  87
   1   1  -5 137559. 3839.11  86
  -1  -1   5 133336. 3305.88  59
   1   1  -5 134134. 3723.44  71
   1   1  -5 121403. 3291.12  18
  -1  -1   5 134676. 3850.84  28
  -1   1   4 21297.8 951.224   2
   1  -1  -4 21003.9 848.765  40
   1   1  -4 21263.6 950.073  40
   1  -1  -4 21275.4 919.829  42
  -1   1   4 20557.2 724.751  45
   1   1  -4 20635.8 902.955  42
  -1  -1   4 20420.2 863.614  39
  -1  -1   4 20310.3 826.729  94
   1   1  -4 21166.6 936.862  32
   1   1  -4 20686.2 814.991  34
  -1   1   4 20760.7 986.195  28
   1   1  -4 21267.2 914.294  29
  -1  -1   4 22880.0 1007.71  35
   1  -1  -4 20244.3 680.644  36
   1  -1  -4 22175.2 974.453  34
  -1  -1   4 20893.3 951.333  31
   1   1  -4 21041.3 908.297  36
   1  -1  -4 20388.2 888.959  32
  -1  -1   4 22383.3 908.539  87
  -1   1   4 20919.3 796.903  89
   1   1  -4 20158.8 911.703  86
   1   1  -4 21812.5 897.055  71
  -1  -1   4 20910.3 640.649  56
   1   1  -4 19758.3 715.094  18
  -1  -1   4 19860.3 938.458  28
  -1   1   3 505664. 12205.3   2
   1  -1  -3 515507. 12106.1  40
   1   1  -3 529938. 12159.1  42
   1  -1  -3 518204. 12180.2  42
  -1  -1   3 502681. 12144.3  39
   1  -1  -3 521054. 12150.0  44
  -1   1   3 508576. 12014.9  45
  -1   1   3 515043. 12175.4  94
  -1  -1   3 528920. 12221.7  89
   1  -1  -3 494620. 11941.5  36
   1   1  -3 525232. 12145.4  29
  -1  -1   3 509745. 12222.4  31
   1   1  -3 512624. 12206.1  36
   1   1  -3 503122. 11986.1  34
  -1  -1   3 525668. 12270.1  35
  -1  -1   3 519854. 12176.2  33
   1   1  -3 518610. 12201.1  32
  -1   1   3 497013. 12036.4  89
   1   1  -3 510526. 12202.1  86
  -1  -1   3 509967. 12162.9  87
   1   1  -3 501956. 12127.7  71
  -1  -1   3 505751. 12238.7  28
   1   1  -3 496668. 12013.3  18
  -1   1   3 485379. 12017.2  18
  -1  -1   2 299877. 7217.79  89
   1   1  -2 289620. 6970.60  34
   1   1  -2 305387. 7169.09  32
  -1  -1   2 297464. 7203.60  33
  -1  -1   2 294739. 7227.73  31
  -1  -1   2 299271. 7256.80  35
   1   1  -2 292178. 7225.67  36
   1   1  -2 295503. 7202.71  86
  -1  -1   2 298616. 7154.89  43
  -1   1   2 300549. 7140.44  45
   1   1  -2 297582. 7220.77  40
   1  -1  -2 308916. 7200.17  44
  -1  -1   2 286464. 7190.07  39
   1   1  -2 299449. 7120.01  42
   1   1  -2 297880. 7157.96  23
  -1  -1   2 292126. 7251.37  28
  -1   1   2 298389. 7147.20  18
  -1  -1   1 999999. 21895.0  39
   1   1  -1 938310. 21676.9  42
   1   1  -1 939134. 21785.6  40
  -1  -1   1 926434. 21800.8  89
  -1  -1   1 943659. 21854.3  33
  -1  -1   1 949580. 21883.3  31
  -1  -1   1 926481. 21859.8  87
  -1   1   1 933542. 21816.5   2
   1  -1  -1 908616. 21654.5  19
   1   1  -1 945815. 21852.6  23
  -1  -1   0 141935. 3590.50  41
   1   1   0 138662. 3473.46  40
  -1  -1   0 158289. 3693.84  39
   1   1   0 149332. 3649.29  38
  -1   1   0 149852. 3653.73  45
  -1  -1   0 139910. 3515.79  89
  -1  -1   0 151093. 3609.22  87
  -1  -1   0 150646. 3684.46  33
   1  -1   0 142414. 3387.59  31
  -1  -1   0 140643. 3434.36  34
   1   1   0 149873. 3608.32  36
  -1  -1   0 154019. 3672.96  31
  -1   1   0 143225. 3537.23   2
   1   1   0 148242. 3654.56  23
   1   1   0 147405. 3613.28  19
  -1   1   0 153313. 3657.38  18
  -1   1  -1 134992. 3313.97  41
   1  -1   1 139487. 3368.28  46
   1  -1   1 136188. 3426.52  43
  -1  -1  -1 138728. 3459.27  41
  -1   1  -1 135935. 3411.93  45
  -1  -1  -1 127495. 3179.79  42
  -1  -1  -1 139343. 3347.65  87
   1  -1   1 140178. 3322.48  35
  -1  -1  -1 134931. 3340.34  34
   1   1   1 135585. 3302.37  36
   1   1   1 140444. 3455.44   2
   1   1   1 134085. 3434.69  23
  -1   1  -1 137353. 3413.60  18
   1   1   1 137134. 3357.19  19
  -1   1  -2 151269. 3958.90  45
   1   1   2 163879. 4079.38  38
   1   1   2 160403. 3956.04  46
  -1  -1  -2 154963. 3877.69  42
   1  -1   2 161776. 3883.33  46
  -1  -1  -2 165362. 4118.90  41
   1   1   2 164724. 4088.11  37
  -1   1  -2 157193. 3867.20  41
   1  -1   2 166402. 4095.33  43
  -1   1  -2 162571. 4046.54  34
   1   1   2 152573. 3775.14  36
  -1   1  -2 162453. 4085.71  29
   1  -1   2 161063. 3946.24  35
  -1  -1  -2 162578. 4038.46  34
  -1  -1  -2 159389. 3899.95  87
   1   1   2 165219. 4057.24   2
  -1   1  -2 157777. 3969.25  18
   1   1   2 159732. 4031.65  23
   1   1   2 164031. 3940.69  19
   1   1   3 163621. 4055.20  38
   1  -1   3 175979. 4161.14  38
  -1  -1  -3 158378. 3923.33  42
  -1  -1  -3 147558. 3693.02  40
  -1   1  -3 149994. 3853.10  45
  -1   1  -3 152646. 3795.10  41
   1   1   3 162721. 4073.01  37
  -1   1  -3 153193. 4094.09  40
   1   1   3 153407. 4008.53  94
   1  -1   3 153969. 4012.70  94
   1   1   3 161230. 4062.69  96
  -1   1  -3 151697. 4091.21  32
  -1  -1  -3 147258. 3830.63  32
  -1   1  -3 161691. 4056.72  34
   1  -1   3 161953. 3959.42  35
  -1  -1  -3 160796. 4074.48  34
  -1   1  -3 156176. 4008.29  86
   1   1   3 156602. 3965.73  23
   1   1   3 151118. 3860.23  18
   1  -1   3 151770. 3887.80  28
   1   1   3 161732. 3897.33  19
  -1   1  -3 154177. 3865.02  18
   1  -1   3 147913. 3713.86   2
   1   1   3 163090. 4030.88   2
   1   1   4 3945.60 351.578   2
   1  -1   4 3023.41 214.733   2
  -1   1  -4 2945.02 237.382  41
  -1  -1  -4 3397.15 229.848  40
   1  -1   4 3601.34 366.458  38
   1   1   4 2769.94 219.908  44
   1   1   4 3754.43 355.680  37
  -1  -1  -4 3127.93 354.530  41
  -1   1  -4 2828.18 221.610  45
  -1   1  -4 3817.18 369.788  40
  -1  -1  -4 3826.24 327.262  42
   1   1   4 3456.25 333.243  38
   1  -1   4 2867.01 318.774  94
   1   1   4 3313.33 340.210  94
   1   1   4 3375.05 343.603  96
   1  -1   4 3465.15 333.538  89
  -1   1  -4 3190.35 355.235  32
  -1  -1  -4 3868.49 346.608  29
  -1  -1  -4 4129.36 387.969  34
  -1  -1  -4 3813.02 305.581  32
  -1   1  -4 3568.78 353.101  34
   1  -1   4 4018.07 343.346  35
  -1   1  -4 3684.04 353.677  86
  -1   1  -4 3478.33 192.603  70
   1  -1   4 3382.85 196.990  57
  -1  -1  -4 3409.47 207.812  69
   1   1   4 3442.84 285.798  19
   1   1   4 3255.51 230.258  18
   1   1   4 3443.03 301.528  23
   1  -1   4 3026.82 289.767  28
   1   1   5 14868.0 786.866   2
   1  -1   5 14126.9 600.585   2
  -1  -1  -5 16089.9 820.875  42
  -1   1  -5 15146.5 641.256  41
  -1  -1  -5 15317.5 873.252  41
   1   1   5 17099.5 830.158  38
   1  -1   5 16782.6 879.422  38
  -1   1  -5 17064.5 896.536  40
  -1   1  -5 15057.7 883.896  42
   1   1   5 16101.8 845.320  37
  -1  -1  -5 15371.5 642.424  40
   1  -1   5 16595.9 838.186  89
   1   1   5 14130.1 807.592  96
   1  -1   5 15387.6 837.606  94
   1   1   5 17139.1 885.989  94
   1  -1   5 16566.1 831.666  35
  -1   1  -5 16112.3 863.656  34
   1  -1   5 15913.8 774.947  28
  -1  -1  -5 16147.6 902.024  34
  -1  -1  -5 15766.1 766.363  32
  -1   1  -5 16477.9 900.105  32
  -1  -1  -5 16339.9 852.571  29
   1  -1   5 18109.6 965.578  37
  -1   1  -5 17765.9 883.769  86
  -1   1  -5 15419.7 554.289  74
  -1   1  -5 15373.7 540.540  70
   1  -1   5 15477.4 546.533  57
   1  -1   5 15838.7 560.433  55
   1   1   5 15482.4 525.672  55
   1  -1   5 14894.9 558.824  58
  -1  -1  -5 15327.2 554.095  69
   1   1   5 15648.5 719.462  19
   1   1   5 12655.7 482.774  18
   1   1   5 15882.9 716.413  23
   1   1   6 27680.3 1202.06   2
   1  -1   6 25340.3 1217.65  38
  -1  -1  -6 23798.1 1184.43  42
  -1  -1  -6 26347.6 1303.97  41
  -1   1  -6 26162.2 1318.94  42
   1   1   6 26783.2 1159.10  38
   1   1   6 26378.3 1214.75  37
  -1   1  -6 26866.2 1275.27  40
   1  -1   6 24839.8 1217.71  94
   1  -1   6 25390.9 1186.15  89
   1   1   6 27381.3 1290.56  94
  -1   1  -6 27232.4 1282.77  34
  -1  -1  -6 24497.7 1125.39  32
   1  -1   6 27388.3 1173.00  28
  -1  -1  -6 27263.6 1340.84  34
  -1  -1  -6 25875.1 1235.84  29
   1  -1   6 27850.4 1353.75  37
  -1   1  -6 26874.6 1325.03  32
   1  -1   6 28715.8 1253.34  35
  -1  -1  -6 26312.4 1268.91  86
  -1   1  -6 25845.3 855.933  74
  -1   1  -6 28330.4 1287.00  86
  -1  -1  -6 25951.8 849.474  75
  -1   1  -6 25494.8 766.557  72
   1  -1   6 24369.4 825.988  63
   1   1   6 24762.2 848.393  63
  -1   1  -6 25106.3 832.075  70
   1  -1   6 25854.7 841.656  56
  -1  -1  -6 26762.9 857.656  69
   1  -1   6 25595.5 851.456  55
   1   1   6 25963.4 1060.71  19
   1  -1   7 35892.0 1473.26  23
   1   1   7 38077.9 1399.02  19
   1   1   7 34843.2 1516.11   2
   1  -1   7 34790.5 1122.86 106
   1   1   7 35678.9 1136.11 106
   1  -1   7 39789.8 1709.90  94
   1   1   7 33784.0 1107.52  97
   1   1   7 36477.9 1153.49  98
   1  -1   7 34212.1 1537.04  89
   1   1   7 38271.3 1712.43  94
  -1  -1  -7 39270.4 1796.68  34
  -1  -1  -7 37289.6 1548.02  32
   1  -1   7 37821.6 1630.66  35
   1  -1   7 36507.0 1722.21  37
   1  -1   7 32020.3 1469.92  28
  -1   1  -7 36602.7 1709.06  32
  -1  -1  -7 37328.6 1662.86  29
  -1   1  -7 38054.0 1697.38  34
  -1  -1  -7 33929.9 1120.12  75
  -1  -1  -7 39342.3 1721.88  86
  -1   1  -7 37764.9 1165.20  81
  -1   1  -7 36013.4 1653.68  86
  -1   1  -7 37028.2 1108.91  76
  -1   1  -7 34863.2 1036.07  72
   1  -1   7 35688.3 1125.14  56
   1  -1   7 33934.0 1117.67  65
   1  -1   7 35854.2 1126.91  63
   1  -1   7 38205.8 1168.77  60
  -1  -1  -7 36160.0 1141.09  69
   1  -1   7 35005.7 1137.29  55
  -1   1  -7 39723.7 1792.78  42
  -1  -1  -7 37031.9 1632.36  42
  -1   1  -7 37259.8 1673.35  40
   1  -1   7 34640.4 1554.26  38
  -1  -1  -7 37814.7 1701.23  41
   1   1   7 37000.7 1480.43  38
   1   1   7 35437.2 1567.82  37
  -1   1  -8 14938.9 636.954  26
   1   1   8 15382.0 969.790   2
   1  -1   8 16304.1 678.121 106
   1   1   8 16455.4 691.900 106
   1  -1   8 15864.0 1010.29  89
   1  -1   8 17109.2 1125.93  94
   1   1   8 16714.2 701.089  98
   1   1   8 15297.8 647.564  97
   1   1   8 17783.3 1181.42  94
   1  -1   8 16036.4 643.833  98
   1  -1   8 16068.6 1002.77  28
  -1   1  -8 16874.6 1137.92  34
  -1  -1  -8 15420.2 1006.03  32
  -1  -1  -8 16940.4 1203.95  34
  -1  -1  -8 17117.0 1135.55  29
  -1   1  -8 17035.8 1168.44  32
  -1   1  -8 15699.0 644.309  76
  -1   1  -8 16411.3 649.057  84
  -1  -1  -8 16055.4 670.197  75
  -1  -1  -8 15776.2 685.359  74
  -1   1  -8 15758.9 1101.08  86
  -1  -1  -8 15695.3 670.085  78
  -1  -1  -8 16543.7 1150.28  86
   1  -1   8 15319.4 960.924  87
  -1   1  -8 16633.1 701.341  81
   1  -1   8 16175.2 668.875  56
   1   1   8 15830.7 622.046  66
  -1  -1  -8 15923.6 681.308  70
   1  -1   8 15678.1 618.358  59
   1  -1   8 15855.9 690.387  60
   1  -1   8 15509.6 669.736  65
  -1  -1  -8 16403.4 1107.27  41
   1  -1   8 15954.4 997.895  38
   1  -1   8 15114.0 1117.71  37
   1   1   8 17860.4 1063.03  37
  -1   1  -8 17069.3 1118.63  40
   1   1   8 15264.4 650.729  49
  -1   1  -8 16372.5 1179.72  42
  -1  -1  -8 17316.9 1124.78  42
  -1   1  -9 18764.5 766.842  26
   1   1   9 18803.6 789.895   7
   1   1   9 21246.2 840.714 106
   1  -1   9 21090.2 824.015 106
  -1   1  -9 19752.3 769.700 110
   1  -1   9 20453.1 822.349  99
   1   1   9 20687.0 842.681  98
   1   1   9 18881.5 768.833  97
   1  -1   9 20023.1 1305.06  94
   1  -1   9 20543.7 783.059  98
  -1  -1  -9 21107.8 1430.21  34
  -1   1  -9 20664.3 1400.57  29
  -1   1  -9 19004.4 1296.14  34
  -1  -1  -9 18769.4 1277.46  29
  -1   1  -9 19518.3 1349.37  32
  -1  -1  -9 20958.0 1233.35  32
  -1  -1  -9 21076.3 847.969  74
  -1  -1  -9 20697.2 834.849  81
   1  -1   9 19373.4 1159.43  89
  -1  -1  -9 20185.5 812.751  78
  -1   1  -9 19999.9 778.051  84
  -1  -1  -9 21550.5 1384.49  86
  -1   1  -9 20778.4 1351.34  86
  -1   1  -9 20123.7 782.053  76
  -1   1  -9 19798.3 829.195  81
   1   1   9 19846.6 750.806  66
   1  -1   9 19361.0 775.065  64
  -1  -1  -9 19954.8 819.489  70
   1  -1   9 20758.7 811.169  56
   1  -1   9 21773.3 857.870  60
   1  -1   9 21011.0 836.857  66
   1  -1   9 19608.0 728.838  59
   1  -1   9 18767.6 1280.26  37
  -1   1  -9 19782.1 1386.37  42
  -1  -1  -9 21967.6 1359.95  42
  -1  -1  -9 18501.6 1243.38  41
  -1   1 -10 27327.4 973.149  26
   1   1  10 28229.1 1018.76   7
   1  -1  10 29195.8 1056.25 106
   1   1  10 29055.8 1072.21 106
  -1   1 -10 26781.5 971.251 110
   1  -1  10 28649.0 1044.65  99
   1  -1  10 27543.4 1613.05  94
   1   1  10 27897.3 1030.09  93
   1  -1  10 27983.3 991.162  98
   1   1  10 29469.8 1083.23  98
  -1  -1 -10 29216.7 1654.54  29
  -1   1 -10 29231.2 1723.11  32
  -1   1 -10 30385.5 1754.63  29
  -1   1 -10 29431.2 1677.24  34
  -1   1 -10 28073.6 1068.19  81
  -1   1 -10 28566.3 1652.75  86
  -1  -1 -10 29245.5 1680.95  86
  -1  -1 -10 27773.9 1025.61  78
  -1   1 -10 28992.8 1004.10  76
  -1  -1 -10 28060.1 1054.69  81
  -1  -1 -10 30180.5 1090.10  74
  -1  -1 -10 29051.8 1072.44  77
  -1   1 -10 28140.8 990.453  84
   1  -1  10 29047.1 1062.80  66
   1  -1  10 27541.8 983.904  64
  -1  -1 -10 28608.0 1056.99  70
  -1  -1 -10 26356.6 1583.39  42
  -1  -1 -10 25128.5 1488.32  41
  -1   1 -10 28358.3 1733.90  42
   1  -1  10 24791.3 1520.99  37
   1  -1  11 38192.4 1259.46 106
   1   1  11 38418.2 1286.02 106
  -1   1 -11 35453.6 1167.21 110
   1   1  11 37682.1 1291.19  98
   1  -1  11 38335.8 1250.26  99
   1   1  11 37190.1 1242.21  93
   1  -1  11 36910.1 1181.48  98
   1  -1  11 36440.6 1866.74  94
  -1  -1 -11 34776.5 1835.58  29
  -1   1 -11 38892.1 1970.95  32
  -1   1 -11 38564.8 1993.45  29
  -1  -1 -11 38263.1 1289.27  74
  -1   1 -11 35055.4 1169.89  84
  -1   1 -11 35363.8 1857.98  86
  -1  -1 -11 37509.0 1223.73  78
  -1  -1 -11 38504.0 1280.79  81
  -1   1 -11 34862.9 1174.93  76
  -1  -1 -11 38254.0 1285.63  77
  -1  -1 -11 37844.3 1931.36  86
   1  -1  11 38351.3 1269.46  66
   1  -1  11 36772.1 1165.85  64
  -1  -1 -11 39231.5 1274.66  70
   1   1  11 36770.6 1203.41   7
  -1   1 -12 4588.69 286.653 110
   1  -1  12 5965.00 367.972 106
   1   1  12 5525.12 373.069 106
   1  -1  12 4791.63 589.361  94
   1   1  12 5319.00 342.844  93
   1  -1  12 5658.93 346.813  99
  -1   1 -12 5546.04 348.231 100
   1  -1  12 6116.30 380.069  93
   1   1  12 5778.48 373.459  98
  -1  -1 -12 4902.96 593.790  29
  -1   1 -12 5219.77 656.210  29
  -1  -1 -12 5539.41 341.571  84
  -1  -1 -12 5582.16 367.168  81
  -1  -1 -12 5736.18 372.612  77
  -1   1 -12 4728.04 296.048  84
  -1   1 -12 5086.73 606.485  86
  -1  -1 -12 5425.79 636.464  86
  -1  -1 -12 5824.84 354.068  76
  -1  -1 -12 5763.23 403.130  27
  -1   1 -12 4902.10 355.163  27
   1   1  12 5163.79 311.850   7
   1   1  13 4402.12 267.983  93
   1  -1  13 4919.26 293.704  93
  -1   1 -13 3791.75 236.250 100
   1  -1  13 4747.89 263.523  99
   1   1  13 4469.29 280.673  98
   1  -1  13 4649.73 276.526 106
  -1  -1 -13 4436.92 260.611  76
  -1  -1 -13 4399.19 255.081  84
  -1  -1 -13 5305.97 296.486  81
  -1  -1 -13 4778.70 312.630  27
  -1   1 -13 4437.57 284.771  27
   1   1  13 4298.70 258.960  48
  -1   1 -14 5760.05 253.845 101
   1   1  14 5319.70 246.509 106
  -1  -1 -14 5350.33 254.103  27
   1  -1  14 5544.26 248.704  93
  -1   2  13 3388.01 232.231   7
   1   2 -13 3557.80 235.342 101
  -1  -2  13 3547.95 216.886 108
   1   2 -13 3097.32 210.688 110
  -1  -2  13 2764.05 200.552  93
  -1   2  13 3371.06 243.683  98
   1  -2 -13 4039.73 256.165  76
  -1   2  13 2797.14 191.105  48
   1  -2 -13 2876.50 217.241  27
   1   2 -13 3232.85 206.543  26
   1   2 -12 1497.38 189.403  26
  -1   2  12 1285.41 189.561   7
   1   2 -12 1486.40 197.818 101
  -1   2  12 1405.79 199.070 106
   1   2 -12 1303.13 181.160 110
  -1  -2  12 1519.36 181.501  93
  -1   2  12 1022.30 183.197  98
   1   2 -12 1275.81 314.674  29
   1  -2 -12 1027.82 308.274  86
   1  -2 -12 1542.88 195.697  76
   1  -2 -12 1754.37 196.326  77
   1  -2 -12 1552.66 344.177  71
   1  -2 -12 1429.82 198.644  70
  -1   2  12 1415.71 179.404  48
   1   2 -11 13523.4 639.136  26
  -1   2  11 14563.1 633.297   6
  -1   2  11 14352.2 675.470   7
  -1  -2  11 13434.2 579.482 106
  -1   2  11 13325.9 653.689 106
   1   2 -11 14646.9 653.758 110
  -1  -2  11 14544.1 634.454  93
  -1  -2  11 14467.0 670.033  99
  -1   2  11 14644.6 693.326  98
   1   2 -11 13790.3 1086.36  29
   1  -2 -11 13266.5 1048.95  29
   1  -2 -11 13888.2 1139.94  86
   1  -2 -11 14266.7 625.993  74
   1  -2 -11 14094.6 645.358  77
   1   2 -11 13704.7 636.726  84
   1  -2 -11 14135.8 598.468  81
  -1  -2  11 14141.2 656.510  64
   1  -2 -11 14843.2 682.961  70
  -1  -2  11 13694.8 605.246  67
  -1   2  11 15092.9 657.903  48
   1  -2 -11 11828.1 1011.70  41
  -1   2  10 20307.5 1419.63   2
  -1   2  10 25491.1 960.339   6
  -1   2  10 23676.0 976.109   7
  -1   2  10 23569.5 860.589   8
  -1   2  10 24324.7 970.220 106
  -1  -2  10 24890.6 890.135 106
   1   2 -10 25067.1 959.415 110
  -1   2  10 24974.2 998.042  98
   1   2 -10 23809.0 895.317 100
  -1   2  10 24662.2 944.340  93
  -1  -2  10 25506.7 935.674  93
  -1  -2  10 27136.7 997.013  99
   1  -2 -10 22459.1 1458.70  29
   1   2 -10 23366.1 1494.96  29
   1   2 -10 26726.2 1650.50  32
  -1  -2  10 22116.3 1549.92  35
  -1  -2  10 21168.7 1429.14  28
   1  -2 -10 23565.5 1599.70  34
  -1  -2  10 22076.8 1455.22  89
   1  -2 -10 25564.7 936.292  74
   1  -2 -10 23186.5 1564.09  86
   1   2 -10 26022.3 969.299  84
   1  -2 -10 24893.5 905.410  81
  -1  -2  10 23817.3 953.872  64
   1  -2 -10 25801.6 990.019  70
  -1  -2  10 24508.8 926.193  59
  -1  -2  10 25964.6 988.216  66
  -1  -2  10 25125.6 934.385  67
   1   2 -10 23710.4 1561.05  42
   1   2 -10 22684.3 1536.28  40
   1  -2 -10 21953.3 1434.41  42
   1  -2 -10 24254.8 1546.73  41
  -1   2  10 27491.9 987.871  48
  -1   2   9 48040.1 1489.70   8
  -1   2   9 50062.9 1576.98   6
  -1   2   9 52409.3 2352.94   2
  -1  -2   9 47637.9 1471.87 106
   1   2  -9 51008.7 1574.28 110
  -1   2   9 50625.1 1578.99 106
  -1   2   9 51714.5 1613.01  98
  -1  -2   9 50184.4 1580.60  99
  -1   2   9 49297.9 1548.92  93
  -1  -2   9 50699.8 2061.54  94
   1   2  -9 50847.6 1531.82 100
   1   2  -9 49809.1 2295.88  29
  -1  -2   9 43420.8 2082.43  37
   1   2  -9 48340.9 2340.18  32
  -1  -2   9 48337.3 2366.12  35
   1  -2  -9 46425.5 2040.04  32
   1  -2  -9 49589.4 2397.14  34
  -1  -2   9 47244.0 2249.77  28
   1  -2  -9 48299.7 2234.53  29
   1  -2  -9 48681.1 1510.49  81
  -1  -2   9 44976.8 2057.43  87
   1   2  -9 50531.7 1568.53  84
   1  -2  -9 50590.7 1545.75  74
   1   2  -9 49467.1 2354.66  86
  -1  -2   9 47762.5 2243.03  89
   1  -2  -9 49739.7 2356.24  86
  -1  -2   9 49364.2 1549.57  67
  -1  -2   9 49375.3 1550.39  59
  -1  -2   9 50077.4 1580.18  66
  -1  -2   9 50705.6 1586.48  64
   1  -2  -9 49660.0 1601.88  70
   1   2  -9 49610.4 2326.09  42
   1  -2  -9 53888.6 2433.48  41
   1  -2  -9 46554.7 2178.78  42
   1   2  -9 49765.6 2367.29  40
  -1   2   8 4421.31 324.648   3
  -1   2   8 4114.19 312.934   8
  -1   2   8 5118.80 368.994   6
  -1   2   8 4367.82 618.704   2
   1   2  -8 4901.67 353.298 110
  -1   2   8 4574.20 345.472 106
   1   2  -8 4501.41 326.101 100
  -1  -2   8 4872.41 543.190  94
  -1   2   8 4119.93 602.907  94
  -1   2   8 4819.85 340.123  93
  -1  -2   8 5119.19 364.466  99
   1   2  -8 3566.80 565.135  29
   1  -2  -8 5395.36 695.492  34
   1  -2  -8 4026.88 520.361  32
   1   2  -8 4576.60 626.542  32
  -1  -2   8 4713.72 676.121  35
   1  -2  -8 4606.87 598.969  29
  -1  -2   8 5322.57 643.196  37
  -1  -2   8 5359.22 669.952  28
  -1  -2   8 3483.98 514.707  87
   1  -2  -8 4666.55 654.933  86
   1   2  -8 4812.02 656.099  86
   1   2  -8 4312.24 333.862  84
  -1  -2   8 4461.21 629.708  89
   1   2  -8 4280.97 332.703  76
   1  -2  -8 4819.31 334.882  74
   1   2  -8 4168.14 304.346  72
  -1  -2   8 4618.22 345.341  59
  -1  -2   8 4939.88 352.961  66
   1   2  -8 5291.32 679.353  40
   1   2  -8 4565.04 635.196  42
  -1   2   8 4198.89 350.000  49
   1  -2  -8 4936.31 604.767  42
   1   2  -7 57385.9 1673.12  21
  -1  -2   7 62002.9 2430.12  28
  -1   2   7 62438.4 2447.31   2
  -1   2   7 60605.2 1731.64   6
  -1   2   7 59832.4 1690.58   3
  -1  -2   7 54018.3 2125.22   2
   1   2  -7 60851.0 1715.31 110
  -1   2   7 58984.3 1698.69 106
   1   2  -7 58769.2 1674.87 100
  -1  -2   7 57456.0 1706.23  99
  -1   2   7 58207.3 1680.57  93
  -1   2   7 57939.9 2357.57  94
  -1  -2   7 56535.5 2076.21  94
   1   2  -7 60769.3 2337.97  29
  -1  -2   7 63487.1 2509.46  35
  -1  -2   7 59122.9 2352.21  37
   1  -2  -7 55970.4 2153.86  32
   1  -2  -7 57362.4 2306.70  29
   1   2  -7 58732.0 2390.62  32
   1  -2  -7 59808.8 2453.69  34
  -1  -2   7 58192.6 2359.32  89
   1   2  -7 54323.8 1602.57  85
   1   2  -7 57738.5 1620.71  82
   1   2  -7 58506.4 1701.36  84
   1   2  -7 58711.7 2400.47  86
  -1  -2   7 56786.1 2272.11  87
   1  -2  -7 60118.3 2455.68  86
   1   2  -7 58149.2 1699.09  76
  -1  -2   7 60505.8 1714.20  59
   1  -2  -7 56960.7 1616.78  69
   1   2  -7 56028.8 1636.87  51
  -1  -2   7 59540.6 1704.32  66
   1   2  -7 58053.0 1650.01  72
   1   2  -7 61076.0 2377.57  42
   1   2  -7 64227.7 2504.06  40
  -1  -2   7 54382.1 2043.15  38
  -1   2   7 58340.4 1734.98  49
   1  -2  -7 56027.5 2253.07  42
  -1  -2   6 12873.8 907.633  28
  -1  -2   6 12034.9 792.128   2
  -1   2   6 13441.2 935.269   2
   1   2  -6 13321.5 555.721 110
  -1   2   6 12730.4 528.973  93
  -1   2   6 12743.4 880.337  94
  -1  -2   6 12387.8 732.042  94
   1   2  -6 12151.4 521.261 100
  -1   2   6 12982.9 551.341  98
   1  -2  -6 12667.4 870.895  29
   1   2  -6 13018.3 864.769  29
   1  -2  -6 13481.0 946.412  34
   1  -2  -6 11884.5 784.800  32
   1   2  -6 12166.2 881.777  32
   1   2  -6 12708.3 685.914  34
  -1  -2   6 13912.8 983.640  35
   1   2  -6 12026.4 532.528  76
   1   2  -6 13534.7 936.369  86
   1   2  -6 12594.6 538.238  84
  -1  -2   6 13521.6 898.176  87
   1  -2  -6 12237.3 493.985  69
  -1  -2   6 12893.4 545.707  59
  -1  -2   6 13278.5 550.250  56
   1   2  -6 12348.2 507.519  72
   1  -2  -6 12254.4 707.296  40
   1   2  -6 11406.4 836.669  42
  -1  -2   6 12254.7 735.980  39
   1  -2  -6 13580.1 879.576  42
  -1   2   6 11772.3 547.450  49
   1  -2  -6 12365.6 779.826  46
  -1   2   5 97675.2 3142.70   2
   1  -2  -5 99083.2 2971.03  46
  -1  -2   5 98578.3 2892.66  39
   1   2  -5 103191. 3078.27  42
   1  -2  -5 95078.7 2784.29  40
   1  -2  -5 99599.7 3016.54  42
   1   2  -5 94526.4 2826.99  46
  -1  -2   5 102020. 3162.12  89
  -1   2   5 102684. 3086.65  94
   1  -2  -5 94663.7 3049.84  29
   1  -2  -5 102252. 3182.79  34
   1   2  -5 92307.7 2644.64  34
  -1  -2   5 101009. 3224.12  35
   1   2  -5 100199. 3089.05  32
  -1  -2   5 98242.3 3106.51  31
   1  -2  -5 97372.0 2926.82  32
   1   2  -5 94754.7 2980.25  29
   1   2  -5 104217. 3179.90  86
   1   2  -5 96222.4 2521.74  76
  -1  -2   5 100568. 3117.14  87
   1   2  -5 98715.4 2498.42  72
  -1  -2   5 101441. 2535.84  56
  -1  -2   5 95917.4 2495.89  58
  -1  -2   5 98523.3 3166.95  28
  -1   2   5 93922.0 2771.31  18
   1   2  -5 98102.9 2761.23  18
   1  -2  -4 204483. 5336.76  40
  -1  -2   4 212316. 5473.55  39
   1   2  -4 202026. 5438.89  46
   1  -2  -4 210096. 5505.83  42
   1   2  -4 222877. 5702.84  40
  -1  -2   4 212621. 5678.51  43
   1  -2  -4 214718. 5509.62  44
   1   2  -4 215419. 5524.97  42
   1  -2  -4 212303. 5554.70  46
  -1   2   4 215332. 5421.98  45
  -1  -2   4 215395. 5658.47  89
   1   2  -4 206596. 5453.98  29
  -1  -2   4 212251. 5721.99  35
   1  -2  -4 206321. 5674.82  34
   1   2  -4 199941. 5091.46  34
  -1  -2   4 210300. 5488.49  33
  -1  -2   4 214009. 5434.97  30
   1  -2  -4 205757. 5441.09  32
   1   2  -4 213415. 5582.55  32
  -1  -2   4 214765. 5644.49  31
   1   2  -4 218566. 5694.17  86
  -1  -2   4 218474. 5082.87  56
   1   2  -4 209091. 5401.03  18
  -1   2   4 205889. 5424.33  18
  -1  -2   4 208065. 5681.57  28
  -1   2   3 286610. 7578.29   1
   1  -2  -3 330506. 7988.07  44
  -1  -2   3 339798. 8100.39  43
  -1   2   3 337135. 7986.82  45
   1   2  -3 326092. 7901.11  42
   1   2  -3 317158. 7980.21  46
  -1  -2   3 319526. 7986.30  39
   1  -2  -3 324815. 7956.35  42
   1   2  -3 351152. 8120.59  40
   1  -2  -3 334639. 8068.52  46
  -1  -2   3 340933. 8114.34  89
  -1  -2   3 320409. 8088.06  31
   1   2  -3 342922. 8170.21  36
  -1  -2   3 315855. 7928.76  30
  -1  -2   3 322549. 7967.90  33
   1   2  -3 329666. 7973.43  32
   1   2  -3 319340. 7835.99  29
  -1  -2   3 340623. 8227.41  35
   1   2  -3 307804. 8060.75  86
  -1  -2   3 332874. 8120.69  87
  -1  -2   3 313442. 7554.31  56
  -1  -2   3 333707. 8155.17  28
  -1   2   3 321705. 7972.85  18
   1   2  -3 309497. 7934.33  18
  -1   2   2 26898.1 806.673   1
  -1   2   2 30899.6 1185.95   2
   1   2  -2 31720.5 1150.36  40
  -1   2   2 31501.3 1164.57  45
  -1  -2   2 31340.8 1172.44  39
   1  -2  -2 31504.0 1150.10  44
   1   2  -2 28731.5 986.878  42
   1   2  -2 32054.0 1186.43  46
  -1  -2   2 32152.5 1184.57  89
  -1  -2   2 30637.4 1128.49  33
  -1  -2   2 30733.3 1145.71  30
  -1  -2   2 31003.4 1186.95  31
   1   2  -2 31256.6 1066.44  32
  -1  -2   2 32232.2 1263.30  35
   1   2  -2 31108.5 1194.64  86
  -1  -2   2 32928.4 1211.70  87
  -1  -2   2 30485.4 833.075  56
  -1  -2   2 32238.8 1250.38  28
   1   2  -2 31446.4 1171.37  18
  -1   2   2 31605.2 1184.73  18
   1  -2  -1 221087. 5509.22  46
  -1  -2   1 218449. 5519.34  39
   1   2  -1 214801. 5341.40  40
  -1  -2   1 220886. 5391.58  89
   1   2  -1 220810. 5500.73  36
  -1  -2   1 211568. 5429.39  33
   1   2  -1 204362. 5179.61  32
  -1  -2   1 221866. 5475.49  31
  -1  -2   1 225925. 5562.51  35
  -1  -2   1 221678. 5466.54  87
   1   2  -1 221960. 5499.07  86
  -1   2   1 225113. 5459.43   2
   1   2  -1 213651. 5483.92  18
   1   2  -1 220007. 5525.38  23
  -1   2   0 71149.2 2079.32  45
  -1  -2   0 68823.7 1930.89  41
  -1  -2   0 75815.5 2144.83  39
   1  -2   0 70851.3 2063.08  46
   1   2   0 73204.7 2093.42  46
   1   2   0 65753.1 1925.26  96
  -1  -2   0 69537.8 1882.47  89
  -1  -2   0 70341.6 2050.17  31
   1  -2   0 69711.9 1771.99  31
  -1  -2   0 75546.6 2100.13  33
   1   2   0 68083.3 1985.01  36
  -1  -2   0 72679.8 2002.46  87
   1   2   0 72498.4 2028.24   1
  -1   2   0 70237.7 1978.49   2
  -1   2   0 72129.9 2086.61  18
   1   2   0 72269.5 2092.26  18
  -1  -2  -1 221432. 5461.96  41
   1  -2   1 220295. 5454.01  46
  -1   2  -1 214124. 5498.25  45
   1   2   1 219750. 5495.90  46
   1   2   1 217547. 5447.87  96
  -1  -2  -1 207195. 5143.36  89
   1  -2   1 204255. 5131.17  31
   1  -2   1 208207. 5120.00  33
  -1  -2  -1 227814. 5564.20  33
  -1  -2  -1 208753. 5198.23  34
   1  -2   1 218858. 5420.41  35
  -1  -2  -1 222101. 5341.95  87
  -1   2  -1 215286. 5458.11  86
   1   2   1 220680. 5436.81   1
  -1   2  -1 215090. 5485.04  18
   1   2   1 223871. 5525.63  18
   1   2   1 216929. 5518.27  23
   1   2   1 210629. 5295.65  19
  -1   2  -2 186182. 4820.96  45
  -1  -2  -2 165099. 4375.19  42
  -1  -2  -2 197285. 4930.71  41
   1  -2   2 201830. 4968.53  43
  -1  -2  -2 189026. 4479.40  44
   1   2   2 187245. 4826.26  46
   1  -2   2 181265. 4514.57  39
  -1  -2  -2 192179. 4739.56  92
   1   2   2 187668. 4862.03  96
  -1   2  -2 195287. 4827.09  29
  -1  -2  -2 190604. 4699.35  34
  -1   2  -2 193255. 4883.40  32
   1  -2   2 166687. 4501.28  31
   1  -2   2 190497. 4783.66  35
  -1   2  -2 190453. 4839.81  86
  -1  -2  -2 192823. 4605.62  87
   1   2   2 196805. 4962.56   2
   1   2   2 198828. 4822.62   1
   1   2   2 196394. 4865.69  18
   1   2   2 181887. 4569.59  19
   1   2   2 184539. 4842.00  23
   1  -2   2 191158. 4739.84  28
  -1   2  -2 187165. 4819.36  18
   1  -2   3 295384. 7422.70  43
  -1  -2  -3 302895. 7421.53  41
  -1  -2  -3 278037. 6899.91  42
  -1   2  -3 297733. 7204.78  45
   1   2   3 284217. 7081.34  94
  -1  -2  -3 283821. 7033.59  92
   1  -2   3 281764. 7109.30  94
  -1  -2  -3 293860. 7232.53  34
  -1   2  -3 299771. 7361.67  32
  -1   2  -3 291917. 7287.18  29
   1  -2   3 286350. 7215.48  35
  -1   2  -3 292614. 7294.88  86
  -1  -2  -3 266462. 6865.22  87
   1   2   3 288909. 7227.12  23
   1   2   3 298225. 7222.59  18
   1  -2   3 290103. 7147.39  28
   1   2   3 277836. 6892.69  19
  -1   2  -3 295301. 7202.07  18
   1   2   3 308536. 7408.76   2
   1   2   3 297677. 7272.04   1
   1   2   4 10333.3 699.363   2
  -1   2  -4 9404.83 567.821  45
  -1  -2  -4 9525.40 708.616  41
  -1  -2  -4 8639.95 495.543  42
  -1   2  -4 10329.4 697.765  42
   1  -2   4 9789.17 595.626  94
   1   2   4 9358.27 678.510  96
   1   2   4 9397.71 594.323  94
  -1   2  -4 10738.9 621.997  34
  -1  -2  -4 10435.6 683.244  34
   1  -2   4 9397.64 617.253  35
  -1  -2  -4 9048.64 530.232  29
  -1   2  -4 8706.93 637.521  29
  -1   2  -4 9661.89 694.080  32
   1  -2   4 11044.2 772.244  37
  -1   2  -4 9050.95 635.276  86
   1  -2   4 9149.15 381.228  55
   1  -2   4 8719.53 362.896  57
   1  -2   4 8912.61 571.983  28
  -1   2  -4 9622.66 568.008  18
   1   2   4 9701.58 597.219  23
   1   2   4 9639.88 572.473  18
   1   2   4 8277.43 394.767  19
   1   2   5 58042.6 2107.24   2
  -1   2  -5 57311.1 2138.35  42
  -1  -2  -5 53734.7 1821.56  42
   1  -2   5 60230.0 2191.77  38
   1   2   5 56948.2 1988.27  94
   1  -2   5 54946.3 2085.36  89
   1  -2   5 53031.0 1912.88  94
   1  -2   5 57017.2 1998.84  35
  -1  -2  -5 56488.0 2093.99  34
  -1   2  -5 59950.1 2137.79  29
  -1   2  -5 57622.3 2166.58  32
  -1  -2  -5 53708.2 1859.63  29
  -1   2  -5 56545.0 1955.23  34
  -1   2  -5 59582.8 2100.01  86
   1  -2   5 55299.9 1548.43  55
   1  -2   5 55789.7 1907.56  28
   1   2   5 56099.5 1763.72  18
  -1   2  -5 54670.2 1767.23  18
   1   2   5 56385.5 1845.69  23
  -1   2  -6 55665.1 2212.64  42
   1  -2   6 53533.2 2149.34  38
   1   2   6 52087.6 1528.93  49
  -1  -2  -6 50979.3 1854.15  42
   1   2   6 49208.9 1510.19  97
   1   2   6 53826.5 2041.55  94
   1   2   6 54088.5 1533.06  98
   1  -2   6 49467.0 1918.30  94
   1  -2   6 51084.5 2069.30  89
  -1   2  -6 54840.2 1988.26  34
  -1  -2  -6 49587.2 1879.77  29
  -1  -2  -6 52348.4 2130.14  34
   1  -2   6 54703.3 2025.18  35
  -1   2  -6 54406.1 2156.31  29
   1  -2   6 49981.0 1873.79  28
   1  -2   6 54391.1 2275.87  37
  -1   2  -6 49373.6 1445.81  76
  -1   2  -6 53513.2 2101.37  86
   1  -2   6 52973.3 1529.25  56
  -1  -2  -6 53030.7 1526.62  69
   1  -2   6 51988.7 1503.88  55
   1  -2   6 51899.4 1521.19  58
   1   2   6 52995.8 2076.90   2
  -1   2  -7 84014.5 2313.93  26
   1   2   7 87262.2 3018.34   2
   1   2   7 84796.1 2333.36   7
   1   2   7 82747.5 2273.76   6
   1   2   7 84247.1 2277.36 106
   1  -2   7 84900.9 2264.66 106
  -1   2  -7 80873.5 2238.50 110
  -1   2  -7 79663.6 2242.48 109
   1   2   7 79545.9 2304.11  97
   1  -2   7 85000.2 3031.41  89
   1   2   7 82576.6 2234.63  93
   1   2   7 91200.1 3037.37  94
   1  -2   7 86905.0 2897.24  94
   1   2   7 84733.9 2325.33  98
   1  -2   7 90119.2 3229.70  37
  -1   2  -7 91301.0 3172.11  29
  -1   2  -7 85606.6 2885.57  34
  -1  -2  -7 84798.7 2836.96  29
  -1  -2  -7 85132.8 3115.00  34
   1  -2   7 85651.2 2932.85  35
  -1  -2  -7 86811.1 2317.90  75
  -1   2  -7 85587.0 3047.18  86
  -1   2  -7 81045.8 2233.22  84
  -1  -2  -7 89526.2 3154.25  86
  -1   2  -7 80730.5 2232.24  76
   1  -2   7 78570.3 2227.53  65
   1  -2   7 80937.1 2220.64  63
  -1  -2  -7 85676.1 2318.89  69
   1  -2   7 86436.4 2323.12  60
   1  -2   7 86330.6 2310.89  55
   1  -2   7 89575.8 2343.80  58
   1   2   7 83591.3 2316.47  49
  -1  -2  -7 81634.7 2769.14  42
   1  -2   7 84996.4 3022.28  38
  -1   2  -7 92553.3 3212.77  42
  -1  -2  -7 85830.9 3176.95  41
  -1   2  -8 109344. 2968.95  26
   1   2   8 110650. 2987.85   7
   1   2   8 111595. 2926.94   6
   1   2   8 111067. 3728.35   2
   1   2   8 111661. 2951.98 106
  -1   2  -8 110266. 2906.38 110
   1  -2   8 113250. 2932.19 106
   1   2   8 114108. 3814.20  94
   1   2   8 110474. 2900.70  93
   1   2   8 116599. 3015.13  98
   1  -2   8 111901. 3659.93  94
   1  -2   8 107467. 3729.96  89
   1   2   8 107828. 2976.91  97
  -1   2  -8 118828. 3972.12  29
  -1   2  -8 111533. 3642.59  34
  -1  -2  -8 118870. 4020.36  34
  -1  -2  -8 105712. 3563.77  29
   1  -2   8 113160. 3976.21  37
  -1   2  -8 111889. 3933.37  32
   1  -2   8 103424. 3615.42  35
   1  -2   8 107252. 3679.87  87
  -1   2  -8 107526. 2888.59  84
  -1  -2  -8 110709. 2957.72  75
  -1   2  -8 113981. 3847.19  86
  -1  -2  -8 115127. 3900.76  86
   1  -2   8 112388. 2994.23  58
   1  -2   8 106484. 2889.12  65
  -1  -2  -8 114878. 2983.05  69
   1  -2   8 108185. 2964.43  60
   1  -2   8 103158. 2956.27  56
  -1  -2  -8 116327. 3979.24  41
   1   2   8 107564. 2966.62  49
   1  -2   8 102937. 3620.58  38
  -1   2  -8 116166. 3986.84  42
  -1   2  -9 88174.9 2485.03  26
   1   2   9 90980.1 2519.95   7
   1   2   9 81029.1 3112.11   2
   1  -2   9 87255.5 2435.56 106
   1   2   9 89174.9 2480.23 106
  -1   2  -9 85389.1 2403.23 110
   1   2   9 86599.6 3294.46  94
   1  -2   9 89099.4 3184.37  94
   1   2   9 85984.3 2414.92  93
  -1  -2  -9 88845.8 3474.29  34
  -1  -2  -9 85758.4 3116.11  29
  -1   2  -9 92208.2 3442.95  29
  -1   2  -9 86940.0 3418.83  32
  -1   2  -9 86976.3 3322.50  86
  -1  -2  -9 92767.1 3456.07  86
   1  -2   9 85579.7 3215.87  89
  -1  -2  -9 90580.1 2488.71  78
  -1   2  -9 86067.1 2398.57  84
  -1  -2  -9 94143.6 2487.27  75
   1  -2   9 83294.0 3124.56  87
  -1  -2  -9 92528.8 2541.01  74
   1  -2   9 86430.1 2435.71  59
   1  -2   9 92246.8 2520.25  60
  -1  -2  -9 90801.8 2530.05  70
   1  -2   9 89917.9 2507.05  56
   1  -2   9 90525.7 2524.05  66
   1   2   9 86387.7 2484.28  49
  -1  -2  -9 86147.0 3380.18  41
  -1   2  -9 90097.8 3472.03  42
   1  -2   9 87890.9 3420.81  37
  -1   2 -10 1774.12 226.488  27
  -1  -2 -10 1910.90 256.657  27
  -1   2 -10 2053.31 241.471  26
   1   2  10 2133.54 253.974   7
   1   2  10 2065.44 252.675 106
  -1   2 -10 1695.61 204.895 110
   1  -2  10 1952.14 229.209 106
  -1   2 -10 2028.51 245.553 100
   1   2  10 1678.62 208.422  93
   1   2  10 2386.82 480.469  94
   1  -2  10 1436.99 344.027  94
  -1  -2 -10 2063.57 473.974  34
  -1   2 -10 1521.21 408.080  32
  -1   2 -10 1764.37 467.075  29
  -1   2 -10 2122.72 441.995  86
  -1  -2 -10 1674.33 226.389  78
  -1  -2 -10 1604.23 418.593  86
  -1   2 -10 1848.47 208.469  84
   1  -2  10 1929.64 390.790  89
  -1  -2 -10 2390.24 278.107  81
  -1  -2 -10 2435.27 271.005  74
  -1   2 -10 1714.61 212.924  51
  -1  -2 -10 2408.69 275.754  70
   1  -2  10 1971.54 256.411  66
   1  -2  10 1932.20 235.337  64
   1  -2  10 1963.72 218.351  59
  -1  -2 -10 1748.65 438.182  41
   1   2  11 55878.1 1625.20   7
   1   2  11 54588.4 1589.82   8
  -1   2 -11 51091.7 1513.78 110
   1   2  11 56035.9 1640.28 106
   1  -2  11 56532.6 1593.56 106
   1   2  11 50791.9 1548.92  93
   1  -2  11 56738.7 1658.88  99
   1   2  11 55283.3 1681.69  98
  -1   2 -11 53475.4 1632.32 100
   1  -2  11 48424.0 2092.35  94
   1   2  11 51328.6 2290.53  94
  -1   2 -11 54677.3 2406.90  29
  -1   2 -11 57013.1 2467.06  32
  -1  -2 -11 56826.8 1678.16  77
  -1  -2 -11 56356.7 1669.85  74
  -1  -2 -11 56253.6 1657.21  81
  -1  -2 -11 56745.6 2409.10  86
  -1   2 -11 53745.1 2327.66  86
  -1  -2 -11 55956.3 1603.19  78
   1  -2  11 56417.7 1614.63  64
   1  -2  11 50938.6 1504.07  67
  -1  -2 -11 57429.4 1669.35  70
  -1   2 -11 50453.5 1529.98  51
   1  -2  11 49926.9 1502.13  59
  -1  -2 -11 55752.6 1684.82  27
  -1   2 -11 52089.4 1578.66  26
  -1   2 -11 49344.8 1559.32  27
  -1  -2 -12 9283.13 470.847  27
  -1   2 -12 8866.92 400.768  26
   1   2  12 8737.88 441.057 106
  -1   2 -12 9198.61 463.937 101
   1  -2  12 9069.66 413.320 106
   1  -2  12 9255.01 447.535  93
   1  -2  12 9411.09 457.580  99
   1   2  12 8825.69 464.473  98
  -1   2 -12 8937.02 435.577 100
   1   2  12 9141.41 426.228   7
  -1  -2 -12 9471.45 453.790  81
  -1  -2 -12 8696.07 438.914  76
  -1  -2 -12 10101.5 479.388  77
  -1  -2 -12 9119.15 456.899  70
   1  -2  12 8589.81 407.784  64
   1   2  12 9298.81 457.749  48
  -1   2 -13 9097.46 397.155 101
   1   2  13 8710.75 368.409 106
  -1  -2 -13 9778.94 399.799  77
  -1  -2 -13 8956.16 367.905  81
  -1  -2 -13 8891.13 372.114  76
  -1  -2 -13 9126.46 365.519  84
   1  -2  13 9004.18 379.911  99
   1   2  13 9160.73 399.542  98
   1  -2  13 9221.90 381.843  93
  -1  -2 -13 9191.50 388.735  27
   1   2  13 9428.29 383.700  48
  -1  -3  13 1210.76 113.173 108
  -1  -3  13 1234.38 117.705  99
   1  -3 -13 1310.98 118.958  84
  -1   3  13 1198.86 116.203  47
   1   3 -13 1226.38 107.129  26
   1   3 -12 10271.0 448.724  26
   1   3 -12 9963.84 448.179 101
   1   3 -12 9767.76 422.104 110
  -1  -3  12 10843.7 462.227  99
  -1   3  12 10069.2 425.676   4
  -1   3  12 10453.4 462.300   7
   1  -3 -12 11088.8 472.204  76
   1  -3 -12 9782.99 416.299  77
   1  -3 -12 10615.3 465.157  70
  -1  -3  12 9250.74 403.208  67
  -1   3  12 10034.2 443.925  48
   1   3 -11 13597.6 601.595  26
  -1   3  11 12666.8 602.742   7
   1   3 -11 13538.0 606.913 101
   1   3 -11 12923.0 576.227 110
  -1  -3  11 13981.6 606.383  99
   1  -3 -11 12853.3 538.399  74
   1  -3 -11 14025.9 1052.18  86
   1  -3 -11 13356.5 578.114  77
   1  -3 -11 13801.2 615.826  70
  -1  -3  11 13309.1 578.224  67
  -1   3  11 13338.6 598.840  48
   1   3 -10 11289.3 585.568  26
  -1   3  10 11265.3 531.655   8
  -1   3  10 12755.5 621.294   7
  -1   3  10 11275.0 574.844   6
   1   3 -10 10996.6 566.045 110
   1   3 -10 11847.5 596.731 101
  -1   3  10 10313.8 542.879 106
  -1  -3  10 11541.1 576.446  99
  -1   3  10 11925.9 612.209  98
   1   3 -10 9693.68 852.827  29
   1   3 -10 11361.6 1012.54  32
   1  -3 -10 10581.4 508.192  81
   1  -3 -10 11887.3 1053.27  86
   1  -3 -10 11272.0 534.719  74
  -1  -3  10 10199.1 964.081  89
  -1  -3  10 11683.3 576.340  59
  -1  -3  10 12216.9 588.221  67
  -1  -3  10 11580.9 574.680  66
   1  -3 -10 11455.0 591.855  70
  -1   3  10 11812.9 596.335  48
   1  -3 -10 9503.80 979.195  41
  -1  -3   9 1398.48 371.513  28
   1   3  -9 1561.75 236.217  26
  -1   3   9 1844.79 247.725   6
  -1   3   9 1397.40 419.194   2
  -1   3   9 1455.59 209.420   3
  -1   3   9 1647.44 217.220   8
  -1   3   9 1715.16 220.338 106
   1   3  -9 1994.54 256.620 110
   1   3  -9 1802.40 248.757 101
  -1  -3   9 2029.17 255.101  99
   1   3  -9 1695.02 221.831 100
  -1   3   9 1205.30 221.033  98
   1   3  -9 1555.67 403.466  32
   1   3  -9 1402.80 341.759  29
   1  -3  -9 2025.03 464.592  34
  -1  -3   9 1546.16 420.383  35
  -1  -3   9 1628.78 404.367  37
   1  -3  -9 1774.37 218.506  74
  -1  -3   9 1527.56 422.843  89
   1  -3  -9 1261.67 396.001  86
  -1  -3   9 1447.25 375.594  87
  -1  -3   9 1577.46 235.138  64
  -1  -3   9 1600.25 224.058  66
  -1  -3   9 1563.48 229.813  59
   1   3  -9 1473.34 195.834  51
  -1   3   9 1694.08 242.911  48
   1  -3  -9 1504.11 432.302  41
  -1  -3   8 3559.33 577.412  28
  -1   3   8 4182.19 343.883   8
  -1   3   8 3905.00 624.136   2
  -1   3   8 4270.09 359.410   6
  -1   3   8 4269.16 345.421   3
   1   3  -8 4438.78 362.760 110
   1   3  -8 3941.20 343.851 101
  -1   3   8 4430.53 341.303 106
  -1  -3   8 3991.96 333.504  99
  -1  -3   8 3675.58 534.757  92
   1   3  -8 3862.14 326.245 100
  -1   3   8 4026.91 362.809  98
  -1  -3   8 3367.58 579.926  37
   1  -3  -8 4560.23 664.936  34
   1   3  -8 4389.06 571.878  29
   1   3  -8 3904.53 620.095  32
  -1  -3   8 3017.64 565.108  35
  -1  -3   8 3104.92 565.902  87
   1  -3  -8 3261.35 596.069  86
   1   3  -8 3620.06 307.641  51
  -1  -3   8 3935.94 325.969  66
  -1  -3   8 3992.77 345.610  64
   1   3  -8 4597.32 620.862  42
  -1   3   8 4591.18 373.971  48
  -1  -3   7 10701.6 962.885  28
  -1   3   7 11984.0 594.481   3
  -1   3   7 12678.7 619.289   7
  -1   3   7 12279.7 611.133   6
  -1   3   7 11926.1 584.080   8
  -1   3   7 10353.6 979.875   2
  -1   3   7 11361.2 551.158 106
   1   3  -7 12143.0 600.959 101
   1   3  -7 11569.3 585.858 110
   1   3  -7 12306.1 587.915 100
  -1  -3   7 10847.8 554.928  99
  -1   3   7 11395.3 586.224  98
   1  -3  -7 11081.4 998.153  34
   1   3  -7 11253.2 877.558  29
   1  -3  -7 10073.3 834.740  29
  -1  -3   7 11899.1 1042.17  37
  -1  -3   7 9728.12 965.683  35
   1   3  -7 11851.3 980.636  32
  -1  -3   7 11280.2 1006.47  89
  -1  -3   7 11170.2 993.708  87
  -1  -3   7 11807.6 561.577  66
   1  -3  -7 11457.2 526.937  69
   1   3  -7 12073.3 571.949  51
  -1   3   7 12021.7 602.189  48
  -1  -3   7 10245.1 878.485  38
   1   3  -7 11711.6 1053.14  40
   1   3  -7 10285.9 894.537  42
  -1   3   6 10028.6 489.233  17
   1   3  -6 9254.38 512.206  21
  -1  -3   6 12554.9 995.687  28
  -1   3   6 11281.9 548.987   3
  -1   3   6 10775.4 546.139   6
  -1   3   6 10256.2 529.396   8
  -1   3   6 10444.3 928.695   2
  -1   3   6 10797.6 550.566  16
  -1   3   6 10732.0 542.585   7
   1   3  -6 11183.5 548.837 110
  -1   3   6 9362.70 482.602 106
   1   3  -6 10375.8 535.268 101
  -1  -3   6 9977.96 497.205  99
   1   3  -6 10863.7 529.951 100
  -1   3   6 10206.4 525.541  98
  -1  -3   6 12151.2 981.164  89
   1   3  -6 10642.7 782.638  29
   1   3  -6 12505.5 935.944  32
  -1  -3   6 10338.1 950.547  35
   1  -3  -6 9581.73 873.817  34
   1  -3  -6 10500.8 798.231  29
   1   3  -6 9974.09 919.696  86
  -1  -3   6 10373.4 912.901  87
  -1  -3   6 9902.67 483.998  66
   1   3  -6 10385.0 517.773  51
  -1  -3   6 10808.7 524.670  56
  -1  -3   6 10722.8 536.366  59
   1   3  -6 9934.57 806.529  42
   1  -3  -6 9231.19 740.976  42
  -1   3   6 10692.2 544.120  49
   1   3  -6 11344.8 968.511  40
   1   3  -5 71183.0 2028.25  21
  -1   3   5 68951.7 2436.17  18
   1   3  -5 76752.5 2474.21  18
  -1  -3   5 76205.6 2770.49  28
  -1   3   5 73467.5 2050.33   3
  -1   3   5 72536.6 2041.41   7
  -1   3   5 73269.9 2041.93   8
   1   3  -5 74615.2 2048.93 110
   1   3  -5 73779.5 2047.46 101
  -1  -3   5 75370.2 2758.12  89
  -1   3   5 70308.9 2009.53  98
   1   3  -5 72857.4 2033.92 100
   1  -3  -5 74602.5 2701.81  34
   1   3  -5 72360.9 2379.15  29
   1  -3  -5 67304.3 2407.74  29
   1   3  -5 78073.2 2635.92  32
  -1  -3   5 72183.3 2617.56  31
  -1  -3   5 75297.4 2819.13  35
   1   3  -5 75620.0 2787.85  86
   1   3  -5 71672.1 2025.41  51
  -1  -3   5 73553.0 2003.74  56
  -1   3   5 69307.7 2015.03  49
   1  -3  -5 67016.7 2406.20  42
   1   3  -5 74098.8 2496.60  42
  -1   3   5 72376.7 2048.39  50
   1   3  -5 78809.3 2788.05  40
   1   3  -4 8624.77 671.551  18
  -1  -3   4 9141.80 772.547  28
  -1   3   4 9248.89 704.559  18
   1   3  -4 9464.42 452.937 110
   1   3  -4 8241.75 433.820 101
  -1  -3   4 8015.92 716.315  89
   1   3  -4 8890.96 441.323 100
  -1  -3   4 8404.25 612.486  33
   1   3  -4 9068.22 668.044  32
  -1  -3   4 7810.93 675.336  31
   1  -3  -4 9248.35 727.262  34
  -1  -3   4 8854.87 777.105  35
   1   3  -4 9088.32 775.295  86
  -1  -3   4 8933.52 770.357  87
   1   3  -4 8209.84 430.273  51
  -1  -3   4 8806.42 407.222  56
  -1  -3   4 9576.48 795.096  43
   1   3  -4 9919.01 774.042  40
  -1  -3   4 8064.34 625.949  39
  -1   3   4 8413.23 433.270  48
   1  -3  -4 8832.07 631.083  42
   1  -3  -4 8299.24 637.422  44
  -1   3   3 35397.9 1582.44   2
   1   3  -3 36992.0 1539.56  40
  -1  -3   3 35858.3 1475.75  39
  -1   3   3 35552.9 1511.20  45
   1  -3  -3 33587.4 1337.97  42
  -1  -3   3 35804.5 1613.59  43
   1  -3  -3 36978.5 1591.79  46
   1  -3  -3 36356.1 1459.24  44
  -1  -3   3 35942.6 1532.03  89
   1  -3  -3 35798.0 1486.66  34
  -1  -3   3 33675.5 1382.94  33
   1   3  -3 35794.9 1374.11  32
  -1  -3   3 31694.3 1384.72  30
  -1  -3   3 36072.8 1637.91  35
  -1  -3   3 33792.6 1479.70  31
  -1  -3   3 37946.5 1606.55  87
   1   3  -3 38923.1 1642.71  86
  -1  -3   3 33628.0 1018.95  56
  -1  -3   3 35520.6 1618.57  28
   1   3  -3 36353.1 1518.93  18
  -1   3   3 35103.3 1521.51  18
  -1   3   2 9574.65 705.606   2
  -1   3   2 8060.19 647.297  45
  -1  -3   2 8538.90 634.828  39
  -1  -3   2 8699.83 625.666  89
  -1  -3   2 8009.10 619.167  31
  -1  -3   2 7497.09 662.825  35
  -1  -3   2 8185.83 594.527  33
  -1  -3   2 8183.35 624.870  30
   1  -3  -2 7782.23 457.760  87
  -1  -3   2 7644.99 629.856  87
  -1  -3   2 7863.34 326.901  56
  -1  -3   2 8965.15 712.201  28
  -1   3   2 7399.39 630.381  18
   1   3  -2 7868.37 637.886  18
  -1   3   1 1962.13 316.558   2
   1   3  -1 2343.43 194.807 102
   1   3  -1 1782.63 233.132  96
  -1  -3   1 2181.08 325.860  31
  -1  -3   1 1804.20 288.209  33
   1  -3  -1 1854.94 239.528  31
   1  -3  -1 1636.92 264.253  33
  -1  -3   1 2029.78 348.039  35
  -1  -3   1 1711.05 266.400  89
   1  -3  -1 1683.57 252.295  87
  -1  -3   1 1615.35 293.163  87
   1   3  -1 2093.79 346.300  18
  -1  -3   1 1590.58 302.620  39
   1  -3  -1 2155.33 346.087  46
   1   3   0 17780.6 629.010 102
  -1  -3   0 16795.0 787.175  89
   1   3   0 16171.0 811.374  96
   1  -3   0 16121.7 761.868  33
  -1  -3   0 17334.7 930.647  33
   1  -3   0 15440.0 684.644  31
  -1  -3   0 17639.9 928.393  31
  -1  -3   0 18356.4 910.514  87
  -1   3   0 18150.3 1001.22  18
   1   3   0 19679.1 1037.62  18
  -1  -3   0 19266.3 1025.35  39
  -1   3   0 18862.8 1018.24  45
  -1  -3   0 16254.6 807.637  41
   1   3   1 1286.60 252.678   1
   1   3   1 1118.53 150.082 102
   1   3   1 1548.20 268.032  96
  -1  -3  -1 1421.65 274.127  31
  -1  -3  -1 1542.84 305.098  33
   1  -3   1 1512.87 292.751  35
  -1  -3  -1 1135.92 217.705  87
  -1   3  -1 1373.21 300.189  45
   1  -3   1 1140.57 216.628  39
  -1  -3  -1 1175.47 271.791  39
  -1  -3  -1 1032.40 235.396  41
   1   3   1 1422.22 301.670  18
  -1   3  -1 1098.77 255.263  18
  -1  -3  -2 61594.0 1875.50  44
   1  -3   2 70370.8 2452.46  43
   1  -3   2 63133.1 1972.03  39
  -1  -3  -2 71994.5 2491.75  39
  -1  -3  -2 66855.9 2296.13  41
  -1   3  -2 65189.6 2297.81  45
  -1  -3  -2 65786.6 2172.74  92
   1   3   2 65941.0 2237.88  96
  -1   3  -2 62717.5 1779.74 100
  -1  -3  -2 59327.9 1913.69  34
  -1  -3  -2 71700.6 2435.91  33
  -1  -3  -2 66150.8 2343.04  31
   1  -3   2 68852.1 2280.37  35
  -1  -3  -2 66487.3 1988.40  87
   1   3   2 66381.7 2164.29   1
   1   3   2 69926.0 2342.83  18
  -1   3  -2 67475.2 2314.03  18
   1  -3   2 64965.3 2199.07  28
   1  -3   3 165146. 4769.82  43
  -1  -3  -3 159692. 4640.05  41
  -1   3  -3 161173. 3966.13 100
  -1  -3  -3 157005. 4304.33  92
   1   3   3 152612. 4568.15  96
   1  -3   3 164594. 4666.92  89
  -1   3  -3 156730. 4421.74  29
  -1  -3  -3 164601. 4772.23  33
   1  -3   3 159646. 4529.89  35
  -1  -3  -3 148593. 4260.93  34
  -1   3  -3 154498. 4599.23  86
   1  -3   3 154548. 4428.67  28
   1   3   3 155667. 4520.04  18
  -1   3  -3 156386. 4503.56  18
   1   3   3 160082. 4406.67   1
   1  -3   4 20575.3 1093.14  28
  -1   3  -4 21274.3 1105.33  18
   1   3   4 21411.1 1120.73  18
   1   3   4 23551.1 1134.91   1
   1   3   4 21720.0 1267.95   2
  -1   3  -4 20672.1 788.011 101
  -1   3  -4 20775.3 790.771 109
   1  -3   4 24483.6 1311.29  89
   1   3   4 22729.7 788.722  97
  -1  -3  -4 21442.8 1093.18  34
   1  -3   4 23333.9 1195.70  35
  -1   3  -4 22299.1 1150.43  29
  -1   3  -4 20103.5 1187.57  86
  -1   3  -4 21763.9 787.335  52
   1  -3   4 21451.0 717.180  55
  -1  -3  -4 23132.1 1322.67  41
   1  -3   4 25033.0 1364.23  43
   1   3   4 23120.0 833.311  50
  -1   3  -5 24269.9 1187.87  18
   1  -3   5 25105.5 1233.50  28
   1   3   5 24001.7 1179.03  18
   1   3   5 27599.5 1479.73   2
   1   3   5 24707.6 902.407   3
  -1   3  -5 22873.6 837.505  13
   1   3   5 23903.2 868.016  17
   1   3   5 24686.5 913.947   7
   1   3   5 25009.4 1246.80   1
  -1   3  -5 24157.9 847.141 110
  -1   3  -5 25754.1 910.552 101
   1   3   5 23440.8 1154.51  94
   1   3   5 24468.6 887.656  97
   1  -3   5 25528.1 1420.03  89
  -1   3  -5 23127.9 899.392 100
   1   3   5 25231.0 853.791  98
   1  -3   5 26300.2 1522.37  37
  -1   3  -5 25864.2 1407.22  32
  -1   3  -5 26620.3 1348.90  29
   1  -3   5 22880.7 1265.59  35
  -1  -3  -5 24997.8 1293.84  34
  -1   3  -5 23809.0 1359.44  86
   1  -3   5 25132.0 829.344  55
   1  -3   5 26738.0 905.798  56
   1  -3   5 24133.6 859.974  58
   1   3   5 26033.9 933.881  50
  -1  -3  -5 23403.3 1421.89  41
   1   3   6 10351.6 556.276   7
   1   3   6 10635.2 525.059  17
  -1   3  -6 10531.4 503.593  13
   1   3   6 11664.6 852.694   1
   1   3   6 12274.7 1002.77   2
  -1   3  -6 11023.0 520.394 110
  -1   3  -6 11668.9 579.297 101
   1   3   6 11984.3 847.525  94
   1   3   6 11511.3 543.710  98
  -1   3  -6 12680.6 596.849 100
  -1   3  -6 11773.2 920.808  29
  -1  -3  -6 11268.9 915.165  34
  -1   3  -6 12476.6 1018.24  32
   1  -3   6 12511.5 931.380  35
  -1   3  -6 11537.8 966.638  86
   1  -3   6 12188.2 1003.01  87
   1  -3   6 12026.1 542.674  60
   1  -3   6 11451.4 549.707  58
   1  -3   6 11053.1 555.551  56
   1   3   6 12512.9 590.058  49
   1  -3   6 11089.8 981.475  38
  -1  -3  -6 12160.7 1035.87  41
  -1   3  -7 2252.45 260.308  26
   1   3   7 2419.70 274.165   7
   1   3   7 2059.17 450.408   2
   1   3   7 2249.44 391.366   1
   1   3   7 2308.19 234.206  17
  -1   3  -7 2263.75 239.035 110
   1   3   7 2024.71 213.655 106
  -1   3  -7 2419.99 272.762 101
   1   3   7 2255.16 395.202  94
  -1   3  -7 2484.71 275.001 100
   1   3   7 2445.33 262.257  98
  -1   3  -7 2699.97 533.183  32
  -1  -3  -7 1839.19 412.039  34
  -1   3  -7 2294.17 439.353  29
   1  -3   7 2517.42 537.685  37
  -1   3  -7 2095.23 439.961  86
   1  -3   7 2819.29 520.028  89
   1  -3   7 2438.72 496.218  87
  -1  -3  -7 2929.49 286.795  69
   1  -3   7 2446.50 271.166  56
   1  -3   7 2702.26 264.787  58
   1  -3   7 2440.59 246.851  60
  -1   3  -7 2538.10 273.315  51
  -1  -3  -7 2898.28 563.023  41
   1  -3   7 2637.43 496.228  38
   1   3   7 2246.79 264.474  49
  -1  -3  -8 8645.59 486.337  27
  -1   3  -8 8915.57 527.966  26
   1   3   8 9050.89 538.016   7
   1   3   8 8567.36 465.265 106
  -1   3  -8 8687.87 472.553 110
   1  -3   8 8838.99 909.913  89
   1   3   8 9304.32 528.486  98
  -1   3  -8 9715.95 553.015 100
  -1  -3  -8 8514.02 884.295  34
   1  -3   8 8228.70 948.802  37
  -1   3  -8 8779.08 929.572  32
  -1   3  -8 8882.62 883.881  29
  -1  -3  -8 10830.5 1014.03  86
  -1   3  -8 10125.9 959.972  86
   1  -3   8 9663.17 952.452  87
  -1  -3  -8 10271.8 532.173  75
   1  -3   8 9694.03 527.761  58
   1  -3   8 9825.96 538.718  66
  -1  -3  -8 9985.57 540.133  69
   1  -3   8 9687.07 515.474  60
  -1   3  -8 8992.01 521.703  51
   1  -3   8 9583.96 540.732  56
   1   3   8 9553.41 543.012  49
   1  -3   8 8308.31 863.069  38
  -1   3  -9 49814.5 1594.10  26
  -1  -3  -9 48839.7 1533.33  27
   1   3   9 52688.5 1618.80   8
   1   3   9 51183.2 1613.97   7
  -1   3  -9 46354.7 1474.63 110
   1   3   9 47548.5 1490.95 106
   1  -3   9 51280.4 1606.37  99
   1   3   9 51191.9 1604.63  98
  -1   3  -9 51084.7 1622.72 100
  -1  -3  -9 52890.9 2520.22  33
  -1   3  -9 51506.0 2412.58  32
   1  -3   9 44120.0 2360.96  37
  -1   3  -9 49190.1 2267.24  29
  -1  -3  -9 45705.6 2288.00  34
  -1  -3  -9 50017.1 1570.32  78
   1  -3   9 52703.3 2361.06  89
  -1  -3  -9 52905.2 1629.54  74
  -1  -3  -9 49231.5 1540.83  75
  -1   3  -9 45809.7 2255.07  86
  -1  -3  -9 52661.7 2434.81  86
   1  -3   9 53496.1 1615.33  66
  -1   3  -9 51187.1 1585.11  51
   1  -3   9 49796.3 1575.22  59
   1  -3   9 48882.9 1594.04  56
   1  -3   9 52121.0 1564.39  60
  -1  -3  -9 48228.7 2433.75  41
   1   3   9 50175.4 1612.76  49
  -1  -3  -9 49264.2 2313.33  39
  -1  -3 -10 15879.9 677.322  27
  -1   3 -10 16701.9 722.662  26
   1   3  10 16842.3 688.933   4
   1   3  10 16832.6 733.062   7
   1   3  10 17807.2 734.076   8
   1   3  10 16239.0 655.639 106
  -1   3 -10 14982.4 620.170 110
  -1   3 -10 17332.6 743.781 100
   1  -3  10 17836.0 746.782  99
   1   3  10 17415.6 745.630  98
  -1   3 -10 16105.4 1170.22  29
  -1  -3 -10 18165.9 754.823  74
  -1   3 -10 16430.2 1180.18  86
  -1  -3 -10 17859.0 1268.62  86
  -1  -3 -10 17370.1 705.081  78
  -1  -3 -10 16889.3 729.653  81
  -1  -3 -10 16897.5 676.115  75
  -1   3 -10 17119.8 704.478  51
   1  -3  10 16544.5 700.559  59
  -1  -3 -10 17527.6 749.433  70
   1  -3  10 16938.8 734.182  64
   1  -3  10 18160.0 753.482  66
   1   3  10 18094.4 759.849  48
  -1  -3 -10 14547.5 1197.49  41
   1   3  11 4370.91 315.927  48
  -1   3 -11 4949.67 325.237 100
   1  -3  11 4395.63 313.603  99
   1   3  11 4597.13 328.703  98
   1   3  11 4422.93 307.829   7
   1   3  11 4731.66 306.058   8
   1   3  11 3802.81 252.436   4
  -1  -3 -11 4052.60 300.173  74
  -1  -3 -11 4557.20 325.828  77
  -1  -3 -11 4149.06 299.836  81
  -1  -3 -11 4432.88 279.657  78
   1  -3  11 4172.83 275.579  67
   1  -3  11 3896.77 269.981  59
  -1  -3 -11 4020.55 305.303  70
   1  -3  11 3940.91 292.706  64
   1  -3  11 4422.53 313.500  66
  -1   3 -11 3901.53 266.027  51
  -1  -3 -11 4074.99 274.734  27
  -1   3 -11 4388.75 303.609  26
   1   3  12 5451.31 303.934  98
   1  -3  12 5576.25 303.281  99
   1  -3  12 5094.12 260.808  93
  -1  -3 -12 5420.87 284.361  81
  -1  -3 -12 5154.66 295.604  77
   1  -3  12 5701.43 289.855  64
   1   3  12 5638.89 308.322  48
  -1   3 -12 5513.14 279.970  26
  -1  -4  12 2223.92 151.092 108
   1   4 -12 2295.05 148.950  26
   1   4 -11 15909.3 584.480  26
   1   4 -11 14106.9 526.889 110
  -1  -4  11 15563.7 546.680  99
  -1   4  11 16028.3 577.952   4
   1  -4 -11 14780.8 528.008  77
  -1  -4  11 15556.5 570.816  67
  -1   4  11 15327.0 535.973  47
   1   4 -10 489.772 131.995 110
  -1  -4  10 537.225 125.210  99
  -1   4  10 552.975 141.804   4
  -1   4  10 441.182 114.006   8
   1   4 -10 438.019 98.8908  51
  -1  -4  10 462.847 133.152  67
  -1  -4  10 461.880 136.095  64
   1  -4 -10 478.410 123.751  70
  -1   4  10 525.941 139.008  48
   1   4  -9 4979.71 367.429  26
  -1   4   9 5338.53 365.924   8
  -1   4   9 5508.38 383.441   7
   1   4  -9 4813.01 322.203  13
   1   4  -9 5359.14 367.480 110
  -1   4   9 4599.95 349.479  98
  -1  -4   9 5533.85 355.095  99
   1   4  -9 5253.58 377.524 101
   1  -4  -9 5599.67 727.843  86
  -1  -4   9 5319.16 371.674  64
   1   4  -9 4799.97 336.752  51
  -1   4   9 5770.54 392.610  48
   1   4  -8 7359.81 460.017  26
  -1   4   8 6230.13 370.843  17
   1   4  -8 7073.62 428.774  13
  -1   4   8 7729.18 475.803   7
  -1   4   8 7786.01 469.953   8
  -1   4   8 7656.95 472.674   3
   1   4  -8 6893.05 446.290 110
  -1   4   8 6366.01 425.929  98
   1   4  -8 6663.99 451.143 101
  -1  -4   8 6198.41 733.072  92
  -1  -4   8 6776.11 414.243  99
  -1  -4   8 6292.93 733.136  28
  -1  -4   8 6449.60 802.215  89
   1  -4  -8 7684.69 877.357  86
  -1  -4   8 6460.91 387.269  66
   1   4  -8 7029.21 435.090  51
  -1  -4   8 7740.90 478.465  59
  -1  -4   8 7688.46 464.218  64
   1  -4  -8 6734.93 861.006  41
  -1   4   8 7504.50 474.122  49
   1   4  -7 80937.5 2272.14  26
  -1  -4   7 74151.2 3004.19  28
  -1   4   7 71806.8 2158.10  17
   1   4  -7 79159.5 2243.80  13
  -1   4   7 78539.8 3233.29   2
  -1   4   7 79039.1 2279.48   7
  -1   4   7 79124.5 2288.59   3
  -1   4   7 76825.3 2268.67   8
   1   4  -7 79949.3 2278.27 110
  -1  -4   7 80341.1 2185.77  99
  -1   4   7 74425.2 2209.89  98
   1   4  -7 77217.6 2275.29 101
  -1  -4   7 75829.9 3069.53  92
  -1  -4   7 80780.9 3295.10  37
  -1  -4   7 74318.0 3149.45  35
  -1  -4   7 81429.8 3207.25  89
  -1  -4   7 73522.4 3118.88  87
  -1  -4   7 81685.2 2295.74  59
   1   4  -7 75894.8 2238.21  51
  -1  -4   7 79059.0 2252.69  64
   1  -4  -7 80005.4 3285.17  41
  -1   4   7 76969.9 2269.91  49
  -1  -4   6 6281.26 759.626  28
  -1   4   6 6735.52 432.154  17
   1   4  -6 8084.71 474.392  26
  -1   4   6 7820.25 487.283   8
  -1   4   6 6730.02 394.574  10
  -1   4   6 7069.25 469.540   3
  -1   4   6 7804.56 478.961   7
   1   4  -6 6516.07 380.560 102
   1   4  -6 7560.52 475.618 110
  -1   4   6 6372.02 423.839  98
   1   4  -6 7183.15 469.403 101
  -1  -4   6 6506.68 393.864  99
   1  -4  -6 6170.51 713.855  34
  -1  -4   6 6730.71 823.418  35
  -1  -4   6 6204.84 775.296  89
   1   4  -6 7296.70 465.386  51
  -1  -4   6 7598.48 474.293  59
   1  -4  -6 7126.47 852.888  41
  -1   4   6 7766.21 470.016  49
  -1   4   6 7683.65 472.737  48
  -1   4   5 1667.48 222.264  17
  -1  -4   5 2319.96 493.035  28
   1   4  -5 1713.75 200.857  20
  -1   4   5 2001.65 394.219  18
   1   4  -5 1768.10 224.860  26
   1   4  -5 2032.27 388.460  18
  -1   4   5 1592.71 196.564  20
  -1   4   5 1594.93 227.430   7
   1   4  -5 1873.52 206.629  12
  -1   4   5 1503.89 203.433  10
  -1   4   5 1755.04 426.791   2
  -1   4   5 1867.17 211.544  12
   1   4  -5 2066.44 256.970 110
   1   4  -5 1541.78 193.450 102
   1   4  -5 1774.51 234.988 101
  -1   4   5 1551.78 207.550  98
   1  -4  -5 1937.16 383.266  34
  -1  -4   5 1311.75 386.847  35
  -1  -4   5 2739.68 504.022  89
  -1  -4   5 1594.30 404.506  87
  -1  -4   5 1492.16 214.588  59
   1   4  -5 1874.76 236.927  51
  -1   4   5 1631.74 221.872  49
  -1   4   5 1614.79 236.986  50
  -1   4   5 1383.99 208.999  48
   1  -4  -5 1291.85 370.605  41
   1   4  -4 9215.67 821.815  18
  -1   4   4 9429.36 517.774  17
  -1   4   4 9327.40 845.143  18
   1   4  -4 9410.64 478.503  20
  -1   4   4 9174.17 482.641  20
  -1  -4   4 9992.61 929.332  28
   1   4  -4 9269.86 507.497  21
   1   4  -4 9309.41 484.307  26
  -1   4   4 9433.28 506.711  16
  -1   4   4 9497.12 490.730  12
  -1   4   4 9468.99 932.371   2
   1   4  -4 9267.07 476.942  12
  -1   4   4 9312.00 489.229  10
  -1   4   4 10453.0 540.971   3
  -1   4   4 8814.15 489.606   7
   1   4  -4 9526.69 521.032 110
   1   4  -4 9193.58 466.634 102
  -1  -4   4 9552.97 868.739  89
   1  -4  -4 8988.96 874.462  33
  -1  -4   4 10559.7 972.871  35
  -1  -4   4 8551.24 863.822  87
   1   4  -4 9060.54 514.796  51
  -1   4   4 10043.2 509.585  53
  -1   4   4 9651.37 486.148  54
  -1  -4   4 9313.38 496.739  59
  -1  -4   4 8851.76 887.712  43
  -1   4   4 10306.7 540.122  50
  -1   4   4 8958.64 482.496  49
  -1   4   4 8988.16 498.439  48
   1   4  -3 20241.6 764.105  26
   1   4  -3 22630.2 825.401  20
   1   4  -3 21762.0 824.884  21
  -1   4   3 20402.3 807.193  20
  -1   4   3 22183.2 849.293  17
   1   4  -3 21859.7 1312.17  18
  -1  -4   3 23572.7 1425.04  28
  -1   4   3 20897.3 1298.69  18
  -1   4   3 21246.0 853.067   8
   1   4  -3 20945.8 805.668  12
  -1   4   3 21560.2 817.400  12
  -1   4   3 20598.9 798.956  16
  -1   4   3 20324.7 819.351   3
   1   4  -3 22224.5 806.494 102
   1   4  -3 21437.4 845.630 110
  -1  -4   3 22552.7 1281.48  89
   1  -4  -3 20350.7 1263.38  33
  -1  -4   3 19110.1 1157.08  31
  -1  -4   3 22302.1 1423.04  35
  -1  -4   3 20642.0 1306.91  87
   1   4  -3 21469.1 799.149  53
  -1   4   3 21656.4 827.755  53
   1   4  -3 21335.3 841.837  51
  -1   4   3 21280.1 807.677  54
  -1   4   3 20757.1 830.244  50
  -1  -4   3 21781.1 1380.60  43
  -1   4   3 21098.3 812.027  48
  -1  -4   3 21285.1 1211.22  39
  -1   4   3 21258.9 786.383  49
   1   4  -2 7100.30 402.700  21
  -1   4   2 6982.86 423.329  17
  -1   4   2 6790.74 723.942  18
   1   4  -2 7279.30 393.300  17
  -1  -4   2 7795.28 797.800  28
   1   4  -2 7327.79 745.375  18
   1   4  -2 6735.57 405.850  20
  -1   4   2 7028.30 418.302  20
   1   4  -2 7313.79 418.825  12
  -1   4   2 6805.90 412.638   4
  -1   4   2 6720.62 403.012   3
  -1   4   2 7381.73 397.604  11
  -1   4   2 7337.57 433.147   8
  -1   4   2 7453.14 429.970  12
  -1   4   2 6361.99 384.181  16
   1   4  -2 7231.88 431.084  13
  -1   4   2 6951.01 413.814  13
   1   4  -2 7172.01 433.851 110
   1   4  -2 7945.16 423.629 102
  -1  -4   2 6513.27 632.720  89
  -1  -4   2 7393.69 690.333  30
   1  -4  -2 6672.14 650.393  33
  -1  -4   2 6665.77 644.310  31
  -1  -4   2 7654.48 801.764  35
  -1  -4   2 6669.63 700.432  87
  -1   4   2 7055.99 415.027  54
  -1   4   2 6821.13 420.227  50
   1   4  -2 6692.53 399.727  53
  -1   4   2 7610.40 436.910  53
   1  -4  -2 6724.72 643.588  44
  -1   4   2 6389.88 363.473  49
  -1  -4   2 6494.91 664.863  39
  -1  -4   2 7226.08 747.770  43
   1   4  -1 115176. 3028.00  20
   1   4  -1 115247. 2972.90  21
   1   4  -1 113982. 2992.04  17
   1   4  -1 117281. 3847.35  18
  -1   4   1 118137. 3047.66  17
  -1   4   1 116115. 2999.91   4
  -1   4   1 112028. 2981.15   3
  -1   4   1 112459. 3028.01   8
   1   4  -1 112607. 3016.40  12
  -1   4   1 114952. 2992.78  11
   1   4  -1 119910. 3049.82  13
  -1   4   1 114556. 3027.26  12
  -1   4   1 113603. 3030.51  13
   1   4  -1 107864. 2928.79 104
   1   4  -1 121180. 3031.26 102
  -1  -4   1 113924. 3462.15  89
   1  -4  -1 108936. 3393.68  89
  -1  -4   1 121483. 3760.09  30
  -1  -4   1 103691. 3524.14  31
  -1  -4   1 108357. 3533.99  33
  -1  -4   1 121956. 4002.51  35
  -1  -4   1 115820. 3682.72  87
  -1   4   1 112348. 2958.74  51
   1   4  -1 117544. 3043.89  51
   1   4  -1 113542. 3017.03  53
   1  -4  -1 113904. 3736.73  39
  -1  -4   1 121897. 3834.54  39
   1   4   0 52194.8 2198.65  18
  -1   4   0 54770.0 2250.96  18
  -1   4   0 49588.2 1509.46  17
  -1   4   0 50563.0 1520.55  20
   1   4   0 50244.8 1520.77  20
   1   4   0 50820.5 1530.91   4
  -1   4   0 49898.9 1497.89  11
  -1   4   0 49897.9 1511.48   8
  -1   4   0 50838.1 1524.26  12
   1   4   0 50430.1 1504.69  13
   1   4   0 49414.0 1463.61   8
   1   4   0 49239.8 1496.96  17
   1   4   0 49775.9 1513.61  12
   1   4   0 48866.0 1463.11 104
  -1   4   0 48120.3 1491.28 110
  -1   4   0 48754.3 1433.46 112
   1   4   0 52620.9 1528.04 102
   1   4   0 48719.2 1437.65 103
   1  -4   0 48891.9 1932.68  89
  -1  -4   0 55134.4 2336.22  35
  -1  -4   0 48136.8 1980.50  31
  -1  -4   0 46825.6 1985.74  33
   1  -4   0 51635.9 2129.53  35
   1  -4   0 51767.8 1962.20  87
  -1  -4   0 51179.9 1972.66  87
   1   4   0 50434.5 1519.48  53
  -1   4   0 48793.0 1471.55  51
  -1   4   0 48661.4 1499.33  54
  -1   4   0 51191.3 1523.60  53
  -1   4   0 47420.0 1434.46  52
   1  -4   0 54728.2 2074.26  39
  -1  -4   0 51407.4 2207.79  39
  -1   4  -1 8676.16 802.385  18
  -1   4  -1 6927.27 405.576  17
   1   4   1 6892.76 728.922  18
  -1   4  -1 6755.83 410.481  20
   1   4   1 6820.52 411.072  20
   1   4   1 7515.60 429.681  12
   1   4   1 7078.44 407.144   8
  -1   4  -1 7512.09 422.787   8
   1   4   1 7104.13 403.802  13
   1   4   1 7965.47 451.589   4
   1   4   1 7466.90 426.391  17
  -1   4  -1 7396.02 435.502  13
  -1   4  -1 7692.96 432.533  12
  -1   4  -1 7127.66 372.528 112
  -1   4  -1 6715.36 400.161 110
   1   4   1 6896.46 400.430 104
   1   4   1 7057.46 390.662 103
   1  -4   1 6510.66 656.807  89
  -1  -4  -1 7237.59 709.628  92
  -1  -4  -1 7792.62 805.607  35
  -1  -4  -1 6234.69 669.708  33
  -1  -4  -1 6907.34 668.207  31
   1  -4   1 7588.12 726.358  35
   1  -4   1 7507.88 686.295  87
  -1  -4  -1 6064.29 558.078  87
  -1   4  -1 6785.91 408.446  54
  -1   4  -1 7250.34 411.973  51
  -1   4  -1 7004.69 418.060  53
  -1   4  -1 6642.20 384.280  52
   1   4   1 7529.39 432.195  53
  -1  -4  -1 6106.56 589.275  41
  -1  -4  -1 8091.12 806.935  39
   1   4   2 49843.1 2139.36  18
  -1   4  -2 45666.5 1375.98  26
   1  -4   2 48182.2 1973.91  28
   1   4   2 42825.6 1391.04  20
  -1   4  -2 44735.3 1398.00  20
  -1   4  -2 44596.9 1377.68  17
  -1   4  -2 47484.3 2077.73  18
   1   4   2 46774.5 1415.95  12
  -1   4  -2 46355.2 1409.63  12
   1   4   2 46003.3 1452.01   4
   1   4   2 42052.5 1342.26  13
   1   4   2 47175.1 1437.00  17
  -1   4  -2 43940.8 1414.89  13
   1   4   2 46934.3 1418.72   8
  -1   4  -2 44548.1 1387.61 110
   1   4   2 43965.2 1401.09 104
   1   4   2 44883.5 1389.81 103
   1  -4   2 46215.8 2011.18  89
  -1  -4  -2 45233.3 1873.11  92
  -1  -4  -2 43885.5 1960.19  31
   1  -4   2 46632.1 2024.71  35
  -1  -4  -2 44483.4 2033.52  33
   1  -4   2 47273.5 2008.47  87
  -1   4  -2 47534.1 1424.86  51
   1  -4   2 43097.3 1302.01  56
   1   4   2 45358.4 1446.68  50
  -1   4  -2 46449.7 1414.79  54
  -1   4  -2 44958.2 1404.35  53
  -1  -4  -2 43699.9 1902.88  41
   1  -4   2 46891.6 2141.66  43
  -1  -4  -2 49076.0 2235.47  39
   1   4   3 76495.8 2831.80  18
  -1   4  -3 73249.1 2057.89  20
  -1   4  -3 70807.4 2021.13  17
  -1   4  -3 74018.2 2071.83  26
  -1   4  -3 76015.9 2817.36  18
   1   4   3 73680.4 2077.06  20
   1  -4   3 74262.7 2675.26  28
  -1   4  -3 72897.4 2060.91  12
   1   4   3 74988.8 2115.47   8
   1   4   3 72466.0 2064.14  12
   1   4   3 69520.6 1986.79  13
  -1   4  -3 73646.5 2102.26  13
  -1   4  -3 71035.8 2048.82 110
   1   4   3 71841.3 2013.76  97
   1  -4   3 74770.2 2857.11  89
  -1  -4  -3 71453.9 2783.85  31
  -1  -4  -3 79274.8 3004.14  33
   1  -4   3 73890.4 2762.81  35
   1  -4   3 71531.7 2791.39  87
   1   4   3 76524.9 2148.03  50
   1  -4   3 75433.4 2024.13  56
  -1   4  -3 71169.1 2053.33  54
  -1   4  -3 73886.6 2104.50  51
  -1   4  -3 73594.3 2073.41  53
   1  -4   3 80576.2 3068.95  43
  -1  -4  -3 81231.1 2872.24  41
  -1  -4  -3 81291.4 3086.30  39
   1   4   3 71802.4 2012.73  48
  -1   4  -4 36317.0 1189.32  26
  -1   4  -4 34295.2 1122.00  20
   1  -4   4 31570.9 1577.25  28
  -1   4  -4 34584.9 1699.19  18
   1   4   4 34629.6 1715.38  18
   1   4   4 33976.8 1130.99  20
  -1   4  -4 34148.7 1123.61  12
   1   4   4 36034.7 1202.62  17
   1   4   4 35881.2 1226.50   4
   1   4   4 34625.4 1198.62   8
   1   4   4 33512.5 1122.92  12
  -1   4  -4 32507.2 1159.31  13
  -1   4  -4 32787.6 1129.14 110
   1   4   4 34711.3 1145.28  97
   1  -4   4 36831.4 1855.55  89
  -1   4  -4 34080.6 1192.35 101
  -1  -4  -4 31274.7 1754.93  31
  -1  -4  -4 35595.8 1891.09  33
   1  -4   4 33585.4 1704.59  35
   1  -4   4 34584.8 1827.64  87
   1  -4   4 33972.5 1090.80  58
  -1   4  -4 30990.2 1112.03  53
   1  -4   4 34589.0 1134.82  56
  -1  -4  -4 36000.3 1843.95  41
   1   4   4 35538.2 1223.96  50
   1   4   4 35046.2 1145.55  48
   1  -4   4 35935.3 1929.29  43
   1   4   4 36598.5 1206.47  49
  -1  -4  -4 36917.0 1957.43  39
   1   4   5 10441.8 878.365  18
   1   4   5 11001.8 529.698  20
  -1   4  -5 13452.0 636.827  26
   1   4   5 12438.3 615.514  17
   1   4   5 13133.1 646.358   8
  -1   4  -5 12475.8 598.818  13
   1   4   5 11064.1 529.024  12
   1   4   5 12606.5 640.767   4
  -1   4  -5 11455.3 564.752 110
  -1   4  -5 12283.7 625.995 101
   1  -4   5 13144.6 1097.05  89
  -1  -4  -5 10757.1 1016.22  31
  -1  -4  -5 12007.0 1095.19  33
   1  -4   5 12035.3 1144.11  37
   1  -4   5 13382.3 1117.41  87
  -1   4  -5 11238.1 544.748  53
  -1   4  -5 12047.5 615.800  51
   1  -4   5 12262.2 586.641  56
   1  -4   5 11546.9 541.679  58
   1   4   5 12884.2 656.375  50
   1   4   5 12973.1 634.873  49
  -1  -4  -5 14015.9 1130.72  41
   1   4   5 13392.9 608.867  48
   1  -4   5 13304.2 1167.58  38
  -1   4  -6 9258.43 532.481  26
   1   4   6 9502.43 548.607   4
  -1   4  -6 8842.03 488.082  13
   1   4   6 10003.2 558.678   8
   1   4   6 8903.32 503.390  17
  -1   4  -6 8292.45 465.364 110
  -1   4  -6 9377.86 538.621 101
   1   4   6 7804.32 445.787  98
   1  -4   6 8994.76 930.621  89
  -1   4  -6 8949.09 530.846 100
  -1  -4  -6 9073.76 951.334  31
  -1  -4  -6 8449.78 946.712  33
   1  -4   6 7610.02 931.776  37
   1  -4   6 7938.23 908.121  87
   1  -4   6 8980.84 505.440  56
  -1   4  -6 9818.90 550.326  51
   1  -4   6 8463.94 463.226  58
  -1  -4  -6 7838.61 899.015  41
   1  -4   6 8155.75 932.696  38
   1   4   6 8767.13 498.904  48
  -1  -4  -6 7892.57 937.062  39
   1   4   7 47174.0 1474.57  17
  -1   4  -7 47092.2 1463.98  11
  -1   4  -7 46162.3 1429.29  13
   1   4   7 48133.9 1545.50   4
  -1   4  -7 45556.7 1425.54 110
  -1   4  -7 47460.8 1551.33 101
   1   4   7 46657.2 1441.65  98
   1  -4   7 48100.4 2334.51  89
  -1   4  -7 45957.7 1536.99 100
  -1  -4  -7 47168.6 2380.83  33
  -1  -4  -7 45734.1 1503.70  69
   1  -4   7 47912.4 1517.81  56
  -1   4  -7 47197.8 1536.32  51
   1  -4   7 44741.1 1450.83  66
   1  -4   7 46615.6 1448.10  58
   1   4   7 47464.5 1512.49  48
   1  -4   7 44554.7 2293.34  38
  -1  -4  -7 49128.4 2393.31  39
  -1  -4  -7 46618.3 2345.48  41
   1   4   8 8584.61 451.513  17
  -1   4  -8 9610.79 540.863 101
  -1   4  -8 7756.95 431.061 110
  -1   4  -8 9340.97 540.591 100
   1  -4   8 9063.03 501.576  99
   1   4   8 8851.31 474.715  98
  -1   4  -8 8894.29 458.995  11
   1   4   8 9042.20 514.679   4
  -1  -4  -8 9324.32 492.747  75
   1  -4   8 9204.11 515.321  56
   1  -4   8 8994.67 485.278  66
  -1  -4  -8 8912.77 494.618  69
  -1   4  -8 8804.64 511.887  51
  -1  -4  -8 8835.61 941.800  41
   1   4   8 9591.05 539.998  49
   1   4   8 10001.3 529.752  48
   1   4   9 2394.03 252.150  48
   1   4   9 2266.39 247.257  49
   1   4   9 2033.87 221.568  98
   1  -4   9 2438.61 248.599  99
   1   4   9 2787.78 263.231   4
   1   4   9 2435.19 259.311   8
  -1  -4  -9 2137.13 443.662  86
  -1  -4  -9 2194.35 230.491  78
  -1  -4  -9 2047.79 236.444  74
  -1  -4  -9 2096.17 211.242  75
   1  -4   9 2348.07 252.285  64
   1  -4   9 2000.87 233.035  59
  -1   4  -9 2455.66 252.255  51
   1  -4   9 1888.01 215.901  66
  -1   4  -9 2201.91 250.748  26
   1   4  10 4029.50 292.890  48
   1  -4  10 4163.50 286.712  99
   1   4  10 3727.19 262.497  98
   1   4  10 4084.83 291.081   8
   1   4  10 3928.58 268.866   4
  -1  -4 -10 4301.97 285.101  81
  -1  -4 -10 3659.34 273.469  74
  -1  -4 -10 3714.27 251.469  78
   1  -4  10 3656.98 264.148  66
   1  -4  10 4235.20 292.265  59
  -1   4 -10 4308.09 286.458  51
  -1   4 -10 4395.06 301.402  26
   1  -4  11 6425.52 303.861  99
  -1  -4 -11 6038.26 304.702  77
  -1  -4 -11 6091.40 279.222  81
   1  -4  11 5639.47 277.774  67
  -1   4 -11 4833.89 249.256  51
  -1   4 -11 6185.15 300.889  26
   1   4  11 4877.24 235.215   4
   1   4  11 5409.39 277.085   8
  -1  -5  10 3228.72 202.047  67
   1   5 -10 3558.87 200.410  26
  -1   5  10 3525.76 214.206   4
   1   5  -9 4662.11 276.788 110
  -1  -5   9 5170.21 289.155  64
  -1  -5   9 5898.49 323.108  67
   1   5  -9 5189.54 292.151  26
  -1   5   9 5219.92 316.244   4
  -1   5   9 4690.80 287.974   8
   1   5  -9 4889.50 260.553  11
   1   5  -9 4780.55 257.859  13
   1   5  -8 292.540 118.154 110
  -1   5   8 416.303 131.600   8
   1   5  -8 391.725 115.035  11
   1   5  -8 447.962 120.424  13
  -1  -5   8 314.168 126.844  67
  -1  -5   8 429.769 123.157  59
  -1  -5   8 292.749 103.393  64
   1   5  -8 481.096 126.778  26
   1   5  -7 6767.74 413.185 110
  -1  -5   7 6033.98 720.332  92
   1   5  -7 6989.44 413.925  13
  -1   5   7 6421.78 416.236   8
   1  -5  -7 6229.80 730.181  86
  -1  -5   7 6123.96 372.872  64
  -1  -5   7 6389.07 404.792  59
  -1  -5   7 5673.76 385.918  67
   1   5  -7 6645.28 412.032  51
  -1   5   7 6004.84 375.868  17
   1   5  -7 6461.03 382.880  26
   1   5  -6 7744.40 433.503  26
  -1  -5   6 7604.64 783.335  28
  -1   5   6 8194.49 471.332  17
   1   5  -6 8327.46 484.518 110
  -1  -5   6 8453.49 904.447  92
  -1  -5   6 6150.31 733.266  89
  -1   5   6 7567.36 442.489  49
   1  -5  -6 5655.19 762.488  41
  -1  -5   6 7041.47 411.944  64
  -1  -5   6 7995.49 466.203  59
   1   5  -6 7219.91 458.989  51
  -1   5   6 8021.02 495.723   4
   1   5  -6 8385.79 483.611  13
  -1  -5   5 1581.98 402.741  28
  -1   5   5 1169.27 189.081  20
   1   5  -5 1175.43 180.825  20
   1   5  -5 1282.05 184.474  26
   1   5  -5 1709.54 248.760  13
   1   5  -5 1239.04 175.962  12
  -1   5   5 1753.43 247.535   4
  -1   5   5 1732.76 247.687   8
  -1   5   5 1278.65 189.681  12
  -1   5   5 1403.38 197.980  10
  -1   5   5 1361.53 226.326  17
   1   5  -5 1615.70 236.710 110
  -1  -5   5 1506.37 378.695  89
   1   5  -5 1234.48 210.407  51
  -1  -5   5 1224.39 172.405  64
  -1  -5   5 1595.72 214.482  59
   1  -5  -5 1725.91 440.420  39
  -1   5   5 1335.05 193.239  49
   1  -5  -5 1070.86 347.069  41
   1   5  -4 9738.24 514.820  20
  -1   5   4 8189.98 879.331  18
  -1  -5   4 8893.95 929.501  28
   1   5  -4 7613.17 821.905  18
  -1   5   4 9919.31 526.983  20
  -1   5   4 9568.96 558.180  17
   1   5  -4 9765.45 475.325  26
   1   5  -4 9764.13 514.332  12
  -1   5   4 9924.02 516.027  10
  -1   5   4 9439.90 544.371   3
  -1   5   4 9615.42 553.646   4
  -1   5   4 9960.02 574.699   8
  -1   5   4 10226.9 537.888  12
   1   5  -4 10029.3 560.308  13
   1   5  -4 10123.6 565.666 110
   1   5  -4 9038.19 471.239 102
  -1  -5   4 9189.53 968.265  92
  -1  -5   4 9046.06 964.939  35
  -1  -5   4 8873.71 856.141  89
  -1  -5   4 8840.23 919.237  87
   1   5  -4 9578.74 550.899  51
  -1  -5   4 9918.02 508.917  59
  -1  -5   4 7933.35 891.379  43
  -1   5   4 9533.88 493.067  49
  -1   5   4 9896.32 556.913  50
   1  -5  -4 9297.32 999.359  39
  -1   5   3 290.851 216.901  18
  -1   5   3 113.458 131.124  20
   1   5  -3 458.215 159.242  20
   1   5  -3 56.2056 198.837  18
  -1  -5   3 535.893 289.425  28
   1   5  -3 237.320 125.256  12
  -1   5   3 206.016 134.843  10
  -1   5   3 232.398 150.606   8
  -1   5   3 163.564 120.563  12
  -1   5   3 299.744 141.678   3
  -1   5   3 217.833 141.185   4
   1   5  -3 266.600 158.284 110
   1   5  -3 608.991 143.290 102
  -1  -5   3 550.671 322.566  92
  -1  -5   3 318.861 260.449  35
  -1  -5   3 163.567 203.311  87
  -1  -5   3 480.276 129.072  59
  -1   5   3 153.187 130.169  53
  -1  -5   3 246.979 230.218  43
   1  -5  -3 121.093 201.940  39
  -1   5   3 335.818 106.916  49
  -1   5   3 416.308 168.712  50
  -1   5   2 11713.9 600.571  20
  -1  -5   2 11677.7 1069.41  28
   1   5  -2 10225.0 999.963  18
  -1   5   2 10287.7 1012.34  18
   1   5  -2 11675.2 597.964  20
  -1   5   2 11873.9 617.889  17
   1   5  -2 11228.6 544.941  17
   1   5  -2 10966.7 579.996  12
  -1   5   2 12010.3 613.129  12
   1   5  -2 12410.5 625.271  13
  -1   5   2 11323.9 578.113   4
  -1   5   2 10135.9 579.395   8
  -1   5   2 10709.1 530.733  11
  -1   5   2 10818.7 533.611 112
   1   5  -2 10958.6 597.702 110
  -1  -5   2 9247.29 958.497  92
   1  -5  -2 10906.0 1047.40  35
  -1  -5   2 9492.19 1006.51  35
  -1  -5   2 9623.95 899.666  87
  -1   5   2 12292.1 620.754  53
  -1   5   2 10319.1 581.606  50
   1  -5  -2 9822.44 973.921  39
  -1  -5   2 9462.80 988.500  43
   1   5  -1 33806.6 1893.42  18
  -1  -5   1 33011.5 1896.00  28
   1   5  -1 33620.8 1201.95  20
  -1   5   1 33558.2 1204.49  17
   1   5  -1 33693.1 1162.07  17
  -1   5   1 33528.9 1105.78 112
   1   5  -1 33417.7 1211.76 110
  -1  -5   1 34359.2 1874.18  92
   1   5  -1 35240.4 1216.19  13
  -1   5   1 34710.0 1162.90  11
  -1   5   1 33356.2 1196.53  13
  -1   5   1 35034.3 1162.41   4
   1   5  -1 34932.1 1216.77  12
  -1   5   1 34394.9 1214.72   8
  -1  -5   1 32678.4 1694.83  30
  -1  -5   1 35671.9 1993.65  35
   1  -5  -1 35722.6 1900.30  35
  -1   5   1 32624.6 1197.01  50
  -1  -5   1 32141.7 1887.54  43
  -1  -5   1 29413.9 1699.42  39
  -1   5   0 54423.1 1686.61  17
   1   5   0 52343.9 1682.81  20
  -1  -5   0 53078.1 2522.20  28
   1   5   0 54951.8 1672.36  17
  -1   5   0 56155.3 2548.30  18
   1   5   0 56049.2 2528.59  18
  -1   5   0 53323.6 1686.32  20
  -1   5   0 50701.9 1541.44 112
  -1  -5   0 54989.0 2414.36  92
   1   5   0 49911.1 1593.02   8
   1   5   0 55706.2 1677.44  13
  -1   5   0 56398.5 1678.55  11
  -1   5   0 55770.4 1708.02  12
  -1   5   0 53671.5 1693.03  13
   1   5   0 56022.0 1706.89  12
  -1  -5   0 52301.0 2357.03  30
   1  -5   0 53380.9 2409.95  35
  -1  -5   0 52049.3 2533.19  35
  -1   5   0 53547.4 1689.30  53
   1  -5   0 52199.6 2497.12  43
  -1  -5   0 48278.0 2342.97  39
  -1   5  -1 5983.73 783.838  18
  -1   5  -1 6874.35 443.311  17
   1   5   1 6143.11 791.939  18
  -1   5  -1 6839.54 451.290  20
   1   5   1 6411.62 442.180  20
   1   5   1 6636.68 443.167  17
   1  -5   1 6343.33 722.193  28
   1   5   1 6494.10 393.355  11
   1   5   1 6370.73 413.154  13
  -1   5  -1 6811.32 444.777  11
  -1   5  -1 6637.04 446.592  12
   1   5   1 6009.70 407.938   8
   1   5   1 6750.04 451.510  12
  -1   5  -1 6278.91 424.078 110
  -1  -5  -1 6008.38 702.294  92
  -1  -5  -1 5290.24 770.408  35
  -1  -5  -1 6984.44 813.171  30
   1  -5   1 6817.91 774.647  35
  -1   5  -1 6170.57 416.700  51
  -1   5  -1 7092.77 464.538  53
   1   5   1 7375.00 479.308  50
  -1  -5  -1 6789.70 823.051  39
   1  -5   1 5928.44 783.419  43
   1   5   2 30547.6 1106.34  20
   1   5   2 30485.9 1118.79  17
  -1   5  -2 30872.3 1070.14  17
  -1   5  -2 28175.2 1704.73  18
  -1   5  -2 29895.6 1088.79  20
   1   5   2 29217.5 1734.28  18
   1  -5   2 28588.2 1582.77  28
  -1   5  -2 28404.8 989.866  26
  -1   5  -2 29201.3 1081.74  12
  -1   5  -2 30799.6 1115.29  11
   1   5   2 29042.3 1072.00   8
   1   5   2 31431.9 1141.52   4
   1   5   2 29884.5 1093.53  12
  -1   5  -2 30330.8 1115.72  13
   1   5   2 29950.8 1033.89  13
  -1   5  -2 27903.8 1047.29 110
   1  -5   2 29829.9 1605.37  89
   1  -5   2 25511.2 1590.03  35
  -1  -5  -2 29520.8 1833.28  35
   1  -5   2 25920.6 1554.33  87
  -1   5  -2 29962.7 1093.73  53
  -1   5  -2 30820.1 1099.05  51
   1   5   2 31344.6 1144.60  50
   1  -5   2 27698.1 1756.74  43
   1   5   2 29744.6 1058.98  49
  -1  -5  -2 31203.6 1857.63  39
   1   5   3 26058.5 1010.39  17
  -1   5  -3 23609.6 899.454  17
  -1   5  -3 25542.2 922.187  26
  -1   5  -3 23543.6 1523.04  18
  -1   5  -3 25095.0 957.367  20
   1   5   3 22235.1 1485.79  18
   1   5   3 24644.1 962.607  20
   1   5   3 25728.9 970.714  12
  -1   5  -3 25853.2 964.917  12
  -1   5  -3 26185.3 1005.54  13
   1   5   3 27710.0 1041.29   4
   1   5   3 26229.2 995.006   8
  -1   5  -3 23904.8 929.470 110
   1  -5   3 24182.7 1498.72  89
  -1  -5  -3 24328.5 1568.33  33
  -1  -5  -3 25823.3 1722.93  35
   1  -5   3 23446.5 1505.55  87
  -1   5  -3 24351.9 953.109  53
  -1   5  -3 27736.7 1013.92  51
   1   5   3 26099.5 1021.75  50
   1   5   3 26829.4 981.548  49
   1  -5   3 24018.3 1633.74  43
  -1  -5  -3 24753.7 1674.48  39
  -1   5  -4 5868.31 711.112  18
   1   5   4 7224.46 437.141  20
  -1   5  -4 8025.64 453.673  26
   1   5   4 4861.64 664.033  18
  -1   5  -4 7012.26 429.455  20
   1   5   4 7398.95 440.555  12
  -1   5  -4 7790.91 477.075  13
  -1   5  -4 7695.66 484.107  11
  -1   5  -4 7175.72 428.565  12
   1   5   4 6898.85 465.587   8
  -1   5  -4 6367.71 413.880 110
   1  -5   4 7783.26 850.117  89
  -1  -5  -4 7676.29 866.158  33
   1  -5   4 5970.38 813.008  37
  -1  -5  -4 6677.68 861.002  35
   1  -5   4 6155.09 757.734  87
  -1   5  -4 6511.00 421.676  53
  -1   5  -4 7921.76 484.875  51
   1   5   4 8316.22 480.233  49
  -1  -5  -4 7797.96 917.432  39
   1   5   4 7651.03 492.118  50
   1   5   5 17502.5 764.045  17
  -1   5  -5 15961.0 657.740  20
   1   5   5 15893.5 661.192  20
  -1   5  -5 17396.9 726.587  26
   1  -5   5 14015.0 1169.36  89
  -1   5  -5 15360.9 667.595 110
  -1   5  -5 17490.6 752.746  11
   1   5   5 16086.6 661.491  12
  -1   5  -5 15350.7 646.654  12
   1   5   5 17548.9 778.773   4
   1   5   5 17788.2 777.013   8
  -1   5  -5 18120.3 749.230  13
  -1   5  -5 14614.3 648.216  53
   1   5   5 18030.5 758.567  49
  -1  -5  -5 15487.6 1201.84  41
  -1  -5  -5 16523.0 1337.57  39
  -1   5  -6 15637.2 674.202  26
   1   5   6 14396.1 668.048  17
   1  -5   6 14478.2 601.254  99
   1  -5   6 12850.9 1108.63  89
  -1   5  -6 12171.2 568.341 110
  -1   5  -6 14728.0 642.082  13
  -1   5  -6 15438.7 674.215  11
   1   5   6 16091.9 716.030   4
   1   5   6 15351.4 706.914   8
  -1   5  -6 15080.7 697.156  51
  -1  -5  -6 14178.2 657.658  69
   1  -5   6 14769.9 678.547  59
   1   5   6 16095.1 696.959  49
   1   5   6 14496.0 623.000  48
  -1  -5  -6 13021.1 1095.09  41
   1   5   7 1268.39 178.363  48
   1   5   7 1621.99 218.674  49
   1  -5   7 1666.13 185.829  99
  -1   5  -7 1608.44 206.989  26
   1   5   7 1603.29 201.530  17
  -1   5  -7 1436.99 210.180  51
   1  -5   7 1586.87 218.370  59
  -1  -5  -7 1564.09 197.297  69
   1   5   7 1635.54 226.342   4
   1   5   7 1388.98 205.859   8
  -1   5  -7 1261.03 185.781  11
  -1   5  -7 1365.47 179.790  13
   1  -5   8 2781.65 216.618  99
  -1   5  -8 3296.24 256.590  26
  -1  -5  -8 2889.61 215.894  75
   1  -5   8 3610.28 275.929  59
  -1   5  -8 3392.49 272.313  51
  -1  -5  -8 2783.47 230.738  69
   1  -5   8 3295.56 261.602  64
  -1   5  -8 3301.32 235.242  11
   1   5   8 2940.51 260.606   4
   1  -5   9 3791.22 217.607  99
  -1  -5  -9 3421.14 209.357  78
  -1   5  -9 4247.97 257.879  26
   1  -5   9 4177.16 266.289  59
   1  -5   9 4185.09 257.714  64
  -1   5  -9 3944.59 255.720  51
   1  -5   9 4298.10 266.405  67
   1   5   9 3848.00 247.544   4
   1  -5  10 122.094 57.4909  64
   1  -5  10 113.187 58.6226  67
  -1  -5 -10 133.504 58.3653  77
  -1   5 -10 186.155 51.5543   9
   1   5  10 148.960 58.9736   8
  -1  -6   7 12021.3 425.006  67
  -1   6   7 11650.3 416.068 112
   1   6  -7 12790.1 465.966  11
  -1   6   7 13533.6 481.995   4
   1   6  -7 12243.8 452.643  13
  -1  -6   6 94.0438 65.0120  67
  -1   6   6 118.361 71.9681 112
   1   6  -6 218.116 96.4551 110
   1   6  -6 197.252 93.0474  13
  -1   6   6 107.650 88.6534   4
   1   6  -6 79.6187 90.9151  11
  -1   6   6 186.582 95.2756  17
  -1   6   6 201.161 104.450   8
  -1   6   5 22862.9 757.111 112
   1   6  -5 22398.6 812.953 110
   1   6  -5 22163.0 733.516  12
  -1   6   5 23409.8 849.289   8
   1   6  -5 25734.4 859.480  11
  -1   6   5 25101.0 838.904   4
   1   6  -5 24795.4 848.852  13
  -1  -6   5 23242.5 742.929  67
  -1   6   5 25267.3 855.040  17
   1   6  -5 22228.6 730.787  20
  -1  -6   4 24334.0 1468.78  92
   1   6  -4 28963.9 989.929  13
   1   6  -4 28384.3 923.901  12
   1   6  -4 30449.1 996.665  11
  -1   6   4 28814.7 957.076   4
  -1   6   4 29302.4 1001.91   8
  -1   6   4 27324.2 893.326  10
  -1   6   4 26159.7 916.895  12
   1  -6  -4 23445.4 1366.34  30
   1   6  -4 29276.8 928.600  20
  -1   6   4 26608.1 872.408 112
   1   6  -4 27631.7 966.907 110
  -1  -6   3 5621.86 686.222  92
   1   6  -3 4672.65 351.838 110
  -1   6   3 4782.70 347.623  50
   1   6  -3 5225.23 355.345  11
  -1   6   3 5491.50 342.853  10
  -1   6   3 5262.80 355.518  12
   1   6  -3 5070.85 341.607  12
  -1   6   3 4996.15 367.860  17
   1   6  -3 4911.45 338.404  20
  -1   6   3 5147.91 354.321  20
  -1   6   2 7835.55 455.636  50
   1   6  -2 7299.24 389.674  17
   1  -6  -2 7493.89 768.717  28
  -1   6   2 7846.65 468.968  17
  -1  -6   2 7019.37 764.874  28
   1   6  -2 8063.80 457.344  20
  -1   6   2 7764.32 454.913  20
   1   6  -2 7831.73 449.726  12
   1   6  -2 7947.08 444.643  11
   1   6  -2 8188.79 463.626  13
  -1   6   2 8011.54 459.762  12
  -1   6   2 8395.68 457.005  10
  -1  -6   2 7301.79 784.258  92
  -1   6   1 11888.2 580.503  10
   1   6  -1 11937.0 545.800  11
  -1   6   1 11443.8 517.838  11
   1   6  -1 11587.4 580.490  12
   1   6  -1 11835.3 568.223  13
  -1   6   1 11331.6 566.182  50
   1   6  -1 11957.7 597.716  50
   1   6  -1 11654.1 538.483  17
   1   6  -1 11907.6 584.875  20
  -1   6   1 10683.3 561.047  17
  -1  -6   1 10198.5 962.481  28
  -1  -6   1 9636.87 882.093  92
  -1  -6   0 22350.6 1490.35  28
  -1   6   0 24578.1 936.656  17
   1   6   0 25187.3 957.613  20
  -1   6   0 25125.9 956.627  20
   1   6   0 26037.6 937.782  17
   1   6   0 25894.1 978.282  50
  -1   6   0 26632.5 964.623  50
  -1   6   0 25170.5 958.907  12
   1   6   0 27001.2 977.612  12
  -1   6   0 25167.4 910.397  11
   1   6   0 26090.1 884.300  11
   1   6   0 26032.2 926.918  13
  -1  -6   0 22599.4 1355.03  92
  -1   6  -1 35359.3 1217.45  12
  -1   6  -1 38133.4 1216.47  11
   1  -6   1 30675.8 1684.92  92
   1   6   1 36745.2 1247.72  50
  -1   6  -1 36750.7 1227.19  53
  -1   6  -1 37114.6 1224.71  50
   1   6   1 36695.2 1223.36  17
  -1   6  -1 35693.6 1186.25  17
  -1  -6  -1 32542.8 1847.43  28
  -1   6  -1 38224.6 1237.16  20
  -1   6  -2 851.211 173.112  11
   1   6   2 644.533 130.696  10
  -1   6  -2 917.664 185.513  13
   1   6   2 751.824 151.707   8
   1   6   2 817.052 176.654  12
  -1   6  -2 844.093 172.479  12
  -1   6  -2 713.987 141.860  17
   1   6   2 745.625 174.060  17
   1  -6   2 633.833 263.965  92
   1   6   2 912.592 189.454  50
  -1   6  -2 692.042 170.054  50
  -1  -6  -2 937.093 287.525  30
  -1   6  -2 939.275 168.677  53
  -1  -6  -2 1005.58 336.231  28
  -1   6  -2 853.417 174.927  20
   1   6   2 798.965 171.062  20
   1  -6   3 637.573 271.338  92
  -1   6  -3 474.064 150.104  13
   1   6   3 440.750 136.458  12
   1   6   3 506.749 135.641   8
   1   6   3 592.283 167.170  17
  -1   6  -3 424.658 131.286  12
  -1  -6  -3 283.389 184.943  30
   1   6   3 524.651 113.329  49
   1   6   3 486.128 157.592  50
   1   6   3 387.074 136.108  20
  -1  -6  -3 590.859 268.810  28
  -1   6  -3 451.409 134.555  20
   1   6   4 9938.66 448.986  49
   1   6   4 10610.9 498.891   8
   1   6   4 9495.14 446.499  12
  -1   6  -4 9879.45 452.323  12
  -1   6  -4 10879.5 514.603  11
  -1   6  -4 9985.99 493.484  13
  -1  -6  -4 9386.58 855.593  30
   1  -6   4 9437.89 437.205  59
   1   6   4 9989.05 453.270  20
  -1   6  -5 9138.57 439.852  11
   1   6   5 8243.12 421.814   8
  -1   6  -5 8297.45 413.940  13
   1   6   5 8442.73 393.695  49
  -1  -6  -5 8159.24 414.942  69
   1  -6   5 8299.99 395.963  59
   1   6   5 8169.13 425.370  17
  -1  -6  -6 799.637 106.343  75
   1  -6   6 851.922 120.959  59
   1   6   6 1038.19 142.878  17
  -1   6  -6 1031.08 147.917  11
   1   6   6 1115.08 150.204   8
   1   6   6 1098.37 135.063  49
   1  -6   7 6211.98 282.185  67
   1   6   7 5670.64 262.784  17
  -1   6  -7 6541.37 284.421  11
   1   6   7 6565.23 307.272   8
  -1   6  -7 5299.74 236.545  10
  -1   6  -8 8533.16 305.402   9
   1   6   8 7836.17 299.139   8
  -1   7   3 13868.9 476.141  17
   1   7  -3 14515.5 469.916  10
  -1   7   2 10888.6 416.382  17
   1   7  -2 11429.7 402.837  10
  -1   7   2 11054.9 407.372  12
   1   7  -2 11190.0 407.969  12
   1   7  -1 3828.64 224.274  20
   1   7  -1 3627.34 219.577  12
   1   7  -1 3677.82 201.180  10
  -1   7   1 3536.08 202.893  10
   1   7   0 13201.1 463.083  20
  -1   7   0 10339.0 409.653  50
   1   7   0 13133.7 461.909  12
  -1   7   0 13076.0 450.248  10
  -1   7   0 13003.5 462.854  12
   1   7   1 4535.17 234.105  17
   1   7   1 5358.02 263.237  20
  -1   7  -1 5037.42 258.270  12
  -1   7  -1 5031.16 259.688  10
   1   7   1 5135.76 257.178  12
   1   7   2 1960.07 151.581  17
  -1   7  -2 1776.87 142.748  12
   1   7   2 2015.07 145.884  12
  -1   7  -2 1671.91 128.769  11
  -1   7  -3 381.046 67.2330  11
  -1   7  -3 503.622 85.3100  10
   1   7   3 513.251 81.2133  17
   2   0 -14 107932. 2386.05 110
  -2   0  14 86208.6 2284.22   7
  -2   0  13 7386.70 375.530  99
   2   0 -13 6836.28 361.198  72
  -2   0  13 6728.69 380.294 106
  -2   0  12 88196.7 2348.22 106
  -2   0  12 79898.7 2202.98 108
  -2   0  12 78890.3 2225.15  98
  -2   0  12 88924.8 2363.04  93
  -2   0  12 82909.8 2306.22  99
   2   0 -12 83280.7 3193.09  29
   2   0 -12 80049.6 3099.16  32
   2   0 -12 84087.6 2247.00  73
   2   0 -12 77251.0 2183.51  82
   2   0 -12 88004.0 3186.29  86
   2   0 -12 88784.5 2363.17  76
   2   0 -12 85349.8 2307.38  72
   2   0 -12 80019.1 2916.86  71
  -2   0  12 83444.8 2226.89   6
  -2   0  11 122.470 111.165 108
  -2   0  11 296.448 152.876 106
  -2   0  11 117.029 127.741  93
  -2   0  11 80.1862 119.589  99
  -2   0  11 208.352 115.807  98
   2   0 -11 232.662 205.688  32
   2   0 -11 16.8185 117.317  84
   2   0 -11 303.879 123.029  73
   2   0 -11 186.144 130.827  76
   2   0 -11 114.816 179.044  86
   2   0 -11 111.432 120.181  72
   2   0 -11 50.4603 197.276  71
   2   0 -11 100.489 145.092  40
  -2   0  10 36892.5 1912.57   2
  -2   0  10 39246.9 1291.99 108
  -2   0  10 38920.5 1344.17 106
  -2   0  10 39278.3 1346.29  93
  -2   0  10 40848.0 1350.17  99
  -2   0  10 37661.9 1292.11  98
   2   0 -10 37632.5 1971.92  34
   2   0 -10 40110.8 2066.34  32
  -2   0  10 43515.7 2208.47  28
   2   0 -10 41831.9 1373.48  76
   2   0 -10 39199.8 2029.90  86
   2   0 -10 41818.7 1355.88  72
   2   0 -10 40674.1 1355.45  84
   2   0 -10 40631.5 1324.20  73
   2   0 -10 39077.0 1287.97  77
   2   0 -10 39839.4 1981.17  71
   2   0 -10 38008.9 2061.08  42
   2   0 -10 38323.7 1945.75  40
  -2   0   9 51467.9 2221.23   2
  -2   0   9 49817.9 1529.53 106
  -2   0   9 45692.7 2167.52  94
  -2   0   9 47867.8 1518.99  93
  -2   0   9 44826.0 1460.13  98
  -2   0   9 48176.2 1510.45  99
  -2   0   9 49795.9 2337.78  28
   2   0  -9 50183.3 2280.08  32
   2   0  -9 46300.2 2159.21  34
   2   0  -9 51455.0 2271.92  86
  -2   0   9 47711.0 2022.07  89
   2   0  -9 49366.2 1528.85  72
   2   0  -9 46845.0 1422.12  81
   2   0  -9 48329.5 1468.24  77
   2   0  -9 49372.6 1529.38  76
  -2   0   9 45516.2 1409.53  67
   2   0  -9 49336.7 1531.34  70
   2   0  -9 49653.9 2207.59  71
   2   0  -9 48822.6 2270.37  42
   2   0  -9 47755.4 2164.77  40
  -2   0   8 11036.4 898.913   2
  -2   0   8 11485.8 556.488 106
  -2   0   8 12567.8 571.108  93
  -2   0   8 11862.4 557.758  99
  -2   0   8 11549.9 540.516  98
  -2   0   8 12865.0 971.281  94
   2   0  -8 13102.8 983.019  34
  -2   0   8 12102.1 1020.39  28
   2   0  -8 12276.1 978.683  32
   2   0  -8 12759.6 979.901  86
   2   0  -8 11632.7 523.613  77
  -2   0   8 11153.4 854.505  89
   2   0  -8 11521.6 550.042  70
  -2   0   8 11378.5 506.954  67
   2   0  -8 12191.6 943.813  71
   2   0  -8 12383.4 952.987  40
  -2   0   7 88262.8 2952.98   2
  -2   0   7 81184.3 2261.78 106
  -2   0   7 86504.9 2919.12  94
  -2   0   7 80834.5 2255.40  99
  -2   0   7 85100.0 2270.18  93
   2   0  -7 82860.8 2573.13  36
   2   0  -7 84914.4 2899.74  34
  -2   0   7 87168.8 3086.80  35
  -2   0   7 88626.9 3071.36  28
   2   0  -7 80842.7 2949.14  32
  -2   0   7 81344.4 2780.30  89
   2   0  -7 92858.7 2968.26  86
   2   0  -7 86945.9 2270.29  70
   2   0  -7 85264.2 2921.02  40
   2   0  -6 32984.8 1449.07  40
  -2   0   6 34350.2 1458.09  94
   2   0  -6 32523.9 1481.75  32
   2   0  -6 34528.7 1461.41  34
   2   0  -6 34098.9 1296.70  36
  -2   0   6 33123.7 1554.94  28
   2   0  -6 32468.3 971.667  74
   2   0  -6 35008.2 1457.36  86
  -2   0   6 30543.8 1151.67  87
  -2   0   6 34385.6 1415.14  89
   2   0  -6 33119.8 1013.37  70
  -2   0   6 34332.7 1486.33   2
  -2   0   5 6730.93 364.657  45
   2   0  -5 7064.14 555.434  40
  -2   0   5 6017.79 324.981  37
  -2   0   5 6075.87 518.837  94
   2   0  -5 7735.18 563.150  34
   2   0  -5 6792.14 478.292  36
   2   0  -5 7602.39 576.241  32
  -2   0   5 8157.69 570.249  89
   2   0  -5 7171.55 533.977  86
  -2   0   5 6888.83 431.781  87
   2   0  -5 7282.82 321.718  70
  -2   0   5 7225.32 562.900   2
  -2   0   4 322871. 7742.63  94
  -2   0   4 308029. 7543.15  87
   2   0  -4 314411. 7686.82  86
  -2   0   4 329211. 7760.17  89
   2   0  -4 313543. 7655.27  36
  -2   0   4 284243. 7304.39  37
   2   0  -4 304426. 7768.57  32
  -2   0   4 325397. 7831.24  31
  -2   0   4 328519. 7887.54  35
  -2   0   4 332717. 7815.17   2
   2   0  -4 310512. 7763.23  40
  -2   0   4 327968. 7855.73  39
  -2   0   4 306987. 7489.71  45
  -2   0   3 43525.2 1333.52  87
   2   0  -3 40352.4 1322.31  86
  -2   0   3 44500.1 1440.64  31
  -2   0   3 41655.4 1441.96  35
   2   0  -3 44024.3 1401.43  36
  -2   0   3 43837.2 1478.96  39
   2   0  -3 41311.8 1431.25  40
  -2   0   3 44659.1 1474.03  28
   2   0  -3 44659.1 1368.27  19
  -2   0   2 129.634 104.883  87
  -2   0   2 27.8188 111.204  89
  -2   0   2 39.4550 105.148  31
   2   0  -2 83.3078 113.393  36
  -2   0   2 26.3023 93.0202  35
   2   0  -2 157.054 55.8451  38
   2   0  -2 12.0315 85.1045  19
  -2   0   2 95.5909 97.9203  28
   2   0  -1 240023. 5804.87  44
  -2   0   1 240066. 5859.17  41
  -2   0   1 245345. 5875.13  39
   2   0  -1 236800. 5700.85  37
   2   0  -1 228295. 5720.83  38
  -2   0   1 242154. 5845.51  89
  -2   0   1 233545. 5830.42  87
  -2   0   1 235993. 5778.73  31
  -2   0   1 237321. 5847.33  33
   2   0  -1 235882. 5864.72  36
  -2   0   1 232176. 5736.80  35
   2   0  -1 256923. 5792.27   1
   2   0  -1 244534. 5848.15  19
   2   0   0 205357. 4878.44  44
  -2   0   0 195563. 4930.22  39
  -2   0   0 190962. 4983.23  41
   2   0   0 205608. 4932.59  37
   2   0   0 198507. 4957.34  38
  -2   0   0 209225. 4895.96  31
  -2   0   0 203060. 4934.62  33
  -2   0   0 195138. 4755.63  35
  -2   0   0 204993. 4998.06  87
   2   0   0 207889. 4938.14   1
   2   0   0 206683. 5000.18  19
   2   0   0 198889. 4989.68  23
  -2   0  -1 105275. 2731.89  92
   2   0   1 106090. 2740.21  37
  -2   0  -1 104913. 2605.96  39
   2   0   1 102838. 2762.42  38
   2   0   1 99597.3 2741.07  23
   2   0   1 107759. 2760.31  19
  -2   0  -1 102792. 2731.70  34
  -2   0  -1 105358. 2629.78  33
  -2   0  -1 97542.1 2401.94  35
  -2   0  -2 73037.5 1975.56  33
  -2   0  -2 68511.9 2029.09  32
  -2   0  -2 70923.4 2061.40  29
  -2   0  -2 75349.5 2128.40  34
  -2   0  -2 73858.6 2105.71  41
   2   0   2 74279.7 2161.55  38
   2   0   2 73070.8 2147.33  37
  -2   0  -2 70826.6 1899.79  39
  -2   0  -2 71628.2 2062.73  92
  -2   0  -3 23587.4 923.151  92
   2   0   3 23576.8 894.510  96
  -2   0  -3 25909.9 1035.39  34
  -2   0  -3 21586.9 944.595  29
  -2   0  -3 24283.8 939.424  32
  -2   0  -3 23772.7 863.412  86
  -2   0  -3 24365.7 958.129  42
   2   0   3 23722.6 1027.16  37
  -2   0  -3 23307.4 961.149  41
  -2   0  -3 22554.2 766.089  39
  -2   0  -3 23282.0 838.902  45
   2   0   3 22838.1 975.365  23
  -2   0  -4 495186. 11873.8  39
  -2   0  -4 497794. 12263.2  42
  -2   0  -4 500059. 12229.4  41
   2   0   4 514712. 12346.1  38
  -2   0  -4 496312. 11892.5  45
   2   0   4 507661. 12095.5  96
  -2   0  -4 511164. 12115.1  92
  -2   0  -4 506361. 12348.8  34
  -2   0  -4 519420. 12213.5  32
  -2   0  -4 506660. 12269.1  29
  -2   0  -4 512288. 12122.5  86
   2   0   4 502544. 12238.4  23
   2   0   4 494156. 11842.1   2
   2   0   5 15688.4 647.240   2
   2   0   5 16911.7 963.548  37
  -2   0  -5 15324.4 859.364  41
  -2   0  -5 17016.5 664.735  39
  -2   0  -5 17559.1 933.900  42
   2   0   5 17430.1 942.002  38
   2   0   5 17175.9 939.501  94
   2   0   5 14533.9 706.053  89
   2   0   5 15992.1 785.121  96
  -2   0  -5 17421.7 979.953  34
  -2   0  -5 16938.8 927.843  29
  -2   0  -5 17028.9 889.487  32
  -2   0  -5 16565.3 851.528  86
  -2   0  -5 15995.0 577.357  74
  -2   0  -5 16196.9 557.442  70
   2   0   5 16872.6 588.233  55
   2   0   5 16351.2 575.960  58
   2   0   5 15522.9 853.333  23
  -2   0  -6 150560. 4363.84  42
   2   0   6 159288. 4490.90  37
   2   0   6 148191. 4327.57  38
  -2   0  -6 148546. 4234.69  41
   2   0   6 146103. 3946.00  89
   2   0   6 156985. 4430.86  94
  -2   0  -6 144531. 4345.12  29
  -2   0  -6 149407. 4283.37  32
  -2   0  -6 151671. 4262.93  86
  -2   0  -6 148936. 3717.45  75
  -2   0  -6 144841. 3697.23  74
   2   0   6 147468. 3683.61  58
   2   0   6 146081. 3633.37  56
   2   0   6 144496. 3694.15  55
   2   0   6 146380. 3705.10  60
  -2   0  -6 147678. 3664.24  70
   2   0   6 147995. 3713.75  63
   2   0   6 147791. 4188.66  23
  -2   0  -7 42667.6 1852.38  42
   2   0   7 40501.8 1740.02  38
  -2   0  -7 39254.7 1662.62  41
   2   0   7 39925.5 1825.85  37
   2   0   7 36692.9 1219.50  98
   2   0   7 40386.7 1823.77  94
  -2   0  -7 39008.5 1810.09  29
  -2   0  -7 37544.7 1708.08  32
  -2   0  -7 39238.2 1712.53  86
  -2   0  -7 38867.6 1230.78  77
  -2   0  -7 39404.8 1236.54  74
  -2   0  -7 39981.2 1249.85  78
  -2   0  -7 38993.4 1248.28  75
   2   0   7 38793.9 1162.18  56
   2   0   7 39719.7 1250.56  63
   2   0   7 41074.6 1250.35  60
   2   0   7 38799.7 1243.57  65
  -2   0  -7 38889.1 1197.00  70
   2   0   7 40559.6 1239.85  55
   2   0   7 39619.5 1218.99  58
   2   0   7 40551.7 1598.15  23
   2   0   8 37837.5 1755.91  19
   2   0   8 36910.4 1217.70 106
   2   0   8 35285.4 1196.75  98
   2   0   8 37235.1 1838.89  94
  -2   0  -8 39352.8 1888.24  29
  -2   0  -8 34017.6 1699.51  32
  -2   0  -8 35618.5 1204.45  74
  -2   0  -8 36563.5 1215.77  78
  -2   0  -8 36023.1 1200.76  77
  -2   0  -8 36154.4 1740.85  86
   2   0   8 36659.0 1224.17  65
   2   0   8 36868.6 1215.34  60
   2   0   8 36511.8 1215.50  63
   2   0   8 34275.8 1109.00  56
   2   0   8 36943.1 1192.22  58
  -2   0  -8 36023.2 1171.16  70
  -2   0  -8 37856.4 1846.76  42
  -2   0  -8 38388.6 1656.86  41
   2   0   8 34858.5 1654.89  38
   2   0   8 35337.2 1790.23  37
   2   0   9 2971.23 472.383  19
   2   0   9 2407.39 271.668 106
   2   0   9 2820.52 286.732  98
   2   0   9 2176.94 228.188  99
   2   0   9 3291.91 545.541  94
  -2   0  -9 2528.48 452.774  32
   2   0   9 2348.56 460.061  37
  -2   0  -9 3580.38 574.119  29
  -2   0  -9 2872.01 553.996  34
  -2   0  -9 3389.48 527.654  86
  -2   0  -9 2157.66 259.169  78
  -2   0  -9 2998.92 301.754  81
  -2   0  -9 2638.65 281.253  74
  -2   0  -9 2535.78 272.107  77
   2   0   9 2527.03 272.171  60
  -2   0  -9 2798.77 260.847  70
   2   0   9 2492.67 248.577  66
  -2   0  -9 2942.93 522.858  42
  -2   0 -10 18186.9 835.733  27
   2   0  10 19330.6 814.092 106
   2   0  10 17796.8 1312.35  94
   2   0  10 18288.8 721.097  99
   2   0  10 19012.4 792.949  98
  -2   0 -10 18437.0 1323.14  29
  -2   0 -10 17413.2 1225.00  32
  -2   0 -10 17472.3 1338.98  34
  -2   0 -10 18882.9 807.604  81
  -2   0 -10 18298.0 790.847  77
  -2   0 -10 17863.9 1227.84  86
  -2   0 -10 18240.4 724.045  76
   2   0  10 18260.7 745.208  66
  -2   0 -10 17782.0 1302.23  42
   2   0  10 16091.8 1188.02  37
   2   0  11 4865.44 363.815 106
  -2   0 -11 3766.58 261.018 110
   2   0  11 4121.38 287.933  99
   2   0  11 4202.70 331.216  98
   2   0  11 4529.68 637.514  94
  -2   0 -11 3801.82 594.508  29
  -2   0 -11 4453.95 296.035  84
  -2   0 -11 4179.37 293.091  76
  -2   0 -11 4525.97 346.342  77
  -2   0 -11 4662.10 359.247  81
  -2   0 -11 3373.41 518.114  86
   2   0  11 4015.89 302.139  66
  -2   0 -11 3911.79 355.680  27
   2   0  12 61121.7 1768.86  93
   2   0  12 63726.3 1769.70  98
   2   0  12 60274.0 2449.06  94
  -2   0 -12 59699.7 2421.52  29
  -2   0 -12 61109.1 1830.83  27
   2   0  12 62837.8 1800.66 106
  -2   0 -12 61774.2 1790.77  81
   2   0  13 171.503 77.0326  93
   2   0  13 76.7472 71.8628  98
  -2   0 -13 137.348 66.1593 100
  -2   0 -13 180.163 91.4293  27
   2   0  13 130.264 79.8968 106
   2   1 -14 336.775 79.4912 110
  -2  -1  14 348.047 75.9043  99
  -2   1  14 314.736 69.8539   7
   2  -1 -14 343.697 78.3640  84
  -2   1  14 266.814 63.5353  47
   2  -1 -14 446.032 86.8888  27
   2   1 -14 443.686 78.8549  27
  -2   1  13 5325.44 277.867   6
  -2   1  13 6018.76 342.455   7
   2   1 -13 6409.84 349.586 110
  -2  -1  13 5588.12 295.376 108
   2   1 -13 5811.14 307.023 101
  -2  -1  13 6559.70 353.527  99
   2  -1 -13 7083.55 367.433  76
   2  -1 -13 6724.08 359.734  84
   2   1 -13 6127.81 342.556  84
   2  -1 -13 5515.56 298.079  73
   2  -1 -13 5885.65 333.444  72
   2   1 -13 5055.20 279.579  26
  -2  -1  12 19802.9 767.946 106
  -2  -1  12 21414.4 789.440 108
  -2   1  12 21903.6 850.849 106
   2   1 -12 21278.8 821.477 110
  -2  -1  12 21541.5 827.367  99
  -2   1  12 19764.4 747.055  99
  -2  -1  12 21528.6 807.479  93
  -2   1  12 19760.7 794.661  98
   2   1 -12 20246.5 1318.13  29
   2  -1 -12 23416.5 1418.01  29
   2   1 -12 18900.0 1307.90  32
   2  -1 -12 21220.0 1343.64  86
   2   1 -12 19785.1 1315.43  86
   2  -1 -12 21853.1 824.703  72
   2   1 -12 19026.4 706.631  85
   2  -1 -12 22831.1 845.762  84
   2  -1 -12 20757.5 783.101  73
   2  -1 -12 22955.4 850.080  76
   2  -1 -12 18778.6 1227.19  71
   2   1 -12 19705.3 758.837  72
  -2   1  12 21849.0 781.164   6
  -2   1  11 31630.7 1087.43   6
  -2   1  11 30776.1 1139.06 106
  -2  -1  11 30821.0 1068.56 106
  -2   1  11 29171.3 1049.73  99
  -2   1  11 29631.5 1096.60  98
  -2  -1  11 30669.8 1084.26  93
   2  -1 -11 30717.5 1783.82  29
   2  -1 -11 28992.0 1655.74  32
   2   1 -11 30409.8 1774.07  32
   2   1 -11 29969.2 1745.33  29
  -2  -1  11 31897.2 1793.61  28
   2  -1 -11 30059.2 1041.65  77
   2  -1 -11 31273.3 1114.65  72
   2   1 -11 30448.6 1024.00  73
  -2  -1  11 25569.1 1498.68  89
   2   1 -11 29174.9 986.154  82
   2  -1 -11 29826.7 1727.65  86
   2  -1 -11 31606.1 1122.57  76
   2   1 -11 31650.5 1772.11  86
   2   1 -11 31417.4 1077.26  72
   2  -1 -11 33174.0 1774.47  71
  -2  -1  11 29247.3 1002.10  67
   2  -1 -11 32051.0 1124.22  70
   2   1 -11 30902.1 1744.17  40
  -2   1  11 28659.8 995.017  48
  -2   1  10 26463.1 1594.07   2
  -2  -1  10 26063.7 964.353 106
  -2   1  10 25622.4 1009.35 106
  -2   1  10 24653.1 882.422 108
  -2  -1  10 26483.6 981.220  93
  -2   1  10 25721.4 998.153  98
  -2   1  10 25670.0 959.340  99
   2  -1 -10 24346.2 1592.30  34
   2   1 -10 25929.8 1634.24  32
  -2  -1  10 25114.8 1634.06  28
   2   1 -10 26195.0 1628.07  29
   2  -1 -10 26216.9 1644.25  29
   2  -1 -10 26022.6 1565.00  32
   2   1 -10 24995.5 1587.59  86
   2   1 -10 25208.5 932.711  73
   2   1 -10 25177.8 915.136  82
  -2  -1  10 24381.2 1470.86  89
   2  -1 -10 28367.1 1664.95  86
   2  -1 -10 25751.5 942.923  77
   2  -1 -10 27342.0 1013.71  70
   2   1 -10 27622.3 987.492  72
   2   1 -10 24362.6 1439.63  71
  -2  -1  10 24732.3 923.633  67
   2  -1 -10 25368.2 1605.09  42
   2   1 -10 25702.4 1633.48  42
  -2   1  10 24941.7 915.521  48
   2  -1 -10 23424.7 1411.35  41
   2   1 -10 26546.4 1610.00  40
  -2   1   9 57654.1 2492.11   2
  -2  -1   9 52252.9 2310.88   2
  -2  -1   9 55952.0 1698.18 106
  -2   1   9 55980.7 1648.28 108
  -2   1   9 59271.5 1774.84 106
  -2   1   9 57486.2 1712.35  99
  -2   1   9 56536.2 1746.60  98
  -2  -1   9 58175.4 1725.38  93
  -2  -1   9 55539.4 1739.72  99
   2   1  -9 53189.6 2240.53  34
   2  -1  -9 56951.9 2548.53  34
   2  -1  -9 59620.2 2501.17  32
  -2  -1   9 55707.7 2619.54  35
   2   1  -9 55560.9 2510.69  29
  -2  -1   9 56980.3 2583.40  28
   2  -1  -9 60411.3 2589.72  29
   2  -1  -9 59202.3 2517.90  86
   2   1  -9 58452.1 2523.60  86
   2  -1  -9 56110.3 1686.19  77
   2  -1  -9 58960.5 1685.49  74
  -2  -1   9 57166.8 2414.84  89
   2   1  -9 58770.6 1708.96  73
  -2  -1   9 56381.7 1732.89  64
   2   1  -9 57861.5 1725.68  72
   2  -1  -9 58887.3 1751.56  70
   2   1  -9 53320.5 2318.80  71
  -2  -1   9 55285.6 1688.28  67
   2   1  -9 57195.3 2546.86  42
   2  -1  -9 56753.6 2510.13  42
   2  -1  -9 52890.2 2255.13  40
  -2   1   9 58324.2 1685.55  48
   2   1  -9 55641.0 2478.26  40
  -2   1   8 59843.9 2410.16   2
  -2  -1   8 53911.4 2240.10   2
  -2   1   8 52596.0 1578.02 108
  -2   1   8 57022.0 1680.31 106
  -2  -1   8 52823.5 1604.04 106
  -2  -1   8 55440.1 2233.12  94
  -2   1   8 54017.4 1626.35  99
  -2   1   8 55585.6 1671.31  98
  -2  -1   8 54396.5 1622.64  93
  -2  -1   8 58624.3 1682.14  99
   2  -1  -8 57802.6 2446.28  34
  -2  -1   8 56549.6 2433.67  28
   2  -1  -8 55405.7 2321.14  32
  -2  -1   8 60359.0 2550.93  35
   2   1  -8 53973.7 2140.47  34
   2   1  -8 54075.0 2340.71  29
  -2   1   8 58326.5 2499.99  28
   2  -1  -8 57367.9 2424.21  29
   2  -1  -8 55553.2 2341.02  86
  -2   1   8 49446.2 1971.83  89
   2   1  -8 55365.1 2344.90  86
   2  -1  -8 54915.3 1589.22  74
   2   1  -8 57893.5 1658.96  72
   2   1  -8 54415.5 1653.53  84
  -2  -1   8 52411.9 2019.34  87
   2   1  -8 55499.8 1633.40  73
   2   1  -8 53822.4 1653.74  76
  -2  -1   8 54240.0 2281.30  89
   2  -1  -8 58628.7 1680.43  70
   2   1  -8 54595.6 2243.88  71
  -2  -1   8 55102.1 1663.38  66
  -2  -1   8 55854.9 1660.23  64
  -2  -1   8 53828.2 1621.69  67
   2   1  -8 58213.2 2426.67  42
   2  -1  -8 59914.8 2421.21  42
   2   1  -8 55777.4 2380.14  40
   2  -1  -8 58395.6 2242.41  40
   2  -1  -7 25708.9 1290.36  40
   2   1  -7 27159.2 1409.94  42
   2  -1  -7 24801.5 1374.39  42
   2   1  -7 27217.2 1413.32  40
  -2  -1   7 23377.9 1231.39  94
  -2  -1   7 23913.5 841.170  93
  -2   1   7 25287.0 1387.41  94
  -2  -1   7 25869.2 887.774  99
  -2   1   7 24891.7 860.843  99
  -2   1   7 24567.5 884.346  98
   2  -1  -7 25286.0 1420.11  34
   2  -1  -7 24345.4 1400.76  29
   2   1  -7 26301.2 1258.16  34
  -2  -1   7 24821.8 1412.73  28
   2  -1  -7 25860.2 1367.26  32
  -2  -1   7 23061.8 1105.14  37
  -2  -1   7 25204.0 1449.53  35
   2   1  -7 24980.2 1238.90  36
  -2   1   7 29688.1 1541.61  28
   2   1  -7 27251.1 1405.01  29
   2  -1  -7 26799.4 1390.29  86
   2   1  -7 25087.4 882.643  76
  -2  -1   7 24287.0 1321.68  89
   2  -1  -7 23853.8 815.218  74
  -2  -1   7 22388.9 1158.48  87
   2   1  -7 25674.5 872.676  72
   2   1  -7 24463.7 862.253  73
  -2   1   7 23691.8 1168.20  89
   2   1  -7 25465.9 881.716  84
   2   1  -7 26142.3 1379.08  86
  -2  -1   7 26618.4 879.573  59
  -2  -1   7 24031.0 868.776  66
   2   1  -7 24813.4 1311.55  71
  -2  -1   7 24473.3 877.935  64
   2  -1  -7 25782.6 881.791  70
  -2  -1   7 24586.4 863.636  67
  -2   1   7 25446.9 1382.05   2
  -2  -1   7 24032.0 1288.08   2
  -2  -1   6 11969.6 805.914   2
  -2   1   6 12002.2 859.401   2
   2  -1  -6 11484.3 766.971  40
   2   1  -6 12586.4 847.836  42
   2  -1  -6 12928.4 885.267  42
   2   1  -6 11868.1 848.924  40
  -2  -1   6 12596.7 777.702  94
  -2   1   6 12679.9 849.253  94
  -2  -1   6 13224.3 701.034  92
   2   1  -6 12489.6 743.693  34
   2   1  -6 11833.6 774.838  36
   2  -1  -6 11714.9 852.313  29
   2  -1  -6 12560.9 846.300  32
   2   1  -6 12558.3 852.852  32
  -2  -1   6 11705.9 894.233  35
  -2  -1   6 10836.7 677.782  37
   2   1  -6 12098.0 834.945  29
   2   1  -6 11599.0 500.675  76
  -2   1   6 12186.4 738.864  89
   2   1  -6 12832.2 512.195  72
  -2  -1   6 10858.5 716.439  87
   2  -1  -6 11607.8 458.439  74
   2   1  -6 11870.3 496.398  73
   2   1  -6 12804.2 848.768  86
  -2  -1   6 11743.9 818.163  89
   2  -1  -6 12747.7 839.601  86
   2   1  -6 12004.4 801.156  71
   2  -1  -6 11963.6 495.670  70
  -2  -1   6 10991.1 484.308  59
  -2  -1   6 13026.7 908.309  28
  -2   1   5 156644. 4361.59   2
  -2  -1   5 145104. 4235.99   2
   2   1  -5 154642. 4257.17  42
   2  -1  -5 153710. 4306.69  42
  -2  -1   5 154986. 4275.69  39
   2   1  -5 153965. 4342.28  40
  -2   1   5 156386. 3916.06  45
   2  -1  -5 155628. 4241.75  40
  -2  -1   5 144343. 4100.74  94
  -2  -1   5 149855. 4068.08  92
   2   1  -5 154205. 4282.05  29
   2   1  -5 162767. 4288.74  36
   2   1  -5 149886. 4300.03  32
   2   1  -5 153947. 4070.70  34
   2  -1  -5 147983. 3948.10  36
   2  -1  -5 156992. 4301.59  32
  -2  -1   5 155289. 4375.89  31
   2   1  -5 159598. 4282.06  86
   2   1  -5 151568. 3733.60  73
   2  -1  -5 151563. 4245.98  86
   2   1  -5 151467. 3737.06  72
  -2  -1   5 152771. 4192.13  87
  -2   1   5 155846. 4159.45  89
  -2  -1   5 148176. 3734.26  59
   2   1  -5 154612. 4252.80  71
   2   1  -5 139826. 3879.90  18
  -2  -1   5 153117. 4414.04  28
   2  -1  -4 270158. 6507.38  40
   2   1  -4 263947. 6474.05  42
   2  -1  -4 260445. 6567.76  42
  -2  -1   4 247072. 6510.48  39
  -2   1   4 258550. 6292.20  45
  -2  -1   4 256469. 6351.73  94
  -2  -1   4 241477. 6367.72  92
   2   1  -4 257051. 6520.01  36
   2   1  -4 251832. 6455.58  29
   2   1  -4 256001. 6276.14  34
  -2  -1   4 245204. 6529.69  33
  -2   1   4 254643. 6628.01  28
  -2  -1   4 256282. 6609.98  31
   2  -1  -4 248036. 6287.10  36
   2   1  -4 255764. 6504.72  32
   2  -1  -4 236824. 6395.07  86
  -2  -1   4 251783. 6454.83  87
  -2  -1   4 249006. 6514.37  89
  -2   1   4 256571. 6426.49  89
   2   1  -4 261620. 6491.48  86
   2   1  -4 256515. 6517.42  71
  -2  -1   4 248532. 6582.71  28
   2   1  -3 191450. 4603.21  40
   2  -1  -3 180785. 4564.89  40
   2   1  -3 184938. 4467.05  42
  -2   1   3 180028. 4448.56  45
  -2  -1   3 180972. 4605.88  39
   2  -1  -3 182476. 4575.17  44
  -2  -1   3 172829. 4479.52  92
  -2  -1   3 196646. 4675.65  31
   2   1  -3 175134. 4290.66  34
   2   1  -3 186048. 4468.18  29
   2  -1  -3 171952. 4428.08  36
   2   1  -3 187889. 4631.95  36
  -2  -1   3 174773. 4572.77  30
  -2  -1   3 179488. 4610.90  33
   2   1  -3 179848. 4508.15  32
  -2   1   3 181390. 4599.92  28
  -2  -1   3 181491. 4554.98  87
  -2  -1   3 176144. 4547.76  89
  -2   1   3 172818. 4483.97  89
   2   1  -3 174996. 4486.08  86
  -2   1   3 181204. 4583.19   2
   2  -1  -3 173546. 4212.48  19
   2   1  -3 170421. 4390.87  23
  -2  -1   2 154811. 3896.98  43
   2   1  -2 160382. 3949.59  42
   2  -1  -2 148202. 3850.13  38
  -2  -1   2 161694. 4164.03  39
  -2  -1   2 161781. 3973.44  41
   2  -1  -2 158459. 4119.08  44
   2   1  -2 154712. 4053.95  40
  -2   1   2 151609. 4054.51  45
   2   1  -2 147017. 4002.44  96
  -2  -1   2 154465. 4074.11  92
  -2   1   2 152242. 4059.13  28
  -2  -1   2 163632. 4151.87  31
  -2  -1   2 163211. 4155.88  33
   2   1  -2 158078. 4006.17  32
  -2  -1   2 155855. 4121.50  30
   2  -1  -2 159222. 4057.78  36
   2   1  -2 156834. 4129.95  36
  -2  -1   2 167139. 4160.02  35
   2   1  -2 154795. 4002.84  86
  -2  -1   2 159802. 4084.51  89
  -2   1   2 159100. 4091.97   2
  -2  -1   2 159674. 4143.30  28
   2   1  -2 157615. 4031.26  23
   2  -1  -2 158639. 3872.63  19
   2   1  -2 164854. 4135.46  19
   2   1  -1 67139.4 1846.24  40
   2   1  -1 61923.1 1709.28  42
  -2  -1   1 68734.5 1882.59  41
   2   1  -1 66842.0 1881.66  38
  -2  -1   1 67677.8 1994.35  39
  -2   1   1 66333.1 1867.93  92
  -2  -1   1 65690.4 1958.63  33
  -2  -1   1 69907.6 1932.40  35
   2  -1  -1 60246.9 1712.75  37
  -2  -1   1 66501.4 1960.48  30
   2   1  -1 65306.7 1776.14  32
  -2  -1   1 67535.4 1877.67  89
  -2  -1   1 69032.4 1939.07  87
  -2   1   1 67406.7 1847.64   2
   2   1  -1 68097.2 1971.81   1
  -2  -1   1 66583.4 1933.19  28
   2   1  -1 64342.5 1910.52  23
   2  -1  -1 65353.9 1805.22  19
   2   1   0 57725.6 1591.31  40
  -2  -1   0 60183.8 1768.84  41
   2   1   0 57441.8 1751.61  38
   2  -1   0 62587.1 1782.43  38
  -2   1   0 59762.8 1755.18  41
  -2  -1   0 56256.8 1534.84  44
  -2   1   0 59740.8 1778.82  45
  -2   1   0 58977.3 1760.64  92
  -2  -1   0 59230.7 1772.16  92
   2   1   0 60703.8 1780.71  96
   2  -1   0 58318.4 1680.82  37
   2   1   0 62360.5 1757.53  36
  -2  -1   0 60199.0 1721.28  35
  -2  -1   0 58882.7 1642.88  89
  -2  -1   0 62505.7 1766.30  87
   2   1   0 63761.8 1823.68   1
  -2   1   0 58056.3 1585.14   2
   2   1   0 58860.9 1793.04  23
  -2   1   0 62010.6 1798.29  18
   2   1   1 329224. 7829.85  38
   2  -1   1 326446. 7696.05  43
   2   1   1 314114. 7455.17  40
   2  -1   1 329699. 7863.70  38
  -2   1  -1 324280. 7724.38  41
  -2   1  -1 322310. 7767.78  45
  -2  -1  -1 335815. 7822.94  39
   2   1   1 343839. 7851.40  37
  -2  -1  -1 312398. 7802.00  41
  -2  -1  -1 324049. 7763.88  92
  -2  -1  -1 327297. 7671.44  34
   2   1   1 336745. 7683.58  36
   2  -1   1 326011. 7778.82  37
   2  -1   1 305589. 7415.11  35
  -2  -1  -1 320898. 7532.85  89
  -2  -1  -1 340590. 7747.34  87
  -2   1  -1 300715. 7382.33   2
   2   1   1 316933. 7826.05   1
   2   1   1 327481. 7766.87  19
  -2   1  -1 317409. 7768.34  18
   2   1   2 101944. 2817.87  96
   2   1   2 103224. 2727.36  94
  -2  -1  -2 96590.2 2732.27  92
  -2   1  -2 104505. 2842.45  34
   2  -1   2 103673. 2864.09  37
  -2  -1  -2 102505. 2756.91  34
  -2  -1  -2 100241. 2822.56  33
   2   1   2 101056. 2592.03  36
   2  -1   2 93317.2 2451.06  35
  -2  -1  -2 100037. 2717.96  87
  -2  -1  -2 93921.8 2823.22  41
   2  -1   2 107504. 2906.53  38
  -2   1  -2 97614.0 2687.12  41
  -2   1  -2 101856. 2740.47  45
  -2  -1  -2 102252. 2791.04  39
   2   1   2 104070. 2768.93  19
   2   1   2 101764. 2831.59  23
   2   1   3 40789.4 1414.59  94
   2  -1   3 40935.8 1455.74  94
   2   1   3 43213.0 1475.63  96
  -2  -1  -3 40737.4 1347.28  92
  -2  -1  -3 40007.8 1452.54  34
  -2  -1  -3 40007.9 1321.45  29
  -2   1  -3 41846.9 1503.57  29
  -2  -1  -3 38772.5 1224.15  32
  -2   1  -3 41369.0 1507.83  32
   2  -1   3 40662.9 1541.65  37
   2   1   3 40012.4 1144.56  36
   2  -1   3 38267.6 1177.60  35
  -2   1  -3 42380.2 1498.16  34
  -2   1  -3 39715.1 1308.15  86
  -2  -1  -3 40453.1 1289.77  42
   2   1   3 46682.2 1555.32  38
  -2   1  -3 39371.2 1318.59  41
  -2  -1  -3 44044.8 1442.83  39
   2  -1   3 40903.4 1133.24  46
   2   1   3 39283.7 1232.80  46
  -2   1  -3 40146.9 1326.22  45
   2   1   3 41110.8 1450.86  23
   2   1   3 41299.9 1394.38  19
   2   1   4 44642.7 1519.00   2
  -2   1  -4 45261.5 1681.36  42
  -2  -1  -4 43171.3 1675.20  41
   2   1   4 45308.1 1679.60  37
   2   1   4 46300.0 1670.70  38
  -2   1  -4 43264.4 1446.99  41
  -2  -1  -4 44213.5 1496.24  42
  -2   1  -4 42601.4 1388.69  45
   2  -1   4 51013.4 1780.58  38
   2   1   4 45574.3 1613.61  94
  -2  -1  -4 43749.2 1440.13  92
   2  -1   4 44119.1 1628.16  94
   2   1   4 46166.1 1630.04  96
  -2   1  -4 45813.8 1671.72  34
  -2  -1  -4 47267.4 1679.28  34
  -2   1  -4 47110.7 1700.05  29
  -2  -1  -4 44502.4 1523.60  29
  -2   1  -4 37446.8 1148.41  33
  -2  -1  -4 43353.9 1408.66  32
  -2   1  -4 44751.6 1661.88  32
   2  -1   4 47840.7 1758.78  37
   2  -1   4 45389.2 1392.19  35
  -2   1  -4 45062.8 1520.12  86
   2   1   4 44658.3 1205.71  57
   2  -1   4 45169.0 1234.99  57
  -2  -1  -4 44714.7 1238.69  69
   2   1   4 43919.9 1582.46  23
   2   1   4 47484.6 1556.20  19
   2   1   5 42776.4 1543.44   2
   2  -1   5 44215.2 1778.11  38
  -2   1  -5 43743.6 1767.32  42
  -2  -1  -5 42851.2 1579.59  42
   2   1   5 44630.7 1712.09  38
   2   1   5 43085.6 1728.13  37
  -2   1  -5 43175.6 1473.59  41
  -2  -1  -5 44439.2 1766.88  41
   2  -1   5 49193.3 1770.53  94
   2   1   5 46006.3 1721.16  94
   2   1   5 41943.3 1655.99  96
   2  -1   5 45773.8 1644.70  89
  -2   1  -5 43981.3 1737.51  34
  -2  -1  -5 46015.2 1776.14  34
   2  -1   5 40189.8 1450.13  35
  -2   1  -5 40678.6 1715.67  29
  -2   1  -5 43205.0 1735.44  32
  -2  -1  -5 42027.5 1491.94  32
  -2  -1  -5 44718.4 1632.34  29
  -2   1  -5 41720.6 1583.30  86
  -2  -1  -5 45524.8 1665.90  86
  -2   1  -5 42909.8 1227.90  74
   2  -1   5 42232.5 1244.74  55
  -2  -1  -5 44279.5 1262.01  69
   2   1   5 41764.3 1197.13  55
   2  -1   5 43908.5 1248.81  57
   2   1   5 39362.1 1295.81  18
   2   1   5 42254.9 1602.79  23
   2   1   5 44077.2 1577.73  19
   2   1   6 156631. 4404.16   2
   2  -1   6 164602. 4759.93  38
  -2   1  -6 164267. 4818.89  42
  -2  -1  -6 157566. 4522.46  42
   2   1   6 162666. 4715.12  37
   2  -1   6 160877. 4860.86  37
   2   1   6 162196. 4633.98  38
  -2  -1  -6 154845. 4715.89  41
  -2   1  -6 157727. 4274.40  41
   2   1   6 161622. 4599.91  96
   2  -1   6 163483. 4700.02  94
   2   1   6 164279. 4700.63  94
   2  -1   6 165408. 4548.70  89
  -2   1  -6 168872. 4787.72  34
  -2  -1  -6 158247. 4762.14  34
  -2   1  -6 164020. 4777.95  29
  -2   1  -6 177566. 4828.46  32
  -2  -1  -6 162904. 4591.33  29
  -2  -1  -6 151421. 4369.97  32
  -2   1  -6 159229. 4550.26  86
  -2  -1  -6 155621. 4009.57  75
  -2   1  -6 157427. 3990.10  74
  -2  -1  -6 161539. 4607.77  86
   2  -1   6 156471. 3989.69  63
   2   1   6 160628. 4008.38  63
   2  -1   6 158791. 4007.83  55
   2   1   6 160541. 3954.77  55
   2  -1   6 159354. 4000.43  57
   2  -1   6 156672. 3940.12  61
  -2  -1  -6 164719. 4025.94  69
   2  -1   6 156316. 4614.83  23
   2   1   6 159394. 4431.45  23
   2   1   6 159798. 4434.80  19
   2   1   7 73771.2 2458.72  19
   2   1   7 72983.4 2396.78  23
   2  -1   7 74858.1 2623.99  23
  -2   1  -7 71854.3 2013.45 109
   2   1   7 77227.4 2083.45 106
   2  -1   7 72925.9 2073.12 106
   2  -1   7 76342.1 2577.87  89
   2   1   7 79305.2 2811.63  94
   2   1   7 72994.7 2047.05  97
   2  -1   7 73620.2 2051.39  98
   2  -1   7 75701.7 2764.82  94
  -2  -1  -7 76978.9 2871.86  34
  -2   1  -7 74003.0 2807.29  32
  -2   1  -7 78155.2 2833.68  34
  -2   1  -7 75260.8 2846.66  29
  -2  -1  -7 76949.7 2704.79  29
  -2  -1  -7 73365.2 2491.58  32
  -2   1  -7 73794.8 2083.25  81
  -2   1  -7 75787.5 2674.20  86
  -2   1  -7 70496.6 1966.11  76
  -2  -1  -7 72520.7 2080.65  78
  -2  -1  -7 76357.9 2092.92  75
  -2  -1  -7 71330.3 2680.42  86
  -2   1  -7 74053.4 2078.01  77
   2   1   7 74861.5 2049.40  60
   2   1   7 77423.5 2108.03  63
   2  -1   7 75974.5 2081.01  63
   2  -1   7 76044.1 2108.28  60
   2  -1   7 75637.5 2059.40  56
   2   1   7 79769.8 2107.72  65
   2  -1   7 76081.9 2089.77  55
   2  -1   7 73165.5 2071.72  65
   2  -1   7 74075.7 2088.80  58
  -2  -1  -7 71963.9 2618.54  42
   2   1   7 79700.9 2789.68  37
   2   1   7 73825.0 2634.04  38
   2  -1   7 72032.8 2842.91  37
   2  -1   7 75767.1 2759.52  38
   2   1   7 69815.5 2004.73  49
  -2   1  -7 78189.9 2887.43  42
  -2  -1  -7 68616.3 2706.73  41
  -2  -1  -7 73556.0 2465.28  39
  -2   1  -8 10924.7 522.709  26
   2  -1   8 10771.9 818.558  23
   2   1   8 11872.6 544.730   7
   2   1   8 12869.1 597.644 106
   2  -1   8 12002.0 579.185 106
   2   1   8 11782.8 559.071  97
   2  -1   8 11482.5 835.640  89
   2  -1   8 12370.2 566.593  98
   2  -1   8 12718.7 1013.33  94
   2   1   8 11902.9 592.014  98
   2   1   8 11597.3 978.055  94
  -2   1  -8 11552.6 982.430  34
  -2  -1  -8 13592.6 1095.15  34
  -2   1  -8 11140.0 1010.03  29
  -2  -1  -8 11713.4 938.150  29
  -2   1  -8 11513.4 996.773  32
  -2  -1  -8 11743.7 946.952  86
  -2   1  -8 11216.7 909.791  86
  -2   1  -8 11221.8 506.299  76
  -2   1  -8 10827.1 559.843  77
  -2  -1  -8 11686.2 577.775  75
  -2  -1  -8 11003.8 572.917  78
  -2  -1  -8 12871.9 577.605  70
   2  -1   8 12372.7 584.321  65
   2  -1   8 12135.2 562.817  56
   2  -1   8 12775.0 583.000  63
   2  -1   8 12219.3 594.366  55
   2  -1   8 12382.9 599.420  60
   2  -1   8 12156.0 592.916  58
   2  -1   8 12416.5 956.630  38
  -2  -1  -8 10530.3 880.476  42
   2   1   8 11561.2 870.289  38
   2  -1   8 11099.7 998.188  37
  -2   1  -8 11200.7 993.243  42
   2   1   8 11481.3 937.548  37
  -2  -1  -8 10993.5 944.507  41
   2   1   8 11653.3 530.281  49
  -2  -1  -9 1988.08 260.880  27
  -2   1  -9 1619.70 242.757  27
  -2   1  -9 1701.78 197.532  26
   2   1   9 1726.50 206.797   7
   2  -1   9 1865.66 243.656 106
   2   1   9 2045.73 240.820 106
   2  -1   9 1422.59 199.872  98
   2   1   9 1892.49 421.967  94
   2   1   9 1637.29 208.305  97
   2  -1   9 2499.41 472.291  94
   2   1   9 2040.69 252.261  98
  -2   1  -9 2041.79 450.201  34
  -2  -1  -9 1420.66 420.115  34
  -2   1  -9 1659.59 449.091  29
   2   1   9 2040.36 414.819  37
  -2  -1  -9 1523.42 389.936  29
   2  -1   9 1616.71 415.878  37
  -2   1  -9 1589.06 403.321  32
  -2   1  -9 1761.76 388.984  86
  -2   1  -9 1462.02 178.310  84
  -2  -1  -9 1939.58 409.968  86
  -2   1  -9 1840.28 198.956  76
  -2  -1  -9 1869.76 238.085  75
  -2  -1  -9 2007.35 249.482  81
  -2   1  -9 1940.74 245.894  77
  -2  -1  -9 1748.39 235.335  78
   2  -1   9 1722.31 214.763  56
  -2  -1  -9 1690.46 218.204  70
   2  -1   9 1800.23 227.699  65
   2  -1   9 1600.34 232.724  58
   2  -1   9 1778.18 240.090  60
  -2   1  -9 1992.17 457.343  42
  -2  -1  -9 1908.34 405.678  42
  -2  -1  -9 1414.90 369.313  41
   2  -1   9 1294.08 304.768  38
  -2  -1 -10 35868.1 1299.25  27
   2  -1  10 33563.9 1851.14  19
  -2   1 -10 34814.6 1260.56  27
   2   1  10 37233.9 1245.80 106
   2  -1  10 37739.3 1253.62 106
   2   1  10 32779.6 1842.63  94
   2   1  10 36860.2 1256.73  98
   2  -1  10 35306.2 1198.59  99
   2  -1  10 35123.3 1179.64  98
   2  -1  10 37641.4 1908.60  94
  -2   1 -10 36092.1 1910.37  34
  -2   1 -10 35978.6 1939.81  29
  -2  -1 -10 35635.3 1823.97  29
  -2   1 -10 38348.7 1958.56  32
  -2  -1 -10 34006.3 1946.98  34
  -2   1 -10 36454.9 1823.21  86
  -2  -1 -10 36249.0 1254.09  81
  -2   1 -10 33320.0 1093.36  84
  -2   1 -10 33417.4 1099.95  76
  -2  -1 -10 35524.5 1230.66  78
  -2  -1 -10 32208.6 1759.41  86
   2  -1  10 35209.7 1130.71  64
  -2  -1 -10 35816.3 1202.50  70
   2  -1  10 36799.4 1262.39  60
   2  -1  10 36243.8 1229.12  66
   2  -1  10 33299.5 1845.97  37
  -2  -1 -10 32579.0 1728.09  41
   2   1  11 11490.4 584.041 106
   2  -1  11 12281.7 591.043 106
   2   1  11 12499.4 1036.53  94
   2   1  11 11140.9 540.800  93
   2  -1  11 12496.4 564.669  99
   2   1  11 11625.8 587.549  98
   2  -1  11 11875.2 539.857  98
   2  -1  11 11032.0 968.562  94
  -2   1 -11 11518.3 1020.49  29
  -2  -1 -11 11503.2 950.197  29
  -2   1 -11 10163.4 877.064  86
  -2  -1 -11 12934.2 617.290  81
  -2  -1 -11 12108.5 582.707  78
  -2  -1 -11 11784.0 962.026  86
  -2  -1 -11 11614.7 541.570  76
  -2  -1 -11 11740.0 560.303  70
   2  -1  11 11566.5 571.353  66
  -2   1 -11 11999.3 599.551  27
  -2  -1 -11 11924.3 629.299  27
   2  -1  12 3477.84 276.642 106
   2   1  12 3303.50 272.061 106
   2  -1  12 3006.51 455.426  94
   2   1  12 3138.13 244.424  93
  -2   1 -12 3239.62 267.903 100
   2  -1  12 3643.83 251.993  99
   2  -1  12 3100.12 224.699  98
   2   1  12 3457.81 278.443  98
   2   1  12 3481.43 507.063  94
  -2   1 -12 3160.42 490.564  29
  -2  -1 -12 3211.21 226.704  84
  -2  -1 -12 2688.36 216.299  76
  -2  -1 -12 3524.36 279.606  81
   2  -1  12 3477.41 261.606  66
  -2  -1 -12 3898.72 311.336  27
  -2   1 -12 3043.21 263.452  27
   2   1  13 10653.7 418.641  93
  -2   1 -13 11561.2 447.627 100
   2   1  13 11677.3 467.239  98
   2  -1  13 12262.9 466.548 106
   2   1  13 12232.2 474.051 106
  -2  -1 -13 13353.5 510.621  27
  -2   1 -13 12266.8 460.043  27
   2   2 -13 146.775 67.8408 101
  -2  -2  13 290.300 100.122  99
  -2   2  13 354.843 99.8743   7
   2  -2 -13 255.439 90.0557  76
   2  -2 -13 246.758 87.6748  84
  -2  -2  13 193.594 81.7982 108
   2   2 -13 276.432 92.2342 110
   2  -2 -13 133.891 77.2819  27
   2   2 -13 271.612 81.3289  26
   2   2 -12 4600.35 312.839  26
  -2   2  12 5395.89 349.848   7
  -2   2  12 4582.21 303.510   6
   2   2 -12 4659.00 318.662 110
  -2  -2  12 4746.49 317.112 108
   2   2 -12 4174.27 292.874 101
  -2  -2  12 3897.65 267.766  93
  -2  -2  12 4330.42 313.248  99
  -2   2  12 4229.37 323.627  98
   2  -2 -12 4326.91 312.163  76
   2  -2 -12 4196.70 269.157  77
   2  -2 -12 3996.00 547.477  71
  -2  -2  12 4242.73 272.657  67
  -2   2  12 3884.36 264.507  48
  -2   2  11 10921.3 573.309   7
  -2   2  11 10549.5 541.574   6
  -2   2  11 10195.4 556.922 106
   2   2 -11 10546.2 529.156 101
   2   2 -11 11233.3 564.112 110
  -2  -2  11 10270.0 498.527  93
  -2   2  11 10894.0 582.006  98
  -2  -2  11 10006.3 543.243  99
   2   2 -11 9395.68 880.700  29
  -2  -2  11 9740.53 933.921  28
   2  -2 -11 9058.72 884.474  29
   2   2 -11 10016.1 958.134  32
   2   2 -11 10828.2 999.311  86
   2   2 -11 10375.8 546.838  84
   2  -2 -11 10578.5 952.553  86
   2  -2 -11 10032.7 492.646  77
   2   2 -11 9313.86 436.487  85
   2  -2 -11 10365.6 541.040  70
  -2  -2  11 10034.3 508.425  67
  -2   2  11 10644.4 515.977  48
  -2   2  10 10767.8 1015.66   2
  -2   2  10 11280.0 600.044   6
   2   2 -10 12207.9 590.830 101
  -2   2  10 11076.2 604.070 106
  -2  -2  10 11931.8 557.103  93
  -2   2  10 9448.64 501.243  99
  -2   2  10 10955.4 618.428  98
  -2  -2  10 11847.1 602.869  99
   2  -2 -10 10545.8 906.997  32
   2   2 -10 10902.2 982.141  29
  -2  -2  10 11021.7 1041.00  28
   2  -2 -10 11483.6 1044.12  29
  -2  -2  10 10405.0 1070.40  35
   2   2 -10 11033.1 1054.42  32
   2  -2 -10 11864.9 1050.08  86
  -2  -2  10 10587.6 993.317  89
   2   2 -10 10578.5 511.249  85
   2  -2 -10 11655.7 558.051  77
   2   2 -10 12367.9 617.804  84
   2  -2 -10 11404.9 526.850  74
   2   2 -10 10686.9 1024.16  86
   2   2 -10 10406.0 499.890  82
   2  -2 -10 12827.0 621.838  70
  -2  -2  10 10995.3 587.707  64
  -2  -2  10 11128.5 572.801  67
   2  -2 -10 9286.83 943.726  41
   2   2 -10 10682.9 1004.39  42
   2  -2 -10 10842.3 997.174  42
  -2   2  10 11979.4 584.986  48
   2   2 -10 11114.8 1059.59  40
  -2   2   9 22494.4 1476.50   2
  -2   2   9 22536.1 901.349   6
  -2   2   9 21344.8 816.064   3
  -2   2   9 20725.7 873.861 106
  -2  -2   9 21569.0 876.590  99
  -2  -2   9 21206.9 812.637  93
  -2   2   9 20330.5 795.429  99
  -2   2   9 21405.2 899.910  98
   2  -2  -9 19435.3 1432.07  34
  -2  -2   9 22523.2 1493.30  28
   2   2  -9 21749.0 1389.67  29
   2   2  -9 21893.8 1453.75  32
  -2  -2   9 19689.5 1483.75  35
   2  -2  -9 19898.1 1287.16  32
   2  -2  -9 18407.4 1331.37  29
  -2  -2   9 20479.2 1408.72  89
   2   2  -9 22193.4 816.329  82
   2   2  -9 21423.1 811.432  85
   2   2  -9 20771.3 1426.14  86
   2  -2  -9 21128.9 796.794  74
  -2  -2   9 17722.5 1202.87  87
   2  -2  -9 22370.7 1448.05  86
  -2  -2   9 21585.6 867.335  67
  -2  -2   9 21776.9 868.997  59
   2  -2  -9 22652.9 887.420  70
   2   2  -9 22033.7 1438.83  42
   2  -2  -9 18782.9 1334.22  42
  -2   2   9 21995.2 862.423  48
   2   2  -9 21149.2 1458.20  40
   2   2  -8 35754.2 1178.48  21
  -2   2   8 36526.4 1905.89   2
  -2   2   8 35462.1 1181.66   3
  -2  -2   8 35122.1 1718.93   2
  -2   2   8 36395.6 1226.83 106
  -2  -2   8 35015.6 1145.32  93
  -2   2   8 34526.0 1143.75  99
  -2  -2   8 36401.9 1222.00  99
  -2   2   8 37410.9 1262.86  98
  -2  -2   8 36487.2 1925.34  28
  -2  -2   8 35175.3 1679.74  37
   2   2  -8 35432.7 1849.47  32
   2   2  -8 35312.4 1771.81  29
   2  -2  -8 35769.7 1742.82  32
   2  -2  -8 36438.4 1933.72  34
  -2  -2   8 37789.6 2006.97  35
   2  -2  -8 37131.2 1867.14  29
   2  -2  -8 35142.5 1131.90  74
   2   2  -8 34680.7 1853.15  86
   2   2  -8 36277.0 1171.04  85
   2   2  -8 35526.0 1162.00  82
   2  -2  -8 36282.3 1848.12  86
  -2  -2   8 34145.6 1725.53  87
  -2  -2   8 34381.6 1837.00  89
  -2  -2   8 34626.7 1203.35  66
   2   2  -8 37406.9 1207.24  72
   2  -2  -8 37670.1 1229.22  70
  -2  -2   8 36798.2 1223.66  59
  -2  -2   8 35035.1 1212.93  67
  -2  -2   8 35600.3 1224.28  64
   2   2  -8 34211.3 1791.13  42
   2  -2  -8 36038.5 1833.75  42
   2   2  -8 37500.2 1932.61  40
  -2   2   8 37224.6 1223.91  48
   2   2  -7 18259.9 739.305  21
  -2  -2   7 21613.7 1343.59  28
  -2  -2   7 20564.2 1214.56   2
  -2   2   7 20787.0 1306.48   2
  -2   2   7 20461.1 780.872  16
  -2   2   7 18797.9 717.701   8
  -2   2   7 19435.3 767.285 106
   2   2  -7 18128.1 702.327 100
  -2  -2   7 18455.4 697.799  93
  -2   2   7 18987.4 723.639  99
  -2  -2   7 19685.2 1096.67  92
  -2  -2   7 20281.8 774.583  99
   2   2  -7 22393.0 1322.02  32
   2  -2  -7 20261.7 1256.71  29
   2  -2  -7 20178.2 1299.07  34
   2  -2  -7 19583.4 1176.41  32
   2   2  -7 20519.6 1194.58  29
  -2  -2   7 20378.9 1179.18  37
  -2  -2   7 21211.8 1372.07  35
   2   2  -7 19059.5 730.150  85
   2  -2  -7 20022.2 712.752  74
   2   2  -7 20797.5 763.666  73
   2   2  -7 19717.0 744.828  82
  -2  -2   7 19252.3 1200.25  87
   2  -2  -7 20053.7 1246.62  86
   2   2  -7 19804.4 1255.59  86
  -2  -2   7 19972.0 785.261  64
   2   2  -7 19528.6 754.912  72
  -2  -2   7 20541.6 772.207  66
  -2  -2   7 21134.3 795.061  59
   2   2  -7 19898.2 1209.00  42
  -2   2   7 19369.2 769.126  48
   2  -2  -7 19778.8 1228.93  42
   2  -2  -7 18952.5 1077.49  40
  -2  -2   6 1332.34 336.005  28
  -2   2   6 857.060 291.113   2
  -2   2   6 1179.50 166.948 106
   2   2  -6 1082.28 165.136 110
  -2  -2   6 1207.86 283.402  92
   2   2  -6 1083.52 142.281 100
  -2  -2   6 1088.84 158.890  99
   2  -2  -6 686.072 263.678  34
  -2  -2   6 1639.86 364.003  31
   2   2  -6 978.980 289.207  32
   2  -2  -6 1284.06 305.134  29
   2  -2  -6 914.182 253.194  32
  -2  -2   6 884.374 311.241  35
   2   2  -6 947.723 262.672  29
   2   2  -6 1164.81 318.454  86
   2   2  -6 990.661 154.276  73
   2   2  -6 1003.90 149.014  82
   2  -2  -6 1953.55 386.009  86
  -2  -2   6 1273.14 315.925  87
   2   2  -6 936.099 152.839  72
  -2  -2   6 1074.84 170.089  64
  -2  -2   6 963.566 147.871  66
   2   2  -6 1241.49 339.304  40
   2  -2  -6 906.309 231.976  40
   2   2  -6 1073.08 274.247  42
   2  -2  -6 1111.56 286.704  42
  -2   2   6 928.540 187.330  45
  -2   2   6 834.411 149.415  49
  -2  -2   6 1013.79 256.133  39
  -2   2   6 1056.88 156.412  48
   2  -2  -5 135365. 3949.92  40
   2   2  -5 139483. 3997.21  42
   2  -2  -5 138733. 4115.88  42
  -2  -2   5 139799. 4059.76  39
   2  -2  -5 135070. 4054.39  46
   2   2  -5 148816. 4268.84  40
  -2   2   5 136429. 3831.73  45
  -2  -2   5 136480. 4056.75  92
   2   2  -5 142145. 4189.27  36
   2  -2  -5 142555. 4255.83  34
   2   2  -5 138633. 3953.84  29
  -2  -2   5 140971. 4302.81  35
   2   2  -5 143934. 4104.52  32
   2  -2  -5 139355. 4065.81  32
  -2  -2   5 143840. 4241.15  31
   2   2  -5 137073. 4136.78  86
  -2  -2   5 139938. 4190.61  89
   2   2  -5 136925. 3487.02  73
  -2  -2   5 143036. 4161.72  87
  -2  -2   5 142598. 3516.92  59
   2   2  -5 139353. 3495.56  72
  -2  -2   5 132732. 4210.04  28
   2   2  -5 133585. 3811.88  18
  -2   2   4 66403.2 2296.62   2
   2   2  -4 64828.6 2090.88  42
   2  -2  -4 67564.9 2261.44  44
   2  -2  -4 68422.6 2184.52  40
   2  -2  -4 66171.9 2263.07  42
   2   2  -4 69551.6 2304.68  40
  -2  -2   4 71098.2 2299.47  39
  -2   2   4 68001.1 2147.85  45
   2  -2  -4 68840.0 2286.23  46
   2   2  -4 62063.9 1940.17  96
  -2  -2   4 70028.5 2367.35  31
  -2  -2   4 70743.2 2297.12  33
  -2  -2   4 63553.8 2199.86  30
   2   2  -4 65037.3 2175.12  32
   2   2  -4 65399.0 2311.24  36
   2  -2  -4 66014.1 1998.02  36
   2   2  -4 62240.0 2039.01  29
  -2  -2   4 69612.5 2415.95  35
   2   2  -4 67451.4 2275.71  86
  -2  -2   4 68548.5 2303.76  89
  -2  -2   4 65255.2 1775.13  59
  -2   2   4 61624.3 2128.02  18
   2   2  -4 63107.5 2116.73  18
  -2  -2   4 70144.8 2411.47  28
  -2   2   3 152231. 4130.96   2
  -2  -2   3 142582. 3986.31  43
   2   2  -3 137624. 3791.65  42
   2   2  -3 149786. 4073.50  40
   2  -2  -3 152634. 4124.16  44
  -2  -2   3 147781. 4145.18  39
  -2   2   3 150661. 4039.18  45
   2   2  -3 142243. 3825.61  96
  -2  -2   3 152096. 4204.50  31
   2  -2  -3 144991. 3916.80  36
  -2  -2   3 145278. 4077.89  30
   2   2  -3 137196. 3764.37  29
  -2  -2   3 147793. 4114.48  33
   2   2  -3 149933. 4190.17  36
   2   2  -3 146465. 3921.00  32
   2   2  -3 156178. 4123.33  86
  -2  -2   3 145452. 4072.13  89
  -2  -2   3 148697. 3593.42  59
   2   2  -3 145457. 4034.48  18
  -2   2   3 142544. 4037.48  18
  -2  -2   3 149298. 4213.70  28
   2  -2  -2 9272.46 612.004  44
   2   2  -2 9118.26 410.480  42
  -2  -2   2 9388.55 458.444  41
  -2  -2   2 9089.60 625.162  39
  -2   2   2 9151.66 604.223  45
   2   2  -2 9031.69 548.666  40
   2   2  -2 10041.2 549.672  96
  -2  -2   2 9947.29 658.326  31
  -2  -2   2 8985.83 605.602  30
  -2  -2   2 8534.13 597.889  33
   2   2  -2 9203.94 484.814  32
  -2  -2   2 8403.62 554.303  89
   2   2  -2 10326.8 624.147  86
  -2  -2   2 9731.32 626.763  87
   2   2  -2 9386.95 621.347  18
  -2   2   2 9800.14 624.381  18
   2   2  -2 9259.20 610.130  23
   2  -2  -2 7740.81 330.631  19
  -2   2   2 9305.06 589.643   2
  -2  -2   1 66149.6 2126.98  39
  -2  -2   1 61907.6 1872.68  41
   2  -2  -1 65272.6 2079.57  46
   2   2  -1 61147.4 1842.13  40
   2   2  -1 64707.9 1961.20  96
  -2  -2   1 63547.5 2086.39  92
  -2  -2   1 64713.4 2096.41  31
   2   2  -1 65100.2 2065.95  36
  -2  -2   1 62657.1 2070.56  33
  -2  -2   1 63174.0 2082.60  30
  -2  -2   1 64690.1 2111.51  35
  -2  -2   1 66903.6 2056.66  87
  -2  -2   1 61567.0 1912.55  89
   2   2  -1 64478.1 2076.87  23
   2  -2  -1 61448.4 1794.73  19
   2   2  -1 64655.5 2043.42  19
  -2   2   1 63308.3 1937.05   2
  -2  -2   0 21003.6 995.641  39
  -2   2   0 20407.3 947.097  45
  -2  -2   0 18665.9 853.577  41
   2   2   0 18048.5 666.331  40
   2  -2   0 19582.4 913.416  46
  -2  -2   0 21136.5 951.851  92
   2   2   0 20950.0 904.339  96
  -2  -2   0 21157.8 975.134  31
  -2  -2   0 19963.5 956.813  33
   2   2   0 19558.7 883.539  36
  -2  -2   0 21791.2 974.751  35
  -2  -2   0 18950.8 754.822  89
  -2  -2   0 20522.7 904.166  87
   2   2   0 20329.5 895.088  19
  -2   2   0 21058.0 958.764  18
   2   2   0 19323.1 937.678  23
  -2   2   0 20230.2 792.148   2
   2   2   0 20446.4 944.592   1
   2  -2   1 88338.7 2567.42  43
  -2  -2  -1 79840.6 2527.86  41
   2   2   1 83876.0 2536.64  46
  -2   2  -1 86094.6 2568.88  45
   2  -2   1 84733.7 2492.47  46
   2   2   1 82976.5 2520.61  96
  -2  -2  -1 87976.9 2553.53  92
  -2  -2  -1 79715.3 2223.32  34
  -2  -2  -1 92554.5 2664.08  31
  -2  -2  -1 86380.5 2627.71  33
   2   2   1 83378.6 2391.99  36
   2  -2   1 85611.0 2341.52  35
  -2  -2  -1 80294.8 2164.21  89
  -2  -2  -1 85608.1 2456.22  87
  -2   2  -1 83655.3 2563.28  18
   2   2   1 83753.8 2452.70  19
   2   2   1 86668.6 2588.75   1
   2  -2   2 94084.6 2763.48  43
  -2  -2  -2 86638.5 2755.36  41
   2  -2   2 86465.0 2565.02  46
   2   2   2 89568.6 2666.44  46
  -2   2  -2 91645.4 2710.32  45
   2   2   2 88078.9 2727.37  96
  -2  -2  -2 90772.9 2654.34  92
  -2   2  -2 88573.8 2733.09  29
  -2  -2  -2 97036.1 2876.13  33
   2   2   2 86097.7 2423.11  36
   2  -2   2 94113.1 2800.26  37
   2  -2   2 90192.9 2478.98  35
  -2  -2  -2 87768.0 2525.34  34
  -2   2  -2 85352.8 2573.08  86
  -2  -2  -2 94781.2 2583.84  87
  -2   2  -2 89579.5 2711.23  18
   2   2   2 90805.4 2587.56  19
   2   2   2 90970.3 2738.10  18
   2   2   2 90218.2 2767.13  23
   2   2   2 92369.3 2763.92   1
   2   2   3 78076.6 2463.49   1
   2   2   3 71938.5 1918.54 102
   2   2   3 71567.0 2169.76  94
   2  -2   3 68641.7 2272.50  94
  -2  -2  -3 73593.1 2249.41  92
  -2  -2  -3 73734.8 2285.20  34
  -2   2  -3 75558.5 2455.90  29
   2  -2   3 69678.3 2117.37  35
   2  -2   3 77980.6 2534.01  37
  -2   2  -3 72990.3 2290.42  86
  -2  -2  -3 72471.5 2152.98  87
   2  -2   3 74562.0 2455.24  43
   2   2   3 73729.9 2474.54  38
  -2   2  -3 77418.9 2339.17  45
  -2  -2  -3 78248.3 2503.85  39
   2   2   3 70555.2 2254.59  46
  -2  -2  -3 77306.4 2527.47  41
   2   2   3 73952.6 2331.96  18
   2   2   3 73646.0 2197.08  19
  -2   2  -3 74640.9 2322.66  18
   2   2   3 74224.6 2409.16  23
   2   2   4 88226.6 2889.32   1
   2   2   4 89594.2 2915.63  38
  -2  -2  -4 91065.0 2984.83  41
  -2   2  -4 86111.2 2658.58  45
  -2  -2  -4 95872.9 2968.19  39
   2   2   4 90804.0 2907.77  96
  -2  -2  -4 84906.1 2565.73  92
   2  -2   4 96105.0 2827.49  94
   2   2   4 90318.3 2685.49  94
  -2  -2  -4 86341.4 2779.59  34
   2  -2   4 85406.2 2559.03  35
   2  -2   4 91673.2 3055.71  37
  -2   2  -4 91147.8 2939.05  29
  -2   2  -4 92919.3 2776.46  86
   2  -2   4 86202.8 2276.45  57
   2   2   4 83283.5 2797.12  23
   2   2   4 87724.1 2559.91  19
   2   2   4 90939.3 2690.44  18
   2  -2   5 6821.36 677.807  38
   2   2   5 6101.66 593.281  38
  -2   2  -5 4966.47 449.334  45
   2  -2   5 6408.28 613.623  89
   2  -2   5 6246.31 574.009  94
   2   2   5 4790.86 559.619  96
   2   2   5 5440.09 335.772  95
   2   2   5 5763.03 528.654  94
  -2  -2  -5 6004.55 593.329  34
  -2   2  -5 6098.14 626.393  29
  -2   2  -5 5634.74 563.143  34
   2  -2   5 7328.91 720.376  37
   2  -2   5 5107.93 449.852  35
  -2   2  -5 5232.87 524.804  86
   2  -2   5 5647.96 328.386  55
   2  -2   5 5469.22 309.926  63
   2  -2   5 5907.32 325.845  57
   2   2   5 5876.49 454.784  18
   2   2   5 4892.91 406.675  19
   2   2   5 5549.76 525.393  23
   2   2   6 66879.5 2291.35  23
  -2   2  -6 65492.5 1889.57  26
  -2  -2  -6 67244.4 1918.24  27
   2   2   6 66366.9 2462.42   2
   2   2   6 66950.6 1899.07   7
  -2   2  -6 65482.2 1883.66 109
   2   2   6 67813.1 1846.02 106
   2  -2   6 68103.9 2539.83  89
   2   2   6 68250.2 1901.67  98
   2  -2   6 70340.3 2497.80  94
   2   2   6 68374.2 2455.74  94
   2   2   6 66522.8 1908.88  97
  -2  -2  -6 71627.6 2612.36  34
  -2   2  -6 70382.7 2640.08  29
  -2   2  -6 68754.5 2665.11  32
  -2   2  -6 71387.9 2536.48  34
  -2   2  -6 65788.9 2450.01  86
   2  -2   6 63499.1 1847.72  65
   2  -2   6 69922.7 1884.89  57
   2  -2   6 64285.0 1839.63  63
   2  -2   6 67312.9 1889.42  55
  -2  -2  -6 68876.5 1926.82  69
  -2   2  -6 63718.7 1836.63  52
   2  -2   6 72341.0 2696.50  38
   2   2   6 70502.1 2534.59  38
   2   2   6 66655.5 1896.65  49
  -2  -2  -7 2541.66 266.729  27
  -2   2  -7 2434.55 235.053  27
  -2   2  -7 3117.16 276.707  26
   2   2   7 2903.92 274.113   7
   2  -2   7 2755.13 251.398 106
   2   2   7 2610.16 245.070 106
  -2   2  -7 2801.02 263.494 109
   2   2   7 2672.19 264.122  97
   2   2   7 2821.34 447.594  94
   2   2   7 2510.74 216.860  93
   2   2   7 3200.24 286.063  98
   2  -2   7 2769.76 449.210  94
  -2   2  -7 2984.16 467.977  34
  -2  -2  -7 2747.57 502.192  34
  -2   2  -7 2451.32 490.657  32
  -2   2  -7 2648.13 493.712  29
   2  -2   7 2066.80 468.242  37
   2  -2   7 3061.16 500.535  89
  -2   2  -7 2556.14 430.794  86
  -2  -2  -7 3026.40 278.816  75
  -2  -2  -7 2990.87 505.822  86
   2  -2   7 2714.19 244.954  63
   2  -2   7 2756.77 254.748  65
   2  -2   7 2899.05 274.059  56
   2  -2   7 3557.94 298.161  58
  -2  -2  -7 2716.74 274.042  69
   2  -2   7 2843.78 270.449  60
   2  -2   7 2830.93 263.013  55
  -2  -2  -7 2810.93 464.489  39
   2   2   7 2961.28 452.354  38
   2  -2   7 2503.74 459.115  38
   2   2   7 2801.75 262.760  49
  -2  -2  -7 2274.32 468.978  41
   2  -2   8 140697. 4470.17  23
  -2  -2  -8 137654. 3761.92  27
  -2   2  -8 137941. 3670.14  27
  -2   2  -8 139688. 3702.49  26
   2   2   8 140085. 3706.21   7
  -2   2  -8 132694. 3646.24 109
   2  -2   8 139257. 3681.48 106
   2   2   8 143311. 3688.06 106
   2   2   8 139979. 3723.40  97
   2   2   8 140461. 3609.05  93
   2  -2   8 136232. 4466.36  94
   2  -2   8 135960. 4492.89  89
   2   2   8 144444. 3751.80  98
   2   2   8 146635. 4576.07  94
  -2  -2  -8 139593. 4711.55  34
  -2   2  -8 142760. 4739.78  29
  -2   2  -8 142591. 4534.55  34
  -2  -2  -8 152565. 4796.19  33
  -2   2  -8 146453. 4811.72  32
  -2   2  -8 145321. 4556.20  86
  -2  -2  -8 142960. 3747.40  75
  -2  -2  -8 143587. 4630.56  86
   2  -2   8 145362. 3760.76  60
   2  -2   8 143992. 3739.83  55
   2  -2   8 146921. 3744.54  56
   2  -2   8 145398. 3667.42  63
   2  -2   8 146469. 3690.90  65
  -2  -2  -8 148671. 3761.66  69
   2  -2   8 145442. 3758.35  58
   2   2   8 140374. 3704.36  49
   2  -2   8 135004. 4584.51  38
   2  -2   8 139347. 4816.76  37
  -2  -2  -8 145288. 4793.72  41
  -2  -2  -8 145457. 4480.51  39
  -2  -2  -9 18426.6 810.813  27
  -2   2  -9 17486.5 743.118  27
  -2   2  -9 17867.6 760.712  26
   2   2   9 17576.3 1272.43   1
   2   2   9 17899.0 761.293   7
   2  -2   9 19529.0 782.320 106
   2   2   9 18766.5 767.136 106
   2   2   9 19902.3 1312.54  94
   2   2   9 18233.1 783.151  97
   2   2   9 17925.1 705.390  93
   2  -2   9 18123.1 1208.09  89
   2   2   9 18250.4 802.717  98
   2  -2   9 18489.2 1233.30  94
  -2  -2  -9 18744.7 1365.69  34
  -2   2  -9 18863.0 1360.59  29
  -2  -2  -9 17080.4 1286.70  33
  -2   2  -9 17828.3 1333.02  32
  -2   2  -9 17721.6 1234.03  34
  -2  -2  -9 18964.5 1305.54  86
  -2   2  -9 18211.9 1239.80  86
  -2  -2  -9 17907.0 789.724  78
  -2  -2  -9 18335.5 789.292  75
   2  -2   9 15623.0 1147.33  87
  -2  -2  -9 18432.8 809.727  74
   2  -2   9 18225.5 751.624  65
  -2  -2  -9 18286.2 780.347  70
   2  -2   9 20327.5 835.400  58
   2  -2   9 18169.5 736.068  59
   2  -2   9 19021.4 811.424  60
   2  -2   9 18598.9 791.348  56
   2  -2   9 18336.4 1385.98  37
   2   2   9 17880.5 757.288  49
  -2  -2  -9 19555.8 1392.19  41
   2  -2   9 15848.5 1172.23  38
  -2   2 -10 12972.8 595.493  26
  -2   2 -10 11576.6 572.377  27
  -2  -2 -10 13467.8 664.893  27
   2   2  10 12000.0 585.301   7
   2   2  10 13151.3 611.806 106
   2  -2  10 13291.0 605.620 106
   2   2  10 12371.4 547.606  93
   2   2  10 11338.2 980.626  94
   2  -2  10 14066.4 650.114  99
   2  -2  10 13298.3 1012.43  94
  -2   2 -10 12393.6 1090.64  29
  -2  -2 -10 13148.3 1060.10  86
  -2   2 -10 11569.6 971.179  86
  -2  -2 -10 14723.5 674.716  74
  -2  -2 -10 13448.8 638.585  78
  -2  -2 -10 13948.0 635.794  75
  -2  -2 -10 13296.8 653.993  81
   2  -2  10 13310.4 608.942  64
   2  -2  10 13669.3 649.967  60
   2  -2  10 13438.5 629.592  56
   2  -2  10 12309.8 550.431  59
  -2  -2 -10 13062.8 617.910  70
  -2  -2 -10 11502.3 1037.64  41
   2   2  11 356.665 109.607   7
   2   2  11 485.001 133.126 106
   2  -2  11 542.207 137.338 106
   2  -2  11 712.511 242.639  94
   2   2  11 476.739 100.902  93
   2  -2  11 488.705 142.583  99
  -2   2 -11 508.106 142.502 100
   2   2  11 485.517 226.989  94
  -2   2 -11 252.754 197.871  29
  -2   2 -11 628.217 226.941  86
  -2  -2 -11 532.518 234.130  86
  -2  -2 -11 474.498 138.459  78
  -2  -2 -11 439.202 139.495  74
  -2  -2 -11 557.882 147.340  81
   2  -2  11 361.214 111.787  64
  -2   2 -11 486.417 126.267  51
  -2  -2 -11 233.945 109.880  70
  -2  -2 -11 449.155 141.544  27
  -2   2 -11 416.929 110.967  27
  -2   2 -11 566.908 125.227  26
   2  -2  12 29344.6 900.208 106
   2   2  12 28167.9 908.300 106
  -2   2 -12 29303.2 952.846 101
   2  -2  12 30084.4 939.302  99
  -2   2 -12 28685.8 943.186 100
   2   2  12 27739.0 884.278   8
  -2  -2 -12 29449.1 904.808  76
  -2  -2 -12 30083.5 958.695  81
   2  -2  12 29504.1 953.654  66
  -2  -2 -12 30105.3 969.131  27
  -2   2 -13 15282.2 517.395 101
   2  -2  13 15376.4 491.791  99
   2  -2  13 15521.3 515.414  93
   2   2  13 15020.7 521.382  98
  -2  -2 -13 15925.4 516.359  81
  -2  -2 -13 14923.2 505.272  27
   2   2  13 15371.9 514.418  48
  -2  -3  13 8391.86 317.467  99
  -2   3  13 8691.73 330.508   7
   2  -3 -13 8808.34 321.543  84
  -2  -3  13 8122.67 317.078 108
   2   3 -13 8654.50 315.574  26
   2   3 -12 10432.6 443.391 110
  -2  -3  12 10522.2 444.260  99
   2   3 -12 9584.79 411.066 101
  -2   3  12 10554.5 458.416   7
   2  -3 -12 10223.8 453.271  72
   2  -3 -12 10291.0 439.678  76
  -2  -3  12 9698.31 412.479  67
   2   3 -12 9661.70 438.016  26
   2   3 -11 13715.3 596.598  26
  -2   3  11 13466.3 584.812   6
   2   3 -11 12386.6 552.614 101
   2   3 -11 12698.9 576.626 110
  -2  -3  11 13176.4 572.758  99
   2   3 -11 12829.8 1015.58  86
   2  -3 -11 12482.6 509.586  77
   2  -3 -11 12383.5 564.470  70
  -2  -3  11 12684.7 563.247  67
  -2   3  11 12039.4 553.245  48
   2   3 -10 1332.45 215.542  26
  -2  -3  10 1818.37 428.750  28
  -2   3  10 1679.55 230.264   6
  -2   3  10 1605.95 199.520   3
   2   3 -10 1675.89 231.279 110
   2   3 -10 1311.93 202.241 101
  -2  -3  10 1475.33 212.654  99
   2   3 -10 1334.58 354.257  32
   2  -3 -10 1316.30 352.545  86
   2   3 -10 1392.71 389.800  86
  -2  -3  10 1568.06 389.006  89
  -2  -3  10 1221.53 207.275  64
  -2  -3  10 1236.91 205.419  67
   2  -3 -10 1193.98 192.955  70
  -2   3  10 1727.75 222.364  48
   2  -3 -10 904.066 334.565  41
  -2   3   9 25654.1 1673.41   2
  -2   3   9 27071.9 1055.66   7
  -2   3   9 25827.4 945.677   8
  -2   3   9 27655.9 1007.92   3
  -2   3   9 27892.8 1052.02   6
   2   3  -9 29057.2 1062.85 110
   2   3  -9 27466.6 1014.59 101
  -2  -3   9 28353.4 1019.35  99
  -2   3   9 26017.6 1046.27  98
   2  -3  -9 26877.9 1708.13  34
   2  -3  -9 24327.4 1465.15  29
   2   3  -9 26440.0 1604.76  32
  -2  -3   9 27875.1 1685.23  28
  -2  -3   9 23344.1 1650.16  35
   2   3  -9 27878.3 1696.01  86
  -2  -3   9 28292.0 1684.83  89
   2   3  -9 25625.1 896.562  85
   2  -3  -9 28244.5 1667.71  86
  -2  -3   9 27780.0 1039.77  67
  -2  -3   9 28732.8 1051.12  64
   2  -3  -9 27583.0 1028.90  70
  -2  -3   9 27390.2 1038.02  59
   2  -3  -9 26039.3 1692.51  41
  -2   3   9 28879.6 1049.45  48
   2   3  -9 27871.6 1712.85  40
   2   3  -8 7349.09 453.474  21
  -2   3   8 6788.02 421.398   8
  -2   3   8 7311.69 470.947   7
  -2   3   8 7751.50 486.726   6
  -2   3   8 6949.29 446.693   3
  -2   3   8 6627.23 807.357   2
   2   3  -8 7079.05 447.863 101
  -2  -3   8 5949.57 674.545  92
  -2   3   8 6508.81 452.237  98
  -2  -3   8 7540.08 448.286  99
   2  -3  -8 5896.43 694.029  29
  -2  -3   8 5928.18 731.622  37
   2   3  -8 8194.54 841.738  32
   2  -3  -8 7813.24 883.073  34
  -2  -3   8 7320.84 879.439  35
  -2  -3   8 6536.61 806.252  28
   2  -3  -8 6648.60 800.963  86
   2   3  -8 7112.41 841.030  86
  -2  -3   8 5723.34 734.055  87
   2   3  -8 6336.49 383.646  85
  -2  -3   8 7020.49 454.703  64
   2   3  -8 6070.48 384.098  51
   2  -3  -8 5123.31 642.407  42
  -2   3   8 6639.67 448.787  48
   2   3  -8 6736.37 843.691  40
  -2  -3   7 25881.8 1609.75  28
   2   3  -7 26265.2 971.353  21
  -2   3   7 26508.7 991.859  16
  -2   3   7 23998.4 927.581   8
  -2  -3   7 22800.9 1370.03   2
  -2   3   7 26218.3 985.295   7
  -2   3   7 25667.0 979.150   3
   2   3  -7 25484.8 957.090 101
  -2  -3   7 25519.4 930.281  99
  -2  -3   7 24951.2 1461.18  92
  -2   3   7 25558.0 994.281  98
   2  -3  -7 23882.0 1398.72  29
   2  -3  -7 24932.6 1570.54  34
   2   3  -7 28178.4 1530.72  32
  -2  -3   7 25244.3 1639.83  35
   2   3  -7 28984.9 1655.30  86
   2   3  -7 24962.0 893.675  85
   2  -3  -7 26927.4 1559.55  86
  -2  -3   7 26720.2 1603.99  89
  -2  -3   7 22507.4 1472.21  87
   2   3  -7 23977.2 903.914  51
  -2  -3   7 24334.5 948.124  64
  -2  -3   7 26722.6 990.056  59
  -2  -3   7 25536.5 916.098  66
   2   3  -7 25819.1 1385.46  42
   2  -3  -7 23866.3 1390.21  42
  -2   3   7 24357.7 964.893  49
  -2   3   7 26149.9 986.578  48
   2   3  -7 28863.7 1660.87  40
  -2   3   6 28991.1 986.312  17
  -2  -3   6 29150.4 1665.01  28
   2   3  -6 28588.5 1048.33  21
  -2   3   6 30241.7 1056.98   7
  -2   3   6 29061.8 1027.40   8
  -2   3   6 30455.5 1067.07  16
  -2   3   6 29553.3 1059.91   6
   2   3  -6 30938.2 1049.12 101
  -2  -3   6 30252.8 1609.67  92
  -2   3   6 28933.9 1057.89  98
  -2  -3   6 28218.8 985.059  99
   2  -3  -6 31785.5 1697.79  34
   2  -3  -6 29282.3 1507.72  29
   2   3  -6 31351.7 1541.34  32
   2  -3  -6 27842.5 1400.21  32
  -2  -3   6 30082.8 1733.56  35
  -2  -3   6 31648.5 1667.99  31
   2   3  -6 29863.8 1653.03  86
   2   3  -6 29336.9 987.263  85
  -2  -3   6 30139.1 1648.46  89
  -2  -3   6 32957.1 1706.10  87
  -2  -3   6 29953.9 982.441  66
   2   3  -6 27628.2 996.441  51
  -2  -3   6 31355.7 1067.61  59
  -2  -3   6 28790.1 1027.54  64
   2   3  -6 28371.2 1381.13  42
   2  -3  -6 26595.7 1453.67  42
  -2   3   6 29319.4 1049.71  49
  -2   3   6 30046.6 1055.51  48
   2   3  -6 31850.7 1691.94  40
   2   3  -5 10041.2 750.917  18
  -2   3   5 10347.9 781.627  18
   2   3  -5 11708.2 546.966  21
  -2  -3   5 11830.7 984.906  28
  -2   3   5 10045.8 492.316  17
  -2   3   5 9823.53 498.182   7
  -2   3   5 10294.3 502.622  10
  -2   3   5 11756.6 547.809   6
  -2   3   5 10667.5 519.850   8
  -2   3   5 10201.0 875.253   2
   2   3  -5 11176.3 526.518 101
   2   3  -5 10959.3 536.339 110
  -2  -3   5 11820.7 942.420  92
  -2   3   5 10505.3 525.358  98
  -2  -3   5 10661.2 893.217  31
   2  -3  -5 11298.7 909.150  34
  -2  -3   5 10027.7 797.187  33
  -2  -3   5 9656.55 757.774  30
   2   3  -5 10938.2 796.896  32
  -2  -3   5 11949.5 998.531  35
   2  -3  -5 9217.11 722.513  32
   2   3  -5 9744.05 475.135  85
   2   3  -5 11281.3 924.598  86
  -2  -3   5 11354.9 906.395  89
   2   3  -5 10831.0 510.824  51
  -2  -3   5 11173.0 514.941  64
  -2  -3   5 11358.6 531.067  59
  -2   3   5 10082.6 458.372  54
   2   3  -5 10674.2 707.578  42
   2  -3  -5 9861.00 789.199  42
  -2   3   5 10346.2 510.642  49
  -2  -3   5 10344.7 813.904  39
  -2   3   5 11017.0 530.543  48
   2   3  -5 11805.1 911.520  40
   2   3  -4 30849.7 1446.98  18
  -2   3   4 30030.4 1455.54  18
  -2  -3   4 34749.8 1709.29  28
  -2   3   4 33379.8 1599.73   2
  -2   3   4 31786.4 1052.79  16
   2   3  -4 31588.1 1055.48 110
   2   3  -4 32147.9 1035.34 101
  -2   3   4 28656.6 1012.53  98
  -2  -3   4 29880.2 1532.68  31
   2   3  -4 32278.9 1353.79  32
   2  -3  -4 33966.6 1584.27  34
  -2  -3   4 30939.4 1462.40  33
  -2  -3   4 32036.5 1469.72  30
  -2  -3   4 34485.4 1698.45  35
   2   3  -4 32476.0 1018.64  85
   2   3  -4 30053.4 949.893  83
  -2  -3   4 31817.4 1553.09  89
   2   3  -4 30966.3 1559.28  86
  -2  -3   4 33931.9 1618.59  87
  -2  -3   4 31161.3 1026.99  59
   2   3  -4 31035.3 1026.19  51
  -2  -3   4 31464.5 1524.25  43
   2  -3  -4 32579.6 1517.77  44
   2  -3  -4 30903.5 1335.56  40
   2  -3  -4 30972.2 1445.48  42
  -2  -3   4 33706.1 1534.61  39
   2   3  -4 33262.8 1522.71  40
  -2   3   4 32047.7 1024.10  49
  -2   3   4 31395.3 1457.27  45
  -2   3   3 13263.8 892.580  18
  -2  -3   3 13905.8 989.583  28
   2   3  -3 13211.6 890.204  18
  -2   3   3 15001.8 943.948   2
   2   3  -3 12483.3 549.699 110
  -2  -3   3 14190.7 951.815  31
  -2  -3   3 12545.5 852.642  33
   2   3  -3 11782.6 669.634  32
  -2  -3   3 12723.9 864.895  30
  -2  -3   3 14422.1 996.220  35
   2   3  -3 12096.1 494.022  83
  -2  -3   3 13909.9 890.129  89
  -2  -3   3 13499.7 930.248  87
   2   3  -3 12090.5 885.072  86
  -2  -3   3 13818.6 544.302  59
   2  -3  -3 13385.8 879.459  44
  -2  -3   3 12780.5 862.407  43
  -2  -3   3 12913.9 886.014  39
   2   3  -3 13899.3 854.477  40
  -2   3   3 13109.5 882.189  45
  -2   3   2 13052.8 845.080   2
   2  -3  -2 13490.0 874.818  44
  -2  -3   2 12918.9 888.059  39
   2  -3  -2 12396.3 886.544  46
   2   3  -2 12700.1 747.353  40
  -2   3   2 13177.7 887.629  45
   2   3  -2 12475.7 687.564  96
  -2  -3   2 15427.0 981.245  92
  -2  -3   2 13159.7 895.049  31
  -2  -3   2 12839.3 850.642  33
  -2  -3   2 13907.6 903.137  30
  -2  -3   2 13055.3 814.413  89
  -2  -3   2 15307.4 938.790  87
  -2  -3   2 13429.0 513.084  59
  -2  -3   2 13460.7 946.329  28
  -2   3   2 12541.3 882.939  18
   2   3  -2 14171.6 918.659  18
  -2   3   1 110603. 3211.56   2
  -2  -3   1 108139. 3425.70  39
   2  -3  -1 106402. 3369.34  46
   2   3  -1 100253. 3047.12  96
  -2  -3   1 112496. 3425.93  92
  -2  -3   1 111039. 3385.75  31
  -2  -3   1 113985. 3399.69  33
  -2  -3   1 105909. 3366.28  30
  -2  -3   1 104647. 3069.35  89
  -2  -3   1 110589. 3307.96  87
  -2  -3   1 100450. 2635.30  59
   2   3  -1 113918. 3436.77  18
  -2  -3   0 6062.21 509.931  41
  -2  -3   0 6377.13 630.729  39
   2  -3   0 6618.77 609.724  46
  -2   3   0 5675.64 572.906  45
   2   3   0 7706.79 576.795  96
  -2  -3   0 6490.95 604.766  92
  -2  -3   0 6716.45 620.532  31
  -2  -3   0 6743.25 609.781  33
  -2  -3   0 6638.14 453.192  89
  -2  -3   0 6594.96 562.931  87
  -2   3   0 6174.29 597.983  18
   2   3   0 6614.45 612.630  18
   2   3   0 6537.97 580.580   1
   2   3   1 32824.1 1439.64   1
   2   3   1 30355.0 996.841 102
  -2   3  -1 30042.6 965.058 100
   2   3   1 30727.9 1369.48  96
  -2  -3  -1 31578.6 1423.48  92
  -2  -3  -1 32068.9 1487.09  31
  -2  -3  -1 31923.6 1513.15  33
   2  -3   1 33226.9 1333.42  35
  -2  -3  -1 31771.6 1313.63  87
   2   3   1 30833.7 1482.23  23
  -2   3  -1 33931.5 1506.57  18
   2   3   1 34099.7 1504.56  18
   2  -3   1 33207.1 1502.04  43
  -2  -3  -1 31310.2 1381.16  41
  -2   3  -1 32767.2 1477.14  45
   2  -3   1 29893.8 1393.26  46
  -2  -3  -1 34159.9 1586.94  39
   2   3   2 22765.2 1166.60   1
   2   3   2 20671.2 764.514 102
   2   3   2 20921.5 1123.38  96
  -2   3  -2 21054.6 750.257 100
  -2  -3  -2 20881.9 1095.19  92
   2  -3   2 21193.4 987.636  94
  -2  -3  -2 22038.5 1243.73  31
  -2  -3  -2 22011.2 1243.58  33
   2  -3   2 22557.4 1053.91  35
  -2  -3  -2 20982.1 976.184  87
   2  -3   2 22125.9 1232.86  43
  -2  -3  -2 23191.9 1202.28  41
  -2  -3  -2 23505.1 1285.11  39
  -2   3  -2 20872.5 1148.75  45
  -2   3  -2 21699.3 1172.22  18
   2   3   2 20720.3 1181.13  23
   2   3   2 21085.9 1160.37  18
  -2   3  -3 31398.4 1449.15  18
   2   3   3 32446.2 1472.22  18
   2   3   3 31696.0 1488.79  23
   2   3   3 34426.8 1501.14   1
   2   3   3 28589.2 985.962 104
  -2   3  -3 27388.6 979.359 109
   2   3   3 32796.2 1507.23  96
  -2   3  -3 28139.2 975.918 100
  -2  -3  -3 29797.8 1303.62  92
  -2  -3  -3 28752.2 1514.86  31
  -2  -3  -3 32322.8 1591.75  33
   2  -3   3 28303.0 1509.21  37
   2  -3   3 28222.1 1257.10  35
   2   3   3 30877.5 1007.61  50
  -2   3  -3 29141.1 973.958  52
   2  -3   3 29814.4 1519.02  43
  -2  -3  -3 29988.9 1498.38  41
  -2   3  -3 30307.9 1419.64  45
  -2   3  -4 13180.3 874.896  18
   2   3   4 11199.1 858.642  23
   2   3   4 12942.4 870.478  18
   2   3   4 13186.4 917.263   1
  -2   3  -4 12243.2 550.803  11
   2   3   4 12393.8 568.393   4
   2   3   4 11414.5 564.784   7
   2   3   4 11694.7 551.078 104
  -2   3  -4 12801.6 560.476 101
  -2   3  -4 11952.7 570.014 109
   2   3   4 12327.5 568.215 103
   2   3   4 12957.8 564.803  97
   2   3   4 13744.1 993.041  96
  -2   3  -4 13165.6 579.780 100
   2  -3   4 12327.0 952.217  89
  -2  -3  -4 12299.3 798.131  34
   2  -3   4 11881.4 988.143  37
  -2  -3  -4 12542.4 1000.41  33
  -2   3  -4 13887.2 956.830  29
  -2   3  -4 12628.4 894.882  86
   2  -3   4 11766.9 487.304  57
  -2   3  -4 12424.3 556.741  52
   2  -3   4 11849.3 507.959  55
  -2  -3  -4 13440.3 1014.85  41
   2   3   4 12452.0 575.979  50
  -2  -3  -4 13401.4 1012.73  39
  -2   3  -4 12466.2 853.822  45
   2   3   5 43156.1 1799.25  23
   2   3   5 40002.0 1682.81  18
  -2   3  -5 42121.4 1347.04  26
  -2   3  -5 40583.3 1292.64  11
   2   3   5 42481.4 1339.95   4
   2   3   5 40704.3 1851.62   1
   2   3   5 39720.3 1335.42   7
   2   3   5 41240.9 1335.25 103
  -2   3  -5 41951.8 1328.71 101
  -2   3  -5 40992.9 1341.55 109
  -2   3  -5 43277.4 1360.96 100
   2   3   5 41576.1 1265.86  98
   2   3   5 43843.5 1352.04  97
  -2  -3  -5 40837.1 1764.10  34
  -2   3  -5 42299.9 1942.79  29
  -2  -3  -5 44526.0 2086.51  33
   2  -3   5 44210.3 2143.53  37
  -2   3  -5 40714.8 1851.08  86
   2  -3   5 38469.0 1223.97  57
   2  -3   5 43027.4 1284.80  55
  -2   3  -5 42412.3 1323.03  52
   2  -3   5 47878.0 2185.25  38
  -2  -3  -5 43584.6 2059.24  41
  -2  -3  -5 51564.0 2195.91  39
   2   3   6 22329.5 1199.10  23
  -2   3  -6 22613.5 891.494  26
  -2   3  -6 21865.7 828.116  11
   2   3   6 22814.5 880.383   4
   2   3   6 21747.3 888.418   7
   2   3   6 21754.7 847.574  17
   2   3   6 23234.9 1359.29   1
  -2   3  -6 22111.4 883.573 109
  -2   3  -6 23744.4 895.077 101
   2  -3   6 24305.6 1472.57  89
   2   3   6 22127.7 1169.15  94
   2   3   6 23346.5 852.052  98
  -2  -3  -6 20887.4 1277.32  34
   2  -3   6 24445.7 1584.87  37
  -2   3  -6 23223.0 1411.92  29
  -2   3  -6 22497.1 1343.12  86
   2  -3   6 24267.8 910.580  56
   2  -3   6 23301.5 851.734  55
   2  -3   6 22715.8 884.381  58
  -2  -3  -6 23843.5 916.529  69
   2  -3   6 23981.0 1531.70  38
  -2  -3  -6 23063.0 1509.06  41
   2   3   6 22748.7 900.269  49
  -2  -3  -6 22056.5 1424.66  39
  -2  -3  -7 83244.0 2330.89  27
  -2   3  -7 83760.4 2401.23  26
   2   3   7 82805.4 3083.61   1
   2   3   7 83640.1 2322.16  17
   2   3   7 82524.0 2356.04   4
   2   3   7 81822.0 2394.19   7
  -2   3  -7 88111.9 2415.61 101
  -2   3  -7 80382.2 2355.33 109
   2   3   7 84922.9 2352.98  98
   2   3   7 83101.3 2901.36  94
   2  -3   7 84004.6 3243.36  89
  -2   3  -7 85612.7 3226.14  29
  -2  -3  -7 82989.2 3121.28  34
  -2  -3  -7 91393.8 3466.91  33
  -2   3  -7 81780.9 3073.46  86
   2  -3   7 83667.1 3266.61  87
   2  -3   7 84691.2 2344.10  55
   2  -3   7 87091.3 2414.32  56
  -2  -3  -7 85488.8 2415.74  69
   2  -3   7 83040.6 2360.38  60
   2  -3   7 84752.7 2394.85  58
   2   3   7 82426.9 2399.56  49
  -2  -3  -7 78538.4 3340.77  41
   2  -3   7 80445.1 3304.12  38
  -2  -3  -7 86848.4 3269.32  39
  -2   3  -8 13606.1 662.976  26
  -2  -3  -8 12697.2 618.079  27
   2   3   8 12974.0 580.577  17
   2   3   8 13158.1 654.227   7
   2   3   8 13546.7 630.551   4
  -2   3  -8 13976.1 673.679 101
   2   3   8 12882.5 958.042  94
  -2   3  -8 14308.5 695.177 100
   2   3   8 14036.5 683.118  97
   2  -3   8 13587.9 1111.45  89
   2   3   8 14230.6 659.350  98
  -2  -3  -8 13568.8 1095.24  34
  -2  -3  -8 13449.6 1187.40  33
   2  -3   8 13219.9 1220.39  37
  -2   3  -8 12805.0 1083.79  29
  -2  -3  -8 12051.9 1059.15  86
  -2  -3  -8 13737.7 664.991  75
  -2   3  -8 12505.6 1027.88  86
   2  -3   8 13457.2 1120.04  87
  -2  -3  -8 13593.0 670.015  69
   2  -3   8 13435.6 657.101  58
   2  -3   8 13840.3 670.871  56
   2  -3   8 14590.4 664.413  60
   2   3   8 13226.6 656.952  49
   2  -3   8 12287.7 1107.07  38
  -2  -3  -8 12564.9 1086.40  39
  -2  -3  -9 19307.1 778.397  27
  -2   3  -9 19387.8 811.011  26
   2   3   9 18850.6 751.803   4
   2   3   9 19589.8 811.142   7
  -2   3  -9 20795.9 839.933 101
   2   3   9 17446.6 702.168 106
   2  -3   9 16621.5 1240.02  89
  -2   3  -9 19243.2 840.539 100
   2   3   9 20091.3 815.443  98
  -2   3  -9 19551.9 1335.35  29
  -2   3  -9 15987.0 1171.60  86
  -2  -3  -9 20472.1 816.289  75
  -2  -3  -9 20198.6 829.783  78
  -2  -3  -9 19647.6 833.472  74
  -2  -3  -9 19105.0 1317.79  86
   2  -3   9 20287.3 827.415  58
   2  -3   9 20719.0 814.851  60
  -2   3  -9 20537.0 830.562  51
   2  -3   9 21212.8 841.116  66
   2  -3   9 18950.1 785.268  59
  -2  -3  -9 21176.5 1467.64  41
   2   3   9 19103.2 812.562  49
  -2  -3 -10 10741.0 514.200  27
  -2   3 -10 11432.7 544.843  26
   2   3  10 11545.1 562.720   8
  -2   3 -10 11047.3 557.251 101
   2   3  10 11458.9 553.707  98
   2  -3  10 11239.2 557.486  99
  -2   3 -10 11604.1 575.871 100
  -2   3 -10 11371.4 954.936  29
  -2  -3 -10 11087.3 938.133  86
  -2  -3 -10 11524.2 570.821  74
  -2   3 -10 8773.62 781.537  86
  -2  -3 -10 11331.0 548.597  78
  -2  -3 -10 11836.2 543.593  75
  -2  -3 -10 12015.6 580.365  81
   2  -3  10 11466.6 554.904  64
   2  -3  10 12281.8 578.970  66
  -2   3 -10 11621.4 551.669  51
   2  -3  10 11133.1 520.109  59
  -2  -3 -10 12041.9 564.040  70
   2   3  10 10908.3 535.612  49
  -2   3 -11 3563.11 270.385 101
  -2   3 -11 3547.58 275.898 100
   2   3  11 3412.44 258.515  98
   2   3  11 3761.15 266.237   8
  -2  -3 -11 3851.33 274.215  81
  -2  -3 -11 3425.34 264.714  74
  -2  -3 -11 3361.43 248.423  78
   2  -3  11 3126.13 239.345  64
  -2   3 -11 3112.41 235.413  51
  -2  -3 -11 3151.42 246.173  70
   2  -3  11 3149.19 255.017  66
  -2   3 -11 3841.07 255.534  26
  -2  -3 -11 2872.06 220.135  27
  -2   3 -12 6270.80 263.343  26
  -2   3 -12 6505.38 310.241 101
   2  -3  12 6837.76 294.988  93
   2   3  12 7240.24 317.532  98
  -2  -3 -12 6606.48 291.873  76
  -2  -3 -12 6797.44 310.293  81
   2  -3  12 6669.42 283.263  64
   2   3  12 6111.97 277.351   8
   2   3  12 7033.57 323.614  48
  -2  -4  12 7497.56 288.039 108
   2   4 -11 1660.33 165.972 110
  -2  -4  11 1865.45 150.600  99
  -2  -4  11 1801.02 162.445  90
  -2   4  11 1834.55 179.656   4
  -2   4  11 1974.05 179.023   7
   2  -4 -11 1893.74 164.316  76
  -2  -4  11 2024.39 181.292  67
  -2   4  11 1754.07 155.816  47
   2   4 -10 15456.2 625.126  26
  -2   4  10 15969.3 632.087   7
   2   4 -10 14829.1 555.482  13
   2   4 -10 15260.7 623.313 110
  -2  -4  10 14923.1 567.223  99
   2  -4 -10 13415.8 526.477  77
   2  -4 -10 14905.3 598.446  70
  -2   4  10 14094.0 577.961  47
   2   4  -9 27469.9 987.847  26
  -2   4   9 27120.4 985.710   7
  -2   4   9 24425.1 914.175   8
  -2   4   9 28556.9 988.941   3
   2   4  -9 26296.2 939.290  13
   2   4  -9 27368.1 996.181 110
  -2  -4   9 26938.6 911.804  99
  -2  -4   9 25932.8 1509.31  28
   2  -4  -9 25939.0 1496.64  86
  -2  -4   9 28177.7 985.493  64
   2  -4  -9 26492.2 958.550  70
  -2  -4   9 28586.9 1011.07  67
  -2   4   9 27841.6 954.235  47
  -2   4   9 28171.5 1003.33  48
   2   4  -8 13777.7 652.348  26
  -2   4   8 15052.6 677.948   7
  -2   4   8 13725.6 661.906   3
  -2   4   8 13272.8 630.709   8
   2   4  -8 14040.9 668.131 110
  -2  -4   8 13392.1 584.529  99
  -2  -4   8 13285.4 1040.11  92
  -2  -4   8 12819.7 1095.95  28
  -2  -4   8 12099.0 1093.74  89
   2  -4  -8 13127.4 1082.05  86
  -2  -4   8 14646.2 659.984  64
   2   4  -8 12583.5 598.448  51
  -2  -4   8 14077.4 668.355  59
  -2  -4   8 14623.1 678.145  67
   2  -4  -8 12719.8 1152.19  41
  -2   4   8 13362.6 657.528  48
  -2  -4   7 965.231 342.102  28
   2   4  -7 1581.52 225.931  26
  -2   4   7 1327.15 208.017   7
  -2   4   7 1500.22 436.727   2
  -2   4   7 1101.52 205.085   8
  -2   4   7 1082.91 175.481  17
  -2   4   7 1116.29 214.746   3
   2   4  -7 1094.54 213.970 110
  -2  -4   7 1774.99 424.575  92
   2  -4  -7 882.923 313.128  34
  -2  -4   7 856.207 323.529  37
  -2  -4   7 1456.63 435.357  35
   2  -4  -7 1226.08 366.752  86
  -2  -4   7 1355.68 381.499  89
  -2  -4   7 1220.28 374.677  87
   2   4  -7 1156.86 193.506  51
  -2  -4   7 1283.87 208.889  64
  -2  -4   7 1039.27 202.681  67
  -2  -4   7 1348.61 216.582  59
   2  -4  -7 1332.79 410.628  41
  -2   4   6 23156.7 906.857   7
  -2   4   6 24707.8 947.105   8
  -2   4   6 23837.4 1577.83   2
  -2   4   6 23693.9 941.154   6
  -2   4   6 24804.6 964.712   3
  -2   4   6 22805.5 868.928  47
  -2   4   6 23616.5 917.289  49
  -2  -4   6 21788.2 1474.32  92
   2  -4  -6 20887.0 1413.12  34
  -2  -4   6 21148.7 1541.23  35
  -2  -4   6 19474.8 1341.18  31
  -2  -4   6 20346.1 1413.38  89
  -2  -4   6 22268.1 875.117  64
   2   4  -6 22190.9 898.672  51
  -2  -4   6 24960.4 946.591  59
   2   4  -6 23938.9 912.418  26
  -2  -4   6 24594.3 1603.98  28
  -2   4   6 22723.7 890.764  17
   2   4  -6 23427.0 938.749  21
  -2   4   5 22118.1 843.700   7
  -2   4   5 21321.5 867.976  16
  -2   4   5 20769.4 831.589  10
  -2   4   5 20997.1 867.262   8
   2   4  -5 20171.3 779.870  12
  -2   4   5 21467.0 1443.52   2
  -2   4   5 19937.1 796.488  12
  -2   4   5 21685.1 872.006  48
  -2   4   5 21668.3 805.537  47
  -2   4   5 21073.9 828.335  49
  -2  -4   5 20950.6 1431.10  92
  -2  -4   5 20706.3 1365.21  89
  -2  -4   5 21729.3 1446.93  87
  -2   4   5 19597.1 1268.31  18
  -2   4   5 20367.0 842.208  17
   2   4  -5 20252.7 1251.45  18
   2   4  -5 22293.0 882.565  21
  -2  -4   5 22965.6 1517.52  28
  -2   4   5 20574.9 795.216  20
   2   4  -5 21853.3 832.873  26
   2   4  -5 21066.0 789.485  20
  -2   4   5 20988.1 791.830  54
  -2  -4   5 20713.0 797.985  64
  -2  -4   5 20901.1 840.565  59
  -2   4   5 21189.4 804.954  53
   2   4  -5 21185.6 858.447  51
   2  -4  -5 19401.0 1316.23  34
  -2  -4   5 19999.8 1477.52  35
  -2  -4   5 17864.8 1265.94  31
  -2   4   4 61060.4 1834.91   8
  -2   4   4 66771.9 2673.61   2
   2   4  -4 60136.7 1760.79  12
  -2   4   4 57898.9 1768.48  12
  -2   4   4 60619.7 1754.64   7
  -2   4   4 59071.9 1802.71  16
  -2   4   4 61143.7 1834.90   3
  -2   4   4 60220.7 1802.82  10
  -2   4   4 60148.0 1719.60  47
  -2  -4   4 60635.0 2528.91  43
  -2  -4   4 57076.7 2382.07  39
  -2   4   4 60122.7 1790.21  50
  -2   4   4 61082.3 1752.96  49
  -2  -4   4 59631.7 2487.34  31
   2  -4  -4 57459.0 2400.32  34
  -2  -4   4 58466.9 2327.63  30
  -2  -4   4 63455.8 2757.37  35
  -2  -4   4 58872.1 2447.84  89
  -2  -4   4 62872.7 2621.80  87
  -2   4   4 61539.6 1770.65  54
  -2   4   4 63814.6 1791.15  53
  -2  -4   4 60393.3 1774.32  59
   2   4  -4 61358.9 1820.60  51
   2   4  -4 59769.8 1760.19  20
  -2   4   4 56100.5 1751.06  20
   2   4  -4 59217.9 1738.13  26
  -2   4   4 60292.5 2505.78  18
   2   4  -4 63381.2 1838.43  21
  -2  -4   4 59339.8 2641.24  28
   2   4  -4 59799.0 2448.88  18
  -2   4   4 60080.9 1820.39  17
  -2   4   3 760.923 274.534  18
   2   4  -3 953.755 174.666  21
  -2   4   3 943.430 182.281  20
   2   4  -3 929.821 294.615  18
   2   4  -3 565.860 142.538  20
  -2  -4   3 396.039 258.841  28
  -2   4   3 798.319 174.806   3
  -2   4   3 730.191 269.666   2
  -2   4   3 632.250 131.337   7
  -2   4   3 938.702 173.457  16
  -2   4   3 913.997 177.724  12
   2   4  -3 985.441 167.650  12
  -2   4   3 875.865 151.372  11
  -2   4   3 715.985 164.997  17
  -2   4   3 620.600 155.472  10
   2   4  -3 824.499 177.152 110
   2   4  -3 625.886 150.560 102
  -2  -4   3 756.892 312.643  92
   2  -4  -3 711.917 247.273  34
  -2  -4   3 376.665 229.458  31
  -2  -4   3 572.886 226.879  33
  -2  -4   3 653.629 235.991  30
  -2  -4   3 582.940 283.811  35
  -2  -4   3 708.375 246.169  89
  -2  -4   3 1008.31 303.479  87
  -2   4   3 815.163 158.968  54
   2   4  -3 941.157 174.335  51
  -2   4   3 775.161 166.675  53
  -2  -4   3 815.941 146.738  59
  -2  -4   3 662.393 267.998  39
   2  -4  -3 987.584 280.499  44
  -2   4   3 691.620 131.399  49
  -2  -4   3 932.112 306.449  43
  -2   4   3 661.054 152.019  50
  -2   4   3 732.309 135.444  47
   2   4  -2 36831.3 1203.74  20
   2   4  -2 36996.5 1830.01  18
  -2  -4   2 36424.3 1914.78  28
  -2   4   2 35844.4 1832.76  18
   2   4  -2 35636.5 1168.53  21
  -2   4   2 35038.1 1192.89  20
  -2   4   2 35035.9 1204.90   8
  -2   4   2 35499.1 1159.82  11
  -2   4   2 37929.8 1214.50  12
   2   4  -2 36289.5 1135.73  17
  -2   4   2 33923.6 1144.32  16
  -2   4   2 33490.5 1160.89   3
   2   4  -2 33977.1 1122.16 104
   2   4  -2 35888.5 1218.34 110
   2   4  -2 37119.9 1202.51 102
  -2  -4   2 39192.4 1911.59  92
  -2  -4   2 34871.4 1736.47  31
  -2  -4   2 37106.2 1772.42  30
  -2  -4   2 34332.4 1677.71  33
  -2  -4   2 35382.3 1897.03  35
  -2  -4   2 34739.3 1571.05  89
  -2  -4   2 34866.1 1743.22  87
  -2   4   2 37137.5 1184.72  50
  -2   4   2 38082.4 1217.64  53
  -2   4   2 35910.2 1188.24  54
  -2  -4   2 35282.4 1103.60  59
  -2   4   2 33505.3 1744.44  45
  -2  -4   2 35760.2 1780.46  43
  -2  -4   2 37489.8 1839.92  39
   2  -4  -2 35117.8 1735.51  44
   2   4  -1 47137.9 1456.08  20
  -2   4   1 47546.4 1465.99  17
  -2  -4   1 49846.8 2244.49  28
   2   4  -1 50174.5 2183.99  18
   2   4  -1 44626.8 1378.52  21
   2   4  -1 45966.9 1422.49  13
  -2   4   1 46193.9 1426.08  11
  -2   4   1 44183.7 1383.35   3
  -2   4   1 45024.7 1374.23  16
  -2   4   1 46494.4 1457.52   8
   2   4  -1 47401.1 1413.60  17
  -2   4   1 46250.8 1378.82   4
   2   4  -1 44866.2 1449.49 110
   2   4  -1 50157.2 1474.47 102
   2   4  -1 44685.2 1385.98 104
   2   4  -1 43705.3 1352.50 103
  -2  -4   1 47552.7 2141.26  92
  -2  -4   1 47372.6 2056.71  31
  -2  -4   1 42259.3 1974.58  33
  -2  -4   1 47185.7 2212.12  35
  -2  -4   1 48237.5 2114.00  30
  -2  -4   1 45992.3 1987.41  87
  -2   4   1 48002.9 1466.42  53
  -2   4   1 46505.1 1363.92  52
  -2   4   1 43390.3 1335.80  51
  -2  -4   1 49305.6 2192.76  39
  -2   4   0 8840.97 838.245  18
  -2   4   0 8016.71 457.446  17
  -2   4   0 7831.24 451.587  20
  -2   4   0 7380.09 442.788  12
  -2   4   0 7904.66 449.296  11
   2   4   0 7628.08 427.779  13
  -2   4   0 7484.15 450.505   8
   2   4   0 8370.87 455.390  17
  -2   4   0 7591.29 447.550  13
   2   4   0 7549.70 419.807 103
   2   4   0 7895.17 459.754 110
   2   4   0 7824.35 438.648 104
  -2   4   0 8635.86 441.540 112
   2   4   0 8234.93 460.757 102
   2   4   0 7345.20 642.800  96
  -2  -4   0 8160.08 796.003  92
  -2  -4   0 8065.05 771.718  31
  -2  -4   0 8647.93 836.531  30
  -2  -4   0 8172.21 789.919  33
   2  -4   0 8445.77 752.815  35
   2  -4   0 7903.24 691.013  87
  -2  -4   0 7631.75 688.391  87
  -2   4   0 8025.63 418.061  51
  -2   4   0 7211.90 432.692  54
  -2   4   0 7636.46 450.544  53
  -2   4   0 7876.91 421.125  52
  -2  -4   0 8027.43 836.047  39
  -2   4   0 7764.66 799.876  45
  -2   4  -1 6309.84 403.722  17
   2   4   1 6339.42 725.968  18
  -2   4  -1 5630.57 695.770  18
   2   4   1 6404.60 405.784  20
  -2   4  -1 6227.74 380.585  26
  -2   4  -1 6198.05 400.591  20
   2  -4   1 7011.86 644.107  28
  -2   4  -1 7135.09 424.635  11
  -2   4  -1 6116.15 400.251  12
   2   4   1 6304.64 400.118  17
   2   4   1 5955.06 366.442   8
  -2   4  -1 6283.12 406.625  13
   2   4   1 6285.13 371.661  13
  -2   4  -1 5248.44 347.598 110
   2   4   1 6981.54 405.136 103
   2   4   1 6820.08 411.434 104
   2   4   1 5605.90 387.368 110
  -2   4  -1 6014.71 369.531 112
   2   4   1 6646.04 644.766  96
  -2  -4  -1 6732.17 699.025  92
  -2  -4  -1 5948.78 686.627  31
  -2  -4  -1 6649.61 729.262  33
  -2  -4  -1 6627.92 750.686  30
   2  -4   1 5939.51 625.465  35
   2  -4   1 6235.90 662.073  87
  -2  -4  -1 6476.65 600.427  87
  -2   4  -1 6377.29 386.092  52
  -2   4  -1 6173.57 377.628  51
  -2   4  -1 6447.63 402.923  54
   2  -4   1 5423.20 678.705  43
  -2  -4  -1 5777.15 592.662  41
  -2  -4  -1 7902.61 833.789  39
  -2   4  -1 7150.07 753.565  45
  -2   4  -2 12784.7 594.683  26
  -2   4  -2 12662.9 1020.26  18
   2   4   2 12280.7 599.280  20
  -2   4  -2 12693.0 598.230  20
  -2   4  -2 11751.0 579.918  17
   2   4   2 12640.8 1024.32  18
   2   4   2 12911.6 613.369 104
  -2   4  -2 11891.8 546.542 110
   2   4   2 13725.9 615.107 103
  -2   4  -2 13340.8 574.695 112
   2   4   2 12563.3 538.402  97
  -2  -4  -2 12247.2 919.271  92
   2  -4   2 12635.5 1010.41  89
   2   4   2 13123.0 601.824   8
  -2   4  -2 13180.1 608.037  12
   2   4   2 12076.6 909.276   1
  -2   4  -2 13303.6 623.107  11
   2   4   2 12459.1 623.578   4
   2   4   2 13926.7 635.751  17
   2   4   2 13311.4 610.995  12
  -2   4  -2 13706.6 627.616  13
  -2  -4  -2 13239.2 1049.40  31
  -2  -4  -2 13006.7 1069.91  33
  -2  -4  -2 14145.0 1123.39  35
   2   4   2 13224.5 628.162  50
  -2   4  -2 13033.3 598.629  51
  -2   4  -2 12421.9 593.776  54
  -2   4  -2 13584.2 608.247  52
   2  -4   2 14468.5 1114.17  43
  -2  -4  -2 12324.1 946.742  41
  -2  -4  -2 13678.4 1119.84  39
   2   4   3 17862.6 747.734  20
  -2   4  -3 18483.0 744.906  17
  -2   4  -3 18008.6 1220.70  18
  -2   4  -3 18245.2 748.912  20
   2   4   3 18243.0 1227.19  18
  -2   4  -3 18915.2 773.398  26
  -2   4  -3 17709.3 744.867  12
   2   4   3 17566.1 743.709  12
  -2   4  -3 18880.0 784.824  11
   2   4   3 19594.4 817.764   4
   2   4   3 19000.0 1159.09   1
   2   4   3 19639.9 790.476   8
  -2   4  -3 19271.7 780.578  13
   2   4   3 19192.1 784.571 103
   2   4   3 18669.7 727.756  97
   2  -4   3 19254.1 1310.43  89
  -2  -4  -3 18111.0 1296.49  31
  -2  -4  -3 19906.6 1375.87  33
   2  -4   3 17114.2 1286.39  37
  -2   4  -3 19943.4 795.599  51
  -2   4  -3 18968.9 760.893  54
  -2  -4  -3 19473.2 1382.74  39
  -2  -4  -3 17598.9 1210.39  41
   2   4   3 19386.6 812.604  50
   2  -4   3 19418.5 1357.80  43
  -2   4  -4 76155.7 2203.22  12
   2   4   4 80372.0 2219.28  12
   2   4   4 82829.9 2305.54   8
  -2   4  -4 82359.3 2289.27  11
   2   4   4 78361.5 2303.87   4
   2   4   4 83508.7 2313.15  17
  -2   4  -4 77782.1 2239.45  13
   2   4   4 78217.8 2848.10   1
   2   4   4 82646.3 2328.71  50
   2   4   4 79595.4 2190.97  48
  -2  -4  -4 77494.0 3085.16  41
   2   4   4 78493.0 2225.29  97
  -2   4  -4 78701.6 2281.09 100
   2  -4   4 80342.1 3166.63  89
  -2  -4  -4 81545.2 3223.54  31
  -2  -4  -4 86915.9 3352.15  33
   2  -4   4 77820.3 3233.19  37
   2  -4   4 83345.3 3176.47  87
  -2   4  -4 79886.3 2282.84  52
  -2   4  -4 83467.4 2311.24  51
  -2   4  -4 75990.3 2200.27  54
   2   4   4 79279.9 2218.37  20
  -2   4  -4 78073.5 2949.94  18
   2   4   4 78951.8 2961.48  18
  -2   4  -4 81882.6 2294.24  26
  -2   4  -4 76248.4 2201.46  20
  -2   4  -5 956.760 174.493  13
   2   4   5 1225.78 175.981  12
   2   4   5 1107.88 203.498  17
  -2   4  -5 933.916 182.817  11
   2   4   5 998.885 207.215   4
   2   4   5 1326.33 220.255   8
  -2  -4  -5 1370.03 433.587  41
  -2  -4  -5 1665.07 453.652  39
   2   4   5 1325.65 189.186  48
   2  -4   5 994.536 375.706  38
   2   4   5 1028.99 206.896  50
   2   4   5 1445.44 207.329  97
  -2   4  -5 1446.83 223.810 100
  -2   4  -5 1171.22 207.465 101
  -2  -4  -5 1313.77 376.908  31
  -2  -4  -5 709.444 314.536  33
   2  -4   5 1115.00 387.421  37
   2  -4   5 1450.24 416.122  87
   2  -4   5 1432.17 410.959  89
   2  -4   5 1171.56 188.619  58
  -2   4  -5 1058.65 181.975  53
   2  -4   5 1286.69 209.330  56
   2   4   5 991.236 279.477  18
   2   4   5 1204.26 176.410  20
  -2   4  -5 976.707 200.243  26
   2  -4   6 73125.6 3174.63  38
   2   4   6 74950.8 2232.99  49
  -2  -4  -6 78074.0 3164.84  41
   2   4   6 79381.3 2176.27  48
  -2  -4  -6 79480.5 3222.00  39
   2   4   6 77739.1 2204.81  97
  -2   4  -6 77266.9 2241.50 100
  -2   4  -6 77118.0 2211.49 101
   2  -4   6 76331.4 3124.24  89
  -2  -4  -6 75794.2 3155.77  31
  -2  -4  -6 74942.6 3199.45  33
   2  -4   6 75284.0 3245.41  37
   2  -4   6 69822.7 3054.92  87
   2  -4   6 75497.8 2192.85  56
   2  -4   6 73479.7 2108.23  60
  -2   4  -6 69844.4 2073.04  53
  -2   4  -6 74416.2 2219.23  51
   2  -4   6 79715.4 2172.90  58
  -2  -4  -6 76007.7 2235.50  69
  -2   4  -6 74225.8 2150.69  11
  -2   4  -6 73518.5 2097.85  13
   2   4   6 74569.7 2181.38  17
   2   4   6 75545.3 2232.59   8
   2   4   6 75978.9 2219.33   4
  -2   4  -7 2214.62 270.513 101
   2   4   7 1972.92 212.378  98
   2   4   7 2076.11 249.557  17
   2   4   7 2364.79 279.177   8
  -2   4  -7 2099.07 232.976  11
   2   4   7 1802.58 244.645   4
   2  -4   7 2204.16 261.549  56
   2  -4   7 1853.42 212.434  60
  -2   4  -7 2440.04 286.397  51
  -2  -4  -7 2102.64 265.709  69
   2  -4   7 2439.90 253.992  58
  -2  -4  -7 2577.91 543.569  39
   2   4   7 2011.81 259.167  49
   2   4   7 2374.71 257.511  48
  -2  -4  -7 2391.31 505.420  41
  -2  -4  -8 7436.92 853.088  41
   2   4   8 8283.43 486.324  49
   2   4   8 8521.44 470.093  48
   2  -4   8 8318.86 875.648  89
  -2   4  -8 7884.09 477.980 101
   2   4   8 7993.94 421.829  98
  -2   4  -8 7908.25 405.215  11
   2   4   8 7742.34 455.758   4
  -2  -4  -8 8754.51 482.392  75
  -2  -4  -8 7505.54 812.960  86
   2  -4   8 8056.42 452.329  58
   2  -4   8 7317.66 407.796  60
  -2   4  -8 8433.11 494.058  51
   2  -4   8 7929.82 469.649  56
   2  -4   8 8411.09 464.996  66
  -2  -4  -8 8402.51 480.669  69
   2   4   8 7731.39 420.058  17
  -2   4  -8 8896.76 497.729  26
   2   4   9 2281.69 234.129  49
   2   4   9 2306.22 231.258  48
   2  -4   9 2363.46 241.155  99
   2   4   9 1902.22 194.455  98
  -2   4  -9 1965.41 227.636 101
  -2   4  -9 1733.99 228.747 100
   2   4   9 2001.82 209.290   4
  -2  -4  -9 2344.27 238.186  74
  -2  -4  -9 1639.57 372.539  86
  -2  -4  -9 2113.44 229.868  78
  -2  -4  -9 2097.64 212.653  75
   2  -4   9 2329.21 235.971  59
  -2   4  -9 2094.30 229.687  51
   2  -4   9 2577.92 237.509  66
  -2   4  -9 2176.49 231.908  26
   2   4  10 83872.0 2198.62  48
   2  -4  10 82911.5 2201.55  99
   2   4  10 87994.9 2229.35   8
   2   4  10 77330.5 2097.50   4
  -2  -4 -10 83553.4 2211.53  74
  -2  -4 -10 83065.0 2177.77  78
  -2  -4 -10 81416.5 2139.40  75
  -2  -4 -10 83802.5 2208.22  81
   2  -4  10 84602.7 2189.58  66
  -2  -4 -10 82701.4 2199.81  70
   2  -4  10 82423.3 2184.00  59
  -2   4 -10 81473.0 2194.50  51
  -2   4 -10 87363.9 2213.93  26
   2   4  11 15390.4 524.348  48
   2  -4  11 16908.8 540.639  99
  -2  -4 -11 15812.9 524.481  81
   2  -4  11 16631.3 536.379  64
   2  -4  11 14661.0 484.863  67
  -2   4 -11 14877.8 500.182  51
  -2   4 -11 16527.5 525.979  26
   2   4  11 16045.3 527.883   8
   2   5 -10 2653.64 168.407 110
  -2  -5  10 3178.44 193.163  67
   2   5 -10 2955.23 166.851  26
   2   5  -9 11211.5 470.100 110
  -2  -5   9 12490.6 491.321  67
   2   5  -9 11950.6 451.363  26
  -2   5   9 10399.0 437.886   8
   2   5  -9 11297.9 434.486  11
   2   5  -9 11264.4 444.771  13
   2   5  -8 8741.36 453.170 110
  -2   5   8 9724.00 471.548   4
   2   5  -8 8904.28 435.483  13
  -2   5   8 8137.55 428.152   8
   2  -5  -8 8114.07 408.851  70
  -2  -5   8 8653.32 435.924  67
   2   5  -8 9020.65 416.521  26
   2   5  -7 4981.91 360.845 110
  -2  -5   7 4271.65 587.783  92
  -2   5   7 4614.19 349.964   4
  -2   5   7 4219.43 332.085   8
   2   5  -7 5152.29 351.012  13
   2  -5  -7 4992.78 603.464  86
  -2  -5   7 4610.45 296.175  64
  -2  -5   7 4809.57 335.800  67
  -2   5   7 4538.69 312.484  17
   2   5  -7 4794.80 311.098  26
   2   5  -6 13863.6 655.634 110
   2   5  -6 11449.8 521.233 102
  -2  -5   6 12838.4 1088.89  92
  -2  -5   6 11000.6 1007.66  28
   2   5  -6 12935.5 554.066  26
  -2   5   6 12836.5 606.826  17
  -2  -5   6 12681.2 537.520  64
  -2  -5   6 13614.3 606.218  59
  -2  -5   6 12724.5 592.892  67
   2   5  -6 13569.0 640.824  13
  -2   5   6 14239.0 650.148   4
  -2   5   6 11786.1 612.557   8
  -2  -5   5 3475.90 592.345  28
   2   5  -5 3666.71 289.911  20
  -2   5   5 4378.41 355.616  17
   2   5  -5 4334.76 294.731  26
   2   5  -5 4379.97 365.333  13
   2   5  -5 3550.16 287.668  12
  -2   5   5 4527.72 360.070   4
  -2   5   5 3808.84 306.201  12
  -2   5   5 3909.32 321.625  10
  -2   5   5 4261.09 355.136   3
   2   5  -5 3913.26 301.869 102
  -2  -5   5 3669.65 534.978  89
  -2  -5   5 4061.76 317.685  59
  -2  -5   5 4451.46 328.403  67
   2  -5  -5 3682.74 572.435  41
  -2   5   4 772.655 176.739  20
   2   5  -4 702.705 161.898  20
  -2  -5   4 1240.89 387.347  28
  -2   5   4 741.731 177.468   3
  -2   5   4 972.802 184.643  12
  -2   5   4 819.857 192.570  17
   2   5  -4 967.120 173.599  12
  -2   5   4 720.312 179.840   4
  -2   5   4 996.526 198.958  10
   2   5  -4 759.112 161.445 102
  -2  -5   4 490.974 331.938  92
  -2  -5   4 1057.87 382.162  35
  -2   5   4 942.701 181.169  53
  -2  -5   4 588.035 134.536  59
  -2  -5   4 626.170 136.925  67
   2  -5  -4 590.639 279.007  39
  -2   5   4 672.787 163.812  50
  -2   5   3 235.937 241.040  18
   2   5  -3 481.037 150.354  20
   2   5  -3 512.583 268.700  18
  -2   5   3 359.221 145.657  20
  -2  -5   3 828.937 344.547  28
  -2   5   3 374.042 145.076   3
   2   5  -3 415.143 154.263  13
  -2   5   3 514.961 166.448  12
   2   5  -3 495.907 161.418  12
  -2   5   3 589.793 185.536  10
  -2   5   3 378.592 122.181  11
  -2   5   3 449.727 158.995   8
  -2   5   3 411.691 146.361   4
   2   5  -3 577.578 150.948 102
  -2  -5   3 367.018 249.956  92
   2  -5  -3 336.944 219.759  35
  -2  -5   3 401.999 262.103  35
  -2  -5   3 494.950 251.245  87
  -2   5   3 446.970 155.206  53
  -2   5   3 527.895 158.079  54
   2  -5  -3 333.285 227.023  39
  -2  -5   3 1034.61 358.614  43
  -2   5   3 396.655 153.411  50
  -2   5   2 19384.0 1411.48  18
  -2  -5   2 22447.7 1556.95  28
  -2   5   2 21162.4 880.194  20
  -2   5   2 21087.8 891.422  17
   2   5  -2 20780.5 800.834  17
   2   5  -2 19961.7 1414.98  18
   2   5  -2 22518.5 892.139  20
  -2   5   2 20749.7 872.177  12
   2   5  -2 23018.0 893.684  12
  -2   5   2 22379.4 836.981  11
  -2   5   2 21292.1 888.710  10
  -2   5   2 21171.2 890.493   8
  -2   5   2 20038.6 826.870   3
  -2   5   2 20987.6 815.202   4
   2   5  -2 20306.5 857.428  13
   2   5  -2 21515.2 897.200 110
  -2   5   2 21050.5 831.488 112
   2   5  -2 20005.7 761.809 104
   2   5  -2 20815.6 856.897 102
  -2  -5   2 19989.5 1415.21  92
  -2  -5   2 20430.6 1325.14  30
  -2  -5   2 20939.4 1534.16  35
   2  -5  -2 18922.2 1330.96  35
  -2  -5   2 18337.4 1283.50  87
  -2   5   2 21521.5 872.280  54
  -2   5   2 22145.5 894.385  53
  -2  -5   2 18621.1 1368.31  43
  -2   5   2 21035.4 853.686  50
  -2  -5   2 17420.6 1284.72  39
   2   5  -1 132377. 3440.68  17
   2   5  -1 136158. 4592.56  18
  -2   5   1 132304. 3528.78  17
  -2  -5   1 135286. 4686.97  28
   2   5  -1 133523. 3513.36  20
   2   5  -1 133343. 3500.00 102
   2   5  -1 129844. 3517.21 110
  -2   5   1 126658. 3401.32 112
   2   5  -1 127162. 3385.15 104
  -2  -5   1 132101. 4490.64  92
   2   5  -1 133603. 3476.16  13
   2   5  -1 137828. 3526.07  12
  -2   5   1 128880. 3450.46  11
  -2   5   1 123977. 3349.04   4
  -2   5   1 127919. 3392.44   3
  -2   5   1 131670. 3369.01   9
  -2  -5   1 133813. 4406.93  30
  -2  -5   1 131147. 4670.34  35
  -2   5   1 131450. 3462.93  50
  -2  -5   1 121439. 4385.41  43
   2  -5  -1 121533. 4423.86  43
  -2  -5   1 135976. 4527.50  39
  -2   5   0-61.9241 193.345  18
  -2   5   0 566.129 175.378  20
  -2  -5   0 198.768 270.686  28
   2   5   0 352.825 131.179 104
   2   5   0 251.077 162.652 110
  -2   5   0 471.313 137.796 112
  -2  -5   0 600.837 308.896  92
  -2  -5   0 373.243 243.363  39
   2  -5   0 429.758 307.149  43
   2   5   0 586.566 187.632  50
  -2  -5   0 404.164 286.417  35
  -2  -5   0 174.376 205.753  30
  -2   5   0 369.976 175.238  53
  -2   5   0 480.366 165.797  54
  -2   5   0 476.428 165.361  13
  -2   5   0 627.756 179.436  12
   2   5   0 615.140 164.278  13
   2   5   0 549.698 166.407  17
  -2   5   0 413.627 153.855  11
  -2   5   0 643.102 176.494  17
  -2   5  -1 27362.9 1031.98  12
   2   5   1 28040.1 1040.00  12
  -2   5  -1 27530.5 1030.46  11
   2   5   1 24852.9 938.106   8
  -2   5  -1 26408.0 1028.33  13
   2   5   1 26617.4 949.364  13
   2  -5   1 22970.9 1604.95  43
  -2  -5  -1 25856.8 1677.39  39
   2  -5   1 24605.0 1467.62  89
  -2  -5  -1 24955.3 1492.96  92
  -2   5  -1 26370.9 1012.33  17
   2   5   1 27641.2 1028.51  17
   2   5   1 26218.6 1667.22  18
  -2   5  -1 26448.8 1018.80  20
  -2   5  -1 26158.2 1661.31  18
   2   5   1 27601.8 1032.35  20
  -2   5  -1 25761.9 1007.74  54
   2   5   1 27914.3 1053.39  50
  -2   5  -1 27169.7 1031.23  53
  -2   5  -1 24992.8 952.529  51
  -2  -5  -1 22475.9 1494.22  33
  -2  -5  -1 29038.9 1728.00  30
  -2   5  -2 2979.22 304.321  12
   2   5   2 3187.51 305.731  12
  -2   5  -2 3006.41 308.004  13
   2   5   2 2811.54 279.358   8
   2   5   2 2816.37 253.246  13
  -2  -5  -2 3000.61 537.198  33
   2  -5   2 2089.89 454.067  37
  -2  -5  -2 2785.74 557.785  30
   2  -5   2 3416.68 600.652  43
  -2  -5  -2 2806.17 582.866  39
   2  -5   2 2662.95 493.428  89
  -2   5  -2 3063.89 310.561  53
  -2   5  -2 3623.39 314.086  51
  -2   5  -2 3283.53 310.744  54
   2   5   2 3758.49 346.237  50
  -2   5  -2 3142.54 311.364  20
   2   5   2 3166.87 315.394  17
   2   5   2 2793.48 298.047  20
  -2   5  -2 2832.46 543.231  18
   2   5   2 2963.11 558.770  18
  -2   5  -2 3001.73 297.323  17
  -2   5  -3 2906.64 292.160  12
   2   5   3 3873.40 352.903   4
   2   5   3 3255.05 303.074  12
  -2   5  -3 4069.21 347.651  11
   2   5   3 3433.79 310.179   8
  -2   5  -3 3136.30 310.625  13
  -2  -5  -3 3157.39 617.880  39
   2  -5   3 2489.42 521.200  43
   2  -5   3 2854.57 587.986  38
   2   5   3 3385.12 329.807  50
  -2  -5  -3 4130.70 670.510  35
  -2  -5  -3 2634.37 531.006  33
   2  -5   3 2573.08 531.002  37
  -2  -5  -3 3712.79 635.682  30
   2  -5   3 3601.99 585.346  89
   2  -5   3 2488.36 478.755  87
  -2   5  -3 3284.36 310.313  51
  -2   5  -3 3299.68 310.818  53
  -2   5  -3 2448.19 483.286  18
   2   5   3 3076.13 536.733  18
  -2   5  -3 3302.17 291.603  17
   2   5   3 3195.05 304.465  20
  -2   5  -3 3776.57 310.034  26
  -2   5  -3 2993.03 296.506  20
   2   5   3 3511.94 335.069  17
  -2   5  -4 17961.2 750.662  12
  -2   5  -4 19881.8 824.957  11
   2   5   4 19460.6 843.021   4
   2   5   4 19402.6 771.003  12
   2   5   4 19853.2 820.965   8
  -2   5  -4 19648.9 804.303  13
   2  -5   4 16953.5 1280.78  89
   2   5   4 19638.4 841.144  50
   2   5   4 19139.4 817.856  49
  -2  -5  -4 17329.8 1419.58  39
  -2  -5  -4 19187.9 1422.58  30
  -2   5  -4 20364.3 831.193  51
   2  -5   4 18137.2 728.036  56
  -2   5  -4 18132.5 775.330  53
  -2   5  -4 18773.8 785.384  26
   2   5   4 19582.9 774.710  20
  -2   5  -5 6879.93 385.890  12
   2   5   5 6576.65 377.238  12
  -2   5  -5 7392.61 449.577  11
   2   5   5 7756.24 486.309   4
   2   5   5 7494.10 459.687   8
  -2   5  -5 7709.58 395.215  15
  -2   5  -5 6597.82 413.138  13
   2  -5   5 6117.34 760.773  89
  -2  -5  -5 7847.55 894.775  30
  -2   5  -5 6391.75 397.719  53
   2  -5   5 6735.47 403.966  56
  -2   5  -5 7402.16 462.190  51
   2   5   5 6585.52 382.891  20
  -2   5  -5 7403.55 445.658  26
   2   5   5 7862.94 472.810  17
   2   5   5 7439.91 459.628  49
  -2  -5  -5 5518.35 697.662  41
  -2   5  -6 2924.18 274.430  11
   2   5   6 2914.10 293.347   4
   2   5   6 3095.74 292.314   8
  -2   5  -6 2993.93 249.472  13
   2   5   6 2596.06 221.428  48
   2   5   6 3262.84 297.493  49
  -2  -5  -6 2703.56 274.777  69
   2  -5   6 2331.96 239.717  56
   2   5   6 2839.69 275.846  17
  -2   5  -6 3665.94 300.590  26
  -2   5  -7 2941.95 248.645  11
   2   5   7 3351.56 284.474   4
   2   5   7 3278.14 280.600   8
   2   5   7 2611.09 214.107  48
   2  -5   7 3134.60 253.118  99
  -2  -5  -7 3175.66 509.304  30
  -2  -5  -7 2846.62 477.413  86
  -2  -5  -7 3558.17 277.026  75
  -2  -5  -7 3016.86 266.457  69
   2  -5   7 3546.21 292.821  59
  -2   5  -7 3117.70 283.075  51
  -2   5  -7 3695.67 285.993  26
   2   5   7 3405.30 267.084  17
   2   5   8 109.526 97.4656  49
   2  -5   8 68.8017 79.8208  99
  -2   5  -8 72.3972 68.8026  11
   2   5   8-11.1452 95.6368   8
  -2  -5  -8 45.1013 68.9081  75
  -2   5  -8 11.1324 84.0206  51
  -2  -5  -8 70.3086 68.0135  69
   2  -5   8 76.9363 80.9050  59
  -2   5  -8-10.3726 82.9230  26
  -2  -5  -9 750.854 105.977  78
   2   5   9 888.677 126.261   8
  -2   5  -9 786.546 113.033   9
  -2   5  -9 710.769 114.760  51
   2  -5   9 1023.09 129.559  64
   2  -5   9 788.767 101.049  99
  -2  -6   7 1709.87 145.715  90
   2   6  -7 1646.47 153.743 110
  -2   6   7 1822.93 145.478 112
   2   6  -7 2088.25 167.159  11
  -2   6   7 2071.14 158.055   4
   2   6  -7 2048.15 167.001  13
   2   6  -6 11324.6 473.181  11
  -2   6   6 10774.3 439.593   4
   2   6  -6 11684.8 475.284  13
  -2   6   6 11268.2 438.891 112
   2   6  -6 10758.2 462.737 110
  -2  -6   6 10507.0 427.989  90
  -2   6   6 10545.6 443.440  17
   2   6  -5 1753.05 156.539  12
  -2   6   5 2137.28 192.542   4
  -2   6   5 2035.10 188.484 112
   2   6  -5 1915.43 206.055 110
  -2  -6   5 1614.76 163.495  90
  -2   6   5 1695.68 192.283  17
   2   6  -5 1824.94 157.598  20
   2   6  -4 10442.7 458.159  12
   2   6  -4 11624.3 512.463  11
  -2   6   4 10250.9 464.797  10
  -2   6   4 10132.9 464.498  12
   2   6  -4 10223.0 495.320  13
  -2   6   4 9652.82 443.290 112
   2   6  -4 9827.13 494.890 110
  -2  -6   4 8619.12 402.473  90
   2   6  -4 9941.48 451.204  20
  -2   6   4 9752.13 494.654  17
  -2   6   3 34165.5 1132.92  12
   2   6  -3 37336.8 1143.95  12
   2   6  -3 36519.5 1144.28  11
  -2   6   3 33665.5 1121.22  10
   2   6  -3 35662.9 1150.70  13
  -2   6   3 32175.7 1053.63 112
   2   6  -3 36467.7 1137.52  20
  -2  -6   3 31871.1 1703.85  92
  -2  -6   2 20485.6 1381.10  28
   2   6  -2 24344.4 881.761  20
  -2   6   2 23409.3 896.659  17
  -2  -6   2 20357.2 1325.76  92
  -2   6   2 22341.1 782.723 112
  -2   6   2 22157.8 825.204  50
   2   6  -2 23631.2 891.448  50
  -2   6   2 23315.3 879.402  12
   2   6  -2 24704.2 885.550  12
   2   6  -2 24553.3 857.824  11
  -2   6   2 24985.3 893.094  10
   2   6  -2 23816.0 864.454  13
   2   6  -1 3794.04 313.296  12
  -2   6   1 2867.76 249.930  11
   2   6  -1 3451.47 269.954  11
   2   6  -1 2903.69 263.421  13
  -2   6   1 3340.18 299.534  10
  -2   6   1 2796.61 255.922  50
   2   6  -1 3492.82 299.485  50
   2   6  -1 3025.88 252.851  17
  -2  -6   1 2584.77 490.378  28
  -2   6   1 3007.93 283.544  17
   2   6  -1 3419.63 299.432  20
  -2  -6   1 2851.16 474.889  92
   2   6   0 13320.5 627.270  12
  -2   6   0 14207.9 614.345  11
  -2   6   0 14244.8 648.157  12
   2   6   0 14236.8 588.039  13
  -2  -6   0 13428.8 997.236  92
  -2   6   0 13037.2 589.092  50
   2   6   0 14209.3 651.141  50
  -2   6   0 14436.2 650.398  53
  -2  -6   0 12352.6 1088.29  28
  -2   6   0 13789.5 629.334  17
   2   6   0 14689.0 648.824  20
   2   6   0 14164.6 611.426  17
   2   6   1 15846.2 680.791  12
  -2   6  -1 15748.7 609.128   9
  -2   6  -1 15737.4 668.764  11
  -2   6  -1 16275.7 709.823  10
  -2   6  -1 15474.5 679.030  12
   2  -6   1 12464.2 982.140  92
   2   6   1 15663.6 598.312  49
   2   6   1 16565.8 701.530  50
  -2  -6  -1 15058.7 1094.88  30
  -2   6  -1 15016.4 671.805  53
  -2   6  -1 15212.8 639.916  50
  -2  -6  -1 15538.8 1203.64  28
  -2   6  -1 15309.3 654.392  17
   2   6   1 16479.5 679.891  17
   2   6   1 16372.3 687.273  20
   2   6   2 18024.8 673.592  49
   2   6   2 18544.0 754.537  50
  -2   6  -2 18560.9 732.733  12
   2   6   2 17941.7 728.070  12
  -2   6  -2 18738.3 742.088  11
  -2   6  -2 19152.6 709.601   9
   2   6   2 17052.8 655.673   8
  -2  -6  -2 17489.8 1203.18  30
  -2   6  -2 19497.8 751.478  53
  -2   6  -2 16645.9 683.774  50
   2   6   2 18925.0 750.189  17
   2   6   2 18857.1 734.837  20
  -2  -6  -2 18527.8 1299.06  28
   2   6   3 4365.83 324.215  50
   2   6   3 4466.38 289.267  49
  -2   6  -3 4320.34 297.600  12
   2   6   3 3816.77 284.369  12
  -2   6  -3 4413.17 308.098   9
   2   6   3 4064.56 279.284   8
  -2  -6  -3 3134.06 512.701  30
   2  -6   3 4035.84 269.103  59
  -2   6  -3 3782.26 280.570  50
  -2   6  -3 4071.69 300.765  53
   2   6   3 4321.29 295.581  20
   2   6   3 4594.84 328.864  17
   2   6   4 35827.5 1091.52  49
  -2   6  -4 34397.4 1054.29  12
   2   6   4 34145.4 1049.83  12
  -2   6  -4 39265.0 1162.20  11
   2   6   4 34121.0 1078.59   8
  -2  -6  -4 34705.8 1693.36  30
  -2   6  -4 34515.9 1073.48  53
   2  -6   4 35633.5 1077.39  59
   2   6   4 37929.6 1155.79  17
   2   6   4 34836.0 1053.17  20
   2   6   5 91.2249 84.6735  49
   2  -6   5 67.3577 66.4385  64
  -2  -6  -5 104.785 79.0936  69
   2  -6   5 62.5330 69.8570  59
  -2   6  -5 40.2326 93.3555  11
  -2   6  -5 8.73811 83.6816  10
   2   6   5 104.296 88.6550  17
   2   6   5 55.2069 75.1486   8
  -2   6  -6 5938.16 296.683  11
  -2   6  -6 5523.73 255.464  10
  -2   6  -6 6417.61 318.096   9
   2   6   6 5869.61 296.396   8
   2   6   6 6050.11 295.670  49
  -2  -6  -6 5324.65 278.775  75
   2  -6   6 5386.77 257.138  64
   2   6   6 6094.17 304.861  17
  -2  -6  -7 1097.98 104.897  78
   2  -6   7 979.718 105.449  67
  -2   6  -7 906.570 90.9405  11
   2   6   7 1066.82 109.192   8
   2   6   7 873.093 89.2581  17
  -2   7   2-20.6369 49.0409  12
   2   7  -2 80.6793 52.1659  12
   2   7  -2 56.6439 59.3521  50
   2   7  -2 118.089 51.2331  20
   2   7  -1 4808.25 241.124  12
  -2   7   1 4994.70 236.278  10
   2   7  -1 4803.31 243.576  50
  -2  -7   1 4341.02 216.754  68
   2   7  -1 5404.59 248.053  20
   2   7   0 2179.21 163.984  50
  -2   7   0 2236.80 166.456  12
  -2   7   0 2261.24 164.129  10
   2   7   1 1351.77 121.813  20
   2   7   1 1458.26 128.180  12
  -2   7  -1 1583.80 131.415  12
   2   7   2 5969.80 235.580  20
   2   7   2 5430.60 233.800  17
   3   0 -14 5347.78 248.918 110
  -3   0  14 4592.62 218.532   7
   3   0 -13 2354.48 210.373 110
   3   0 -13 2023.44 178.707  85
   3   0 -13 2054.55 201.026  84
  -3   0  13 2054.84 197.179  99
   3   0 -13 2127.88 196.267  72
  -3   0  13 1689.51 153.932   6
  -3   0  12 10698.2 528.241  99
   3   0 -12 9484.44 852.596  86
   3   0 -12 10907.2 535.990  76
   3   0 -12 10234.3 497.879  73
   3   0 -12 10750.5 529.814  84
   3   0 -12 10163.9 478.965  82
   3   0 -12 8685.55 802.301  71
   3   0 -12 11050.6 530.728  72
   3   0 -12 10857.3 535.814 110
  -3   0  12 9707.09 469.567 108
  -3   0  11 23681.9 898.741 108
  -3   0  11 23838.3 935.889 106
  -3   0  11 22820.5 928.705  99
   3   0 -11 22899.4 1517.52  32
   3   0 -11 24598.2 931.430  73
   3   0 -11 24918.2 953.332  76
   3   0 -11 25449.2 959.973  84
   3   0 -11 24042.0 1479.67  86
   3   0 -11 24259.9 1499.38  71
   3   0 -11 24465.1 949.256  72
   3   0 -11 23752.3 1473.62  40
  -3   0  10 919.209 371.356  28
  -3   0  10 338.969 249.486   2
  -3   0  10 518.466 149.871 108
  -3   0  10 561.461 167.945 106
  -3   0  10 714.276 168.044  98
  -3   0  10 499.258 163.461  93
  -3   0  10 934.545 196.661  99
   3   0 -10 369.653 233.250  34
   3   0 -10 727.418 319.782  32
   3   0 -10 690.708 172.457  84
  -3   0  10 599.158 249.278  89
   3   0 -10 819.472 322.214  86
   3   0 -10 371.209 145.377  76
   3   0 -10 549.083 163.431  73
   3   0 -10 563.806 274.299  71
   3   0 -10 504.488 272.715  40
  -3   0   9 5128.96 681.652   2
  -3   0   9 6838.06 431.581 108
  -3   0   9 6169.35 420.417 106
  -3   0   9 6680.45 431.311  93
  -3   0   9 6554.92 431.314  99
  -3   0   9 5579.77 381.873  98
   3   0  -9 6493.58 729.558  34
  -3   0   9 6627.81 834.422  28
   3   0  -9 5722.22 757.151  32
   3   0  -9 5759.53 708.691  86
   3   0  -9 6132.67 415.955  76
   3   0  -9 6951.03 438.971  84
   3   0  -9 6623.43 437.324  73
  -3   0   9 5575.47 676.975  89
   3   0  -9 6988.54 788.317  71
  -3   0   9 6163.98 388.701  67
   3   0  -9 7098.51 785.768  40
  -3   0   8 9721.59 904.872   2
  -3   0   8 10600.9 540.009 106
  -3   0   8 11034.6 545.210 108
  -3   0   8 10202.6 530.406  93
  -3   0   8 10106.0 516.892  98
   3   0  -8 10896.1 907.339  34
  -3   0   8 12337.9 1069.23  28
   3   0  -8 10995.3 967.162  32
   3   0  -8 11749.9 1013.71  29
   3   0  -8 11770.5 552.190  76
   3   0  -8 9736.58 846.326  86
   3   0  -8 11458.7 558.298  72
  -3   0   8 10638.7 876.587  89
  -3   0   8 10331.5 510.692  67
   3   0  -8 11463.7 958.700  71
   3   0  -8 10463.6 922.386  40
  -3   0   7 18163.0 1169.35   2
  -3   0   7 17454.3 694.794 106
  -3   0   7 17592.7 689.714  93
  -3   0   7 16707.7 669.702  98
   3   0  -7 17319.2 1153.41  29
   3   0  -7 17331.2 1082.01  34
   3   0  -7 16814.3 961.073  36
   3   0  -7 18627.3 1192.84  32
  -3   0   7 18294.2 1231.39  35
   3   0  -7 17605.6 689.003  76
   3   0  -7 16406.7 1036.36  86
   3   0  -7 17565.6 696.975  72
  -3   0   7 17609.3 1095.16  89
   3   0  -7 18316.6 681.152  70
  -3   0   7 15842.8 652.771  67
   3   0  -7 16295.9 1101.50  40
   3   0  -7 19388.4 1194.03  42
   3   0  -6 102527. 3378.12  40
   3   0  -6 104122. 3367.56  42
  -3   0   6 100979. 2843.30  45
  -3   0   6 102646. 2692.21  93
   3   0  -6 106552. 3302.25  34
   3   0  -6 106596. 3196.57  36
   3   0  -6 109177. 3458.67  29
  -3   0   6 110674. 3523.52  35
  -3   0   6 109317. 3369.43  89
   3   0  -6 103440. 3220.27  86
  -3   0   6 99650.5 2985.31  87
   3   0  -6 102597. 2682.08  76
   3   0  -6 103627. 2663.39  70
   3   0  -6 108354. 3381.17  71
  -3   0   6 110158. 3434.07   2
   3   0  -5 104430. 3144.25  40
   3   0  -5 100099. 3099.82  42
  -3   0   5 96187.8 2774.86  45
  -3   0   5 91652.4 2682.03  92
  -3   0   5 101347. 3169.27  28
   3   0  -5 98510.8 2969.37  36
  -3   0   5 103539. 3204.51  35
   3   0  -5 100840. 2931.08  86
  -3   0   5 101136. 3071.65  89
  -3   0   5 92395.4 2818.26  87
   3   0  -5 101780. 3101.74  71
   3   0  -5 96219.5 2457.45  70
  -3   0   5 99297.4 3102.12   2
   3   0  -4 31716.5 1328.33  40
  -3   0   4 31192.4 1352.42  39
   3   0  -4 31608.3 1298.11  42
  -3   0   4 31070.6 1190.14  45
  -3   0   4 28274.8 1107.90  92
  -3   0   4 29759.6 1276.20  31
  -3   0   4 35070.7 1387.03  35
   3   0  -4 31054.3 1272.84  36
  -3   0   4 32696.0 1351.74  28
   3   0  -4 29517.1 1142.27  86
   3   0  -4 30612.6 909.025  72
  -3   0   4 32329.5 1202.79  87
   3   0  -4 33757.0 1321.67  71
   3   0  -4 29905.0 863.540  70
   3   0  -4 33267.6 1239.61  19
  -3   0   3 90975.6 2634.61   2
   3   0  -3 93094.6 2615.52  42
  -3   0   3 79890.2 2461.55  92
  -3   0   3 91714.9 2614.62  31
   3   0  -3 92228.8 2657.50  36
  -3   0   3 88131.1 2592.65  35
  -3   0   3 84557.7 2581.54  28
   3   0  -3 80773.5 2346.58  86
  -3   0   3 87727.6 2533.52  87
   3   0  -3 91372.9 2606.45  71
   3   0  -3 84939.3 2331.21  23
   3   0  -3 87949.8 2546.86  19
   3   0  -2 3448.01 253.297  38
  -3   0   2 4249.96 382.051  41
  -3   0   2 3952.75 386.409  39
  -3   0   2 3965.49 360.430  92
  -3   0   2 3782.61 332.935  31
  -3   0   2 3653.89 355.693  33
   3   0  -2 4125.81 389.962  36
  -3   0   2 4268.68 339.584  35
  -3   0   2 4287.31 363.394  87
  -3   0   2 4456.12 386.939  89
   3   0  -2 3793.77 338.352  71
  -3   0   2 3881.42 343.416  28
   3   0  -2 3960.96 314.188  23
   3   0  -2 4422.19 367.125  19
   3   0  -1 14.9943 86.5939   1
  -3   0   1-18.6637 112.177  39
   3   0  -1 15.3192 93.8339  44
   3   0  -1-28.2661 88.1587  38
  -3   0   1 432.586 158.888  41
  -3   0   1-19.0781 121.100  92
  -3   0   1 588.977 136.658  31
  -3   0   1 53.5004 102.984  33
   3   0  -1 183.339 101.877  37
   3   0  -1 19.8116 121.342  36
  -3   0   1 93.9055 117.143  30
  -3   0   1-10.7728 70.7144  35
  -3   0   1 486.550 180.226  89
  -3   0   1-56.7309 126.090  87
   3   0  -1 149.009 102.419  71
   3   0  -1 55.0018 120.323  19
   3   0  -1 101.994 107.906  23
  -3   0   1 138.379 94.9528  28
   3   0   0 126.777 112.964  96
  -3   0   0 114.338 101.884  39
   3   0   0 103.350 98.6926  44
   3   0   0 140.993 111.874  38
  -3   0   0 60.3027 111.135  41
  -3   0   0 26.8963 79.2702  31
  -3   0   0 63.9367 103.201  33
   3   0   0 124.437 102.088  37
  -3   0   0 16.7109 98.4938  30
  -3   0   0 56.3033 52.7015  35
   3   0   0 115.796 109.102  23
   3   0   0 172.309 131.587  19
   3   0   0 64.0513 94.3807   1
  -3   0  -1 535.355 136.855  39
   3   0   1 466.792 110.368  44
   3   0   1 546.057 185.552  38
  -3   0  -1 466.975 131.769  31
  -3   0  -1 469.630 138.727  33
   3   0   1 754.564 195.132  37
   3   0   1 412.180 154.950  36
  -3   0  -1 125.207 145.907  92
   3   0   1 820.372 180.094  96
   3   0   1 507.119 90.4987  62
   3   0   1 368.103 171.538  23
   3   0   1 336.384 155.123  19
   3   0   2 67239.9 2055.60  96
  -3   0  -2 68864.2 2136.34  92
  -3   0  -2 67935.5 2145.55  34
  -3   0  -2 68051.9 1965.58  33
   3   0   2 65526.8 2034.25  36
  -3   0  -2 65968.8 2070.65  29
   3   0   2 64686.8 1708.58  62
  -3   0  -2 68286.6 2158.57  41
  -3   0  -2 64123.9 1889.24  39
   3   0   2 72194.5 2217.40  38
   3   0   2 67264.9 2164.17  37
   3   0   3 33071.9 1366.39  37
  -3   0  -3 31533.9 1200.69  45
  -3   0  -3 32882.9 1337.55  41
  -3   0  -3 31153.7 1035.38  39
   3   0   3 33358.9 1379.34  38
  -3   0  -3 32394.0 1279.43  92
   3   0   3 32679.9 1234.71  96
  -3   0  -3 32299.6 1348.63  34
  -3   0  -3 31860.6 1278.04  29
  -3   0  -3 32376.5 1150.41  33
   3   0   3 32540.5 1202.72  36
  -3   0  -3 29952.6 1035.10  86
   3   0   3 32048.9 916.574  62
  -3   0  -3 30229.9 919.262  69
   3   0   3 33696.6 1367.72  23
   3   0   4 439734. 10743.3  37
  -3   0  -4 425424. 10295.2  45
  -3   0  -4 416943. 10573.8  41
  -3   0  -4 401869. 10034.0  39
   3   0   4 424552. 10403.6  96
  -3   0  -4 420789. 10481.2  92
  -3   0  -4 427416. 10690.6  34
  -3   0  -4 424108. 10569.4  29
  -3   0  -4 418171. 10288.6  33
   3   0   4 438323. 10317.5  36
  -3   0  -4 420180. 10247.3  86
   3   0   4 431137. 9985.03  57
   3   0   4 411203. 9931.06  62
   3   0   4 426173. 10633.5  23
   3   0   4 473453. 10776.0  19
  -3   0  -5 40479.5 1672.45  41
   3   0   5 39794.8 1738.80  38
   3   0   5 38329.4 1501.89  96
   3   0   5 38727.6 1398.07  89
  -3   0  -5 39840.4 1745.11  34
  -3   0  -5 39320.9 1686.85  29
   3   0   5 39565.6 1389.68  36
  -3   0  -5 41358.4 1472.14  33
  -3   0  -5 36233.8 1564.61  32
  -3   0  -5 40102.4 1484.47  86
  -3   0  -5 40053.6 1170.07  74
  -3   0  -5 39953.6 1205.18  75
   3   0   5 40654.4 1208.67  57
  -3   0  -5 40362.0 1116.34  70
   3   0   5 40552.1 1200.26  61
   3   0   5 38126.6 1670.55  23
   3   0   5 42461.8 1744.66  19
   3   0   6 214.929 182.778  38
  -3   0  -6 367.490 203.251  41
   3   0   6 168.811 136.869  96
   3   0   6 364.716 115.940  98
  -3   0  -6 270.679 199.046  34
  -3   0  -6 364.292 202.498  29
  -3   0  -6 328.780 149.172  33
   3   0   6 136.545 178.029  37
  -3   0  -6 35.9002 140.475  32
  -3   0  -6 357.729 149.199  86
  -3   0  -6 242.475 99.1303  77
  -3   0  -6 279.340 110.362  74
  -3   0  -6 485.321 124.162  81
   3   0   6 376.954 110.841  58
   3   0   6 214.641 107.493  63
   3   0   6 281.173 105.348  55
   3   0   6 256.063 115.143  57
  -3   0  -6 260.911 84.1396  70
   3   0   6 263.205 98.9061  61
   3   0   6 533.866 246.879  19
   3   0   6 223.961 176.087  23
  -3   0  -6 195.075 113.954  27
   3   0   7 2455.23 432.446  19
  -3   0  -7 2679.42 275.991  27
   3   0   7 2276.36 391.157  23
  -3   0  -7 2348.51 228.379 109
   3   0   7 2432.01 255.655  98
   3   0   7 2078.02 201.613  95
  -3   0  -7 2719.25 496.322  34
  -3   0  -7 2497.22 447.874  29
  -3   0  -7 2858.51 448.441  32
   3   0   7 2533.23 471.458  37
  -3   0  -7 2835.85 250.830  74
  -3   0  -7 2438.46 382.263  86
  -3   0  -7 2139.95 224.027  77
   3   0   7 2621.15 226.943  88
  -3   0  -7 2522.87 257.189  75
  -3   0  -7 2242.52 242.601  81
   3   0   7 2619.32 252.132  60
   3   0   7 2728.42 269.377  63
   3   0   7 2498.26 207.832  56
   3   0   7 2598.19 240.314  58
   3   0   7 2493.31 242.018  55
  -3   0  -7 2465.01 210.350  70
   3   0   7 2785.39 465.670  38
  -3   0  -7 2411.83 405.992  41
   3   0   8 23629.7 1293.44  23
  -3   0  -8 25486.3 1007.81  27
   3   0   8 27290.9 1512.60  19
  -3   0  -8 25547.3 909.268 109
   3   0   8 26804.6 990.724  98
  -3   0  -8 24808.0 1506.94  29
  -3   0  -8 26401.7 1453.20  32
  -3   0  -8 26828.6 969.554  74
  -3   0  -8 26718.1 997.829  78
  -3   0  -8 24937.3 1360.89  86
  -3   0  -8 26177.2 956.622  77
  -3   0  -8 26454.6 981.899  81
   3   0   8 25501.0 982.352  63
   3   0   8 25320.1 867.061  56
   3   0   8 25613.9 965.294  60
   3   0   8 26890.5 991.854  65
  -3   0  -8 25454.0 890.048  70
   3   0   8 25316.5 954.374  55
   3   0   8 27077.3 947.745  58
   3   0   8 25055.3 1468.37  38
   3   0   8 26382.2 1589.68  37
  -3   0  -8 24572.4 1359.68  41
   3   0   9 9178.76 847.125  38
   3   0   9 9539.11 954.922  37
   3   0   9 8708.36 451.966  99
   3   0   9 9502.55 537.857  98
   3   0   9 8825.18 904.967  94
  -3   0  -9 10860.5 980.854  29
  -3   0  -9 9968.21 551.182  78
  -3   0  -9 8267.15 775.923  86
  -3   0  -9 9182.46 521.772  74
  -3   0  -9 9556.58 538.194  81
  -3   0  -9 10076.5 533.037  77
   3   0   9 10295.7 556.693  65
   3   0   9 8983.84 477.201  66
   3   0   9 9929.76 546.968  63
   3   0   9 9641.04 530.713  60
  -3   0  -9 10117.8 578.332  27
   3   0   9 7690.44 795.042  19
   3   0  10 106464. 2790.04  99
   3   0  10 111674. 2958.73  98
   3   0  10 110509. 3903.00  94
  -3   0 -10 110774. 3847.90  29
  -3   0 -10 109059. 2959.79  81
  -3   0 -10 105897. 3543.11  86
  -3   0 -10 107142. 2926.07  77
   3   0  10 103302. 2839.12  66
  -3   0 -10 112277. 3032.10  27
  -3   0 -11 5848.21 672.399  29
   3   0  11 5374.83 319.536  66
   3   0  11 5796.22 376.040  98
   3   0  11 6076.72 705.684  94
  -3   0 -11 6811.69 439.936  27
   3   0  12 1625.18 181.755  98
   3   0  12 1457.35 165.680  93
  -3   0 -12 1630.82 201.851  27
   3   0  12 1527.20 184.820 106
   3   0  13 1826.50 143.572  93
   3   0  13 1717.82 139.125  98
  -3   0 -13 1840.38 149.502 100
   3   0  13 2028.69 162.132 106
  -3   0 -13 2230.36 171.127  27
  -3  -1  14 5674.34 245.736  99
   3  -1 -14 5956.70 248.355  84
   3  -1 -14 6447.53 261.704 110
   3  -1 -14 5609.89 250.041  27
  -3   1  14 5744.78 243.480   7
   3   1 -13 1154.34 135.662  26
  -3   1  13 1165.66 153.409   7
  -3   1  13 1368.06 143.461   6
   3  -1 -13 1241.09 157.813 110
   3   1 -13 1239.74 159.704 110
  -3  -1  13 1237.84 145.695 108
   3  -1 -13 1258.35 156.908  76
   3  -1 -13 1125.17 137.947  73
   3  -1 -13 1402.02 164.450  84
   3   1 -13 1021.25 151.645  84
   3  -1 -13 1241.01 134.386  82
   3  -1 -13 994.641 144.356  72
  -3   1  13 1217.03 139.908  47
  -3  -1  12 5830.35 358.374 108
   3   1 -12 5577.01 366.540 110
  -3   1  12 5703.77 347.190  99
   3   1 -12 4903.20 606.499  29
   3  -1 -12 5305.20 651.617  29
   3  -1 -12 5660.27 637.551  86
   3   1 -12 5342.77 627.444  86
   3  -1 -12 5562.81 359.591  76
   3   1 -12 5303.55 325.640  85
   3  -1 -12 5398.34 354.240  84
   3   1 -12 5926.76 371.842  84
   3   1 -12 5211.29 303.009  82
   3  -1 -12 4841.02 336.952  73
   3  -1 -12 5037.42 612.666  71
  -3   1  12 5731.16 356.627   6
   3   1 -11 4823.73 321.506 101
  -3   1  11 4292.91 301.999 108
   3   1 -11 5131.00 380.046 110
  -3  -1  11 4633.53 341.824 106
  -3   1  11 4850.79 379.651 106
  -3  -1  11 4830.68 364.020 108
  -3  -1  11 4999.32 356.962  93
  -3  -1  11 4962.49 378.594  99
  -3   1  11 4312.46 341.850  99
  -3   1  11 3895.48 336.772  98
  -3  -1  11 4427.23 664.263  28
   3   1 -11 4316.38 619.763  29
   3  -1 -11 4425.70 626.446  32
   3  -1 -11 4723.19 678.805  29
  -3  -1  11 4177.53 572.106  89
   3  -1 -11 4849.17 634.787  86
   3  -1 -11 5032.77 369.150  76
   3   1 -11 6352.13 748.927  86
   3   1 -11 4598.26 337.272  85
   3  -1 -11 5715.92 391.062  73
   3  -1 -11 5501.28 380.541  84
   3   1 -11 4902.39 372.983  84
   3   1 -11 4977.77 340.586  82
   3   1 -11 4927.52 347.307  73
   3   1 -11 4837.23 361.913  72
  -3  -1  11 5002.89 339.695  67
   3  -1 -11 4314.16 636.883  71
   3   1 -11 4090.77 611.662  40
  -3   1  10 22549.2 1508.51   2
  -3  -1  10 19365.2 1367.18   2
  -3   1  10 22107.0 853.182 108
  -3   1  10 23058.5 946.629 106
  -3  -1  10 22496.3 884.554 106
   3   1 -10 24743.0 954.010 110
  -3  -1  10 22869.7 894.879  93
  -3  -1  10 23715.1 948.518  99
  -3   1  10 24531.5 937.543  99
  -3   1  10 23172.1 929.103  98
   3  -1 -10 23283.5 1554.03  34
   3  -1 -10 24176.0 1545.11  32
  -3  -1  10 23093.8 1576.34  28
   3   1 -10 23461.8 1519.76  29
   3  -1 -10 22199.7 1533.50  29
   3  -1 -10 24682.4 939.481  76
   3  -1 -10 24267.8 1498.53  86
   3   1 -10 22961.7 934.072  76
   3   1 -10 23677.3 899.600  82
   3  -1 -10 23433.8 945.706  72
   3   1 -10 23597.9 940.917  84
   3   1 -10 23294.9 914.235  73
  -3  -1  10 23771.5 1484.38  89
   3   1 -10 21423.2 1441.91  86
   3  -1 -10 23928.0 918.047  70
   3   1 -10 23404.7 926.918  72
  -3  -1  10 23295.6 895.905  67
   3  -1 -10 25893.9 1595.63  71
   3   1 -10 22491.5 1505.61  42
   3  -1 -10 21165.1 1498.03  42
   3   1 -10 22735.6 1519.90  40
   3  -1 -10 22971.0 1410.34  40
  -3   1   9 36759.3 1959.63   2
  -3  -1   9 37058.1 1906.28   2
   3   1  -9 39917.7 1302.90 110
  -3   1   9 37789.5 1230.45 108
  -3   1   9 38555.1 1307.00 106
  -3  -1   9 36798.0 1240.53 106
  -3  -1   9 37481.6 1283.06  99
  -3  -1   9 35032.1 1222.58  93
  -3   1   9 35981.9 1254.32  99
  -3  -1   9 33650.0 1154.42  90
  -3   1   9 36955.6 1280.60  98
   3  -1  -9 37766.4 1991.98  34
   3   1  -9 37018.1 1952.30  29
  -3  -1   9 35035.0 2028.85  35
  -3  -1   9 36632.3 2038.13  28
   3  -1  -9 38312.8 1978.88  32
   3  -1  -9 39772.6 2055.63  29
   3  -1  -9 39320.2 1919.23  86
   3   1  -9 38873.4 1934.78  86
   3   1  -9 40067.2 1308.06  76
   3   1  -9 38208.4 1272.72  73
  -3  -1   9 34875.2 1876.65  89
   3   1  -9 38813.3 1293.72  84
   3   1  -9 37576.3 1257.94  82
   3  -1  -9 38539.2 1278.26  76
   3   1  -9 38665.2 1286.11  72
  -3  -1   9 37097.9 1253.58  67
   3   1  -9 37283.7 1907.69  71
   3  -1  -9 39019.0 1268.25  70
   3   1  -9 36092.2 1929.12  42
   3  -1  -9 36916.7 1982.05  42
   3   1  -9 37211.5 1984.37  40
   3  -1  -9 36205.6 1852.88  40
  -3  -1   8 27508.8 1566.94   2
  -3   1   8 29993.2 1670.84   2
   3   1  -8 29147.6 1037.97 110
  -3   1   8 29372.5 1011.31 108
  -3   1   8 29799.7 1067.05 106
  -3  -1   8 28605.4 999.696 106
  -3  -1   8 28494.8 1002.94  93
  -3   1   8 30243.7 1058.74  93
  -3  -1   8 29359.7 1045.89  99
  -3   1   8 27995.3 1025.12  99
  -3   1   8 27494.0 1044.65  98
   3  -1  -8 26554.5 1605.56  29
   3   1  -8 27312.2 1391.00  34
   3  -1  -8 27524.9 1611.71  34
   3   1  -8 31183.4 1714.29  32
  -3  -1   8 29917.8 1727.41  28
   3   1  -8 28311.9 1469.86  36
   3  -1  -8 29267.3 1638.78  32
   3   1  -8 27970.1 1591.30  29
   3  -1  -8 30515.3 1588.80  86
   3   1  -8 30411.7 1604.40  86
   3   1  -8 28881.3 1037.51  76
   3   1  -8 31623.3 1062.49  73
  -3  -1   8 26890.2 1355.20  87
   3   1  -8 29613.9 1044.47  84
  -3  -1   8 31362.9 1659.21  89
   3   1  -8 29351.9 1046.81  72
   3   1  -8 28471.8 1583.98  71
  -3  -1   8 29894.9 1039.07  67
   3  -1  -8 28739.8 1006.57  70
   3   1  -8 30749.2 1641.27  42
   3  -1  -8 30036.1 1676.31  42
   3  -1  -8 28534.1 1570.51  40
   3   1  -8 31585.7 1728.66  40
  -3   1   7 1070.64 341.040  28
  -3  -1   7 964.927 344.962  28
  -3   1   7 1228.11 162.096   5
  -3   1   7 1184.34 345.301   2
  -3  -1   7 1284.65 351.330   2
  -3   1   7 1348.05 193.968 106
  -3   1   7 1181.16 174.437 108
  -3  -1   7 1155.26 162.198 106
  -3   1   7 1153.07 153.524 107
  -3   1   7 926.149 157.804  99
  -3  -1   7 1102.21 162.532  93
  -3   1   7 1228.93 181.071  93
  -3  -1   7 1345.90 184.963  99
  -3   1   7 1303.11 193.298  98
   3   1  -7 1367.97 281.954  34
   3  -1  -7 1206.41 346.984  34
   3   1  -7 1281.01 327.331  29
   3   1  -7 978.431 281.947  36
   3  -1  -7 994.058 353.937  29
   3   1  -7 1099.51 334.001  32
   3  -1  -7 1280.21 350.330  32
   3   1  -7 1224.08 179.034  73
   3  -1  -7 1536.10 335.898  86
   3   1  -7 1094.29 303.379  86
   3   1  -7 1082.16 172.009  76
   3   1  -7 1313.12 182.919  84
  -3  -1   7 1029.81 295.122  89
  -3   1   7 1292.92 296.588  89
  -3  -1   7 1024.51 252.884  87
   3   1  -7 1257.97 332.491  71
  -3  -1   7 1213.01 175.445  67
   3  -1  -7 1615.43 191.921  70
   3   1  -7 1509.95 365.734  40
   3  -1  -7 1185.26 312.800  40
   3   1  -7 1209.09 330.994  42
   3  -1  -7 1075.50 327.225  42
  -3   1   7 1292.36 159.653  48
  -3   1   6 3108.77 497.270  28
  -3  -1   6 3642.74 483.551   2
  -3   1   6 3098.00 264.969 106
  -3   1   6 3428.52 263.546  93
  -3   1   6 3566.98 268.287  99
  -3  -1   6 2433.57 334.319  92
  -3  -1   6 3607.77 267.684  99
  -3   1   6 3594.23 281.035  98
   3   1  -6 3503.23 474.102  29
   3   1  -6 3284.02 390.621  34
   3  -1  -6 3456.04 495.350  34
  -3  -1   6 2792.39 319.438  37
   3   1  -6 3445.80 476.608  32
   3   1  -6 3705.70 471.383  36
   3  -1  -6 3841.04 394.886  36
  -3  -1   6 3660.75 521.742  35
   3  -1  -6 3112.98 464.389  32
   3  -1  -6 4460.17 486.983  86
   3   1  -6 3610.07 460.432  86
   3   1  -6 3579.95 260.523  76
   3   1  -6 3548.38 261.883  84
   3   1  -6 4100.43 284.552  73
  -3   1   6 3989.89 474.401  89
  -3  -1   6 3235.35 417.308  87
  -3  -1   6 3472.70 269.370  64
   3   1  -6 3357.21 466.829  71
   3  -1  -6 3836.63 254.589  70
  -3  -1   6 3358.04 263.412  67
   3  -1  -6 3751.17 488.148  40
   3   1  -6 3387.30 462.463  42
   3  -1  -6 3321.08 494.374  42
  -3  -1   6 3975.32 503.293  39
  -3  -1   6 3389.55 338.882  45
  -3   1   6 3630.81 343.047  45
   3  -1  -5 20998.5 1116.57  40
   3   1  -5 20938.3 1072.16  42
   3  -1  -5 20607.8 1144.10  42
  -3  -1   5 22384.9 1170.32  39
  -3   1   5 22074.7 965.351  45
  -3  -1   5 20774.1 999.329  92
   3   1  -5 21871.9 1099.26  29
   3   1  -5 19917.6 933.822  34
  -3   1   5 21073.3 1162.04  28
   3   1  -5 20559.7 1100.41  32
   3  -1  -5 20764.4 992.540  36
  -3  -1   5 22826.9 1225.83  35
   3   1  -5 22447.2 1140.73  36
   3  -1  -5 22801.0 1183.03  32
   3   1  -5 21142.9 1041.84  86
   3   1  -5 21028.1 721.687  76
  -3   1   5 21453.3 1087.71  89
  -3  -1   5 20387.9 1049.67  87
   3  -1  -5 22127.4 1038.90  86
   3   1  -5 21519.7 735.428  72
   3  -1  -5 21038.4 688.610  70
  -3  -1   5 21411.0 1148.49   2
  -3   1   4 139360. 3896.34   2
   3   1  -4 139627. 3888.09  40
   3  -1  -4 139106. 3892.71  40
   3   1  -4 142180. 3773.35  42
   3  -1  -4 134211. 3898.18  42
  -3  -1   4 138336. 3972.26  39
  -3   1   4 136520. 3708.24  45
  -3   1   4 123200. 3415.85  92
  -3  -1   4 134901. 3752.03  92
   3   1  -4 133815. 3562.80  34
  -3  -1   4 135429. 3957.88  33
   3   1  -4 138148. 3767.21  29
  -3   1   4 134075. 3891.04  28
  -3  -1   4 138511. 3962.99  35
   3   1  -4 137379. 3917.84  36
   3  -1  -4 139420. 3762.06  36
   3   1  -4 140516. 3844.21  32
   3   1  -4 130713. 3694.55  86
   3   1  -4 132264. 3311.87  73
  -3  -1   4 139394. 3891.04  89
  -3   1   4 141040. 3863.97  89
  -3  -1   4 129608. 3772.88  87
   3  -1  -4 127878. 3619.24  86
   3   1  -4 136969. 3314.80  72
   3  -1  -4 125906. 3229.78  70
   3   1  -4 133052. 3570.91  23
   3  -1  -4 126938. 3461.95  19
  -3  -1   4 131501. 3906.36  28
  -3   1   3 196414. 5194.73   2
   3  -1  -3 195688. 5254.86  44
   3   1  -3 211214. 5256.00  40
   3   1  -3 192013. 5047.55  42
  -3  -1   3 196975. 5316.81  39
  -3   1   3 194615. 5159.22  45
  -3   1   3 187311. 4959.48  92
   3   1  -3 197399. 5170.11  96
  -3  -1   3 198634. 5183.33  92
   3  -1  -3 200270. 5211.25  36
  -3   1   3 199248. 5198.83  28
  -3  -1   3 204624. 5336.69  33
  -3  -1   3 192159. 5267.79  30
  -3  -1   3 204360. 5292.18  35
   3   1  -3 202765. 5286.56  36
   3   1  -3 203510. 5155.87  32
   3   1  -3 207162. 5061.08  86
   3   1  -3 193445. 4733.03  73
  -3  -1   3 202843. 5239.39  89
  -3  -1   3 196972. 5212.13  87
   3  -1  -3 168201. 4890.12  86
   3   1  -3 195379. 4726.59  72
   3   1  -3 194851. 5047.90  23
  -3  -1   3 204010. 5293.50  28
   3  -1  -3 200522. 4952.70  19
   3   1  -3 197122. 5253.51  19
   3   1  -2 113919. 2989.43  40
   3   1  -2 108404. 2821.07  42
  -3  -1   2 114194. 2987.80  41
  -3  -1   2 114065. 3169.56  39
  -3   1   2 112021. 3047.68  45
   3  -1  -2 101525. 2742.53  38
  -3   1   2 106178. 2902.86  92
  -3  -1   2 113095. 3074.42  92
   3   1  -2 105797. 3002.93  96
  -3   1   2 105467. 2890.98  28
  -3  -1   2 112271. 3093.39  31
  -3  -1   2 110377. 3112.81  33
  -3  -1   2 111220. 3102.62  30
   3   1  -2 111083. 2907.27  32
  -3  -1   2 107040. 2992.09  35
   3  -1  -2 110448. 3052.44  36
   3   1  -2 108996. 2824.22  86
  -3  -1   2 114587. 3016.74  89
   3  -1  -2 108315. 2851.87  19
  -3  -1   2 107080. 3020.13  28
   3   1  -2 105531. 2939.88  23
   3  -1  -2 104001. 2849.64  23
   3   1  -2 109545. 3075.91  19
   3   1  -2 116558. 3092.50   1
  -3   1   2 108817. 2951.25   2
   3   1  -1 75137.7 2290.26   1
  -3   1   1 72454.1 2072.47   2
   3  -1  -1 70486.4 1874.58   1
  -3  -1   1 66158.8 1819.48  43
   3  -1  -1 72413.6 1920.07  43
   3   1  -1 73779.2 2122.27  40
   3   1  -1 76085.1 2187.24  38
   3  -1  -1 72231.0 1982.37  37
   3  -1  -1 75260.7 2248.34  44
  -3  -1   1 72112.0 2208.66  41
   3  -1  -1 71855.1 2121.91  38
  -3   1   1 73724.2 2205.69  92
   3   1  -1 78401.2 2272.47  96
  -3  -1   1 78815.9 2290.68  31
   3  -1  -1 75756.6 2320.95  36
   3   1  -1 76679.2 2291.27  36
  -3  -1   1 75212.2 2170.07  35
  -3  -1   1 75845.2 2258.52  87
  -3  -1   1 74451.1 2165.91  89
   3   1  -1 69814.7 1841.28  62
   3   1  -1 76875.8 2289.42  19
  -3  -1   1 74269.5 2197.72  28
   3   1  -1 73842.0 2236.09  23
   3  -1  -1 75389.3 2160.89  19
   3  -1   0 266938. 6867.39   1
  -3   1   0 273882. 6855.93   2
   3   1   0 319317. 7296.72   1
   3  -1   0 285260. 7158.98  38
   3  -1   0 269417. 6864.30  43
   3   1   0 289325. 6958.39  40
   3  -1   0 278871. 7035.02  37
   3   1   0 293662. 7197.31  38
  -3   1   0 284198. 7197.66  41
  -3  -1   0 285578. 7207.39  41
  -3  -1   0 287806. 7230.81  39
  -3   1   0 290607. 7239.38  45
  -3  -1   0 290757. 7221.92  92
  -3   1   0 288692. 7211.56  92
  -3  -1   0 288612. 7211.16  31
  -3  -1   0 279800. 7227.20  33
  -3  -1   0 295958. 7246.19  30
   3   1   0 293450. 7174.12  36
  -3  -1   0 297275. 7034.37  35
  -3  -1   0 287501. 7022.10  89
  -3  -1   0 301858. 7233.01  87
   3   1   0 286665. 6747.12  62
   3   1   0 280745. 7211.22  23
  -3  -1   0 286806. 7068.67  28
   3  -1   0 281590. 7134.94  19
   3  -1   1 147449. 3902.12  38
   3  -1   1 147931. 3833.87  37
   3   1   1 148869. 3908.65  38
  -3   1  -1 144471. 3855.05  41
  -3  -1  -1 147711. 3920.00  41
  -3  -1  -1 145469. 3861.67  39
   3   1   1 146670. 3919.64  37
   3   1   1 142407. 3529.35  40
  -3   1  -1 152774. 3887.74  45
   3  -1   1 146571. 3713.80  96
   3   1   1 149008. 3876.89  96
  -3  -1  -1 152700. 3906.93  92
  -3  -1  -1 144198. 3731.96  34
  -3  -1  -1 153010. 3897.07  31
  -3  -1  -1 150637. 3905.74  33
  -3  -1  -1 150060. 3870.39  30
   3   1   1 144317. 3764.14  36
  -3  -1  -1 146758. 3642.70  35
  -3  -1  -1 148238. 3847.54  87
   3   1   1 152148. 3904.12  19
   3   1   1 150045. 3944.00  23
   3  -1   1 156149. 3939.83  19
   3   1   1 152708. 3933.95   1
   3   1   2 99852.7 3015.21   1
   3   1   2 102501. 3032.05  37
   3  -1   2 105224. 3080.96  38
   3   1   2 102955. 3045.80  38
  -3  -1  -2 102346. 3050.56  41
  -3   1  -2 98153.4 2902.69  41
  -3  -1  -2 101806. 2920.90  39
  -3   1  -2 100700. 2918.78  45
   3  -1   2 101057. 2758.23  96
  -3   1  -2 95482.4 2953.43  92
   3   1   2 104466. 2994.74  96
   3   1   2 103179. 2877.03  94
  -3  -1  -2 104643. 2965.65  92
  -3  -1  -2 99137.9 2885.79  34
  -3  -1  -2 97575.7 2733.25  29
  -3   1  -2 93536.4 2473.08  31
  -3  -1  -2 99004.5 2951.72  33
   3  -1   2 103230. 3013.18  37
   3   1   2 101460. 2786.68  36
  -3  -1  -2 99595.1 2902.57  30
  -3   1  -2 100401. 3001.97  29
   3   1   2 101004. 2516.47  62
   3   1   2 105439. 2979.28  19
   3   1   3 201583. 5433.38  37
   3  -1   3 203056. 5443.21  37
  -3   1  -3 196116. 5241.39  41
  -3  -1  -3 206388. 5256.38  39
   3  -1   3 189435. 4882.72  46
  -3   1  -3 196806. 5196.37  45
   3  -1   3 215625. 5537.90  38
   3   1   3 208387. 5352.99  96
   3   1   3 203701. 5260.41  94
   3  -1   3 213457. 5410.80  94
  -3  -1  -3 203513. 5275.90  92
   3  -1   3 183247. 4984.71  96
  -3   1  -3 200987. 5420.79  29
  -3  -1  -3 194893. 5110.63  29
  -3  -1  -3 204193. 5353.25  34
  -3  -1  -3 206951. 5360.62  33
   3   1   3 197154. 5001.17  36
  -3   1  -3 192485. 4928.79  86
   3   1   3 194726. 4756.74  57
   3  -1   3 194159. 4728.16  62
  -3  -1  -3 197555. 4797.74  69
   3   1   3 200498. 4801.09  62
   3   1   3 206109. 5412.31  23
   3   1   3 211694. 5341.88  19
   3  -1   4 14394.3 960.826  37
   3   1   4 16635.6 983.471  38
  -3   1  -4 16058.2 846.089  41
  -3  -1  -4 14583.2 938.343  41
  -3  -1  -4 17208.2 861.132  39
  -3   1  -4 15196.4 780.125  45
   3   1   4 15798.2 903.788  96
   3  -1   4 15641.6 928.899  94
   3   1   4 15791.6 894.754  94
  -3  -1  -4 15263.0 829.073  92
  -3  -1  -4 16197.4 944.771  34
  -3   1  -4 15565.9 958.383  29
  -3  -1  -4 15794.4 823.363  29
  -3   1  -4 16258.7 969.730  34
  -3  -1  -4 15921.9 904.927  33
   3   1   4 14947.5 621.123  36
  -3   1  -4 15150.6 728.702  86
  -3   1  -4 15179.1 534.821  74
   3  -1   4 16388.2 595.884  57
   3   1   4 15427.1 557.729  57
   3   1   4 15181.2 580.456  61
  -3  -1  -4 15540.1 589.500  69
   3   1   4 14654.9 909.403  23
   3   1   4 14258.6 853.482  19
   3   1   5 3142.90 448.079  38
  -3   1  -5 2677.37 350.794  41
   3  -1   5 3983.76 517.689  38
  -3  -1  -5 2856.82 438.480  41
  -3  -1  -5 2342.05 326.685  39
  -3  -1  -5 2872.99 351.589  92
   3  -1   5 2384.68 400.502  94
   3   1   5 2627.48 388.303  96
   3   1   5 3472.06 451.071  94
  -3   1  -5 3216.87 463.162  34
  -3   1  -5 2990.49 454.268  29
  -3  -1  -5 2534.36 358.390  29
  -3  -1  -5 2628.85 427.473  34
  -3  -1  -5 2553.82 381.255  33
   3   1   5 2524.05 416.710  37
   3  -1   5 2787.23 462.204  37
  -3   1  -5 2664.03 335.627  86
  -3   1  -5 2710.83 209.481  74
  -3  -1  -5 3021.06 373.776  86
   3  -1   5 3181.78 245.432  57
   3   1   5 2931.55 221.862  57
   3   1   5 2754.37 227.321  63
   3   1   5 2858.34 212.771  55
   3  -1   5 2569.68 217.533  61
   3   1   5 2874.77 194.575  58
   3   1   5 2733.92 403.946  23
   3  -1   5 3059.19 442.523  23
   3   1   5 3040.06 398.513  19
   3   1   6 7289.48 657.104  23
   3  -1   6 8122.17 753.821  23
  -3   1  -6 8234.36 442.327  27
  -3  -1  -6 8014.64 456.624  27
   3   1   6 7954.97 674.994  19
   3   1   6 8151.43 423.088 106
  -3   1  -6 7866.61 421.023 109
   3  -1   6 8109.18 671.474  89
   3   1   6 7193.30 667.073  96
   3  -1   6 6831.41 698.315  94
   3   1   6 8046.47 435.120  98
   3   1   6 7994.07 417.516  95
   3  -1   6 7584.30 423.972  98
   3   1   6 8873.43 756.562  94
  -3   1  -6 8169.53 773.264  34
  -3   1  -6 8671.81 802.348  29
  -3  -1  -6 7847.33 673.458  29
  -3  -1  -6 8459.28 717.590  33
  -3   1  -6 8026.20 746.279  32
  -3  -1  -6 7161.26 730.593  34
  -3   1  -6 7782.76 619.486  86
  -3  -1  -6 7189.72 400.421  80
  -3   1  -6 7662.03 416.779  81
  -3  -1  -6 8389.61 443.634  75
  -3   1  -6 7953.82 443.231  78
   3   1   6 7213.95 410.360  88
  -3   1  -6 8081.69 411.852  77
  -3  -1  -6 7837.46 661.823  86
   3  -1   6 9328.60 461.396  57
   3   1   6 8141.41 432.312  63
   3  -1   6 7524.48 424.762  63
   3  -1   6 7928.30 435.413  55
   3  -1   6 8119.25 412.154  61
   3   1   6 7873.89 394.985  55
   3   1   6 8170.07 427.638  65
   3   1   6 8015.88 399.009  60
   3   1   6 8325.82 376.625  58
   3   1   6 8041.95 766.253  37
   3   1   6 8014.14 748.178  38
  -3   1  -6 6747.94 578.299  41
  -3  -1  -6 7667.75 743.443  41
   3  -1   6 8295.96 791.060  38
  -3  -1  -6 7836.72 594.061  39
   3   1   7 17659.6 1057.77  23
  -3  -1  -7 17150.7 759.976  27
   3  -1   7 16010.5 1110.41  23
  -3   1  -7 17079.1 732.580  27
  -3   1  -7 17368.2 674.028  26
   3   1   7 15336.9 1000.15  19
  -3   1  -7 17179.7 702.955 109
   3   1   7 17640.8 715.380 106
   3  -1   7 17487.6 733.663 106
   3  -1   7 17379.4 714.324  98
   3  -1   7 16224.8 1164.58  94
   3  -1   7 17654.9 1038.82  89
   3   1   7 17196.7 699.320  95
   3   1   7 16829.2 1152.37  94
  -3   1  -7 16028.9 1176.37  34
  -3  -1  -7 18114.2 1258.68  34
  -3   1  -7 18295.7 1253.89  29
  -3  -1  -7 17701.9 1104.31  29
  -3  -1  -7 18427.5 1132.51  33
  -3   1  -7 18759.5 1224.06  32
  -3   1  -7 17179.6 1032.83  86
  -3  -1  -7 17376.4 720.245  74
  -3  -1  -7 18177.9 1099.94  86
  -3  -1  -7 17440.0 734.971  78
  -3  -1  -7 16393.8 671.047  80
  -3  -1  -7 17289.1 730.468  75
  -3   1  -7 17236.4 701.572  77
  -3   1  -7 17629.3 723.810  81
   3  -1   7 17375.0 732.045  65
   3  -1   7 17713.1 734.214  63
   3   1   7 17698.8 729.923  63
   3   1   7 17879.5 728.155  65
   3   1   7 16906.2 673.790  55
  -3  -1  -7 16403.6 659.546  70
   3   1   7 17111.1 680.127  60
   3  -1   7 16812.4 716.863  58
   3   1   7 18336.1 1240.00  37
   3   1   7 16808.7 1141.14  38
   3  -1   7 16372.7 1186.98  38
  -3  -1  -7 17098.5 1182.76  41
   3  -1   7 18455.6 1305.75  37
  -3   1  -8 9797.81 545.931  27
   3  -1   8 9018.83 808.553  23
   3  -1   8 8501.25 900.907  19
  -3  -1  -8 9278.99 550.964  27
  -3   1  -8 8878.20 478.115 109
   3   1   8 9362.47 508.159 106
   3  -1   8 9970.88 534.452 106
   3   1   8 9029.44 491.813  97
   3  -1   8 9415.22 504.832  98
   3   1   8 8316.92 852.788  94
   3  -1   8 9790.94 911.083  94
  -3  -1  -8 9888.61 957.895  34
  -3   1  -8 9507.48 933.077  29
  -3  -1  -8 8979.25 811.449  29
  -3  -1  -8 8036.08 776.503  33
  -3   1  -8 9077.76 925.573  34
  -3  -1  -8 8708.72 499.257  74
  -3  -1  -8 8445.09 787.120  86
  -3   1  -8 9487.96 791.285  86
  -3  -1  -8 9588.50 539.352  78
  -3  -1  -8 9421.10 527.567  75
  -3  -1  -8 9205.36 517.000  81
  -3   1  -8 9285.75 517.389  81
   3  -1   8 9561.30 525.100  65
   3   1   8 9195.69 515.321  65
   3  -1   8 9475.65 491.474  56
   3  -1   8 9324.13 510.166  63
   3   1   8 9839.02 530.243  63
   3   1   8 9025.79 474.201  60
  -3  -1  -8 8683.73 460.268  70
   3  -1   8 9571.41 521.300  58
   3  -1   8 8166.64 907.833  37
   3   1   8 8637.42 830.318  38
   3  -1   8 9521.30 901.196  38
  -3  -1  -8 9610.98 898.630  41
   3   1   8 9662.78 925.941  37
   3  -1   9 4680.96 670.969  19
  -3   1  -9 4629.26 369.836  27
  -3  -1  -9 5127.00 409.709  27
   3   1   9 5080.87 379.758 106
   3  -1   9 5171.37 388.606 106
  -3   1  -9 4722.91 334.739 109
   3  -1   9 5196.18 370.470  98
   3   1   9 4785.97 346.582  97
   3   1   9 4929.46 379.085  98
   3  -1   9 4871.34 667.073  94
   3   1   9 4514.44 656.667  94
  -3   1  -9 4718.20 677.203  34
  -3  -1  -9 4781.58 692.853  34
  -3   1  -9 5477.22 732.142  29
  -3  -1  -9 4522.07 608.814  29
  -3  -1  -9 3927.99 552.585  86
  -3   1  -9 4427.79 555.311  86
  -3  -1  -9 5275.28 389.976  74
  -3  -1  -9 4737.50 364.326  77
  -3  -1  -9 4517.97 375.257  78
  -3   1  -9 5229.12 393.431  81
   3  -1   9 4936.19 376.729  58
   3  -1   9 4665.04 368.226  65
   3  -1   9 5690.35 391.785  63
   3  -1   9 4795.34 340.603  56
  -3  -1  -9 5270.40 349.413  70
   3  -1   9 4680.02 634.126  38
  -3  -1  -9 4918.66 649.830  41
   3  -1   9 4899.64 702.539  37
   3   1   9 4204.41 611.573  37
   3  -1  10 38135.0 1293.89 106
   3   1  10 38330.2 1285.17 106
   3   1  10 36646.6 1206.79  97
   3  -1  10 38225.6 1253.43  98
   3  -1  10 39324.1 1247.50  99
   3   1  10 41008.0 1328.28  98
   3  -1  10 39928.8 1976.44  94
   3   1  10 37847.2 1936.53  94
  -3   1 -10 38933.3 2010.46  29
  -3  -1 -10 38144.6 1822.78  29
  -3  -1 -10 37357.6 1772.37  86
  -3  -1 -10 37767.1 1287.45  74
  -3  -1 -10 37785.5 1296.72  78
  -3   1 -10 38684.4 1299.36  81
  -3  -1 -10 39141.3 1285.20  77
   3  -1  10 38459.6 1272.54  66
  -3  -1 -10 36242.5 1200.86  70
  -3   1 -10 39752.4 1320.36  27
  -3  -1 -10 39864.2 1364.65  27
   3  -1  11 4463.01 328.389 106
   3   1  11 4278.36 316.339 106
   3  -1  11 4222.64 569.498  94
   3  -1  11 4059.73 283.713  99
   3   1  11 3612.93 527.726  94
   3  -1  11 4253.53 295.838  98
   3   1  11 4386.09 326.753  98
   3   1  11 4131.16 283.448  93
  -3   1 -11 3700.28 567.419  29
  -3  -1 -11 4031.17 306.572  77
   3  -1  11 4309.21 306.859  66
  -3  -1 -11 4328.95 348.726  27
  -3   1 -11 4369.95 325.923  27
   3  -1  12 1833.99 185.173 106
   3   1  12 1487.16 174.653 106
   3  -1  12 1510.47 160.375  66
  -3   1 -12 1507.02 141.931  51
   3   1  12 1672.37 185.407  98
   3   1  12 1435.95 144.064  93
  -3   1 -12 1678.61 185.039 100
   3  -1  12 1730.93 161.375  98
  -3   1 -12 1468.74 166.283  27
  -3  -1 -12 1775.49 201.937  27
   3   1  13 10062.7 384.401 106
  -3   1 -13 9748.53 374.570 101
   3  -1  13 11369.0 400.091 106
  -3  -1 -13 11439.0 422.807  27
   3  -1  13 11655.9 408.802  93
   3   1  13 10864.3 401.394  98
  -3   2  13 16450.6 561.263   7
  -3  -2  13 15604.7 552.403  99
  -3  -2  13 15128.4 531.194 108
   3  -2 -13 16276.0 553.725 110
   3  -2 -13 15585.1 532.966  76
   3  -2 -13 16528.6 543.862  84
   3   2 -13 14975.8 524.774  26
  -3   2  13 15518.5 539.613  47
  -3  -2  12 19311.6 722.563 108
  -3  -2  12 19248.7 730.790  99
   3  -2 -12 19651.2 713.583  76
   3  -2 -12 19554.6 728.460  73
   3  -2 -12 19875.5 722.863  84
   3  -2 -12 19491.9 732.463  72
   3   2 -12 17420.0 699.115  26
  -3   2  12 20188.7 749.694   7
  -3   2  12 18648.8 707.471   6
  -3   2  11 8616.25 484.017   6
   3   2 -11 9107.21 500.570 110
   3   2 -11 8171.41 421.775 101
  -3  -2  11 8792.29 487.544  99
   3   2 -11 8368.42 768.268  29
  -3  -2  11 9005.10 904.604  28
   3   2 -11 7383.94 791.359  32
   3  -2 -11 8576.21 859.853  29
   3  -2 -11 8982.01 475.163  76
   3  -2 -11 8142.15 800.493  86
   3   2 -11 8570.89 853.915  86
   3   2 -11 7719.16 409.891  85
   3  -2 -11 8719.15 485.882  72
   3  -2 -11 8956.13 465.360  70
  -3  -2  11 8504.90 462.290  67
  -3   2  11 8454.10 425.562  48
  -3  -2  10 2512.66 533.730  28
  -3   2  10 3906.34 342.719   6
  -3   2  10 3290.30 270.805   3
   3   2 -10 2963.44 267.041 101
   3   2 -10 3557.96 320.751 110
  -3  -2  10 3190.58 265.525  93
  -3  -2  10 3004.63 303.243  99
  -3   2  10 3025.64 326.055  98
   3   2 -10 3465.06 580.524  32
   3   2 -10 2375.73 444.951  29
   3  -2 -10 3152.10 565.809  29
   3  -2 -10 2610.43 486.176  32
   3  -2 -10 3411.91 543.030  86
   3   2 -10 3423.32 288.534  82
   3   2 -10 3433.97 289.639  85
   3   2 -10 3670.51 324.371  84
  -3  -2  10 2409.52 468.024  89
   3   2 -10 2948.19 537.594  86
  -3  -2  10 3083.78 296.069  67
   3  -2 -10 3096.48 284.159  70
   3   2 -10 2838.20 542.270  40
  -3   2  10 3061.60 275.911  48
   3  -2 -10 3111.53 550.777  41
   3   2  -9 6150.76 398.391  21
  -3   2   9 6084.85 404.422   3
  -3  -2   9 5952.41 723.912   2
  -3   2   9 6813.58 829.983   2
   3   2  -9 7828.97 480.547 110
  -3   2   9 6814.24 465.564 106
   3   2  -9 6955.53 415.556 101
  -3  -2   9 6457.32 384.496  93
  -3  -2   9 7423.80 462.945  99
  -3   2   9 7057.23 482.430  98
   3  -2  -9 5541.98 704.457  32
   3   2  -9 6364.25 721.913  29
  -3  -2   9 6587.30 837.853  28
   3   2  -9 6305.34 774.104  32
  -3  -2   9 6797.81 870.448  35
   3  -2  -9 6863.33 803.463  29
   3  -2  -9 6971.77 787.141  86
   3   2  -9 5934.35 756.787  86
   3   2  -9 6735.00 423.942  85
  -3  -2   9 6353.83 786.690  89
   3   2  -9 7402.04 469.171  84
   3   2  -9 6840.21 423.966  82
  -3  -2   9 7216.91 463.680  64
  -3  -2   9 6509.99 442.715  67
   3  -2  -9 7325.44 438.361  70
   3   2  -9 7365.68 795.386  42
   3  -2  -9 6654.88 799.709  42
  -3   2   9 6692.70 421.274  48
   3   2  -8 40591.5 1317.21  21
  -3  -2   8 39152.9 1960.03   2
  -3   2   8 41197.5 2106.20   2
  -3   2   8 41011.2 1334.81  16
  -3   2   8 40727.3 1268.94 108
  -3   2   8 41677.9 1373.40 106
   3   2  -8 41213.0 1293.97 101
   3   2  -8 42591.7 1375.79 110
  -3   2   8 40226.9 1313.65  99
  -3  -2   8 39231.3 1326.24  99
  -3   2   8 39866.3 1376.57  98
   3  -2  -8 42224.6 2086.66  29
   3   2  -8 39920.2 1886.91  29
   3   2  -8 40190.2 2019.73  32
  -3  -2   8 42916.7 2188.99  28
  -3  -2   8 43411.5 2243.00  35
   3  -2  -8 39765.0 1978.21  32
   3  -2  -8 40161.0 1947.51  86
   3   2  -8 39642.3 2003.97  86
   3   2  -8 40841.1 1326.32  85
  -3  -2   8 40553.5 2054.88  89
   3   2  -8 42067.5 1340.40  82
   3   2  -8 41837.8 1365.66  84
  -3  -2   8 38370.3 1878.25  87
  -3  -2   8 41640.4 1372.10  64
   3  -2  -8 41029.3 1319.04  70
  -3  -2   8 41926.2 1369.56  67
   3  -2  -8 38391.0 1825.04  40
   3   2  -8 41384.1 1959.25  42
   3  -2  -8 39238.7 2013.26  42
  -3   2   8 40969.7 1328.78  48
  -3  -2   7 65948.4 2710.59  28
   3   2  -7 59881.3 1776.71  21
  -3  -2   7 60742.5 2494.05   2
  -3   2   7 60381.1 1790.49  16
  -3   2   7 60758.0 1774.32   5
   3   2  -7 63284.6 1819.29 110
   3   2  -7 58859.7 1705.16 104
  -3   2   7 60411.9 1809.05 106
  -3   2   7 58012.7 1719.56 108
   3   2  -7 60279.3 1733.10 101
  -3  -2   7 61523.2 1781.17  99
  -3  -2   7 57016.1 2246.89  92
  -3   2   7 60813.9 1770.52  99
  -3   2   7 61614.0 1827.68  98
   3  -2  -7 64120.7 2637.25  34
   3  -2  -7 62868.8 2593.34  29
   3   2  -7 60755.9 2353.23  29
  -3  -2   7 57817.7 2232.00  37
   3   2  -7 60086.9 2485.12  36
   3   2  -7 59234.0 2482.86  32
   3  -2  -7 58641.5 2443.91  32
   3   2  -7 61024.8 2477.89  86
   3   2  -7 61264.8 1787.30  85
   3   2  -7 61908.8 1797.21  82
   3  -2  -7 61926.7 2433.07  86
   3   2  -7 60646.4 1803.31  84
  -3  -2   7 64976.1 2506.19  87
  -3  -2   7 60168.6 1801.44  64
   3  -2  -7 63786.2 1768.88  70
   3  -2  -7 57830.4 2337.88  40
   3   2  -7 60516.3 2391.28  42
   3  -2  -7 61438.0 2549.23  42
  -3  -2   7 59942.2 2438.63  39
  -3   2   7 62368.8 1787.05  48
   3   2  -7 66067.7 2642.53  40
  -3  -2   6 306268. 8223.04  28
  -3   2   6 292582. 7066.96   5
  -3   2   6 302480. 8072.93   2
  -3   2   6 297634. 7087.78  16
   3   2  -6 274283. 6989.94 104
  -3   2   6 286758. 7019.55 108
  -3   2   6 278841. 7077.34 106
   3   2  -6 294315. 7079.41 110
  -3  -2   6 286490. 7038.52  99
  -3  -2   6 274041. 7709.84  92
  -3   2   6 287989. 7046.82  99
  -3   2   6 281453. 7107.79  98
   3  -2  -6 295595. 8124.48  34
   3   2  -6 311797. 8063.90  36
   3   2  -6 297188. 7702.62  29
   3   2  -6 307214. 7931.49  32
   3  -2  -6 291967. 7938.04  32
  -3  -2   6 309519. 8165.53  31
   3   2  -6 293944. 7904.86  86
   3   2  -6 287409. 7057.97  85
   3   2  -6 295712. 7084.91  84
  -3  -2   6 309232. 8057.07  89
   3   2  -6 289172. 7067.05  82
  -3  -2   6 286560. 7877.33  87
   3  -2  -6 310660. 7845.64  86
  -3  -2   6 285968. 7067.47  64
  -3  -2   6 306571. 7112.42  59
  -3  -2   6 293433. 7094.36  67
   3  -2  -6 298988. 7850.22  40
   3   2  -6 303285. 7772.95  42
   3  -2  -6 289993. 7991.05  42
  -3  -2   6 283199. 7883.75  39
  -3   2   6 284867. 7057.65  48
   3   2  -6 305754. 8086.77  40
  -3   2   6 288204. 7449.95  45
   3   2  -5 43685.6 1749.34  18
  -3   2   5 51099.0 2084.49   2
   3   2  -5 48577.2 1427.30 110
   3   2  -5 48084.0 1726.11  96
  -3  -2   5 49411.8 1964.96  92
  -3  -2   5 53529.2 2154.83  31
  -3  -2   5 48308.6 2023.40  33
   3  -2  -5 45015.6 1691.49  36
   3   2  -5 45446.1 1754.32  29
   3   2  -5 49928.8 1928.54  32
   3   2  -5 50072.9 2061.99  36
  -3  -2   5 46788.6 1991.14  89
   3   2  -5 51644.9 1976.92  86
   3   2  -5 46122.3 1410.86  85
   3   2  -5 49786.0 1442.31  82
   3   2  -5 48616.8 1427.46  84
  -3  -2   5 48664.3 1994.17  87
   3  -2  -5 45773.8 1823.23  86
  -3  -2   5 46948.9 1412.29  64
  -3  -2   5 49216.6 1441.72  67
  -3  -2   5 49856.7 1444.94  59
   3  -2  -5 50210.1 1955.17  40
   3   2  -5 47615.1 1801.54  42
   3  -2  -5 48926.1 2031.20  42
  -3  -2   5 51861.0 2070.43  39
  -3   2   5 48630.5 1422.14  48
   3   2  -5 52657.5 2074.54  40
  -3   2   5 49181.0 1811.87  45
   3  -2  -4 40863.9 1741.04  44
   3   2  -4 39511.6 1469.23  42
   3  -2  -4 40516.4 1689.49  40
   3  -2  -4 43813.6 1788.52  42
  -3  -2   4 40782.6 1757.61  39
  -3   2   4 42965.0 1649.16  45
   3   2  -4 42035.4 1707.68  40
   3   2  -4 41908.5 1547.79  96
  -3  -2   4 41820.4 1718.67  92
  -3  -2   4 39649.9 1801.23  31
  -3  -2   4 40862.6 1758.56  33
  -3  -2   4 41156.6 1740.79  30
   3   2  -4 45246.2 1834.28  36
  -3  -2   4 41729.6 1817.02  35
   3   2  -4 40651.1 1585.08  32
   3  -2  -4 41021.4 1571.25  36
   3   2  -4 39944.0 1459.20  29
   3   2  -4 40109.3 1646.43  86
  -3  -2   4 43095.8 1745.77  89
  -3  -2   4 37394.8 1682.53  87
  -3  -2   4 40083.5 1215.25  59
  -3   2   4 43851.1 1759.98   2
  -3   2   3 179750. 4634.33   2
   3  -2  -3 168851. 4695.99  44
  -3  -2   3 159366. 4311.54  43
   3  -2  -3 144302. 4171.78  38
   3   2  -3 155612. 4184.41  42
  -3  -2   3 154989. 4248.82  41
  -3  -2   3 174254. 4783.52  39
   3   2  -3 169879. 4562.12  40
  -3   2   3 169418. 4592.92  45
   3   2  -3 164825. 4456.11  96
  -3  -2   3 164716. 4649.39  92
  -3  -2   3 178174. 4806.46  31
  -3  -2   3 173277. 4780.28  35
  -3  -2   3 170357. 4733.77  33
  -3  -2   3 168025. 4698.86  30
   3   2  -3 164804. 4366.73  32
   3  -2  -3 173628. 4572.89  36
   3   2  -3 160999. 4512.37  86
  -3  -2   3 172873. 4613.56  89
   3   2  -3 158183. 3917.51  62
  -3  -2   3 161086. 4001.56  59
   3   2  -3 163619. 4561.91  23
  -3  -2   3 168819. 4777.34  28
  -3   2   2 14099.8 774.807   2
   3  -2  -2 14584.4 874.378  44
  -3   2   2 13239.7 831.056  45
  -3  -2   2 13885.4 687.481  43
   3   2  -2 12945.6 521.510  42
   3  -2  -2 13035.0 708.016  38
  -3  -2   2 13768.6 711.827  41
  -3  -2   2 15199.6 924.562  39
   3   2  -2 14869.6 768.869  40
   3   2  -2 16746.4 839.317  96
  -3  -2   2 15347.3 918.973  31
  -3  -2   2 14772.9 895.170  33
   3   2  -2 16038.4 916.973  36
  -3  -2   2 13578.4 867.716  30
   3   2  -2 12932.6 634.688  32
  -3  -2   2 13359.0 849.061  35
  -3  -2   2 15051.0 809.952  89
   3   2  -2 14558.8 803.627  86
  -3  -2   2 14483.7 866.751  87
   3   2  -2 14458.7 489.858  62
  -3  -2   2 14103.0 509.385  59
   3   2  -2 14992.3 852.176  23
  -3  -2   2 15505.4 910.017  28
   3  -2  -2 13504.0 610.564  19
   3   2  -1 52517.3 1911.93   1
  -3   2   1 51658.7 1664.42   2
   3  -2  -1 48262.5 1745.19  38
  -3  -2   1 50496.3 1732.32  41
  -3  -2   1 52159.7 1946.71  39
   3   2  -1 49545.7 1600.30  40
   3   2  -1 53220.2 1811.67  96
  -3  -2   1 53117.5 1902.58  92
  -3  -2   1 47321.2 1891.01  31
  -3  -2   1 52393.4 1922.22  33
   3   2  -1 53824.9 1881.42  36
   3  -2  -1 44593.6 1549.22  37
  -3  -2   1 55074.5 1960.27  30
  -3  -2   1 51229.1 1854.14  35
  -3  -2   1 52415.0 1711.62  89
  -3  -2   1 53613.5 1872.70  87
   3   2  -1 49670.9 1360.05  62
   3   2  -1 50746.8 1864.49  23
   3   2  -1 49297.5 1845.98  19
   3  -2  -1 51220.4 1641.89  19
  -3  -2   1 54235.2 1918.49  28
  -3   2   0 7098.57 420.387   2
   3  -2   0 7716.92 527.831  43
   3  -2   0 7372.45 579.183  38
  -3   2   0 8425.96 636.099  45
   3   2   0 6834.85 376.981  40
   3   2   0 7085.18 566.438  96
  -3  -2   0 8013.96 605.649  92
  -3  -2   0 7784.23 624.480  31
  -3  -2   0 7470.60 616.305  33
   3  -2   0 7657.49 533.229  37
   3   2   0 6988.21 553.855  36
  -3  -2   0 7755.89 585.428  35
  -3  -2   0 7318.90 458.373  89
  -3  -2   0 7412.28 572.220  87
   3   2   0 7605.38 345.316  62
  -3   2   0 7081.17 591.656  18
   3   2   0 7601.59 620.992  23
   3   2   0 8141.40 604.710  19
   3  -2   0 7804.85 550.054  19
   3   2   1 156505. 4418.89  19
   3   2   1 155986. 3898.93 102
   3   2   1 161708. 4469.87  96
  -3  -2  -1 164237. 4486.28  92
  -3  -2  -1 151714. 4070.44  34
   3  -2   1 165960. 4442.43  37
   3   2   1 159881. 4297.46  36
  -3  -2  -1 166135. 4429.29  35
  -3  -2  -1 161834. 4392.50  87
   3   2   1 159985. 3904.86  62
  -3  -2  -1 156947. 4467.26  41
   3  -2   1 161134. 4353.91  43
   3   2   1 159695. 4540.72  38
   3  -2   1 168594. 4589.40  38
  -3  -2  -1 160282. 4557.72  39
   3  -2   1 156988. 4355.65  46
  -3   2  -1 152335. 4450.84  45
   3   2   2 49004.8 1371.60 102
  -3  -2  -2 51524.3 1851.38  92
   3   2   2 47343.6 1565.49  94
   3  -2   2 50450.8 1893.13  37
  -3  -2  -2 50100.5 1653.01  34
   3   2   2 48886.7 1610.79  36
  -3  -2  -2 48432.8 1750.18  87
   3   2   2 48700.5 1919.79  23
   3   2   2 47747.8 1786.75  19
   3  -2   2 51611.6 1822.66  43
   3   2   2 53051.0 1978.72  38
   3  -2   2 51807.7 1982.40  38
  -3  -2  -2 50580.7 1931.92  41
   3  -2   2 45937.8 1662.60  46
  -3  -2  -2 47070.7 1879.01  39
  -3   2  -2 50324.9 1848.72  45
   3   2   3 212315. 5797.72   1
   3   2   3 204552. 5001.84 102
   3   2   3 222670. 5771.31  96
   3   2   3 202153. 5365.00  94
   3  -2   3 218354. 5669.43  94
  -3  -2  -3 220526. 5606.31  92
  -3  -2  -3 198743. 5472.04  34
  -3  -2  -3 221425. 5858.05  33
   3  -2   3 211481. 5802.05  37
   3   2   3 184343. 5085.54  36
  -3   2  -3 214342. 5795.24  29
  -3   2  -3 192442. 5284.42  86
   3  -2   3 215899. 5900.65  38
  -3  -2  -3 212829. 5819.99  41
   3  -2   3 201102. 5272.25  46
  -3  -2  -3 215472. 5772.37  39
  -3   2  -3 207476. 5581.51  45
   3   2   3 211677. 5775.61  23
   3   2   3 211674. 5550.57  19
   3   2   4 46805.7 1789.19  18
   3   2   4 48019.4 1942.86  23
   3   2   4 47769.6 1780.36  19
   3   2   4 51989.1 2075.39   1
  -3   2  -4 46490.9 1418.12 109
   3  -2   4 47927.1 1905.56  94
   3   2   4 48601.9 1992.11  96
  -3  -2  -4 48872.0 1780.40  92
   3   2   4 49499.9 1783.48  94
  -3  -2  -4 49649.4 1882.52  34
  -3  -2  -4 52002.3 2087.75  33
   3  -2   4 50312.2 2100.19  37
  -3   2  -4 48569.0 2006.80  29
  -3   2  -4 43850.4 1661.03  86
   3  -2   4 46367.4 1395.12  57
   3   2   4 47951.4 1352.92  63
   3   2   4 48639.9 2038.21  38
  -3  -2  -4 47989.0 2050.05  41
  -3  -2  -4 47739.1 1956.91  39
  -3   2  -4 45994.8 1766.00  45
   3   2   5 21626.6 1216.01  23
  -3  -2  -5 20980.5 805.672  27
  -3   2  -5 21585.4 802.311  26
   3   2   5 20637.6 1029.56  18
   3   2   5 21203.8 1071.05  19
   3   2   5 21862.1 1306.28   1
   3   2   5 19726.5 753.848 104
  -3   2  -5 22476.1 823.049 109
   3   2   5 20893.1 778.467 103
   3   2   5 21703.4 801.945  95
   3   2   5 21331.2 776.100  98
   3   2   5 20755.2 1257.30  96
   3   2   5 20757.6 1121.95  94
   3  -2   5 21883.2 1234.35  94
  -3  -2  -5 22583.4 1241.71  34
  -3  -2  -5 23108.0 1329.70  33
   3  -2   5 21397.0 1360.09  37
  -3   2  -5 21347.3 1072.93  86
   3   2   5 22023.8 808.336  88
   3   2   5 21203.1 752.789  65
   3  -2   5 21323.8 777.446  63
   3   2   5 21092.1 755.537  63
   3  -2   5 22180.5 791.232  57
  -3   2  -5 20889.6 766.332  52
   3   2   5 21719.0 1293.84  38
  -3  -2  -5 25174.3 1304.35  39
   3  -2   5 22693.0 1385.89  38
   3   2   6 79487.4 2797.05  23
  -3  -2  -6 79896.3 2243.33  27
  -3   2  -6 75528.6 2188.28  26
   3   2   6 79026.0 3018.04   1
   3   2   6 75213.3 2172.45   7
   3   2   6 78960.2 2142.33 106
   3   2   6 76744.8 2167.26 103
  -3   2  -6 78117.4 2218.41 109
   3   2   6 80335.0 2950.36  96
   3  -2   6 75470.9 2153.15  98
   3  -2   6 83389.4 2947.22  89
   3   2   6 79396.9 2202.78  98
   3   2   6 79719.0 2222.77  95
   3  -2   6 80678.4 2916.89  94
   3   2   6 80055.3 2795.16  94
  -3  -2  -6 78012.3 2916.56  34
  -3  -2  -6 81987.0 3039.55  33
  -3  -2  -6 78376.1 2182.93  80
  -3   2  -6 74274.0 2636.09  86
  -3  -2  -6 79730.7 2826.46  86
   3  -2   6 83134.5 2218.11  57
   3  -2   6 78286.5 2179.36  63
   3   2   6 80835.0 2185.79  63
   3  -2   6 81778.0 2230.74  55
  -3  -2  -6 82432.2 2254.32  69
  -3   2  -6 77295.1 2149.70  52
   3   2   6 80604.4 2988.71  38
   3  -2   6 79717.3 3147.89  37
  -3  -2  -6 80640.3 2850.13  39
   3  -2   6 85519.4 3184.26  38
   3   2   7 30831.7 1502.35  23
   3  -2   7 33551.0 1778.80  23
  -3   2  -7 32898.1 1092.97  27
  -3  -2  -7 31681.4 1157.59  27
  -3   2  -7 32144.0 1118.47  26
   3   2   7 32069.0 1773.55   1
   3   2   7 30847.4 1092.41   7
   3  -2   7 31208.9 1113.57 106
   3   2   7 32138.9 1077.10 106
  -3   2  -7 32074.5 1128.33 109
   3   2   7 34782.6 1169.59  97
   3  -2   7 33232.6 1708.03  94
   3  -2   7 34126.5 1706.21  89
   3   2   7 32530.1 1126.81  98
   3  -2   7 31979.5 1083.09  98
   3   2   7 34439.1 1678.83  94
  -3  -2  -7 33050.0 1769.76  34
  -3  -2  -7 33557.0 1784.54  33
  -3  -2  -7 32036.8 1079.18  80
  -3   2  -7 29459.7 1489.62  86
  -3  -2  -7 34248.0 1172.00  75
  -3  -2  -7 33562.2 1666.03  86
   3  -2   7 33189.6 1130.31  65
  -3   2  -7 31446.2 1055.65  52
   3  -2   7 31943.0 1101.87  63
   3  -2   7 33660.1 1158.35  55
   3  -2   7 33203.4 1167.43  58
  -3  -2  -7 33711.2 1174.57  69
   3   2   7 33091.7 1727.72  38
  -3  -2  -7 34782.3 1894.17  41
   3  -2   7 32564.6 1836.54  38
  -3  -2  -7 32152.9 1599.34  39
   3   2   7 32396.4 1111.01  49
   3  -2   8 20555.1 1365.50  23
  -3   2  -8 22081.2 845.581  27
  -3  -2  -8 22407.8 916.897  27
  -3   2  -8 21558.7 857.406  26
   3   2   8 20648.6 1432.15   1
   3   2   8 21490.7 838.546   7
   3  -2   8 22149.9 874.223 106
  -3   2  -8 22689.5 874.256 109
   3   2   8 23100.3 855.867 106
   3  -2   8 21730.2 827.449  98
   3  -2   8 20728.8 1307.38  89
   3   2   8 22967.1 905.251  97
   3  -2   8 21746.8 1390.61  94
   3   2   8 22582.6 891.894  98
   3   2   8 22219.6 1364.44  94
  -3  -2  -8 21377.3 1451.02  34
  -3  -2  -8 22463.9 1444.65  33
  -3   2  -8 21191.4 1255.24  86
  -3  -2  -8 21575.8 903.069  78
  -3  -2  -8 22163.7 901.716  75
  -3  -2  -8 21270.6 1330.92  86
   3  -2   8 21348.8 858.914  65
   3  -2   8 23010.6 921.044  60
   3  -2   8 21303.8 874.769  56
   3  -2   8 23879.9 879.648  63
   3  -2   8 23199.8 908.808  55
  -3  -2  -8 22438.3 856.202  70
   3  -2   8 20871.3 1526.56  37
  -3  -2  -8 22462.9 1511.99  41
   3  -2   8 19966.0 1418.40  38
   3   2   8 21876.2 847.253  49
  -3  -2  -9 2223.10 265.338  27
  -3   2  -9 1962.68 227.048  26
  -3   2  -9 1788.26 215.138  27
   3   2   9 1337.88 384.146   1
  -3   2  -9 1735.22 221.406 109
   3  -2   9 2105.85 246.860 106
   3   2   9 2012.23 228.130 106
   3  -2   9 2140.42 431.111  94
   3   2   9 1727.58 388.297  94
   3   2   9 1990.67 253.525  98
   3   2   9 1800.59 232.514  97
   3  -2   9 1855.03 210.032  98
  -3  -2  -9 1836.80 443.773  34
   3  -2   9 1615.01 432.858  37
  -3  -2  -9 2350.80 274.529  75
  -3  -2  -9 1369.79 345.878  86
  -3  -2  -9 1648.66 242.581  78
   3  -2   9 2014.64 388.683  89
  -3  -2  -9 1667.57 231.286  74
   3  -2   9 1947.57 231.923  65
   3  -2   9 1856.23 230.023  56
   3  -2   9 1833.97 218.236  63
  -3  -2  -9 1970.92 228.569  70
   3  -2   9 2033.84 256.567  60
   3   2   9 1797.43 215.873  49
  -3  -2  -9 1875.89 449.838  41
   3   2  10 1613.18 215.020  97
   3  -2  10 2144.59 411.565  94
   3   2  10 1536.67 363.543  94
   3  -2  10 1942.00 232.084  99
   3   2  10 1957.29 242.653  98
  -3   2 -10 2147.20 256.830 100
   3  -2  10 1979.07 220.464 106
   3   2  10 1937.99 209.191 106
  -3  -2 -10 1837.32 228.697  74
  -3  -2 -10 1444.14 203.819  77
  -3  -2 -10 1387.28 331.141  86
  -3  -2 -10 1916.60 237.013  78
   3  -2  10 1810.63 217.576  56
   3  -2  10 1672.69 230.732  60
   3  -2  10 1447.02 208.650  66
  -3  -2 -10 1771.20 204.539  70
  -3   2 -10 1758.99 200.241  27
  -3  -2 -10 1620.87 228.836  27
  -3   2 -10 1723.18 194.595  26
  -3   2 -11 18298.9 718.503 100
   3   2  11 17359.6 699.239  98
   3  -2  11 17991.8 682.073  99
  -3   2 -11 18419.0 691.310 101
   3   2  11 17029.0 645.779 106
   3  -2  11 17810.3 669.076 106
  -3  -2 -11 19181.9 714.746  78
  -3  -2 -11 17318.7 684.884  77
  -3  -2 -11 17341.6 701.189  81
   3  -2  11 18282.3 704.671  66
  -3   2 -11 17439.3 671.122  51
  -3  -2 -11 16576.2 631.042  70
  -3  -2 -11 18764.3 723.305  27
   3   2  12 4361.08 246.553   8
   3  -2  12 4664.20 251.448  99
  -3   2 -12 4523.39 273.481 100
  -3   2 -12 4372.11 253.911 101
   3   2  12 4487.02 233.521 106
   3  -2  12 4710.67 248.261 106
  -3  -2 -12 5110.61 281.918  81
  -3  -2 -12 4766.77 266.038  77
   3  -2  12 4650.59 266.562  66
  -3   2 -12 3879.01 219.324  51
  -3  -2 -12 4806.02 276.490  27
  -3  -3  12 4587.13 260.113  99
  -3  -3  12 5032.61 282.484 108
   3  -3 -12 4856.29 252.052  76
   3  -3 -12 5171.25 288.109  73
   3  -3 -12 4739.67 256.734  84
   3   3 -12 4838.97 276.986  26
  -3   3  12 4587.40 272.636   7
  -3   3  11 7346.52 404.441   6
  -3   3  11 7266.30 403.250   7
  -3  -3  11 7499.43 408.656 108
  -3  -3  11 7285.89 386.490  99
  -3  -3  11 6649.88 351.565  90
   3  -3 -11 7206.22 373.870  76
   3  -3 -11 6943.21 367.026  70
  -3  -3  11 7100.60 390.606  67
   3  -3 -11 6004.08 651.067  71
   3   3 -11 7095.97 400.770  26
   3   3 -10 14100.9 646.400 110
   3   3 -10 13282.4 574.399 101
  -3  -3  10 13989.0 608.719  99
   3  -3 -10 13031.2 994.250  29
  -3  -3  10 13219.8 1096.29  28
   3  -3 -10 11725.0 954.274  86
   3   3 -10 11750.6 1019.67  86
   3   3 -10 11890.7 522.436  85
  -3  -3  10 14351.2 639.217  67
   3  -3 -10 13876.5 592.477  70
  -3   3  10 13321.8 627.947   7
  -3   3  10 13998.5 651.225   6
  -3   3  10 13178.3 582.781   3
  -3   3   9 39439.0 1307.03   7
  -3   3   9 38905.0 1323.15   6
  -3   3   9 39843.3 1277.09   3
   3   3  -9 38746.2 1312.94 110
   3   3  -9 37027.1 1222.44 101
  -3  -3   9 39361.0 1257.46  99
   3   3  -9 37474.5 1869.40  32
   3  -3  -9 36045.0 1863.13  29
  -3  -3   9 34731.8 1966.17  28
   3  -3  -9 34065.1 1801.49  86
   3   3  -9 33893.0 1901.42  86
   3   3  -9 36297.2 1193.85  85
  -3  -3   9 37684.7 1284.34  64
   3  -3  -9 36521.3 1220.03  70
  -3   3   9 37388.3 1271.48  48
   3   3  -9 35232.4 1959.91  40
   3   3  -8 5189.94 385.814  21
  -3   3   8 5251.70 395.080   3
  -3  -3   8 4882.91 641.083   2
  -3   3   8 6346.69 425.184   7
  -3   3   8 5825.27 416.633  16
  -3   3   8 5128.39 351.109   8
   3   3  -8 5291.25 401.134 110
   3   3  -8 4915.84 356.629 101
  -3  -3   8 4370.68 570.968  92
  -3  -3   8 5276.70 366.989  99
   3  -3  -8 4986.91 654.255  29
   3  -3  -8 4435.74 685.628  34
  -3  -3   8 6305.68 822.202  28
   3   3  -8 4625.01 621.035  32
  -3  -3   8 4467.03 716.417  35
  -3  -3   8 5026.97 729.412  89
   3   3  -8 5266.03 727.277  86
   3   3  -8 5475.09 369.745  85
  -3  -3   8 4130.77 618.519  87
   3  -3  -8 5158.45 666.736  86
  -3  -3   8 5625.19 401.168  64
   3  -3  -8 6056.96 387.107  70
  -3  -3   8 4991.08 391.716  67
   3  -3  -8 4896.72 656.170  42
  -3   3   8 5170.96 394.748  48
   3   3  -8 5626.09 750.791  40
   3   3  -7 7216.28 450.371  21
  -3  -3   7 6691.33 828.620  28
  -3   3   7 6408.42 425.474   7
  -3  -3   7 7262.47 785.949   2
  -3   3   7 5764.23 765.822   2
  -3   3   7 6814.97 449.888   6
  -3   3   7 6742.68 447.086  16
  -3   3   7 6139.79 396.984   8
   3   3  -7 6924.57 451.789 110
   3   3  -7 5926.81 395.544 101
  -3  -3   7 6440.41 724.573  92
  -3  -3   7 6980.83 405.971  99
   3  -3  -7 6368.43 795.322  34
   3  -3  -7 7528.93 782.736  29
   3   3  -7 6693.03 714.640  32
   3  -3  -7 6253.68 693.311  32
  -3  -3   7 6578.39 838.555  35
  -3  -3   7 6293.09 784.247  89
   3   3  -7 4857.63 686.317  86
   3   3  -7 6555.10 410.641  85
  -3  -3   7 6309.26 760.125  87
   3  -3  -7 6165.79 705.070  86
  -3  -3   7 6443.70 430.914  64
  -3  -3   7 6887.99 450.129  59
  -3  -3   7 6396.47 434.471  67
   3  -3  -7 5852.57 698.092  42
  -3   3   7 6648.15 439.689  48
   3   3  -7 5504.96 743.115  40
  -3  -3   6 26082.2 1616.65  28
   3   3  -6 26766.5 977.944  21
  -3   3   6 24357.1 893.890  17
  -3   3   6 25011.4 921.033   8
  -3   3   6 26792.8 956.961   7
  -3   3   6 27810.6 1000.13   6
  -3   3   6 26649.3 1581.49   2
  -3   3   6 25192.4 957.647   5
  -3   3   6 26254.8 980.080  16
   3   3  -6 24344.8 909.265 101
   3   3  -6 25188.2 968.572 110
  -3  -3   6 27452.8 1541.51  92
  -3  -3   6 25040.8 883.011  99
   3   3  -6 24218.9 1333.77  32
   3  -3  -6 24174.6 1523.47  34
   3  -3  -6 24730.0 1395.28  32
  -3  -3   6 27472.4 1690.55  35
  -3  -3   6 27489.6 1623.44  31
  -3  -3   6 27070.7 1573.47  89
   3   3  -6 25838.9 1518.89  86
   3   3  -6 26461.9 947.574  85
   3   3  -6 24120.2 860.745  83
  -3  -3   6 25310.1 1547.30  87
   3  -3  -6 25782.4 1439.75  86
   3   3  -6 22820.6 880.822  51
  -3  -3   6 25737.0 946.335  64
  -3  -3   6 26840.0 978.208  59
  -3  -3   6 26462.6 977.528  67
   3  -3  -6 26729.5 1497.72  42
  -3  -3   6 22746.1 1391.60  39
  -3   3   6 26011.2 969.628  48
   3   3  -6 27481.3 1560.14  40
  -3   3   6 22778.6 1239.93  45
  -3   3   5 17006.9 693.033  17
  -3  -3   5 19904.8 1332.75  28
   3   3  -5 17258.1 729.268  21
   3   3  -5 16364.1 1038.90  18
  -3   3   5 15243.7 648.630  12
  -3   3   5 16734.2 680.861   7
  -3   3   5 17073.3 716.458   6
  -3   3   5 18302.0 1223.53   2
  -3   3   5 17173.1 723.335   5
  -3   3   5 17093.7 716.742  10
  -3   3   5 18023.7 738.323  16
  -3   3   5 16655.2 694.435   8
   3   3  -5 16792.2 714.821 110
  -3   3   5 15664.5 662.063 105
   3   3  -5 16361.3 649.985 104
  -3  -3   5 15894.2 1142.11  92
   3   3  -5 16311.1 675.132 101
  -3  -3   5 14795.9 1150.65  31
   3  -3  -5 18012.4 1240.23  34
  -3  -3   5 16717.9 1147.17  33
  -3  -3   5 16521.4 1107.64  30
   3   3  -5 16309.2 981.467  32
   3  -3  -5 15565.8 1056.41  32
   3   3  -5 16062.7 645.539  83
   3   3  -5 18315.4 718.913  85
   3   3  -5 18117.0 1192.74  86
  -3  -3   5 17151.2 1167.49  89
  -3  -3   5 16903.1 685.559  64
  -3  -3   5 16874.2 708.293  59
  -3  -3   5 17476.8 714.671  67
  -3   3   5 16529.0 649.963  54
   3  -3  -5 17351.0 1063.23  40
   3  -3  -5 17378.5 1161.27  42
  -3  -3   5 16514.3 1166.94  39
  -3   3   5 17266.1 719.717  48
   3   3  -5 18359.5 1165.80  40
  -3   3   5 15953.4 1034.07  45
  -3   3   4 21191.3 803.772  17
   3   3  -4 20195.4 768.566  20
  -3  -3   4 20928.4 1347.51  28
   3   3  -4 23053.4 1265.24  18
  -3   3   4 20231.5 776.377  12
  -3   3   4 24502.6 1349.73   2
  -3   3   4 23238.0 821.151   6
  -3   3   4 22600.0 835.510  10
  -3   3   4 21347.4 805.816   8
  -3   3   4 20094.8 778.533 105
   3   3  -4 21586.1 818.595 110
   3   3  -4 21302.1 769.299 104
  -3   3   4 19925.6 749.274 108
  -3  -3   4 23429.6 1361.49  92
  -3  -3   4 21196.7 1326.19  31
  -3  -3   4 21255.1 1285.41  33
  -3  -3   4 22808.1 1300.12  30
   3   3  -4 21539.4 1276.70  86
   3   3  -4 22251.9 813.767  85
  -3  -3   4 20182.1 1222.72  89
   3   3  -4 21584.6 768.414  83
  -3  -3   4 19898.5 1274.11  87
  -3   3   4 21230.9 776.094  54
  -3  -3   4 20295.4 750.954  64
  -3   3   4 22265.7 765.749  53
  -3  -3   4 21466.2 794.014  59
  -3  -3   4 21504.3 795.758  67
   3  -3  -4 20243.8 1273.69  44
  -3   3   4 19777.8 1183.44  45
   3  -3  -4 22485.6 1222.79  40
   3  -3  -4 21346.8 1250.41  42
  -3  -3   4 23010.7 1334.15  39
  -3   3   4 21629.0 798.122  47
   3   3  -4 22144.5 1220.26  40
  -3   3   3 24120.1 1338.27  18
  -3   3   3 25332.4 889.031  17
   3   3  -3 25566.7 1357.35  18
   3   3  -3 23535.9 862.398  22
  -3   3   3 25276.8 1304.58   2
  -3   3   3 25547.0 884.512  16
  -3   3   3 24105.8 862.207   5
  -3   3   3 24444.6 882.936  10
  -3   3   3 24911.9 880.125   8
  -3   3   3 23925.3 866.955 105
   3   3  -3 23449.6 836.920 104
   3   3  -3 24572.1 877.585 110
   3   3  -3 24510.8 1115.54  96
  -3  -3   3 23099.5 1370.90  31
  -3  -3   3 23053.5 1337.76  33
  -3  -3   3 23149.4 1330.11  30
   3   3  -3 25298.1 1417.04  36
   3  -3  -3 24623.1 1239.72  36
  -3  -3   3 24754.4 1425.21  35
  -3  -3   3 23833.7 1261.67  89
   3   3  -3 25107.1 843.718  83
   3   3  -3 24002.3 855.803  85
  -3  -3   3 25558.6 1409.08  87
  -3  -3   3 25175.0 842.871  59
  -3   3   3 22638.2 837.193  54
  -3  -3   3 24097.4 833.024  67
   3  -3  -3 24794.0 1367.14  44
  -3  -3   3 23477.8 1199.03  43
  -3   3   3 23826.0 839.629  47
  -3  -3   3 25694.6 1422.44  39
   3   3  -3 24633.1 1210.78  40
  -3   3   3 25197.9 1341.78  45
   3   3  -2 27796.7 1456.00  23
  -3   3   2 27662.3 1466.39  18
   3   3  -2 31024.6 1512.75  18
  -3   3   2 30324.7 1366.03   2
   3   3  -2 28277.1 965.823 110
   3   3  -2 29584.9 964.719 104
  -3   3   2 29758.2 990.659 105
   3   3  -2 29468.9 1292.39  96
  -3  -3   2 29534.4 1515.69  92
  -3  -3   2 30129.4 1521.64  31
  -3  -3   2 30191.2 1515.70  33
   3   3  -2 30399.7 1500.54  36
  -3  -3   2 26869.2 1453.93  30
  -3  -3   2 31065.2 1573.82  35
   3   3  -2 30648.1 960.284  83
   3   3  -2 28990.1 966.731  85
  -3  -3   2 31366.5 1356.41  89
  -3  -3   2 29165.9 1465.01  87
  -3   3   2 27547.6 952.518  54
  -3  -3   2 27309.1 900.753  59
   3  -3  -2 28030.8 1472.00  44
  -3  -3   2 28065.3 1306.78  43
  -3  -3   2 28948.4 1511.25  39
   3   3  -2 28460.2 1209.05  40
  -3   3   2 25932.5 1402.05  45
  -3   3   1 11984.7 750.488   2
   3   3  -1 12273.3 535.425 104
   3   3  -1 13074.1 826.707  96
  -3  -3   1 12194.4 914.798  92
  -3  -3   1 12180.6 917.383  31
   3  -3  -1 11220.7 708.872  37
  -3  -3   1 13669.4 968.677  33
   3   3  -1 12912.8 885.547  36
  -3  -3   1 11171.0 892.906  30
  -3  -3   1 10875.6 872.703  35
   3   3  -1 12352.9 528.848  83
  -3  -3   1 12250.2 729.243  89
  -3  -3   1 14182.3 930.644  87
  -3  -3   1 11283.3 715.118  41
  -3  -3   1 13279.5 974.309  39
   3   3  -1 13345.1 952.572  18
   3   3  -1 12767.0 935.138  23
  -3  -3   1 11803.4 920.707  28
  -3   3   0 73598.6 2662.68  18
   3   3   0 69680.3 2619.50  23
   3  -3   0 69024.8 2285.43  19
   3   3   0 74168.8 2645.62   1
  -3   3   0 72201.9 1948.54 112
   3   3   0 72637.6 1964.46 102
   3   3   0 69679.6 1944.42 104
  -3   3   0 66246.0 1962.77 105
   3   3   0 73931.8 2500.12  96
  -3  -3   0 72691.7 2610.95  92
  -3  -3   0 72319.3 2677.47  31
  -3  -3   0 73358.8 2673.00  33
   3  -3   0 66838.1 2373.54  37
   3   3   0 71740.5 2456.87  36
  -3  -3   0 74595.5 2694.77  30
  -3  -3   0 70981.7 2630.57  35
   3  -3   0 68478.9 2234.65  35
  -3  -3   0 77708.9 2551.45  87
  -3   3   0 65631.9 1933.49  54
   3  -3   0 71539.5 2500.13  43
  -3  -3   0 72320.6 2416.09  41
  -3  -3   0 77807.4 2767.24  39
  -3   3   0 70132.8 2594.88  45
   3   3   1 11605.6 893.671  18
  -3   3  -1 12295.9 907.835  18
   3   3   1 8719.09 700.229  19
   3   3   1 10777.5 845.400   1
  -3   3  -1 11204.9 500.771 112
   3   3   1 11115.2 503.877 102
   3   3   1 11013.0 504.288 103
  -3   3  -1 10152.0 500.731 105
  -3   3  -1 10143.5 492.843 109
   3   3   1 10327.1 791.723  96
  -3   3  -1 10124.3 446.807 100
  -3  -3  -1 9439.23 784.403  92
  -3  -3  -1 11200.8 887.513  31
  -3  -3  -1 10277.2 853.950  33
   3  -3   1 10953.2 817.813  37
  -3  -3  -1 10714.4 890.446  30
  -3  -3  -1 10830.0 848.951  35
  -3  -3  -1 10883.5 771.334  87
  -3   3  -1 10053.3 486.413  54
   3  -3   1 10922.9 831.883  43
  -3  -3  -1 9996.02 769.249  41
  -3  -3  -1 11156.3 903.013  39
  -3   3  -1 9906.62 815.067  45
  -3   3  -2 32068.6 1076.11  26
  -3   3  -2 33598.6 1617.19  18
   3   3   2 31634.2 1631.20  23
   3   3   2 32669.9 1438.51  19
   3   3   2 35847.7 1662.48  18
   3   3   2 34332.1 1640.35   1
  -3   3  -2 33010.6 1085.84  11
   3   3   2 33863.9 1103.29   4
  -3   3  -2 31542.3 1085.01 109
  -3   3  -2 32242.9 1084.04 105
   3   3   2 33334.8 1083.47 102
   3   3   2 32517.6 1078.00 104
  -3   3  -2 35897.1 1094.47 112
   3   3   2 31985.4 1060.33 110
   3   3   2 33111.0 1584.95  96
  -3  -3  -2 36643.5 1605.93  92
   3   3   2 32712.7 1050.85  95
  -3   3  -2 32713.0 1046.46 100
  -3  -3  -2 36346.3 1775.03  31
  -3  -3  -2 37299.4 1780.47  33
   3  -3   2 32413.4 1608.04  37
   3   3   2 32782.6 1050.42  88
  -3  -3  -2 33003.3 1429.78  87
   3   3   2 33394.4 1074.65  50
  -3   3  -2 31567.7 1058.04  54
   3  -3   2 37032.9 1657.57  43
  -3  -3  -2 33501.4 1613.08  41
   3  -3   2 33205.4 1709.76  38
  -3   3  -2 32910.6 1596.08  45
   3   3   3 11879.2 533.030  20
   3   3   3 11178.1 919.273  23
   3   3   3 10254.6 730.057  19
   3   3   3 12873.4 927.999  18
  -3   3  -3 11495.9 528.995  12
   3   3   3 11680.9 929.433   1
  -3   3  -3 12689.1 562.436  11
   3   3   3 11432.0 551.578   4
  -3   3  -3 11950.8 548.497 105
  -3   3  -3 11110.7 505.558 101
   3   3   3 10881.9 535.389 104
   3   3   3 12751.9 573.362 103
   3   3   3 11605.8 916.297  96
  -3  -3  -3 11323.2 531.837  91
  -3   3  -3 12591.6 549.060 100
   3   3   3 12595.5 551.283  95
  -3  -3  -3 11582.1 830.119  92
   3  -3   3 11648.8 820.292  94
  -3  -3  -3 13173.2 1048.44  31
  -3  -3  -3 11327.1 978.836  33
   3  -3   3 10504.5 918.828  37
   3   3   3 11764.6 534.413  88
  -3   3  -3 12224.5 553.764  52
  -3   3  -3 11336.3 521.531  54
   3  -3   3 14342.8 1085.39  38
   3   3   3 11867.5 551.150  50
  -3  -3  -3 12082.7 952.923  41
  -3  -3  -3 13086.1 1012.68  39
  -3   3  -3 12195.0 904.917  45
   3   3   4 1641.16 190.221  20
   3   3   4 1358.76 316.342  18
   3   3   4 226.230 185.378  23
  -3   3  -4 496.728 149.922  26
  -3   3  -4 422.253 144.131 109
  -3   3  -4 1448.33 183.067 105
   3   3   4 588.334 143.345 103
   3   3   4 667.481 155.093 104
   3  -3   4 294.904 157.413  94
  -3   3  -4 572.284 144.250 100
  -3   3  -4 507.636 125.637 101
   3   3   4 425.871 123.218  95
   3   3   4 623.148 246.745   1
  -3   3  -4 564.162 129.392  12
  -3   3  -4 518.653 140.171  11
   3   3   4 520.027 140.435   4
  -3  -3  -4 555.360 278.132  31
   3  -3   4 586.952 281.675  37
  -3   3  -4 1212.15 184.246  52
   3  -3   4 672.759 131.901  57
  -3   3  -4 1286.15 164.825  54
  -3   3  -4 1140.53 293.568  45
  -3  -3  -4 726.679 293.798  39
   3   3   4 893.619 168.723  50
   3  -3   4 728.344 302.996  38
  -3  -3  -4 627.094 268.915  41
   3   3   5 30465.2 1605.39  23
   3   3   5 31538.6 1493.99  18
  -3   3  -5 32274.8 1139.91  26
  -3   3  -5 30857.5 1074.89  11
   3   3   5 36556.6 1807.98   1
   3   3   5 31780.5 1105.80   4
   3   3   5 32174.4 1118.06 104
  -3   3  -5 32405.6 1091.77 101
  -3   3  -5 32608.2 1149.10 109
   3   3   5 32418.0 1121.54 103
   3   3   5 32739.5 1750.84  96
  -3   3  -5 32811.4 1135.27 100
   3  -3   5 34239.0 1788.41  89
   3  -3   5 29690.2 1518.83  94
   3   3   5 31479.3 1042.72  98
   3   3   5 33205.5 1140.00  97
  -3  -3  -5 33532.8 1827.33  33
   3  -3   5 32157.0 1838.44  37
   3  -3   5 32461.5 1067.26  57
   3  -3   5 34301.0 1107.64  55
  -3   3  -5 31832.0 1107.91  52
  -3  -3  -5 32075.4 1799.53  41
  -3  -3  -5 34920.5 1812.30  39
   3   3   6 35382.9 1694.61  23
  -3  -3  -6 35141.5 1194.04  27
  -3   3  -6 35858.7 1248.32  26
  -3   3  -6 36248.7 1174.33  11
   3   3   6 37028.9 1894.71   1
   3   3   6 35242.5 1199.63   4
  -3   3  -6 36363.2 1214.43 101
   3  -3   6 35322.9 1169.48 106
  -3   3  -6 34853.4 1245.94 109
   3  -3   6 34158.9 1861.75  89
   3   3   6 37939.8 1194.89  98
  -3   3  -6 37591.7 1269.86 100
   3  -3   6 37563.9 1735.33  94
   3  -3   6 33002.1 1994.71  37
  -3  -3  -6 35859.3 1965.13  33
  -3   3  -6 35982.7 1892.07  29
  -3   3  -6 33519.9 1620.92  86
  -3   3  -6 36390.7 1216.09  52
   3  -3   6 36372.9 1215.48  55
  -3  -3  -6 37239.8 1279.75  69
  -3  -3  -6 35397.6 1968.93  41
  -3  -3  -6 35759.8 1879.32  39
   3   3   6 37501.8 1267.29  49
   3  -3   6 37661.5 2061.82  38
  -3  -3  -7 150380. 3961.37  27
  -3   3  -7 154369. 4020.24  26
   3   3   7 152202. 3952.39  17
   3   3   7 147120. 3921.48   4
   3   3   7 157693. 4982.04   1
  -3   3  -7 151431. 4017.29 109
   3  -3   7 152489. 3916.83 106
  -3   3  -7 156002. 3991.07 101
   3   3   7 157363. 3956.80  98
   3  -3   7 154382. 4997.69  89
   3  -3   7 149815. 4668.14  94
  -3   3  -7 156135. 4063.50 100
  -3  -3  -7 154410. 5136.80  33
  -3   3  -7 159846. 5097.62  29
  -3  -3  -7 149243. 3911.99  80
  -3  -3  -7 152597. 4040.43  75
  -3  -3  -7 151374. 4867.31  86
   3  -3   7 153929. 4029.44  58
   3  -3   7 157324. 4044.07  56
   3  -3   7 155603. 3984.24  55
  -3  -3  -7 158555. 4061.18  69
   3  -3   7 148132. 3904.59  65
  -3  -3  -7 164791. 5253.86  41
   3  -3   7 154707. 5261.22  37
  -3  -3  -7 155253. 4959.71  39
   3  -3   7 146095. 5109.23  38
   3   3   7 153279. 4010.07  49
   3  -3   8 29291.9 1731.52  23
  -3  -3  -8 32976.3 1126.32  27
  -3   3  -8 33856.6 1169.99  26
   3   3   8 31127.8 1064.79  17
  -3   3  -8 33249.0 1147.67 101
   3  -3   8 30914.0 1068.15 106
  -3   3  -8 30721.8 1124.80 109
   3   3   8 32904.4 1174.87  97
   3  -3   8 32602.7 1771.41  89
   3   3   8 34343.8 1138.92  98
  -3  -3  -8 31277.5 1668.41  30
  -3   3  -8 34028.5 1854.88  29
  -3  -3  -8 33092.3 1183.01  75
  -3  -3  -8 32683.1 1710.06  86
   3  -3   8 33527.4 1081.85  65
   3  -3   8 32255.1 1152.50  60
  -3  -3  -8 33685.7 1189.49  69
   3  -3   8 33796.9 1181.06  58
   3   3   8 32091.4 1146.46  49
  -3  -3  -9 35356.0 1165.58  27
  -3   3  -9 35609.5 1188.68  26
   3  -3   9 34622.7 1113.83 106
  -3   3  -9 36304.2 1192.39 101
   3   3   9 35968.5 1220.14  97
   3   3   9 35775.1 1178.03  98
  -3  -3  -9 31641.8 1666.46  86
  -3  -3  -9 36120.8 1225.80  78
  -3  -3  -9 36586.9 1219.08  75
   3  -3   9 36479.6 1222.21  58
  -3   3  -9 38422.0 1247.82  51
  -3  -3  -9 34672.9 1163.98  70
   3  -3   9 36256.6 1208.98  60
  -3  -3  -9 33334.0 1876.64  41
   3   3   9 35103.3 1175.88  49
  -3  -3 -10 29340.0 949.034  27
  -3   3 -10 29220.8 956.703  26
   3  -3  10 27150.5 882.277 106
  -3   3 -10 29121.8 969.897 101
  -3   3 -10 29756.6 1015.54 100
   3   3  10 28435.5 962.551  98
   3   3  10 30500.4 1014.93   8
  -3  -3 -10 31293.0 1013.70  78
  -3  -3 -10 29900.8 992.351  77
  -3  -3 -10 29000.0 982.080  75
  -3  -3 -10 29781.4 1006.02  81
  -3   3 -10 28968.0 988.973  51
   3  -3  10 27930.9 919.200  59
   3  -3  10 29315.9 990.916  56
   3  -3  10 29530.8 983.758  60
   3  -3  10 29419.0 1000.51  66
  -3  -3 -10 28546.2 943.136  70
   3   3  10 28214.0 939.342  49
   3   3  11 742.816 124.758  48
   3   3  11 809.178 125.399  98
  -3   3 -11 782.487 119.155 101
  -3   3 -11 752.604 128.705 100
   3  -3  11 835.559 131.222  99
   3   3  11 766.909 126.893   8
  -3  -3 -11 871.190 127.993  78
  -3  -3 -11 968.667 135.449  77
  -3  -3 -11 909.789 136.727  81
   3  -3  11 923.348 134.581  66
   3  -3  11 750.974 112.142  64
  -3   3 -11 834.678 124.378  51
  -3  -3 -11 795.033 103.244  27
  -3  -3 -12 10869.9 372.983  81
  -3  -3 -12 10052.5 353.026  77
  -3   3 -12 10412.3 371.460  15
   3  -3  12 10528.8 360.999  99
   3   3  12 9313.99 357.269  48
  -3  -4  11 7359.06 317.638 108
  -3  -4  11 6228.39 287.861  90
  -3   4  11 7733.71 340.327   4
   3  -4 -11 6034.04 259.453  84
  -3   4  11 6618.06 297.322  47
   3   4 -11 7330.65 318.504  26
   3   4 -10 2832.95 231.726  26
  -3  -4  10 3069.11 241.877 108
  -3  -4  10 2542.26 229.182  90
   3  -4 -10 2827.43 202.951  76
  -3  -4  10 3292.71 250.507  67
   3   4 -10 2873.14 223.110  13
  -3   4  10 2901.56 229.986   7
  -3   4  10 2766.46 229.301  47
  -3   4   9 3126.87 268.317   7
  -3   4   9 3365.21 285.078   3
  -3   4   9 2852.83 255.973  47
  -3  -4   9 3660.56 299.563  67
   3   4  -9 3638.02 290.541  26
   3   4  -8 32152.0 1079.48  26
  -3   4   8 31498.6 1061.88   7
  -3   4   8 31023.0 1099.60   6
  -3   4   8 31669.9 1107.17   3
  -3   4   8 27056.0 999.636   8
   3   4  -8 31231.5 1113.96 110
  -3  -4   8 27758.2 1541.43  92
  -3  -4   8 27829.0 1693.29  28
  -3  -4   8 27792.2 1658.52  89
   3  -4  -8 28959.0 1549.98  86
   3  -4  -8 29024.6 1001.99  70
  -3  -4   8 31691.4 1102.32  67
   3  -4  -8 28008.7 1727.84  41
  -3   4   8 31720.5 1068.73  47
   3   4  -7 47661.7 1546.03  21
  -3  -4   7 45129.7 2313.36  28
  -3   4   7 42550.6 1411.85  17
   3   4  -7 50327.0 1515.59  26
  -3   4   7 49574.4 1563.07   6
  -3   4   7 49818.3 1501.83   7
  -3   4   7 48349.4 1560.56  16
  -3   4   7 46103.9 1487.21   8
  -3   4   7 48211.8 1564.10   3
   3   4  -7 48794.1 1561.39 110
  -3  -4   7 45681.8 2193.49  92
  -3  -4   7 45103.8 2221.11  89
   3  -4  -7 46145.2 2103.09  86
  -3  -4   7 47533.8 1478.16  64
  -3  -4   7 48687.1 1537.83  67
  -3   4   7 47773.2 1493.63  47
  -3  -4   6 34463.3 1977.20  28
  -3   4   6 32969.8 1167.03  17
   3   4  -6 37099.7 1190.31  26
  -3   4   6 36253.9 1175.12   7
  -3   4   6 34923.3 1922.76   2
  -3   4   6 35954.7 1233.87   6
  -3   4   6 31229.3 1093.79  12
  -3   4   6 34127.9 1203.47   8
  -3   4   6 37523.1 1273.10   3
   3   4  -6 34762.7 1244.73 110
  -3  -4   6 33807.5 1875.06  92
   3  -4  -6 32376.7 1852.40  34
  -3  -4   6 30815.4 1950.21  35
  -3  -4   6 30758.3 1811.97  31
  -3  -4   6 33684.5 1842.85  89
   3  -4  -6 33199.3 1733.92  86
  -3   4   6 34164.4 1098.19  54
  -3  -4   6 34988.8 1152.64  64
  -3  -4   6 36265.1 1222.66  59
  -3  -4   6 36064.4 1217.89  67
  -3   4   6 35199.7 1183.07  47
   3   4  -5 9349.10 493.678  20
  -3  -4   5 13825.6 1182.56  28
   3   4  -5 10223.7 890.324  18
   3   4  -5 10471.0 516.027  26
  -3   4   5 9457.27 535.024  17
   3   4  -5 10126.5 560.518  21
  -3   4   5 10825.0 517.809   7
  -3   4   5 11046.4 1021.23   2
  -3   4   5 10756.7 561.619   6
   3   4  -5 9547.70 498.650  12
  -3   4   5 10697.8 566.829  10
  -3   4   5 8802.44 495.320  12
  -3   4   5 10350.2 561.543   8
  -3   4   5 10060.2 563.225  16
   3   4  -5 11207.2 595.238 110
  -3  -4   5 11379.4 1055.19  92
  -3  -4   5 9533.75 943.850  31
   3  -4  -5 8351.98 877.508  34
  -3  -4   5 8958.16 836.906  30
  -3  -4   5 9327.01 1017.48  35
  -3  -4   5 8825.60 876.589  89
  -3  -4   5 9164.80 954.257  87
  -3  -4   5 10033.3 492.731  64
  -3   4   5 10377.0 514.282  54
  -3   4   5 9899.94 496.655  53
  -3  -4   5 10574.0 541.264  59
  -3  -4   5 10244.9 538.497  67
  -3  -4   5 9087.34 877.127  39
  -3   4   5 10049.4 520.811  47
  -3   4   4 13253.3 654.351  17
   3   4  -4 13992.4 636.540  20
   3   4  -4 14586.2 1102.78  18
  -3  -4   4 14710.7 1220.69  28
   3   4  -4 13895.6 590.481  26
   3   4  -4 13801.3 663.615  21
  -3   4   4 13382.2 638.702  12
  -3   4   4 12925.7 1075.56   2
  -3   4   4 13073.1 590.795  11
  -3   4   4 14706.0 682.570  10
  -3   4   4 14920.5 681.315  16
  -3   4   4 14211.1 676.226   8
   3   4  -4 12795.9 578.054 104
   3   4  -4 14591.9 691.990 110
  -3  -4   4 12957.3 1096.55  31
   3  -4  -4 11018.5 990.866  34
  -3  -4   4 13370.2 1040.48  33
  -3  -4   4 14556.0 1082.75  30
  -3  -4   4 13293.9 1021.93  89
  -3  -4   4 11688.5 1061.28  87
  -3   4   4 14120.3 625.622  53
  -3  -4   4 13605.2 617.172  59
  -3   4   4 14695.5 645.050  54
  -3  -4   4 14093.2 624.140  67
  -3   4   4 14047.2 1085.86  45
  -3  -4   4 13151.4 1077.47  39
  -3   4   4 14140.9 618.311  47
   3   4  -3 17602.7 751.957  20
  -3   4   3 18107.5 1286.49  18
  -3  -4   3 17395.1 1333.08  28
  -3   4   3 17948.8 781.364  17
   3   4  -3 17525.7 753.433  21
   3   4  -3 17601.3 1249.26  18
  -3   4   3 17998.1 1199.26   2
  -3   4   3 17710.9 761.437  12
  -3   4   3 17547.3 754.855  16
  -3   4   3 17333.3 723.420  11
  -3   4   3 18097.1 784.674  10
  -3   4   3 18613.6 793.455   8
   3   4  -3 18697.0 782.111 102
   3   4  -3 18579.7 788.191 110
   3   4  -3 18423.4 722.818 104
  -3   4   3 17598.1 765.551 105
  -3  -4   3 20649.0 1399.67  92
  -3  -4   3 16619.8 1257.49  31
  -3  -4   3 16287.1 1179.77  33
  -3  -4   3 17305.7 1217.51  30
  -3  -4   3 17533.6 1121.91  89
  -3  -4   3 18863.2 1297.88  87
  -3   4   3 19502.1 767.705  53
  -3   4   3 17694.4 748.971  54
  -3  -4   3 18237.7 702.639  59
  -3  -4   3 17173.3 692.590  67
  -3  -4   3 16326.7 1128.91  43
  -3  -4   3 18561.0 1298.03  39
   3  -4  -3 15998.4 1089.87  42
  -3   4   3 17367.8 701.730  47
  -3   4   3 16419.5 688.383  50
  -3   4   3 17974.7 1254.77  45
   3   4  -2 57221.5 1720.69  20
  -3   4   2 57222.0 2509.41  18
   3   4  -2 55092.2 1675.93  21
   3   4  -2 57959.3 2484.31  18
  -3   4   2 55279.7 1712.54  20
  -3   4   2 57228.6 1724.01  12
  -3   4   2 56149.8 1640.80   9
  -3   4   2 57314.2 1692.34  11
   3   4  -2 56114.6 1629.21  17
  -3   4   2 54860.4 1676.51  16
  -3   4   2 57158.2 1737.48 105
   3   4  -2 56738.0 1723.43 102
   3   4  -2 57188.6 1673.45 104
   3   4  -2 53624.9 1616.28 103
   3   4  -2 58736.1 1736.37 110
  -3  -4   2 56021.1 2496.77  92
  -3  -4   2 57545.6 2489.03  31
  -3  -4   2 55123.0 2413.50  33
  -3  -4   2 56852.0 2462.37  30
  -3  -4   2 57277.0 2574.41  35
  -3  -4   2 54264.7 2377.61  87
  -3   4   2 52291.8 1607.07  50
  -3   4   2 59205.9 1721.60  53
  -3   4   2 54080.6 1595.71  52
  -3   4   2 57345.8 1713.46  54
   3  -4  -2 53109.4 2395.96  44
  -3  -4   2 53954.1 2269.29  43
  -3  -4   2 59435.8 2548.33  39
  -3   4   2 55351.1 2429.23  45
   3   4  -1 28305.2 1030.11  20
   3   4  -1 31650.9 1722.76  18
   3   4  -1 27519.6 969.237  21
  -3   4   1 28475.4 1044.11  17
  -3   4   1 28198.2 1016.83  11
  -3   4   1 27695.0 987.599   9
  -3   4   1 26004.8 952.567  16
   3   4  -1 26984.5 973.377  17
   3   4  -1 28768.0 981.122 103
   3   4  -1 30119.9 1019.10 104
  -3   4   1 27888.8 1000.47 112
   3   4  -1 27942.6 1022.77 110
   3   4  -1 26532.5 1313.49  96
  -3  -4   1 30130.7 1667.80  92
  -3  -4   1 26373.7 1578.40  31
  -3  -4   1 27381.0 1596.79  33
  -3  -4   1 28386.4 1636.88  30
  -3  -4   1 27767.9 1672.76  35
  -3  -4   1 28006.1 1524.49  87
  -3   4   1 28654.5 1031.99  53
  -3   4   1 25334.8 921.576  50
  -3   4   1 27443.6 955.831  52
   3  -4  -1 27875.4 1612.55  44
  -3  -4   1 29358.2 1715.97  39
  -3   4   0 40630.9 2041.72  18
   3   4   0 38568.4 1232.92  21
  -3   4   0 40243.3 1337.32  20
  -3   4   0 41806.9 1358.76  17
  -3  -4   0 45662.9 2178.38  28
   3   4   0 40040.4 1264.09  13
  -3   4   0 41060.4 1348.33  12
  -3   4   0 42646.7 1354.95  11
   3   4   0 41835.0 1320.89  17
  -3   4   0 36084.1 1223.85  16
  -3   4   0 38731.0 1342.71 105
   3   4   0 42113.1 1317.36 103
   3   4   0 40927.4 1318.41 104
   3   4   0 41485.0 1355.14 102
   3   4   0 39352.0 1321.78 110
  -3   4   0 41845.0 1315.37 112
   3   4   0 39225.3 1764.47  96
  -3  -4   0 42085.0 1999.54  92
  -3  -4   0 40746.3 2030.49  31
  -3  -4   0 38617.9 1996.18  33
  -3  -4   0 42086.2 2086.58  30
  -3  -4   0 39851.9 2043.76  35
  -3  -4   0 42354.0 1881.36  87
  -3   4   0 38595.2 1225.84  51
  -3   4   0 40975.2 1294.91  52
  -3   4   0 43999.0 1361.17  54
   3  -4   0 37859.0 1909.02  43
  -3  -4   0 46759.1 2209.17  39
  -3   4   0 42179.5 2045.93  45
   3   4   1 33075.4 1171.70  20
  -3   4  -1 33084.1 1820.92  18
  -3   4  -1 33969.3 1179.75  17
   3   4   1 34971.0 1849.81  18
  -3   4  -1 33943.2 1176.16  20
  -3   4  -1 34474.6 1184.70  12
   3   4   1 36592.1 1200.93  17
  -3   4  -1 34142.7 1099.44  15
  -3   4  -1 32714.2 1161.96  13
   3   4   1 30936.7 1057.55  13
   3   4   1 36100.9 1180.21 103
   3   4   1 33438.1 1181.34 102
  -3   4  -1 33808.8 1199.27 105
   3   4   1 32714.8 1158.51 110
   3   4   1 34939.8 1189.46 104
  -3   4  -1 36224.7 1165.92 112
   3   4   1 35992.0 1700.34  96
  -3  -4  -1 36945.4 1809.48  92
  -3  -4  -1 36295.1 1893.17  31
  -3  -4  -1 36648.1 1924.88  33
   3  -4   1 29773.6 1636.51  37
  -3  -4  -1 34677.5 1895.18  30
  -3  -4  -1 34582.1 1867.67  35
  -3  -4  -1 34266.8 1113.82  79
  -3  -4  -1 31471.8 1563.25  87
  -3   4  -1 35560.6 1164.56  52
  -3   4  -1 32245.4 1103.56  51
  -3   4  -1 34494.3 1175.41  54
   3   4   1 35014.6 1183.24  50
   3  -4   1 31136.4 1731.96  43
   3  -4   1 34185.8 1880.66  38
  -3  -4  -1 33603.9 1906.80  39
  -3   4  -1 35026.2 1838.32  45
   3   4   2 26733.6 997.648  20
  -3   4  -2 27084.6 1598.50  18
  -3   4  -2 26838.1 993.672  26
  -3   4  -2 26873.6 1000.44  17
  -3   4  -2 25827.3 982.826  20
   3   4   2 28704.1 1630.79  18
  -3   4  -2 26896.6 1018.31 105
   3   4   2 27858.2 1014.55 103
   3   4   2 26636.3 920.218  97
   3   4   2 26939.7 1495.96  96
  -3  -4  -2 26616.3 1482.58  92
  -3   4  -2 26605.3 995.502  12
  -3   4  -2 28021.8 1027.72  11
   3   4   2 27412.6 1038.61   4
   3   4   2 28377.0 1029.56  17
  -3   4  -2 27086.2 959.232  15
   3   4   2 28188.1 969.758   8
   3   4   2 25140.7 1500.74   1
  -3   4  -2 26871.5 993.627  13
  -3  -4  -2 26305.3 1631.95  31
  -3  -4  -2 27113.0 1668.27  33
  -3  -4  -2 29487.2 1734.22  30
   3  -4   2 25772.9 1554.45  37
  -3  -4  -2 28497.5 1669.12  35
   3   4   2 28156.3 1017.80  50
  -3   4  -2 26533.8 970.873  51
  -3   4  -2 26458.9 990.557  54
  -3   4  -2 26907.3 994.236  52
   3  -4   2 25556.6 1563.64  43
  -3  -4  -2 27115.3 1499.99  41
   3  -4   2 28025.4 1708.07  38
  -3  -4  -2 27563.8 1702.56  39
  -3   4  -2 26842.1 1578.08  45
  -3   4  -3 69143.0 2029.14  26
   3   4   3 67668.1 1989.14  20
   3   4   3 69164.1 2782.67  18
   3   4   3 68474.1 2026.00 103
   3   4   3 68851.5 1957.14  97
   3   4   3 70304.5 2796.83  96
  -3  -4  -3 64857.8 2532.90  92
   3  -4   3 68435.8 2881.36  89
  -3   4  -3 67126.4 1987.48  12
   3   4   3 70230.5 2762.47   1
  -3   4  -3 70610.5 2040.93  11
  -3   4  -3 65315.0 1973.54  13
   3   4   3 67487.2 2043.26   4
   3   4   3 70581.8 2050.39  17
   3   4   3 71753.0 2013.94   8
  -3  -4  -3 66793.3 2911.20  31
  -3  -4  -3 70431.6 2983.26  33
   3  -4   3 63818.1 2811.13  37
  -3  -4  -3 69322.0 2880.57  35
  -3   4  -3 70543.4 2014.48  51
  -3   4  -3 68741.4 1990.14  54
   3  -4   3 63842.7 2944.35  38
  -3  -4  -3 62429.9 2675.54  41
   3   4   3 70790.6 2039.03  50
  -3   4  -3 67781.0 2743.60  45
   3   4   4 29959.1 1065.62  20
  -3   4  -4 31161.8 1138.19  26
   3   4   4 29598.4 1623.71  18
   3   4   4 30305.0 1140.27 104
   3   4   4 33369.8 1115.40  97
   3  -4   4 34357.3 1871.42  89
  -3   4  -4 32122.6 1132.77 100
   3  -4   4 33854.0 1987.15  38
   3   4   4 33520.8 1165.45  50
  -3  -4  -4 30252.8 1748.59  41
  -3  -4  -4 32413.7 1893.30  39
  -3  -4  -4 31037.8 1858.33  31
  -3  -4  -4 36562.2 2001.99  33
   3  -4   4 31915.1 1866.32  37
  -3  -4  -4 29829.7 1761.06  35
  -3   4  -4 33015.3 1152.82  51
  -3   4  -4 32760.0 1147.19  52
  -3   4  -4 29509.2 1059.49  54
  -3   4  -4 29442.8 1062.13  13
  -3   4  -4 30348.5 1073.43  12
   3   4   4 30211.7 1066.17  12
  -3   4  -4 32399.2 1139.22  11
   3   4   4 32578.7 1162.13   4
   3   4   4 29893.7 1665.92   1
   3   4   4 32425.9 1135.57   8
   3   4   5 13040.4 589.709  12
  -3   4  -5 15381.5 684.892  11
   3   4   5 16198.6 722.361  17
   3   4   5 14267.6 691.776   4
  -3   4  -5 14067.5 618.307  13
   3   4   5 15250.2 709.270   8
   3   4   5 14727.5 1114.11   1
   3   4   5 14547.3 673.260  97
   3  -4   5 14270.2 1180.01  89
  -3   4  -5 14815.7 694.614 100
  -3  -4  -5 15522.3 1227.23  41
   3   4   5 15106.1 627.507  48
  -3  -4  -5 15411.9 1271.73  39
  -3  -4  -5 14172.7 1243.85  31
  -3  -4  -5 13989.3 1218.57  33
   3  -4   5 12513.7 1180.61  37
  -3  -4  -5 15455.1 1243.41  30
  -3   4  -5 15119.6 698.650  52
  -3   4  -5 15951.4 724.438  51
   3   4   5 13188.2 592.940  20
   3  -4   6 51704.0 2584.36  38
  -3  -4  -6 54727.3 2533.05  41
   3   4   6 56199.4 1725.13  49
   3   4   6 51647.1 1587.56  48
  -3  -4  -6 50344.8 2447.73  39
   3   4   6 55800.7 1688.54  97
  -3   4  -6 53285.9 1690.19 100
  -3  -4  -6 52005.6 2534.85  31
   3  -4   6 49632.3 2546.49  37
  -3  -4  -6 53016.8 2478.63  30
   3  -4   6 55216.6 1667.91  58
   3  -4   6 54702.4 1687.85  56
  -3  -4  -6 53940.0 1712.13  69
  -3   4  -6 52907.1 1626.27  11
   3   4   6 52911.4 1667.75  17
   3   4   6 52680.8 1660.04   4
   3   4   6 56334.0 1712.00   8
  -3   4  -7 14767.5 638.059  11
   3   4   7 16205.9 693.926   4
   3   4   7 16438.6 699.130  17
   3   4   7 17099.5 755.159   8
  -3  -4  -7 16424.1 1276.80  41
   3   4   7 16565.9 735.795  49
   3   4   7 17342.3 693.014  48
   3   4   7 16271.2 723.404  97
   3  -4   7 15257.6 1204.07  89
  -3   4  -7 16810.2 748.121 100
  -3  -4  -7 16827.8 1232.23  30
  -3  -4  -7 14930.5 1129.74  86
   3  -4   7 16548.3 728.481  56
   3  -4   7 16556.7 691.270  60
  -3  -4  -7 17855.3 764.614  69
   3  -4   7 17163.6 718.167  58
  -3   4  -7 16743.9 739.707  26
   3   4   8 2616.29 268.586   8
   3   4   8 1857.24 202.745   4
   3   4   8 1899.84 223.652  49
   3   4   8 1876.38 208.998  48
  -3   4  -8 2005.14 242.406 100
  -3  -4  -8 1937.06 400.015  30
  -3  -4  -8 2263.86 402.270  86
  -3  -4  -8 2287.20 243.294  75
   3  -4   8 1633.27 208.813  58
   3  -4   8 2256.66 233.612  56
  -3   4  -8 1998.89 239.752  51
   3  -4   8 2159.19 217.034  60
  -3  -4  -8 2251.14 246.826  69
   3   4   8 2024.62 205.203  17
   3  -4   8 1552.24 377.755  23
  -3   4  -8 1889.37 229.100  26
   3   4   9 6013.87 351.447  49
   3   4   9 6415.47 344.932  48
   3  -4   9 6612.48 370.421  99
  -3   4  -9 6088.62 337.123   9
   3   4   9 6753.05 381.735   8
  -3  -4  -9 6348.14 366.593  78
  -3  -4  -9 5979.98 349.900  75
  -3  -4  -9 6336.52 368.501  74
  -3  -4  -9 5741.48 335.012  70
   3  -4   9 5945.14 357.940  56
   3  -4   9 5968.04 321.463  60
  -3   4  -9 6434.88 374.123  51
   3  -4   9 6308.88 355.110  59
   3  -4   9 6193.24 350.915  66
  -3   4  -9 6345.48 361.645  26
   3  -4  10 35495.9 1029.77  99
  -3  -4 -10 34387.1 1029.38  74
  -3  -4 -10 35191.0 1019.10  78
  -3  -4 -10 33512.9 1010.85  77
  -3  -4 -10 36572.5 1042.37  81
   3  -4  10 34812.8 1020.44  64
  -3   4 -10 34324.4 1023.86  51
   3  -4  10 34963.0 1012.52  66
   3   4  10 33005.8 985.924  48
   3   4  11 8619.68 307.959   8
  -3   4 -11 8707.42 311.500  15
  -3   5  10 3447.06 181.595   4
  -3   5  10 3660.16 184.427 112
  -3   5   9 6991.39 330.806   4
   3   5  -9 6288.81 290.875  11
   3   5  -9 6562.29 309.328  13
  -3  -5   9 6832.73 331.985  90
  -3  -5   9 6430.46 315.601  67
  -3   5   9 6764.73 327.714 112
  -3  -5   8 4744.66 296.491  67
  -3   5   8 5112.97 316.937   4
   3   5  -8 5031.01 309.005  13
  -3  -5   8 5199.28 327.141  90
  -3  -5   7 3007.36 253.850  67
   3   5  -7 2959.99 271.293  13
  -3   5   7 3622.62 282.932   4
   3   5  -6 398.699 157.780 110
   3   5  -6 266.764 105.349 102
  -3   5   6 486.131 152.156   3
   3   5  -6 495.054 164.178  13
  -3   5   6 236.885 126.285  17
  -3   5   6 467.346 145.140   4
  -3   5   6 476.082 151.358   8
  -3  -5   6 468.677 237.854  92
  -3  -5   6 317.141 114.411  67
  -3  -5   6 217.949 213.152  28
   3   5  -5 4416.97 361.615 110
  -3   5   5 3968.81 331.978 112
   3   5  -5 3836.00 313.985 102
   3   5  -5 4154.88 300.257  12
  -3   5   5 4638.37 343.711   4
  -3   5   5 4571.48 361.224   8
  -3   5   5 4657.60 360.001   3
  -3   5   5 3447.67 294.604  12
  -3  -5   5 3835.86 614.630  92
  -3  -5   5 3889.56 294.180  67
  -3  -5   5 3286.88 584.259  28
  -3   5   5 4312.53 348.057  17
   3   5  -5 4319.50 306.992  20
   3   5  -4 1830.58 254.814 110
   3   5  -4 1492.58 215.733 102
  -3   5   4 1800.88 247.323 112
   3   5  -4 1699.07 236.592  13
  -3   5   4 1839.19 234.821  12
   3   5  -4 1901.01 224.773  12
  -3   5   4 1442.66 174.567  11
  -3   5   4 1589.86 244.051  17
  -3   5   4 1663.31 240.958  10
  -3   5   4 1543.15 220.455  16
  -3   5   4 1915.82 252.649   3
  -3   5   4 1984.58 234.182   4
  -3   5   4 1851.48 221.175  54
  -3   5   4 1814.11 222.999  53
  -3  -5   4 1608.43 189.920  67
  -3  -5   4 1580.69 416.768  28
   3   5  -4 1788.29 230.155  20
   3   5  -3 58866.9 1771.96  20
  -3  -5   3 56955.5 2677.68  28
   3   5  -3 60529.0 1757.73  21
  -3   5   3 57334.9 1805.62  17
  -3   5   3 58671.2 1758.67 112
   3   5  -3 55520.3 1786.43 110
   3   5  -3 54183.0 1631.61 104
   3   5  -3 59132.3 1782.35 102
  -3  -5   3 56193.3 1698.19  90
  -3  -5   3 56228.6 2607.09  92
   3   5  -3 59457.9 1788.45  13
  -3   5   3 55118.3 1760.76  12
   3   5  -3 60097.5 1772.94  12
  -3   5   3 57006.2 1689.54  11
  -3   5   3 59395.5 1804.46  10
  -3   5   3 57697.8 1680.56   4
  -3   5   3 57120.3 1719.81  16
  -3   5   3 57294.6 1746.35   3
  -3  -5   3 52595.1 2351.88  30
  -3   5   3 59831.7 1764.60  53
  -3   5   3 60894.8 1775.67  54
  -3   5   3 54872.5 1662.29  50
   3   5  -2 5118.12 341.340  17
   3   5  -2 5147.50 395.355  20
   3   5  -2 5506.93 369.473  21
   3   5  -2 5828.98 765.487  18
  -3  -5   2 5831.80 797.737  28
  -3   5   2 5341.21 412.875  17
   3   5  -2 4980.26 396.353 110
  -3   5   2 5155.02 382.359 112
   3   5  -2 4748.76 340.382 104
   3   5  -2 6050.33 420.393 102
  -3  -5   2 4861.52 699.637  92
  -3  -5   2 4921.93 338.334  90
  -3   5   2 4848.66 390.937  12
   3   5  -2 6173.33 422.520  12
  -3   5   2 4702.36 361.047  11
  -3   5   2 4677.16 343.575  16
  -3   5   2 4786.57 355.586   3
   3   5  -2 6031.36 406.209  13
  -3  -5   2 4666.58 647.335  30
  -3   5   2 5799.98 409.772  53
  -3   5   2 5502.30 396.246  54
  -3   5   2 4808.13 340.712  50
  -3  -5   2 4980.20 705.351  39
   3   5  -1 21278.8 859.249  20
  -3  -5   1 19606.4 1475.36  28
   3   5  -1 19834.5 781.475  17
   3   5  -1 18848.3 1389.62  18
  -3   5   1 18785.9 833.765  17
   3   5  -1 20432.8 844.965  12
  -3   5   1 18755.7 801.909  11
  -3   5   1 16229.9 694.995  16
  -3   5   1 19243.1 755.964   9
  -3   5   1 18460.4 734.260   3
  -3   5   1 20256.6 854.765  10
   3   5  -1 19480.0 782.231  13
   3   5  -1 17864.5 806.773 110
   3   5  -1 19709.6 783.294 104
   3   5  -1 17440.8 719.592 103
  -3   5   1 19288.8 790.027 112
   3   5  -1 19295.3 831.137 102
  -3  -5   1 18917.1 1364.87  92
  -3  -5   1 17659.4 1301.08  31
  -3  -5   1 21336.6 1427.59  30
  -3  -5   1 20203.7 1491.40  35
  -3   5   1 20904.1 853.739  53
  -3   5   1 17472.3 728.076  50
  -3  -5   1 15510.2 1196.17  43
   3  -5  -1 18282.8 1321.03  43
  -3  -5   1 18628.8 1409.46  39
  -3   5   0 4101.08 359.923  17
  -3   5   0 4545.05 702.314  18
  -3   5   0 4013.61 357.569  12
  -3   5   0 4050.23 354.010  11
   3   5   0 4817.54 361.545  17
  -3   5   0 4538.79 384.296  10
  -3   5   0 4098.15 334.347   9
   3   5   0 3653.36 302.007  13
   3   5   0 3658.69 304.002 103
  -3   5   0 4335.39 335.296 112
   3   5   0 3922.82 350.177 110
   3   5   0 4189.59 339.929 104
  -3  -5   0 3164.19 547.450  92
  -3  -5   0 4226.78 672.729  35
  -3  -5   0 4292.66 636.015  31
  -3  -5   0 4480.55 652.477  33
  -3  -5   0 2507.68 518.114  30
  -3  -5   0 4669.75 330.640  79
  -3   5   0 3516.47 296.790  50
  -3   5   0 4670.19 372.615  54
   3   5   0 4302.92 360.618  50
  -3  -5   0 4189.80 679.022  39
   3  -5   0 3285.65 563.792  43
  -3  -5   0 3213.98 543.688  43
   3  -5   0 3852.85 649.175  38
   3   5   1 7279.33 467.955  20
  -3   5  -1 7496.32 478.246  17
   3   5   1 6496.11 804.348  18
  -3  -5  -1 6445.07 840.456  28
  -3   5  -1 7955.04 491.958  12
   3   5   1 7062.39 463.264  12
  -3   5  -1 7655.08 484.071  11
   3   5   1 8661.14 494.177  17
  -3   5  -1 7926.59 476.214   9
   3   5   1 7032.37 391.962  13
   3   5   1 7477.81 446.541 103
   3   5   1 7166.72 456.506 104
   3  -5   1 5738.11 706.325  89
  -3  -5  -1 7695.48 807.869  92
   3  -5   1 5457.75 734.401  43
   3  -5   1 5326.26 761.816  38
  -3  -5  -1 6678.78 849.371  39
  -3   5  -1 7311.54 480.466  53
  -3   5  -1 6606.26 407.518  50
   3   5   1 7349.81 469.331  50
  -3   5  -1 6829.92 410.173  51
  -3   5  -1 8119.11 490.385  54
  -3  -5  -1 6827.73 807.396  31
  -3  -5  -1 7223.28 837.792  33
  -3  -5  -1 6738.22 836.376  30
  -3  -5  -1 6531.26 842.991  35
  -3   5  -2 3583.69 334.730  12
   3   5   2 4105.99 340.766  12
   3   5   2 4266.01 356.686  17
   3   5   2 4106.23 310.125   8
  -3  -5  -2 3747.21 641.777  30
  -3  -5  -2 4560.35 704.095  39
   3   5   2 4444.60 365.789  50
   3  -5   2 3665.59 591.086  89
  -3   5  -2 3353.78 327.816  53
  -3   5  -2 3813.98 313.679  51
  -3   5  -2 4237.91 347.664  54
   3   5   2 4252.20 354.224  20
  -3  -5  -2 4246.54 680.248  28
  -3   5  -3 4755.38 356.765  12
   3   5   3 4423.49 341.200  12
  -3   5  -3 4605.59 370.447  11
   3   5   3 4320.87 357.950  17
   3   5   3 3760.73 312.208   8
  -3  -5  -3 3295.86 609.451  39
   3   5   3 4119.59 352.208  50
  -3  -5  -3 4127.24 682.335  30
   3  -5   3 3204.16 562.627  89
  -3   5  -3 3946.21 330.228  54
  -3   5  -3 4758.67 352.515  51
  -3   5  -3 4771.20 370.132  53
  -3  -5  -3 3891.04 304.664  68
   3   5   3 3921.45 325.857  20
  -3   5  -4 5903.79 379.267  12
   3   5   4 6296.36 380.352  12
  -3   5  -4 6228.85 419.279  11
  -3   5  -4 6290.32 357.039  15
   3   5   4 7216.73 424.614   8
   3  -5   4 5926.57 758.479  89
   3   5   4 6134.60 423.495  49
  -3   5  -4 6092.53 403.786  53
   3  -5   4 5306.62 361.732  56
  -3   5  -4 5827.22 397.663  51
  -3  -5  -4 5515.53 757.398  30
   3   5   4 5936.52 372.768  20
  -3   5  -5 3307.89 280.434  53
   3  -5   5 3183.35 275.200  56
  -3  -5  -5 4054.94 335.992  69
  -3   5  -5 3521.72 303.987  51
  -3   5  -5 3916.56 316.105  11
   3   5   5 3950.86 324.494  17
   3   5   5 3721.70 305.080   8
  -3   5  -5 3673.48 271.078  15
  -3  -5  -6 9.78555 69.2099  80
   3   5   6 52.1401 101.914  17
  -3   5  -6 83.6126 103.459  11
   3   5   6 91.2866 110.842   8
  -3   5  -6 40.7854 83.2678  15
   3  -5   6 65.0793 71.8631  66
   3  -5   6 94.9779 86.2647  56
  -3   5  -6 27.2757 101.665  51
  -3  -5  -6 28.1649 96.7872  69
  -3   5  -6 47.9454 77.4899  53
  -3  -5  -6 97.9346 182.508  30
   3   5   7 7479.29 398.753  49
  -3   5  -7 6983.65 349.741  11
  -3   5  -7 8313.06 421.943   9
   3   5   7 8111.23 406.553   8
  -3  -5  -7 7702.97 398.542  75
  -3  -5  -7 7330.38 400.444  69
   3  -5   7 6453.16 324.700  66
   3   5   7 7383.52 373.782  17
  -3  -5  -8 7484.48 356.972  78
  -3  -5  -8 6483.19 327.135  75
  -3  -5  -8 6500.07 339.126  74
  -3   5  -8 7088.44 344.338   9
   3   5   8 7392.06 353.839   8
   3  -5   8 7555.54 333.389  99
   3   5   8 7104.13 348.290  49
   3  -5   9 20138.2 589.676  64
  -3   5  -9 17891.2 577.213  51
  -3  -5  -9 18503.0 568.086  78
  -3  -5  -9 19801.8 586.068  81
  -3   5  -9 16477.4 535.505   9
   3   5   9 19182.8 583.480   8
  -3  -6   7 561.982 92.5861  79
  -3   6   7 582.066 86.7697 112
   3   6  -7 763.591 100.706  11
   3   6  -7 786.611 99.4681  13
  -3  -6   6 7758.19 350.275  79
  -3   6   6 7287.76 325.303 112
   3   6  -6 6847.26 315.808  50
  -3  -6   6 6839.49 301.859  90
   3   6  -5 9093.97 358.941  12
   3   6  -5 10232.8 440.625  13
  -3  -6   5 9633.09 386.864  90
  -3  -6   5 10321.5 439.716  79
   3   6  -5 9365.17 437.929 110
  -3   6   5 10345.2 428.128 112
   3   6  -5 9840.23 424.645  50
   3   6  -5 8905.38 356.280  20
  -3   6   4 12309.6 509.175  12
   3   6  -4 12763.2 503.430  12
   3   6  -4 13371.2 541.271  13
  -3  -6   4 13006.3 528.336  79
  -3   6   4 12291.5 510.186 112
   3   6  -4 12699.2 550.828 110
   3   6  -4 12381.0 524.769  50
  -3   6   4 12419.7 543.266  17
   3   6  -4 12735.9 502.295  20
  -3   6   3 2566.27 241.044  12
   3   6  -3 3057.60 249.278  12
  -3   6   3 3020.73 258.181  10
   3   6  -3 3016.25 247.131  13
  -3  -6   3 2633.41 223.995  79
  -3   6   3 2776.86 231.440 112
   3   6  -3 2557.98 235.279  50
   3   6  -3 2731.16 237.474  20
  -3   6   2 3119.29 281.042  17
   3   6  -2 3376.94 276.226  20
  -3  -6   2 2910.07 229.851  79
   3   6  -2 3524.40 282.816  50
  -3   6   2 3631.54 286.686  53
  -3   6   2 3399.79 285.462  12
   3   6  -2 3692.77 281.430  12
  -3   6   2 3651.45 295.105  10
   3   6  -2 3442.51 258.550  13
  -3  -6   1 3006.27 248.871  91
   3   6  -1 3885.25 300.111  12
  -3   6   1 3308.03 266.209  11
   3   6  -1 3369.25 241.804  11
   3   6  -1 3478.75 254.896  13
   3   6  -1 3674.81 291.140  50
  -3   6   1 3282.56 291.089  17
   3   6  -1 3515.16 291.596  20
   3   6  -1 3430.29 246.652  17
   3   6   0 3295.04 276.119  50
   3   6   0 3036.66 230.339  49
  -3   6   0 3191.68 279.185  12
  -3   6   0 2896.37 259.486  11
  -3   6   0 3362.69 288.585  10
  -3  -6   0 2368.72 423.050  30
  -3   6   0 3038.89 272.613  53
   3   6   0 3093.69 251.775  17
   3   6   1 588.100 124.460  49
   3   6   1 517.260 143.352  50
  -3   6  -1 604.999 146.234  12
   3   6   1 743.012 157.743  12
  -3   6  -1 739.733 157.053  11
  -3   6  -1 677.127 163.063  10
   3   6   1 778.757 147.457  17
  -3   6  -1 766.723 128.779   9
  -3  -6  -1 663.277 244.873  30
  -3   6  -1 577.456 150.662  53
   3   6   1 351.350 134.701  20
   3   6   2 16702.3 665.904  50
   3   6   2 16727.2 632.467  49
  -3   6  -2 16705.3 660.831  12
   3   6   2 16854.5 654.540  12
  -3   6  -2 17191.3 643.917   9
  -3   6  -2 18175.1 684.882  10
  -3  -6  -2 16329.7 1105.49  30
  -3   6  -2 16707.4 670.939  53
  -3  -6  -2 15879.0 601.827  68
  -3  -6  -2 14838.4 580.428  24
   3   6   2 17095.0 672.789  17
   3   6   2 17600.4 667.004  20
  -3   6  -3 1228.98 157.427  12
   3   6   3 1358.06 164.892  12
  -3   6  -3 1338.15 180.646  11
  -3   6  -3 1378.73 181.291  10
  -3   6  -3 1528.93 182.046   9
  -3   6  -3 1424.56 175.457  53
   3   6   3 1591.82 195.834  17
  -3  -6  -3 1307.71 155.793  24
   3   6   3 1492.17 170.287  20
   3   6   3 1339.20 165.462  49
  -3   6  -4 3018.34 236.306  11
  -3   6  -4 2632.27 210.007  10
   3   6   4 2602.62 182.728   8
  -3   6  -4 3125.87 235.022   9
   3  -6   4 2844.54 212.753  59
  -3   6  -4 2753.07 213.169  53
  -3  -6  -4 2855.76 236.509  69
   3   6   4 2801.52 215.652  49
   3   6   4 3308.63 247.966  17
  -3  -6  -4 2987.39 219.462  24
   3   6   5 5619.97 286.928  49
  -3   6  -5 5546.36 293.328  11
  -3   6  -5 4791.80 238.480  10
  -3   6  -5 6358.17 314.913   9
   3   6   5 5031.38 248.921   8
  -3  -6  -5 5809.68 290.571  24
   3   6   6 5142.86 246.974  49
  -3   6  -6 4938.12 232.125  11
   3   6   6 5464.50 253.155  17
  -3  -6  -6 4986.45 240.624  24
   4   0 -13 12274.7 467.937  85
   4   0 -13 12875.0 485.005  84
   4   0 -13 11832.7 438.854  82
   4   0 -13 12761.6 488.552 110
  -4   0  13 11724.5 444.674   6
   4   0 -12 1656.07 196.046  73
   4   0 -12 1539.61 193.135  85
   4   0 -12 1845.41 207.443  84
   4   0 -12 1623.96 190.098  82
   4   0 -12 1313.40 335.277  29
  -4   0  12 1199.51 183.311  99
  -4   0  12 1400.76 171.931 108
   4   0 -12 1934.14 207.897 110
   4   0 -11 165.446 205.547  29
   4   0 -11-56.0934 186.997  32
   4   0 -11 29.7122 110.747 110
  -4   0  11 129.554 83.4494 107
  -4   0  11 14.2540 122.312 108
   4   0 -11 46.0534 105.507  73
   4   0 -11 44.0164 155.639  86
   4   0 -11-14.5939 94.2196  76
   4   0 -11 29.1306 103.009  84
   4   0 -11 73.1091 109.001  82
   4   0 -11 156.291 184.210  71
  -4   0  11 112.988 83.1739  47
  -4   0  10 12041.9 1086.19   2
   4   0 -10 10729.7 1043.45  32
   4   0 -10 10127.9 997.229  29
  -4   0  10 11124.4 545.528 107
  -4   0  10 11386.7 588.073 108
   4   0 -10 11962.7 595.849 110
   4   0 -10 11493.9 605.689  73
   4   0 -10 10772.7 942.396  86
   4   0 -10 11232.4 575.086  76
   4   0 -10 11786.0 585.528  84
  -4   0  10 9156.28 893.996  89
   4   0 -10 10429.1 996.751  71
   4   0 -10 11933.3 613.994  72
   4   0 -10 9670.43 990.550  42
   4   0 -10 10442.0 1012.99  40
  -4   0   9 1313.01 404.814   2
  -4   0   9 1013.15 199.195 108
   4   0  -9 1411.75 367.125  34
   4   0  -9 1306.91 402.940  29
   4   0  -9 667.829 312.850  32
   4   0  -9 705.345 266.904  86
   4   0  -9 1229.45 205.696  76
   4   0  -9 994.909 175.513  84
  -4   0   9 1424.29 373.830  89
   4   0  -9 1033.04 198.081  72
   4   0  -9 1062.89 348.829  40
   4   0  -9 1132.13 372.406  42
  -4   0   8 78384.4 3108.66   2
  -4   0   8 78283.8 2254.85 108
  -4   0   8 74946.0 2232.51 106
  -4   0   8 78599.7 2264.02  99
   4   0  -8 82513.0 3174.65  29
   4   0  -8 73992.1 2926.11  34
  -4   0   8 80209.0 3211.36  28
   4   0  -8 80335.6 2861.28  86
   4   0  -8 82370.5 2276.18  72
   4   0  -8 82174.0 2230.17  76
   4   0  -8 78423.6 2213.68  84
  -4   0   8 75163.4 2989.73  89
   4   0  -8 79601.4 2273.71  73
   4   0  -8 77896.4 3075.84  71
   4   0  -8 79416.5 3129.31  40
   4   0  -8 73873.0 3071.21  42
  -4   0   7 2983.24 540.989  28
  -4   0   7 2130.21 454.080   2
  -4   0   7 2230.13 247.901 108
  -4   0   7 2293.90 238.781 106
  -4   0   7 1946.87 231.212  99
   4   0  -7 2306.51 415.093  34
   4   0  -7 2414.99 401.800  36
   4   0  -7 2213.63 432.876  29
  -4   0   7 2011.21 460.246  35
   4   0  -7 2053.00 215.849  76
   4   0  -7 2256.50 379.718  86
   4   0  -7 2057.35 216.281  84
  -4   0   7 2510.28 456.261  89
   4   0  -7 2194.22 241.320  73
   4   0  -7 2563.12 251.838  72
   4   0  -7 1888.95 414.678  71
   4   0  -7 1865.24 439.473  40
   4   0  -7 1758.17 418.081  42
  -4   0   6 1094.02 231.826  45
   4   0  -6 1470.49 365.181  40
   4   0  -6 1226.41 316.758  42
  -4   0   6 1394.95 186.407  99
   4   0  -6 1727.36 341.364  34
   4   0  -6 1473.13 313.171  36
  -4   0   6 1663.03 378.486  35
   4   0  -6 1398.64 166.410  76
   4   0  -6 1042.15 240.030  86
  -4   0   6 1107.85 307.045  89
   4   0  -6 1418.31 184.050  72
   4   0  -6 1350.87 163.234  84
  -4   0   6 1208.77 254.863  87
   4   0  -6 1267.27 331.704  71
  -4   0   6 1502.10 191.605  67
  -4   0   6 1351.87 365.760  28
   4   0  -5 63992.9 2408.20  40
   4   0  -5 65253.1 2354.35  42
  -4   0   5 64027.5 2176.95  45
  -4   0   5 60020.9 2046.91  92
  -4   0   5 66386.7 2452.09  28
   4   0  -5 66650.7 2348.89  36
  -4   0   5 68801.3 2447.88  35
   4   0  -5 64528.3 2412.90  32
   4   0  -5 64027.9 1753.73  72
   4   0  -5 61802.6 2052.52  86
   4   0  -5 61677.3 1702.80  76
  -4   0   5 59138.9 2144.42  87
   4   0  -5 64626.0 2359.39  71
  -4   0   5 67563.5 2448.38   2
  -4   0   4 64177.3 2252.56   2
  -4   0   4 63605.6 2172.66  45
   4   0  -4 61021.6 2186.80  42
  -4   0   4 60934.8 2051.79  92
   4   0  -4 61414.8 2213.78  36
  -4   0   4 64010.4 2207.40  35
  -4   0   4 57613.7 2162.17  28
  -4   0   4 61783.7 2199.18  31
   4   0  -4 58924.1 1645.84  72
   4   0  -4 60794.2 1673.72  73
  -4   0   4 62051.3 2128.86  87
   4   0  -4 61968.0 2187.40  71
   4   0  -4 63252.2 2135.87  19
  -4   0   3 206231. 5324.98   2
   4   0  -3 199879. 5359.97  40
  -4   0   3 199305. 5423.32  39
  -4   0   3 202668. 5346.95  45
  -4   0   3 193121. 5219.30  92
  -4   0   3 196916. 5249.84  31
  -4   0   3 197812. 5242.91  28
   4   0  -3 195181. 5391.18  36
  -4   0   3 196913. 5179.38  35
  -4   0   3 201113. 5364.75  89
   4   0  -3 190794. 4700.24  73
  -4   0   3 195340. 5274.78  87
   4   0  -3 192980. 5234.75  71
   4   0  -3 187125. 4675.64  72
   4   0  -3 192346. 5011.00  23
   4   0  -3 196306. 5275.21  19
  -4   0   2 122346. 3407.33   2
   4   0  -2 118536. 3311.43   1
   4   0  -2 122590. 3493.62  40
   4   0  -2 114562. 3173.74  38
  -4   0   2 115711. 3499.78  39
  -4   0   2 112503. 3512.76  41
  -4   0   2 117726. 3443.63  92
  -4   0   2 117986. 3357.10  31
  -4   0   2 116830. 3478.95  33
  -4   0   2 112357. 3272.30  28
   4   0  -2 120305. 3538.40  36
  -4   0   2 118552. 3239.72  35
  -4   0   2 122884. 3498.88  89
  -4   0   2 121304. 3494.75  87
   4   0  -2 119447. 3366.51  71
   4   0  -2 119774. 3475.92  19
   4   0  -2 115717. 3317.37  23
   4   0  -1 131132. 3751.36  96
  -4   0   1 129224. 3743.07  92
  -4   0   1 133456. 3832.24  41
  -4   0   1 128920. 3700.12  39
   4   0  -1 126583. 3550.40  38
   4   0  -1 130313. 3506.38  37
  -4   0   1 128605. 3549.37  31
  -4   0   1 129577. 3689.30  33
  -4   0   1 136160. 3731.00  30
  -4   0   1 123781. 3307.26  35
  -4   0   1 121664. 3393.75  28
   4   0  -1 137016. 3624.04   1
   4   0  -1 134089. 3690.57  23
   4   0  -1 135623. 3754.23  19
   4   0   0 203808. 5357.88  96
   4   0   0 194909. 5106.00  44
   4   0   0 201114. 5227.59  37
  -4   0   0 201933. 5267.89  39
  -4   0   0 201674. 5461.34  41
   4   0   0 202989. 5316.79  38
  -4   0   0 199109. 5137.13  31
  -4   0   0 191029. 5231.07  33
  -4   0   0 196290. 5258.00  30
   4   0   0 203197. 5416.66  36
   4   0   0 189895. 5336.08  23
   4   0   0 200467. 5399.75  19
   4   0   0 209089. 5274.71   1
   4   0   1 46410.0 1694.34   1
   4   0   1 47277.3 1724.84  96
  -4   0  -1 46352.4 1769.16  92
   4   0   1 44122.3 1471.87  44
   4   0   1 49475.2 1739.64  37
  -4   0  -1 44856.4 1583.69  39
   4   0   1 46643.5 1763.68  38
  -4   0  -1 47092.7 1562.76  31
  -4   0  -1 45439.9 1610.83  33
  -4   0  -1 47017.6 1620.91  30
   4   0   1 48538.4 1748.62  36
   4   0   1 47031.8 1306.93  62
   4   0   1 49304.4 1805.87  19
   4   0   1 46823.4 1783.37  23
   4   0   2 52314.9 1873.19   1
   4   0   2 47676.8 1528.42  44
  -4   0  -2 49934.9 1644.61  39
  -4   0  -2 52164.6 1967.19  41
   4   0   2 51351.0 1920.01  37
   4   0   2 51352.2 1946.40  38
  -4   0  -2 50823.8 1869.56  45
  -4   0  -2 52838.9 1714.72  31
  -4   0  -2 48895.7 1695.80  33
  -4   0  -2 52465.7 1685.92  30
   4   0   2 49679.8 1824.51  36
   4   0   2 51015.7 1843.69  96
  -4   0  -2 54076.9 1947.73  92
   4   0   2 49565.2 1410.42  62
   4   0   2 51765.1 1966.47  23
   4   0   2 53738.1 1974.31  19
  -4   0  -3 32874.7 1459.05  92
   4   0   3 34691.5 1403.48  96
   4   0   3 31509.2 1426.39  94
  -4   0  -3 33385.4 1518.64  34
  -4   0  -3 34889.8 1318.49  31
  -4   0  -3 32232.1 1246.44  33
   4   0   3 32747.1 1347.13  36
  -4   0  -3 33246.1 1428.20  29
   4   0   3 32714.3 986.076  62
   4   0   3 29716.4 1047.66  44
  -4   0  -3 29611.2 1103.42  39
  -4   0  -3 31683.5 1476.27  41
   4   0   3 32262.7 1511.15  38
   4   0   3 32021.7 1493.16  37
  -4   0  -3 30996.5 1354.72  45
  -4   0  -4 2064.89 317.503  45
  -4   0  -4 2123.08 362.780  41
   4   0   4 2193.09 374.194  94
  -4   0  -4 1584.43 314.745  92
   4   0   4 1786.85 308.969  96
  -4   0  -4 1655.35 352.287  34
  -4   0  -4 1917.80 272.696  33
  -4   0  -4 1435.01 294.814  29
   4   0   4 2643.00 423.683  37
   4   0   4 1840.08 297.935  36
  -4   0  -4 1920.95 168.897  74
  -4   0  -4 1868.51 188.395  75
   4   0   4 1675.95 185.044  57
   4   0   4 1925.81 184.122  62
   4   0   4 1909.55 200.535  61
   4   0   4 1709.08 365.372  19
   4   0   4 1886.93 369.012  23
  -4   0  -5 60757.8 2373.94  41
   4   0   5 67547.9 2573.52  37
   4   0   5 59578.8 2169.57  96
   4   0   5 63084.4 2434.68  94
   4   0   5 58174.5 1703.54  95
  -4   0  -5 59856.3 2343.72  29
  -4   0  -5 60917.5 2457.45  34
   4   0   5 59734.8 2049.91  36
  -4   0  -5 62023.9 1693.81  74
  -4   0  -5 61435.2 1767.25  80
  -4   0  -5 60971.7 1760.65  78
   4   0   5 60358.4 1727.86  88
  -4   0  -5 59619.7 1713.85  81
  -4   0  -5 62503.3 1766.71  75
   4   0   5 63578.7 1767.35  57
   4   0   5 60808.9 1761.00  61
   4   0   5 64380.6 2463.39  23
   4   0   5 66097.6 2492.49  19
  -4   0  -5 64849.0 1823.01  27
   4   0   6 25904.6 1533.27  38
  -4   0  -6 29346.1 1496.63  41
   4   0   6 23938.7 872.102  95
   4   0   6 24545.1 1241.11  96
   4   0   6 26728.8 963.720  98
  -4   0  -6 24604.2 1494.94  34
  -4   0  -6 25963.4 1450.53  29
  -4   0  -6 24895.1 882.252  74
  -4   0  -6 26462.2 949.714  78
   4   0   6 24765.6 887.791  88
  -4   0  -6 26754.2 960.112  75
  -4   0  -6 25889.2 878.779  77
  -4   0  -6 25717.1 915.672  81
   4   0   6 26311.4 951.955  65
   4   0   6 26951.7 948.639  57
   4   0   6 26386.2 934.948  55
   4   0   6 25408.3 932.264  61
   4   0   6 25405.0 890.774  58
   4   0   6 25862.8 1464.09  23
  -4   0  -6 27499.6 999.469  27
   4   0   6 28478.9 1542.85  19
   4   0   7 104.023 183.933  19
   4   0   7 192.549 196.563  23
  -4   0  -7 160.012 129.217  27
  -4   0  -7 117.032 104.933 109
   4   0   7 188.856 117.362 106
   4   0   7 134.552 91.2418  95
   4   0   7 321.633 132.721  98
  -4   0  -7 58.5721 207.127  34
  -4   0  -7 356.754 224.777  29
   4   0   7 177.313 209.008  37
  -4   0  -7 133.811 95.9911  74
   4   0   7 166.636 96.7944  88
  -4   0  -7 111.713 117.513  78
  -4   0  -7 63.9958 91.8219  77
  -4   0  -7 144.404 100.746  81
   4   0   7 273.607 110.785  58
   4   0   7 106.690 78.6009  56
   4   0   7 133.993 102.373  55
   4   0   7 175.401 103.420  60
   4   0   7 167.777 186.465  38
  -4   0  -7 139.171 144.698  41
   4   0   8 210.958 175.818  19
   4   0   8 91.4980 161.766  23
  -4   0  -8 56.4066 131.110  27
   4   0   8 83.5807 116.566 106
  -4   0  -8 43.6867 105.810 109
   4   0   8 84.7594 127.940  98
  -4   0  -8 187.471 208.322  34
  -4   0  -8-54.1057 201.661  29
   4   0   8 124.310 179.446  37
  -4   0  -8 43.4731 98.1233  74
  -4   0  -8 166.071 106.968  77
  -4   0  -8 108.948 113.088  81
   4   0   8 31.4637 103.246  55
   4   0   8 34.1782 110.328  63
   4   0   8 30.9542 99.9228  60
   4   0   8-27.2884 88.0918  58
   4   0   8 227.080 200.733  38
  -4   0  -8 226.943 192.885  41
  -4   0  -9 25186.7 994.428  27
  -4   0  -9 23629.1 868.028 109
   4   0   9 24968.7 951.605  98
  -4   0  -9 23838.1 1468.55  29
  -4   0  -9 24597.4 930.721  81
  -4   0  -9 23254.5 877.913  77
   4   0   9 24543.9 951.963  63
   4   0   9 23074.6 902.002  60
   4   0   9 23188.1 847.693  66
   4   0   9 20063.7 1460.21  37
   4   0  10 8897.56 491.384  98
  -4   0 -10 8932.28 845.182  29
   4   0  10 7791.70 400.681  66
  -4   0 -10 8695.94 479.059  81
  -4   0 -10 9191.62 520.553  27
  -4   0 -11 5025.30 328.356  81
  -4   0 -11 5667.85 368.297  27
   4   0  11 5956.59 354.567  98
  -4   0 -12 11246.1 454.598  27
   4   0  12 9711.73 394.639  93
   4   0  12 10852.5 432.908  98
  -4  -1  13 8820.77 357.435 108
   4  -1 -13 9175.32 374.355 110
   4   1 -13 8611.60 376.442 110
  -4   1  13 9128.98 390.121   7
  -4   1  13 8408.96 352.555   6
   4  -1 -13 8953.53 374.805  85
   4   1 -13 7566.05 321.400  85
   4  -1 -13 8526.37 355.356  84
   4  -1 -13 8841.97 354.005  82
  -4   1  13 7494.92 318.897  47
   4   1 -13 7464.33 332.096  26
  -4   1  12 9893.81 469.924   6
   4   1 -12 9410.76 462.280 110
   4  -1 -12 10299.6 470.212 110
  -4  -1  12 9754.45 463.657 108
  -4  -1  12 8946.63 464.874  99
   4  -1 -12 9719.28 452.447  76
   4  -1 -12 10088.4 477.912  73
   4   1 -12 9343.30 440.596  85
   4  -1 -12 9460.25 445.323  84
   4   1 -12 9481.18 463.896  84
   4   1 -12 8538.80 414.857  82
   4  -1 -12 8553.43 766.312  71
   4  -1 -12 8629.78 455.143  72
  -4   1  12 9122.36 430.224  47
   4   1 -11 10540.6 906.668  86
   4  -1 -11 10819.9 536.813  76
   4   1 -11 11079.8 548.870  85
   4  -1 -11 12341.6 564.003  84
   4   1 -11 11145.1 557.428  84
   4  -1 -11 12051.5 584.498  72
   4   1 -11 11245.2 544.911  82
  -4  -1  11 11228.8 1048.89  28
   4   1 -11 11197.8 952.928  29
   4   1 -11 10533.5 966.928  32
   4  -1 -11 9900.20 935.029  32
   4  -1 -11 10689.0 999.015  29
  -4  -1  11 11806.1 583.699  99
  -4   1  11 12015.9 574.456  99
  -4  -1  11 11848.3 574.675 108
  -4   1  11 10993.2 515.805 108
   4   1 -11 12460.2 584.923 110
  -4  -1  10 1371.94 436.489  28
  -4  -1  10 1410.45 225.684 108
  -4   1  10 1275.87 195.393 108
   4   1 -10 1087.65 200.844 110
  -4  -1  10 1318.45 219.101  99
  -4   1  10 1204.07 216.273  99
   4   1 -10 1079.74 355.403  29
   4   1 -10 765.741 326.855  32
   4  -1 -10 1656.56 425.093  32
   4  -1 -10 1166.01 369.898  29
   4   1 -10 1415.56 216.143  73
   4  -1 -10 1553.11 354.175  86
   4   1 -10 1472.78 353.090  86
   4  -1 -10 1277.45 192.274  76
   4   1 -10 1490.10 217.988  85
   4  -1 -10 1047.92 181.295  84
   4   1 -10 1321.77 204.813  84
  -4  -1  10 929.079 316.825  89
   4   1 -10 1107.59 201.982  82
   4  -1 -10 983.429 342.078  71
   4  -1 -10 1270.33 212.239  72
   4   1 -10 899.607 332.751  40
   4  -1 -10 1216.60 353.801  40
  -4   1   9 8627.21 936.780   2
  -4  -1   9 8869.84 926.870   2
  -4   1   9 9942.59 530.641 108
  -4   1   9 8498.18 458.523 107
   4   1  -9 10244.8 543.061 110
  -4  -1   9 8181.09 451.538  90
  -4  -1   9 9809.22 548.894  99
  -4   1   9 10022.8 554.291  99
   4   1  -9 9243.53 948.149  32
   4  -1  -9 8551.72 916.051  34
   4   1  -9 7904.86 857.289  29
   4  -1  -9 8163.13 904.161  32
  -4  -1   9 9930.62 1046.18  35
   4  -1  -9 8949.86 962.029  29
   4  -1  -9 8119.27 790.088  86
   4  -1  -9 9972.18 517.074  76
   4   1  -9 8481.09 832.559  86
   4  -1  -9 9751.94 517.555  84
   4   1  -9 9073.63 518.281  84
  -4  -1   9 9218.55 937.499  89
   4   1  -9 9657.83 544.219  73
   4   1  -9 9252.03 528.406  82
   4  -1  -9 10404.7 558.623  72
   4  -1  -9 9550.47 960.704  71
  -4  -1   9 9477.16 530.311  67
   4  -1  -9 7869.35 848.814  40
   4   1  -9 9894.07 965.537  42
   4  -1  -9 9422.93 984.405  42
   4   1  -9 9030.10 958.873  40
   4   1  -8 71758.0 2007.65  21
  -4   1   8 70667.9 2008.14   5
  -4   1   8 70737.1 2956.04   2
  -4  -1   8 74426.1 2968.81   2
  -4   1   8 72055.9 2026.13 107
  -4  -1   8 73389.1 2116.47 108
   4   1  -8 71175.8 2077.40 110
  -4   1   8 74085.6 2087.35 108
   4   1  -8 66621.6 2577.72  96
  -4   1   8 70748.3 2094.63  99
  -4  -1   8 69971.2 2087.08  99
  -4  -1   8 68474.8 2006.03  90
   4  -1  -8 73970.6 3009.86  29
   4  -1  -8 74558.1 2973.12  34
   4   1  -8 75126.0 2795.78  36
   4   1  -8 72407.5 2936.89  32
  -4  -1   8 74083.4 3109.06  35
   4   1  -8 71283.9 2836.80  29
   4  -1  -8 72237.0 2970.21  32
  -4   1   8 77958.6 3096.01  28
   4  -1  -8 71319.5 2029.16  76
   4  -1  -8 68322.7 2621.72  86
   4   1  -8 75224.7 2768.60  86
   4   1  -8 70074.4 2066.64  76
   4  -1  -8 70679.5 2083.85  72
   4   1  -8 70109.4 2059.05  84
  -4  -1   8 72580.7 2931.46  89
   4   1  -8 73202.4 2104.53  82
   4   1  -8 74212.8 2105.97  72
   4  -1  -8 70936.1 2919.20  71
  -4  -1   8 71719.2 2093.98  67
   4  -1  -8 71946.2 1998.85  70
   4  -1  -8 71315.2 2889.63  40
   4   1  -8 70191.2 2835.95  42
   4  -1  -8 67549.2 2913.16  42
   4   1  -8 73672.8 2980.66  40
   4   1  -7 35235.7 1138.51  22
  -4  -1   7 35903.5 1842.69   2
  -4   1   7 33444.1 1133.88   5
  -4   1   7 33848.8 1120.84  16
  -4   1   7 35331.1 1149.43 107
  -4  -1   7 37058.1 1208.82 108
   4   1  -7 34568.5 1154.39 110
  -4   1   7 35949.4 1185.82 108
   4   1  -7 33453.4 1617.40  96
  -4  -1   7 36989.0 1198.75  99
  -4   1   7 35070.5 1192.24  99
  -4  -1   7 32534.8 1126.49  90
  -4   1   7 39112.7 1956.42  28
   4  -1  -7 34160.1 1832.88  34
   4  -1  -7 35735.2 1902.79  29
   4   1  -7 36813.9 1769.67  36
   4   1  -7 37177.2 1856.90  32
  -4  -1   7 37911.4 1975.09  35
   4  -1  -7 34844.4 1864.63  32
  -4  -1   7 35383.7 1912.27  28
   4   1  -7 34264.7 1731.53  29
   4  -1  -7 35945.5 1604.17  86
   4   1  -7 34922.9 1636.40  86
   4   1  -7 35748.2 1163.53  76
   4   1  -7 35757.0 1166.61  84
  -4  -1   7 31716.4 1740.49  89
  -4  -1   7 33403.0 1608.68  87
   4  -1  -7 36055.2 1134.14  76
   4  -1  -7 38407.5 1865.81  71
  -4  -1   7 34736.8 1183.57  67
   4   1  -7 37804.4 1211.22  72
   4  -1  -7 35242.5 1098.22  70
   4  -1  -7 35715.7 1825.08  40
   4   1  -7 35723.6 1750.53  42
   4  -1  -7 33171.1 1805.78  42
   4   1  -6 2728.91 239.895  22
  -4  -1   6 3373.49 533.025  28
  -4   1   6 2454.87 452.775  28
  -4  -1   6 3338.89 513.483   2
  -4   1   6 2891.49 483.107   2
  -4   1   6 2935.95 241.532  16
  -4   1   6 2531.25 247.465 108
   4   1  -6 2485.49 235.620 110
  -4   1   6 2741.82 249.722 107
  -4   1   6 2827.61 264.540  99
   4   1  -6 3337.28 469.654  96
  -4  -1   6 2330.44 361.275  92
  -4  -1   6 2792.39 246.063  99
  -4  -1   6 2845.72 250.879  90
   4   1  -6 2349.33 339.878  34
  -4  -1   6 3183.27 524.606  31
   4   1  -6 3278.79 492.655  36
   4  -1  -6 2015.01 350.446  36
   4   1  -6 2566.70 428.429  29
   4   1  -6 2522.95 456.935  32
   4  -1  -6 2726.96 496.344  32
  -4  -1   6 3039.50 522.289  35
   4  -1  -6 3349.20 411.634  86
  -4  -1   6 2932.30 437.176  87
   4   1  -6 2291.01 364.786  86
   4   1  -6 2559.65 241.014  73
   4   1  -6 2453.39 234.719  76
   4   1  -6 2533.11 232.596  84
   4  -1  -6 2518.04 218.160  76
   4  -1  -6 3236.02 483.663  71
   4   1  -6 3184.21 264.332  72
  -4  -1   6 2256.28 342.172  45
   4  -1  -6 3050.05 486.774  40
   4   1  -6 2418.10 401.170  42
  -4   1   6 2343.59 336.130  45
  -4  -1   6 2161.14 442.726  39
  -4   1   5 475.914 234.594  28
  -4  -1   5 1327.88 327.812  28
  -4   1   5 723.905 247.131   2
  -4  -1   5 889.514 146.783 108
  -4   1   5 1072.14 165.550 108
  -4  -1   5 640.492 204.270  92
   4   1  -5 1049.51 286.382  96
  -4  -1   5 899.711 147.807  90
   4   1  -5 816.266 202.996  34
  -4  -1   5 635.532 250.503  31
   4  -1  -5 1263.79 279.645  36
   4   1  -5 1126.58 307.992  36
   4   1  -5 736.855 231.073  29
   4   1  -5 483.611 206.651  32
   4  -1  -5 667.762 265.668  32
  -4  -1   5 677.800 255.395  35
   4   1  -5 640.595 200.704  86
   4   1  -5 2140.27 210.264  73
  -4  -1   5 804.824 264.849  89
  -4  -1   5 789.258 228.603  87
  -4  -1   5 818.463 148.026  67
   4   1  -5 817.195 146.112  72
   4  -1  -5 1066.31 288.177  71
  -4   1   5 871.304 235.766  45
   4   1  -5 809.625 270.658  40
   4  -1  -5 1063.62 293.981  40
   4   1  -5 968.423 249.749  42
  -4  -1   5 918.370 287.694  39
  -4   1   4 70588.4 2444.53   2
   4   1  -4 73079.2 2497.94  40
   4  -1  -4 68914.0 2514.69  40
   4   1  -4 66353.2 2279.08  42
  -4  -1   4 71454.5 2579.13  39
  -4   1   4 71830.8 2386.04  45
   4   1  -4 67334.4 2384.84  96
  -4   1   4 64780.0 2116.87  92
  -4  -1   4 65977.1 2339.34  92
  -4  -1   4 69247.0 2512.38  31
  -4   1   4 67414.9 2389.66  28
  -4  -1   4 69342.8 2546.09  33
   4   1  -4 67622.1 2481.41  36
   4  -1  -4 70685.9 2434.29  36
   4   1  -4 70652.3 2395.41  32
  -4  -1   4 71555.5 2494.19  35
   4   1  -4 66748.8 2165.18  86
   4   1  -4 66137.4 1866.65  73
  -4  -1   4 71413.3 2486.50  89
  -4  -1   4 67233.0 2405.95  87
   4   1  -4 69526.3 1872.45  72
   4  -1  -4 70132.2 2375.12  71
   4   1  -4 69408.9 2182.90  23
   4   1  -4 71982.5 2485.52  19
   4  -1  -4 66839.7 2143.58  19
  -4  -1   4 73233.6 2536.90  28
  -4   1   3 58469.6 2065.09   2
   4   1  -3 62363.7 2139.69  40
   4   1  -3 54926.1 1921.14  42
  -4   1   3 58785.5 2119.09  45
  -4   1   3 60067.5 1985.69  92
  -4  -1   3 59443.6 2137.99  92
   4   1  -3 60822.1 2136.67  96
  -4  -1   3 59321.6 2200.61  31
  -4   1   3 56858.0 1997.85  28
  -4  -1   3 58621.7 2213.09  30
   4   1  -3 60978.8 2208.04  36
   4  -1  -3 65014.1 2225.79  36
   4   1  -3 57855.1 2023.94  32
  -4  -1   3 59583.8 2101.02  35
  -4  -1   3 60943.7 2142.47  89
   4  -1  -3 56834.4 1548.49  72
   4   1  -3 59716.0 1625.80  73
  -4  -1   3 62772.0 2180.47  87
   4  -1  -3 60868.6 2025.16  71
   4   1  -3 55962.0 1961.12  23
   4  -1  -3 62046.5 1973.23  19
   4   1  -3 56625.4 2135.50  19
  -4  -1   3 61284.0 2159.29  28
   4   1  -2 29024.1 1303.88   1
  -4   1   2 29349.3 1192.45   2
   4  -1  -2 28098.5 1277.65  44
   4   1  -2 27277.1 1133.97  38
   4   1  -2 28053.6 1221.86  40
   4   1  -2 27135.6 1093.40  42
  -4  -1   2 28399.8 1282.24  41
   4  -1  -2 26192.6 1046.49  38
  -4   1   2 26969.0 1278.35  45
  -4   1   2 28464.8 1241.59  92
   4   1  -2 31448.3 1342.80  96
  -4  -1   2 30942.4 1353.90  92
  -4  -1   2 28502.1 1302.23  31
   4  -1  -2 30410.2 1363.71  36
  -4  -1   2 29192.0 1219.78  35
  -4   1   2 25963.2 1069.89  28
  -4  -1   2 30470.7 1283.06  89
   4   1  -2 27813.1 877.596  62
   4  -1  -2 29463.7 1148.22  71
   4   1  -2 29955.6 1264.27  23
   4   1  -2 28535.0 1325.02  19
   4  -1  -2 27750.0 1162.74  23
  -4  -1   2 28441.0 1249.60  28
   4  -1  -2 30465.5 1220.11  19
   4  -1  -1 41671.4 1335.79   1
  -4   1   1 43233.2 1480.42   2
   4   1  -1 47238.0 1764.00   1
   4  -1  -1 46575.8 1692.74  44
   4   1  -1 46610.9 1596.77  40
   4   1  -1 44694.8 1629.25  38
  -4  -1   1 45125.7 1725.86  41
   4  -1  -1 42428.9 1404.58  37
  -4  -1   1 45004.5 1777.31  39
   4  -1  -1 44104.1 1580.51  38
  -4   1   1 42973.9 1665.63  92
  -4  -1   1 44888.1 1707.81  31
  -4  -1   1 45631.3 1770.86  33
  -4  -1   1 46551.1 1771.84  30
   4   1  -1 47221.1 1777.89  36
   4  -1  -1 46198.4 1776.69  36
  -4  -1   1 45267.1 1556.30  35
  -4  -1   1 44202.2 1620.47  89
  -4  -1   1 48383.2 1779.54  87
   4   1  -1 43170.5 1254.29  62
   4  -1  -1 43719.9 1446.34  71
   4   1  -1 46269.2 1722.58  23
   4  -1  -1 43877.6 1648.60  23
   4   1  -1 43937.8 1749.47  19
   4  -1  -1 47380.5 1674.51  19
  -4  -1   1 43450.5 1592.38  28
   4   1   0 72929.8 2398.80   1
   4  -1   0 68674.2 2036.26   1
  -4   1   0 66769.7 1947.52   2
   4  -1   0 72640.5 2293.02  44
   4   1   0 69683.7 2122.39  40
   4   1   0 68018.0 2315.60  38
  -4   1   0 74151.4 2437.27  41
  -4  -1   0 66941.0 2377.16  41
  -4  -1   0 71784.0 2419.51  39
   4  -1   0 67794.7 2283.37  38
  -4   1   0 73592.9 2425.11  45
   4  -1   0 67534.3 2151.59  37
  -4   1   0 74167.3 2405.06  92
   4  -1   0 70734.3 2285.48  96
   4   1   0 71486.9 2372.83  96
  -4  -1   0 70994.6 2391.87  92
  -4  -1   0 70842.0 2332.88  31
  -4  -1   0 73127.1 2408.23  33
  -4  -1   0 75624.5 2408.93  30
   4   1   0 70219.6 2341.56  36
  -4  -1   0 67841.8 2070.86  35
  -4  -1   0 69685.6 2373.75  87
   4   1   0 70513.5 1862.03  62
  -4  -1   0 68659.0 2146.13  28
   4   1   0 67837.4 2373.52  23
   4  -1   0 71192.1 2401.27  23
   4  -1   0 68564.0 2326.02  19
   4   1   1 1137.67 269.770   1
   4  -1   1 1397.52 221.528   1
  -4   1  -1 1163.38 278.307  45
  -4  -1  -1 1610.39 302.305  39
   4   1   1 1214.61 194.131  40
   4   1   1 1217.10 278.839  38
  -4   1  -1 1003.14 249.499  41
   4  -1   1 1212.97 268.055  38
  -4  -1  -1 1373.52 294.624  41
  -4  -1  -1 1063.23 269.506  92
   4  -1   1 939.747 214.019  96
   4   1   1 1080.69 253.928  96
  -4  -1  -1 1027.12 241.468  31
  -4  -1  -1 953.172 231.590  33
   4   1   1 1197.03 269.465  37
   4  -1   1 1008.83 245.683  37
   4   1   1 1161.55 248.245  36
  -4  -1  -1 1037.16 259.827  30
  -4  -1  -1 1001.62 169.051  35
  -4  -1  -1 1431.36 292.693  87
  -4  -1  -1 987.532 118.760  69
   4  -1   1 1140.62 268.186  19
   4   1   1 1075.11 264.450  23
   4  -1   1 1071.21 266.263  23
  -4  -1  -1 964.319 181.591  28
   4   1   2 21021.3 1148.43   1
  -4  -1  -2 23822.2 1162.56  92
   4  -1   2 22361.9 1015.22  96
  -4   1  -2 22457.7 1179.30  92
   4   1   2 20789.7 1118.10  96
   4   1   2 21813.2 1047.14  94
   4   1   2 20084.9 812.198  40
   4   1   2 20978.8 1149.33  38
  -4   1  -2 21959.8 1121.91  41
  -4  -1  -2 21593.4 1172.50  41
  -4  -1  -2 22137.4 1073.33  39
   4  -1   2 22384.6 1146.47  37
   4  -1   2 21238.8 1162.69  38
  -4   1  -2 22843.3 1129.80  45
   4   1   2 21415.8 1153.77  37
  -4  -1  -2 22903.2 1099.14  34
  -4  -1  -2 22066.9 1074.19  30
  -4  -1  -2 23778.1 1141.38  31
  -4  -1  -2 20986.1 1104.11  33
   4   1   2 21432.9 1014.54  36
  -4  -1  -2 20931.4 814.443  35
   4  -1   2 21250.3 713.595  62
   4   1   2 21799.3 748.938  62
  -4  -1  -2 20607.1 700.381  69
   4  -1   2 22564.8 1201.64  23
  -4  -1  -2 20992.2 870.099  28
   4   1   2 22835.1 1171.79  19
   4  -1   2 23829.2 1203.43  19
   4   1   3 262187. 7203.40   1
   4   1   3 273477. 7243.90  38
  -4   1  -3 263372. 7052.13  41
   4  -1   3 264159. 7189.88  37
  -4  -1  -3 261447. 6896.41  39
   4  -1   3 273209. 7269.37  38
  -4   1  -3 260056. 6964.24  45
   4   1   3 262342. 7224.37  37
   4  -1   3 257258. 6756.02  96
   4   1   3 270940. 7078.77  96
   4  -1   3 262579. 7134.22  94
   4   1   3 275135. 6995.94  94
  -4  -1  -3 269197. 7063.89  92
  -4  -1  -3 267033. 7065.83  34
  -4  -1  -3 281482. 7115.25  31
  -4  -1  -3 267614. 7042.61  33
  -4  -1  -3 259078. 6902.62  30
   4   1   3 260412. 6747.73  36
   4   1   3 260647. 6343.41  57
   4  -1   3 262453. 6332.84  62
   4   1   3 269966. 6398.82  62
   4   1   3 261086. 6397.59  61
  -4  -1  -3 262108. 6375.15  69
   4   1   3 259064. 7216.92  23
   4  -1   3 266774. 7238.98  23
   4   1   3 268775. 7118.71  19
   4  -1   3 276555. 7277.31  19
   4   1   4 62826.7 2405.37  23
   4  -1   4 60441.3 2454.73  23
   4   1   4 63486.7 2345.55  19
   4  -1   4 64158.5 2476.73  19
   4   1   4 64816.8 2452.37   1
  -4   1  -4 64077.9 1777.20 109
   4   1   4 62237.3 2330.35  96
   4   1   4 59913.3 1740.08  95
   4  -1   4 65298.4 2428.85  94
   4   1   4 58687.6 2240.38  94
   4   1   4 62019.4 1747.02  98
  -4  -1  -4 65687.0 2291.95  92
  -4  -1  -4 60989.6 2327.35  34
  -4  -1  -4 59923.2 2242.62  33
   4   1   4 58506.0 1921.06  36
  -4  -1  -4 59876.9 2123.06  30
  -4  -1  -4 62412.8 2145.72  29
  -4   1  -4 61434.5 2421.20  29
  -4  -1  -4 62603.2 1770.21  80
  -4  -1  -4 60339.2 1741.29  75
   4   1   4 63055.9 1754.12  88
   4   1   4 61903.7 1711.73  57
   4   1   4 60946.8 1729.48  63
   4  -1   4 60627.5 1659.56  62
   4   1   4 63337.4 1754.61  61
  -4  -1  -4 62311.7 1743.56  69
   4   1   4 61903.2 2446.43  37
   4  -1   4 64914.5 2521.01  38
  -4   1  -4 61055.7 2260.78  41
   4  -1   4 62012.2 2440.23  37
  -4  -1  -4 63969.7 2138.85  39
  -4   1  -4 62630.6 2158.93  45
   4   1   5 29280.6 1526.70  23
   4  -1   5 30445.7 1614.28  23
  -4   1  -5 28546.9 1009.53  27
   4   1   5 29366.5 1483.54  19
  -4  -1  -5 31196.4 1068.83  27
  -4   1  -5 30117.7 1030.91 109
  -4  -1  -5 31314.9 1419.94  92
   4   1   5 31255.0 1513.99  94
   4   1   5 30362.3 1492.07  96
   4   1   5 29236.3 997.924  95
   4  -1   5 31455.9 1599.00  94
   4   1   5 29322.7 1009.78  98
  -4  -1  -5 30725.4 1574.66  34
  -4  -1  -5 30080.4 1441.06  33
  -4  -1  -5 27348.4 1258.07  30
  -4  -1  -5 30052.6 1383.54  29
  -4   1  -5 28815.1 1552.43  29
  -4  -1  -5 30011.1 1015.88  80
   4   1   5 29515.8 1003.74  88
  -4  -1  -5 28761.6 1004.94  75
  -4   1  -5 27759.7 948.968  81
   4   1   5 30353.7 999.404  65
   4  -1   5 30158.8 1030.09  57
   4   1   5 29891.5 978.730  57
   4   1   5 27706.1 922.180  60
   4   1   5 29996.9 1001.87  63
   4   1   5 28646.6 944.773  55
   4  -1   5 29013.9 993.913  61
  -4  -1  -5 30099.1 1021.33  69
   4   1   5 31617.7 1631.23  38
   4  -1   5 32982.0 1707.17  37
  -4   1  -5 28119.5 1397.27  41
  -4  -1  -5 28052.8 1559.79  41
  -4  -1  -5 27549.6 1239.54  39
   4   1   6 30294.8 1595.75  23
   4  -1   6 31034.4 1693.94  23
  -4   1  -6 31855.2 1093.16  27
  -4  -1  -6 31906.3 1131.83  27
   4   1   6 29239.6 1526.21  19
   4  -1   6 30713.0 1723.44  19
   4   1   6 30365.9 1045.11 106
  -4   1  -6 30513.2 1074.38 109
   4   1   6 29369.4 1040.49  95
   4  -1   6 30762.9 1461.10  89
   4   1   6 29749.4 1529.77  96
   4  -1   6 29463.5 1636.76  94
   4  -1   6 30795.9 1078.82  98
   4   1   6 31955.8 1085.91  98
   4   1   6 33249.7 1661.42  94
  -4   1  -6 30025.0 1655.97  29
  -4  -1  -6 33333.8 1529.18  29
  -4   1  -6 32227.2 1742.04  34
  -4  -1  -6 30728.7 1667.37  34
  -4  -1  -6 29683.7 1484.70  33
   4  -1   6 29138.9 1420.03  36
  -4  -1  -6 30246.7 1056.23  80
  -4  -1  -6 30999.0 1077.98  78
  -4  -1  -6 30637.4 1080.99  75
   4   1   6 30893.2 1058.15  88
  -4   1  -6 28470.0 1016.06  81
   4   1   6 33055.8 1078.76  65
   4  -1   6 30584.4 1079.31  57
   4  -1   6 29960.4 1080.75  63
   4   1   6 31369.5 1071.22  63
   4   1   6 29886.3 1002.72  55
   4  -1   6 30079.9 1042.64  61
   4   1   6 30029.1 992.118  60
   4   1   6 30750.4 1716.20  37
   4  -1   6 30382.0 1743.90  37
   4   1   6 31029.9 1686.51  38
  -4   1  -6 31921.7 1476.36  41
  -4  -1  -6 32323.0 1711.08  41
   4  -1   6 33574.9 1799.28  38
   4   1   7 13297.6 1012.08  23
   4  -1   7 15472.5 1150.65  23
  -4   1  -7 14586.0 678.853  27
  -4  -1  -7 14865.8 708.125  27
   4   1   7 13153.5 991.175  19
   4  -1   7 15738.6 1212.32  19
   4   1   7 14566.9 649.312 106
  -4   1  -7 13398.6 639.853 109
   4  -1   7 14298.8 671.705  98
   4   1   7 15857.4 1130.40  94
   4   1   7 13198.7 988.208  96
   4  -1   7 12902.0 898.061  89
   4   1   7 13610.4 625.393  95
   4  -1   7 12872.3 1088.53  94
   4   1   7 13888.3 656.966  98
  -4   1  -7 13748.1 1142.49  29
  -4   1  -7 11694.6 1060.95  34
  -4  -1  -7 13321.2 972.980  29
  -4  -1  -7 13678.7 1125.06  34
  -4  -1  -7 13758.1 977.070  33
  -4  -1  -7 13842.1 631.092  80
  -4  -1  -7 13750.5 661.929  78
   4   1   7 13829.0 638.221  88
  -4   1  -7 13214.8 621.649  81
  -4  -1  -7 13396.1 621.043  74
   4  -1   7 14554.9 678.757  65
   4   1   7 14167.9 648.172  65
   4  -1   7 14059.6 669.098  57
   4  -1   7 14322.5 669.823  63
   4   1   7 14699.9 664.277  63
   4   1   7 14520.9 611.963  55
   4  -1   7 14028.5 634.033  61
   4   1   7 13917.9 598.533  60
   4  -1   7 15210.3 676.136  58
   4   1   7 13269.6 1089.56  38
  -4  -1  -7 16334.3 1198.22  41
   4  -1   7 14409.4 1172.35  38
   4   1   7 12915.6 1115.35  37
   4   1   8 4601.93 569.694  23
   4  -1   8 5982.77 716.436  23
  -4   1  -8 5929.94 416.343  27
  -4  -1  -8 5820.32 440.901  27
   4  -1   8 4650.18 692.278  19
  -4  -1  -8 5751.24 379.576 109
   4  -1   8 6224.26 426.868 106
   4   1   8 6523.63 415.256 106
  -4   1  -8 5730.07 395.972 109
   4   1   8 5424.95 380.769  97
   4  -1   8 6345.29 759.937  94
   4  -1   8 6110.55 420.053  98
   4   1   8 5823.94 720.489  94
  -4   1  -8 6812.45 816.714  34
  -4  -1  -8 5108.59 716.153  34
  -4   1  -8 5640.08 736.279  29
  -4  -1  -8 6641.32 696.141  29
  -4  -1  -8 6279.62 406.821  74
  -4  -1  -8 5446.42 373.773  77
  -4  -1  -8 5815.45 400.494  81
  -4   1  -8 5618.75 390.951  81
   4  -1   8 5459.29 405.550  65
   4   1   8 6794.36 430.428  65
   4  -1   8 6174.98 386.635  56
   4  -1   8 5986.42 419.430  63
   4   1   8 6066.58 413.739  63
   4  -1   8 5975.33 414.321  60
   4  -1   8 6180.50 415.127  58
   4   1   8 5826.58 364.581  60
   4   1   8 5800.35 711.126  38
   4  -1   8 5665.96 736.194  38
  -4  -1  -8 5726.95 714.876  41
   4  -1   8 4776.60 710.200  37
   4   1   8 5667.02 744.743  37
  -4   1  -9 59244.0 1803.77  27
  -4  -1  -9 60493.9 1867.41  27
   4  -1   9 59633.6 1815.67 106
   4   1   9 58864.9 1769.73 106
  -4   1  -9 58210.3 1733.74 109
  -4  -1  -9 56840.1 1683.58 109
   4   1   9 57960.8 1735.42  97
   4  -1   9 59442.1 1785.54  98
   4  -1   9 63308.7 2647.11  94
   4   1   9 54568.2 2444.18  94
  -4   1  -9 59192.3 2621.29  29
  -4  -1  -9 59438.0 1769.09  74
  -4  -1  -9 58527.4 1737.37  77
  -4  -1  -9 59618.8 1787.71  81
  -4   1  -9 57569.4 1765.36  81
   4  -1   9 61887.4 1791.38  58
   4  -1   9 60457.1 1815.37  65
   4  -1   9 59785.0 1802.81  63
   4  -1   9 56820.6 1698.46  56
   4  -1   9 58702.6 1802.49  60
  -4  -1  -9 57373.0 2455.21  41
   4  -1  10 3477.76 298.512 106
   4   1  10 3534.44 288.739 106
   4   1  10 3414.13 258.907  97
   4   1  10 2676.55 464.539  94
   4  -1  10 3200.60 254.462  99
   4  -1  10 3580.29 290.903  98
   4   1  10 3852.92 313.821  98
   4  -1  10 3518.29 542.318  94
  -4   1 -10 3144.67 521.690  29
  -4  -1 -10 3472.89 287.301  74
  -4  -1 -10 3464.65 310.411  78
  -4  -1 -10 3404.02 275.111  77
  -4  -1 -10 3874.67 309.680  81
   4  -1  10 3586.90 301.335  60
   4  -1  10 3611.38 283.908  66
  -4   1 -10 3164.37 289.690  27
  -4  -1 -10 3603.21 327.489  27
   4  -1  11 26336.7 870.654  98
   4   1  11 26352.6 912.670  98
   4  -1  11 26250.3 1390.58  94
   4  -1  11 27542.1 918.104 106
   4   1  11 26199.1 883.888 106
  -4  -1 -11 26486.8 899.150  81
   4  -1  11 26235.0 856.556  66
  -4   1 -11 26311.5 891.396  27
  -4  -1 -11 27265.6 947.347  27
   4  -1  12 1930.06 162.855  93
  -4   1 -12 1817.74 165.822 100
   4  -1  12 1682.02 135.489  98
   4   1  12 1595.99 158.934  98
   4  -1  12 1706.77 158.075 106
   4   1  12 1846.22 154.144 106
  -4  -1 -12 2080.01 168.978  81
  -4   1 -12 1605.38 128.806  51
  -4   1 -12 1562.89 136.703  27
  -4  -1 -12 1929.01 174.016  27
  -4  -2  13 10981.4 388.743 108
   4  -2 -13 10738.0 369.370 110
   4   2 -13 11344.1 402.997 110
  -4  -2  13 10780.1 389.411  99
   4  -2 -13 9887.38 367.627  82
  -4   2  13 9736.21 368.259  47
   4   2 -13 10437.0 379.642  26
  -4   2  12 3333.25 245.924   7
  -4   2  12 3004.26 233.993   6
  -4  -2  12 2957.56 214.531 107
   4   2 -12 3055.79 238.233 110
  -4  -2  12 2708.18 222.162  99
   4  -2 -12 2683.61 198.524  76
   4   2 -12 2557.34 189.202  85
   4  -2 -12 2885.91 207.029  84
   4  -2 -12 3217.79 239.324  72
  -4   2  12 3079.50 231.916  47
  -4   2  11 4743.27 336.177   7
  -4   2  11 4508.49 330.427   6
   4   2 -11 4589.26 329.954 110
  -4  -2  11 4570.85 324.742  99
  -4  -2  11 3881.28 578.935  28
   4  -2 -11 3206.12 517.685  29
   4  -2 -11 4248.31 291.099  76
   4   2 -11 4307.12 297.213  85
   4  -2 -11 4520.60 298.849  84
   4  -2 -11 4532.14 332.804  73
   4  -2 -11 4509.94 328.303  72
   4  -2 -11 4994.39 625.842  71
  -4   2  11 4330.85 318.825  47
  -4   2  10 339.696 117.759   3
  -4   2  10 795.331 195.718   6
  -4  -2  10 656.293 168.187 108
  -4   2  10 428.909 108.018 108
   4   2 -10 868.314 186.524 110
  -4  -2  10 597.109 138.925  90
  -4  -2  10 808.817 174.348  99
   4   2 -10 456.097 195.906  29
   4  -2 -10 564.564 282.602  29
   4   2 -10 782.332 281.992  32
   4  -2 -10 665.279 249.025  32
   4   2 -10 290.148 205.908  86
   4  -2 -10 699.318 147.765  76
   4   2 -10 514.933 146.574  85
   4   2 -10 650.445 121.906  83
  -4  -2  10 767.224 296.270  89
   4   2 -10 525.842 145.641  82
   4  -2 -10 645.736 154.306  72
   4  -2 -10 597.291 256.317  71
  -4  -2  10 446.763 146.962  67
  -4  -2  10 371.012 291.806  28
   4   2  -9 30622.7 1042.98  21
  -4   2   9 29646.0 1046.76  16
  -4  -2   9 25496.5 1612.44   2
  -4   2   9 28345.9 1005.80 108
  -4  -2   9 31152.7 1116.77 108
   4   2  -9 31406.3 1105.52 110
  -4  -2   9 29391.0 1073.79  99
  -4  -2   9 29503.3 1051.41  90
   4  -2  -9 29753.5 1758.29  29
   4   2  -9 30644.2 1711.30  32
   4  -2  -9 30427.6 1835.14  34
  -4  -2   9 29799.0 1837.39  28
   4   2  -9 29487.9 1554.63  29
   4  -2  -9 27527.7 1661.86  32
  -4  -2   9 30333.9 1897.67  35
   4   2  -9 28683.4 1629.03  86
   4   2  -9 29929.7 1078.44  85
   4   2  -9 29037.7 1072.82  82
  -4  -2   9 28404.5 1726.48  89
   4  -2  -9 30247.8 1033.38  76
   4  -2  -9 30485.3 1750.92  71
   4  -2  -9 29631.1 1001.91  70
  -4  -2   9 30050.9 1099.25  67
   4  -2  -9 27670.6 1722.30  42
   4   2  -9 30846.5 1803.74  40
   4   2  -8 19623.5 800.489  21
  -4  -2   8 21287.3 1423.67   2
  -4   2   8 20037.9 804.849   5
  -4   2   8 20540.1 1440.84   2
  -4   2   8 20300.1 815.429  16
  -4   2   8 19721.3 785.628 108
   4   2  -8 20265.8 827.206 110
   4   2  -8 19714.0 762.193 104
  -4  -2   8 19968.7 814.867  99
  -4  -2   8 19866.1 814.294  90
   4  -2  -8 17513.3 1352.01  29
  -4  -2   8 20172.1 1466.71  28
   4   2  -8 17749.4 1168.61  29
   4   2  -8 18802.5 1298.32  32
   4  -2  -8 19671.8 1370.02  32
  -4  -2   8 21937.2 1563.45  35
   4  -2  -8 18326.8 1173.44  86
   4   2  -8 19689.3 825.519  82
   4   2  -8 17615.8 1238.55  86
   4   2  -8 20655.2 832.452  85
   4   2  -8 19605.0 821.940  84
  -4  -2   8 16298.7 1210.04  87
   4  -2  -8 19807.7 747.281  70
   4  -2  -8 17911.0 1262.80  40
   4   2  -8 16414.6 1172.80  42
   4  -2  -8 19178.8 1391.07  42
   4   2  -8 22201.0 1482.92  40
  -4  -2   7 37787.8 1974.53   2
  -4   2   7 39840.3 1293.77   5
  -4   2   7 42071.7 2066.61   2
  -4   2   7 39692.6 1294.78  16
  -4   2   7 38602.6 1265.75 108
  -4   2   7 39012.0 1212.44 107
   4   2  -7 40402.6 1261.34 104
   4   2  -7 37915.8 1204.21 103
   4   2  -7 39175.3 1286.99 110
  -4  -2   7 34761.5 1691.15  92
  -4  -2   7 37603.1 1258.84  99
   4   2  -7 42615.0 2057.84  36
   4   2  -7 35986.1 1697.40  29
   4   2  -7 37878.3 1869.56  32
   4  -2  -7 40365.3 1999.40  32
  -4  -2   7 39950.3 2123.52  35
  -4  -2   7 40013.8 2084.48  31
   4  -2  -7 36415.8 1692.75  86
   4   2  -7 41052.0 1887.32  86
   4   2  -7 39759.0 1304.57  85
   4   2  -7 39165.4 1301.75  82
   4   2  -7 39714.7 1298.08  84
  -4  -2   7 38569.0 1982.43  89
  -4  -2   7 35587.2 1850.94  87
  -4  -2   7 38547.9 1306.62  67
   4  -2  -7 39012.3 1912.32  40
   4   2  -7 36704.4 1745.33  42
   4  -2  -7 38284.3 1992.26  42
  -4  -2   7 38535.9 1964.82  39
   4   2  -7 39340.9 2006.19  40
   4   2  -6 114256. 2986.77  22
  -4  -2   6 112569. 3885.52   2
  -4   2   6 109807. 2975.83   5
  -4   2   6 117003. 3909.52   2
  -4   2   6 113801. 2993.09  16
   4   2  -6 105474. 2898.28 103
  -4   2   6 105438. 2897.73 107
   4   2  -6 114929. 2961.33 104
   4   2  -6 112394. 2963.79 110
  -4   2   6 112640. 2966.45 108
   4   2  -6 106164. 3427.06  96
  -4  -2   6 110163. 2926.55  99
  -4  -2   6 108798. 3631.35  92
   4   2  -6 115476. 3894.29  36
   4   2  -6 115556. 3722.10  32
   4   2  -6 106761. 3445.29  29
  -4  -2   6 116641. 4005.08  35
   4  -2  -6 118670. 3912.20  32
  -4  -2   6 117282. 4004.98  31
   4   2  -6 114328. 3667.45  86
   4   2  -6 110782. 2986.07  85
  -4  -2   6 105341. 3726.90  87
  -4  -2   6 113072. 3862.88  89
  -4  -2   6 112969. 3002.18  67
   4  -2  -6 116055. 3818.68  40
   4   2  -6 106503. 3485.32  42
   4  -2  -6 114243. 3894.92  42
  -4  -2   6 116729. 3924.07  39
  -4   2   6 112762. 3464.86  45
   4   2  -6 118289. 3905.66  40
   4   2  -5 70473.7 1987.48  22
  -4  -2   5 71309.0 2815.79  28
  -4   2   5 70289.1 1986.56   5
  -4   2   5 72447.7 2714.57   2
  -4   2   5 71928.6 1990.30  16
   4   2  -5 65556.6 1918.38 103
  -4   2   5 69183.9 1938.96 107
   4   2  -5 69269.0 1958.25 104
   4   2  -5 69171.3 1951.49 110
  -4   2   5 65834.8 1904.05 105
  -4   2   5 70220.1 1971.67 108
  -4  -2   5 67170.5 1902.21  99
   4   2  -5 70945.6 2469.57  96
  -4  -2   5 70984.9 2616.82  92
  -4  -2   5 70514.5 2798.26  31
  -4  -2   5 72027.5 2790.82  33
   4   2  -5 74166.3 2788.70  36
   4   2  -5 70694.9 2520.77  32
   4  -2  -5 71568.9 2501.25  36
  -4  -2   5 75650.6 2839.59  35
   4   2  -5 68497.3 2491.68  86
  -4  -2   5 70000.2 2685.95  89
  -4  -2   5 72386.3 2725.16  87
  -4  -2   5 70131.9 1983.65  67
   4  -2  -5 69942.8 2668.58  40
   4   2  -5 68189.6 2339.33  42
   4  -2  -5 73388.1 2795.08  42
  -4  -2   5 73656.5 2807.52  39
  -4   2   5 72196.6 1992.52  47
  -4   2   5 71837.3 2513.94  45
   4   2  -5 74526.8 2717.57  40
   4   2  -4 87055.4 2388.90  22
   4   2  -4 91658.4 2913.16  23
  -4  -2   4 88001.2 3159.75  28
  -4   2   4 91960.1 3035.98   2
  -4   2   4 89734.7 2390.53  16
   4   2  -4 84851.1 2335.31 110
   4   2  -4 90154.8 2367.24 103
   4   2  -4 90473.7 2381.02 104
  -4   2   4 87444.8 2353.25 105
  -4   2   4 84091.8 2365.32 108
  -4   2   4 89783.3 2367.52 107
   4   2  -4 92434.3 2936.47  96
  -4  -2   4 94602.0 3115.85  92
  -4  -2   4 93051.1 3229.49  33
  -4  -2   4 89910.5 3181.71  30
   4   2  -4 86451.1 2821.44  32
   4   2  -4 91369.2 3175.23  36
   4  -2  -4 89838.9 2968.84  36
  -4  -2   4 93744.2 3192.63  35
   4   2  -4 84433.2 2830.78  86
   4   2  -4 88281.4 2383.11  85
  -4  -2   4 91225.6 3074.24  89
   4   2  -4 87629.1 2387.72  82
  -4  -2   4 90491.6 3106.28  87
   4   2  -4 86344.8 2261.38  62
  -4  -2   4 86723.2 2363.20  67
   4  -2  -4 90782.2 3152.82  44
   4  -2  -4 93399.1 3145.25  40
   4   2  -4 79001.0 2590.96  42
  -4  -2   4 94695.4 3239.30  39
  -4   2   4 93910.9 3029.16  45
   4   2  -4 87705.6 2994.16  40
   4   2  -3 34851.2 1524.90  23
   4   2  -3 33152.4 1619.22  19
  -4  -2   3 35757.1 1673.08  28
  -4   2   3 36746.7 1529.79   2
   4   2  -3 34957.9 1097.60 104
   4   2  -3 37517.8 1569.27  96
  -4  -2   3 35909.0 1631.67  92
  -4  -2   3 35913.5 1697.56  33
  -4  -2   3 35609.9 1673.10  30
   4   2  -3 33976.5 1348.59  32
   4  -2  -3 35962.6 1590.44  36
  -4  -2   3 34573.7 1615.99  35
   4   2  -3 33215.6 1077.30  85
   4   2  -3 33524.7 1074.89  83
   4   2  -3 33228.2 1080.97  82
  -4  -2   3 34756.0 1545.49  89
   4   2  -3 32582.5 1007.37  62
   4   2  -3 34892.9 1500.25  40
   4  -2  -3 32610.4 1592.86  44
  -4  -2   3 32937.6 1380.08  41
  -4  -2   3 34774.7 1694.27  39
  -4   2   3 34298.1 1579.45  45
  -4   2   2 44255.5 1627.28   2
   4   2  -2 42884.4 1618.19  40
  -4  -2   2 43624.2 1673.34  41
  -4  -2   2 45735.2 1937.53  39
  -4   2   2 42640.7 1811.16  45
   4  -2  -2 40119.3 1550.41  38
   4   2  -2 48604.5 1828.45  96
   4   2  -2 46502.1 1896.09  36
  -4  -2   2 43002.9 1903.42  33
  -4  -2   2 45452.3 1916.00  30
   4  -2  -2 43836.0 1828.42  36
  -4  -2   2 44506.4 1801.63  35
  -4  -2   2 42129.7 1678.46  89
  -4  -2   2 47224.8 1876.04  87
   4   2  -2 41391.0 1228.64  62
   4   2  -2 43680.7 1806.47  23
   4  -2  -2 41577.9 1650.91  23
   4  -2  -2 40614.9 1492.89  19
  -4  -2   2 44567.2 1852.40  28
  -4   2   1 105790. 3125.50   2
   4   2  -1 121276. 3678.47   1
   4   2  -1 111755. 3168.87  40
   4  -2  -1 112627. 3407.25  38
   4  -2  -1 116834. 3585.03  44
   4  -2  -1 100039. 3082.43  43
  -4  -2   1 110704. 3440.14  41
   4   2  -1 116801. 3530.89  96
  -4  -2   1 113760. 3615.86  92
  -4  -2   1 108872. 3607.48  33
   4   2  -1 114252. 3551.39  36
  -4  -2   1 116089. 3487.50  35
  -4  -2   1 118719. 3346.27  89
   4   2  -1 111682. 2903.19  83
  -4  -2   1 119368. 3605.30  87
   4   2  -1 115618. 2886.93  62
   4   2  -1 117865. 3604.78  23
   4   2  -1 111662. 3590.68  19
  -4  -2   1 119847. 3563.79  28
   4  -2  -1 116107. 3306.02  19
   4   2   0 90025.8 3030.88   1
   4  -2   0 83887.2 2856.85  38
   4  -2   0 82322.7 2558.80  43
   4  -2   0 80475.7 2636.05  37
  -4  -2   0 86642.6 2881.40  41
  -4  -2   0 89463.2 3018.92  39
  -4   2   0 85978.5 2948.51  45
   4   2   0 93584.7 2954.68  96
  -4  -2   0 89534.5 2965.03  92
  -4  -2   0 83678.5 2957.33  31
  -4  -2   0 88316.4 2992.11  30
   4   2   0 89338.7 2863.33  36
  -4  -2   0 89111.9 2800.60  35
  -4  -2   0 88678.2 2331.59  79
  -4  -2   0 93540.7 2963.84  87
   4   2   0 87603.6 2303.87  83
  -4  -2   0 82005.0 2564.65  89
   4   2   0 87600.1 2293.70  62
  -4  -2   0 88897.0 2849.39  28
   4   2   0 86224.2 2948.64  19
   4   2   0 90369.5 3001.18  23
   4  -2   0 91137.2 2808.94  19
   4   2   1 52551.3 2135.51  23
   4   2   1 51950.0 2066.87  19
   4  -2   1 53434.5 2051.17  19
  -4  -2  -1 56738.2 2000.07  28
   4   2   1 59002.7 2232.09   1
   4   2   1 51804.8 1492.77 102
  -4  -2  -1 58423.5 2160.48  92
  -4  -2  -1 55228.8 2152.33  31
  -4  -2  -1 48801.1 2075.01  33
   4   2   1 51751.3 1916.15  36
  -4  -2  -1 52530.2 2112.82  30
  -4  -2  -1 54164.0 1926.14  35
  -4  -2  -1 52864.4 1529.48  79
   4   2   1 52271.2 1512.89  83
  -4  -2  -1 54394.0 2053.30  87
   4   2   1 53409.3 1518.34  62
   4  -2   1 53199.1 2107.48  38
   4   2   1 56053.3 2172.07  38
   4  -2   1 51507.4 1958.88  37
  -4  -2  -1 56551.2 2139.21  41
  -4  -2  -1 53228.5 2129.21  39
  -4   2  -1 52366.9 2080.86  45
   4   2   2 16921.8 1041.07  19
   4  -2   2 18425.9 1115.16  19
   4   2   2 18103.9 1139.15   1
   4   2   2 16390.5 621.596 102
   4   2   2 17690.6 663.519 103
  -4   2  -2 16678.2 657.497 109
  -4  -2  -2 17143.9 673.420  91
   4   2   2 16577.7 647.768  95
   4   2   2 16137.4 842.151  94
  -4  -2  -2 17259.2 1051.42  92
  -4  -2  -2 16878.4 1087.09  31
  -4  -2  -2 17719.3 1124.18  33
   4   2   2 16576.6 881.652  36
  -4  -2  -2 16596.9 1053.14  30
  -4  -2  -2 16986.0 919.012  35
  -4  -2  -2 17038.8 651.365  79
  -4  -2  -2 17187.8 1014.58  87
   4  -2   2 16496.6 591.792  62
   4   2   2 15748.1 604.063  61
   4  -2   2 16556.9 1102.76  38
   4   2   2 18192.0 1132.44  38
  -4  -2  -2 16870.1 1087.08  41
  -4  -2  -2 17144.3 1084.02  39
  -4   2  -2 16695.7 1039.31  45
   4  -2   2 15980.9 1019.56  37
   4   2   3 13629.0 1000.51  23
   4   2   3 14496.6 949.951  19
  -4   2  -3 13037.1 581.582  26
   4  -2   3 15446.9 1068.36  19
   4   2   3 13729.2 546.653 102
  -4   2  -3 12152.7 547.665 105
   4   2   3 13220.3 572.390 103
   4   2   3 12980.1 562.349 104
   4   2   3 14118.6 986.470  96
   4   2   3 13895.9 588.902  95
   4   2   3 12657.8 783.792  94
  -4  -2  -3 13872.2 594.716  91
   4  -2   3 14104.4 973.496  94
  -4  -2  -3 12866.1 916.253  92
  -4  -2  -3 13930.9 857.563  34
  -4  -2  -3 13083.2 999.364  31
  -4  -2  -3 14452.2 1017.13  33
  -4  -2  -3 14536.9 982.748  30
  -4  -2  -3 13966.5 826.418  35
  -4  -2  -3 14171.7 576.464  79
   4   2   3 13501.1 581.498  88
  -4  -2  -3 13452.0 568.855  68
   4   2   3 12763.1 512.792  63
   4   2   3 13457.2 558.523  61
  -4  -2  -3 13822.5 580.803  69
   4   2   3 12709.0 985.144  38
  -4  -2  -3 13171.3 994.012  41
   4  -2   3 12932.3 970.134  37
  -4  -2  -3 15269.8 1002.75  39
  -4   2  -3 13917.6 925.616  45
   4  -2   3 13768.8 1043.52  38
   4  -2   4 31271.8 1699.00  19
   4   2   4 29881.0 1433.27  18
   4   2   4 29481.8 1584.21  23
  -4  -2  -4 30009.9 1041.60  27
   4   2   4 29157.2 1445.98  19
  -4   2  -4 27926.7 997.858  26
  -4   2  -4 27044.7 948.698  11
   4   2   4 29236.3 995.684 103
   4   2   4 29272.7 980.203 104
  -4   2  -4 29737.9 1038.91 109
   4   2   4 27762.9 1513.75  96
   4   2   4 30076.0 1370.41  94
   4  -2   4 28326.4 1515.31  94
  -4  -2  -4 29992.2 1018.73  91
   4   2   4 29774.6 978.692  98
  -4  -2  -4 30785.6 1447.84  92
  -4  -2  -4 30280.3 1450.00  34
  -4  -2  -4 30974.0 1641.68  31
  -4  -2  -4 29491.8 1584.44  33
  -4  -2  -4 30568.2 1522.08  30
   4   2   4 29158.0 945.750  63
  -4  -2  -4 29331.5 1024.41  69
  -4  -2  -4 29474.3 975.034  68
  -4  -2  -4 31824.1 1666.25  41
  -4  -2  -4 31294.8 1532.31  39
   4  -2   4 27802.4 1586.29  37
   4  -2   4 28744.4 1653.88  38
  -4   2  -4 28828.5 1399.71  45
   4  -2   5 29082.9 1663.34  19
   4   2   5 25102.3 1256.55  18
   4   2   5 24904.8 1438.54  23
   4  -2   5 26592.5 1593.21  23
   4   2   5 25002.7 1332.98  19
  -4  -2  -5 25446.9 971.844  27
  -4   2  -5 24661.9 934.742  26
   4   2   5 27788.9 1619.78   1
  -4   2  -5 25779.7 971.106 109
   4   2   5 25181.2 917.222 103
   4   2   5 24593.8 892.742 104
   4   2   5 28689.0 1556.46  96
   4   2   5 25876.0 954.253  95
   4  -2   5 24680.3 1456.80  94
   4   2   5 25634.0 919.297  98
   4   2   5 26744.4 1339.92  94
  -4  -2  -5 27863.7 1466.61  34
  -4  -2  -5 27290.6 1531.49  33
  -4  -2  -5 26420.6 1410.75  30
  -4  -2  -5 26221.3 961.391  80
   4   2   5 26592.7 966.109  88
  -4  -2  -5 24518.5 1257.81  86
   4   2   5 25594.0 883.364  65
   4  -2   5 26781.6 959.952  57
   4   2   5 27263.7 913.692  63
   4  -2   5 26424.3 905.973  61
  -4   2  -5 24724.3 905.965  52
  -4  -2  -5 28128.0 983.691  69
   4   2   5 25794.7 1548.31  38
   4  -2   5 23654.3 1527.85  37
  -4  -2  -5 27607.6 1602.41  41
  -4  -2  -5 26279.3 1402.01  39
  -4   2  -6 62319.2 1792.21  27
   4   2   6 62160.7 2513.16  23
   4  -2   6 66762.3 2781.80  23
  -4  -2  -6 61267.0 1887.74  27
  -4   2  -6 60308.0 1822.98  26
   4  -2   6 63252.1 2780.76  19
   4   2   6 67130.2 2781.24   1
   4   2   6 61666.0 1758.18 106
   4   2   6 58656.8 1779.54 103
  -4   2  -6 65400.0 1896.91 109
   4  -2   6 63240.5 2547.42  89
   4   2   6 62590.9 2586.19  96
   4   2   6 64301.1 1867.49  95
   4  -2   6 68290.2 2676.61  94
   4  -2   6 61258.0 1828.78  98
   4   2   6 64607.1 1847.83  98
   4   2   6 65194.1 2448.74  94
  -4  -2  -6 60791.3 2535.92  34
  -4  -2  -6 63035.4 2621.43  33
  -4  -2  -6 63155.8 2426.64  30
  -4  -2  -6 62676.1 1848.93  80
   4   2   6 60318.7 1845.75  88
  -4  -2  -6 60096.3 2291.32  86
   4   2   6 62649.5 1793.44  65
   4  -2   6 63240.4 1860.75  57
  -4   2  -6 57182.8 1765.60  52
   4  -2   6 62537.6 1843.14  63
   4   2   6 60483.8 1791.91  63
   4  -2   6 65007.4 1883.22  55
   4  -2   6 60396.0 1766.20  61
  -4  -2  -6 62672.6 1880.32  69
   4  -2   6 60431.8 2750.35  37
   4   2   6 66113.8 2728.78  38
  -4  -2  -6 61639.4 2392.58  39
   4  -2   6 65151.4 2823.81  38
   4   2   7 114513. 3893.65  23
   4  -2   7 124233. 4283.63  23
  -4   2  -7 114800. 3161.92  27
  -4  -2  -7 121626. 3295.85  27
  -4   2  -7 116616. 3196.98  26
   4   2   7 125101. 4331.92   1
  -4   2  -7 120136. 3174.60   9
   4  -2   7 126169. 3267.38 106
   4   2   7 120578. 3155.14 106
  -4   2  -7 123409. 3272.92 109
   4   2   7 128530. 3258.33  98
   4  -2   7 122287. 4024.99  89
   4  -2   7 119096. 3206.74  98
   4  -2   7 114839. 4079.02  94
   4   2   7 120953. 3958.92  94
  -4  -2  -7 126922. 4204.18  34
  -4  -2  -7 116405. 4085.63  33
  -4   2  -7 124077. 4343.28  29
  -4  -2  -7 121142. 3209.47  80
  -4  -2  -7 120369. 3812.50  86
   4  -2   7 121177. 3257.81  65
   4  -2   7 124660. 3265.96  57
   4  -2   7 124233. 3250.60  63
   4  -2   7 124334. 3287.61  55
  -4  -2  -7 115530. 3119.56  70
  -4   2  -7 119438. 3138.78  52
   4   2   7 117735. 4169.61  38
   4  -2   7 119984. 4381.80  37
  -4  -2  -7 128310. 4365.06  41
   4   2   7 120718. 3185.51  49
   4  -2   7 125186. 4394.73  38
  -4   2  -8 19323.3 762.673  27
   4  -2   8 18712.2 1323.96  23
  -4   2  -8 18426.0 759.839  26
  -4  -2  -8 20135.8 856.690  27
   4  -2   8 19208.8 1436.35  19
   4   2   8 18721.3 1382.85   1
   4  -2   8 20305.0 830.687 106
   4   2   8 20590.7 769.984 106
  -4   2  -8 19136.9 805.733 109
   4   2   8 20192.7 828.407  97
   4  -2   8 16178.3 1142.41  89
   4  -2   8 18906.6 773.912  98
   4  -2   8 20256.1 1344.77  94
   4   2   8 19564.3 812.437  98
   4   2   8 18797.6 1217.22  94
  -4  -2  -8 18771.9 1336.26  34
  -4  -2  -8 18453.8 1262.82  33
  -4   2  -8 19406.7 1384.55  29
  -4  -2  -8 19336.5 760.460  80
  -4  -2  -8 19289.2 833.198  75
  -4  -2  -8 19616.1 814.912  74
   4  -2   8 20055.5 820.207  65
   4  -2   8 20914.2 864.464  60
   4  -2   8 19393.0 807.027  56
   4  -2   8 20222.8 809.893  63
   4  -2   8 19728.6 835.945  55
  -4  -2  -8 19389.5 730.617  70
   4   2   8 16799.1 1249.81  38
  -4  -2  -8 20173.4 1420.02  41
   4  -2   8 21237.0 1475.29  38
   4   2   8 19705.1 755.452  49
   4  -2   9 4907.25 606.746  23
  -4   2  -9 5912.13 361.116  27
  -4  -2  -9 6254.53 428.034  27
  -4   2  -9 6098.97 361.458  26
  -4   2  -9 5767.86 385.770 109
   4  -2   9 6313.42 409.663 106
   4   2   9 6636.91 376.546 106
  -4   2  -9 6093.60 375.940 101
   4   2   9 6489.50 405.969  97
   4  -2   9 5559.46 669.061  94
   4  -2   9 6366.46 378.501  98
   4   2   9 6557.39 411.197  98
   4   2   9 5873.13 646.234  94
  -4   2  -9 5122.25 691.630  29
  -4  -2  -9 6722.46 415.803  74
  -4  -2  -9 6175.38 419.094  78
  -4  -2  -9 6218.59 387.563  77
  -4  -2  -9 5981.80 413.234  75
  -4  -2  -9 6293.14 417.040  81
   4  -2   9 6488.52 400.145  56
   4  -2   9 6302.77 390.136  63
   4  -2   9 7299.48 453.499  60
   4  -2   9 6327.95 401.697  65
   4  -2   9 6487.42 422.927  58
  -4  -2  -9 6124.67 737.580  41
  -4   2 -10 11381.9 498.177 109
   4  -2  10 13038.7 560.811 106
   4   2  10 12577.4 513.559 106
  -4   2 -10 11954.0 516.571 101
  -4  -2 -10 12817.3 566.871  74
  -4  -2 -10 12743.6 581.021  78
  -4  -2 -10 12687.4 540.666  77
  -4  -2 -10 12605.9 571.050  81
   4   2  10 10157.6 806.502  94
   4   2  10 12116.8 541.816  97
   4  -2  10 12392.2 547.785  99
   4  -2  10 11488.4 487.717  98
   4   2  10 12611.6 564.956  98
   4  -2  10 13303.7 947.727  94
   4  -2  10 11431.4 480.264  64
   4  -2  10 12799.6 547.195  56
   4  -2  10 12160.6 574.868  60
   4  -2  10 12451.1 566.725  66
  -4  -2 -10 12925.3 589.323  27
   4  -2  11 11647.9 473.199 106
   4  -2  11 11893.2 467.061  99
   4   2  11 11696.0 491.218  98
  -4  -2 -11 11773.8 486.151  74
  -4  -2 -11 11791.0 499.101  78
  -4  -2 -11 11160.4 456.389  77
  -4  -2 -11 12517.6 504.149  81
  -4   2 -11 11836.1 485.599  51
   4  -2  11 12240.3 495.333  66
  -4  -2 -11 12620.6 515.984  27
  -4  -2 -12 3003.59 177.156  81
  -4   2 -12 2564.73 149.280  15
   4   2  12 2884.90 165.770   8
   4  -2  12 3147.37 185.715  93
   4   2  12 2820.08 178.772  98
  -4  -3  12 7151.86 310.496 108
  -4  -3  12 6472.30 289.975 107
   4   3 -12 7065.20 311.988 110
   4  -3 -12 6164.61 265.567 110
  -4  -3  12 5799.40 259.251  99
  -4   3  12 6674.92 292.497   7
  -4   3  12 7320.83 311.856  47
   4   3 -12 6902.86 306.067  26
  -4   3  11-19.6849 81.2034   7
  -4   3  11 32.1706 88.4724   6
  -4  -3  11 41.6129 84.9496 108
   4   3 -11 21.5629 95.9367 110
  -4  -3  11-33.7956 68.2691  99
  -4  -3  11-23.4094 78.0384  90
   4  -3 -11 21.2139 60.6758  84
   4  -3 -11 105.780 69.8678  72
  -4  -3  11 10.2212 79.9102  67
  -4   3  11 63.1800 91.2005  47
  -4  -3  10 9705.34 489.574 108
   4   3 -10 9741.69 499.023 110
  -4  -3  10 8848.09 451.821  90
  -4  -3  10 9161.80 443.068  99
   4  -3 -10 8140.85 762.463  29
  -4  -3  10 7484.36 817.241  28
   4  -3 -10 8977.72 412.107  76
   4   3 -10 8663.84 427.564  85
   4  -3 -10 9322.35 464.184  72
   4  -3 -10 8534.38 810.407  71
  -4   3  10 9837.72 480.855   7
  -4   3  10 9118.82 448.884   3
  -4   3   9 18420.2 760.402   7
  -4   3   9 18267.8 786.304   6
  -4   3   9 18324.2 757.212   3
  -4  -3   9 20356.9 795.139 108
   4   3  -9 18653.8 785.161 110
  -4  -3   9 18205.6 720.446  99
  -4  -3   9 19212.8 777.824  90
  -4  -3   9 18355.8 1354.76  28
   4  -3  -9 16625.1 1223.65  29
   4   3  -9 17067.4 1216.25  86
   4   3  -9 17278.7 722.535  85
  -4  -3   9 16577.9 1260.10  89
   4  -3  -9 18332.7 686.928  76
   4  -3  -9 20103.7 1300.84  71
  -4  -3   9 18880.2 789.571  67
   4   3  -9 17571.0 739.808  21
  -4  -3   8 2018.86 516.901  28
   4   3  -8 2010.86 252.075  21
  -4   3   8 2002.74 245.328   7
  -4   3   8 2214.64 271.282   6
  -4   3   8 2029.24 260.607  16
   4   3  -8 2228.10 265.594 110
  -4  -3   8 1983.85 221.183  99
   4  -3  -8 1918.68 449.940  29
   4  -3  -8 1855.77 405.469  32
   4   3  -8 2072.52 451.048  86
   4   3  -8 1675.66 223.108  85
   4   3  -8 1901.13 201.981  83
  -4  -3   8 1652.13 431.100  89
  -4  -3   8 2170.12 274.114  67
   4   3  -8 1901.72 442.519  40
  -4  -3   7 52041.0 2522.33  28
   4   3  -7 49677.2 1591.95  21
  -4   3   7 52933.0 1561.51   7
  -4  -3   7 48201.5 2324.24   2
  -4   3   7 54666.1 1634.35   6
  -4   3   7 49694.2 2362.90   2
  -4   3   7 49789.2 1588.55  16
  -4   3   7 46674.7 1461.15   8
  -4   3   7 46778.0 1463.74 108
   4   3  -7 47913.6 1458.36 104
   4   3  -7 51724.6 1604.37 110
  -4  -3   7 49520.6 2206.23  92
  -4  -3   7 48316.2 1476.87  99
   4  -3  -7 46937.7 2363.87  34
   4  -3  -7 52881.3 2370.47  29
   4  -3  -7 48757.3 2215.10  32
  -4  -3   7 49586.2 2500.99  35
  -4  -3   7 45298.2 2364.79  31
   4   3  -7 44810.3 2180.96  86
   4   3  -7 52455.0 1586.78  85
   4   3  -7 49590.8 1493.44  83
  -4  -3   7 50330.1 2367.24  89
  -4  -3   7 51012.1 2367.90  87
  -4  -3   7 50669.3 1601.99  67
   4  -3  -7 48067.2 2298.03  42
  -4  -3   7 43325.8 2177.45  39
  -4   3   7 50646.8 1593.38  47
   4   3  -7 51969.4 2359.32  40
   4   3  -6 55194.9 1694.43  21
  -4   3   6 51272.0 1587.69   8
  -4   3   6 55787.4 1619.15   7
  -4   3   6 56752.6 1694.51   6
  -4   3   6 57265.8 2483.11   2
  -4   3   6 53801.9 1679.44   5
  -4   3   6 54989.7 1694.80  16
  -4   3   6 51369.0 1585.82 108
  -4   3   6 49833.1 1546.56 105
   4   3  -6 55498.2 1684.28 110
   4   3  -6 53345.0 1592.40 104
  -4  -3   6 56075.9 2414.03  92
   4  -3  -6 52762.6 2507.73  34
  -4  -3   6 51971.5 2532.62  35
   4  -3  -6 48598.3 2268.62  32
  -4  -3   6 58163.0 2620.71  31
   4   3  -6 52406.9 2309.95  86
   4   3  -6 56123.8 1676.22  85
  -4  -3   6 51356.1 2383.87  89
   4   3  -6 54928.5 1613.31  83
  -4  -3   6 55856.9 2489.70  87
  -4   3   6 50787.4 1536.21  54
  -4  -3   6 55682.2 1681.41  67
   4  -3  -6 51850.4 2255.79  40
   4  -3  -6 52242.7 2382.33  42
  -4  -3   6 53209.3 2427.28  39
  -4   3   6 54111.7 1675.93  47
   4   3  -6 55715.0 2397.42  40
   4   3  -5 22943.8 862.073  20
  -4   3   5 22802.6 887.392  17
   4   3  -5 24898.9 1382.06  18
  -4   3   5 22367.7 872.678  12
  -4   3   5 26625.2 941.812   6
  -4   3   5 24697.1 1469.57   2
  -4   3   5 24548.5 949.817  16
  -4   3   5 22505.3 873.224   8
  -4   3   5 23999.3 884.514 105
  -4   3   5 22870.9 875.020 108
   4   3  -5 24246.0 854.323 103
   4   3  -5 25711.7 941.514 110
   4   3  -5 24502.4 891.972 104
  -4  -3   5 24630.9 1497.78  92
  -4  -3   5 22996.7 1536.63  31
  -4  -3   5 25215.0 1542.78  33
  -4  -3   5 25795.1 1528.86  30
   4   3  -5 26236.9 1592.80  36
  -4  -3   5 25561.9 1613.55  35
   4   3  -5 24975.6 930.572  85
   4   3  -5 24887.3 898.269  83
  -4  -3   5 21728.5 1395.85  89
  -4   3   5 24499.8 875.428  54
  -4  -3   5 26102.8 937.585  67
   4  -3  -5 23653.6 1410.26  40
   4  -3  -5 22266.9 1444.15  42
  -4  -3   5 24439.2 1524.99  39
  -4   3   5 24975.4 931.264  47
   4   3  -5 24081.9 1401.05  40
  -4   3   5 23909.3 1373.38  45
   4   3  -4 30894.2 1641.13  18
  -4   3   4 33078.2 1134.07  17
   4   3  -4 33287.9 1111.03  20
  -4  -3   4 33861.3 1839.33  28
  -4   3   4 32721.3 1121.28  12
  -4   3   4 34721.5 1685.37   2
  -4   3   4 31785.9 1104.79  11
  -4   3   4 36090.0 1126.05   6
  -4   3   4 33183.2 1139.37   5
  -4   3   4 32166.1 1110.16   8
  -4   3   4 32118.4 1114.68 105
  -4   3   4 30475.8 1084.91 108
   4   3  -4 32297.8 1076.47 103
   4   3  -4 33757.1 1117.28 104
   4   3  -4 33870.9 1135.24 110
   4   3  -4 30908.8 1433.81  96
  -4  -3   4 35715.9 1817.91  92
  -4  -3   4 34084.7 1853.99  31
  -4  -3   4 34773.4 1829.03  33
  -4  -3   4 33029.2 1773.63  30
   4   3  -4 33289.5 1806.43  36
   4  -3  -4 33308.3 1587.54  36
  -4  -3   4 32875.4 1818.22  35
   4   3  -4 32948.3 1134.68  85
  -4  -3   4 34664.5 1699.11  89
   4   3  -4 34857.5 1123.32  83
  -4  -3   4 32929.4 1766.08  87
  -4   3   4 31254.0 1045.68  53
  -4   3   4 33847.6 1111.66  54
  -4  -3   4 33089.7 1109.65  67
   4  -3  -4 34296.2 1810.45  44
   4  -3  -4 32461.5 1687.16  40
   4  -3  -4 34346.6 1749.79  42
  -4  -3   4 33017.5 1806.24  39
  -4   3   4 33926.9 1132.52  47
   4   3  -4 33155.1 1581.85  40
  -4   3   4 33347.6 1694.82  45
   4   3  -3 5675.30 682.095  18
  -4  -3   3 6526.39 383.507  24
   4   3  -3 5582.64 378.307  20
   4   3  -3 6223.66 396.146  22
  -4  -3   3 6463.85 752.768  28
  -4   3   3 6153.70 399.015  17
  -4   3   3 6543.12 409.834  12
  -4   3   3 6101.36 628.543   2
  -4   3   3 5935.14 357.090   6
  -4   3   3 5925.45 383.371  11
  -4   3   3 6313.58 393.715   5
  -4   3   3 6193.56 409.382  10
  -4   3   3 5437.07 362.173   9
  -4   3   3 6732.23 415.878  16
  -4   3   3 6869.46 411.879 105
   4   3  -3 6283.85 383.244 103
   4   3  -3 6272.95 394.503 104
   4   3  -3 6229.96 388.294 110
   4   3  -3 6252.05 609.965  96
  -4  -3   3 6121.36 733.788  31
  -4  -3   3 7176.91 784.498  33
  -4  -3   3 7468.85 783.660  30
   4   3  -3 6337.26 717.066  36
   4  -3  -3 5506.67 630.793  36
  -4  -3   3 6670.75 753.526  35
  -4  -3   3 6177.57 635.711  89
   4   3  -3 6438.03 386.111  83
  -4  -3   3 6936.93 746.323  87
  -4   3   3 6998.45 409.125  54
  -4  -3   3 6516.32 374.182  67
  -4   3   3 6495.40 393.115  47
   4  -3  -3 6397.46 728.109  44
  -4  -3   3 5906.07 733.954  39
   4   3  -3 6175.95 576.103  40
  -4   3   3 5725.02 673.047  45
  -4   3   2 20429.8 814.079  12
  -4   3   2 20285.8 1090.06   2
  -4   3   2 20203.4 804.364  11
  -4   3   2 20217.6 782.050   5
  -4   3   2 21280.6 826.562  10
  -4   3   2 21224.1 781.862  15
  -4   3   2 20550.5 769.439  14
  -4   3   2 21236.3 813.102  16
  -4   3   2 21284.7 804.806   9
  -4   3   2 21472.5 814.775 112
  -4   3   2 20725.0 819.422 105
   4   3  -2 20668.0 787.374 103
   4   3  -2 21105.3 809.111 104
   4   3  -2 20894.9 793.063 110
   4   3  -2 21225.9 1175.86  96
  -4  -3   2 23238.1 1385.77  92
  -4  -3   2 22176.9 814.574  90
  -4  -3   2 22923.5 1411.73  31
  -4  -3   2 22966.1 1402.37  33
   4   3  -2 21969.5 1319.89  36
  -4  -3   2 19942.4 1302.15  30
   4  -3  -2 21443.3 1277.75  36
  -4  -3   2 22112.3 1343.19  35
  -4  -3   2 20663.4 1127.79  89
   4   3  -2 23122.1 824.803  83
  -4  -3   2 22162.5 1325.95  87
   4   3  -2 20303.2 797.744  22
  -4  -3   2 20103.3 781.620  24
   4   3  -2 24377.8 1403.64  18
   4   3  -2 19944.6 1290.53  23
   4   3  -2 19235.7 799.704  20
  -4  -3   2 22345.8 1363.84  28
  -4   3   2 21296.2 825.817  17
   4  -3  -2 18865.3 1270.42  44
  -4  -3   2 22507.6 1416.28  39
  -4   3   2 20543.0 785.881  47
  -4   3   2 21079.4 1312.63  45
  -4   3   1 5900.45 385.957  11
  -4   3   1 5882.71 353.140   5
  -4   3   1 5731.72 376.774  10
  -4   3   1 6314.33 392.757   9
  -4   3   1 5935.51 370.112  16
  -4   3   1 5729.37 360.832  15
  -4   3   1 5705.14 352.909  14
   4   3  -1 6054.57 364.187 110
   4   3  -1 6241.76 380.966 103
  -4   3   1 5764.41 345.706 109
   4   3  -1 6231.69 382.095 104
  -4   3   1 5814.70 375.537 112
  -4  -3   1 6070.32 366.545  90
   4   3  -1 5183.27 575.437  96
  -4  -3   1 6086.58 691.276  92
  -4  -3   1 5324.43 687.057  31
  -4  -3   1 5797.08 688.917  33
  -4  -3   1 5786.19 681.927  30
   4   3  -1 6471.68 668.644  36
  -4  -3   1 6554.77 684.018  35
   4   3  -1 5980.38 368.361  83
  -4  -3   1 5982.17 658.549  87
  -4  -3   1 6144.73 377.292  24
   4   3  -1 6645.16 718.708  18
   4   3  -1 6442.72 713.301  23
   4   3  -1 6025.58 390.439  20
   4   3  -1 5557.97 354.968  22
  -4  -3   1 6294.77 705.414  28
   4  -3  -1 6035.00 686.245  44
   4  -3  -1 5267.26 541.730  43
   4  -3  -1 4834.42 569.580  38
  -4  -3   1 5786.82 571.101  41
  -4  -3   1 5555.71 701.136  39
  -4   3   0 3059.65 279.904  12
  -4   3   0 2880.13 275.049   9
  -4   3   0 3139.93 270.987  16
  -4   3   0 2576.46 251.737  10
  -4   3   0 2833.91 258.862  15
  -4   3   0 2909.05 247.079  14
   4   3   0 2548.13 459.360   1
   4   3   0 2905.48 247.096 110
  -4   3   0 3050.44 286.383 105
   4   3   0 2464.33 243.972 103
   4   3   0 2871.01 263.556 102
  -4   3   0 2850.28 255.986 109
  -4  -3   0 2734.40 240.899  90
  -4  -3   0 3276.92 515.758  92
   4   3   0 2868.74 466.806  96
   4   3   0 2539.31 224.358  95
  -4  -3   0 2709.87 456.661  35
  -4  -3   0 3149.01 525.878  31
  -4  -3   0 2717.09 495.136  33
   4   3   0 2651.00 424.910  36
  -4  -3   0 3479.64 545.361  30
  -4  -3   0 4380.97 315.731  79
   4   3   0 2285.17 210.685  88
  -4  -3   0 3411.91 499.294  87
   4   3   0 2968.52 471.962  19
   4   3   0 3377.79 520.113  23
  -4   3   0 2710.18 268.138  17
   4   3   0 2615.23 235.960  22
  -4  -3   0 3197.13 494.689  28
  -4   3   0 2806.59 486.633  45
   4  -3   0 2686.20 396.765  43
  -4  -3   0 2800.44 426.684  41
   4  -3   0 2537.56 440.645  38
  -4   3  -1 19606.4 786.286  12
  -4   3  -1 19434.0 781.288  11
  -4   3  -1 20397.3 804.775   9
  -4   3  -1 18753.2 732.368  16
  -4   3  -1 20101.9 779.711  15
  -4   3  -1 18845.4 746.380  10
   4   3   1 19342.5 1285.05   1
  -4   3  -1 19781.5 789.657 105
   4   3   1 19027.7 731.628 110
   4   3   1 20677.0 781.013 102
  -4   3  -1 19239.0 769.629 109
   4   3   1 18937.4 764.553 104
   4   3   1 20511.5 1238.55  96
   4   3   1 20015.4 740.836  95
  -4  -3  -1 19941.7 1242.48  92
  -4  -3  -1 19916.6 1312.64  31
  -4  -3  -1 20351.1 1331.17  33
   4  -3   1 18546.6 1135.04  37
   4   3   1 18430.5 1047.38  36
  -4  -3  -1 19690.5 1200.29  35
  -4  -3  -1 20438.5 766.451  79
   4   3   1 17920.8 709.004  88
  -4  -3  -1 20432.0 1198.00  87
   4  -3   1 18136.4 1091.28  43
   4  -3   1 20073.0 1293.27  38
  -4  -3  -1 21004.2 1237.70  41
  -4   3  -1 19954.7 1267.30  45
   4   3   1 20308.9 1295.16  18
   4   3   1 19585.2 777.230  20
   4   3   1 19115.8 1185.18  19
  -4  -3  -1 22520.8 1297.15  28
   4  -3   1 18272.4 1109.36  19
   4   3   2 17731.2 1190.26  18
   4   3   2 17129.4 711.612  20
   4   3   2 17133.7 1225.25  23
   4   3   2 16581.5 1076.47  19
   4  -3   2 15721.5 1090.45  19
  -4   3  -2 16923.9 715.023  12
   4   3   2 19009.0 1275.37   1
  -4   3  -2 17332.7 724.036  11
  -4   3  -2 16883.3 683.792  10
  -4   3  -2 17235.0 674.613  16
  -4   3  -2 18848.6 751.265  15
  -4   3  -2 16463.1 718.088 105
   4   3   2 17469.4 727.594 103
  -4   3  -2 17591.4 738.008 109
   4   3   2 18180.0 734.770 104
   4   3   2 17523.7 711.570 102
   4   3   2 19177.5 1226.29  96
  -4  -3  -2 17916.7 739.282  91
   4   3   2 16851.5 690.642  95
  -4   3  -2 16635.1 655.796 100
  -4  -3  -2 17855.1 1169.96  92
  -4  -3  -2 18520.9 1296.39  31
   4  -3   2 16130.2 1127.15  37
  -4  -3  -2 19160.5 1281.80  30
  -4  -3  -2 15665.5 1077.64  35
  -4  -3  -2 17052.2 688.396  79
   4   3   2 17027.1 686.125  88
  -4  -3  -2 16231.2 1060.08  87
  -4   3  -2 17200.6 710.690  54
   4  -3   2 17129.3 1248.73  38
  -4  -3  -2 20022.5 1258.67  41
  -4  -3  -2 18978.5 1281.99  39
  -4   3  -2 17982.3 1197.55  45
   4   3   3 9653.32 497.716  20
   4   3   3 9861.20 932.807  23
   4   3   3 9491.92 861.397  18
   4   3   3 9015.93 767.107  19
  -4   3  -3 10252.4 535.535  26
   4  -3   3 9592.49 892.294  19
  -4   3  -3 10091.7 511.632  12
   4   3   3 10500.2 949.578   1
  -4   3  -3 10307.6 527.225  11
  -4   3  -3 10391.4 526.252 105
   4   3   3 9740.82 519.345 104
   4   3   3 9763.37 525.336 103
  -4   3  -3 10040.2 544.086 109
   4   3   3 8605.81 836.107  96
  -4  -3  -3 9915.88 850.391  92
  -4  -3  -3 9748.49 515.543  91
  -4   3  -3 9654.65 485.201 100
   4   3   3 10612.2 526.690  95
   4  -3   3 9956.77 835.200  94
   4  -3   3 8548.10 866.637  37
  -4  -3  -3 11010.2 969.921  30
  -4  -3  -3 9733.56 838.874  35
   4   3   3 9655.18 502.237  88
  -4   3  -3 9819.75 516.294  52
  -4   3  -3 9587.98 494.845  54
  -4  -3  -3 9569.60 498.331  68
   4  -3   3 10634.2 1011.03  38
   4   3   3 9947.07 495.249  50
  -4  -3  -3 10447.5 942.295  41
  -4  -3  -3 10142.7 936.982  39
  -4   3  -3 8233.40 809.535  45
   4  -3   4 35781.2 1906.31  19
   4   3   4 34380.1 1150.57  20
   4   3   4 35854.0 1875.44  23
  -4   3  -4 35851.0 1234.37  26
   4   3   4 34530.2 1712.62  18
  -4   3  -4 35095.1 1169.60  12
  -4   3  -4 33969.5 1189.18  11
   4   3   4 36561.4 1937.78   1
  -4   3  -4 35204.0 1182.21 105
   4   3   4 36602.6 1226.18 103
   4   3   4 34590.7 1209.14 104
  -4   3  -4 37832.7 1210.59 100
   4   3   4 37423.2 1232.40  95
  -4  -3  -4 38646.3 1226.58  91
   4  -3   4 35452.1 1742.52  94
  -4  -3  -4 35724.8 1665.43  92
  -4  -3  -4 36821.6 1962.51  33
   4  -3   4 35760.3 1941.73  37
  -4  -3  -4 38987.7 1944.10  30
  -4  -3  -4 37546.4 1754.68  35
   4   3   4 39642.9 1247.89  88
   4  -3   4 37495.0 1196.14  57
  -4   3  -4 36040.3 1217.77  52
  -4  -3  -4 35278.8 1236.94  69
  -4   3  -4 34344.0 1149.48  54
  -4  -3  -4 35612.1 1167.73  68
   4  -3   4 37774.5 2058.89  38
  -4  -3  -4 36789.7 1963.86  41
  -4  -3  -4 35065.2 1884.50  39
  -4   3  -4 33416.7 1702.11  45
   4   3   5 129632. 4305.11  23
  -4  -3  -5 123930. 3387.22  27
  -4   3  -5 129120. 3455.35  26
  -4   3  -5 126190. 3373.01  11
   4   3   5 131845. 4476.14   1
  -4   3  -5 118687. 3301.32 101
  -4   3  -5 128315. 3487.68 109
   4   3   5 125120. 3399.12 104
   4   3   5 131360. 3444.07 103
   4  -3   5 129472. 4197.11  94
   4   3   5 141097. 4516.43  96
   4   3   5 132385. 3452.87  95
  -4   3  -5 131597. 3439.84 100
   4   3   5 131904. 3323.33  98
   4  -3   5 133935. 4448.13  89
  -4  -3  -5 135480. 4555.71  33
  -4  -3  -5 136699. 4424.57  30
  -4  -3  -5 122594. 4058.46  35
   4  -3   5 132622. 3399.85  57
   4  -3   5 128969. 3365.83  63
   4  -3   5 133072. 3429.91  55
  -4  -3  -5 131616. 3475.67  69
  -4   3  -5 130586. 3421.50  52
  -4  -3  -5 134230. 4416.51  39
   4  -3   5 124266. 4495.58  37
  -4  -3  -5 130836. 4543.77  41
   4  -3   5 125565. 4608.43  38
   4  -3   6 3184.81 608.007  19
   4   3   6 3890.46 551.238  23
   4  -3   6 2933.99 596.834  23
  -4  -3  -6 3422.23 307.467  27
  -4   3  -6 3870.59 339.250  26
   4   3   6 3619.73 598.345   1
  -4   3  -6 2731.46 256.711  11
  -4   3  -6 3028.25 326.557 109
   4   3   6 3177.64 291.381 103
  -4   3  -6 2897.35 264.249 101
   4   3   6 3265.87 566.122  96
  -4   3  -6 3396.34 318.223 100
   4  -3   6 3677.08 538.381  94
   4   3   6 3377.93 277.416  98
  -4  -3  -6 3053.44 588.126  31
  -4  -3  -6 3773.37 623.336  33
   4  -3   6 2638.88 549.622  37
  -4  -3  -6 3537.29 568.628  30
  -4  -3  -6 3202.85 303.479  80
   4  -3   6 2876.54 537.274  89
  -4  -3  -6 3335.36 498.232  86
   4  -3   6 3659.88 302.960  57
   4  -3   6 3304.91 280.105  63
   4  -3   6 3736.64 318.928  55
  -4   3  -6 3764.63 318.460  52
  -4  -3  -6 3318.23 540.668  39
   4   3   6 3602.25 323.891  49
   4  -3   6 3184.50 607.729  38
  -4  -3  -6 3922.02 656.338  41
  -4   3  -7 27050.4 1018.50  26
   4  -3   7 27345.7 1701.47  23
  -4  -3  -7 28172.5 1009.29  27
   4   3   7 28067.8 1002.50  17
  -4   3  -7 27235.0 1013.66   9
   4  -3   7 27010.8 976.075 106
  -4   3  -7 26474.2 952.234 101
  -4   3  -7 27242.4 1047.42 109
   4  -3   7 28449.0 1632.69  89
  -4   3  -7 28522.3 1051.83 100
   4  -3   7 25605.2 1467.18  94
   4   3   7 28074.3 973.859  98
  -4  -3  -7 27540.1 1525.18  30
  -4  -3  -7 27600.9 991.635  80
  -4  -3  -7 29098.3 1076.29  75
  -4  -3  -7 25491.2 1423.26  86
   4  -3   7 27482.6 984.753  65
   4  -3   7 27638.0 954.071  63
   4  -3   7 27842.8 1016.54  55
   4  -3   7 28968.2 1063.51  58
  -4  -3  -7 26436.0 1720.71  41
   4   3   7 28030.9 1024.04  49
  -4  -3  -8 5193.74 354.116  27
   4  -3   8 4646.29 652.126  23
  -4   3  -8 5724.07 378.342  26
  -4   3  -8 4961.52 334.499 101
   4  -3   8 5094.74 339.868 106
  -4   3  -8 4821.98 365.656 109
   4   3   8 5393.72 382.886  97
  -4   3  -8 5431.32 391.464 100
   4  -3   8 5176.18 587.169  94
   4   3   8 5591.96 350.942  98
   4   3   8 5088.51 334.615  17
  -4   3  -8 5536.48 360.677   9
  -4  -3  -8 4767.91 318.208  80
  -4  -3  -8 5771.55 401.219  78
  -4  -3  -8 5675.24 396.540  75
   4  -3   8 4630.99 327.001  65
   4  -3   8 5048.52 370.773  56
   4  -3   8 5581.92 373.854  55
   4  -3   8 5589.78 385.874  60
  -4  -3  -8 5477.28 340.102  70
   4  -3   8 6012.69 406.788  58
   4   3   8 5633.45 368.885  49
  -4  -3  -9 8053.19 410.276  27
   4  -3   9 7952.77 392.570 106
  -4   3  -9 6776.26 370.558 101
  -4  -3  -9 7790.64 434.634  74
  -4  -3  -9 8749.93 463.871  78
  -4  -3  -9 8467.19 451.832  75
  -4  -3  -9 7566.04 433.682  81
   4   3   9 7732.52 429.150  97
  -4   3  -9 8074.80 450.910 100
   4   3   9 7813.65 402.495  98
   4  -3   9 7417.28 375.796  65
  -4   3  -9 7484.43 436.189  51
   4  -3   9 8156.98 439.999  56
   4  -3   9 8096.89 441.207  60
   4  -3   9 7778.67 436.654  58
   4   3   9 7354.61 386.134  49
   4   3  10 512.653 103.281  98
  -4   3 -10 452.359 117.753 100
   4  -3  10 623.679 126.699  99
  -4  -3 -10 597.965 137.741  78
  -4  -3 -10 567.541 115.304  74
  -4  -3 -10 545.559 107.346  77
  -4  -3 -10 551.372 126.311  81
  -4   3 -10 783.913 135.572  51
   4  -3  10 571.698 127.390  66
   4  -3  10 553.743 110.878  64
   4  -3  10 435.344 104.834  60
   4  -3  10 679.477 102.982 106
   4  -3  11 2524.20 171.036  99
   4   3  11 2570.04 156.105  98
  -4  -3 -11 2922.69 186.515  78
  -4  -3 -11 2289.00 150.012  77
  -4   3 -11 2804.24 179.589  51
   4   3  11 2905.69 179.701  48
  -4   3 -11 3118.12 193.573  15
   4   3  11 2602.63 181.745   8
   4   4 -11 17639.1 567.635 110
  -4   4  11 17250.5 543.048  47
   4   4 -11 18371.5 545.117  26
   4   4 -10 10322.0 421.703  26
  -4  -4  10 9897.57 411.998 108
   4   4 -10 10733.7 454.716 110
  -4   4  10 9590.42 411.161 112
  -4  -4  10 10010.7 426.642  90
   4   4 -10 10221.3 418.571  13
  -4   4  10 9830.84 413.558   3
  -4  -4  10 10741.5 447.919  67
  -4   4  10 9919.19 422.385  47
   4   4  -9 2290.56 217.310  26
  -4   4   9 2452.50 236.552   3
  -4  -4   9 2251.55 209.836 108
   4   4  -9 2187.22 226.724 110
   4   4  -9 2160.85 197.924 102
  -4  -4   9 2648.50 248.110  90
   4  -4  -9 2263.68 196.969  72
  -4  -4   9 2479.05 240.499  67
  -4   4   9 2663.83 235.922  47
   4   4  -8 35051.8 1112.82  26
   4   4  -8 33045.6 1140.79  21
  -4   4   8 33369.9 1062.53   7
  -4   4   8 33928.5 1156.59   3
  -4  -4   8 34994.0 1096.66 108
   4   4  -8 33379.2 1153.39 110
  -4  -4   8 33259.5 1818.33  28
   4  -4  -8 31283.8 1579.67  71
  -4  -4   8 33364.5 1136.58  67
  -4   4   8 34709.4 1131.76  47
   4   4  -7 7915.58 480.819  21
  -4  -4   7 8033.41 902.785  28
   4   4  -7 8133.28 449.335  26
  -4   4   7 7890.82 418.139   7
  -4   4   7 9223.15 498.737   6
  -4   4   7 9166.74 515.526  16
  -4   4   7 8361.46 500.006   3
  -4  -4   7 8640.86 446.961 108
   4   4  -7 8581.24 498.892 110
  -4  -4   7 7841.28 808.923  92
  -4  -4   7 8397.68 496.367  90
  -4  -4   7 7108.27 788.073  89
  -4  -4   7 8067.43 471.519  67
  -4   4   7 8358.40 472.477  47
  -4  -4   6 24327.4 1620.96  28
  -4   4   6 24259.0 915.750   6
  -4  -4   6 24182.0 848.372 108
   4   4  -6 23754.1 939.523 110
  -4  -4   6 24463.0 1538.06  92
   4  -4  -6 19073.8 1284.71  29
  -4  -4   6 21999.1 1427.99  89
  -4   4   6 22104.3 812.310  54
  -4  -4   6 24301.6 914.386  67
  -4   4   6 24241.2 910.229  47
   4   4  -5 26988.9 961.981  20
  -4   4   5 25905.9 994.844  17
   4   4  -5 27734.7 1050.54  21
  -4   4   5 25857.1 967.225  12
  -4   4   5 25191.4 1553.18   2
  -4   4   5 26644.8 973.805   6
   4   4  -5 28370.4 1042.28 110
   4   4  -5 26155.2 926.339 104
  -4  -4   5 28010.0 1694.56  92
  -4  -4   5 23660.7 1598.88  31
   4  -4  -5 24143.6 1582.72  34
  -4  -4   5 25225.5 1555.72  33
  -4  -4   5 27319.1 1759.18  35
  -4  -4   5 27143.5 1547.86  89
  -4  -4   5 25553.7 1639.40  87
  -4   4   5 25844.4 906.035  53
  -4   4   5 26301.0 951.519  54
  -4  -4   5 28107.7 985.997  67
  -4  -4   5 25038.8 1574.00  39
  -4   4   5 27420.4 989.743  47
   4   4  -4 70749.9 2077.17  20
  -4   4   4 70736.3 2121.63  17
   4   4  -4 73533.7 2133.81  21
   4   4  -4 69925.2 2850.60  18
  -4   4   4 70663.2 2090.28  12
  -4   4   4 71725.0 2783.47   2
  -4   4   4 70172.9 2044.50  11
  -4   4   4 70468.0 2137.57  10
  -4   4   4 74406.8 2137.37  16
  -4   4   4 70179.8 2096.57 105
   4   4  -4 68726.0 1973.63 103
   4   4  -4 77817.3 2076.32 104
   4   4  -4 71896.9 2119.25 110
  -4  -4   4 74685.1 3077.39  92
  -4  -4   4 74035.5 2120.51  90
  -4  -4   4 65671.3 2947.54  31
   4  -4  -4 67235.7 2869.87  34
  -4  -4   4 70584.3 2910.70  33
  -4  -4   4 72610.6 2943.64  30
  -4  -4   4 72567.5 3108.51  35
  -4  -4   4 71387.7 2731.14  89
  -4  -4   4 71255.9 2989.29  87
  -4  -4   4 73501.0 2041.68  67
  -4   4   4 70138.8 2030.47  53
  -4   4   4 75933.7 2097.32  54
   4  -4  -4 66776.2 2773.95  42
  -4  -4   4 74171.6 3041.93  39
  -4   4   4 72804.7 2072.99  47
  -4   4   4 70837.5 2881.72  45
   4   4  -3 46838.4 1471.66  20
  -4  -4   3 46458.1 2314.44  28
  -4   4   3 42435.3 1467.65  17
   4   4  -3 43239.1 1442.07  21
   4   4  -3 47003.2 2233.16  18
  -4   4   3 42876.3 1449.97  12
  -4   4   3 45266.2 1436.32  11
  -4   4   3 46035.8 1470.17  16
   4   4  -3 45037.2 1459.88 110
   4   4  -3 43274.8 1372.19 103
   4   4  -3 45179.6 1425.03 104
  -4   4   3 44726.2 1476.97 105
  -4  -4   3 45897.2 1446.69  90
  -4  -4   3 42578.5 2222.88  31
  -4  -4   3 44042.3 2194.75  33
  -4  -4   3 45764.9 2220.48  30
  -4  -4   3 44285.7 2279.80  35
  -4  -4   3 43841.1 2179.32  87
  -4   4   3 45693.1 1433.98  53
  -4   4   3 46302.1 1464.92  54
  -4   4   3 44007.4 1340.50  52
   4  -4  -3 39517.0 2005.40  42
  -4  -4   3 44718.2 2249.14  39
  -4   4   3 43431.7 2155.69  45
   4   4  -2 18903.5 810.637  20
  -4  -4   2 18172.5 744.693  24
  -4  -4   2 18997.6 1415.90  28
   4   4  -2 20028.5 804.688  21
   4   4  -2 18819.3 1355.01  18
  -4   4   2 19038.4 821.897  12
  -4   4   2 18149.6 788.438  11
  -4   4   2 19125.8 828.547  10
   4   4  -2 18811.0 736.250  17
  -4   4   2 18510.4 768.044   9
  -4   4   2 19187.1 794.380  16
  -4   4   2 18457.9 817.874 105
   4   4  -2 19008.8 799.017 110
   4   4  -2 18778.8 763.908 103
   4   4  -2 17839.5 772.168 104
  -4  -4   2 19449.7 1397.71  92
  -4  -4   2 19838.2 783.067  90
  -4  -4   2 18451.9 1383.12  31
  -4  -4   2 20630.0 1434.96  33
  -4  -4   2 19431.1 1380.41  30
   4  -4  -2 17552.4 1248.76  36
  -4  -4   2 18359.2 1373.62  35
  -4  -4   2 20749.6 1378.91  87
  -4   4   2 19550.3 803.396  53
  -4   4   2 18166.4 733.182  52
  -4   4   2 18793.9 801.315  54
  -4  -4   2 19709.1 1445.64  39
  -4   4   2 17825.5 1312.33  45
   4   4  -1 40871.0 1337.89  20
  -4  -4   1 37792.1 1263.39  24
  -4   4   1 40455.3 1348.73  17
  -4  -4   1 39245.9 2062.95  28
   4   4  -1 38154.9 1250.42  21
   4   4  -1 39141.5 2044.67  18
  -4   4   1 38264.3 1306.45  11
  -4   4   1 38876.1 1320.58  10
  -4   4   1 39480.7 1297.65   9
  -4   4   1 36390.4 1249.76  16
   4   4  -1 38749.3 1257.44  17
  -4   4   1 36672.6 1202.37  15
  -4   4   1 38818.9 1300.68 112
   4   4  -1 38521.6 1323.02 102
   4   4  -1 38335.1 1273.67 103
   4   4  -1 41162.5 1321.83 104
   4   4  -1 37015.9 1273.48 110
  -4  -4   1 38954.0 1241.25  90
   4   4  -1 39246.5 1766.70  96
  -4  -4   1 37571.5 2007.43  92
  -4  -4   1 38312.5 2058.18  31
  -4  -4   1 37385.0 2029.89  33
  -4  -4   1 38437.0 2045.79  30
  -4  -4   1 36328.9 1998.61  35
  -4  -4   1 37514.4 1909.31  87
  -4   4   1 39214.3 1258.75  52
   4  -4  -1 31278.3 1771.33  38
  -4  -4   1 38792.1 2108.40  39
  -4   4   0 48858.9 1543.64  17
  -4  -4   0 46298.6 2264.14  28
   4   4   0 44259.2 1396.28  21
   4   4   0 43425.6 1372.55  13
  -4   4   0 47804.1 1532.34  12
  -4   4   0 47448.1 1510.16  10
   4   4   0 48109.3 1491.48  17
  -4   4   0 47452.4 1513.88   9
  -4   4   0 44821.8 1427.67  16
  -4   4   0 45512.4 1422.04  15
  -4   4   0 47430.7 1543.97 105
  -4   4   0 48265.4 1505.75 112
   4   4   0 47500.7 1489.10 103
   4   4   0 48777.6 1514.26 104
   4   4   0 47724.0 1518.43 102
   4   4   0 45243.6 1463.00 110
   4   4   0 49376.3 2090.54  96
  -4  -4   0 44824.1 2201.01  92
  -4  -4   0 49889.3 2379.51  31
  -4  -4   0 47385.3 2337.89  33
  -4  -4   0 48382.4 2351.10  30
  -4  -4   0 45501.3 2236.78  35
  -4  -4   0 47552.7 1479.86  79
  -4  -4   0 45256.8 2086.05  87
   4   4   0 44189.9 1433.33  50
  -4   4   0 46853.0 1469.53  52
  -4   4   0 47467.0 1514.52  54
   4  -4   0 37500.8 1938.66  43
   4  -4   0 40125.7 2130.42  38
  -4  -4   0 51545.6 2444.80  39
  -4   4   0 46602.1 2246.00  45
   4   4   1 3346.85 314.606  20
   4   4   1 3709.12 606.112  18
  -4  -4  -1 3050.07 571.356  28
  -4   4  -1 3401.43 319.805  12
  -4   4  -1 3577.29 333.201  11
  -4   4  -1 3875.88 335.798  10
   4   4   1 3336.39 316.860  17
  -4   4  -1 3192.73 272.732  16
  -4   4  -1 3634.81 338.595   9
  -4   4  -1 3565.52 301.217  15
   4   4   1 3381.72 320.016 102
   4   4   1 3339.24 313.085 103
  -4   4  -1 3407.67 333.235 105
  -4  -4  -1 3342.64 552.300  92
   4   4   1 3375.68 531.226  96
   4   4   1 3262.56 265.512  95
  -4  -4  -1 4055.92 655.934  31
  -4  -4  -1 2998.56 558.185  33
  -4  -4  -1 3390.06 624.082  30
  -4  -4  -1 4171.73 622.345  35
  -4  -4  -1 3298.57 292.706  79
   4   4   1 3339.48 298.760  50
  -4   4  -1 3121.43 263.454  51
  -4   4  -1 3823.88 325.447  52
  -4   4  -1 4064.40 343.333  54
  -4   4  -1 3475.67 580.691  45
  -4  -4  -1 3606.48 642.181  39
   4  -4   1 3537.56 533.455  43
   4  -4   1 3280.31 589.233  38
   4   4   2 15086.1 689.427  20
   4   4   2 14805.1 1211.48  23
  -4  -4  -2 15154.7 1201.31  28
   4   4   2 12826.7 1115.04  18
  -4   4  -2 14230.9 694.942 105
   4   4   2 13693.7 681.413 103
   4   4   2 14270.3 615.979  97
   4   4   2 14668.4 1114.44  96
  -4  -4  -2 14228.8 670.301  91
  -4  -4  -2 14538.8 1116.85  92
  -4   4  -2 14372.4 684.579  12
  -4   4  -2 14070.1 686.581  11
  -4   4  -2 14563.5 668.272  10
   4   4   2 14242.4 1162.28   1
  -4   4  -2 15907.1 684.574  15
  -4  -4  -2 13753.0 1218.20  31
  -4  -4  -2 13975.0 1225.70  33
  -4  -4  -2 14711.5 1171.14  35
  -4   4  -2 15258.7 696.426  52
  -4   4  -2 14390.8 636.455  51
  -4   4  -2 15004.5 686.419  54
   4  -4   2 12177.0 1162.16  38
  -4  -4  -2 14079.9 1085.63  41
   4   4   2 14146.0 650.407  50
  -4   4  -2 14314.5 1167.98  45
   4   4   3 61123.6 1808.42  20
   4   4   3 60022.0 2664.04  23
   4   4   3 55999.9 2508.07  18
  -4   4  -3 59151.6 1807.12  12
  -4   4  -3 59578.3 1840.91  11
  -4   4  -3 56743.0 1761.24  10
   4   4   3 61261.6 1862.94  17
  -4   4  -3 68670.2 1870.47  15
   4   4   3 57870.5 2597.05   1
   4   4   3 61326.0 1782.54   8
   4   4   3 60299.9 1845.43 104
  -4   4  -3 55054.5 1805.52 105
   4   4   3 61805.9 1781.11  97
   4   4   3 60509.3 2591.91  96
  -4  -4  -3 60352.9 1792.32  91
  -4  -4  -3 58533.0 2406.94  92
  -4  -4  -3 62702.2 2806.00  31
  -4  -4  -3 59722.2 2781.41  33
   4  -4   3 52118.6 2506.81  37
  -4  -4  -3 59771.9 2579.92  35
  -4   4  -3 61514.3 1811.87  51
  -4  -4  -3 59780.6 1790.53  68
  -4   4  -3 60542.9 1803.98  54
   4  -4   3 57427.6 2764.59  38
  -4  -4  -3 61369.8 2605.40  41
   4   4   3 60194.3 1800.40  50
  -4  -4  -3 64665.0 2847.36  39
  -4   4  -3 58500.8 2552.14  45
   4   4   4 2289.36 243.209  20
   4  -4   4 2374.12 471.577  19
   4   4   4 1275.08 330.300  18
   4   4   4 2096.30 452.886  23
  -4   4  -4 2005.67 238.000  12
   4   4   4 2298.35 242.712  12
  -4   4  -4 1902.95 256.399  11
  -4   4  -4 1976.09 227.954  10
  -4   4  -4 2509.79 276.442  15
   4   4   4 1743.92 411.388   1
   4   4   4 2169.22 248.392   8
   4   4   4 2167.18 264.851 103
   4   4   4 2222.65 268.644 104
   4   4   4 1925.75 235.885  97
   4   4   4 2024.52 475.645  96
  -4  -4  -4 2144.65 232.691  91
  -4  -4  -4 1895.93 414.382  35
  -4  -4  -4 1921.08 483.558  31
  -4  -4  -4 1392.98 430.756  33
   4  -4   4 1801.12 449.966  37
  -4  -4  -4 1918.99 480.705  30
   4  -4   4 2115.54 485.430  89
  -4   4  -4 1551.52 232.372  52
  -4   4  -4 2242.54 259.778  51
  -4  -4  -4 2020.71 224.841  68
  -4   4  -4 1935.14 230.536  54
  -4  -4  -4 2239.98 508.158  39
   4  -4   4 3201.45 602.592  38
  -4  -4  -4 1974.32 446.000  41
   4   4   5 48375.1 1460.15  12
  -4   4  -5 48977.7 1558.63  11
   4   4   5 53632.8 1630.73  17
   4   4   5 53107.7 1599.32   8
  -4  -4  -5 52020.0 2404.62  41
  -4  -4  -5 51657.3 2429.26  39
   4   4   5 53807.8 1594.57  97
  -4   4  -5 49295.2 1560.63 100
  -4  -4  -5 49889.2 2366.45  30
  -4   4  -5 51510.1 1593.87  52
  -4   4  -5 54302.1 1626.71  51
   4  -4   5 46772.9 1478.53  55
  -4  -4  -5 51590.6 1627.09  69
   4   4   5 47588.2 1458.78  20
  -4   4  -6 34622.9 1147.84  11
   4   4   6 36490.6 1216.29  17
  -4   4  -6 37590.2 1247.91   9
   4   4   6 37019.7 1223.28   8
  -4  -4  -6 36318.0 1922.36  41
   4   4   6 35938.1 1223.28  49
   4   4   6 34859.1 1088.84  48
   4   4   6 36856.9 1211.08  97
  -4   4  -6 33812.8 1184.67 100
   4  -4   6 34468.1 1868.23  89
  -4  -4  -6 33876.4 1823.96  30
  -4  -4  -6 34958.6 1179.09  80
  -4  -4  -6 32198.2 1640.19  86
   4  -4   6 36774.8 1227.73  56
  -4   4  -6 36314.1 1234.50  51
   4  -4   6 33154.8 1110.19  55
   4  -4   6 35650.3 1206.73  58
   4  -4   6 36742.0 2017.46  23
  -4   4  -6 35441.6 1225.49  26
  -4   4  -7 9260.75 437.291  11
   4   4   7 10208.5 501.864  17
  -4   4  -7 10870.8 533.698   9
   4   4   7 10812.1 535.136   8
   4   4   7 11103.8 536.948  49
   4   4   7 10196.5 454.924  48
   4   4   7 11545.0 540.294  97
  -4   4  -7 10103.4 518.491 100
  -4  -4  -7 10160.6 473.178  80
  -4  -4  -7 11439.8 556.935  75
   4  -4   7 9943.13 940.559  23
  -4   4  -7 8886.51 438.856  53
   4  -4   7 10640.5 531.633  56
  -4   4  -7 11105.8 550.826  51
   4  -4   7 10407.8 504.791  60
   4  -4   7 10348.0 517.200  58
  -4  -4  -7 9231.48 835.220  30
   4   4   8 3658.22 242.235  17
  -4   4  -8 3211.11 251.546   9
  -4   4  -8 3352.45 270.823  15
   4   4   8 3512.72 276.984   8
  -4  -4  -8 3656.08 281.845  78
  -4  -4  -8 3192.67 270.524  75
  -4  -4  -8 3300.99 266.872  74
   4  -4   8 3445.02 270.982  56
   4  -4   8 3362.83 253.489  60
   4  -4   8 3396.94 261.138  58
   4   4   8 3147.39 256.894  49
   4  -4   9 4644.41 278.322  99
  -4   4  -9 4692.51 278.295  15
  -4   4  -9 3893.39 221.483   9
   4   4   9 4342.99 269.805   8
  -4  -4  -9 4235.96 267.247  74
  -4  -4  -9 4832.36 285.572  78
  -4  -4  -9 4243.42 247.063  77
  -4  -4  -9 4706.40 275.797  75
   4  -4   9 4112.37 250.088  59
  -4   4  -9 4450.12 276.182  51
   4  -4   9 4437.31 246.829  60
   4  -4   9 4779.59 273.092  66
   4   4   9 4440.38 253.278  49
  -4  -4 -10 7351.01 298.255  78
  -4   4 -10 7201.50 296.041  15
   4   4  10 7495.66 303.140   8
   4  -4  10 7023.15 279.979  64
  -4   4 -10 6582.24 289.778  51
   4  -4  10 7216.49 289.481  66
   4  -4  10 7358.04 298.029  99
  -4  -5   9 420.409 83.3367  79
  -4   5   9 361.742 81.2046 112
   4   5  -9 339.807 80.1179 110
   4   5  -9 429.771 79.7435  13
  -4   5   9 344.690 68.7440   4
  -4  -5   9 503.350 97.5181  90
  -4  -5   8 2180.47 194.195  90
   4   5  -8 2445.04 207.071 110
  -4   5   8 2554.12 207.499 112
  -4  -5   8 2354.74 207.162  79
  -4  -5   8 2281.75 180.355  67
  -4   5   8 2212.10 197.866   3
  -4   5   8 2084.42 178.437   4
   4   5  -8 2391.85 201.845  13
  -4   5   7 5742.58 345.926 112
   4   5  -7 5927.59 353.273 110
   4   5  -7 5422.34 309.564 102
  -4  -5   7 5768.38 314.866  67
   4   5  -7 6287.24 359.082  13
  -4   5   7 5830.17 324.694   4
  -4  -5   7 5902.47 350.160  90
   4   5  -6 629.837 135.812 102
   4   5  -6 546.889 146.479 110
  -4  -5   6 651.832 123.246  67
  -4   5   6 602.355 148.673   3
  -4   5   6 685.208 133.112   4
  -4  -5   6 553.983 143.037  90
  -4   5   5 1077.73 186.264   3
   4   5  -5 1036.44 185.587  13
   4   5  -5 961.210 148.646  12
  -4   5   5 1014.38 183.172  16
   4   5  -5 955.861 168.973 102
   4   5  -5 1098.36 192.112 110
  -4   5   5 904.249 148.417  54
  -4  -5   5 943.579 141.939  67
   4   5  -5 1228.73 168.750  20
  -4  -5   5 899.211 318.549  28
   4   5  -5 1178.84 190.788  21
  -4  -5   5 1202.13 359.975  92
  -4  -5   5 1106.47 181.384  90
   4   5  -4 877.395 180.988  13
  -4   5   4 762.059 165.913   3
  -4   5   4 629.401 156.649  12
   4   5  -4 903.784 164.070  12
  -4   5   4 779.070 181.911  17
  -4   5   4 885.920 171.196  16
  -4  -5   4 728.330 155.346  90
   4   5  -4 884.823 176.327 102
  -4   5   4 828.974 187.326 112
   4   5  -4 895.570 134.017 104
   4   5  -4 700.442 179.865 110
  -4   5   4 865.228 164.428  54
  -4   5   4 957.412 165.645  53
   4   5  -4 866.040 170.650  20
  -4  -5   4 1140.31 381.417  28
   4   5  -4 1106.38 178.676  21
   4   5  -3 780.490 165.970  13
  -4   5   3 570.834 154.107   3
  -4   5   3 872.300 181.008  12
   4   5  -3 1032.87 191.005  12
  -4   5   3 629.945 150.755  11
  -4   5   3 552.030 176.002  17
  -4   5   3 1073.63 182.365  16
   4   5  -3 552.233 131.199 104
   4   5  -3 728.363 171.411 102
  -4   5   3 959.860 198.046 112
   4   5  -3 735.955 179.636 110
  -4  -5   3 577.891 312.550  92
  -4  -5   3 825.448 160.575  90
  -4  -5   3 763.669 288.235  30
  -4   5   3 483.517 146.687  54
  -4   5   3 774.974 163.063  53
   4   5  -3 487.802 156.453  20
   4   5  -3 814.163 162.927  21
  -4   5   2 34976.9 1205.42  12
   4   5  -2 35345.5 1190.85  12
  -4   5   2 34101.8 1154.05  11
  -4   5   2 34924.0 1213.77  10
  -4   5   2 32776.3 1101.39   3
  -4   5   2 31130.9 1093.68  16
   4   5  -2 34766.7 1132.90  13
  -4   5   2 33827.3 1167.02 112
   4   5  -2 33810.3 1124.33 104
   4   5  -2 31445.8 1152.40 110
   4   5  -2 30603.1 1047.76 103
   4   5  -2 32157.1 1177.39 102
  -4  -5   2 33612.0 1085.00  90
  -4  -5   2 33890.7 1870.52  92
  -4  -5   2 32997.6 1817.65  30
  -4  -5   2 35227.1 1176.79  79
  -4   5   2 32148.1 1038.09  52
  -4   5   2 33480.8 1163.05  53
   4   5  -2 32230.4 1117.91  50
  -4   5   2 34138.2 1178.99  54
   4   5  -2 36616.4 1208.19  20
   4   5  -2 31941.6 1091.25  21
  -4  -5   2 33931.9 1934.13  28
   4   5  -1 1771.21 246.795  12
  -4   5   1 1860.18 245.982  11
  -4   5   1 1743.22 257.056  10
  -4   5   1 1568.45 194.957  16
  -4   5   1 1631.82 183.259   3
  -4   5   1 1707.74 219.547   9
   4   5  -1 1813.07 208.005  13
  -4   5   1 1956.80 240.745 112
   4   5  -1 1600.07 218.748 104
   4   5  -1 1608.68 229.375 110
   4   5  -1 1545.13 199.783 103
  -4  -5   1 1932.48 470.591  92
  -4  -5   1 946.541 343.865  30
  -4  -5   1 1873.21 233.997  79
  -4   5   1 1643.31 200.797  52
  -4   5   1 2000.54 248.881  53
   4   5  -1 1642.59 217.763  50
   4   5  -1 1929.51 248.573  20
   4   5  -1 1736.35 189.279  21
  -4   5   1 1761.79 255.714  17
   4   5  -1 1967.97 224.226  17
  -4  -5   1 1707.43 461.153  28
  -4  -5   0 8667.15 474.866  24
  -4  -5   0 7721.69 888.194  28
  -4   5   0 10243.7 562.495  12
  -4   5   0 8647.99 509.741  11
  -4   5   0 10275.4 548.458  10
   4   5   0 9451.86 500.970  17
  -4   5   0 8868.26 496.358   9
   4   5   0 8169.43 416.538  13
   4   5   0 8543.42 473.541 103
   4   5   0 8740.07 497.628 104
  -4  -5   0 8258.53 875.195  92
   4  -5   0 8106.54 831.749  89
  -4  -5   0 7132.83 873.467  30
  -4  -5   0 8616.96 466.452  79
  -4   5   0 8599.49 470.192  52
  -4   5   0 9076.73 519.273  54
   4   5   0 7854.51 465.279  50
  -4  -5  -1 784.767 319.108  28
  -4  -5  -1 1012.08 193.279  24
   4   5   1 909.592 190.098  20
  -4   5  -1 1242.92 225.714  12
   4   5   1 1180.96 205.903  12
  -4   5  -1 945.027 206.499  10
   4   5   1 913.328 181.569  17
  -4   5  -1 1309.42 213.479   9
   4   5   1 1196.40 199.560 104
   4   5   1 1115.13 194.284 103
  -4  -5  -1 651.257 278.001  92
  -4  -5  -1 1084.49 185.207  91
  -4  -5  -1 1044.21 362.783  30
   4  -5   1 889.653 303.137  89
  -4   5  -1 808.095 183.323  54
  -4   5  -1 1327.26 189.865  52
  -4   5  -1 1066.66 203.969  53
   4   5   1 1190.33 196.573  50
   4   5   2 8343.11 478.503  20
  -4  -5  -2 8134.00 867.406  28
   4   5   2 9095.52 491.899 103
   4   5   2 8788.94 502.934 104
   4  -5   2 8591.36 875.064  89
  -4  -5  -2 8197.59 447.974  91
   4   5   2 7965.63 461.078  50
  -4   5  -2 7808.31 466.836  52
  -4   5  -2 8821.13 510.257  53
  -4   5  -2 7916.11 423.426  51
  -4  -5  -2 8125.82 463.737  68
  -4   5  -2 8355.77 481.388  54
  -4   5  -2 8252.00 485.530  12
   4   5   2 8269.87 475.493  12
  -4   5  -2 8611.93 504.809  11
  -4   5  -2 7772.56 462.814  10
   4   5   2 8954.81 502.754  17
  -4   5  -2 8926.06 505.686   9
  -4  -5  -2 8502.29 921.951  30
  -4  -5  -3 36980.3 1913.33  28
   4   5   3 40072.2 1250.95  20
  -4   5  -3 36992.8 1204.55  51
  -4   5  -3 38598.8 1282.82  53
   4  -5   3 36730.4 1198.98  56
  -4  -5  -3 38240.6 1205.71  68
  -4   5  -3 37760.9 1232.12  54
  -4   5  -3 36947.6 1235.39  12
   4   5   3 38993.5 1241.75  12
  -4   5  -3 40222.2 1304.95  11
  -4   5  -3 38397.0 1235.60  10
   4   5   3 40315.2 1303.71  17
  -4   5  -3 40027.6 1315.16   9
   4   5   3 36905.0 1166.01   8
  -4  -5  -3 40098.2 2046.34  30
  -4  -5  -4 5690.78 697.481  28
   4   5   4 6007.87 351.910  20
  -4   5  -4 6603.49 386.063  51
  -4   5  -4 6783.20 405.629  53
   4  -5   4 5935.01 365.359  56
  -4  -5  -4 6243.50 406.889  69
   4  -5   4 5635.73 350.469  58
   4   5   4 6187.28 354.865  12
  -4   5  -4 6687.72 409.846  11
  -4   5  -4 6167.91 356.304  10
   4   5   4 6999.83 423.240  17
   4   5   4 6389.29 365.001   8
  -4   5  -4 6739.28 359.979  15
  -4  -5  -5 7425.26 769.653  30
  -4   5  -5 8636.28 440.404  11
  -4   5  -5 8707.86 409.069  15
  -4   5  -5 9328.55 481.276   9
   4   5   5 8242.81 414.273   8
  -4   5  -5 7737.89 416.492  53
   4  -5   5 7598.74 410.823  56
   4  -5   5 7765.10 397.932  58
  -4   5  -5 8597.31 439.913  51
   4   5   5 8726.53 461.818  49
  -4  -5  -6 1935.24 178.591  80
  -4  -5  -6 2000.13 211.033  75
   4   5   6 2473.79 206.656   8
  -4   5  -6 2130.18 195.867  11
  -4   5  -6 2425.47 226.922   9
  -4   5  -6 2354.94 219.153  51
  -4   5  -6 1946.17 178.667  53
   4  -5   6 2048.18 182.535  58
   4   5   6 2355.10 217.153  17
   4   5   7 4501.19 267.432  49
  -4   5  -7 3816.42 204.642  11
  -4   5  -7 4546.71 270.501   9
   4   5   7 4298.28 251.861   8
  -4  -5  -7 4520.80 271.978  75
  -4   5  -7 4355.11 265.673  51
   4  -5   7 3897.99 217.682  66
   4   5   7 4321.09 247.041  17
   4   5   8 1879.23 142.764  49
   4  -5   8 1835.00 136.775  99
  -4  -5  -8 2154.73 158.392  78
   4   5   8 2098.38 146.203   8
  -4   5  -8 1791.94 136.489   9
  -4   5  -8 1978.65 149.973  51
  -4  -5  -8 1885.09 150.492  24
  -4  -6   6 6054.11 276.751  79
   4   6  -6 6603.12 273.713  13
  -4   6   6 5995.32 267.111 112
  -4  -6   5 3642.45 230.569  79
   4   6  -5 4099.41 228.856  13
  -4  -6   5 3481.87 221.455  68
  -4   6   5 3973.19 230.619 112
   4   6  -4 13492.2 477.767  12
   4   6  -4 13451.1 490.471  13
  -4  -6   4 13434.5 502.263  79
  -4  -6   4 13477.7 523.071  68
   4   6  -4 13380.3 476.199  20
  -4  -6   3 647.222 128.835  91
   4   6  -3 725.821 115.189  13
   4   6  -3 781.560 129.118  12
  -4  -6   3 753.788 117.122  79
   4   6  -3 644.866 110.907  50
   4   6  -3 713.059 128.694  20
   4   6  -2 781.999 126.587  50
  -4  -6   2 554.507 125.093  91
  -4   6   2 887.323 150.711  12
   4   6  -2 941.367 148.725  12
  -4  -6   2 540.912 108.543  79
  -4   6   2 787.460 132.972  53
   4   6  -2 681.032 138.026  20
   4   6  -1 1862.46 180.113  50
   4   6  -1 2443.07 222.104  12
  -4   6   1 2021.64 195.627  11
  -4   6   1 2622.21 240.025  10
  -4  -6   1 2132.20 192.293  91
  -4   6   1 2010.48 209.908  53
  -4  -6   1 2264.93 217.752  68
   4   6  -1 2307.19 217.543  20
   4   6   0 12390.8 507.270  50
   4   6   0 13058.8 510.432  49
  -4   6   0 14059.5 576.451  12
  -4   6   0 13628.3 552.077  11
  -4   6   0 14424.3 576.109  10
  -4  -6   0 11850.1 480.832  91
  -4  -6   0 13395.5 545.088  68
   4   6   0 13299.9 510.548  17
  -4   6  -1 4663.52 305.097  12
   4   6   1 5003.40 307.706  12
  -4   6  -1 4941.81 310.994  11
  -4   6  -1 5318.79 316.816  10
  -4   6  -1 4763.63 309.277  53
  -4  -6  -1 4667.62 281.988  68
   4   6   1 5219.13 302.692  17
   4   6   1 4721.36 301.921  20
   4   6   1 4949.30 288.493  49
   4   6   2 6444.26 338.198  12
  -4   6  -2 6967.07 349.441  10
  -4   6  -2 6924.04 339.152   9
  -4   6  -2 7050.70 365.469  53
  -4  -6  -2 6134.94 302.893  68
  -4  -6  -2 6172.64 301.978  24
   4   6   2 7020.90 356.091  17
   4   6   2 7258.64 353.985  20
   4   6   2 6894.47 342.589  49
   4   6   3 4239.76 237.849  12
  -4   6  -3 4378.39 270.745  11
  -4   6  -3 4046.49 237.453  10
  -4   6  -3 4873.73 273.703   9
   4   6   3 4197.34 256.556  49
  -4   6  -3 4283.27 264.736  53
  -4  -6  -3 4032.33 235.538  24
   4   6   3 4280.60 267.293  17
   4   6   3 4287.09 237.736  20
  -4   6  -4 2695.81 195.630  11
  -4   6  -4 2760.93 196.384   9
   4   6   4 2735.35 191.049  49
  -4  -6  -4 2479.17 175.694  80
  -4   6  -4 2306.96 169.507  53
  -4  -6  -4 2678.31 180.230  24
   4   6   4 2927.48 202.631  17
  -4   6  -5 9706.88 356.684  11
  -4   6  -5 10235.2 378.760   9
  -4  -6  -5 9906.26 358.080  24
   4   6   5 10306.8 373.357  49
   5   0 -13 9731.17 363.381  85
   5   0 -13 8785.33 338.317  82
  -5   0  13 9735.11 351.881   6
   5   0 -13 9358.83 340.685 110
  -5   0  12 8808.08 405.336 108
   5   0 -12 9258.90 407.699 110
   5   0 -12 8783.84 420.250  85
   5   0 -12 8654.90 391.320  84
   5   0 -12 8718.91 416.040  82
   5   0 -11 13104.7 1037.70  29
   5   0 -11 12824.8 552.647  84
   5   0 -11 13337.0 595.447  82
   5   0 -11 13342.8 602.559  72
  -5   0  11 12178.0 523.730 107
  -5   0  11 12982.2 586.201 108
   5   0 -11 12974.2 563.267 110
  -5   0  10 24295.4 888.637 107
  -5   0  10 24865.7 937.043 108
   5   0 -10 24003.0 883.899 110
   5   0 -10 20556.5 1294.88  96
  -5   0  10 23811.4 943.243  99
   5   0 -10 22163.6 1480.33  29
  -5   0  10 23509.2 1563.80  28
   5   0 -10 24661.4 884.114  84
   5   0 -10 25071.0 936.309  72
  -5   0  10 21799.9 806.947  47
  -5   0   9 20579.4 1450.51   2
  -5   0   9 19781.0 838.596 108
  -5   0   9 20171.6 821.306 107
   5   0  -9 20416.1 792.483 110
   5   0  -9 17452.3 1253.92  96
  -5   0   9 20115.6 848.447  99
  -5   0   9 21313.0 1494.11  28
   5   0  -9 19815.7 1400.70  29
   5   0  -9 20900.9 857.240  73
   5   0  -9 20280.2 787.426  76
   5   0  -9 17933.4 755.150  84
   5   0  -9 20173.3 836.943  72
   5   0  -9 20267.1 1392.28  71
   5   0  -9 16754.5 1316.45  42
  -5   0   9 17381.0 726.100  47
   5   0  -9 18343.1 1389.18  40
  -5   0   8 49078.2 1523.26   5
  -5   0   8 52569.0 1642.28 107
   5   0  -8 52109.3 1577.51 110
  -5   0   8 53155.5 1666.53  99
   5   0  -8 49857.7 2402.09  29
   5   0  -8 46867.8 2203.69  34
  -5   0   8 57185.5 2583.85  28
   5   0  -8 52192.5 2469.06  32
   5   0  -8 53243.9 1666.46  73
   5   0  -8 52056.3 1569.92  76
   5   0  -8 54254.6 1583.55  84
  -5   0   8 54840.5 2462.16  89
   5   0  -8 55672.9 2472.87  71
   5   0  -8 53490.4 1643.20  72
   5   0  -8 54911.8 2524.98  40
   5   0  -8 52906.6 2442.63  42
  -5   0   8 51436.8 1554.64  47
  -5   0   7 11371.6 576.788 107
   5   0  -7 10870.1 513.890 110
  -5   0   7 9712.37 494.792  90
  -5   0   7 10890.2 568.019  99
   5   0  -7 9916.82 891.139  34
   5   0  -7 10709.9 987.299  29
  -5   0   7 12589.8 1086.97  28
   5   0  -7 9790.52 889.127  36
   5   0  -7 10782.1 1010.39  32
   5   0  -7 12033.7 589.800  73
   5   0  -7 10251.2 498.954  76
  -5   0   7 11002.1 998.862  89
   5   0  -7 10414.4 501.913  84
   5   0  -7 11896.4 573.864  72
   5   0  -7 10795.9 982.329  71
   5   0  -7 9952.99 975.851  40
   5   0  -7 9712.98 927.553  42
  -5   0   7 10320.1 509.476  47
   5   0  -6 1296.92 174.386  22
  -5   0   6 1886.17 422.032  28
  -5   0   6 1346.97 401.923   2
  -5   0   6 1526.89 213.141 107
  -5   0   6 1572.49 215.412 108
  -5   0   6 1539.92 209.134  99
  -5   0   6 1280.23 182.218  90
   5   0  -6 1720.94 367.332  34
   5   0  -6 1754.80 380.732  36
   5   0  -6 1333.45 374.259  32
   5   0  -6 1694.32 181.038  76
  -5   0   6 2205.61 445.625  89
   5   0  -6 1575.70 215.087  73
   5   0  -6 1559.27 198.047  72
   5   0  -6 1833.69 407.665  71
  -5   0   6 1354.44 299.109  45
   5   0  -6 1454.34 358.532  42
  -5   0   6 1574.77 184.518  47
   5   0  -5 25784.4 903.660  22
  -5   0   5 28145.3 1506.66   2
  -5   0   5 26174.8 940.748 108
  -5   0   5 26001.6 888.892 105
  -5   0   5 26645.6 936.652  99
  -5   0   5 25897.3 904.949  90
  -5   0   5 24361.0 1230.93  92
   5   0  -5 27428.6 1481.68  36
  -5   0   5 28022.2 1427.17  35
   5   0  -5 26549.1 1484.00  32
  -5   0   5 27278.3 1454.45  28
   5   0  -5 25836.7 916.482  73
   5   0  -5 26644.2 903.268  72
   5   0  -5 26739.3 1434.21  71
   5   0  -5 25645.1 1418.81  42
  -5   0   5 25150.7 877.111  47
  -5   0   5 26734.0 1364.39  45
   5   0  -4 282438. 7357.35  19
  -5   0   4 277678. 7415.91   2
  -5   0   4 266001. 6605.45 107
  -5   0   4 274885. 6609.19 108
  -5   0   4 262031. 6571.32 105
  -5   0   4 271693. 6590.15  90
  -5   0   4 270595. 6593.20  99
  -5   0   4 287806. 7284.64  92
  -5   0   4 281251. 7319.13  28
   5   0  -4 287740. 7546.27  36
  -5   0   4 268590. 7181.29  35
  -5   0   4 265168. 7267.83  31
   5   0  -4 278459. 6573.71  73
  -5   0   4 250628. 6536.67  79
  -5   0   4 282052. 7536.54  89
   5   0  -4 269077. 6547.48  72
   5   0  -4 279998. 7361.15  71
   5   0  -4 274857. 7496.66  40
  -5   0   4 288064. 7649.53  39
   5   0  -4 274519. 7365.11  42
  -5   0   4 285315. 7429.56  45
   5   0  -3 1359.06 301.485  19
   5   0  -3 1524.05 267.286  23
  -5   0   3 1039.12 249.307  28
  -5   0   3 1398.20 301.477   2
  -5   0   3 1259.60 169.273 107
  -5   0   3 1521.23 185.596 108
  -5   0   3 1248.84 295.957  92
   5   0  -3 2145.08 409.295  96
  -5   0   3 1190.58 264.521  31
   5   0  -3 1210.08 323.934  36
  -5   0   3 1454.49 260.511  35
  -5   0   3 1158.43 166.763  79
   5   0  -3 1304.50 159.598  73
   5   0  -3 1438.91 155.589  72
  -5   0   3 1512.71 329.844  45
   5   0  -3 1485.56 330.463  40
   5   0  -3 975.796 258.320  42
  -5   0   3 1328.19 340.294  39
   5   0  -2 105002. 3334.80  40
   5   0  -2 102530. 2980.04  38
  -5   0   2 104217. 3378.85  39
  -5   0   2 106899. 3425.69  45
   5   0  -2 105113. 3374.81  96
  -5   0   2 113145. 3406.43  92
  -5   0   2 99781.5 3121.12  31
  -5   0   2 95884.3 2958.17  28
  -5   0   2 100559. 3306.60  33
   5   0  -2 110528. 3467.99  36
  -5   0   2 99705.8 2668.27  79
   5   0  -2 101709. 2601.82  73
  -5   0   2 105279. 3182.66   2
   5   0  -2 103158. 3182.53  23
   5   0  -2 104069. 3331.79  19
   5   0  -1 46786.7 1798.07  40
   5   0  -1 42532.9 1637.68  38
  -5   0   1 40979.7 1729.90  39
  -5   0   1 41115.3 1856.15  41
   5   0  -1 39937.9 1782.09  96
  -5   0   1 44767.9 1845.69  92
  -5   0   1 40550.8 1578.98  31
  -5   0   1 42930.2 1734.40  33
  -5   0   1 41341.5 1271.89  79
   5   0  -1 45445.5 1790.63  23
   5   0  -1 45439.2 1846.67  19
  -5   0   1 41768.9 1576.33   2
   5   0  -1 42876.9 1656.92   1
  -5   0   0 22695.9 983.635   2
   5   0   0 22949.9 1137.89   1
   5   0   0 22476.5 1213.97  96
  -5   0   0 23376.3 1151.65  39
  -5   0   0 22519.5 1284.28  41
   5   0   0 22833.7 1180.39  38
   5   0   0 23916.0 1133.99  37
  -5   0   0 22112.3 1252.65  45
  -5   0   0 22458.6 1042.82  31
  -5   0   0 21564.7 1111.88  33
   5   0   0 22428.3 1242.37  36
   5   0   0 21743.0 793.767  62
   5   0   0 23574.2 1260.47  23
   5   0   0 22926.7 1247.68  19
   5   0   1 13899.1 877.355   1
   5   0   1 14282.6 896.221  37
  -5   0  -1 12694.3 772.671  39
   5   0   1 12056.7 868.596  38
  -5   0  -1 13220.5 923.736  45
   5   0   1 12328.7 868.490  96
  -5   0  -1 13706.8 946.074  92
  -5   0  -1 12014.0 720.370  31
  -5   0  -1 11898.5 778.369  33
  -5   0  -1 12891.8 801.597  30
   5   0   1 13536.3 912.699  36
   5   0   1 13589.1 559.697  62
   5   0   1 12994.0 925.433  23
   5   0   1 14949.1 999.236  19
   5   0   2 30018.1 1543.68  23
   5   0   2 27516.0 1460.05  19
   5   0   2 29178.2 1398.62   1
  -5   0  -2 27983.0 932.537 111
  -5   0  -2 30550.6 1486.07  92
   5   0   2 27716.8 1380.58  96
  -5   0  -2 25020.9 1145.97  31
  -5   0  -2 25547.1 1192.08  33
  -5   0  -2 26813.0 1187.00  30
   5   0   2 29769.3 1406.41  36
  -5   0  -2 27893.5 941.676  80
   5   0   2 28413.0 940.519  62
   5   0   2 28229.1 1418.05  37
  -5   0  -2 24667.8 1109.49  39
  -5   0  -2 28200.5 1489.67  41
   5   0   2 26931.7 1432.75  38
  -5   0  -2 26732.2 1387.40  45
  -5   0  -3 253.047 116.053  27
   5   0   3 370.933 217.275   1
  -5   0  -3 629.474 129.191 105
  -5   0  -3 157.499 97.9762 111
   5   0   3 124.329 169.252  94
  -5   0  -3 255.981 194.788  92
   5   0   3 109.664 166.910  96
   5   0   3 119.147 87.7902  95
  -5   0  -3 135.375 119.467  31
  -5   0  -3 102.834 90.9901  33
   5   0   3 132.899 195.401  37
   5   0   3 142.763 151.722  36
  -5   0  -3 144.580 86.1614  75
   5   0   3 117.039 93.6443  62
  -5   0  -3 649.916 238.461  45
   5   0   3 46.9079 165.907  38
  -5   0  -3 45.5585 169.848  41
   5   0   4 1433.74 360.542  19
   5   0   4 1465.01 377.849  23
  -5   0  -4 1476.49 210.576  27
   5   0   4 1072.45 312.433   1
  -5   0  -4 1288.57 173.118  15
  -5   0  -4 1064.78 171.866 111
   5   0   4 1552.12 374.060  94
  -5   0  -4 1635.83 380.626  92
   5   0   4 1461.94 310.827  96
   5   0   4 1243.69 174.824  95
  -5   0  -4 1407.20 275.105  31
   5   0   4 1249.56 339.836  37
   5   0   4 1039.26 269.536  36
  -5   0  -4 1407.19 198.155  80
  -5   0  -4 1537.92 187.940  78
   5   0   4 1499.38 197.449  88
  -5   0  -4 1323.28 177.407  75
   5   0   4 1628.07 203.202  57
   5   0   4 1292.15 174.603  62
   5   0   4 1432.94 194.425  61
  -5   0  -4 1239.32 283.426  45
   5   0   4 1717.80 403.511  38
  -5   0  -4 1154.66 317.242  41
   5   0   5 469.939 238.593   1
  -5   0  -5 443.230 130.819  15
  -5   0  -5 252.263 238.099  41
   5   0   5 652.732 301.942  94
   5   0   5 266.265 173.967  96
   5   0   5 461.266 126.652  95
   5   0   5 891.215 321.796  37
  -5   0  -5 479.630 143.053  78
   5   0   5 398.232 126.868  88
  -5   0  -5 479.052 119.392  81
   5   0   5 555.003 138.135  57
   5   0   5 457.266 147.442  63
   5   0   5 543.322 149.215  61
   5   0   5 423.635 233.775  19
   5   0   5 591.795 290.774  23
  -5   0  -5 537.197 156.167  27
   5   0   6 208235. 6418.16  37
   5   0   6 210664. 6423.00  38
  -5   0  -6 212673. 6221.96  41
   5   0   6 206299. 5198.09  95
   5   0   6 205139. 6277.35  94
  -5   0  -6 207621. 5197.26  15
  -5   0  -6 206190. 5250.91  78
  -5   0  -6 207108. 5131.85  74
   5   0   6 210162. 5222.42  88
  -5   0  -6 204008. 5168.64  81
   5   0   6 209660. 5294.18  65
   5   0   6 210481. 5277.17  57
   5   0   6 213773. 5262.47  55
   5   0   6 216248. 5292.37  61
   5   0   6 207595. 5176.78  58
   5   0   6 210917. 6314.05  23
  -5   0  -6 208779. 5333.60  27
   5   0   6 208839. 6302.77  19
   5   0   7 30869.2 1736.36  23
  -5   0  -7 33334.3 1211.15  27
   5   0   7 31224.9 1771.68  19
   5   0   7 32873.0 1161.88 106
  -5   0  -7 34476.3 1166.93 109
   5   0   7 31668.4 1075.17  95
   5   0   7 34076.9 1188.92  98
   5   0   7 32365.2 1804.98  94
  -5   0  -7 32109.0 1082.89  15
  -5   0  -7 31985.8 1056.12  74
  -5   0  -7 31375.6 1148.63  78
   5   0   7 32312.8 1099.18  88
  -5   0  -7 30999.5 1083.80  81
   5   0   7 33336.0 1127.26  60
   5   0   7 34683.0 1186.81  65
   5   0   7 32234.3 1136.20  55
   5   0   7 32399.9 1077.94  58
   5   0   7 31387.9 1848.54  38
  -5   0  -7 31260.9 1686.97  41
   5   0   8 27226.8 1553.95  23
  -5   0  -8 29937.8 1107.73  27
   5   0   8 29527.3 1063.03 106
  -5   0  -8 28562.4 1025.84 109
   5   0   8 29804.4 1077.50  98
   5   0   8 28615.3 1678.80  94
   5   0   8 25459.8 1644.25   1
  -5   0  -8 27581.7 987.651  81
   5   0   8 25955.4 938.027  58
   5   0   8 28585.6 1055.54  65
   5   0   8 29807.0 1036.61  55
   5   0   8 26968.3 992.400  60
   5   0   8 28696.6 1752.95  37
   5   0   9 18562.4 762.567 106
  -5   0  -9 17405.4 704.777 109
  -5   0  -9 18345.4 715.516  81
   5   0   9 18468.7 765.835  98
   5   0   9 18634.3 1266.08  94
   5   0   9 17387.0 705.265  60
   5   0   9 16618.5 636.905  66
  -5   0  -9 17935.5 782.140  27
   5   0  10 40822.8 1269.45  98
   5   0  10 39872.5 1834.99  94
   5   0  10 42043.5 1271.60 106
  -5   0 -10 40358.4 1289.06  27
  -5   0 -10 38727.2 1205.91  81
   5   0  11 393.316 107.675  98
   5   0  11 412.913 82.6504  93
  -5   0 -11 426.712 105.178  27
   5   0  11 398.902 100.674 106
   5   0  12 1145.33 101.787  98
   5   0  12 1006.71 100.045 106
  -5   0 -12 1176.25 101.800  25
   5  -1 -13 9561.33 341.192  82
  -5  -1  13 9036.84 335.451 108
   5   1 -13 8471.81 323.058  26
  -5   1  13 9765.03 358.776   7
  -5   1  13 10192.7 351.689   6
  -5   1  12 1230.46 161.438   6
  -5  -1  12 838.941 136.198 108
   5   1 -12 1040.59 137.793 110
   5  -1 -12 1227.71 137.038 110
   5  -1 -12 1132.85 152.158  85
   5   1 -12 1148.86 147.532  85
   5  -1 -12 1152.80 124.903  84
   5  -1 -12 1423.46 163.908  82
   5   1 -12 1124.25 141.277  82
   5  -1 -12 1024.18 143.955  72
  -5   1  12 860.612 113.716  47
  -5  -1  11 18572.5 733.346 108
  -5  -1  11 17919.4 694.721 107
   5  -1 -11 18826.9 688.235 110
   5   1 -11 18786.3 708.974 110
  -5   1  11 17187.3 675.071 108
   5  -1 -11 15612.2 1050.51  96
  -5  -1  11 17653.6 719.895  99
   5  -1 -11 19253.8 744.537  73
   5   1 -11 18747.5 726.214  85
   5  -1 -11 18408.0 665.926  84
   5   1 -11 18150.7 712.445  82
   5  -1 -11 17671.2 1180.61  71
   5  -1 -11 19368.5 733.568  72
  -5   1  11 17259.9 673.887  47
   5   1 -10 5773.36 361.762 104
  -5   1  10 6443.77 405.191 108
  -5  -1  10 6189.56 405.398 107
  -5   1  10 5189.67 329.507 107
   5   1 -10 6044.59 389.502 110
   5  -1 -10 6033.84 371.687 110
  -5  -1  10 6312.72 420.118  99
  -5  -1  10 5897.80 774.271  28
   5   1 -10 5511.31 665.216  29
   5   1 -10 5904.01 715.771  32
   5  -1 -10 5181.66 707.897  32
   5  -1 -10 6148.08 363.077  76
   5  -1 -10 6114.86 360.773  84
   5   1 -10 6447.17 397.799  84
   5   1 -10 6524.17 423.792  82
   5  -1 -10 6596.05 429.732  73
   5  -1 -10 6188.65 405.646  72
   5  -1 -10 5297.47 690.364  71
  -5   1  10 5893.16 380.907  47
  -5   1   9 4626.76 328.630   5
  -5  -1   9 4653.46 684.836   2
  -5  -1   9 5166.61 398.121 108
  -5   1   9 4731.77 370.817 108
  -5   1   9 4411.30 335.025 107
   5   1  -9 5033.45 360.962 110
  -5  -1   9 4164.08 315.564  90
  -5  -1   9 5189.44 391.950  99
   5  -1  -9 4374.59 670.883  32
  -5  -1   9 4564.87 704.837  28
   5   1  -9 5075.05 692.111  32
   5   1  -9 4515.51 638.277  29
   5  -1  -9 4749.88 328.768  76
   5  -1  -9 4946.83 334.616  84
   5   1  -9 4650.09 348.184  84
  -5  -1   9 4039.28 634.620  89
   5  -1  -9 5460.60 399.162  73
   5  -1  -9 5340.11 384.941  72
   5  -1  -9 5484.38 727.478  71
   5  -1  -9 5373.32 714.097  40
  -5   1   9 5585.91 383.280  47
  -5  -1   8 453.146 332.888  28
  -5   1   8 368.206 289.676   2
  -5   1   8 652.811 158.461   5
  -5  -1   8 243.869 249.340   2
  -5  -1   8 516.241 169.094 108
  -5   1   8 868.665 193.454 108
  -5   1   8 602.813 156.535 107
   5   1  -8 829.621 170.438 110
   5   1  -8 457.057 241.346  96
  -5  -1   8 440.593 159.260  99
  -5  -1   8 637.303 153.669  90
   5  -1  -8 465.918 257.243  34
   5   1  -8 970.251 313.074  29
   5   1  -8 580.452 264.261  36
   5   1  -8 743.383 294.132  32
   5  -1  -8 558.203 301.748  32
  -5  -1   8 1289.90 402.490  35
   5   1  -8 692.574 177.323  73
   5  -1  -8 734.904 145.088  76
   5   1  -8 908.699 195.873  85
   5  -1  -8 545.699 126.578  84
   5   1  -8 541.184 140.800  84
  -5  -1   8 655.088 306.294  89
   5  -1  -8 407.416 149.088  73
   5   1  -8 806.815 181.067  72
   5  -1  -8 561.524 152.289  72
   5  -1  -8 1016.91 339.829  71
   5  -1  -8 717.699 291.001  40
   5   1  -8 730.794 282.305  42
  -5   1   8 828.523 182.970  47
   5   1  -7 11476.0 566.393  22
  -5   1   7 12483.2 592.416   5
  -5   1   7 13131.8 1117.71   2
  -5   1   7 11736.7 560.311  16
  -5  -1   7 12195.8 1086.22   2
  -5   1   7 11691.5 588.587 107
  -5   1   7 13110.1 631.221 108
  -5  -1   7 13105.7 634.078 108
   5   1  -7 11480.1 552.973 110
   5   1  -7 11781.1 962.020  96
  -5  -1   7 12959.3 603.175  90
  -5  -1   7 12496.1 605.683  99
   5  -1  -7 11928.7 1061.96  34
  -5  -1   7 13236.6 1152.11  28
   5   1  -7 14368.3 1115.52  36
   5   1  -7 10469.3 989.291  32
  -5  -1   7 13048.9 1134.55  35
   5  -1  -7 11974.8 1108.99  32
   5   1  -7 12236.2 988.212  29
  -5  -1   7 11985.9 549.561  79
   5   1  -7 12775.3 618.328  85
   5   1  -7 10626.6 545.399  84
   5   1  -7 13454.8 637.422  73
   5  -1  -7 13526.6 604.807  72
   5   1  -7 13102.1 630.325  82
  -5  -1   7 10984.1 926.850  87
   5   1  -7 10083.6 493.315  62
   5   1  -7 12084.5 602.428  72
   5  -1  -7 13460.7 1068.75  71
   5   1  -7 13852.0 1136.22  40
   5  -1  -7 11361.1 1037.58  40
   5   1  -7 11440.4 967.235  42
   5  -1  -7 11283.3 1048.63  42
  -5   1   7 13274.4 613.281  47
   5   1  -6 6445.20 405.669  22
  -5   1   6 6836.73 400.890  16
  -5   1   6 7076.25 787.304   2
  -5   1   6 6911.34 432.952 108
  -5   1   6 6723.27 425.229 107
  -5  -1   6 7268.92 440.416 108
   5   1  -6 6771.03 386.773 110
   5   1  -6 6674.79 716.305  96
  -5  -1   6 6800.66 419.374  90
  -5  -1   6 7246.54 425.672  99
  -5  -1   6 6408.39 641.835  92
  -5  -1   6 7067.66 800.986  28
   5   1  -6 6600.16 694.844  29
   5   1  -6 6481.36 753.100  36
   5  -1  -6 6544.50 700.415  36
   5   1  -6 6713.51 748.556  32
  -5  -1   6 8910.81 885.326  35
   5  -1  -6 7337.88 832.192  32
  -5   1   6 6423.32 727.850  28
  -5  -1   6 5926.69 736.153  31
  -5  -1   6 6663.46 396.126  79
   5   1  -6 6635.83 419.965  85
   5  -1  -6 7686.49 417.589  72
   5   1  -6 6600.07 387.371  84
   5   1  -6 6735.17 426.294  73
  -5  -1   6 6309.83 748.006  89
   5   1  -6 7223.04 433.318  82
  -5  -1   6 6363.31 704.326  87
   5   1  -6 8043.90 447.132  72
   5  -1  -6 6733.04 721.822  71
  -5  -1   6 6928.81 438.000  67
   5   1  -6 6754.87 773.433  40
   5  -1  -6 5993.13 745.909  40
   5   1  -6 7270.64 713.009  42
   5  -1  -6 6728.42 783.207  42
  -5  -1   6 6840.01 796.774  39
  -5   1   6 6472.93 410.193  47
  -5  -1   6 5382.37 594.113  45
  -5   1   6 5494.86 593.751  45
  -5  -1   5 24667.2 903.175  24
   5   1  -5 23877.7 888.886  22
  -5  -1   5 26324.1 1486.95   2
  -5   1   5 25689.9 888.305  16
  -5   1   5 26051.9 1441.55   2
  -5  -1   5 24096.3 889.652 108
  -5   1   5 25269.6 917.518 107
  -5  -1   5 23715.2 857.973 105
  -5   1   5 23444.3 849.529 105
   5   1  -5 26118.4 1434.99  96
  -5  -1   5 25414.0 906.687  90
  -5  -1   5 24020.2 871.648  99
  -5  -1   5 25736.9 1353.53  92
   5   1  -5 19294.7 1083.24  34
   5   1  -5 22860.1 1272.15  29
  -5  -1   5 25776.2 1459.45  28
   5   1  -5 24248.6 1448.36  36
   5  -1  -5 27662.8 1458.13  36
   5   1  -5 22590.2 1327.64  32
  -5  -1   5 26199.8 1447.13  35
  -5   1   5 24675.0 1355.93  28
  -5  -1   5 24304.6 1448.21  31
  -5  -1   5 24137.9 879.111  79
   5   1  -5 24341.7 893.528  85
   5   1  -5 25577.7 909.259  73
  -5  -1   5 25911.6 1476.62  89
   5   1  -5 24168.1 894.284  82
  -5  -1   5 25676.3 1411.77  87
   5  -1  -5 23955.9 834.927  72
   5  -1  -5 23740.3 1330.08  71
  -5  -1   5 24327.2 902.158  67
   5   1  -5 24429.7 1434.15  40
   5  -1  -5 26449.8 1511.84  40
   5   1  -5 23911.2 1284.02  42
   5  -1  -5 24103.2 1468.03  42
  -5  -1   5 25045.0 1528.56  39
  -5   1   5 24179.0 885.136  47
  -5  -1   5 24151.4 1348.94  45
  -5   1   5 23868.1 1299.13  45
  -5  -1   4 9166.54 473.818  24
   5   1  -4 8003.60 771.388  19
   5  -1  -4 7703.25 632.641  19
   5   1  -4 9066.58 466.339  22
  -5  -1   4 8218.84 759.162  28
  -5  -1   4 9329.30 821.585   2
  -5   1   4 8323.32 441.529  16
  -5   1   4 10250.1 819.398   2
  -5   1   4 8359.92 462.354  14
  -5  -1   4 8574.56 441.552 108
  -5   1   4 8265.82 453.680 107
  -5  -1   4 8202.22 440.353 105
  -5   1   4 8237.78 439.950 105
   5   1  -4 8567.43 775.369  96
  -5   1   4 8572.81 662.307  92
  -5  -1   4 9035.34 467.263  90
  -5  -1   4 8233.57 742.189  92
  -5  -1   4 8269.85 422.928  99
  -5  -1   4 8944.13 797.914  31
   5   1  -4 9522.38 861.380  36
   5  -1  -4 9489.39 819.567  36
   5   1  -4 8431.42 728.994  32
  -5  -1   4 9092.32 772.241  35
  -5   1   4 8798.26 707.122  28
  -5  -1   4 9122.90 469.663  79
   5   1  -4 8386.75 443.631  85
  -5  -1   4 8378.28 784.599  89
   5   1  -4 8927.03 452.063  82
   5  -1  -4 8382.68 392.751  72
   5   1  -4 8703.71 444.758  73
  -5  -1   4 8387.62 769.445  87
   5   1  -4 8327.78 427.454  62
   5  -1  -4 8858.73 721.853  71
  -5  -1   4 9291.54 439.157  68
   5   1  -4 8430.62 769.704  40
   5  -1  -4 8350.26 809.718  40
   5   1  -4 8267.97 667.600  42
   5  -1  -4 9152.02 830.118  42
  -5   1   4 8170.18 439.122  47
  -5   1   4 8076.13 742.980  45
   5  -1  -3 47642.4 1841.72  19
   5   1  -3 47652.9 1847.97  23
   5   1  -3 50132.4 2074.77  19
  -5  -1   3 45088.7 1881.43  28
  -5   1   3 49689.3 1898.39   2
  -5   1   3 47288.2 1434.62  14
  -5   1   3 48615.1 1439.53 108
  -5  -1   3 46463.4 1383.57 108
  -5  -1   3 47809.8 1433.86 105
  -5   1   3 45680.6 1410.91 105
  -5   1   3 49824.1 1899.98  92
   5   1  -3 47390.3 2018.45  96
  -5  -1   3 50267.1 2040.31  92
  -5  -1   3 49923.8 1443.13  90
  -5  -1   3 47361.8 2013.40  31
  -5  -1   3 46782.0 2098.44  33
   5   1  -3 50209.9 2116.23  36
   5  -1  -3 48362.5 2064.95  36
  -5  -1   3 49573.8 1882.72  35
   5   1  -3 48950.7 1883.73  32
  -5  -1   3 46058.2 1415.19  79
   5   1  -3 47578.5 1397.44  85
  -5  -1   3 48798.0 2002.21  89
   5   1  -3 46208.4 1386.24  82
   5  -1  -3 45791.5 1335.57  73
  -5  -1   3 49379.4 2054.81  87
   5   1  -3 47939.4 1404.07  62
   5  -1  -3 45257.6 1784.74  71
   5   1  -3 48958.8 1971.72  40
   5   1  -3 43154.8 1730.81  42
  -5  -1   3 47920.8 2116.67  39
  -5   1   3 47060.3 1407.60  47
  -5   1   3 49229.2 2032.81  45
   5   1  -2 18516.4 1055.79  23
   5  -1  -2 15918.0 933.840  23
   5   1  -2 17043.9 1091.08  19
  -5  -1   2 17963.3 977.363  28
   5  -1  -2 17525.2 1006.04  19
  -5   1   2 16360.4 904.440   2
  -5   1   2 15029.5 639.991 107
   5   1  -2 15326.5 644.517 104
  -5  -1   2 17750.1 683.285 105
  -5   1   2 16134.1 654.638 108
  -5   1   2 16791.7 664.673 105
  -5   1   2 17691.2 1047.51  92
  -5  -1   2 17588.9 673.071  90
  -5  -1   2 17814.3 1102.02  92
  -5  -1   2 15544.8 1034.07  31
  -5  -1   2 16441.8 1106.79  33
  -5  -1   2 18303.6 1141.10  30
   5  -1  -2 17920.3 1142.20  36
  -5  -1   2 17003.3 902.475  35
   5   1  -2 16333.8 925.239  32
  -5  -1   2 16176.3 661.573  79
  -5  -1   2 16612.9 1011.18  89
   5   1  -2 17309.7 658.051  62
   5  -1  -2 16696.0 1029.27  44
   5   1  -2 16715.2 984.857  40
   5   1  -2 14241.6 824.275  42
  -5  -1   2 18014.1 1093.83  41
  -5  -1   2 18074.3 1147.93  39
  -5   1   2 16995.6 652.095  47
  -5   1   2 17445.4 1098.68  45
   5   1  -1 6514.87 627.837  23
   5  -1  -1 6284.62 601.526  23
   5   1  -1 6403.97 650.928  19
  -5  -1   1 5518.70 494.155  28
   5  -1  -1 4903.79 534.478  19
  -5   1   1 5461.37 446.735   2
   5   1  -1 5294.06 576.386   1
  -5   1   1 5249.82 338.507 107
  -5   1   1 7587.81 669.028  92
   5  -1  -1 6281.35 621.968  96
  -5  -1   1 5759.44 346.212  90
  -5  -1   1 5420.78 560.279  31
  -5  -1   1 4878.30 580.526  33
  -5  -1   1 6268.47 646.427  30
   5   1  -1 5802.94 618.242  36
   5  -1  -1 4862.46 587.442  36
  -5  -1   1 4914.82 425.058  35
   5   1  -1 5373.77 324.173  83
  -5  -1   1 5652.48 623.317  87
   5   1  -1 5802.64 340.466  62
   5  -1  -1 5065.77 540.260  44
   5   1  -1 5828.13 530.848  40
   5   1  -1 5242.03 532.166  38
  -5  -1   1 6089.03 638.190  41
  -5  -1   1 5866.90 614.799  39
   5  -1  -1 5282.19 516.513  38
   5   1   0 8248.76 720.238   1
  -5  -1   0 7639.36 418.381 105
  -5   1   0 7796.63 419.986 105
  -5   1   0 8052.62 722.841  92
   5  -1   0 6685.18 635.565  96
   5   1   0 8393.98 732.669  96
  -5  -1   0 6954.03 685.798  92
  -5  -1   0 7253.11 655.291  31
  -5  -1   0 7844.12 711.852  33
  -5  -1   0 7681.32 694.026  30
   5   1   0 8436.07 711.268  36
  -5  -1   0 8415.20 439.088  79
   5   1   0 8304.45 401.586  83
   5  -1   0 8038.09 653.509  44
   5   1   0 7503.62 576.330  40
   5   1   0 8142.63 685.354  38
   5  -1   0 7855.56 585.120  37
  -5   1   0 8270.02 763.936  41
  -5  -1   0 6881.60 710.691  41
  -5  -1   0 8932.45 737.170  39
   5  -1   0 7874.99 668.032  38
  -5   1   0 8999.15 765.843  45
   5   1   0 7717.95 720.982  23
   5  -1   0 8515.33 719.705  23
   5   1   0 7750.41 726.133  19
   5  -1   0 8753.01 717.718  19
   5   1   1 103795. 3456.59  23
   5  -1   1 101363. 3371.90  23
   5  -1   1 99773.5 3363.43  19
   5   1   1 104998. 3388.50   1
   5  -1   1 96611.0 2955.03   1
   5   1   1 99101.1 2615.40 103
  -5  -1  -1 99545.9 2640.21 105
  -5   1  -1 98549.8 2633.55 105
   5  -1   1 102541. 3210.37  96
   5   1   1 102593. 3366.59  96
  -5  -1  -1 102344. 2660.71  91
  -5  -1  -1 109631. 3451.86  92
  -5  -1  -1 96666.0 3200.94  31
  -5  -1  -1 104882. 3320.77  33
  -5  -1  -1 100667. 3250.00  30
   5   1   1 101250. 3236.32  36
   5  -1   1 101946. 3368.93  36
  -5  -1  -1 104467. 2665.30  79
   5   1   1 97601.8 2581.72  83
   5  -1   1 97403.2 2613.28  62
   5   1   1 102333. 2653.58  62
  -5  -1  -1 91744.1 2504.37  69
  -5  -1  -1 102475. 2650.37  68
   5  -1   1 96204.4 3084.89  44
   5   1   1 95722.7 2885.69  40
   5   1   1 100964. 3318.84  38
  -5   1  -1 99469.3 3381.01  41
  -5  -1  -1 105448. 3496.88  41
  -5  -1  -1 99285.5 3249.31  39
   5  -1   1 93907.6 3104.91  37
   5  -1   1 103618. 3344.33  38
  -5   1  -1 103460. 3369.11  45
   5   1   2 2595.58 434.388  19
   5  -1   2 2116.86 416.411  19
   5   1   2 2948.26 472.488  23
   5  -1   2 1835.00 408.534  23
   5  -1   2 2443.34 359.981   1
   5   1   2 2975.67 458.991   1
  -5   1  -2 2212.66 234.941  15
   5   1   2 2261.27 212.148 103
  -5   1  -2 2438.11 234.714 111
  -5  -1  -2 2613.55 234.771 111
  -5  -1  -2 2548.56 238.728 105
  -5   1  -2 2428.28 236.326 109
  -5   1  -2 2243.17 226.191 105
   5   1   2 2391.42 384.033  94
   5  -1   2 2583.55 376.407  96
  -5  -1  -2 2926.62 456.191  92
  -5   1  -2 2138.12 415.287  92
   5   1   2 2234.86 421.309  96
   5   1   2 2633.62 238.849  95
  -5  -1  -2 2763.36 258.480  91
  -5  -1  -2 2746.34 432.558  33
  -5  -1  -2 2186.08 374.832  31
   5   1   2 2485.16 433.623  37
   5  -1   2 2329.50 389.689  37
   5   1   2 2422.33 369.913  36
   5  -1   2 2727.37 443.167  36
  -5  -1  -2 2337.10 375.225  30
  -5  -1  -2 2271.01 228.932  80
  -5  -1  -2 2393.53 211.441  75
   5  -1   2 2754.24 227.367  62
   5   1   2 2457.39 236.723  62
   5   1   2 2705.91 236.058  61
  -5  -1  -2 2557.86 207.158  69
  -5  -1  -2 2291.78 232.307  68
  -5   1  -2 2149.99 403.984  45
   5  -1   2 2442.71 355.610  44
   5   1   2 2300.16 430.458  38
  -5  -1  -2 2603.21 392.183  39
   5  -1   2 2405.61 446.004  38
  -5   1  -2 2275.28 422.240  41
  -5  -1  -2 3091.41 483.592  41
  -5  -1  -3 16314.6 681.360  24
   5  -1   3 17638.8 1213.93  23
  -5  -1  -3 17812.3 745.748  27
   5   1   3 17895.3 1188.27  19
   5  -1   3 18026.8 1219.29  19
   5  -1   3 15819.6 989.850   1
   5   1   3 20613.5 1261.90   1
  -5   1  -3 16581.3 684.196   9
  -5   1  -3 18074.4 727.569  15
   5   1   3 17484.3 668.679 103
  -5  -1  -3 17011.6 670.029 111
  -5   1  -3 17913.8 716.656 111
  -5  -1  -3 16438.9 666.571 105
  -5   1  -3 18262.8 735.704 109
  -5   1  -3 16841.2 673.631 105
   5  -1   3 15154.1 938.034  96
   5   1   3 17507.6 1128.26  96
   5  -1   3 16863.2 660.205  95
   5   1   3 17472.7 702.961  95
   5  -1   3 17481.1 1186.43  94
   5   1   3 17518.9 1077.03  94
  -5  -1  -3 18449.1 1156.26  92
  -5  -1  -3 19295.2 1143.23  31
  -5  -1  -3 16812.1 1052.66  33
  -5  -1  -3 15688.3 983.620  30
   5   1   3 17178.0 972.164  36
   5  -1   3 19491.4 1178.94  36
  -5  -1  -3 17138.4 671.738  75
   5   1   3 16846.2 697.617  88
   5   1   3 18108.7 671.465  57
   5  -1   3 17554.1 665.797  62
   5   1   3 17458.2 704.882  62
   5   1   3 18334.2 706.990  61
  -5  -1  -3 17759.8 671.772  69
   5  -1   3 16455.2 938.580  44
   5   1   3 17959.7 1198.64  38
  -5   1  -3 18267.3 1162.46  41
  -5  -1  -3 17619.4 1007.68  39
   5  -1   3 18205.8 1231.78  38
   5  -1   3 18769.9 1177.59  37
   5   1   3 19481.0 1245.69  37
  -5   1  -3 17106.5 1084.13  45
  -5  -1  -4 33914.7 1109.71  24
   5   1   4 33051.6 1747.12  23
  -5   1  -4 33963.2 1148.45  27
   5   1   4 32208.4 1695.18  19
   5  -1   4 34154.8 1794.43  19
  -5  -1  -4 34185.1 1188.61  27
   5   1   4 33009.6 1771.26   1
  -5   1  -4 31256.7 1081.47   9
   5   1   4 32735.0 1065.44 103
  -5  -1  -4 34006.9 1081.11 111
  -5   1  -4 34884.6 1164.35 109
  -5  -1  -4 35522.9 1694.62  92
   5   1   4 31825.0 1625.31  96
   5  -1   4 33260.4 1065.21  95
   5   1   4 33602.0 1136.73  95
   5  -1   4 32395.0 1739.08  94
   5   1   4 36213.7 1678.65  94
   5   1   4 33827.9 1125.85  98
  -5  -1  -4 33378.4 1631.74  31
  -5  -1  -4 32006.3 1559.90  33
  -5  -1  -4 32710.3 1458.91  30
   5  -1   4 34317.5 1654.70  36
  -5  -1  -4 33898.9 1158.42  80
  -5  -1  -4 31753.1 1083.82  78
  -5  -1  -4 34517.7 1120.85  75
   5  -1   4 32567.2 1082.57  88
   5   1   4 34702.8 1143.23  88
   5   1   4 35110.1 1100.89  57
   5   1   4 32955.7 1108.04  63
   5  -1   4 33037.9 1056.47  62
   5   1   4 34213.7 1135.08  61
   5   1   4 33842.4 1800.19  38
  -5   1  -4 33805.2 1671.40  41
   5  -1   4 35877.2 1853.83  38
   5  -1   4 32871.2 1741.71  37
  -5  -1  -4 34744.9 1596.72  45
   5   1   4 35647.8 1835.61  37
  -5   1  -4 32384.0 1536.09  45
  -5  -1  -5 22948.3 864.534  24
   5   1   5 25718.7 1537.54  23
   5  -1   5 26384.8 1583.19  23
  -5   1  -5 24746.3 938.168  27
  -5  -1  -5 24358.0 970.321  27
   5   1   5 22291.7 1398.52  19
   5   1   5 23610.3 1511.12   1
  -5   1  -5 24567.2 942.842 109
  -5  -1  -5 26155.3 1398.96  92
   5   1   5 24408.1 1404.05  96
   5   1   5 24182.0 912.691  95
   5  -1   5 22142.7 1454.13  94
   5   1   5 22223.8 1370.43  94
   5   1   5 25783.1 932.555  98
  -5  -1  -5 23487.2 1459.30  34
  -5  -1  -5 24130.7 1393.28  31
  -5  -1  -5 22332.5 1273.67  33
   5  -1   5 24248.6 1344.63  36
  -5  -1  -5 25431.0 950.779  80
  -5  -1  -5 23838.7 906.728  78
  -5  -1  -5 24876.3 918.750  75
   5  -1   5 23237.9 853.179  88
   5   1   5 24685.5 927.456  88
  -5  -1  -5 22784.1 836.020  74
   5   1   5 25093.7 911.213  65
   5  -1   5 24198.3 940.648  57
   5   1   5 25593.3 893.587  57
   5   1   5 24877.4 914.468  63
   5   1   5 24964.1 864.914  55
   5  -1   5 25439.4 936.758  61
  -5   1  -5 24135.5 1369.49  41
  -5  -1  -5 24974.5 1533.94  41
   5  -1   5 25029.9 1590.64  38
   5  -1   5 23946.3 1515.39  37
   5   1   5 26263.0 1592.52  37
  -5  -1  -6 6389.64 386.000  24
   5   1   6 6192.27 739.183  23
   5  -1   6 6472.22 785.741  23
  -5   1  -6 7312.80 461.155  27
  -5  -1  -6 6942.07 481.479  27
   5   1   6 6599.71 736.323  19
   5  -1   6 6685.02 810.510  19
   5   1   6 5979.95 787.837   1
   5   1   6 7644.18 437.614 106
  -5   1  -6 6770.81 448.249 109
   5  -1   6 5703.33 610.280  89
   5   1   6 6442.72 700.269  96
   5   1   6 6782.65 426.512  95
   5  -1   6 6160.24 759.770  94
   5  -1   6 7349.94 462.465  98
   5   1   6 7054.61 451.741  98
   5   1   6 6931.82 763.646  94
  -5  -1  -6 6536.68 780.591  34
  -5  -1  -6 7825.39 779.732  31
  -5  -1  -6 7453.85 456.013  80
  -5  -1  -6 7046.84 445.632  78
  -5  -1  -6 8435.17 480.418  75
   5   1   6 7110.70 437.208  88
  -5  -1  -6 6762.76 407.184  81
  -5   1  -6 6216.93 378.862  81
  -5  -1  -6 7201.46 404.314  74
   5   1   6 7513.21 441.465  65
   5  -1   6 7132.28 456.789  57
   5  -1   6 8086.62 486.585  63
   5   1   6 7561.84 453.206  63
   5   1   6 6458.60 387.074  55
   5  -1   6 7591.47 451.032  61
   5   1   6 5936.47 762.552  38
  -5   1  -6 6601.04 686.018  41
  -5  -1  -6 7476.72 836.001  41
   5  -1   6 7001.64 851.184  37
   5   1   7 1246.30 317.632  19
   5  -1   7 1042.72 340.217  19
   5   1   7 1503.66 362.609  23
   5  -1   7 1379.54 396.009  23
  -5   1  -7 1050.26 195.563  27
  -5  -1  -7 1164.93 209.374  27
   5   1   7 1010.96 358.229   1
  -5   1  -7 1256.72 209.924 109
   5   1   7 1286.80 192.777 106
   5  -1   7 1407.33 443.406  94
   5   1   7 1201.02 354.642  94
   5   1   7 1094.70 305.379  96
   5   1   7 1262.58 194.271  95
   5  -1   7 1493.57 231.507  98
   5   1   7 1145.38 205.218  98
  -5  -1  -7 1313.22 379.885  34
  -5  -1  -7 1798.92 400.412  31
   5   1   7 1149.18 369.678  37
   5  -1   7 1226.89 381.549  37
  -5   1  -7 1135.87 184.040  81
  -5  -1  -7 1071.92 173.073  74
  -5  -1  -7 1182.79 217.393  78
   5   1   7 1530.47 214.091  88
  -5  -1  -7 1387.91 217.684  75
  -5  -1  -7 1031.58 152.830  77
  -5  -1  -7 1136.43 183.153  81
   5  -1   7 1011.56 183.699  58
   5  -1   7 1207.70 217.166  65
   5   1   7 1404.93 205.940  65
   5  -1   7 1089.38 203.666  57
   5  -1   7 1352.82 215.225  63
   5   1   7 1159.12 190.835  63
   5   1   7 1494.51 189.271  55
   5  -1   7 1106.67 186.714  61
   5   1   7 1387.34 171.913  60
   5   1   7 1341.40 381.279  38
   5  -1   7 894.976 329.597  38
  -5  -1  -7 696.925 299.663  41
   5   1   8 9177.07 831.043  23
   5  -1   8 9297.98 899.438  23
  -5   1  -8 10921.6 565.738  27
  -5  -1  -8 10102.1 587.636  27
  -5   1  -8 9748.81 534.094 109
  -5  -1  -8 10854.6 540.258 109
   5  -1   8 11114.3 582.336 106
   5   1   8 10055.8 523.775 106
   5  -1   8 10589.0 563.418  98
   5   1   8 10512.7 557.371  98
   5  -1   8 9634.34 941.926  94
   5   1   8 11146.5 961.517  94
  -5  -1  -8 10197.8 505.054  74
  -5  -1  -8 10686.8 565.645  78
  -5  -1  -8 9484.78 467.051  77
  -5  -1  -8 10175.2 527.011  81
   5  -1   8 11172.6 586.211  65
   5   1   8 11166.6 558.945  65
   5  -1   8 9535.65 487.152  56
   5  -1   8 11051.4 579.499  63
   5   1   8 10830.8 554.240  63
   5  -1   8 11161.7 576.189  55
   5  -1   8 9826.65 546.897  60
   5  -1   8 10329.0 533.703  58
  -5  -1  -8 9487.88 918.564  41
   5  -1   9 9271.21 509.581 106
   5   1   9 9216.29 475.641 106
  -5  -1  -9 8564.82 445.949 109
  -5   1  -9 8922.60 471.748 109
   5   1   9 9835.39 477.701  97
   5  -1   9 9702.34 507.600  98
   5  -1   9 8890.28 876.747  94
   5   1   9 8613.06 810.336  94
  -5   1  -9 9795.91 484.007  15
  -5  -1  -9 9531.60 462.753  74
  -5  -1  -9 9933.05 518.684  78
  -5  -1  -9 9083.32 427.220  77
  -5  -1  -9 9227.91 477.466  81
   5  -1   9 9104.43 472.973  58
   5  -1   9 9814.17 522.868  65
   5  -1   9 9774.57 514.863  63
   5  -1   9 9375.67 501.832  55
   5  -1   9 9461.47 501.853  60
  -5   1  -9 9261.68 494.671  27
  -5  -1  -9 9041.67 526.044  27
   5  -1  10 2252.53 224.650 106
   5   1  10 2053.41 202.584 106
  -5   1 -10 2015.58 185.227 109
   5   1  10 2246.98 190.812  97
   5  -1  10 2098.61 383.091  94
   5   1  10 2008.48 366.115  94
   5  -1  10 1912.60 202.633  98
  -5   1 -10 2187.09 193.514  15
  -5  -1 -10 2056.30 203.011  81
   5  -1  10 1897.26 202.846  60
   5  -1  10 2295.11 199.950  66
  -5   1 -10 2270.88 212.694  27
  -5  -1 -10 2270.20 237.501  27
   5  -1  11 330.306 83.4573  98
  -5   1 -11 428.866 96.9253 100
   5  -1  11 321.093 94.1665 106
   5   1  11 463.631 91.3696 106
  -5  -1 -11 408.061 86.5085  81
  -5  -1 -12 6870.05 265.579  25
  -5  -2  12 4348.13 236.611 107
   5  -2 -12 4045.20 202.014 110
   5   2 -12 4773.96 253.392 110
   5   2 -12 4117.16 223.265  85
  -5   2  12 3970.46 231.887  47
  -5   2  12 4893.67 254.968   7
  -5   2  12 5074.48 269.487   6
  -5   2  11 16838.6 644.097   7
  -5   2  11 17824.2 673.827   6
  -5  -2  11 16723.1 653.743 108
  -5  -2  11 15963.5 632.404 107
   5   2 -11 17792.9 651.123 110
   5  -2 -11 16034.1 579.018 110
  -5  -2  11 15282.6 618.990  99
   5  -2 -11 16255.6 645.122  73
   5   2 -11 15441.4 611.515  85
   5  -2 -11 16639.4 627.412  72
  -5   2  11 16710.1 638.022  47
   5   2 -10 967.108 137.879  21
  -5   2  10 1067.08 159.334   3
  -5  -2  10 1013.57 183.382 108
  -5   2  10 1051.54 152.418 108
   5   2 -10 1117.49 178.130 110
  -5  -2  10 985.543 171.488  99
  -5  -2  10 837.732 148.483  90
   5  -2 -10 1092.79 342.223  29
   5   2 -10 943.428 174.740  85
   5   2 -10 698.425 131.710  83
   5   2 -10 1240.34 188.688  82
   5  -2 -10 1226.89 186.323  73
   5  -2 -10 830.596 149.274  72
   5  -2 -10 896.406 289.812  71
  -5   2  10 1179.55 183.562  47
   5   2  -9 4091.82 310.771  21
  -5   2   9 3847.57 301.621  16
  -5  -2   9 4505.50 354.858 108
  -5   2   9 3662.66 305.728 108
   5   2  -9 3997.75 297.577 104
   5   2  -9 4794.29 348.636 110
  -5  -2   9 3959.32 321.897  90
  -5  -2   9 4185.98 327.919  99
  -5  -2   9 5157.18 732.546  28
   5  -2  -9 4607.32 678.148  29
   5   2  -9 4578.30 613.266  32
   5  -2  -9 4093.77 641.134  32
   5  -2  -9 4345.61 332.087  72
   5   2  -9 4600.45 356.611  85
   5   2  -9 4204.47 320.163  83
   5   2  -9 3933.11 330.621  82
   5  -2  -9 3777.41 578.050  71
  -5   2   9 4195.73 345.038  47
   5   2  -9 3982.20 612.099  40
   5   2  -8 51832.1 1603.77  21
  -5   2   8 50081.3 1585.92   5
  -5   2   8 56753.7 2533.13   2
  -5   2   8 51901.1 1591.10  16
  -5  -2   8 54202.1 2499.20   2
  -5  -2   8 52790.3 1637.68 108
   5   2  -8 49818.7 1512.89 103
  -5   2   8 51771.0 1604.31 108
  -5   2   8 47887.9 1506.45 107
   5   2  -8 52327.6 1580.26 104
   5   2  -8 52921.6 1605.63 110
  -5  -2   8 50040.9 1601.85  90
  -5  -2   8 54828.5 1608.22  99
   5  -2  -8 48396.8 2445.59  34
   5  -2  -8 53432.9 2536.56  29
  -5  -2   8 52208.8 2533.11  28
   5   2  -8 49425.3 2352.52  36
   5   2  -8 47224.4 2206.92  32
   5  -2  -8 47503.0 2364.34  32
  -5  -2   8 48584.9 2473.79  35
  -5  -2   8 50998.1 1558.44  79
   5  -2  -8 54823.8 1597.66  72
   5   2  -8 56259.4 1667.65  85
   5   2  -8 51296.4 1595.50  83
  -5  -2   8 53272.7 2475.75  89
   5  -2  -8 54358.0 2385.25  71
  -5  -2   8 49271.4 1633.74  67
   5  -2  -8 54262.7 2404.72  40
   5  -2  -8 48055.2 2407.81  42
  -5   2   8 52248.4 1641.45  47
   5   2  -8 51079.8 2426.93  40
  -5  -2   7 40918.3 2161.86   2
  -5   2   7 45747.4 1451.86   5
  -5   2   7 43963.6 2198.77   2
  -5   2   7 42633.9 1422.09  16
  -5  -2   7 45114.0 1447.93 108
   5   2  -7 43877.0 1381.17 103
  -5   2   7 45220.7 1451.89 108
  -5   2   7 42630.9 1379.14 107
   5   2  -7 46285.7 1439.84 104
   5   2  -7 43768.4 1407.17 110
  -5  -2   7 45715.5 1465.13  90
  -5  -2   7 38886.2 1868.12  92
  -5  -2   7 44449.2 1400.21  99
   5  -2  -7 40761.6 2199.69  34
   5   2  -7 41013.2 2151.91  36
   5   2  -7 46697.6 2086.85  32
  -5  -2   7 43793.6 2266.22  35
   5  -2  -7 46542.5 2264.58  32
  -5  -2   7 44299.9 2283.51  28
  -5  -2   7 44754.9 1424.29  79
  -5  -2   7 45082.3 2221.54  89
  -5  -2   7 41174.2 2076.24  87
   5  -2  -7 45692.3 1392.90  72
   5  -2  -7 44123.0 2091.05  71
  -5  -2   7 44938.4 1468.93  67
   5  -2  -7 43740.2 2167.83  40
   5  -2  -7 45183.4 2281.97  42
  -5  -2   7 43131.3 2210.73  39
  -5   2   7 43871.5 1459.25  47
   5   2  -7 47957.6 2262.29  40
  -5  -2   6 16444.9 1277.60  28
   5   2  -6 16045.0 714.128  22
  -5  -2   6 16288.4 1250.68   2
  -5   2   6 15732.0 711.917   5
  -5   2   6 16707.4 1224.28   2
  -5   2   6 16385.9 723.142  16
  -5  -2   6 17044.6 718.106 108
   5   2  -6 16059.4 688.799 103
  -5   2   6 15380.9 707.219 108
  -5   2   6 14782.2 634.882 105
  -5   2   6 15901.3 692.202 107
   5   2  -6 15833.8 705.151 104
   5   2  -6 15718.4 678.366 110
  -5  -2   6 14890.2 641.407 105
  -5  -2   6 17132.5 744.633  90
   5   2  -6 15129.5 1053.46  96
  -5  -2   6 15554.9 1116.48  92
  -5  -2   6 14982.1 652.521  99
   5   2  -6 17158.3 1284.53  36
   5   2  -6 16401.7 1103.82  32
  -5  -2   6 15911.9 1259.28  35
   5  -2  -6 13818.6 1189.18  32
  -5  -2   6 16088.5 1261.41  31
  -5  -2   6 16623.6 717.864  79
   5   2  -6 16376.3 725.557  85
  -5  -2   6 17186.4 1248.17  89
   5  -2  -6 15874.1 648.555  72
   5   2  -6 16616.0 735.577  82
  -5  -2   6 16436.8 1231.27  87
   5  -2  -6 15667.6 1113.00  71
  -5  -2   6 15696.8 715.512  67
   5  -2  -6 17027.1 1272.02  40
   5  -2  -6 16847.6 1276.80  42
  -5  -2   6 15733.1 1252.83  39
  -5   2   6 17170.1 735.798  47
  -5   2   6 14717.0 1025.55  45
   5   2  -6 17499.4 1244.42  40
  -5  -2   5 3480.07 296.229  24
   5   2  -5 4277.11 316.389  20
  -5  -2   5 4231.89 625.991  28
   5   2  -5 4531.74 347.311  22
  -5   2   5 4514.45 349.730   5
  -5   2   5 5031.47 636.554   2
  -5   2   5 4109.81 334.079  16
   5   2  -5 4469.35 338.584 103
  -5   2   5 3849.71 308.188 105
  -5   2   5 4076.83 334.686 108
  -5  -2   5 4160.25 320.493 108
  -5   2   5 3954.63 317.862 107
   5   2  -5 4273.23 342.772 104
   5   2  -5 3368.90 282.636 110
  -5  -2   5 3959.09 312.919 105
  -5  -2   5 4350.67 353.142  90
   5   2  -5 4030.53 556.687  96
  -5  -2   5 3518.75 548.183  92
  -5  -2   5 4188.47 635.151  31
  -5  -2   5 3158.82 567.680  33
   5  -2  -5 3393.65 517.063  36
   5   2  -5 3670.71 491.477  32
   5   2  -5 3626.99 593.351  36
  -5  -2   5 3525.47 561.267  35
   5   2  -5 4148.00 333.738  85
   5   2  -5 4769.90 344.868  83
  -5  -2   5 3907.57 588.540  89
   5   2  -5 4026.37 331.532  82
  -5  -2   5 4345.77 628.329  87
   5  -2  -5 4058.83 529.318  71
  -5  -2   5 3930.21 303.025  68
  -5  -2   5 4649.91 351.383  67
   5  -2  -5 3206.53 555.031  40
   5  -2  -5 3634.97 607.543  42
  -5   2   5 4012.23 328.481  47
  -5   2   5 3765.45 532.794  45
   5   2  -5 3458.24 534.198  40
  -5  -2   5 3183.75 572.041  39
  -5  -2   4 43612.2 1383.22  24
   5   2  -4 43633.6 1851.65  23
   5   2  -4 44066.8 1378.53  20
  -5  -2   4 44382.5 2073.72  28
   5   2  -4 44127.1 1406.55  22
  -5   2   4 43271.1 1909.27   2
  -5   2   4 46332.5 1413.45  16
  -5   2   4 43996.7 1378.06 105
  -5  -2   4 43903.3 1339.60 108
   5   2  -4 44411.6 1388.85 103
  -5   2   4 44329.8 1392.75 107
   5   2  -4 45346.0 1412.57 104
  -5   2   4 44210.5 1408.18 108
   5   2  -4 41670.7 1313.54 110
  -5   2   4 43593.9 1352.48 112
   5   2  -4 43614.1 1941.61  96
  -5  -2   4 42662.3 2018.69  92
  -5  -2   4 42355.5 2097.93  31
  -5  -2   4 43948.1 2159.08  33
  -5  -2   4 47646.7 2201.31  30
   5  -2  -4 47678.0 2056.63  36
   5   2  -4 42007.4 1750.07  32
  -5  -2   4 43048.9 2013.85  35
  -5  -2   4 42165.4 1392.39  79
   5   2  -4 43270.3 1394.64  85
   5   2  -4 45963.1 1410.95  83
  -5  -2   4 43996.9 2007.43  89
   5   2  -4 44860.3 1393.65  82
  -5  -2   4 44549.0 2078.17  87
   5   2  -4 44981.1 1310.65  62
   5  -2  -4 42334.7 1786.18  71
  -5  -2   4 44228.1 1370.38  68
  -5  -2   4 42191.6 1365.50  67
   5  -2  -4 45901.0 2124.64  40
  -5  -2   4 44330.5 2182.61  39
  -5   2   4 42756.4 1388.77  47
  -5   2   4 45630.2 2023.47  45
   5   2  -4 43173.2 1927.06  40
  -5  -2   3 42165.5 1329.69  24
   5   2  -3 42475.3 1852.90  23
   5   2  -3 39401.7 1301.41  20
   5   2  -3 40539.8 1973.83  19
  -5  -2   3 43066.8 1946.25  28
  -5   2   3 37418.7 1678.86   2
  -5   2   3 40506.9 1317.44  16
  -5   2   3 41501.4 1332.53  14
  -5   2   3 41669.1 1322.11 105
   5   2  -3 44659.5 1341.95 103
  -5   2   3 41641.6 1333.58 108
  -5   2   3 41270.0 1320.10 107
  -5   2   3 39033.6 1223.25 111
  -5   2   3 39958.4 1283.07 112
  -5  -2   3 43434.8 1338.76  90
   5   2  -3 43482.1 1899.18  96
  -5  -2   3 43174.8 1994.51  92
  -5  -2   3 41243.5 2007.32  31
  -5  -2   3 38050.0 1983.76  33
  -5  -2   3 42604.1 2060.87  30
   5   2  -3 45499.9 2070.87  36
   5  -2  -3 45471.5 2001.35  36
  -5  -2   3 41141.8 1868.83  35
  -5  -2   3 43437.6 1358.79  79
   5   2  -3 42315.7 1320.81  85
  -5  -2   3 44652.2 1901.73  89
   5   2  -3 40203.6 1295.61  82
   5   2  -3 40799.1 1252.07  62
  -5  -2   3 41044.3 1309.32  68
  -5  -2   3 41226.8 1287.82  67
   5   2  -3 42945.0 1791.33  40
   5  -2  -3 39929.5 1950.99  44
  -5  -2   3 45642.6 2109.18  39
  -5   2   3 40861.5 1316.74  47
  -5   2   3 41450.8 1946.21  45
  -5  -2   2 7130.03 419.724  24
   5   2  -2 6724.05 681.300  23
   5   2  -2 6711.04 406.551  20
   5  -2  -2 6241.22 601.986  23
  -5  -2   2 6488.04 668.024  28
   5   2  -2 6299.49 396.170  22
  -5  -2   2 6171.27 380.186  25
  -5   2   2 6351.84 407.255  11
  -5   2   2 6184.98 538.989   2
  -5   2   2 7034.25 418.564  16
  -5   2   2 6888.35 413.978  15
  -5   2   2 6624.33 404.597  14
  -5   2   2 6774.26 411.229 107
   5   2  -2 6930.53 409.801 104
  -5   2   2 6674.35 388.707 112
  -5   2   2 6451.66 369.539 111
   5   2  -2 6724.83 401.585 103
  -5   2   2 6834.12 410.062 105
  -5  -2   2 7268.99 414.824  90
   5   2  -2 5759.05 638.937  96
  -5  -2   2 6493.83 723.473  31
   5   2  -2 7647.37 757.455  36
   5  -2  -2 6456.35 710.381  36
  -5  -2   2 6279.97 627.756  35
   5   2  -2 6731.22 396.683  85
   5   2  -2 7006.00 407.674  83
  -5  -2   2 5951.13 613.015  89
  -5  -2   2 6205.57 693.964  87
   5   2  -2 7437.74 393.600  62
  -5  -2   2 6179.52 390.394  68
   5   2  -2 5948.09 558.529  40
   5  -2  -2 6668.84 709.246  44
  -5  -2   2 6347.69 651.356  41
  -5   2   2 6945.86 722.551  45
  -5  -2   1 6715.21 411.751  24
   5   2  -1 7651.53 746.854  23
   5   2  -1 7010.24 416.124  20
   5  -2  -1 7458.13 703.112  23
  -5  -2   1 6783.77 653.418  28
   5   2  -1 6910.88 402.908  22
   5  -2  -1 5898.80 591.171  19
  -5  -2   1 6273.42 384.431  25
  -5   2   1 7265.71 423.913  11
  -5   2   1 6609.11 397.115  10
  -5   2   1 6834.79 420.668   9
   5   2  -1 6802.96 736.499   1
  -5   2   1 7765.05 435.437  15
  -5   2   1 7634.29 425.885  14
  -5   2   1 6834.91 409.099 108
  -5   2   1 6944.39 388.653 111
   5   2  -1 7561.91 425.882 104
  -5   2   1 7072.62 405.833 112
   5  -2  -1 6052.20 622.307  96
   5   2  -1 8142.04 757.022  96
  -5  -2   1 7427.12 417.106  90
   5   2  -1 6791.63 389.000  95
  -5  -2   1 7269.49 743.056  92
  -5  -2   1 6782.35 726.792  31
  -5  -2   1 7538.29 768.804  30
   5   2  -1 6246.27 668.835  36
   5  -2  -1 6034.45 691.047  36
  -5  -2   1 5930.33 589.489  35
  -5  -2   1 7905.22 438.535  79
   5   2  -1 7210.21 396.824  85
   5   2  -1 7255.85 407.412  83
  -5  -2   1 7015.18 611.590  89
  -5  -2   1 7280.46 740.259  87
   5   2  -1 7685.41 407.127  62
  -5  -2   1 6895.90 413.388  68
   5  -2  -1 6384.05 687.695  44
  -5  -2   1 6695.09 669.157  41
  -5  -2   1 6816.74 749.957  39
   5  -2  -1 6253.20 611.512  38
  -5  -2   0 27786.9 991.387  24
   5   2   0 30536.3 1586.36  23
   5  -2   0 28313.9 1529.47  23
   5   2   0 27222.8 1520.30  19
  -5  -2   0 27998.7 1353.29  28
   5  -2   0 28450.9 1399.45  19
  -5  -2   0 27445.3 958.515  25
  -5   2   0 26497.4 973.687  11
  -5   2   0 27309.2 980.399  15
   5   2   0 27445.4 1537.10   1
   5   2   0 28878.9 980.367 103
   5   2   0 27329.5 964.068 104
  -5   2   0 26391.5 940.232 111
  -5   2   0 29218.1 983.770 112
  -5   2   0 27525.0 933.578 109
  -5   2   0 27660.1 985.881 105
   5  -2   0 28721.6 1360.72  96
   5   2   0 29562.1 1540.21  96
   5   2   0 27263.3 947.085  95
  -5  -2   0 26924.4 950.320  90
  -5  -2   0 29885.0 1563.92  92
  -5  -2   0 27108.1 1508.07  31
  -5  -2   0 26714.0 1537.45  33
  -5  -2   0 29355.9 1579.15  30
   5   2   0 29066.2 1461.53  36
   5  -2   0 25443.0 1478.86  36
  -5  -2   0 26483.1 1269.25  35
  -5  -2   0 28835.6 995.805  79
   5   2   0 26980.3 951.026  83
   5   2   0 27593.9 939.304  88
  -5  -2   0 27298.7 1486.24  87
   5   2   0 29558.2 979.441  62
  -5  -2   0 28120.9 984.621  68
   5  -2   0 27231.0 1450.51  44
  -5  -2   0 27589.1 1496.83  41
  -5  -2   0 27859.7 1544.44  39
   5  -2   0 26116.6 1417.62  38
  -5   2   0 28784.1 1544.28  45
  -5  -2  -1 36751.1 1207.00  25
   5   2   1 40480.7 1911.54  23
   5   2   1 37429.6 1227.12  20
   5  -2   1 38113.3 1849.40  23
   5   2   1 38440.2 1847.58  19
  -5  -2  -1 38953.4 1604.83  28
   5  -2   1 38482.0 1766.68  19
   5   2   1 42863.1 1967.98   1
  -5   2  -1 37142.2 1220.49  11
  -5   2  -1 37173.6 1239.53   9
  -5   2  -1 36516.1 1221.37 105
   5   2   1 37977.9 1220.51 103
  -5   2  -1 37336.9 1200.59 109
   5   2   1 38297.7 1172.66 102
   5   2   1 37438.4 1204.26 104
  -5   2  -1 37585.2 1215.63 111
   5   2   1 39315.8 1218.12  95
  -5  -2  -1 36812.3 1246.91  91
  -5  -2  -1 37415.7 1186.55  90
  -5  -2  -1 39050.5 1852.95  92
  -5  -2  -1 40358.3 1875.27  31
  -5  -2  -1 37486.8 1848.47  33
  -5  -2  -1 38663.0 1840.66  30
   5   2   1 37732.5 1663.68  36
  -5  -2  -1 36711.8 1499.40  35
  -5  -2  -1 39165.2 1244.20  79
   5   2   1 37518.0 1198.50  88
  -5  -2  -1 35058.9 1766.27  87
   5   2   1 39485.5 1230.92  62
   5   2   1 37874.1 1145.63  61
  -5  -2  -1 35949.6 1218.70  68
  -5  -2  -1 36481.7 1144.35  69
   5  -2   1 36117.0 1716.68  44
   5  -2   1 34770.5 1588.58  37
   5   2   1 40478.6 1890.52  38
  -5  -2  -1 39440.2 1868.71  41
  -5  -2  -1 38013.9 1840.32  39
   5  -2   1 38298.3 1819.37  38
  -5   2  -1 36993.5 1816.91  45
  -5  -2  -2 3133.23 284.259  25
   5   2   2 3065.14 515.179  19
   5  -2   2 2865.86 472.896  19
   5   2   2 3021.69 272.755  20
   5  -2   2 2877.03 521.546  23
   5   2   2 3406.58 547.475   1
  -5   2  -2 3317.95 287.001  11
  -5   2  -2 3647.02 312.231   9
  -5   2  -2 3694.89 301.772 105
   5   2   2 3198.70 254.571 102
   5   2   2 3594.69 289.956 103
   5   2   2 3048.31 264.831 104
  -5   2  -2 3444.31 298.037 109
   5   2   2 3736.73 568.280  96
  -5  -2  -2 3004.43 494.688  92
   5   2   2 3475.43 287.650  95
  -5  -2  -2 3819.09 316.146  91
  -5  -2  -2 3240.82 510.380  31
  -5  -2  -2 2779.85 502.387  33
   5   2   2 3586.26 441.509  36
  -5  -2  -2 3349.37 511.325  30
  -5  -2  -2 3296.21 293.747  79
   5   2   2 3700.19 291.862  88
   5  -2   2 3565.41 259.937  62
   5   2   2 3508.06 264.301  61
  -5  -2  -2 3038.22 248.407  69
  -5  -2  -2 3212.37 286.640  68
   5  -2   2 3553.38 499.543  37
   5   2   2 3072.65 535.210  38
  -5  -2  -2 4332.98 614.604  41
   5  -2   2 2607.35 506.417  38
  -5  -2  -2 3656.62 538.382  39
  -5   2  -2 3937.40 543.199  45
   5   2   3 21382.2 815.390  20
   5   2   3 19448.4 1363.11  23
   5  -2   3 22440.8 1465.65  23
   5   2   3 22281.9 1353.46  19
   5  -2   3 23059.5 1420.19  19
  -5   2  -3 21017.4 818.655  11
   5   2   3 21806.1 1421.46   1
  -5   2  -3 22082.9 866.752   9
  -5   2  -3 22877.7 887.225  15
  -5   2  -3 20797.5 818.863 105
  -5   2  -3 22212.0 869.179 109
   5   2   3 21609.1 833.110 103
   5   2   3 22647.3 827.903 104
  -5  -2  -3 22337.9 832.596 105
   5   2   3 20597.7 1325.34  96
   5  -2   3 23291.8 1417.41  94
  -5  -2  -3 22885.1 887.786  91
   5   2   3 19712.4 1094.35  94
   5   2   3 21045.1 780.821  98
  -5  -2  -3 23897.5 1378.46  92
  -5  -2  -3 23768.4 1439.45  31
  -5  -2  -3 22508.3 1386.53  33
  -5  -2  -3 20548.5 1280.81  30
   5   2   3 23699.9 874.309  88
   5   2   3 20259.7 750.121  63
  -5  -2  -3 22496.4 832.805  69
  -5  -2  -3 22949.7 856.036  68
   5   2   3 23015.6 829.692  61
   5   2   3 21954.1 1436.19  38
   5  -2   3 21160.8 1335.55  37
  -5  -2  -3 22320.5 1429.28  41
  -5  -2  -3 22303.8 1325.27  39
   5  -2   3 22135.9 1458.01  38
  -5   2  -3 23293.2 1341.58  45
   5   2   4 46969.8 1451.09  20
   5   2   4 50608.5 2312.33  23
   5  -2   4 48980.7 2375.01  23
   5   2   4 46088.3 2121.74  19
  -5  -2  -4 49615.6 1572.08  27
   5  -2   4 55534.7 2431.73  19
  -5   2  -4 45592.9 1456.98  11
  -5   2  -4 50305.8 1546.95   9
   5   2   4 50666.2 2375.94   1
  -5   2  -4 47433.6 1467.85 105
   5   2   4 48519.5 1506.55 103
   5   2   4 47989.0 1479.49 104
  -5  -2  -4 47426.8 1462.98 105
   5   2   4 48321.6 2238.41  96
   5   2   4 50207.6 1552.04  95
   5  -2   4 51801.8 2299.98  94
   5   2   4 50580.6 1488.14  98
   5   2   4 51242.7 1986.99  94
  -5  -2  -4 50989.5 2142.57  92
  -5  -2  -4 49588.2 2279.47  31
  -5  -2  -4 50434.1 2262.84  33
  -5  -2  -4 50686.0 2145.10  30
  -5  -2  -4 50513.7 1576.56  80
   5  -2   4 51299.2 1565.87  57
   5   2   4 47636.4 1437.16  63
  -5  -2  -4 47884.8 1504.92  69
  -5  -2  -4 49722.9 1503.72  68
   5   2   4 51151.7 2375.07  38
   5  -2   4 49553.1 2297.91  37
  -5  -2  -4 54501.0 2434.49  41
  -5  -2  -4 46073.1 2063.75  39
   5  -2   4 49609.3 2400.40  38
  -5   2  -4 47546.7 2053.44  45
   5   2   5 22041.9 1427.36  23
   5   2   5 19441.1 1272.50  19
  -5  -2  -5 21505.3 884.269  27
   5  -2   5 21281.7 1464.13  19
  -5   2  -5 19244.8 811.735   9
   5   2   5 21608.2 821.113 103
   5   2   5 20343.2 783.234 104
  -5   2  -5 20603.3 871.258 109
  -5  -2  -5 20392.9 1217.86  92
   5   2   5 22065.2 1396.96  96
   5   2   5 21176.9 852.214  95
   5  -2   5 21861.8 1425.69  94
   5   2   5 20296.3 805.160  98
   5   2   5 18731.4 1152.56  94
  -5  -2  -5 19174.2 1353.47  31
  -5  -2  -5 17698.0 1278.55  33
  -5  -2  -5 19122.9 1203.01  30
  -5  -2  -5 21472.7 875.140  80
  -5  -2  -5 21662.2 859.266  75
   5   2   5 21328.4 860.501  88
   5   2   5 20399.2 760.969  65
   5  -2   5 20359.0 851.957  57
   5   2   5 20756.6 781.935  63
   5  -2   5 20818.8 814.981  61
  -5   2  -5 19604.1 791.994  52
  -5  -2  -5 21853.3 856.033  69
   5   2   5 21418.2 1471.67  38
   5  -2   5 20243.8 1437.35  37
   5  -2   5 24228.8 1597.12  38
   5   2   6 103083. 3655.74  23
   5  -2   6 102671. 3840.52  23
  -5  -2  -6 103723. 2845.57  27
   5  -2   6 100959. 3833.06  19
  -5   2  -6 96424.6 2723.89   9
  -5   2  -6 102056. 2834.22 109
   5   2   6 96722.0 2695.74 103
   5   2   6 96428.9 2650.33 106
   5  -2   6 106556. 3599.35  89
   5   2   6 98483.3 3604.09  96
   5   2   6 102441. 2797.13  95
   5  -2   6 104612. 3746.77  94
   5  -2   6 101576. 2785.69  98
   5   2   6 102422. 2756.76  98
   5   2   6 97216.5 3359.76  94
  -5  -2  -6 102363. 3583.09  34
  -5  -2  -6 103657. 3755.84  31
  -5  -2  -6 101418. 3610.32  33
   5  -2   6 98329.0 3520.16  36
  -5  -2  -6 101735. 2800.96  80
  -5  -2  -6 99891.9 2785.57  78
  -5  -2  -6 102530. 2807.96  75
   5   2   6 99257.6 2786.44  88
   5   2   6 98038.6 2678.29  65
   5  -2   6 104344. 2826.33  57
   5  -2   6 104460. 2811.08  63
   5   2   6 102833. 2716.97  63
   5  -2   6 104823. 2829.55  55
   5  -2   6 101982. 2728.06  61
  -5   2  -6 101635. 2708.96  52
   5  -2   6 100372. 3825.78  37
   5   2   6 99983.2 3803.77  38
   5   2   6 100058. 2709.99  49
   5   2   7 33472.4 1724.83  23
   5  -2   7 35696.8 1936.99  23
  -5  -2  -7 35927.7 1253.14  27
   5  -2   7 34753.0 1962.97  19
   5  -2   7 34885.1 1219.74 106
   5   2   7 34545.3 1103.54 106
  -5   2  -7 33849.5 1216.69 109
   5   2   7 31802.2 1734.06  96
   5  -2   7 30907.4 1649.43  89
   5  -2   7 33685.3 1179.41  98
   5  -2   7 35828.8 1875.64  94
   5   2   7 34955.2 1180.34  98
   5   2   7 32187.7 1614.50  94
   5   2   7 32712.8 1905.46   1
  -5  -2  -7 36160.4 1198.62  80
  -5  -2  -7 35123.0 1219.16  78
  -5  -2  -7 35397.7 1221.44  75
  -5  -2  -7 34183.4 1154.02  74
   5  -2   7 34400.8 1216.98  65
   5  -2   7 34531.4 1214.47  57
   5  -2   7 35715.4 1210.20  63
   5  -2   7 35962.8 1236.13  55
   5  -2   7 35087.0 1228.14  58
   5   2   7 32687.7 1881.86  38
  -5  -2  -7 34306.1 1918.88  41
   5  -2   7 30783.6 1903.97  38
   5  -2   7 33312.5 1942.20  37
  -5  -2  -8 18311.4 692.592  24
   5  -2   8 16640.0 1222.69  23
  -5  -2  -8 19008.4 802.793  27
   5   2   8 18682.8 771.167  97
   5  -2   8 18692.4 750.163  98
   5  -2   8 20425.1 1318.58  94
   5   2   8 19682.9 767.711  98
   5   2   8 16606.7 1077.88  94
   5  -2   8 19528.5 786.080 106
   5   2   8 17689.9 678.542 106
  -5   2  -8 17746.1 766.245 109
  -5  -2  -8 18238.8 734.067  74
  -5  -2  -8 18897.4 781.610  78
  -5  -2  -8 17698.2 686.719  77
  -5  -2  -8 18454.0 752.600  81
   5  -2   8 20005.6 796.606  65
   5  -2   8 18428.6 756.273  56
   5  -2   8 18658.5 761.513  63
   5  -2   8 18772.7 786.197  55
   5  -2   8 18809.7 784.324  58
  -5  -2  -8 19915.8 1367.50  41
   5  -2   9 2627.69 244.954 106
  -5  -2  -9 2382.13 204.950 109
  -5   2  -9 2458.41 238.878 109
   5   2   9 2353.04 234.224  97
   5  -2   9 2581.64 434.240  94
  -5   2  -9 3017.58 264.315 100
   5  -2   9 2352.59 221.092  98
   5   2   9 2506.73 237.414  98
  -5  -2  -9 2321.18 221.948  74
  -5  -2  -9 2503.48 248.312  78
  -5  -2  -9 2611.90 207.142  77
  -5  -2  -9 2694.83 244.933  81
   5  -2   9 2804.94 250.466  65
   5  -2   9 2611.22 235.578  63
   5  -2   9 2633.01 234.420  56
   5  -2   9 2202.30 232.663  58
  -5  -2  -9 2834.93 264.877  27
   5   2  10 5394.87 296.605  97
  -5   2 -10 5363.59 315.232 100
   5  -2  10 5159.43 284.291  99
   5  -2  10 4808.43 260.186  98
   5   2  10 5480.69 306.816  98
  -5   2 -10 5546.49 310.028  15
  -5  -2 -10 4656.47 275.561  74
  -5  -2 -10 5084.11 293.745  81
   5  -2  10 5317.57 308.273  66
   5  -2  10 5681.39 315.499 106
   5  -2  11 493.762 84.9939 106
   5   2  11 671.643 92.8149  98
  -5   2 -11 652.631 94.4470 100
  -5  -2 -11 478.949 80.5430  81
   5  -2  11 573.677 83.7828  66
  -5   2 -11 760.015 102.375  51
  -5  -2 -11 436.845 87.7047  25
  -5   2 -11 594.344 81.5879  15
  -5  -3  11 2850.28 199.823 108
   5   3 -11 2638.41 195.982 110
  -5   3  11 2708.40 203.637   6
  -5   3  11 2422.98 191.887  47
   5   3 -11 2412.76 190.080  26
  -5   3  10 12370.1 488.683   7
  -5   3  10 12389.6 534.072   6
  -5   3  10 12447.4 503.348   3
  -5  -3  10 12618.4 524.763 108
   5   3 -10 12650.5 526.592 110
  -5   3  10 10395.8 438.474 112
  -5  -3  10 11808.9 499.227  90
  -5  -3  10 11515.7 456.358  99
   5   3 -10 11384.9 487.306  85
   5  -3 -10 12763.3 528.445  73
   5  -3 -10 11360.5 472.961  72
  -5   3  10 12602.7 537.534  47
   5   3  -9 16109.8 645.476  21
  -5   3   9 15076.4 640.746   3
  -5   3   9 15281.9 605.890   7
  -5   3   9 16004.7 669.090   6
  -5  -3   9 15520.5 644.448 108
  -5   3   9 13677.3 583.497 112
   5   3  -9 15444.9 651.500 110
  -5  -3   9 14656.3 639.649  90
  -5  -3   9 14181.6 567.375  99
   5  -3  -9 12940.3 1029.16  29
  -5  -3   9 14371.2 600.579  79
   5   3  -9 16324.3 653.445  85
   5  -3  -9 14904.4 592.926  72
   5  -3  -9 12500.7 966.018  71
  -5  -3   9 15129.2 662.129  67
  -5   3   9 15292.8 658.800  47
  -5   3   8 20352.3 757.310   7
  -5   3   8 21035.4 830.549   6
  -5   3   8 20449.8 815.210  16
  -5  -3   8 20579.3 797.563 108
  -5   3   8 18028.4 718.663 108
   5   3  -8 18928.4 708.301 104
   5   3  -8 20544.6 809.656 110
  -5  -3   8 21681.3 843.450  90
   5  -3  -8 18122.7 1304.77  29
   5  -3  -8 16102.4 1202.10  32
  -5  -3   8 20199.8 801.074  79
   5  -3  -8 19996.4 741.598  72
   5   3  -8 20151.8 810.431  85
   5   3  -8 18933.0 734.586  83
  -5  -3   8 20276.9 1378.11  89
   5  -3  -8 19376.8 1243.90  71
  -5  -3   8 20969.4 838.333  67
   5   3  -8 19978.4 806.590  21
  -5  -3   7 66169.7 2901.60  28
   5   3  -7 63283.5 1920.03  21
  -5   3   7 62937.6 1810.35   7
  -5   3   7 67995.2 1935.01   6
  -5   3   7 64881.8 1924.75   5
  -5   3   7 64161.0 1924.81  16
  -5  -3   7 66556.8 1884.68 108
  -5   3   7 63352.3 1852.95 108
   5   3  -7 63256.6 1834.23 104
   5   3  -7 66104.2 1910.06 110
  -5  -3   7 65698.3 1944.40  90
  -5  -3   7 60676.8 2539.42  92
   5  -3  -7 61765.8 2724.73  29
   5  -3  -7 62888.8 2674.96  32
   5   3  -7 66013.9 1931.01  85
   5   3  -7 59365.4 1832.64  83
  -5  -3   7 60711.8 2687.98  89
   5  -3  -7 66512.2 2566.31  71
  -5  -3   7 65780.9 1936.40  67
   5  -3  -7 59590.8 2562.52  40
  -5  -3   7 60027.9 2695.63  39
   5   3  -7 60661.7 2595.80  40
  -5  -3   6 46388.2 2337.89  28
   5   3  -6 44984.1 1504.49  21
  -5   3   6 47228.3 2212.34   2
  -5   3   6 47366.1 1478.06   6
  -5  -3   6 44895.6 2264.47   2
  -5   3   6 45837.4 1501.49   5
  -5   3   6 47236.1 1522.97  16
  -5  -3   6 47263.8 1440.73 108
  -5   3   6 46369.4 1460.33 108
  -5   3   6 44525.2 1393.83 105
   5   3  -6 44084.7 1387.98 103
   5   3  -6 48033.1 1463.38 104
  -5  -3   6 47495.5 1417.39 105
   5   3  -6 48484.4 1482.48 110
  -5  -3   6 42087.7 2111.75  92
   5  -3  -6 45282.9 2308.27  34
   5   3  -6 46721.3 2332.48  36
  -5  -3   6 45851.8 2330.99  35
   5  -3  -6 47819.7 2260.25  32
  -5  -3   6 45258.4 2333.47  31
   5   3  -6 47638.8 1507.60  85
   5   3  -6 44656.5 1441.95  83
  -5  -3   6 44215.1 2191.53  89
  -5  -3   6 43835.6 2235.30  87
   5  -3  -6 45243.0 1993.20  71
  -5   3   6 45103.8 1380.71  54
  -5  -3   6 44786.6 1415.18  68
  -5  -3   6 47635.5 1499.61  67
   5  -3  -6 46120.7 2182.52  40
   5  -3  -6 42248.9 2199.31  42
  -5  -3   6 42656.3 2225.56  39
   5   3  -6 41609.5 2033.45  40
   5   3  -5 113563. 3039.11  20
  -5  -3   5 116675. 4187.41  28
   5   3  -5 113108. 3886.14  18
  -5   3   5 114119. 3883.51   2
  -5   3   5 118129. 3060.11   6
  -5   3   5 112899. 3118.84  16
  -5  -3   5 113476. 2999.11 108
  -5   3   5 113748. 3055.28 105
  -5   3   5 108218. 3059.39 108
   5   3  -5 110443. 3018.56 103
   5   3  -5 114039. 3066.35 110
   5   3  -5 114504. 3071.95 104
  -5   3   5 116100. 3094.08 112
  -5  -3   5 117095. 3140.55  90
  -5  -3   5 123151. 4136.31  92
  -5  -3   5 114981. 4219.28  31
  -5  -3   5 106342. 4080.75  33
  -5  -3   5 118230. 4179.73  35
   5   3  -5 117169. 3084.64  83
  -5  -3   5 117711. 3981.11  89
  -5  -3   5 112528. 4097.12  87
  -5   3   5 113026. 3030.03  54
  -5  -3   5 114897. 3079.42  67
   5  -3  -5 118430. 4056.97  40
   5  -3  -5 108549. 4018.83  42
  -5  -3   5 117448. 4202.06  39
  -5   3   5 116341. 3113.08  47
   5   3  -5 112390. 3769.06  40
  -5   3   5 115729. 3895.26  45
   5   3  -4 16265.7 1213.48  18
  -5  -3   4 16044.4 690.006  24
   5   3  -4 17134.1 730.985  20
  -5  -3   4 17946.6 1313.14  28
  -5   3   4 13462.2 1034.26   2
  -5   3   4 16410.9 674.712   6
  -5   3   4 16258.3 733.831   5
  -5   3   4 16534.3 748.579  16
  -5   3   4 15989.9 719.819 105
  -5   3   4 17050.7 738.544 108
   5   3  -4 16673.8 709.687 103
   5   3  -4 17146.0 737.596 104
  -5   3   4 17925.7 746.328 112
   5   3  -4 16064.6 694.845 110
  -5  -3   4 16879.2 752.377  90
   5   3  -4 16107.4 1062.20  96
  -5  -3   4 16481.2 1256.86  92
  -5  -3   4 15886.0 1278.87  31
  -5  -3   4 14718.5 1241.26  33
  -5  -3   4 18064.9 1324.62  30
   5   3  -4 17097.2 1303.84  36
   5  -3  -4 15627.5 1126.11  36
  -5  -3   4 16818.0 1271.20  35
   5   3  -4 16883.5 745.541  85
   5   3  -4 17242.6 739.575  83
  -5  -3   4 14797.2 1106.62  89
  -5   3   4 16222.4 653.843  53
  -5   3   4 17101.3 725.100  54
  -5  -3   4 16484.8 701.749  67
   5  -3  -4 14407.3 1164.32  40
   5  -3  -4 15691.5 1225.84  42
  -5  -3   4 16411.0 1294.80  39
  -5   3   4 16808.7 742.172  47
  -5   3   4 14848.6 1148.38  45
  -5  -3   3 6841.88 429.285  24
   5   3  -3 7021.54 803.948  18
   5   3  -3 7850.41 471.766  20
  -5  -3   3 7189.48 816.119  28
   5   3  -3 7937.74 477.803  22
  -5   3   3 6981.47 451.648  11
  -5   3   3 7625.39 459.330   5
  -5   3   3 7590.92 451.378  14
  -5   3   3 7616.25 470.032 105
   5   3  -3 7311.70 442.847 103
   5   3  -3 7712.72 437.418 110
   5   3  -3 7769.22 467.653 104
  -5   3   3 7521.38 461.475 112
  -5  -3   3 7873.27 473.250  90
   5   3  -3 6750.32 699.881  96
  -5  -3   3 7170.79 818.860  92
  -5  -3   3 6917.49 825.374  31
  -5  -3   3 7829.39 893.672  33
  -5  -3   3 8068.32 885.238  30
   5   3  -3 7666.72 846.221  36
   5  -3  -3 8250.64 832.709  36
  -5  -3   3 7663.10 825.739  35
  -5  -3   3 7116.13 472.602  79
   5   3  -3 8025.46 472.726  85
  -5  -3   3 7373.34 727.874  89
   5   3  -3 7475.24 450.407  83
  -5  -3   3 6769.84 798.479  87
  -5  -3   3 7747.14 427.082  67
  -5  -3   3 6249.74 824.955  39
  -5   3   3 6966.93 444.532  47
  -5   3   3 7525.85 818.422  45
  -5   3   2 30847.2 1134.21  12
  -5   3   2 30461.5 1120.17  11
  -5   3   2 32262.0 1103.27   5
  -5   3   2 31969.7 1141.27  10
  -5   3   2 30608.6 1118.36   9
  -5   3   2 32818.3 1138.14  16
  -5   3   2 31092.0 1093.79  14
  -5   3   2 32472.1 1152.41 105
   5   3  -2 32185.6 1124.95 103
   5   3  -2 32391.9 1130.60 104
  -5   3   2 33434.7 1132.76 112
   5   3  -2 30447.4 1050.83 110
  -5  -3   2 33446.1 1132.16  90
   5   3  -2 31137.4 1618.45  96
  -5  -3   2 31055.0 1817.05  33
  -5  -3   2 32759.2 1850.21  30
   5   3  -2 33183.1 1775.23  36
   5  -3  -2 32330.8 1752.60  36
  -5  -3   2 29868.4 1660.37  35
  -5  -3   2 33190.7 1163.99  79
   5   3  -2 31943.3 1119.12  83
  -5  -3   2 28521.5 1711.00  87
  -5  -3   2 32607.7 1129.17  24
   5   3  -2 34623.9 1849.53  18
   5   3  -2 33928.9 1789.84  23
   5   3  -2 31223.8 1133.50  20
   5   3  -2 31939.5 1123.62  22
  -5  -3   2 31471.0 1728.86  28
  -5  -3   2 36690.3 1975.36  39
  -5   3   2 30541.0 1739.61  45
  -5   3   1 30392.1 1048.28   5
  -5   3   1 30835.9 1097.29  10
  -5   3   1 30754.8 1111.90   9
  -5   3   1 32050.1 1107.51  16
  -5   3   1 31064.1 1095.13  15
  -5   3   1 30726.4 1077.66  14
  -5   3   1 30004.1 1017.31 109
   5   3  -1 31895.1 1115.35 103
  -5   3   1 31943.4 1108.00 112
  -5  -3   1 31675.5 1080.30  90
   5   3  -1 34241.2 1693.27  96
   5   3  -1 29390.8 1008.22  95
  -5  -3   1 30578.4 1733.96  92
  -5  -3   1 30549.6 1782.27  33
  -5  -3   1 32682.4 1821.11  30
   5   3  -1 30470.5 1642.68  36
   5  -3  -1 31352.5 1743.31  36
  -5  -3   1 30954.8 1629.04  35
  -5  -3   1 32695.3 1136.21  79
  -5  -3   1 31144.6 1714.34  87
  -5  -3   1 28897.7 1504.70  41
  -5  -3   1 31292.4 1108.76  24
   5   3  -1 32072.9 1795.53  18
   5   3  -1 30823.2 1735.50  23
   5   3  -1 31247.3 1120.35  20
   5   3  -1 28413.4 1663.90  19
   5  -3  -1 29060.7 1582.02  23
   5   3  -1 30279.4 1073.39  22
  -5  -3   1 30148.2 1653.33  28
  -5  -3   0 27835.0 1022.19  24
   5   3   0 28727.3 1683.46  23
   5   3   0 26125.4 1547.12  19
   5  -3   0 27417.0 1579.15  23
   5   3   0 26576.1 953.359  22
  -5  -3   0 30419.7 1580.69  28
  -5   3   0 25946.3 1002.43  12
  -5   3   0 27223.7 1014.34  11
  -5   3   0 25453.9 908.854   5
  -5   3   0 26184.6 974.804  10
  -5   3   0 26613.0 1015.42   9
  -5   3   0 27097.7 982.311  16
  -5   3   0 26284.9 991.487  15
  -5   3   0 28121.9 987.722  14
  -5   3   0 26617.3 1021.65 105
   5   3   0 27689.5 991.230 102
   5   3   0 27223.3 998.323 104
  -5   3   0 28486.7 1016.27 112
  -5   3   0 25256.8 942.702 109
   5   3   0 28119.3 1552.52  96
  -5  -3   0 27108.6 959.158  90
   5   3   0 27146.6 945.645  95
  -5  -3   0 26009.7 1591.75  92
  -5  -3   0 24511.8 1594.64  33
   5   3   0 26369.7 1441.85  36
   5  -3   0 25836.8 1627.71  36
  -5  -3   0 27500.0 1486.65  35
  -5  -3   0 28231.2 1018.29  79
   5   3   0 24557.1 904.539  88
  -5  -3   0 28272.3 1590.55  87
  -5  -3   0 26198.3 1004.73  68
  -5  -3   0 26924.6 1485.22  41
  -5  -3   0 26548.2 1637.92  39
   5  -3   0 23911.5 1468.45  38
  -5   3   0 28269.0 1644.76  45
   5   3   1 2422.17 476.275  19
   5  -3   1 2348.00 413.622  19
   5   3   1 2516.92 271.311  20
   5   3   1 2756.26 517.405  18
   5   3   1 3074.26 567.280  23
   5  -3   1 2819.22 539.489  23
   5   3   1 2472.52 241.606  22
  -5  -3  -1 2354.21 443.159  28
  -5   3  -1 2627.82 281.933  12
  -5   3  -1 3130.89 301.325  11
  -5   3  -1 2725.84 266.483  10
  -5   3  -1 2788.63 272.881  16
  -5   3  -1 3139.66 294.867  15
   5   3   1 3059.25 289.823 104
   5   3   1 2887.72 271.313 102
  -5   3  -1 2531.91 280.654 105
  -5   3  -1 2629.31 268.698 109
  -5  -3  -1 3570.79 573.829  92
   5   3   1 3002.58 521.568  96
  -5  -3  -1 2946.41 311.326  91
   5   3   1 2840.84 268.100  95
  -5  -3  -1 2757.67 254.976  90
  -5  -3  -1 2917.50 456.681  35
   5   3   1 2162.40 371.403  36
  -5  -3  -1 2438.43 515.946  30
  -5  -3  -1 2955.49 289.808  79
   5   3   1 2657.77 254.093  88
  -5  -3  -1 2994.25 499.614  87
  -5  -3  -1 3172.03 299.395  68
  -5   3  -1 2597.07 504.216  45
  -5  -3  -1 2148.84 481.309  39
   5  -3   1 2343.64 480.572  38
  -5  -3  -1 2893.66 504.571  41
   5   3   2 25813.6 1529.25  18
   5   3   2 23490.3 913.257  20
   5  -3   2 24625.8 1585.85  23
   5   3   2 19886.4 1323.71  19
  -5  -3  -2 21337.0 1298.00  28
   5  -3   2 21702.9 1351.52  19
  -5  -3  -2 21861.4 857.725  25
  -5   3  -2 22979.3 921.432  11
  -5   3  -2 22905.0 852.284  10
  -5   3  -2 23500.6 952.900   9
  -5   3  -2 23846.9 888.778  16
  -5   3  -2 26416.5 973.917  15
   5   3   2 23498.8 884.095 102
  -5   3  -2 22189.1 910.595 105
  -5   3  -2 24506.7 942.094 109
   5   3   2 24964.7 935.801 103
   5   3   2 24412.1 923.078 104
   5   3   2 23700.8 1487.71  96
  -5  -3  -2 24435.9 948.011  91
   5   3   2 24125.7 906.000  95
   5  -3   2 22871.3 1422.70  94
  -5  -3  -2 23693.5 1460.96  92
  -5  -3  -2 24304.9 1566.63  31
  -5  -3  -2 23585.2 1557.64  33
  -5  -3  -2 25801.9 1577.49  30
  -5  -3  -2 24250.6 906.576  79
   5   3   2 24114.2 894.930  88
  -5   3  -2 23877.0 915.836  54
  -5  -3  -2 23396.5 917.262  68
  -5  -3  -2 24590.1 1505.36  41
  -5  -3  -2 22106.4 1480.59  39
   5  -3   2 21032.5 1485.09  38
  -5   3  -2 23230.9 1459.86  45
  -5  -3  -3 16358.9 710.675  25
   5   3   3 18094.6 1260.79  18
   5   3   3 17075.8 733.884  20
   5   3   3 17946.8 1333.92  23
   5  -3   3 17407.5 1359.03  23
   5   3   3 16367.4 1149.32  19
  -5  -3  -3 15905.9 1075.30  28
   5  -3   3 17147.4 1268.24  19
   5   3   3 20120.7 1418.91   1
  -5   3  -3 17355.6 755.687  11
  -5   3  -3 17430.9 711.819  16
  -5   3  -3 17894.6 796.970   9
  -5   3  -3 18922.5 808.046  15
  -5   3  -3 16496.3 744.014 105
   5   3   3 17626.2 766.667 103
   5   3   3 17366.5 750.975 104
  -5   3  -3 17682.5 785.267 109
   5   3   3 17086.1 741.592  95
  -5   3  -3 16619.5 675.112 100
  -5  -3  -3 19166.4 793.756  91
   5  -3   3 16961.6 1215.92  94
  -5  -3  -3 15804.7 1158.18  92
  -5  -3  -3 17280.5 1329.24  31
  -5  -3  -3 16276.7 1307.62  33
  -5  -3  -3 19150.2 1326.18  30
  -5  -3  -3 18057.7 732.151  79
   5   3   3 18337.1 756.885  88
  -5   3  -3 17926.3 739.606  54
  -5  -3  -3 17803.3 752.587  69
  -5  -3  -3 17414.3 747.702  68
  -5  -3  -3 17419.7 1298.55  41
  -5  -3  -3 18425.2 1327.45  39
   5  -3   3 15944.0 1306.27  38
  -5   3  -3 15623.1 1179.39  45
   5  -3   3 17194.9 1247.22  37
  -5  -3  -4 13856.7 643.922  25
   5   3   4 14835.6 640.994  20
   5   3   4 14732.5 1178.71  23
   5  -3   4 15135.5 1281.98  23
   5  -3   4 13716.8 1155.05  19
   5   3   4 12504.3 1016.69  18
   5   3   4 16618.9 1296.21   1
  -5   3  -4 14610.5 667.814  11
  -5   3  -4 14306.6 701.766   9
  -5   3  -4 14512.3 614.341  16
  -5   3  -4 16738.5 751.397  15
   5   3   4 14911.2 676.025 104
  -5   3  -4 13266.6 634.356 105
   5   3   4 14727.8 683.034 103
   5   3   4 16000.7 1200.73  96
  -5   3  -4 14105.1 626.468 100
   5   3   4 15468.6 701.373  95
   5  -3   4 13208.9 1076.21  94
  -5  -3  -4 16123.9 709.935  91
  -5  -3  -4 13719.8 1024.32  92
  -5  -3  -4 13997.6 1211.38  31
  -5  -3  -4 14481.6 1221.63  33
  -5  -3  -4 15397.9 1187.13  30
   5   3   4 15898.3 704.433  88
   5  -3   4 14354.8 662.070  57
   5  -3   4 13602.8 607.436  61
  -5   3  -4 14892.6 682.039  52
  -5   3  -4 14334.6 631.001  54
  -5  -3  -4 15770.1 701.520  69
  -5  -3  -4 14629.6 651.755  68
  -5  -3  -4 13784.9 1173.13  41
  -5  -3  -4 15983.1 1215.59  39
   5  -3   4 14405.6 1264.84  38
   5  -3   4 13808.6 1158.03  37
  -5   3  -4 11899.8 990.048  45
  -5  -3  -5 8119.58 465.161  25
   5   3   5 7342.51 402.113  20
   5   3   5 8631.07 875.103  23
   5  -3   5 9056.33 942.043  19
   5   3   5 8490.52 934.670   1
  -5   3  -5 8322.60 462.635  11
  -5   3  -5 8523.05 504.527   9
   5   3   5 8115.24 475.722 103
   5   3   5 8163.51 467.571 104
  -5   3  -5 8939.36 531.177 109
   5   3   5 7908.62 850.484  96
  -5   3  -5 8062.68 460.842 100
   5   3   5 8341.18 487.347  95
   5  -3   5 7774.69 812.413  94
   5  -3   5 7683.05 857.253  89
  -5  -3  -5 7165.04 862.385  31
  -5  -3  -5 7660.66 880.501  33
  -5  -3  -5 8224.08 842.070  30
  -5  -3  -5 8191.82 504.921  80
   5  -3   5 7835.04 465.123  57
   5  -3   5 7823.15 457.117  63
   5  -3   5 7741.10 468.268  55
  -5  -3  -5 8499.47 501.252  69
  -5   3  -5 8130.83 471.425  52
  -5  -3  -5 7872.03 901.446  41
   5  -3   5 7312.62 857.888  37
  -5  -3  -5 8265.04 855.793  39
   5  -3   5 8304.27 956.319  38
   5   3   6 8220.87 817.727  23
   5  -3   6 7926.07 906.870  23
  -5   3  -6 7954.42 471.425   9
   5   3   6 7933.73 454.521 103
  -5   3  -6 7320.61 483.520 109
   5  -3   6 7587.51 828.774  89
   5   3   6 8039.74 862.750  96
  -5   3  -6 7967.91 457.707 100
   5  -3   6 7677.42 435.324  98
   5  -3   6 8045.38 802.577  94
   5   3   6 8014.04 412.504  98
  -5  -3  -6 6830.49 733.774  30
  -5  -3  -6 7803.55 474.819  80
  -5  -3  -6 7588.65 474.968  75
   5  -3   6 8036.00 460.044  57
   5  -3   6 7405.09 432.448  63
   5  -3   6 8412.84 478.052  55
  -5  -3  -6 8577.60 493.278  69
  -5   3  -6 7309.39 437.371  52
  -5  -3  -6 8042.55 896.984  41
   5   3   6 8148.82 473.196  49
   5  -3   7 27627.1 1663.39  23
  -5   3  -7 27589.2 1042.22 109
   5  -3   7 29015.0 994.099 106
  -5   3  -7 28318.5 1002.61 100
   5  -3   7 26526.6 924.092  98
   5  -3   7 27171.4 1476.21  94
   5   3   7 29405.2 941.438  98
  -5   3  -7 28406.6 988.298   9
  -5   3  -7 29522.9 1064.29  15
  -5  -3  -7 28242.9 990.720  80
  -5  -3  -7 29135.1 1039.83  78
   5  -3   7 28859.3 996.329  65
   5  -3   7 29122.8 1037.34  56
   5  -3   7 27658.7 950.074  63
   5  -3   7 28810.3 1014.04  55
   5  -3   7 28333.3 1045.55  58
  -5  -3  -7 28347.9 1698.62  41
   5   3   7 28151.0 981.370  49
  -5  -3  -8 163.347 90.9003  25
  -5  -3  -8 156.763 99.7689  24
  -5   3  -8 117.564 108.984 109
   5  -3   8 248.618 99.6351 106
   5   3   8 199.381 89.6672  98
   5   3   8 247.773 109.882  97
  -5   3  -8 212.210 108.235 100
   5   3   8 180.551 91.7172  17
  -5   3  -8 248.301 90.8911   9
  -5   3  -8 279.536 125.560  15
  -5  -3  -8 295.546 107.146  74
  -5  -3  -8 237.128 127.194  78
  -5  -3  -8 193.347 86.2826  77
  -5  -3  -8 240.163 101.201  81
   5  -3   8 176.049 114.099  58
   5  -3   8 295.620 99.2528  65
   5  -3   8 272.858 89.5521  63
   5  -3   8 234.923 102.163  56
   5  -3   8 236.048 99.4424  55
   5  -3   8 229.604 111.546  60
   5   3   8 246.799 91.0176  49
   5  -3   9 31972.6 952.137 106
   5   3   9 31711.3 1008.87  97
  -5   3  -9 32234.0 1002.97 100
  -5   3  -9 33688.6 1040.72  15
  -5  -3  -9 31325.5 979.968  74
  -5  -3  -9 32042.2 993.998  81
  -5   3  -9 33683.2 1037.76  51
   5  -3   9 31909.2 1017.32  60
  -5  -3  -9 31105.9 950.404  25
  -5   3 -10 1201.49 125.084 100
   5  -3  10 1436.14 134.697  99
  -5   3 -10 1282.05 135.056  15
   5   3  10 1344.58 140.051   8
  -5  -3 -10 1661.77 138.000  81
  -5   3 -10 1363.95 139.883  51
   5   3  10 1366.25 117.447  48
   5   4 -10 19749.2 617.027  13
  -5   4  10 19181.1 598.483   3
  -5  -4  10 18597.4 607.797  90
   5   4 -10 19631.8 618.771 110
  -5  -4  10 20128.6 629.894 107
  -5  -4   9 28511.2 833.388 108
   5   4  -9 26572.1 863.304 102
  -5   4   9 27487.4 864.554 112
   5   4  -9 29068.4 900.778 110
  -5  -4   9 27457.6 897.906  90
  -5  -4   9 26779.0 864.784  79
   5  -4  -9 28236.8 857.473  73
  -5   4   9 28257.8 889.815  47
   5   4  -9 28175.1 843.321  26
  -5   4   9 29335.9 909.585   3
   5   4  -8 10195.2 486.278  21
   5   4  -8 9598.56 428.529  26
  -5  -4   8 9064.08 407.950 108
  -5   4   8 9834.67 466.825 112
   5   4  -8 9451.43 469.772 110
  -5   4   8 10693.8 503.687   3
  -5  -4   8 10420.2 490.989  79
  -5  -4   8 10361.4 481.020  67
  -5   4   8 10232.8 481.128  47
   5   4  -7 1234.05 192.444  21
   5   4  -7 1052.15 148.023  26
  -5   4   7 1124.07 195.158   3
  -5   4   7 1290.59 201.034  16
  -5   4   7 1112.03 184.048 112
   5   4  -7 1143.82 180.012 110
  -5  -4   7 1051.64 311.011  92
  -5  -4   7 1235.82 203.055  90
  -5  -4   7 1231.52 198.809  79
  -5  -4   7 1154.93 180.927  67
  -5   4   7 1171.28 185.537  47
   5   4  -6 12764.4 544.293  20
  -5  -4   6 14585.4 1198.08  28
  -5   4   6 13805.9 636.411 112
   5   4  -6 13136.8 560.184 104
  -5  -4   6 13751.0 571.192 105
   5   4  -6 13240.1 618.510 110
  -5  -4   6 14482.0 663.850  90
  -5  -4   6 11990.8 1046.02  92
   5   4  -6 14017.8 562.062  12
  -5   4   6 14307.6 661.036  16
   5  -4  -6 11500.4 961.121  29
  -5  -4   6 12941.0 592.565  68
  -5   4   6 12602.3 543.111  54
  -5  -4   6 14696.6 621.884  67
  -5   4   6 14415.7 640.280  47
   5   4  -5 8550.53 464.134 104
  -5   4   5 9673.08 527.775 112
   5   4  -5 7757.72 410.987 103
   5   4  -5 8486.71 488.688 110
  -5  -4   5 9730.64 532.735  90
  -5  -4   5 8909.83 935.414  92
   5  -4  -5 8304.90 809.383  32
  -5   4   5 10097.4 495.996  54
  -5  -4   5 9385.15 479.357  67
   5   4  -5 9126.24 478.163  20
  -5  -4   5 8450.68 937.752  28
   5   4  -5 9744.16 544.051  21
   5   4  -4 20987.5 843.017  20
  -5  -4   4 18688.2 1417.22  28
   5   4  -4 20969.0 866.439  21
  -5   4   4 21240.7 873.283  16
   5   4  -4 20021.5 823.119 110
  -5   4   4 20586.8 855.354 105
   5   4  -4 20694.0 785.523 103
  -5   4   4 21747.1 874.040 112
   5   4  -4 22091.5 840.526 104
  -5  -4   4 20295.0 849.555  90
  -5  -4   4 20351.5 1457.55  92
  -5  -4   4 22110.3 1473.22  30
  -5  -4   4 22692.2 909.952  79
  -5   4   4 19671.3 770.688  53
  -5   4   4 21980.2 849.176  54
  -5  -4   4 19596.3 764.837  67
   5  -4  -4 18657.1 1291.62  40
  -5  -4   4 17711.3 1391.44  39
  -5  -4   3 1349.08 192.289  24
   5   4  -3 1532.35 221.913  20
   5   4  -3 1708.62 417.933  18
  -5  -4   3 1562.08 443.072  28
   5   4  -3 1387.68 224.406  21
  -5   4   3 1173.29 217.697  12
  -5   4   3 1732.16 242.058  11
  -5   4   3 1481.26 251.026  10
  -5   4   3 1413.21 236.896  16
   5   4  -3 1238.72 194.123 103
  -5   4   3 1307.75 232.093 105
   5   4  -3 1626.18 240.686 102
  -5   4   3 1180.77 212.008 112
   5   4  -3 1541.43 216.837 110
   5   4  -3 1278.61 203.041 104
  -5  -4   3 1417.24 213.207  90
  -5  -4   3 1576.01 452.479  31
  -5  -4   3 1569.45 413.263  33
  -5  -4   3 1416.78 418.348  30
  -5  -4   3 1954.77 450.814  35
  -5  -4   3 1719.39 257.161  79
  -5  -4   3 1625.21 426.923  87
  -5   4   3 1579.05 222.612  54
  -5   4   3 1370.80 188.593  52
  -5   4   3 1498.60 207.665  53
  -5  -4   3 1702.46 423.968  39
  -5   4   3 989.374 337.630  45
   5  -4  -3 1238.81 366.143  40
   5  -4  -3 1385.97 365.272  42
  -5  -4   2 23088.0 882.508  24
   5   4  -2 24378.8 944.885  20
  -5  -4   2 21914.7 1506.98  28
   5   4  -2 22407.2 891.608  21
   5   4  -2 19899.8 1445.59  18
  -5   4   2 22432.4 932.729  12
  -5   4   2 21189.1 898.343  11
  -5   4   2 21966.3 924.976  10
   5   4  -2 21962.5 826.225  17
  -5   4   2 22118.1 898.027  16
  -5   4   2 23915.0 961.268 105
   5   4  -2 23436.2 917.432 104
   5   4  -2 22075.6 877.008 103
   5   4  -2 24373.7 955.345 102
  -5   4   2 24218.6 940.790 112
   5   4  -2 22951.9 878.897 110
  -5  -4   2 23445.7 889.958  90
   5   4  -2 19082.6 1199.84  96
  -5  -4   2 21959.7 1542.55  92
  -5  -4   2 19953.5 1502.02  31
  -5  -4   2 22083.8 1559.67  33
  -5  -4   2 23013.8 1586.41  30
   5  -4  -2 19610.0 1380.00  36
  -5  -4   2 18761.8 1404.04  35
  -5  -4   2 24360.9 950.371  79
  -5  -4   2 19557.2 1426.67  87
  -5   4   2 23916.9 907.565  53
  -5   4   2 22897.3 863.925  52
  -5   4   2 25496.0 953.108  54
  -5  -4   2 23297.1 1600.99  39
  -5   4   2 21246.0 1487.03  45
  -5  -4   1 12888.4 627.722  24
   5   4  -1 12585.7 644.660  20
  -5  -4   1 13635.7 1148.08  28
   5   4  -1 11861.6 1105.90  18
   5   4  -1 12513.4 555.050  13
  -5   4   1 12904.5 645.506  11
  -5   4   1 12528.1 638.832  10
   5   4  -1 11945.3 582.867  17
  -5   4   1 12379.7 630.394   9
  -5   4   1 11840.7 600.897  16
  -5   4   1 11711.1 554.731  14
   5   4  -1 12543.6 613.762 103
   5   4  -1 12478.5 628.898 104
   5   4  -1 12662.2 639.303 102
   5   4  -1 12526.9 592.581 110
   5   4  -1 13338.4 1001.00  96
  -5  -4   1 12410.4 586.443  90
  -5  -4   1 13286.1 1167.42  92
  -5  -4   1 12109.8 1145.36  31
  -5  -4   1 12035.7 1132.96  33
  -5  -4   1 13911.2 1207.87  30
   5  -4  -1 11589.7 1083.97  36
  -5  -4   1 10682.5 1010.54  35
  -5  -4   1 13059.6 642.802  79
  -5  -4   1 11429.6 1044.17  87
  -5   4   1 13174.2 618.474  52
  -5  -4   1 12631.5 1193.97  39
  -5  -4   0 4213.08 359.323  24
   5  -4   0 4094.29 622.526  23
  -5  -4   0 4022.56 628.015  28
   5   4   0 4196.43 315.575  21
  -5   4   0 4266.33 375.463  12
  -5   4   0 4164.37 349.465  10
   5   4   0 4683.82 359.921  17
  -5   4   0 3890.38 321.886  16
  -5   4   0 3768.10 319.289  15
  -5   4   0 3881.06 301.253  14
  -5   4   0 4335.43 371.346   9
  -5   4   0 4332.12 379.863 105
   5   4   0 4615.59 363.672 103
   5   4   0 4301.68 352.611 102
  -5  -4   0 4565.26 382.031  91
   5   4   0 2932.29 504.576  96
  -5  -4   0 5055.71 700.486  92
  -5  -4   0 4532.21 700.284  31
  -5  -4   0 3060.56 584.071  33
   5  -4   0 4949.61 722.899  36
  -5  -4   0 4078.71 689.107  30
  -5  -4   0 4081.15 613.729  35
  -5  -4   0 4617.14 366.015  79
  -5  -4   0 3245.46 533.226  87
  -5   4   0 3796.31 327.257  52
  -5   4   0 4636.98 375.213  54
  -5  -4   0 3873.81 357.088  68
  -5   4   0 3871.42 634.428  45
   5   4   1 17734.4 771.838  20
  -5  -4  -1 17566.9 777.504  24
  -5  -4  -1 16455.8 1230.41  28
   5   4   1 15571.9 1258.41  18
  -5   4  -1 16270.9 760.207  12
  -5   4  -1 16860.9 771.770  11
  -5   4  -1 17036.7 737.125  10
  -5   4  -1 17425.0 783.791   9
  -5   4  -1 15508.8 681.082  16
  -5   4  -1 16856.4 733.471  15
  -5   4  -1 15333.9 663.826  14
   5   4   1 15726.5 728.951 102
  -5   4  -1 17852.1 795.862 105
   5   4   1 17767.8 768.252 103
   5   4   1 16697.7 656.645  97
   5   4   1 16607.8 1209.45  96
  -5  -4  -1 16995.6 769.799  91
   5   4   1 16499.7 665.919  95
  -5  -4  -1 18596.5 1319.30  92
  -5  -4  -1 15083.8 1289.37  31
  -5  -4  -1 14318.7 1268.03  33
  -5  -4  -1 13388.9 1109.15  35
  -5  -4  -1 17647.9 739.398  79
  -5   4  -1 17673.0 763.022  52
  -5   4  -1 17762.8 772.925  54
  -5  -4  -1 17119.7 763.806  68
  -5  -4  -1 16424.3 1348.90  39
   5  -4   1 13037.2 1177.81  38
  -5   4  -1 14941.1 1234.06  45
   5   4   2 47662.4 1508.49  20
   5   4   2 50805.3 2389.83  23
   5  -4   2 46051.4 2322.40  23
  -5  -4  -2 41349.8 2063.43  28
   5   4   2 48865.0 2280.41  18
  -5   4  -2 46227.9 1514.54  12
  -5   4  -2 46408.4 1526.76  11
  -5   4  -2 45350.7 1442.73  10
   5   4   2 41814.8 2226.01   1
  -5   4  -2 42154.5 1373.65  16
  -5   4  -2 48531.3 1510.69  15
  -5   4  -2 46556.0 1419.20  14
  -5   4  -2 46650.5 1539.40 105
   5   4   2 49229.2 1543.33 104
   5   4   2 47696.9 1428.81  97
   5   4   2 47973.3 2213.18  96
  -5  -4  -2 49382.2 1533.36  91
   5   4   2 48444.2 1442.43  95
  -5  -4  -2 46099.2 2166.16  92
  -5  -4  -2 41888.0 2284.07  31
  -5  -4  -2 43143.5 2333.29  33
  -5  -4  -2 46528.4 2331.86  30
  -5  -4  -2 45229.4 1432.85  79
  -5   4  -2 46763.3 1409.60  51
  -5   4  -2 48069.0 1508.97  54
  -5  -4  -2 50451.2 1534.85  68
  -5  -4  -2 49164.0 2191.72  41
  -5  -4  -2 45792.9 2360.20  39
   5  -4   2 38399.8 2182.17  38
  -5   4  -2 45423.7 2239.87  45
   5   4   3 19714.7 808.692  20
   5   4   3 20329.0 1415.67  23
   5  -4   3 20102.8 1456.13  23
  -5  -4  -3 19837.2 1296.18  28
  -5   4  -3 19834.2 834.330 105
   5   4   3 21018.7 859.506 103
   5   4   3 21267.8 862.252 104
   5   4   3 21516.3 811.252  97
   5   4   3 19387.9 1332.25  96
  -5  -4  -3 20940.2 840.106  91
  -5  -4  -3 20557.7 1293.02  92
  -5   4  -3 20843.4 859.614  11
  -5   4  -3 19117.8 759.026  10
  -5   4  -3 21356.5 894.457   9
  -5   4  -3 20680.2 850.556  15
  -5   4  -3 22292.0 799.621  14
  -5  -4  -3 19450.1 1416.52  30
   5  -4   3 19584.5 767.889  55
  -5   4  -3 21313.6 807.722  51
  -5  -4  -3 21093.9 848.888  69
  -5   4  -3 21302.1 829.573  54
  -5  -4  -3 21206.9 829.164  68
  -5   4  -3 20453.4 849.951  52
  -5  -4  -3 22509.0 1422.25  41
  -5  -4  -3 19152.8 1439.75  39
   5   4   4 24186.4 876.980  20
   5   4   4 22304.2 1451.04  23
   5  -4   4 23720.9 1603.36  23
  -5   4  -4 24555.3 934.489  11
  -5   4  -4 25147.7 980.155   9
  -5   4  -4 25458.8 959.341  15
   5   4   4 25369.8 895.071   8
  -5   4  -4 25773.9 884.561  14
   5   4   4 26118.2 971.676 103
   5   4   4 25866.9 958.880 104
   5   4   4 25719.9 923.507  97
   5   4   4 24000.3 1483.76  96
  -5  -4  -4 22839.4 1500.49  30
  -5   4  -4 24634.3 914.801  51
   5  -4   4 23658.5 867.385  55
  -5  -4  -4 25003.8 951.378  69
  -5  -4  -4 23741.6 873.367  68
  -5   4  -4 23702.6 871.677  54
  -5   4  -4 25618.5 956.755  52
  -5  -4  -4 23389.2 1517.92  41
   5  -4   5 9268.44 950.337  23
   5   4   5 10514.1 520.459  97
  -5  -4  -5 11081.7 970.850  30
  -5  -4  -5 10319.4 538.972  80
  -5   4  -5 10688.1 533.422  52
  -5   4  -5 10538.4 527.658  51
   5  -4   5 9403.42 470.608  55
  -5  -4  -5 10840.4 549.037  69
  -5   4  -5 9775.17 499.849  11
   5   4   5 10274.7 540.993  17
  -5   4  -5 10625.9 556.364   9
  -5   4  -5 10616.9 546.329  15
   5   4   5 10250.2 503.006   8
  -5   4  -6 1751.32 189.320  11
   5   4   6 1934.97 220.592  17
  -5   4  -6 2064.77 235.487   9
  -5   4  -6 2131.98 235.150  15
   5   4   6 2466.61 234.576   8
   5   4   6 1940.80 219.469  49
   5   4   6 2249.67 231.024  97
  -5  -4  -6 2154.70 394.891  30
  -5  -4  -6 1927.99 212.368  80
  -5  -4  -6 2184.95 238.378  75
   5  -4   6 2189.90 232.643  56
  -5   4  -6 1950.45 225.554  51
   5  -4   6 1919.18 190.325  55
  -5  -4  -6 2081.68 234.541  69
   5  -4   6 2244.68 239.811  58
   5  -4   6 1684.34 404.779  23
   5   4   7 6429.19 351.160  49
   5   4   7 6453.26 355.648  97
  -5  -4  -7 6476.45 331.362  80
  -5  -4  -7 5845.52 352.163  78
   5   4   7 6235.40 342.128  17
  -5   4  -7 6682.50 365.304   9
  -5   4  -7 7841.48 398.915  15
   5   4   7 6421.44 352.963   8
  -5   4  -7 4899.50 288.917  53
   5  -4   7 6318.33 365.250  56
  -5   4  -7 6797.84 373.798  51
   5  -4   7 6112.67 350.174  60
   5  -4   7 5552.72 344.447  58
  -5  -4  -7 6095.99 358.735  24
   5   4   8 2960.46 196.465  49
  -5  -4  -8 3031.62 213.416  24
  -5  -4  -8 3188.56 214.301  74
  -5  -4  -8 3048.18 223.898  78
  -5  -4  -8 2923.15 210.496  81
  -5   4  -8 2780.34 189.241   9
  -5   4  -8 2974.46 222.982  15
   5   4   8 3058.99 217.236   8
   5  -4   8 2792.73 211.842  58
  -5   4  -8 2887.45 218.122  51
   5  -4   8 3301.31 214.921  60
  -5  -4  -9 1994.81 137.532  81
   5  -4   9 2094.89 141.126  64
   5  -4   9 2191.91 149.275  66
  -5   4  -9 2397.81 161.293  15
   5   4   9 2515.86 158.612   8
  -5  -5   8 1196.51 125.923  90
  -5  -5   8 1046.34 114.634  91
  -5   5   8 1208.07 123.530 112
   5   5  -8 1088.83 116.065 110
  -5  -5   8 1324.46 131.070  79
   5   5  -7 4266.47 256.688 110
  -5  -5   7 4052.92 212.468 107
  -5   5   7 4716.50 269.923 112
   5   5  -7 4654.99 269.132  13
  -5  -5   7 4251.79 264.381  90
  -5  -5   6 2113.08 202.155  90
  -5   5   6 2420.66 222.592 112
   5   5  -6 1946.86 195.925 102
   5   5  -6 1875.68 191.453 110
  -5  -5   6 2232.00 219.186  79
  -5  -5   6 1900.76 183.091  68
   5   5  -6 2313.77 210.423  13
  -5   5   6 2342.76 216.867   3
   5   5  -5 14230.3 577.553  13
   5   5  -5 13730.0 528.120  12
  -5   5   5 14394.8 590.760  16
  -5   5   5 14035.9 583.346   3
  -5  -5   5 13746.8 568.850  90
   5   5  -5 13419.8 578.637 102
  -5   5   5 14421.0 599.051 112
  -5  -5   5 13330.3 538.578 105
   5   5  -5 12539.1 555.085 110
  -5  -5   5 14051.4 601.979  79
  -5   5   5 12404.8 513.074  54
  -5  -5   5 12434.8 556.094  68
   5   5  -5 13548.9 575.175  21
   5   5  -5 13014.6 519.778  20
   5   5  -4 13478.2 573.356  13
   5   5  -4 14078.9 580.458  12
  -5   5   4 13294.1 584.640  16
  -5   5   4 13302.5 579.821   3
   5   5  -4 12698.3 520.409 104
   5   5  -4 12758.3 572.163 110
   5   5  -4 13818.2 610.032 102
  -5  -5   4 13435.0 570.537  90
  -5  -5   4 14478.7 623.739  79
  -5   5   4 12586.3 522.730  53
  -5  -5   4 13147.2 596.873  68
  -5   5   4 13630.5 573.721  54
   5   5  -4 14006.7 579.664  20
   5   5  -4 13119.7 575.210  21
   5   5  -3 4297.43 316.104  12
  -5   5   3 3819.66 296.587  16
  -5   5   3 3767.55 287.631   3
   5   5  -3 4339.78 293.672  13
   5   5  -3 3846.34 282.989 104
   5   5  -3 3841.88 301.624 110
  -5  -5   3 3608.19 276.349  90
  -5  -5   3 4291.09 612.886  92
  -5  -5   3 4017.13 581.767  30
  -5  -5   3 4436.24 333.768  79
  -5   5   3 3875.96 286.498  53
  -5   5   3 3628.54 296.216  54
   5   5  -3 3813.61 305.722  20
  -5  -5   3 3212.42 542.913  28
   5   5  -3 3901.47 287.060  21
   5   5  -2 11491.3 554.658  12
  -5   5   2 10246.5 520.437  11
  -5   5   2 10608.3 551.518  10
  -5   5   2 10353.4 498.665  16
  -5   5   2 9009.51 451.473   3
   5   5  -2 10139.2 463.247  13
   5   5  -2 11108.6 553.818 102
   5   5  -2 9839.31 501.864 110
   5   5  -2 10537.6 476.904 103
  -5   5   2 11648.7 557.869 112
   5   5  -2 10312.0 504.508 104
  -5  -5   2 9816.79 462.986  90
  -5  -5   2 9999.02 940.358  92
  -5  -5   2 10041.8 949.037  30
  -5  -5   2 10762.8 533.008  79
  -5   5   2 9973.33 448.915  52
  -5   5   2 11243.7 534.556  53
  -5  -5   2 10782.2 551.917  68
  -5   5   2 11108.1 548.581  54
   5   5  -2 11019.5 546.258  20
  -5  -5   2 10491.0 971.439  28
   5   5  -2 10004.0 472.221  21
   5   5  -1 27804.4 990.926  12
  -5   5   1 26449.3 966.518  11
  -5   5   1 26565.2 975.854  10
   5   5  -1 26432.2 889.738  17
  -5   5   1 24028.6 872.416  16
   5   5  -1 26370.9 975.030 102
   5   5  -1 27143.0 955.801 104
   5   5  -1 26521.6 916.488 103
  -5  -5   1 26004.5 968.049  91
  -5  -5   1 24390.2 1504.45  92
  -5  -5   1 26421.2 1594.52  30
  -5  -5   1 25320.2 926.605  79
  -5   5   1 27082.3 968.775  53
  -5  -5   1 26850.0 987.429  68
  -5   5   1 26782.2 900.207  52
   5   5  -1 27934.0 991.414  20
  -5  -5   1 24850.7 885.035  24
  -5  -5   1 24177.3 1518.01  28
  -5   5   0 15918.8 722.516  12
  -5   5   0 16860.8 732.864  11
  -5   5   0 17277.9 721.277  10
   5   5   0 17869.4 693.816  17
  -5   5   0 17047.0 706.623   9
   5   5   0 17560.8 725.612 104
   5   5   0 17014.0 692.890 103
  -5  -5   0 16869.5 720.092  91
  -5  -5   0 16492.2 1187.53  92
  -5  -5   0 15005.5 1192.11  30
  -5  -5   0 16758.3 675.367  79
  -5   5   0 17056.8 730.445  53
  -5  -5   0 17148.4 733.112  68
  -5   5   0 17067.1 727.361  54
  -5   5   0 17157.5 684.243  52
  -5  -5   0 15991.0 675.785  24
  -5  -5   0 14817.7 1152.99  28
   5   5   1 25517.2 930.705  12
  -5   5  -1 24526.3 901.135  10
   5   5   1 26152.2 919.595  17
  -5   5  -1 25660.0 934.841   9
  -5  -5  -1 24526.3 904.016  91
  -5  -5  -1 21390.8 1337.47  92
   5   5   1 26109.4 918.633 103
   5   5   1 25390.8 930.848 104
  -5  -5  -1 25027.0 1552.27  30
  -5   5  -1 25121.3 901.950  52
  -5  -5  -1 24735.8 916.415  68
  -5   5  -1 27031.3 948.794  54
   5   5   1 25467.1 934.550  20
  -5  -5  -1 25016.0 910.859  24
  -5  -5  -1 24241.1 1465.72  28
   5  -5   1 20287.3 1365.56  23
   5   5   2 14132.1 614.854  12
  -5   5  -2 13575.7 634.959  11
  -5   5  -2 13426.2 584.069  10
   5   5   2 15334.7 644.166  17
  -5   5  -2 14590.9 646.223   9
  -5  -5  -2 13515.8 584.908  91
   5   5   2 13469.0 612.185 103
  -5  -5  -2 14675.5 1142.33  30
   5   5   2 13723.1 607.847  20
  -5  -5  -2 14381.5 631.450  24
  -5   5  -2 14482.3 624.755  52
  -5   5  -2 15214.8 657.225  53
  -5  -5  -2 13817.7 608.576  69
  -5  -5  -2 13980.6 604.418  68
  -5   5  -2 15089.5 628.434  54
   5   5   3 32016.0 1006.80  12
  -5   5  -3 31009.3 1050.97  11
  -5   5  -3 29290.5 953.910  10
   5   5   3 32252.5 1060.41  17
  -5   5  -3 31724.6 1068.92   9
  -5   5  -3 33156.3 1073.40  53
   5  -5   3 29717.5 988.774  56
  -5  -5  -3 30843.0 1031.25  69
  -5  -5  -3 29037.7 966.007  68
  -5   5  -3 30806.0 999.457  54
  -5  -5  -3 31804.0 1057.43  24
   5   5   3 31561.3 1003.09  20
  -5  -5  -4 16784.0 656.831  24
  -5  -5  -4 14982.8 564.601 105
  -5  -5  -4 14057.3 1031.32  30
  -5  -5  -4 16085.2 637.259  80
  -5   5  -4 15315.3 620.199  11
   5   5   4 15914.6 637.091  17
  -5   5  -4 15715.5 628.809  53
  -5  -5  -4 15339.4 621.226  69
   5  -5   4 14446.6 577.627  58
   5   5   4 16486.3 655.729  49
   5   5   5 4265.17 276.260  49
  -5  -5  -5 4229.31 264.902  80
  -5  -5  -5 3910.83 269.095  75
  -5   5  -5 3735.23 246.846  11
  -5   5  -5 4475.93 288.744   9
  -5   5  -5 3283.23 238.436  53
  -5   5  -5 3770.64 236.440  51
   5  -5   5 3072.67 204.713  60
  -5  -5  -5 3449.63 254.487  69
   5  -5   5 3532.86 233.491  58
  -5  -5  -5 4344.01 284.593  24
   5   5   6 5418.94 281.010  49
  -5   5  -6 5712.04 293.084   9
   5   5   6 4536.07 217.097   8
  -5  -5  -6 4687.09 238.790  80
  -5  -5  -6 5673.61 287.478  78
  -5   5  -6 4900.72 250.378  51
  -5   5  -6 4220.98 221.080  53
   5  -5   6 4611.18 232.781  66
   5   5   6 5887.42 287.815  17
  -5  -5  -6 5700.06 293.265  24
   5  -5   7 4993.11 229.768  99
  -5   5  -7 4999.32 231.331   9
  -5  -5  -7 5653.41 245.908  78
   5   5   7 5387.26 236.212  49
   5   5   7 5100.07 218.394  17
   5   6  -4 5289.34 228.464  11
  -5  -6   4 5644.68 263.613  68
  -5  -6   4 5598.23 267.264  91
   5   6  -3 5401.10 260.164  12
  -5  -6   3 4996.80 262.734 105
   5   6  -3 5617.06 263.294  20
  -5  -6   3 4963.47 266.886  91
   5   6  -2 34335.3 966.914  12
   5   6  -2 34008.7 967.383  20
  -5  -6   2 31867.5 967.100  68
  -5  -6   2 30430.7 935.076  91
   5   6  -1 16797.7 580.760  12
  -5   6   1 16141.7 567.894  53
  -5  -6   1 15988.5 573.140  68
  -5  -6   1 15262.3 535.344  91
   5   6  -1 16812.8 580.130  20
  -5  -6   0 14440.6 495.132  91
   5   6   0 16423.6 542.862  49
  -5   6   0 18218.0 591.411  53
  -5  -6   0 16926.9 565.916  68
   5   6   0 14898.2 482.427  17
   5   6   1 1258.04 118.263  17
   5   6   1 1112.77 132.010  20
   5   6   1 1163.76 132.054  12
  -5   6  -1 1037.07 135.588  11
  -5  -6  -1 1326.09 142.992 105
  -5  -6  -1 1233.10 122.415  68
   5   6   1 1170.88 124.016  49
   5   6   2 814.498 101.345  17
   5   6   2 879.091 101.360  20
   5   6   2 663.518 92.8801  12
  -5   6  -2 782.666 113.257  11
  -5  -6  -2 688.533 97.8911 105
  -5  -6  -2 835.597 113.683  80
  -5   6  -2 712.768 111.060  53
   5   6   2 785.306 103.030  49
  -5   6  -3 930.805 112.054  11
  -5  -6  -3 987.950 107.565  80
   5   6   3 893.545 102.989  49
  -5   6  -3 860.576 102.603  53
   5   6   3 1024.06 105.690  17
   5   6   4 8379.55 296.986  17
   6   0 -12 20980.5 655.041  85
   6   0 -12 20199.4 647.028  82
  -6   0  12 19771.6 630.939 108
   6   0 -11 239.521 108.205  85
  -6   0  11 259.649 107.524 108
  -6   0  11 205.624 80.0501 107
   6   0 -11 157.752 68.2665 110
   6   0 -11 111.433 90.3501 104
   6   0 -10 1175.91 189.404  73
   6   0 -10 1120.69 184.968  85
   6   0 -10 1073.18 181.253  82
   6   0 -10 607.065 253.681  29
   6   0 -10 1483.45 319.933  96
  -6   0  10 1138.65 190.139 108
  -6   0  10 1188.31 175.970 107
   6   0 -10 1542.04 168.130 110
  -6   0   9 30.4338 122.967 107
   6   0  -9 153.090 89.3094 110
   6   0  -9 48.8434 182.052  96
   6   0  -9 106.673 198.798  29
   6   0  -9 229.016 252.492  32
   6   0  -9 111.919 113.079  73
   6   0  -9 46.3932 115.288  85
   6   0  -9 79.3171 126.820  82
   6   0  -9 29.7818 108.204  72
  -6   0   9-55.7829 185.966  28
  -6   0   8 12700.6 592.357   5
  -6   0   8 12818.3 1153.47   2
  -6   0   8 14480.6 684.330 107
   6   0  -8 13911.3 1133.55  96
   6   0  -8 12405.6 1086.42  29
  -6   0   8 13385.2 1134.15  28
   6   0  -8 13821.6 1169.06  32
   6   0  -8 14748.2 679.006  85
   6   0  -8 15925.9 703.020  73
   6   0  -8 14142.0 675.756  82
   6   0  -8 14465.0 654.660  72
   6   0  -8 14721.4 1220.95  40
  -6   0   8 13136.7 579.729  47
   6   0  -7 23491.4 870.283  22
  -6   0   7 22361.4 1526.71   2
  -6   0   7 25682.8 984.702 108
  -6   0   7 24117.5 965.665 107
   6   0  -7 23989.7 1526.61  96
   6   0  -7 19083.2 1317.59  34
  -6   0   7 25154.5 1544.40  28
   6   0  -7 26039.1 1589.34  29
   6   0  -7 22786.7 1486.97  36
   6   0  -7 24228.0 1586.95  32
   6   0  -7 25425.7 945.750  85
   6   0  -7 26239.4 967.130  73
   6   0  -7 24470.9 948.349  82
   6   0  -7 24409.4 917.506  72
   6   0  -7 22070.1 1482.25  42
  -6   0   7 23067.5 858.119  47
  -6   0   6 50.8618 179.839  28
   6   0  -6 42.3242 91.0767  22
  -6   0   6 56.8499 177.276   2
  -6   0   6 67.2383 125.303 108
  -6   0   6 100.606 98.3188 105
   6   0  -6 112.296 256.301  96
   6   0  -6 46.9130 146.290  34
   6   0  -6 224.521 187.116  36
   6   0  -6-56.9724 189.924  32
   6   0  -6-15.3244 105.317  73
   6   0  -6 74.9608 114.515  85
   6   0  -6-30.8582 104.466  82
   6   0  -6-13.9440 94.4109  72
  -6   0   6 131.584 179.078  45
   6   0  -6-59.6705 157.259  40
   6   0  -6-53.0128 176.724  42
  -6   0   6 127.713 100.976  47
  -6   0   5 28132.7 1617.90   2
  -6   0   5 29978.6 1074.26 108
  -6   0   5 31226.2 1044.79 105
   6   0  -5 30582.4 1727.38  96
  -6   0   5 29613.5 1475.69  92
  -6   0   5 26923.2 1487.61  28
   6   0  -5 28579.1 1683.72  36
   6   0  -5 29197.2 1674.85  32
   6   0  -5 30642.8 1038.08  85
  -6   0   5 28415.3 990.701  79
   6   0  -5 30124.5 1039.51  73
   6   0  -5 29496.8 1036.02  82
   6   0  -5 29046.6 1038.73  22
   6   0  -5 29158.9 1695.18  40
   6   0  -5 29694.8 1631.70  42
  -6   0   5 28028.8 988.307  47
  -6   0   5 31543.5 1637.41  45
  -6   0   4 185.373 163.947   2
  -6   0   4 235.215 109.317  16
  -6   0   4 222.999 121.511 108
  -6   0   4 318.763 132.385 105
  -6   0   4 123.623 123.640 107
  -6   0   4 172.268 183.092  92
  -6   0   4 450.174 204.709  31
   6   0  -4 218.937 193.603  36
   6   0  -4 99.0859 184.727  32
   6   0  -4 162.520 93.3405  73
   6   0  -4 298.747 105.928  85
  -6   0   4 239.689 118.609  79
   6   0  -4 190.303 97.0512  82
   6   0  -4 323.894 211.279  19
  -6   0   4 371.470 185.826  28
  -6   0   4 301.565 221.710  45
   6   0  -4 208.581 203.904  40
   6   0  -4 365.697 194.327  42
  -6   0   3 31588.2 1100.48  14
  -6   0   3 31959.8 1570.46   2
  -6   0   3 33271.4 1113.34 108
  -6   0   3 31931.5 1112.73 107
  -6   0   3 33612.7 1127.01 105
   6   0  -3 31507.9 1712.77  96
  -6   0   3 34349.0 1692.30  92
   6   0  -3 30593.7 1718.07  36
  -6   0   3 27199.7 1424.02  31
   6   0  -3 32355.6 1038.17  85
  -6   0   3 33558.5 1108.40  79
   6   0  -3 31282.6 1032.43  82
   6   0  -3 33895.4 1701.48  19
   6   0  -3 32652.2 1699.07  40
  -6   0   3 36470.4 1819.32  39
   6   0  -3 32401.9 1615.44  42
  -6   0   3 34542.9 1767.44  45
  -6   0   2 20091.0 1113.56   2
  -6   0   2 18082.0 750.745  14
  -6   0   2 19269.9 755.507 108
  -6   0   2 19556.3 779.781 107
  -6   0   2 20183.3 796.301 105
   6   0  -2 20606.9 1304.93  96
  -6   0   2 19509.0 734.203  91
  -6   0   2 19522.9 1257.57  92
  -6   0   2 19133.0 1073.90  31
   6   0  -2 18619.6 1209.66  40
  -6   0   2 21983.0 1299.22  39
  -6   0   2 18882.0 1279.81  45
  -6   0   2 20183.9 803.887  24
   6   0  -2 19452.8 1151.66  23
   6   0  -2 19682.7 1252.00  19
  -6   0   2 19876.4 796.404  25
  -6   0   1 47248.5 1446.30  24
   6   0  -1 48801.8 2039.52  23
   6   0  -1 47137.4 2100.55  19
  -6   0   1 47978.5 1449.55  25
  -6   0   1 42406.6 1707.57   2
   6   0  -1 42470.5 1807.34   1
  -6   0   1 46946.8 1422.73  14
  -6   0   1 46331.1 1392.54 108
  -6   0   1 45083.1 1400.77 107
   6   0  -1 45624.8 1392.01 104
   6   0  -1 48327.2 2127.06  96
  -6   0   1 45079.1 2065.75  92
  -6   0   1 40339.3 1700.29  31
  -6   0   1 44929.6 1935.92  33
   6   0  -1 47104.9 2129.50  36
  -6   0   1 43827.4 1348.58  80
   6   0  -1 48016.4 1377.40  83
   6   0  -1 45425.3 1438.82  62
   6   0  -1 44542.7 1973.59  40
   6   0  -1 43865.1 1831.15  38
  -6   0   1 45797.6 1975.85  39
  -6   0   1 48023.0 2196.55  41
  -6   0   1 45098.2 2103.46  45
  -6   0   0 60272.7 1792.22  24
   6   0   0 62337.0 2488.46  23
   6   0   0 65546.3 2589.95  19
  -6   0   0 62382.5 1817.31  25
  -6   0   0 58460.7 1780.36  15
  -6   0   0 63747.6 1796.23  14
   6   0   0 62480.5 2318.90   1
   6   0   0 60914.3 1762.51 103
  -6   0   0 60456.2 1739.47 108
  -6   0   0 61532.4 1801.96 111
  -6   0   0 61855.8 1764.89 107
   6   0   0 59684.8 1725.72 104
  -6   0   0 60915.6 1808.16 105
   6   0   0 63857.6 2532.28  96
  -6   0   0 58545.3 2257.28  33
   6   0   0 64004.5 2570.73  36
  -6   0   0 60349.1 1756.33  80
   6   0   0 61646.1 1713.07  83
   6   0   0 64074.4 1823.25  62
   6   0   0 63150.7 2375.49  40
  -6   0   0 60987.5 2291.21  39
   6   0   0 59635.2 2349.28  38
  -6   0   0 60119.1 2595.95  41
  -6   0   0 63154.7 2579.98  45
  -6   0  -1 19117.5 766.641  24
   6   0   1 19865.3 1294.29  23
   6   0   1 19091.9 1292.64  19
  -6   0  -1 19923.9 798.592  25
   6   0   1 21488.7 1217.97   1
  -6   0  -1 18260.9 766.373  15
   6   0   1 19528.2 749.592 103
  -6   0  -1 19649.2 744.237 107
  -6   0  -1 19636.7 789.909 111
  -6   0  -1 20740.9 805.162 105
  -6   0  -1 21391.4 1355.35  92
   6   0   1 18445.3 1217.01  96
  -6   0  -1 18506.3 1066.11  33
   6   0   1 22656.6 1334.71  36
  -6   0  -1 18820.6 762.894  80
   6   0   1 21247.1 806.075  62
  -6   0  -1 18636.1 1045.13  39
   6   0   1 21783.7 1298.41  38
   6   0   1 21322.7 1235.05  37
  -6   0  -1 20402.6 1318.41  45
  -6   0  -2 1603.86 224.045  25
   6   0   2 1783.25 414.724  19
  -6   0  -2 2073.01 226.447  24
   6   0   2 2099.10 450.374  23
   6   0   2 2108.32 392.923   1
  -6   0  -2 2090.94 233.745  15
  -6   0  -2 1425.06 208.186 111
  -6   0  -2 1698.48 222.386 105
   6   0   2 2041.53 424.392  94
  -6   0  -2 1760.74 415.929  92
   6   0   2 2116.22 423.145  96
   6   0   2 1517.40 205.761  95
   6   0   2 1453.36 351.796  37
   6   0   2 1377.87 340.460  36
  -6   0  -2 1789.02 227.942  80
   6   0   2 2038.42 229.935  62
  -6   0  -2 1723.46 404.111  45
   6   0   2 1587.75 402.451  38
  -6   0  -2 1532.07 424.808  41
  -6   0  -3 60344.4 1860.56  25
  -6   0  -3 59576.0 1768.28  24
   6   0   3 65174.2 2747.20  23
  -6   0  -3 58391.5 1794.97  15
   6   0   3 62307.3 2520.84   1
  -6   0  -3 63694.8 1844.00 111
  -6   0  -3 60917.2 1805.38 105
  -6   0  -3 62933.0 2626.12  92
   6   0   3 63691.3 2479.76  96
   6   0   3 62926.6 1841.42  95
   6   0   3 62668.4 2585.29  94
   6   0   3 60422.4 2430.75  36
  -6   0  -3 64607.0 1888.89  80
   6   0   3 62672.8 1854.20  88
   6   0   3 66714.5 1850.74  62
   6   0   3 60790.1 2643.15  38
  -6   0  -3 62338.7 2689.51  41
  -6   0  -3 63740.9 2525.00  45
   6   0   3 64711.7 2642.54  37
   6   0   4 64755.4 2638.93   1
  -6   0  -4 56826.8 1755.91  15
  -6   0  -4 56435.8 1728.37 105
  -6   0  -4 61190.2 1802.41 111
  -6   0  -4 59268.0 2545.65  92
   6   0   4 61627.9 2408.27  96
   6   0   4 61233.9 1799.48  95
   6   0   4 64290.3 2622.68  94
   6   0   4 58878.2 2322.11  36
  -6   0  -4 61441.5 1737.05  78
   6   0   4 61748.3 1819.79  88
   6   0   4 60171.8 1822.16  57
   6   0   4 62681.8 1797.84  62
   6   0   4 62695.1 1856.04  61
   6   0   4 59482.8 2662.78  38
  -6   0  -4 58818.1 2610.97  41
  -6   0  -4 59596.5 2388.03  45
   6   0   4 63699.8 2675.19  37
   6   0   5 2469.79 491.082   1
  -6   0  -5 3030.93 275.214  15
   6   0   5 2915.20 568.174  38
  -6   0  -5 2905.28 533.202  41
   6   0   5 3216.99 547.435  94
   6   0   5 2881.86 448.436  96
   6   0   5 3181.85 285.803  95
   6   0   5 2963.83 301.466  98
   6   0   5 3050.34 556.640  37
  -6   0  -5 2649.12 259.069  78
   6   0   5 3236.26 293.214  88
   6   0   5 3175.90 305.968  61
   6   0   5 2830.58 284.589  57
   6   0   5 3428.42 315.855  63
   6   0   5 3244.51 575.130  19
   6   0   5 3282.57 603.434  23
   6   0   6 52289.1 2419.65  23
  -6   0  -6 50368.3 1631.35  27
   6   0   6 46598.8 2313.20  19
  -6   0  -6 50737.8 1604.22 109
   6   0   6 49510.0 1514.12  95
   6   0   6 51533.9 2354.58  94
   6   0   6 46238.3 2288.10   1
  -6   0  -6 47518.1 1479.86  15
   6   0   6 50040.9 1540.62  88
   6   0   6 49354.5 1578.57  65
   6   0   6 50454.9 1575.22  57
   6   0   6 52291.5 1609.48  63
   6   0   6 49119.3 1552.03  55
   6   0   6 50064.0 1597.41  61
   6   0   6 48725.8 1508.98  60
   6   0   6 48836.4 1461.31  58
  -6   0  -6 46902.9 2245.07  41
   6   0   6 47911.5 2375.33  37
   6   0   7 15196.8 1170.53  23
  -6   0  -7 15219.6 720.088  27
   6   0   7 14028.4 604.600  95
   6   0   7 14468.5 1131.43  94
   6   0   7 15769.4 694.451 106
  -6   0  -7 15977.2 701.923 109
   6   0   7 14426.8 627.680  88
  -6   0  -7 13856.3 570.471  81
   6   0   7 15184.0 687.585  65
   6   0   7 15055.3 693.545  63
   6   0   7 14952.2 657.405  55
   6   0   7 14237.8 623.719  60
   6   0   7 14055.9 581.188  58
  -6   0  -7 12319.3 1014.53  41
   6   0   8 5023.84 358.225 106
  -6   0  -8 5291.78 358.221 109
  -6   0  -8 4621.02 284.673  81
   6   0   8 4852.92 351.590  65
   6   0   8 5237.00 340.507  55
   6   0   8 4987.03 317.538  60
   6   0   8 4384.16 577.360  23
   6   0   8 4898.02 313.103  97
   6   0   8 4803.71 357.475  98
   6   0   8 4414.85 601.111  94
   6   0   9 5658.39 345.906  65
   6   0   9 5848.08 361.914  98
   6   0   9 4766.34 574.790  94
   6   0   9 5285.00 334.976 106
  -6   0  -9 5140.18 319.514 109
   6   0  10 3753.19 241.644 106
  -6   0 -10 3553.87 201.889 109
   6   0  10 3998.01 254.622  98
  -6   0 -10 3991.43 252.720  25
   6   0  11 365.391 64.6585 106
  -6   0 -11 438.059 68.9856  25
   6   0  11 390.669 68.4195  98
  -6   1  12 7952.15 329.218   7
  -6   1  12 8503.85 351.458   6
   6  -1 -12 8564.86 343.747  85
   6   1 -12 8208.33 338.133  85
  -6  -1  12 8383.47 345.117 108
   6  -1 -12 7712.36 308.507 104
   6  -1 -11 4010.36 268.804  85
   6   1 -11 3893.81 250.289  83
   6  -1 -11 3792.44 264.878  73
   6  -1 -11 3787.28 265.895  82
   6   1 -11 4209.17 274.931  82
  -6   1  11 3688.37 249.195 108
  -6  -1  11 3428.22 244.355 107
   6   1 -11 3456.26 223.360 110
  -6   1  11 3431.02 217.195  47
  -6  -1  10 7359.78 429.531 108
  -6   1  10 7326.98 417.330 108
  -6  -1  10 7405.23 421.927 107
  -6   1  10 6897.37 361.019 107
   6   1 -10 7570.90 397.797 104
   6   1 -10 7741.37 383.498 110
   6  -1 -10 7837.54 750.267  96
   6  -1 -10 6534.09 738.435  29
   6  -1 -10 7429.40 413.389  85
   6   1 -10 7382.52 424.568  85
   6  -1 -10 7502.94 424.909  73
   6  -1 -10 8080.14 440.082  82
   6  -1 -10 7761.08 411.561  72
  -6   1  10 6881.33 381.224  47
  -6   1   9 24663.4 874.186   5
  -6  -1   9 25941.1 974.650 108
  -6   1   9 26177.3 962.427 108
  -6  -1   9 27284.9 981.222 107
  -6   1   9 25228.2 907.661 107
   6   1  -9 26789.5 947.419 104
   6   1  -9 24097.4 862.125 110
   6  -1  -9 23936.0 1500.34  96
  -6  -1   9 22869.6 844.807  90
   6  -1  -9 24669.7 1573.27  29
  -6  -1   9 23903.8 1531.52  28
   6   1  -9 22544.0 1441.51  32
   6   1  -9 20620.0 1295.37  29
   6  -1  -9 22985.4 1532.57  32
   6  -1  -9 28556.6 983.025  73
   6   1  -9 26683.9 973.252  85
   6   1  -9 26391.5 968.976  82
   6  -1  -9 25961.5 918.717  72
  -6   1   9 23739.0 892.830  47
  -6   1   8 7042.28 425.724   5
   6   1  -8 7221.99 403.782 110
  -6  -1   8 7655.30 473.935 108
  -6   1   8 7057.08 465.394 108
  -6   1   8 6849.12 436.559 107
   6   1  -8 7492.25 465.832 104
   6   1  -8 6684.60 714.498  96
  -6  -1   8 6693.99 419.570  90
  -6  -1   8 6817.88 443.566  99
   6  -1  -8 7744.95 878.145  29
  -6  -1   8 6961.51 844.168  28
   6   1  -8 6851.02 796.884  32
   6  -1  -8 6431.14 828.181  32
   6   1  -8 7251.36 747.306  29
   6  -1  -8 7977.36 465.073  73
   6   1  -8 7727.17 467.194  85
   6   1  -8 8067.02 482.914  82
   6  -1  -8 6777.34 413.287  72
   6  -1  -8 6237.86 748.510  71
   6  -1  -8 7194.67 848.058  40
  -6   1   8 7045.52 436.011  47
   6   1  -8 7839.27 880.228  40
   6   1  -7 7051.62 432.518  22
  -6   1   7 6436.15 422.934   5
  -6   1   7 6693.08 811.429   2
  -6   1   7 6076.85 386.307  16
  -6  -1   7 5341.83 748.987   2
  -6  -1   7 6667.16 445.181 108
  -6   1   7 7378.16 472.971 108
  -6   1   7 6693.53 447.678 107
   6   1  -7 5852.83 710.559  96
  -6  -1   7 6052.01 418.871  90
  -6  -1   7 6894.16 433.148  99
   6  -1  -7 6462.44 792.103  34
   6   1  -7 6573.94 787.272  36
   6   1  -7 6608.24 777.420  32
  -6  -1   7 5738.76 740.043  35
  -6  -1   7 6156.58 778.290  28
   6   1  -7 5569.86 666.770  29
   6  -1  -7 7196.95 437.326  73
   6   1  -7 6825.13 442.817  85
  -6  -1   7 5610.34 370.099  79
  -6  -1   7 5942.78 783.659  89
   6   1  -7 6426.01 433.675  82
   6   1  -7 5616.00 359.767  62
   6  -1  -7 6584.94 394.111  72
   6  -1  -7 6402.12 746.403  71
   6   1  -7 5922.88 777.873  40
   6  -1  -7 5809.45 782.569  40
   6  -1  -7 5148.86 715.666  42
  -6   1   7 7380.06 443.687  47
   6   1  -6 72523.1 2097.78  22
  -6  -1   6 72693.2 3003.09   2
  -6   1   6 75141.8 2968.52   2
  -6   1   6 70707.3 2049.70  16
  -6   1   6 70046.3 2010.83 105
  -6  -1   6 75359.7 2126.78 108
  -6  -1   6 73485.7 2142.00 107
  -6   1   6 75575.0 2146.38 107
  -6  -1   6 71956.5 2022.78 105
   6   1  -6 72204.7 2896.67  96
  -6  -1   6 71170.6 2095.17  90
  -6  -1   6 67496.2 2618.98  92
   6   1  -6 66062.7 2655.56  29
  -6  -1   6 75294.2 2953.46  28
   6   1  -6 76501.0 3069.58  36
   6  -1  -6 72390.4 2895.19  36
   6   1  -6 72081.8 2852.32  32
  -6  -1   6 70877.5 2834.60  35
   6  -1  -6 73739.4 2070.97  73
   6   1  -6 73674.0 2111.06  85
  -6  -1   6 69567.4 2045.46  79
  -6  -1   6 69655.3 2971.23  89
   6   1  -6 74770.4 2120.07  82
  -6  -1   6 62953.5 2750.05  87
   6   1  -6 69697.5 2020.22  62
   6  -1  -6 73390.7 2014.81  72
   6  -1  -6 74934.4 2842.49  71
   6   1  -6 73218.7 2991.27  40
   6  -1  -6 78450.4 3127.37  40
   6   1  -6 66150.7 2656.08  42
   6  -1  -6 72966.1 3042.08  42
  -6   1   6 74107.0 2092.43  47
  -6  -1   6 70226.7 2716.41  45
  -6   1   6 67823.3 2667.73  45
   6   1  -5 38291.6 1275.49  22
  -6  -1   5 34989.3 1902.34   2
  -6   1   5 39216.7 1910.05   2
  -6   1   5 39285.2 1257.74  16
  -6  -1   5 37955.5 1263.17 108
  -6   1   5 38561.8 1302.59 108
  -6   1   5 33835.1 1174.46 111
  -6  -1   5 39984.3 1302.93 107
  -6   1   5 38641.5 1298.62 107
  -6  -1   5 37275.1 1238.42 105
  -6   1   5 38729.2 1243.66 105
   6   1  -5 38743.1 1932.99  96
  -6  -1   5 38422.5 1284.01  90
  -6  -1   5 34468.4 1763.37  92
   6   1  -5 36173.5 1732.33  29
  -6  -1   5 35617.1 1833.02  28
   6   1  -5 41632.6 2072.07  36
   6  -1  -5 39873.2 1978.51  36
   6   1  -5 36951.9 1839.26  32
  -6  -1   5 36603.5 1787.44  35
  -6  -1   5 34268.7 1887.33  31
   6  -1  -5 37600.9 1218.37  73
   6   1  -5 38184.8 1258.97  85
  -6  -1   5 37977.1 1260.00  79
  -6  -1   5 40952.5 2032.28  89
   6   1  -5 39248.9 1268.92  82
  -6  -1   5 36293.4 1893.75  87
   6   1  -5 36705.2 1225.36  62
   6   1  -5 35900.6 1900.12  40
   6  -1  -5 38086.6 2026.13  40
   6   1  -5 32832.9 1652.49  42
   6  -1  -5 39511.6 2019.44  42
  -6   1   5 38706.7 1260.80  47
  -6  -1   5 38028.9 1887.17  45
  -6   1   5 35137.9 1810.50  45
  -6  -1   4 9139.84 525.597  24
   6   1  -4 8726.50 892.083  19
   6   1  -4 9396.57 514.818  22
  -6  -1   4 8925.52 863.493   2
  -6   1   4 8726.11 803.905   2
  -6   1   4 10193.8 515.615  16
  -6  -1   4 9205.91 489.643 108
  -6   1   4 9863.06 534.109 108
  -6  -1   4 9612.19 520.812 107
   6   1  -4 9818.62 534.017 104
  -6   1   4 9384.66 485.345 111
  -6  -1   4 9638.22 515.769 105
  -6   1   4 9758.58 512.197 105
   6  -1  -4 8569.32 867.730  96
   6   1  -4 10504.2 939.283  96
  -6   1   4 7881.18 719.586  92
  -6  -1   4 9534.72 521.235  90
  -6  -1   4 8236.40 459.727  91
  -6  -1   4 9424.19 864.532  92
  -6  -1   4 9222.98 881.842  31
  -6  -1   4 8378.23 785.638  28
   6   1  -4 8325.50 873.388  36
   6  -1  -4 8807.20 895.065  36
   6   1  -4 7938.17 773.777  32
   6  -1  -4 9294.66 454.197  73
   6   1  -4 9193.71 489.676  85
  -6  -1   4 9212.93 505.026  79
   6   1  -4 9763.24 497.810  82
  -6  -1   4 8013.44 852.350  87
   6   1  -4 9186.40 492.039  62
  -6  -1   4 8634.72 466.982  68
   6   1  -4 7987.25 816.044  40
   6   1  -4 8529.62 725.778  42
  -6  -1   4 9593.85 959.964  39
   6  -1  -4 9302.16 913.596  42
  -6   1   4 9608.31 508.503  47
  -6  -1   4 8000.62 849.674  45
  -6   1   4 8551.58 849.269  45
  -6  -1   3 6581.71 436.025  24
   6   1  -3 6018.57 636.942  23
   6   1  -3 7698.96 811.203  19
   6  -1  -3 6513.13 671.122  19
  -6  -1   3 5947.42 675.586   2
  -6   1   3 6223.83 628.950   2
  -6   1   3 6598.67 414.353  16
  -6   1   3 6966.96 440.414  14
  -6  -1   3 6532.18 393.574 108
  -6   1   3 6822.11 429.264 108
  -6  -1   3 7560.10 436.181 107
  -6   1   3 7317.26 446.773 107
   6   1  -3 7532.25 446.330 104
  -6   1   3 7042.93 418.541 111
  -6  -1   3 7477.55 446.085 105
  -6   1   3 7042.23 437.167 105
   6  -1  -3 7805.08 818.013  96
   6   1  -3 7441.17 803.247  96
  -6   1   3 6107.33 668.464  92
  -6  -1   3 6675.29 408.568  91
  -6  -1   3 6472.83 738.699  92
  -6  -1   3 7267.25 760.249  31
  -6  -1   3 7016.87 788.362  33
   6  -1  -3 6343.38 761.502  36
   6   1  -3 5720.03 625.541  32
  -6  -1   3 6943.94 660.356  28
   6   1  -3 6869.33 398.524  85
  -6  -1   3 6601.62 428.972  79
   6   1  -3 6826.75 422.834  83
   6   1  -3 6537.91 392.165  82
  -6  -1   3 6407.90 757.543  87
   6   1  -3 7592.00 436.470  62
  -6  -1   3 6947.95 417.816  68
   6   1  -3 6107.16 668.512  40
   6  -1  -3 6491.85 766.173  40
   6   1  -3 5663.45 561.124  42
  -6  -1   3 6582.72 777.072  39
  -6   1   3 6904.79 768.053  45
  -6  -1   2 14394.6 671.208  24
   6   1  -2 14061.6 1011.61  23
   6  -1  -2 14229.0 969.968  23
   6   1  -2 14123.6 1111.55  19
   6  -1  -2 15280.2 1051.69  19
  -6  -1   2 15173.5 680.599  25
  -6   1   2 15442.7 678.874  14
   6   1  -2 15322.5 678.176 103
  -6  -1   2 15090.4 615.314 108
  -6   1   2 15952.7 681.007 108
  -6  -1   2 14905.3 640.363 107
  -6   1   2 14666.0 664.478 107
   6   1  -2 14780.6 659.721 104
  -6   1   2 15356.1 679.865 105
  -6   1   2 13844.8 636.091 111
  -6  -1   2 15834.1 689.451 105
   6  -1  -2 14695.5 1099.60  96
  -6   1   2 14275.6 1044.38  92
  -6  -1   2 14211.9 643.577  91
  -6  -1   2 15535.1 682.395  90
  -6  -1   2 17424.6 1210.49  92
  -6  -1   2 13375.0 1025.54  31
  -6  -1   2 15739.8 1168.59  33
   6   1  -2 13881.2 1097.11  36
   6  -1  -2 15208.6 1171.42  36
   6   1  -2 12570.7 898.181  32
  -6  -1   2 14689.5 602.112  80
  -6  -1   2 14735.6 671.816  79
   6   1  -2 14664.0 614.698  85
   6   1  -2 14996.5 648.620  83
   6   1  -2 14895.2 608.734  82
   6   1  -2 16090.4 676.116  62
  -6  -1   2 14860.7 659.092  68
   6   1  -2 14441.1 989.886  40
   6  -1  -2 17085.7 1202.35  40
  -6  -1   2 14757.4 1109.95  41
  -6  -1   2 15430.1 1141.54  39
  -6   1   2 14618.5 1117.82  45
  -6   1   1 724.415 144.269  25
  -6  -1   1 661.757 147.237  25
   6   1  -1 894.506 310.581  19
   6  -1  -1 590.505 240.072  19
   6   1  -1 848.147 294.393  23
   6  -1  -1 609.884 272.259  23
   6   1  -1 736.934 271.997   1
  -6   1   1 725.804 159.651  15
  -6   1   1 804.562 157.077  14
  -6   1   1 910.389 144.458 109
   6   1  -1 827.705 164.886 103
  -6   1   1 760.367 158.429 108
  -6  -1   1 924.766 154.808 107
  -6   1   1 718.159 163.331 107
  -6   1   1 683.644 148.355 111
   6   1  -1 874.737 164.439 104
  -6   1   1 862.222 304.540  92
   6  -1  -1 548.278 253.197  96
   6   1  -1 693.361 261.641  96
  -6  -1   1 636.668 165.410  91
  -6  -1   1 652.981 262.211  31
  -6  -1   1 891.409 298.141  33
   6   1  -1 948.620 294.752  36
   6  -1  -1 689.018 279.921  36
  -6  -1   1 637.958 277.945  30
  -6  -1   1 1025.85 161.813  80
   6   1  -1 700.932 135.525  85
   6   1  -1 831.423 155.768  83
   6   1  -1 1095.59 186.957  62
  -6  -1   1 646.825 151.085  68
  -6   1   1 469.814 282.495  45
   6   1  -1 747.638 226.653  40
   6   1  -1 785.942 254.296  38
  -6  -1   1 561.527 282.752  41
  -6  -1   1 785.134 283.883  39
  -6   1   0 25847.7 925.675  24
  -6  -1   0 26186.8 975.924  24
   6   1   0 27248.8 1543.44  23
   6  -1   0 26396.8 1490.82  23
   6   1   0 25752.2 1554.67  19
   6  -1   0 26918.7 1506.27  19
  -6   1   0 27430.7 954.673  25
  -6  -1   0 26680.1 978.367  25
  -6   1   0 25438.9 971.802  15
   6   1   0 26251.7 1483.57   1
   6   1   0 26529.6 957.124 103
  -6   1   0 26375.3 948.724 108
  -6  -1   0 25340.2 884.733 107
  -6   1   0 26650.0 963.225 111
  -6   1   0 26670.5 953.560 107
   6   1   0 26551.9 935.483 104
  -6  -1   0 25992.9 965.103 105
  -6   1   0 26852.5 924.938 109
  -6   1   0 26363.4 976.652 105
   6  -1   0 26105.8 1432.59  96
  -6   1   0 25525.1 1495.26  92
   6   1   0 26260.5 1511.86  96
  -6  -1   0 27588.6 986.417  91
  -6  -1   0 29182.2 1600.70  92
  -6  -1   0 25485.8 1386.77  31
  -6  -1   0 24615.2 1457.11  33
  -6  -1   0 25715.7 1467.36  30
   6   1   0 26599.5 1491.66  36
  -6  -1   0 25713.1 931.317  80
  -6  -1   0 27536.0 996.930  79
   6   1   0 25766.1 914.266  83
   6  -1   0 26582.5 956.428  62
   6  -1   0 20500.1 1234.15  44
   6   1   0 23261.6 1199.93  40
   6   1   0 23606.7 1387.38  38
  -6  -1   0 27684.0 1595.78  41
  -6  -1   0 25352.9 1441.34  39
   6  -1   0 23800.0 1346.72  38
  -6   1   0 26994.0 1547.02  45
  -6   1  -1 36305.2 1169.65  24
  -6  -1  -1 36739.9 1237.18  24
   6   1   1 40627.6 1968.08  23
   6  -1   1 38833.3 1940.14  23
   6  -1   1 36105.8 1854.36  19
  -6   1  -1 36832.5 1215.92  25
  -6  -1  -1 36583.4 1245.67  25
   6   1   1 38559.4 1873.88   1
  -6   1  -1 37034.8 1244.57  15
   6   1   1 37826.6 1219.28 103
   6   1   1 36088.9 1175.93 104
  -6  -1  -1 37386.9 1225.26 111
  -6  -1  -1 35861.3 1229.32 105
  -6   1  -1 36913.7 1209.48 109
  -6   1  -1 37697.9 1243.99 105
   6  -1   1 37096.1 1739.12  96
   6   1   1 38501.3 1879.69  96
   6   1   1 35263.4 1688.43  94
  -6  -1  -1 37601.2 1255.27  91
  -6  -1  -1 39393.6 1934.72  92
  -6  -1  -1 35003.5 1699.73  31
  -6  -1  -1 34611.7 1749.10  33
  -6  -1  -1 34011.4 1705.31  30
   6   1   1 37334.9 1779.98  36
   6  -1   1 35945.9 1859.36  36
  -6  -1  -1 38208.6 1244.88  80
   6   1   1 38376.0 1187.51  83
   6  -1   1 38001.5 1222.42  62
   6   1   1 40174.2 1261.54  62
  -6  -1  -1 35703.8 1228.64  68
   6  -1   1 32776.2 1558.99  44
   6  -1   1 33729.7 1607.46  37
   6   1   1 36967.3 1830.70  38
  -6  -1  -1 37403.5 1949.08  41
  -6  -1  -1 33956.6 1680.45  39
   6  -1   1 36625.4 1812.60  38
  -6   1  -1 37479.1 1877.78  45
  -6  -1  -2 10648.4 568.337  25
  -6  -1  -2 11106.0 563.295  24
   6   1   2 10138.8 977.957  23
   6  -1   2 11677.6 1017.26  23
   6   1   2 11356.6 1003.08  19
   6  -1   2 10807.0 971.687  19
  -6   1  -2 11035.8 552.799  25
   6   1   2 11438.3 987.019   1
  -6   1  -2 10622.1 559.244  15
   6   1   2 10688.0 530.001 103
   6   1   2 10448.0 501.419 104
  -6   1  -2 11346.0 566.783 111
  -6  -1  -2 11337.7 551.827 111
  -6  -1  -2 11475.5 562.187 105
  -6   1  -2 11856.1 574.760 109
  -6   1  -2 10295.7 544.872 105
   6  -1   2 10980.0 866.338  96
   6   1   2 12314.6 1010.20  96
   6   1   2 11670.0 572.563  95
   6   1   2 11294.4 892.017  94
  -6  -1  -2 11767.8 1000.09  92
  -6  -1  -2 10475.1 861.721  31
  -6  -1  -2 10488.0 883.552  33
  -6  -1  -2 9393.95 810.720  30
   6   1   2 9500.78 826.248  36
   6  -1   2 12720.6 1038.30  36
  -6  -1  -2 11886.3 581.848  80
   6  -1   2 11162.2 538.872  62
   6   1   2 11269.7 561.176  62
   6   1   2 11024.0 546.611  61
   6   1   2 10830.1 982.597  38
   6  -1   2 11241.5 909.386  37
  -6   1  -2 9310.36 915.757  41
  -6  -1  -2 10861.1 844.552  39
  -6  -1  -2 10798.9 992.287  41
   6  -1   2 10956.8 961.329  38
  -6  -1  -2 11273.4 976.755  45
  -6   1  -2 10920.9 949.771  45
  -6   1  -3 31335.6 1081.92  25
  -6  -1  -3 29597.3 1095.66  25
  -6  -1  -3 28046.8 1043.12  24
   6  -1   3 31083.1 1777.79  23
   6   1   3 27952.3 1679.88  19
   6  -1   3 27687.3 1682.16  19
   6   1   3 30473.9 1731.03   1
  -6   1  -3 30821.1 1094.36  15
  -6  -1  -3 29543.9 1043.21 105
   6   1   3 28574.6 1012.79 103
  -6  -1  -3 31296.7 1057.63 111
  -6   1  -3 29741.2 1072.47 111
  -6   1  -3 31888.3 1113.40 109
  -6   1  -3 29398.2 1042.99 105
  -6  -1  -3 30426.1 1674.07  92
   6   1   3 33071.1 1697.64  96
   6  -1   3 30142.7 1036.05  95
   6   1   3 31957.5 1094.61  95
   6   1   3 28643.9 1537.90  94
  -6  -1  -3 26101.2 1455.28  31
  -6  -1  -3 28882.3 1516.35  33
  -6  -1  -3 27576.1 1409.53  30
   6   1   3 29090.8 1449.25  36
   6  -1   3 30294.4 1654.92  36
  -6  -1  -3 28045.7 968.293  78
  -6  -1  -3 29337.5 994.476  75
   6   1   3 30805.7 1094.75  88
   6   1   3 29971.8 1017.96  57
   6  -1   3 30942.2 1036.38  62
   6   1   3 30946.6 1084.36  62
   6   1   3 30688.5 1073.92  61
   6   1   3 31280.7 1754.40  38
   6  -1   3 32126.4 1692.30  37
  -6   1  -3 31220.8 1700.01  41
   6  -1   3 30582.9 1759.80  38
  -6  -1  -3 30841.9 1640.96  45
  -6   1  -3 30283.2 1615.59  45
  -6   1  -4 102574. 2786.59  25
  -6  -1  -4 100678. 2745.93  24
   6   1   4 105190. 3808.79  23
   6   1   4 95991.6 2692.24  20
   6  -1   4 103834. 3855.87  23
   6   1   4 97076.6 3683.51  19
   6  -1   4 104943. 3814.31  19
   6   1   4 102135. 3757.28   1
  -6   1  -4 104121. 2808.46  15
  -6  -1  -4 98695.3 2716.07 111
   6   1   4 99079.7 2691.37 103
  -6  -1  -4 96529.2 2695.43 105
  -6   1  -4 98235.7 2705.60 105
  -6  -1  -4 112074. 3709.08  92
   6   1   4 103499. 3618.01  96
   6  -1   4 101002. 2713.68  95
   6   1   4 105189. 2805.91  95
   6   1   4 107725. 3584.33  94
   6   1   4 103285. 2794.56  98
  -6  -1  -4 93554.4 3367.27  31
   6  -1   4 104838. 3586.55  36
  -6  -1  -4 105764. 2841.12  80
  -6  -1  -4 101812. 2708.70  78
  -6  -1  -4 100069. 2718.49  75
   6  -1   4 98017.2 2735.50  88
   6   1   4 103691. 2814.21  88
   6   1   4 98582.0 2710.40  57
   6   1   4 103631. 2768.57  63
   6  -1   4 103311. 2704.32  62
   6  -1   4 106187. 2828.97  61
   6   1   4 108005. 2820.13  61
   6   1   4 103648. 3828.10  38
  -6   1  -4 102765. 3637.99  41
  -6  -1  -4 104827. 3837.05  41
   6  -1   4 102273. 3711.12  37
   6  -1   4 104384. 3840.60  38
   6   1   4 104785. 3837.77  37
  -6  -1  -4 94698.2 3419.91  45
  -6   1  -4 95594.8 3398.07  45
  -6  -1  -5 21820.5 838.140  24
   6   1   5 22758.7 1515.04  23
   6   1   5 21625.8 1454.75  19
   6  -1   5 23454.6 1556.60  19
  -6   1  -5 23768.5 942.477 109
  -6  -1  -5 21553.0 1355.83  92
   6   1   5 21912.2 1373.20  96
   6   1   5 23090.2 903.088  95
   6  -1   5 22055.6 1505.62  94
   6   1   5 21810.6 1365.75  94
   6   1   5 22462.9 895.648  98
  -6   1  -5 22734.6 906.177  15
   6   1   5 22303.4 1513.50   1
  -6  -1  -5 22836.1 924.413  80
  -6  -1  -5 22252.0 853.712  78
   6  -1   5 22041.9 845.011  88
  -6  -1  -5 23328.9 877.209  75
   6   1   5 23587.3 917.145  88
   6   1   5 22485.0 866.726  65
   6   1   5 22604.9 852.821  57
   6  -1   5 24056.2 953.889  63
   6   1   5 22624.3 883.832  63
   6   1   5 21701.2 822.110  55
   6  -1   5 24810.2 939.348  61
   6   1   5 22881.8 909.707  61
   6   1   5 21826.2 1524.23  38
  -6   1  -5 22192.4 1383.19  41
   6  -1   5 21683.6 1492.07  37
   6  -1   5 23370.3 1594.12  38
  -6  -1  -5 21848.9 1505.77  41
   6   1   5 23317.0 1562.19  37
  -6  -1  -6 11746.5 538.925  24
   6   1   6 12563.8 1093.75  23
   6  -1   6 12831.2 1132.39  23
   6   1   6 11541.9 1030.10  19
   6   1   6 12595.6 598.243 106
  -6   1  -6 14264.7 679.449 109
   6   1   6 12266.6 982.926  96
   6   1   6 13182.8 622.622  95
   6  -1   6 12658.0 1115.68  94
   6  -1   6 13860.1 674.173  98
   6   1   6 12377.5 618.520  98
   6   1   6 12720.9 1015.65  94
  -6   1  -6 13071.7 627.426  15
   6   1   6 12734.9 1131.27   1
  -6  -1  -6 12238.7 594.365  78
   6  -1   6 11745.5 547.322  88
   6   1   6 13294.3 632.530  88
  -6  -1  -6 12787.8 605.857  75
  -6  -1  -6 11647.8 534.410  81
   6   1   6 12789.3 600.559  65
   6  -1   6 13415.0 659.533  63
   6   1   6 12833.6 613.609  63
   6  -1   6 13822.2 663.584  55
   6   1   6 12378.4 557.050  55
   6  -1   6 12980.7 634.354  61
   6  -1   6 10824.4 1058.62  37
   6  -1   6 12275.1 1146.67  38
  -6  -1  -6 14214.0 1165.85  41
   6   1   6 11135.8 1082.15  37
   6   1   7 18929.8 1285.84  23
   6  -1   7 18247.4 1310.22  23
   6   1   7 18724.7 753.999 106
  -6  -1  -7 19590.6 807.006 109
  -6   1  -7 19838.8 820.975 109
   6   1   7 19397.0 771.611  95
   6  -1   7 20274.1 836.113  98
   6  -1   7 17719.1 1310.85  94
   6   1   7 19203.8 797.258  98
   6   1   7 20069.1 1271.28  94
  -6   1  -7 20030.5 791.876  15
  -6  -1  -7 18657.1 772.951  78
   6   1   7 20244.7 793.522  88
  -6  -1  -7 19195.5 716.905  81
   6  -1   7 18688.6 820.123  65
   6   1   7 19001.1 767.021  65
   6  -1   7 20097.1 833.431  63
   6   1   7 19944.1 793.067  63
   6  -1   7 19556.3 806.087  60
   6  -1   7 20301.9 827.996  55
   6   1   7 18461.0 705.973  55
   6  -1   7 19683.6 778.080  58
  -6  -1  -7 18694.5 1324.27  41
   6  -1   8 9003.61 492.906 106
   6   1   8 9220.30 450.775 106
  -6  -1  -8 8838.33 463.435 109
  -6   1  -8 8307.21 464.451 109
   6   1   8 8589.41 451.751  97
   6  -1   8 9148.37 489.887  98
   6   1   8 8722.11 473.019  98
   6  -1   8 8057.30 816.474  94
   6   1   8 7888.06 745.374  94
  -6   1  -8 8837.87 449.589  15
  -6  -1  -8 8781.84 463.519  78
  -6  -1  -8 8152.91 404.630  81
   6  -1   8 9130.70 498.409  65
   6  -1   8 9198.67 492.503  63
   6   1   8 8946.23 465.339  63
   6  -1   8 8871.74 478.132  55
   6  -1   8 8587.74 465.485  60
   6  -1   8 8738.88 445.117  58
   6  -1   8 8186.71 792.968  23
   6  -1   9 13666.3 581.045 106
   6   1   9 13303.2 526.030 106
  -6  -1  -9 12660.5 515.462 109
  -6   1  -9 12503.1 537.245 109
  -6   1  -9 12836.8 502.708  15
   6  -1   9 13620.5 576.708  65
   6  -1   9 13650.6 571.242  63
   6  -1   9 13596.0 550.049  60
   6  -1   9 12647.4 504.105  66
   6   1   9 12089.5 506.104  97
   6  -1   9 13948.1 576.355  98
   6   1   9 13481.9 565.650  98
   6  -1   9 13566.0 971.823  94
  -6   1  -9 12995.9 529.404  25
   6  -1  10 296.998 84.8635  98
   6   1  10 437.076 98.5397  98
  -6   1 -10 353.196 88.6637 100
  -6  -1 -10 372.403 101.146  25
  -6   1 -10 436.506 82.7634 109
   6  -1  10 332.774 93.6573 106
   6   1  10 392.363 81.5318 106
  -6  -1 -11 8548.51 310.827  25
   6   2 -12 8825.50 315.629  26
   6  -2 -11 876.978 119.782  73
   6  -2 -11 916.317 121.109  85
   6   2 -11 793.570 117.787  85
   6  -2 -11 882.523 126.096  82
  -6  -2  11 928.345 130.481 108
  -6  -2  11 867.910 126.643 107
   6   2 -11 885.625 106.288 110
  -6   2  11 923.385 118.920  47
  -6   2  11 861.934 129.142   6
  -6   2  10 5682.35 310.255   7
  -6   2  10 6395.22 364.697   6
  -6   2  10 5174.37 295.158   3
  -6  -2  10 5788.91 343.574 108
  -6   2  10 4918.49 292.780 108
   6   2 -10 5643.90 308.672 110
   6  -2 -10 5068.96 319.075  73
   6   2 -10 5412.24 331.874  85
   6   2 -10 4778.62 289.069  83
   6  -2 -10 4749.18 286.422  72
  -6   2  10 5452.93 327.475  47
   6   2  -9 11934.9 527.304  21
  -6   2   9 13264.6 598.189   6
  -6   2   9 11109.8 497.118  16
  -6  -2   9 13171.2 588.141 108
  -6   2   9 11732.4 546.944 108
   6   2  -9 12362.4 530.297 110
   6   2  -9 11923.2 522.709 104
  -6  -2   9 11667.8 537.341  90
   6  -2  -9 11454.0 1005.76  29
  -6  -2   9 10491.2 970.387  28
   6  -2  -9 12404.1 561.226  73
   6   2  -9 11469.1 537.143  83
   6  -2  -9 12049.5 515.302  72
   6  -2  -9 12006.1 931.167  71
  -6   2   9 12102.8 563.630  47
   6   2  -8 19061.7 765.325  21
  -6   2   8 20340.8 788.547   5
  -6   2   8 18445.1 740.319  16
  -6  -2   8 19983.8 797.358 108
   6   2  -8 17518.8 705.078 103
  -6   2   8 18548.3 778.465 108
  -6   2   8 18060.2 717.472 107
   6   2  -8 21186.6 787.411 104
   6   2  -8 19655.1 734.988 110
  -6  -2   8 18490.5 772.727  90
  -6  -2   8 18638.9 1347.78  28
   6  -2  -8 15618.9 1300.27  29
   6  -2  -8 16728.2 1302.52  32
  -6  -2   8 16322.4 696.477  79
   6   2  -8 19119.2 794.529  85
   6   2  -8 19433.6 781.809  83
  -6  -2   8 16354.5 1264.82  89
   6   2  -8 20115.7 811.724  82
   6  -2  -8 18708.3 759.014  73
   6  -2  -8 17630.6 695.406  72
   6  -2  -8 19056.3 1231.67  71
  -6   2   8 20404.2 802.939  47
  -6   2   7 7156.22 449.206   5
  -6   2   7 6718.04 424.019  16
  -6  -2   7 6622.72 427.259 108
   6   2  -7 7034.83 423.999 103
  -6   2   7 6864.64 450.818 108
  -6   2   7 6178.46 411.319 107
   6   2  -7 6517.07 430.247 104
   6   2  -7 6698.71 395.108 110
   6   2  -7 6027.67 644.562  96
  -6  -2   7 7051.08 453.797  90
  -6  -2   7 5259.39 355.197  91
  -6  -2   7 5368.05 730.396  28
   6  -2  -7 6865.16 834.475  32
  -6  -2   7 6262.98 411.318  79
   6   2  -7 7693.77 466.674  85
   6   2  -7 7293.23 457.307  83
  -6  -2   7 5234.62 732.974  89
   6   2  -7 7189.33 451.976  82
   6  -2  -7 7136.87 423.648  73
   6  -2  -7 6309.21 708.839  71
   6  -2  -7 5878.23 765.682  40
  -6   2   7 6974.26 448.797  47
   6   2  -7 6151.78 760.097  40
   6   2  -6 42838.5 1358.50  20
   6   2  -6 44618.2 1462.06  22
  -6  -2   6 41532.1 2184.94   2
  -6   2   6 40017.1 2044.47   2
  -6   2   6 44278.2 1462.44   5
  -6   2   6 42235.0 1426.12  16
  -6  -2   6 46290.6 1436.37 108
  -6   2   6 43704.7 1367.62 105
   6   2  -6 45753.6 1444.25 103
  -6   2   6 43902.1 1467.13 108
  -6   2   6 43709.3 1433.31 107
   6   2  -6 48452.3 1491.11 104
  -6   2   6 42062.4 1348.83 112
  -6  -2   6 45632.8 1385.64 105
   6   2  -6 45680.2 2041.77  96
  -6  -2   6 47067.1 1495.34  90
  -6  -2   6 43167.0 2045.82  92
  -6  -2   6 43574.8 2193.49  28
   6   2  -6 41779.0 2220.35  36
  -6  -2   6 40678.6 2114.75  35
   6  -2  -6 43806.0 2275.26  32
  -6  -2   6 44021.2 2279.50  31
  -6  -2   6 44185.6 1445.17  79
   6   2  -6 47188.7 1483.47  85
   6   2  -6 45758.0 1470.62  83
  -6  -2   6 45300.8 2216.73  89
   6   2  -6 45182.9 1465.48  82
   6  -2  -6 44610.9 1385.69  73
  -6  -2   6 39117.5 2109.59  87
   6  -2  -6 41407.8 1929.09  71
   6  -2  -6 45639.1 2279.89  40
  -6  -2   6 43414.5 2290.88  39
  -6   2   6 44880.5 1462.95  47
   6   2  -6 43006.8 2104.98  40
  -6  -2   5 28039.8 1045.00  24
   6   2  -5 27888.3 1019.95  20
  -6  -2   5 30008.2 1698.94  28
   6   2  -5 28250.7 1068.21  22
  -6  -2   5 28597.0 1737.32   2
  -6   2   5 28203.5 1576.01   2
  -6   2   5 28983.6 1075.24   5
  -6   2   5 31143.7 1085.82  16
  -6   2   5 30026.1 1044.98 105
  -6  -2   5 28332.2 1012.15 108
   6   2  -5 30270.0 1071.98 103
  -6   2   5 28951.0 1087.12 108
  -6   2   5 28356.1 1063.12 107
   6   2  -5 30319.2 1093.07 104
  -6   2   5 27017.9 983.201 112
  -6  -2   5 29110.3 1041.26 105
   6   2  -5 29143.9 1596.65  96
  -6  -2   5 27512.8 1626.28  92
  -6  -2   5 26023.6 1693.61  31
   6   2  -5 31199.8 1821.98  36
   6  -2  -5 28618.3 1638.69  36
  -6  -2   5 26619.6 1592.79  35
  -6  -2   5 29643.8 1083.47  79
   6   2  -5 29076.8 1064.75  85
  -6  -2   5 29858.5 1699.09  89
   6   2  -5 28117.3 1054.45  82
   6  -2  -5 28277.0 974.541  73
  -6  -2   5 31428.9 1793.18  87
   6   2  -5 27373.9 945.235  62
  -6  -2   5 27640.6 998.929  68
   6  -2  -5 28710.7 1742.85  40
  -6  -2   5 28683.6 1785.21  39
  -6   2   5 29848.7 1080.92  47
  -6   2   5 28445.6 1604.50  45
   6   2  -5 27335.7 1573.70  40
  -6  -2   4 20567.9 846.783  24
   6   2  -4 17677.1 1152.05  23
   6   2  -4 19011.7 808.175  20
  -6  -2   4 19099.9 1299.94  28
   6   2  -4 19766.0 838.966  22
  -6   2   4 18810.1 1186.18   2
  -6   2   4 19448.9 831.549  16
  -6   2   4 20391.5 827.981 105
  -6  -2   4 20208.8 773.591 108
   6   2  -4 19449.4 824.427 103
  -6   2   4 19834.2 847.689 108
  -6   2   4 21595.5 860.572 107
  -6   2   4 19525.9 779.481 112
  -6  -2   4 20074.4 827.651 105
   6   2  -4 21354.4 1366.40  96
  -6  -2   4 19997.6 1365.19  92
  -6  -2   4 20109.8 1427.18  31
   6  -2  -4 19646.6 1353.98  36
  -6  -2   4 17876.3 1222.86  35
  -6  -2   4 21041.1 864.294  79
   6   2  -4 21043.8 834.204  85
  -6  -2   4 21247.5 1355.84  89
  -6  -2   4 17645.3 1334.90  87
   6   2  -4 19153.8 752.588  62
  -6  -2   4 19737.7 802.517  68
   6  -2  -4 20181.4 1414.95  40
  -6   2   4 19672.5 829.815  47
  -6   2   4 19756.8 1350.20  45
   6   2  -4 19420.9 1236.69  40
  -6  -2   3 40689.4 1365.26  24
   6   2  -3 40319.7 1896.62  23
   6   2  -3 40786.7 1360.59  20
   6   2  -3 38861.6 2055.88  19
  -6  -2   3 38960.3 1885.38  28
  -6   2   3 40133.9 1354.16  16
  -6   2   3 39091.6 1352.91  14
  -6   2   3 40309.2 1358.96 105
   6   2  -3 42419.4 1369.52 103
  -6  -2   3 40042.6 1304.90 107
  -6   2   3 42016.0 1370.18 107
   6   2  -3 42458.4 1375.42 104
  -6   2   3 40858.8 1304.63 112
  -6   2   3 37756.9 1253.01 111
  -6  -2   3 39968.6 1353.33 105
   6  -2  -3 42949.2 2026.40  96
   6   2  -3 41389.3 2006.02  96
  -6  -2   3 42525.3 1381.48  90
  -6  -2   3 40247.0 1348.32  91
  -6  -2   3 41120.4 2061.51  92
  -6  -2   3 37047.0 2010.87  31
   6   2  -3 43073.8 2134.03  36
   6  -2  -3 38398.9 2008.75  36
  -6  -2   3 40997.2 1376.53  79
   6   2  -3 40764.3 1329.41  85
   6   2  -3 42395.3 1364.65  83
  -6  -2   3 38486.4 1885.54  89
   6   2  -3 42475.6 1304.93  62
  -6  -2   3 42037.0 1353.77  68
   6  -2  -3 41229.9 2096.84  40
  -6  -2   3 40253.7 2131.94  39
  -6   2   3 39698.6 2029.53  45
   6   2  -3 35788.9 1713.33  40
  -6  -2   2 66560.2 2004.39  24
   6   2  -2 63861.0 2668.00  23
   6   2  -2 68209.6 2008.24  20
   6   2  -2 68896.6 2868.94  19
  -6  -2   2 66064.4 2537.32  28
   6   2  -2 65621.1 1984.16  22
  -6   2   2 70587.7 2014.51  16
  -6   2   2 65362.0 1991.68  14
  -6   2   2 67602.1 2008.37 105
  -6   2   2 66645.5 1996.78 108
  -6  -2   2 67993.4 1916.14 107
   6   2  -2 69465.9 2005.38 104
  -6   2   2 66528.6 1944.49 112
  -6   2   2 66260.2 1929.81 111
  -6  -2   2 68667.6 2015.40 105
   6  -2  -2 67447.8 2666.53  96
   6   2  -2 69645.2 2779.84  96
  -6  -2   2 67367.7 2005.94  91
   6   2  -2 65535.5 1932.42  95
  -6  -2   2 66849.7 1994.17  90
  -6  -2   2 73594.5 2926.08  92
  -6  -2   2 70480.8 2854.11  31
  -6  -2   2 65252.5 2853.57  33
  -6  -2   2 70346.3 2922.95  30
   6   2  -2 68448.2 2807.11  36
   6  -2  -2 67272.9 2832.62  36
   6   2  -2 66060.5 1947.75  85
   6   2  -2 69253.6 1993.22  83
  -6  -2   2 64166.3 2803.93  87
   6   2  -2 67333.8 1947.91  62
  -6  -2   2 68533.3 1998.87  68
  -6  -2   2 64861.8 2656.89  41
  -6  -2   2 72217.6 2965.67  39
  -6   2   2 68989.0 2835.78  45
  -6  -2   1 23206.4 930.442  24
   6   2  -1 23020.1 1458.22  23
   6   2  -1 23928.3 935.057  20
   6  -2  -1 22320.3 1357.62  23
  -6  -2   1 22354.7 1243.29  28
   6   2  -1 23264.3 908.215  22
   6  -2  -1 21280.0 1268.75  19
  -6  -2   1 24569.1 922.321  25
   6   2  -1 22012.1 1455.59   1
  -6   2   1 23169.3 922.503  14
  -6   2   1 23649.3 938.101 105
   6   2  -1 24390.7 927.996 103
   6   2  -1 24503.3 921.865 104
  -6   2   1 22355.9 871.854 111
  -6  -2   1 24411.4 944.030 105
   6  -2  -1 22310.7 1340.91  96
   6   2  -1 22202.0 1423.48  96
   6   2  -1 23292.9 890.049  95
  -6  -2   1 23023.7 928.117  91
  -6  -2   1 24550.0 925.430  90
  -6  -2   1 24056.4 1492.36  31
  -6  -2   1 23371.8 1545.58  33
  -6  -2   1 22952.5 1490.22  30
   6   2  -1 23567.7 1446.45  36
   6  -2  -1 24207.2 1545.12  36
  -6  -2   1 24484.2 952.346  79
   6   2  -1 23026.9 893.903  83
   6   2  -1 23839.2 880.869  88
  -6  -2   1 24861.8 1546.40  87
   6   2  -1 23241.1 887.347  62
  -6  -2   1 24538.7 939.360  68
   6  -2  -1 23076.6 1436.46  44
  -6  -2   1 24044.2 1457.85  41
  -6  -2   1 21536.3 1480.58  39
  -6   2   1 22013.6 1472.99  45
  -6  -2   0 53536.4 1669.53  24
   6   2   0 54402.2 2426.62  23
   6  -2   0 51699.2 2310.38  23
   6   2   0 51113.8 2395.93  19
   6   2   0 51507.8 1608.63  22
   6  -2   0 49272.0 2193.22  19
  -6   2   0 50407.7 1528.98  25
  -6  -2   0 53103.6 1636.65  25
  -6   2   0 48767.6 1622.90  11
   6   2   0 53310.0 2442.62   1
  -6   2   0 53835.1 1655.05  14
  -6   2   0 52907.3 1655.78 105
   6   2   0 54443.5 1641.38 103
   6   2   0 54641.5 1571.61 102
  -6   2   0 54338.9 1628.25 111
   6   2   0 52610.7 1620.66 104
  -6  -2   0 52255.6 1648.75 105
  -6   2   0 51943.7 1573.28 109
   6  -2   0 53520.2 2157.83  96
   6   2   0 51413.9 1606.52  95
  -6  -2   0 55736.1 2486.65  92
  -6  -2   0 50380.3 2327.97  31
  -6  -2   0 56979.1 2491.18  33
  -6  -2   0 48656.2 2327.48  30
   6   2   0 51193.1 2247.68  36
   6  -2   0 54629.2 2499.87  36
  -6  -2   0 54353.8 1672.20  79
   6   2   0 54465.1 1624.08  83
   6   2   0 54202.5 1615.15  88
   6   2   0 54471.3 1628.14  62
   6   2   0 51428.2 1509.99  61
  -6  -2   0 53762.8 1662.99  68
   6  -2   0 45965.3 2184.85  44
  -6  -2   0 52560.9 2375.55  41
  -6  -2   0 52765.9 2405.36  39
   6  -2   0 51705.2 2220.24  38
  -6   2   0 53123.2 2419.86  45
   6   2   1 17923.0 1300.20  23
   6   2   1 16972.1 753.010  20
   6  -2   1 17955.1 1290.55  23
   6   2   1 19468.5 1351.77  19
   6  -2   1 16341.1 1171.51  19
  -6   2  -1 17572.8 690.159  25
  -6  -2  -1 17321.9 757.479  25
  -6   2  -1 16595.0 751.882  11
  -6   2  -1 16007.6 754.215   9
  -6   2  -1 18507.5 791.909  15
   6   2   1 16768.7 1287.03   1
  -6   2  -1 17620.9 775.142 105
   6   2   1 17676.1 752.488 103
   6   2   1 17329.0 740.514 104
   6   2   1 16978.1 675.687 102
  -6  -2  -1 17564.4 766.721 105
  -6   2  -1 18192.6 749.944 109
   6   2   1 17374.2 746.729  95
  -6  -2  -1 18485.7 800.220  91
  -6  -2  -1 16007.3 1226.10  92
  -6  -2  -1 17424.5 1258.57  31
  -6  -2  -1 17709.1 1295.41  33
  -6  -2  -1 17140.4 1252.45  30
   6   2   1 16897.2 1131.26  36
  -6  -2  -1 18124.1 783.827  79
   6   2   1 17165.1 735.475  88
   6  -2   1 17640.2 719.532  62
   6   2   1 18237.1 762.003  62
   6   2   1 17537.3 689.569  61
  -6  -2  -1 18509.4 787.108  68
   6   2   1 17751.8 1270.24  38
  -6  -2  -1 20091.0 1369.47  41
  -6  -2  -1 15817.9 1210.20  39
   6  -2   1 15982.0 1184.70  38
  -6   2  -1 18784.1 1316.58  45
   6  -2   2 3686.24 586.553  19
  -6  -2  -2 4346.83 361.508  24
   6   2   2 4493.43 669.400  23
   6   2   2 4356.29 346.654  20
   6  -2   2 3527.26 601.512  23
   6   2   2 4357.93 636.648  19
  -6   2  -2 3757.54 291.913  25
  -6  -2  -2 4164.05 348.684  25
   6   2   2 4547.52 665.885   1
  -6   2  -2 3820.08 333.145  11
  -6   2  -2 4227.04 354.674   9
  -6   2  -2 4362.57 365.615  15
  -6   2  -2 4259.31 346.868 105
   6   2   2 4670.35 352.834 103
  -6  -2  -2 4041.50 319.139 111
   6   2   2 4656.63 341.462 104
  -6  -2  -2 4482.68 354.252 105
  -6   2  -2 4432.86 356.153 109
   6   2   2 4020.23 619.893  96
  -6  -2  -2 3830.74 621.361  92
   6   2   2 4298.88 349.468  95
  -6  -2  -2 4134.84 366.096  91
  -6  -2  -2 3469.97 565.379  31
  -6  -2  -2 3696.29 587.192  33
  -6  -2  -2 4743.04 658.713  30
   6  -2   2 3579.65 610.628  36
  -6  -2  -2 4020.96 349.601  80
  -6  -2  -2 4270.26 309.132  75
   6   2   2 4581.22 345.855  88
   6  -2   2 4368.55 309.751  62
   6   2   2 4610.30 324.706  61
  -6  -2  -2 3858.84 285.900  69
  -6  -2  -2 4279.61 357.272  68
  -6   2  -2 3428.66 574.658  45
   6   2   2 3862.39 620.595  38
  -6  -2  -2 4061.82 663.709  41
  -6  -2  -2 3902.31 572.651  39
   6  -2   2 4681.68 683.114  38
  -6  -2  -3 39437.4 1324.98  25
  -6  -2  -3 38591.6 1318.51  24
   6   2   3 36750.1 1255.36  20
   6  -2   3 39688.7 2125.08  23
   6   2   3 35261.1 1927.84  19
   6  -2   3 37206.7 1984.94  19
  -6   2  -3 37732.6 1209.08  25
   6   2   3 37485.3 2060.64   1
  -6   2  -3 35470.0 1243.81  11
  -6   2  -3 37179.0 1306.03   9
  -6   2  -3 39878.9 1346.44  15
  -6   2  -3 38927.4 1280.62 105
   6   2   3 38293.9 1275.57 103
  -6  -2  -3 37901.1 1220.16 111
   6   2   3 41787.1 1279.90 104
  -6  -2  -3 38658.3 1277.78 105
  -6   2  -3 39202.4 1322.88 109
   6   2   3 40059.7 2018.92  96
   6  -2   3 41069.3 2071.73  94
   6   2   3 37144.6 1200.60  98
  -6  -2  -3 39212.3 1968.47  92
  -6  -2  -3 38832.4 1980.89  31
  -6  -2  -3 34130.5 1883.37  33
  -6  -2  -3 38045.7 1875.08  30
   6  -2   3 37546.5 2002.34  36
  -6  -2  -3 38426.8 1247.39  75
   6   2   3 41237.9 1325.14  88
   6   2   3 41821.9 1279.35  61
  -6  -2  -3 38578.3 1229.26  69
   6   2   3 37053.3 2034.28  38
  -6  -2  -3 39216.4 2098.76  41
  -6  -2  -3 33828.2 1773.82  39
   6  -2   3 34296.1 1825.32  37
   6  -2   3 38990.3 2072.43  38
  -6   2  -3 36370.2 1879.82  45
  -6  -2  -4 78812.5 2313.05  25
  -6  -2  -4 78048.6 2293.96  24
   6   2   4 77265.7 2950.38  18
   6   2   4 79084.5 2213.45  20
   6   2   4 85785.2 3324.68  23
   6  -2   4 79712.6 3293.18  23
   6   2   4 79637.5 3102.34  19
   6  -2   4 80031.8 3232.22  19
  -6   2  -4 77050.8 2185.36  25
   6   2   4 84303.1 3338.32   1
  -6   2  -4 80202.2 2300.02   9
  -6   2  -4 82601.1 2356.69  15
  -6   2  -4 77332.6 2225.50 105
   6   2   4 81207.5 2261.69 103
   6   2   4 82898.5 2231.06 104
  -6  -2  -4 78203.8 2221.17 105
  -6   2  -4 86051.5 2378.81 109
  -6  -2  -4 84903.8 3096.36  92
   6   2   4 86320.8 3218.37  96
   6   2   4 80641.2 2305.16  95
   6  -2   4 83716.4 3252.08  94
   6   2   4 79427.7 2214.49  98
  -6  -2  -4 73013.6 3034.98  31
  -6  -2  -4 77517.4 3068.47  33
  -6  -2  -4 76528.1 2880.31  30
   6  -2   4 81650.8 3176.14  36
  -6  -2  -4 84197.8 2355.84  80
  -6  -2  -4 78355.1 2230.44  78
  -6  -2  -4 77866.0 2247.98  75
   6  -2   4 83589.6 2349.03  57
   6   2   4 78164.2 2172.73  63
   6  -2   4 81348.7 2296.68  61
   6   2   4 79308.0 3262.75  38
  -6  -2  -4 79715.5 3309.29  41
   6  -2   4 74910.8 3227.10  38
   6  -2   4 75368.5 3069.53  37
  -6  -2  -5 31846.4 1147.71  25
  -6  -2  -5 31615.4 1117.68  24
   6   2   5 30290.0 1762.13  23
   6   2   5 28191.3 1632.98  19
   6  -2   5 27332.0 1751.10  19
  -6   2  -5 29484.4 1024.51  25
   6   2   5 33043.7 1905.06   1
  -6   2  -5 29095.3 1084.59   9
  -6   2  -5 34130.7 1192.15  15
   6   2   5 32195.2 1079.96 103
  -6  -2  -5 31512.9 1607.96  92
   6   2   5 32431.1 1760.80  96
  -6   2  -5 32250.1 1057.78 100
   6   2   5 31351.1 1128.54  95
   6  -2   5 31439.9 1814.16  94
   6   2   5 31904.7 1074.20  98
  -6  -2  -5 31645.7 1745.43  31
   6  -2   5 27567.7 1646.35  36
  -6  -2  -5 33083.8 1171.91  80
  -6  -2  -5 31761.4 1096.31  78
  -6  -2  -5 31465.0 1104.57  75
   6   2   5 32897.9 1156.37  88
   6  -2   5 32702.7 1163.04  57
   6  -2   5 32251.9 1160.88  63
   6   2   5 30313.0 1029.33  63
   6  -2   5 33686.7 1127.14  61
  -6   2  -5 30562.2 1069.91  52
   6  -2   5 27348.6 1794.71  38
   6  -2   5 28942.4 1742.76  37
  -6   2  -6 11789.7 525.377  25
  -6  -2  -6 11342.2 558.354  24
   6   2   6 11126.7 1000.74  23
   6  -2   6 12032.3 1085.04  23
   6   2   6 11863.7 532.446 103
  -6   2  -6 12659.6 638.706 109
   6  -2   6 11529.3 934.991  89
   6   2   6 13132.8 1037.52  96
  -6   2  -6 13145.5 575.750 100
   6   2   6 12329.7 602.709  95
   6  -2   6 11869.3 1051.26  94
   6  -2   6 11833.7 608.173  98
   6   2   6 12336.7 570.312  98
  -6   2  -6 11304.6 546.008   9
  -6   2  -6 12701.4 632.711  15
  -6  -2  -6 12261.3 612.015  80
  -6  -2  -6 12409.8 588.697  78
  -6  -2  -6 12645.3 602.481  75
   6   2   6 12409.3 613.462  88
  -6  -2  -6 11506.6 527.794  81
  -6  -2  -6 9934.70 493.869  74
   6  -2   6 12928.4 626.282  57
   6  -2   6 12404.2 614.374  63
   6   2   6 11727.2 533.159  63
   6  -2   6 12575.6 627.226  55
   6  -2   6 12331.6 572.229  61
  -6   2  -6 11206.9 527.813  52
  -6  -2  -6 11273.9 1072.19  41
   6  -2   7 11900.5 590.127 106
  -6   2  -7 12928.5 615.282 109
  -6   2  -7 12739.8 560.009 100
   6  -2   7 12167.7 579.780  98
   6  -2   7 10928.6 962.255  94
   6   2   7 12735.8 558.705  98
  -6   2  -7 12432.3 599.469  15
  -6  -2  -7 11307.5 500.628  74
  -6  -2  -7 11703.5 559.066  78
  -6  -2  -7 11858.5 573.733  75
  -6  -2  -7 11738.5 519.778  81
   6  -2   7 12714.3 608.154  65
   6  -2   7 12318.2 588.298  63
   6  -2   7 12477.2 601.748  55
   6  -2   7 12103.0 588.030  58
  -6  -2  -7 11461.9 517.372  24
   6   2   7 11644.9 937.074  23
   6  -2   7 11287.0 1005.45  23
  -6  -2  -8 77.5203 93.2416 109
  -6   2  -8 113.672 108.398 109
   6  -2   8 150.636 108.746 106
   6  -2   8 147.599 101.056  98
   6   2   8 172.729 96.0909  98
   6   2   8 60.7825 84.7967  97
   6  -2   8 42.5177 166.218  94
  -6   2  -8 88.1433 84.1904 100
  -6   2  -8 162.107 107.021  15
  -6  -2  -8 70.4632 100.794  78
  -6  -2  -8 83.5061 79.6476  81
   6  -2   8 256.531 103.849  58
   6  -2   8 127.599 96.3243  65
   6  -2   8 84.5213 90.0359  63
   6  -2   8 110.171 85.1797  56
   6  -2   8 39.0106 82.5670  55
   6  -2   8 91.2582 109.756  60
  -6  -2  -8 50.9666 101.880  25
  -6   2  -9 6278.33 330.442 109
   6  -2   9 6205.16 336.277 106
  -6  -2  -9 5549.94 282.479 109
   6   2   9 6288.48 324.335  97
  -6   2  -9 6423.36 321.894 100
   6  -2   9 6281.59 299.900  99
   6  -2   9 6054.80 304.785  98
   6   2   9 6336.06 315.525  98
  -6   2  -9 6542.15 332.711  15
  -6  -2  -9 6009.50 323.181  78
   6  -2   9 6342.90 330.458  58
   6  -2   9 6088.96 330.313  65
   6  -2   9 6302.00 322.506  63
   6  -2   9 5947.41 332.564  60
  -6  -2  -9 6336.96 336.482  25
   6  -2  10 1272.00 120.229 106
   6   2  10 1166.31 107.530  98
  -6   2 -10 1030.08 101.058  15
  -6   2 -10 1376.29 131.316  51
   6  -2  10 1152.27 106.321  66
  -6  -2 -10 1365.31 125.901  25
   6  -3 -10 3047.65 179.353  85
  -6  -3  10 3476.80 215.201 108
  -6  -3  10 3363.25 230.585 107
   6   3 -10 3104.31 197.026 110
  -6   3  10 3376.65 218.326   6
  -6   3  10 3134.20 200.589   3
  -6  -3  10 2842.57 191.529  90
  -6   3   9 43291.5 1233.17   6
  -6   3   9 42069.5 1239.14   3
  -6  -3   9 42673.6 1216.14 108
  -6  -3   9 41967.9 1257.70 107
   6   3  -9 39849.7 1189.08 110
  -6  -3   9 38844.1 1219.77  90
   6  -3  -9 39998.2 1189.00  73
   6   3  -9 41738.7 1239.36  85
   6   3  -9 39997.6 1209.91  21
  -6   3   9 40638.7 1248.43  47
  -6   3   8 873.854 156.861   6
  -6   3   8 936.863 167.091  16
  -6  -3   8 1025.26 161.010 108
  -6   3   8 693.297 133.030 112
   6   3  -8 928.540 150.348 110
   6   3  -8 934.627 140.522 104
  -6  -3   8 939.658 182.846  90
   6  -3  -8 525.939 246.429  29
   6   3  -8 614.205 142.544  85
  -6  -3   8 945.034 166.207  79
   6   3  -8 752.394 133.171  83
   6  -3  -8 992.741 148.049  73
   6   3  -8 919.106 168.302  21
  -6   3   8 980.895 176.750  47
  -6   3   7 35906.0 1139.28   6
  -6   3   7 36283.0 1198.06   5
  -6   3   7 35463.9 1183.66  16
  -6  -3   7 34709.0 1113.80 108
   6   3  -7 33027.9 1060.51 103
   6   3  -7 34909.4 1131.81 104
  -6   3   7 33860.7 1115.35 112
   6   3  -7 32909.2 1104.09 110
  -6  -3   7 36411.9 1212.16  90
  -6  -3   7 35013.2 1887.67  28
   6  -3  -7 33097.4 1821.13  29
   6  -3  -7 32361.3 1777.66  32
  -6  -3   7 34621.4 1177.06  79
   6   3  -7 35082.3 1146.32  83
   6  -3  -7 34739.8 1098.85  73
  -6   3   7 35702.2 1197.06  47
   6   3  -7 35094.9 1195.79  21
   6   3  -6 25303.5 887.366  20
  -6   3   6 26195.0 916.313   6
  -6   3   6 26780.3 997.241   5
  -6   3   6 26023.2 981.725  16
  -6  -3   6 27019.4 906.018 108
  -6   3   6 25410.9 901.085 105
   6   3  -6 25250.8 907.674 103
   6   3  -6 27109.8 962.296 104
  -6   3   6 25712.6 935.303 112
   6   3  -6 25547.8 909.678 110
  -6  -3   6 24924.2 895.281 105
  -6  -3   6 23179.4 1450.89  92
  -6  -3   6 24503.1 1579.29  28
   6  -3  -6 25419.4 1573.33  32
  -6  -3   6 27184.1 1008.93  79
   6   3  -6 24648.5 965.761  85
   6   3  -6 25807.2 950.916  83
  -6  -3   6 23129.5 1484.28  89
  -6   3   6 25230.6 883.628  54
  -6  -3   6 25629.5 902.640  68
   6  -3  -6 25538.8 1559.69  40
  -6  -3   5 66562.9 1961.15  24
   6   3  -5 69252.4 1994.43  20
   6   3  -5 70869.2 2079.54  22
  -6  -3   5 67853.5 2876.26  28
  -6   3   5 68552.2 1922.44   6
  -6   3   5 69660.7 2068.32  16
  -6   3   5 68985.1 2009.66 105
   6   3  -5 71424.6 2008.03 103
   6   3  -5 71110.6 2044.14 104
  -6   3   5 71817.0 2025.35 112
  -6  -3   5 70335.0 2014.87 105
   6   3  -5 65239.9 1931.31 110
  -6  -3   5 72634.4 2098.96  90
  -6  -3   5 68508.3 2864.20  92
   6  -3  -5 71077.2 2939.68  32
  -6  -3   5 70816.2 2089.51  79
   6   3  -5 69087.5 2052.55  85
   6   3  -5 68573.7 2026.68  83
  -6  -3   5 68654.1 2760.00  89
  -6   3   5 68433.8 1988.41  54
  -6  -3   5 68008.7 1998.56  68
   6  -3  -5 66872.8 2865.24  40
  -6  -3   5 64985.8 2964.49  39
  -6  -3   4 32874.7 1150.11  24
   6   3  -4 32899.9 1830.28  18
   6   3  -4 35682.6 1189.49  20
  -6  -3   4 31115.5 1792.73  28
  -6   3   4 33247.7 1186.87   5
  -6   3   4 33598.5 1199.92  16
  -6   3   4 33728.6 1189.14 105
   6   3  -4 32983.1 1156.77 103
   6   3  -4 35368.4 1203.62 104
  -6   3   4 33693.7 1167.23 112
  -6  -3   4 36176.9 1210.40 105
   6   3  -4 31174.0 1617.13  96
  -6  -3   4 34877.2 1218.80  90
  -6  -3   4 34268.6 1908.32  92
  -6  -3   4 29231.5 1856.33  31
  -6  -3   4 31163.1 1914.91  33
   6   3  -4 30736.1 1864.24  36
   6  -3  -4 31909.9 1757.10  36
  -6  -3   4 29719.3 1724.95  35
   6   3  -4 32681.4 1173.95  83
  -6  -3   4 31608.1 1689.71  89
  -6   3   4 33805.6 1171.59  54
  -6  -3   4 32828.0 1174.94  68
   6  -3  -4 32199.7 1870.69  40
   6  -3  -4 34728.2 1937.45  42
  -6  -3   4 32152.7 1928.80  39
  -6   3   4 32025.9 1806.29  45
  -6  -3   3 7943.49 477.340  24
   6   3  -3 6741.60 817.394  18
   6   3  -3 7454.63 474.148  20
   6   3  -3 7191.88 468.775  22
  -6  -3   3 6621.07 773.803  28
  -6   3   3 7513.12 463.971   5
  -6   3   3 8251.62 505.843 105
  -6  -3   3 6789.59 408.817 107
   6   3  -3 7259.75 463.660 103
   6   3  -3 8134.07 490.906 104
  -6   3   3 7553.51 474.421 112
  -6  -3   3 7703.64 494.808 105
   6  -3  -3 6584.74 740.814  96
   6   3  -3 6376.18 724.467  96
  -6  -3   3 6910.91 463.482  90
  -6  -3   3 6935.72 855.634  92
  -6  -3   3 6142.81 807.356  31
  -6  -3   3 7276.33 894.917  33
  -6  -3   3 7379.04 885.374  30
   6   3  -3 6432.49 794.592  36
   6  -3  -3 7434.42 820.481  36
  -6  -3   3 8484.45 520.029  79
   6   3  -3 7908.59 474.812  83
  -6  -3   3 7719.40 888.514  87
  -6  -3   3 7348.50 479.409  68
   6  -3  -3 6622.65 818.500  40
  -6  -3   3 8017.41 937.252  39
  -6   3   3 7585.45 849.517  45
  -6  -3   2 2291.58 271.599  24
   6   3  -2 2445.06 286.128  20
   6   3  -2 3090.56 567.378  18
   6   3  -2 2591.30 509.074  23
   6   3  -2 2653.01 281.577  22
  -6  -3   2 2894.80 498.467  28
  -6   3   2 2645.73 276.241   5
  -6   3   2 2331.03 282.293  16
  -6   3   2 2511.72 277.911  14
  -6   3   2 2717.83 303.241 105
   6   3  -2 2623.75 289.039 103
  -6   3   2 2480.18 280.731 112
   6  -3  -2 2411.51 427.090  96
  -6  -3   2 3245.70 311.450  90
  -6  -3   2 2683.09 300.039  91
   6   3  -2 2348.01 450.048  96
   6   3  -2 2302.50 228.325  95
  -6  -3   2 2009.15 480.673  31
  -6  -3   2 2644.62 559.608  33
   6   3  -2 2780.80 512.804  36
   6  -3  -2 2315.90 508.130  36
  -6  -3   2 2822.60 573.866  30
  -6  -3   2 2536.03 297.313  79
  -6  -3   2 3023.37 566.382  87
  -6  -3   2 2924.11 304.110  68
  -6   3   2 2258.59 491.514  45
  -6   3   1 5539.87 372.740   5
  -6   3   1 5358.06 404.197  16
  -6   3   1 4800.79 386.974  15
  -6   3   1 4723.75 377.238  14
  -6   3   1 5175.50 409.324 105
   6   3  -1 5255.18 400.760 103
   6   3  -1 5651.86 391.438 102
   6   3  -1 5751.85 406.906 104
   6   3  -1 5061.65 671.810  96
   6   3  -1 5211.99 354.831  95
  -6  -3   1 5474.23 396.567  90
  -6  -3   1 5024.00 754.575  92
  -6  -3   1 4872.94 714.453  31
   6   3  -1 4447.84 624.633  36
   6  -3  -1 3553.49 640.228  36
  -6  -3   1 4927.05 400.472  79
   6   3  -1 4714.28 323.550  88
  -6  -3   1 4651.63 689.154  87
  -6  -3   1 5632.08 772.956  39
  -6   3   1 5306.12 750.709  45
  -6  -3   1 5342.56 402.707  24
   6   3  -1 5292.71 728.458  18
   6   3  -1 5032.23 693.549  23
   6   3  -1 5438.26 409.446  20
   6   3  -1 4434.91 676.505  19
   6  -3  -1 3489.70 538.318  23
   6   3  -1 5181.91 380.165  22
  -6  -3   1 4349.67 592.495  28
   6   3   0 1456.15 395.446  19
  -6  -3   0 1205.49 193.620  25
  -6  -3   0 1207.26 226.657  24
   6   3   0 1467.65 402.361  23
   6  -3   0 1355.11 379.088  23
   6   3   0 1010.57 175.859  22
  -6  -3   0 847.691 264.549  28
  -6   3   0 1477.34 233.562  11
  -6   3   0 1274.48 179.999   5
  -6   3   0 1522.58 238.305  16
  -6   3   0 1295.41 215.426  15
  -6   3   0 1320.89 215.183  14
  -6   3   0 1306.28 196.001 109
  -6   3   0 1097.92 221.887 105
   6   3   0 1303.06 193.738 102
   6   3   0 1465.91 230.894 104
  -6  -3   0 1280.83 407.700  92
   6   3   0 1156.29 362.512  96
   6   3   0 1193.04 190.162  95
  -6  -3   0 1608.83 260.458  91
  -6  -3   0 1461.23 431.143  31
  -6  -3   0 1305.95 429.495  33
   6   3   0 1401.87 340.769  36
   6  -3   0 1816.29 467.778  36
  -6  -3   0 1376.64 431.033  30
  -6  -3   0 958.774 207.121  79
   6   3   0 1199.72 180.734  88
   6  -3   0 1493.05 196.365  62
  -6  -3   0 1412.65 228.875  68
  -6  -3   0 1412.98 408.697  39
  -6   3   0 1167.74 397.836  45
  -6  -3   0 1185.08 350.085  41
  -6  -3  -1 10700.8 589.830  24
   6   3   1 10763.5 1028.62  18
   6   3   1 10570.5 570.378  20
   6   3   1 10024.2 1010.78  23
   6  -3   1 9245.34 956.361  23
   6   3   1 8871.22 916.852  19
   6   3   1 9223.58 491.075  22
  -6  -3  -1 9859.67 525.372  25
  -6   3  -1 9905.44 563.710  11
  -6   3  -1 9086.02 556.438   9
   6   3   1 9414.73 1011.33   1
  -6   3  -1 10748.6 561.952  16
  -6   3  -1 9855.54 564.148  15
  -6   3  -1 10209.5 561.396  14
  -6   3  -1 10391.6 580.017 105
   6   3   1 10183.6 561.143 103
   6   3   1 10496.3 565.522 104
   6   3   1 10219.6 521.268 102
  -6   3  -1 10253.8 546.422 109
   6   3   1 10341.0 966.991  96
   6   3   1 10170.2 531.424  95
  -6  -3  -1 10263.6 585.993  91
  -6  -3  -1 11475.9 1059.12  92
  -6  -3  -1 9100.73 972.448  31
  -6  -3  -1 9381.13 1025.90  33
  -6  -3  -1 10155.6 1004.49  30
   6  -3   1 7818.28 939.683  36
  -6  -3  -1 10672.7 576.934  79
   6   3   1 10889.3 534.221  88
  -6  -3  -1 8493.89 456.132  69
  -6  -3  -1 10086.4 563.106  68
  -6  -3  -1 9826.34 941.924  41
  -6  -3  -1 8930.91 947.424  39
   6  -3   1 8678.51 905.885  38
  -6   3  -1 10815.0 1032.15  45
   6   3   2 22838.8 1514.16  18
  -6  -3  -2 23996.5 983.466  24
   6   3   2 23481.7 931.758  20
   6  -3   2 23897.3 1591.31  23
   6   3   2 20731.1 1404.09  19
   6   3   2 22428.7 831.490  22
  -6  -3  -2 23787.2 911.481  25
  -6   3  -2 22987.6 938.313  11
  -6   3  -2 25378.8 998.508   9
  -6   3  -2 24570.6 925.833  16
  -6   3  -2 24695.1 979.913  15
   6   3   2 23026.3 1614.68   1
  -6   3  -2 25163.0 963.281  14
  -6   3  -2 24322.0 963.327 105
   6   3   2 25354.0 962.419 103
   6   3   2 25394.6 954.352 104
  -6  -3  -2 24486.4 959.330 105
  -6   3  -2 23693.0 945.023 109
   6   3   2 24833.7 1536.89  96
   6   3   2 23744.6 926.762  95
  -6  -3  -2 25320.8 990.820  91
   6  -3   2 21591.3 1456.04  94
  -6  -3  -2 25006.8 1544.57  92
  -6  -3  -2 22555.8 1563.47  31
  -6  -3  -2 22133.7 1575.37  33
  -6  -3  -2 23028.2 1542.32  30
  -6  -3  -2 25089.9 949.215  79
   6   3   2 25249.7 930.293  88
  -6   3  -2 25968.5 962.179  54
  -6  -3  -2 22911.0 864.316  69
  -6  -3  -2 24733.1 961.095  68
  -6  -3  -2 23091.0 1527.63  41
  -6  -3  -2 24310.3 1574.18  39
   6  -3   2 19425.2 1446.50  38
  -6   3  -2 24533.8 1557.07  45
   6   3   3 7432.96 804.912  18
   6   3   3 7417.93 446.553  20
   6   3   3 8065.49 889.710  23
   6  -3   3 6996.50 868.419  23
   6   3   3 6034.15 708.210  19
   6  -3   3 6832.85 779.893  19
  -6  -3  -3 7775.92 453.628  25
  -6   3  -3 7850.85 471.273  11
  -6   3  -3 7442.70 484.131   9
  -6   3  -3 7239.80 432.973  16
  -6   3  -3 8049.19 504.745  15
  -6   3  -3 7115.37 454.141 105
   6   3   3 7604.88 472.006 103
  -6  -3  -3 8305.33 477.935 105
   6   3   3 8165.39 475.961 104
  -6   3  -3 7423.83 482.625 109
   6   3   3 8212.10 481.413  95
   6  -3   3 6982.70 793.170  94
  -6  -3  -3 7932.84 494.205  91
  -6  -3  -3 6588.97 755.895  92
  -6  -3  -3 5998.94 779.956  31
  -6  -3  -3 6644.98 813.257  33
  -6  -3  -3 8027.68 858.612  30
   6  -3   3 6602.42 831.921  36
  -6  -3  -3 7580.73 494.801  80
   6   3   3 7807.09 462.132  88
   6  -3   3 6785.16 444.686  57
  -6   3  -3 7580.12 468.053  52
  -6   3  -3 7587.48 453.538  54
  -6  -3  -3 6973.61 426.963  69
  -6  -3  -3 7377.17 456.616  68
  -6  -3  -3 7084.05 861.485  41
  -6  -3  -3 6816.91 801.288  39
   6  -3   3 6617.96 837.037  38
  -6   3  -3 6451.90 754.472  45
   6   3   4 1653.56 203.125  20
  -6  -3  -4 2089.40 256.937  24
   6   3   4 2263.54 500.234  23
   6  -3   4 2335.53 495.743  23
  -6  -3  -4 2125.71 237.801  25
  -6   3  -4 2124.11 245.158  11
  -6   3  -4 2111.03 265.086   9
  -6   3  -4 2034.13 218.514  16
  -6   3  -4 1991.36 232.195 105
  -6  -3  -4 1892.68 224.394 105
   6   3   4 1833.28 225.934 104
   6   3   4 2030.45 243.507 103
  -6   3  -4 2189.95 269.681 109
   6  -3   4 1955.03 443.963  94
  -6  -3  -4 1620.39 355.048  92
   6   3   4 2128.49 459.810  96
   6   3   4 2379.99 261.390  95
  -6  -3  -4 2025.58 441.120  30
  -6  -3  -4 1909.75 255.020  80
  -6  -3  -4 2040.30 235.328  75
   6   3   4 2429.86 259.679  88
   6  -3   4 2271.99 255.114  57
   6  -3   4 1998.85 220.598  61
  -6   3  -4 1951.45 215.690  54
  -6   3  -4 2400.87 258.601  52
  -6  -3  -4 2222.71 239.502  69
  -6  -3  -4 2190.48 488.676  41
  -6  -3  -5 5708.42 398.450  24
   6   3   5 5096.52 664.769  23
   6  -3   5 5224.42 722.629  23
  -6  -3  -5 6072.99 381.428  25
  -6   3  -5 5302.85 376.768   9
   6   3   5 5264.75 346.295 104
   6   3   5 5143.99 355.761 103
   6   3   5 5282.26 691.009  96
   6  -3   5 5097.66 643.918  94
   6  -3   5 5225.63 679.019  89
  -6  -3  -5 5288.78 619.288  30
  -6  -3  -5 5862.50 406.616  80
  -6  -3  -5 5582.57 368.801  78
  -6  -3  -5 5266.07 365.201  75
   6  -3   5 5706.10 381.506  57
   6  -3   5 6168.05 386.811  63
   6  -3   5 5806.74 387.179  55
  -6   3  -5 5574.17 367.057  52
  -6  -3  -5 5657.33 742.788  41
  -6  -3  -6 10044.2 501.949  24
   6   3   6 8856.92 800.244  23
   6  -3   6 10518.1 959.597  23
  -6  -3  -6 9513.45 470.153  25
  -6   3  -6 9751.94 526.351 109
  -6   3  -6 8583.05 423.419 100
   6  -3   6 9294.96 463.221  98
   6  -3   6 9317.55 817.759  94
  -6   3  -6 9870.12 492.019   9
  -6   3  -6 10252.1 535.322  15
  -6  -3  -6 10408.2 514.294  80
  -6  -3  -6 9452.66 480.365  78
  -6  -3  -6 10257.4 505.183  75
  -6  -3  -6 8360.64 425.689  74
   6  -3   6 9131.35 486.393  65
   6  -3   6 9095.87 470.873  57
   6  -3   6 9471.56 466.516  63
   6  -3   6 9891.82 501.462  55
  -6   3  -6 9618.66 462.920  52
   6   3   6 8952.80 451.608  49
   6   3   7 1418.20 178.995  17
  -6   3  -7 1345.94 186.622  15
   6  -3   7 1393.51 155.369  98
  -6   3  -7 1452.02 192.619 109
   6  -3   7 1475.41 179.110 106
  -6  -3  -7 1329.34 147.917  74
  -6  -3  -7 1310.52 171.857  80
  -6  -3  -7 1524.91 184.292  78
  -6  -3  -7 1870.04 203.880  75
  -6  -3  -7 1518.61 163.660  81
   6  -3   7 1312.09 170.662  65
   6  -3   7 1332.03 179.604  56
   6  -3   7 1635.35 173.113  63
   6  -3   7 1481.23 193.800  60
   6  -3   7 1259.74 169.925  55
  -6  -3  -7 1518.91 177.912  24
  -6  -3  -7 1464.85 172.506  25
  -6   3  -8 7938.68 386.123  15
   6   3   8 7789.20 372.263  97
   6  -3   8 6886.71 333.594 106
  -6  -3  -8 7217.43 328.925 109
  -6  -3  -8 7917.68 367.306  78
   6  -3   8 6949.34 335.122  65
  -6   3  -8 7948.73 378.526  51
   6  -3   8 6218.39 298.404  63
   6  -3   8 7678.58 379.045  60
  -6  -3  -8 7058.16 324.149  25
  -6  -3  -9 18177.9 573.428  78
  -6   3  -9 18192.1 589.339  51
   6  -3   9 18361.1 592.163  60
   6  -3   9 17734.3 584.436  66
   6  -3   9 16749.4 558.610  99
  -6   3  -9 18784.9 596.480  15
   6   3   9 18561.0 583.401   8
  -6  -4   9 18685.6 588.750 107
   6   4  -9 19227.8 607.851  13
  -6   4   9 18339.6 599.128   3
  -6  -4   9 18726.6 603.577  90
  -6  -4   8 1365.37 149.377 107
   6   4  -8 1456.00 158.795 102
  -6   4   8 1217.24 135.347 112
   6   4  -8 1119.72 129.161 110
  -6  -4   8 1104.96 147.074  79
  -6   4   8 1587.40 171.482   3
   6   4  -8 1622.63 166.422  21
  -6  -4   7 2387.30 234.770  90
  -6  -4   7 2097.06 210.434  91
  -6  -4   7 2419.46 205.216 107
   6   4  -7 1933.78 210.092 102
  -6   4   7 2127.46 202.356 112
   6   4  -7 1933.01 185.273 110
  -6  -4   7 2097.53 218.803  79
   6   4  -7 2110.40 216.796  21
  -6   4   7 2619.25 238.974  16
  -6   4   7 2150.47 226.935   3
   6   4  -6 7646.04 367.545  12
  -6   4   6 8991.68 472.081  16
  -6  -4   6 8528.29 410.996 107
  -6   4   6 8840.74 450.973 112
   6   4  -6 8443.47 404.182 104
   6   4  -6 8265.34 409.341 110
  -6  -4   6 9197.99 482.650  79
  -6  -4   6 7837.31 397.990  68
   6   4  -6 8362.93 379.020  20
  -6  -4   6 8646.30 463.744  90
  -6  -4   5 11287.5 505.262 107
   6   4  -5 12261.1 592.072 102
  -6   4   5 13009.4 590.720 112
   6   4  -5 12067.1 509.741 103
   6   4  -5 12866.8 562.026 104
  -6  -4   5 13268.7 569.461 105
   6   4  -5 11711.4 528.308 110
  -6  -4   5 12967.4 603.680  90
  -6  -4   5 11413.1 1001.49  92
  -6  -4   5 12100.7 563.730  68
  -6   4   5 12608.9 545.768  54
   6   4  -5 12726.8 549.608  20
  -6  -4   5 11454.0 1010.00  28
   6   4  -5 13028.7 608.937  21
  -6   4   4 5319.39 384.986  16
   6   4  -4 5767.78 372.571 104
  -6   4   4 5587.04 385.495 105
   6   4  -4 5291.14 384.870 102
   6   4  -4 5195.03 337.614 103
  -6   4   4 5684.72 384.313 112
  -6  -4   4 5141.08 370.875 105
   6   4  -4 4790.14 323.098 110
  -6  -4   4 5501.94 379.033  90
  -6  -4   4 5282.69 704.027  92
   6  -4  -4 5002.45 639.402  32
  -6  -4   4 5623.77 403.804  79
  -6   4   4 4231.95 286.131  53
  -6   4   4 5254.42 307.209  52
  -6  -4   4 5268.86 375.541  68
  -6   4   4 5521.23 369.533  54
   6   4  -4 5771.86 373.974  20
  -6  -4   4 4478.68 633.694  28
   6   4  -4 5782.07 393.607  21
  -6   4   3 7185.27 450.701  16
  -6   4   3 7228.77 465.756 105
   6   4  -3 7711.55 433.540 103
   6   4  -3 6785.52 440.288 102
  -6   4   3 7189.66 443.814 112
   6   4  -3 6861.10 429.487 104
   6   4  -3 6027.17 367.451 110
  -6  -4   3 6930.39 434.238  90
  -6  -4   3 5516.17 752.248  30
  -6  -4   3 7037.82 458.685  79
  -6   4   3 6321.13 387.078  53
  -6   4   3 7098.14 397.140  52
  -6   4   3 7173.94 445.532  54
  -6  -4   3 6766.91 444.242  68
  -6  -4   3 6827.49 406.647  24
   6   4  -3 7181.85 445.312  20
  -6  -4   3 6854.41 779.044  28
   6   4  -3 7785.78 453.852  21
  -6  -4   2 12311.1 599.784  24
   6   4  -2 13675.6 647.694  20
  -6  -4   2 11020.3 995.252  28
   6   4  -2 13199.2 612.480  21
   6   4  -2 12319.3 535.927  13
  -6   4   2 12849.8 628.370  16
  -6   4   2 13567.3 666.755 105
   6   4  -2 13279.6 616.680 103
   6   4  -2 12880.7 629.092 102
   6   4  -2 13253.3 635.707 104
   6   4  -2 10748.0 869.031  96
  -6  -4   2 13262.3 662.337  91
  -6  -4   2 12801.2 603.305  90
  -6  -4   2 14219.7 1185.55  92
  -6  -4   2 11019.6 1061.97  30
  -6  -4   2 13645.1 660.917  79
  -6   4   2 13080.3 606.866  53
  -6   4   2 12274.4 586.049  52
  -6   4   2 13631.7 652.145  54
   6  -4  -2 13274.9 1108.43  40
   6   4  -1 10253.0 503.187  17
  -6   4   1 9749.67 528.758  16
  -6   4   1 9327.93 558.394 105
   6   4  -1 10064.9 537.768 103
   6   4  -1 9504.88 529.906 102
   6   4  -1 9372.70 840.878  96
  -6  -4   1 10030.0 572.257  91
  -6  -4   1 9482.64 496.545  90
  -6  -4   1 9749.98 979.290  92
  -6  -4   1 9625.34 1009.83  30
  -6  -4   1 10345.6 563.388  79
  -6   4   1 10570.9 537.140  52
  -6   4   1 9907.81 550.985  54
  -6  -4   1 10281.5 565.370  68
  -6  -4   1 10329.5 547.560  24
   6   4  -1 10595.6 561.085  20
  -6  -4   1 8611.82 853.486  28
   6   4  -1 9560.77 496.182  21
  -6   4   0 14281.8 686.443  11
   6   4   0 14519.4 644.002  17
  -6   4   0 14459.3 683.588   9
  -6   4   0 13462.3 622.936  16
  -6   4   0 13099.2 594.458  14
   6   4   0 14184.5 647.493 102
  -6   4   0 13406.6 681.232 105
   6   4   0 13199.8 650.999 103
   6   4   0 14020.5 1065.92  96
  -6  -4   0 13394.8 671.902  91
   6   4   0 12540.0 542.082  95
   6  -4   0 11231.9 945.018  94
  -6  -4   0 13044.3 1128.63  92
  -6  -4   0 14431.5 668.679  79
  -6   4   0 14504.4 657.294  52
  -6   4   0 14920.5 683.791  54
  -6  -4   0 15263.6 698.445  68
  -6  -4   0 14658.0 678.376  24
  -6  -4   0 12180.8 996.229  28
   6   4   0 14154.0 589.876  21
  -6   4  -1 596.606 173.395  11
  -6   4  -1 766.559 184.845   9
  -6   4  -1 721.772 154.118  16
  -6   4  -1 711.914 158.643  15
  -6   4  -1 783.323 154.602  14
   6   4   1 848.967 177.970 104
  -6   4  -1 727.920 184.783 105
   6   4   1 631.627 123.452  97
   6  -4   1 679.494 250.881  94
  -6  -4  -1 859.400 329.414  92
   6   4   1 690.487 279.330  96
   6   4   1 772.391 137.001  95
  -6  -4  -1 807.617 187.902  91
  -6  -4  -1 894.250 351.760  30
  -6  -4  -1 1052.80 184.842  79
  -6   4  -1 938.732 189.275  54
  -6   4  -1 762.283 171.919  52
  -6  -4  -1 676.965 132.479  69
  -6  -4  -1 763.768 176.413  68
  -6  -4  -1 901.756 187.540  24
   6   4   1 976.986 195.577  20
   6   4   1 643.312 308.755  23
   6  -4   1 638.741 288.024  23
  -6   4  -2 38987.2 1299.96  11
  -6   4  -2 34430.0 1162.96  16
  -6   4  -2 38816.7 1282.27  15
  -6   4  -2 38788.7 1217.61  14
  -6   4  -2 39665.7 1307.05 105
  -6  -4  -2 39673.2 1294.77 105
   6   4   2 39285.5 1294.44 104
   6   4   2 39091.3 1294.07 103
   6   4   2 38534.1 1193.36  97
   6   4   2 38041.2 1891.46  96
   6   4   2 39822.6 1219.19  95
  -6  -4  -2 41918.4 1318.84  91
  -6  -4  -2 35900.0 1833.85  92
  -6  -4  -2 40974.5 2041.32  30
   6  -4   2 33757.9 1169.42  57
  -6  -4  -2 36708.4 1199.17  69
  -6   4  -2 40190.9 1279.90  54
  -6  -4  -2 41227.2 1295.64  68
   6   4   2 40545.3 1282.74  20
  -6  -4  -2 39255.5 1314.87  24
   6  -4   2 35517.7 1939.46  23
  -6   4  -3 26474.7 954.557  11
   6   4   3 26980.2 974.234  17
  -6   4  -3 25691.2 982.820   9
  -6   4  -3 28138.4 975.880  15
  -6   4  -3 26997.7 899.289  14
  -6   4  -3 25256.9 928.665 105
  -6  -4  -3 26975.7 935.540 105
   6   4   3 26346.7 951.211 104
   6   4   3 25915.6 956.435 103
   6   4   3 25813.4 891.954  97
   6   4   3 24194.6 1439.00  96
  -6  -4  -3 25864.8 1536.62  30
  -6  -4  -3 26675.0 985.556  80
   6  -4   3 22540.0 836.241  63
   6  -4   3 23964.6 867.049  55
  -6  -4  -3 23595.8 880.080  69
  -6   4  -3 25656.0 910.201  54
  -6  -4  -3 26695.3 927.719  68
  -6   4  -3 27720.9 971.440  52
   6   4   3 24769.9 900.027  20
  -6  -4  -3 27639.9 995.873  24
   6   4   3 25789.1 1539.01  23
   6  -4   3 22783.1 1500.17  23
   6   4   4 5879.42 326.749  12
  -6   4  -4 5289.92 349.764  11
   6   4   4 6571.56 402.378  17
  -6   4  -4 5839.46 388.203   9
  -6   4  -4 6141.52 383.312  15
  -6   4  -4 5161.19 322.225  14
   6   4   4 6539.23 389.292 103
  -6  -4  -4 5570.99 331.394 105
   6   4   4 6450.60 378.451 104
   6   4   4 6347.97 362.248  97
   6   4   4 4769.76 616.456  96
  -6  -4  -4 4950.97 622.422  30
  -6  -4  -4 6750.18 408.835  80
  -6  -4  -4 5937.26 362.581  75
   6  -4   4 5427.42 327.751  55
  -6   4  -4 5344.81 323.270  51
  -6  -4  -4 6019.11 360.407  69
  -6   4  -4 5728.83 326.773  54
  -6   4  -4 5684.20 365.315  52
   6   4   4 5569.25 318.921  20
   6  -4   4 5232.16 674.553  23
   6  -4   5 2638.83 204.021 106
   6   4   5 3572.65 259.707  97
  -6   4  -5 3442.36 281.536   9
  -6   4  -5 3800.48 283.685  15
   6   4   5 2990.88 214.666   8
  -6  -4  -5 3553.51 273.585  80
  -6  -4  -5 3123.76 243.738  78
  -6  -4  -5 3076.48 252.639  75
   6  -4   5 2915.71 220.129  65
  -6   4  -5 3288.63 254.234  52
   6  -4   5 2931.43 227.368  55
  -6   4  -5 3161.03 238.979  51
   6   4   5 3397.06 265.740  49
   6   4   6 1917.14 178.888  49
   6   4   6 1991.05 184.569  97
   6   4   6 1862.37 190.690  17
  -6   4  -6 1754.30 184.457   9
  -6   4  -6 1897.88 194.086  15
   6   4   6 1751.40 154.322   8
  -6  -4  -6 1997.18 187.457  80
  -6  -4  -6 1715.78 167.852  78
  -6  -4  -6 1641.58 176.369  75
  -6  -4  -6 1688.43 156.753  74
   6  -4   6 1538.51 136.000  65
   6  -4   6 1684.95 178.908  60
  -6   4  -6 1777.32 169.735  51
   6  -4   6 1707.55 184.127  58
  -6  -4  -6 2077.30 201.474  24
   6   4   7 10247.0 384.237  49
   6   4   7 11300.9 430.230  97
  -6  -4  -7 11940.1 438.242  24
  -6  -4  -7 11027.9 420.853  78
  -6  -4  -7 11464.1 439.278  75
   6   4   7 11766.5 424.562  17
  -6   4  -7 11409.6 448.194  15
   6   4   7 10643.8 389.702   8
   6  -4   7 11087.9 429.238  60
  -6   4  -7 11265.0 421.569  51
  -6   4  -8 290.936 63.6888  15
   6  -4   8 242.571 56.6628  66
  -6   5   7 13067.6 433.741   3
   6   5  -7 13173.9 416.649  13
  -6  -5   7 12378.0 427.141  90
  -6   5   6 6044.59 290.023   3
   6   5  -6 6015.67 273.420  13
  -6  -5   6 5880.48 299.385  91
  -6  -5   6 5786.95 283.664  90
  -6  -5   5 9715.13 415.700  90
   6   5  -5 9841.92 377.740  20
  -6  -5   5 9802.44 412.824  68
   6   5  -5 10133.4 380.792  12
  -6   5   5 10795.6 443.473  16
  -6   5   5 10299.7 422.995   3
   6   5  -5 10510.3 403.213  13
   6   5  -4 16818.8 585.944  12
  -6   5   4 15215.1 585.759  16
  -6   5   4 15242.4 560.706   3
  -6  -5   4 15487.5 618.108  91
  -6  -5   4 14977.0 559.420  90
   6   5  -4 15158.1 602.308 102
  -6  -5   4 16150.4 588.547 105
   6   5  -4 15370.2 542.664 104
  -6  -5   4 15614.4 613.683  79
  -6  -5   4 15935.9 600.550  68
  -6   5   4 15744.1 575.090  54
   6   5  -4 16069.5 578.026  20
   6   5  -4 14761.1 563.899  21
   6   5  -3 5851.26 334.256  12
  -6   5   3 5165.32 311.812  16
  -6  -5   3 5951.65 358.891  91
   6   5  -3 5373.91 337.794 102
  -6  -5   3 5861.39 341.811 105
   6   5  -3 5404.20 309.223 104
  -6  -5   3 5853.50 348.489  79
  -6  -5   3 5269.77 336.903  68
  -6   5   3 6269.47 344.410  54
   6   5  -3 5873.53 335.952  20
   6   5  -3 5847.86 308.885  21
   6   5  -2 7716.81 404.833  12
  -6   5   2 6594.11 354.273  16
   6   5  -2 7329.43 397.740 102
  -6  -5   2 6875.17 395.803 105
   6   5  -2 7276.38 380.426 104
   6   5  -2 6915.19 346.505 103
  -6  -5   2 7855.06 419.862  91
  -6  -5   2 7286.43 393.347  79
  -6   5   2 7252.31 373.571  53
  -6   5   2 7031.51 392.999  54
   6   5  -2 7413.50 397.879  20
   6   5  -1 8033.79 419.369  12
  -6  -5   1 7341.95 417.304 105
   6   5  -1 8026.23 408.873 104
   6   5  -1 7922.73 385.660 103
  -6  -5   1 7582.17 418.380  91
  -6  -5   1 7268.45 741.528  30
  -6  -5   1 7303.33 387.407  79
  -6   5   1 7841.39 405.662  53
  -6  -5   1 7631.66 417.088  68
  -6   5   1 7889.80 421.766  54
  -6   5   1 7262.66 361.013  52
   6   5  -1 7584.52 413.396  20
  -6  -5   1 7042.15 361.248  24
   6   5  -1 6922.50 332.080  17
   6   5   0 5303.96 298.128  17
   6   5   0 5277.66 316.614 103
  -6  -5   0 5390.38 344.524 105
   6   5   0 5275.17 333.842 104
  -6  -5   0 5144.05 333.293  91
  -6  -5   0 4358.04 575.228  30
  -6  -5   0 4881.75 295.923  79
  -6   5   0 5017.96 331.503  53
  -6  -5   0 4974.61 331.037  68
  -6   5   0 5313.42 340.739  54
  -6   5   0 5363.88 314.884  52
  -6  -5   0 5078.87 312.123  24
   6   5   1 39762.0 1215.36 103
  -6  -5  -1 39459.0 1234.24 105
  -6  -5  -1 41309.2 1224.88  91
   6   5   1 40085.1 1227.05  20
  -6  -5  -1 41476.0 1228.79  24
  -6   5  -1 40733.0 1217.81  52
  -6  -5  -1 40135.8 1223.08  68
  -6   5  -1 40218.7 1229.08  54
   6   5   1 40872.2 1228.46  12
  -6   5  -1 39074.4 1241.85  11
   6   5   1 40464.7 1203.00  17
   6   5   2 21608.1 725.510  12
  -6   5  -2 20710.5 746.539  11
   6   5   2 21174.6 735.210  17
  -6  -5  -2 20384.6 725.861 105
  -6  -5  -2 20445.4 756.112  80
  -6   5  -2 20628.7 752.783  53
  -6  -5  -2 20278.2 709.301  68
  -6   5  -2 21671.3 729.997  54
   6   5   2 20464.1 717.060  20
  -6  -5  -2 20500.0 739.969  24
  -6  -5  -3 4022.63 263.719  24
   6   5   3 3820.38 229.107  20
   6   5   3 4205.37 237.134  12
   6   5   3 4110.40 265.758  17
  -6  -5  -3 3381.18 225.273 105
  -6  -5  -3 4010.65 269.985  80
  -6  -5  -3 3846.97 242.946  75
  -6   5  -3 3650.37 226.919  54
  -6   5  -3 4027.33 267.078  53
   6  -5   3 3677.27 236.635  58
   6   5   3 4176.49 272.682  49
   6   5   4 9478.00 394.166  17
   6   5   4 9356.93 393.406  49
  -6   5  -4 9293.84 389.955  53
  -6  -5  -4 9400.17 398.480  24
  -6  -5  -4 8808.65 385.452  80
  -6  -5  -4 8802.04 369.501  75
   6   5   5 5136.89 249.558  49
  -6  -5  -5 5777.68 265.961  24
  -6  -5  -5 5167.78 241.485  80
   6   6  -1 3019.03 159.053  12
   6   6  -1 3291.36 164.495  20
  -7   0  11 2434.07 184.483 108
   7   0 -11 2239.57 161.519 104
   7   0 -11 2558.83 180.766  85
   7   0 -11 2324.18 175.271  83
   7   0 -11 2601.63 185.462  82
   7   0 -10 471.713 106.678 103
  -7   0  10 225.955 98.9473 107
   7   0 -10 363.431 111.266 104
   7   0 -10 317.035 102.773  85
   7   0 -10 380.453 109.361  82
   7   0  -9 951.966 163.001  85
   7   0  -9 961.749 170.211  82
   7   0  -9 697.474 247.574  96
  -7   0   9 1046.08 188.738 108
  -7   0   9 1152.54 178.705 107
   7   0  -9 911.211 171.251 104
  -7   0   8 25399.0 947.065 108
  -7   0   8 25186.4 936.239 107
   7   0  -8 23032.1 1427.74  96
   7   0  -8 21497.0 1426.04  32
   7   0  -8 22961.7 1420.75  29
   7   0  -8 25039.4 897.986  85
   7   0  -8 26047.6 920.784  82
   7   0  -8 23505.6 849.435  62
  -7   0   8 22002.9 828.047   5
   7   0  -7 1501.77 190.243  22
  -7   0   7 2393.32 271.896 108
  -7   0   7 1404.57 190.125 111
   7   0  -7 1550.16 392.989  96
   7   0  -7 1029.56 322.857  29
   7   0  -7 1288.68 369.258  32
   7   0  -7 1592.28 211.895  85
   7   0  -7 1484.02 216.213  82
   7   0  -7 1232.31 189.498  62
   7   0  -7 1494.95 412.370  40
   7   0  -6 4056.75 325.129  22
  -7   0   6 4090.56 618.709   2
  -7   0   6 4978.68 380.900 108
  -7   0   6 4031.89 311.052 105
   7   0  -6 3914.59 627.196  96
   7   0  -6 3957.53 607.437  29
   7   0  -6 4887.13 702.015  36
   7   0  -6 4204.68 642.576  32
   7   0  -6 4246.22 330.758  85
   7   0  -6 4509.96 338.821  82
   7   0  -6 3751.44 328.494  62
   7   0  -6 3949.29 659.469  40
   7   0  -6 3929.08 576.439  42
   7   0  -5 55598.9 1676.61  22
  -7   0   5 51575.8 2346.29   2
  -7   0   5 54193.1 1699.01 108
  -7   0   5 54708.0 1716.10 107
  -7   0   5 55368.3 1657.68 105
  -7   0   5 46981.0 2100.62  92
   7   0  -5 56881.2 2585.07  36
   7   0  -5 54629.2 2447.06  32
   7   0  -5 52599.9 1598.78  85
   7   0  -5 53771.3 1614.95  82
   7   0  -5 53253.4 1674.33  62
   7   0  -5 55484.1 2526.04  40
   7   0  -5 51037.0 2305.09  42
  -7   0   5 52097.6 2375.77  45
   7   0  -4 7678.52 821.797  19
  -7   0   4 9045.42 482.478  16
  -7   0   4 7653.52 787.679   2
  -7   0   4 9089.56 520.025 108
  -7   0   4 8731.10 516.426 107
  -7   0   4 9094.36 517.515 105
  -7   0   4 7376.83 783.899  92
   7   0  -4 9255.38 953.235  96
   7   0  -4 8838.56 964.060  36
   7   0  -4 8671.24 865.382  32
   7   0  -4 8585.05 452.053  85
   7   0  -4 8884.84 458.433  82
   7   0  -4 8713.42 518.886  62
   7   0  -4 8678.07 902.819  40
   7   0  -4 7237.28 777.429  42
  -7   0   4 9225.73 943.132  45
   7   0  -3 37035.0 1952.70  19
  -7   0   3 37446.0 1292.66  14
  -7   0   3 40188.4 1307.80 108
  -7   0   3 39987.9 1330.64 107
   7   0  -3 37309.2 1292.44 104
  -7   0   3 38881.1 1318.93 111
  -7   0   3 39823.8 1334.57 105
  -7   0   3 41212.8 1987.53  92
   7   0  -3 39012.9 2050.80  96
   7   0  -3 36705.5 2037.90  36
   7   0  -3 39100.2 1932.40  32
   7   0  -3 40792.6 1290.49  83
   7   0  -3 38197.1 1332.79  62
   7   0  -3 36561.8 1926.96  40
   7   0  -3 33891.6 1783.76  42
  -7   0   3 39912.2 2063.53  45
  -7   0   2 237.917 109.050  14
  -7   0   2 59.5714 108.249 108
  -7   0   2 138.427 149.897 105
  -7   0   2 127.774 124.907 107
  -7   0   2 117.184 123.257 111
   7   0  -2 148.663 109.468 104
  -7   0   2-55.0040 194.510  92
   7   0  -2 56.8109 211.762  96
   7   0  -2 330.776 119.410  83
  -7   0   2 120.878 201.504  45
   7   0  -2 102.843 181.845  40
   7   0  -2 134.432 149.414  42
   7   0  -2 56.2904 199.057  19
  -7   0   2 173.447 127.703  24
   7   0  -2 45.4667 131.299  23
  -7   0   1 8940.27 521.036  24
   7   0  -1 8792.48 858.396  23
   7   0  -1 9561.38 947.601  19
  -7   0   1 8781.16 522.418  25
  -7   0   1 9110.86 506.131  14
   7   0  -1 9444.05 514.453 103
  -7   0   1 8996.23 487.574 108
  -7   0   1 9065.26 504.875 107
   7   0  -1 8282.98 470.079 104
  -7   0   1 10188.9 556.051 105
  -7   0   1 8420.83 914.225  92
   7   0  -1 9492.23 935.268  96
   7   0  -1 9399.85 969.100  36
   7   0  -1 9524.86 477.128  83
   7   0  -1 9667.19 542.135  62
   7   0  -1 9635.47 879.207  40
  -7   0   1 9065.01 957.571  45
  -7   0   0 102050. 2809.91  24
   7   0   0 100317. 3684.87  23
   7   0   0 99090.2 3760.31  19
  -7   0   0 102650. 2829.75  25
   7   0   0 102101. 2757.47 103
  -7   0   0 99960.8 2751.10 107
   7   0   0 99188.0 2699.85 104
  -7   0   0 104674. 2831.70 111
  -7   0   0 106456. 2850.39 105
  -7   0   0 104936. 3795.41  92
   7   0   0 99216.2 3655.17  96
  -7   0   0 100986. 2783.63  14
   7   0   0 107796. 3806.81  36
   7   0   0 105667. 2840.53  62
   7   0   0 90012.0 3366.57  40
  -7   0   0 105049. 3923.11  41
  -7   0   0 92240.6 3655.60  45
  -7   0  -1 66978.7 1966.58  24
   7   0   1 66418.7 2814.74  23
   7   0   1 68520.5 2924.16  19
  -7   0  -1 66029.2 2007.57  25
   7   0   1 66745.3 1915.66 103
  -7   0  -1 68964.0 2008.10 111
  -7   0  -1 66693.5 2001.27 105
  -7   0  -1 70231.2 2883.60  92
   7   0   1 65328.4 2723.58  96
   7   0   1 62000.2 2713.18  94
  -7   0  -1 68667.4 1977.99  14
   7   0   1 65725.7 2762.99  36
   7   0   1 70549.1 2018.44  62
   7   0   1 59140.3 2433.67  40
   7   0   1 63886.8 2683.04  38
  -7   0  -1 64148.0 2782.10  45
  -7   0  -2 242114. 6103.03  24
   7   0   2 254308. 7394.89  23
   7   0   2 235754. 7330.96  19
  -7   0  -2 251286. 6202.70  25
  -7   0  -2 231489. 6115.18  15
  -7   0  -2 251984. 6182.16 111
  -7   0  -2 244369. 6155.65 105
  -7   0  -2 254340. 7345.78  92
   7   0   2 260411. 7156.21  96
   7   0   2 251007. 6181.33  95
   7   0   2 236317. 7146.60  94
   7   0   2 241083. 7091.10  36
   7   0   2 262726. 6197.48  62
   7   0   2 238605. 7184.68  38
  -7   0  -2 248173. 7451.72  41
  -7   0  -2 244687. 7205.96  45
   7   0   3 3027.35 566.064  19
  -7   0  -3 3384.20 281.645  24
   7   0   3 2809.13 550.632  23
  -7   0  -3 3011.09 312.481  25
  -7   0  -3 2800.35 278.008  15
  -7   0  -3 3631.35 321.419 111
  -7   0  -3 3560.02 327.039 109
  -7   0  -3 3041.95 289.674 105
   7   0   3 2788.38 524.764  94
  -7   0  -3 2801.94 563.803  92
   7   0   3 3301.03 513.886  96
   7   0   3 3287.80 309.050  95
   7   0   3 3025.98 535.902  37
   7   0   3 3594.91 535.087  36
   7   0   3 3347.72 318.466  88
   7   0   3 3670.19 318.322  57
   7   0   3 3332.78 304.498  62
  -7   0  -3 2723.75 499.388  45
   7   0   3 2997.01 547.657  38
  -7   0  -3 2983.08 581.473  41
  -7   0  -4 20271.2 871.743  25
   7   0   4 20523.2 1451.12  23
  -7   0  -4 20318.7 786.145 105
   7   0   4 19090.8 1225.59  96
   7   0   4 21451.3 837.835  95
   7   0   4 20806.1 1395.79  94
  -7   0  -4 19014.8 779.397  15
   7   0   4 21461.0 854.820  88
   7   0   4 20429.7 836.826  57
   7   0   4 21235.2 864.308  63
   7   0   4 19186.0 1418.25  38
  -7   0  -4 21684.6 1487.97  41
   7   0   4 18181.8 1349.60  37
  -7   0  -5 29714.5 1115.48  25
   7   0   5 31893.4 1811.83  23
  -7   0  -5 30990.9 1130.92 109
   7   0   5 32022.3 1078.39  95
   7   0   5 30475.2 1715.90  94
   7   0   5 32172.4 1139.29  98
  -7   0  -5 28109.6 1004.75  15
   7   0   5 31256.5 1092.30  88
   7   0   5 29897.3 1088.89  57
   7   0   5 31692.6 1121.71  63
   7   0   5 31829.6 1093.08  55
   7   0   5 31292.8 1124.12  61
  -7   0  -5 31385.5 1763.60  41
   7   0   6 7234.94 396.224  95
   7   0   6 7050.31 441.228  98
   7   0   6 6638.04 738.288  94
   7   0   6 6410.12 415.856 106
  -7   0  -6 6772.15 441.613 109
   7   0   6 7025.10 408.415  88
   7   0   6 6437.34 416.276  65
   7   0   6 6966.17 420.085  57
   7   0   6 7600.98 447.344  63
   7   0   6 6815.15 407.833  55
   7   0   6 7472.42 445.773  61
   7   0   6 6488.89 364.381  60
  -7   0  -6 7121.66 444.888  25
   7   0   6 6432.29 763.911  23
   7   0   7 15436.3 1084.59  94
   7   0   7 15995.6 665.648 106
  -7   0  -7 15737.7 679.593 109
  -7   0  -7 16210.2 683.887  25
   7   0   7 16243.3 669.846  65
   7   0   7 17586.7 698.917  63
   7   0   7 16303.7 643.462  55
  -7   0  -8 659.882 133.695 109
   7   0   8 682.731 133.054 106
  -7   0  -8 672.361 135.930  25
   7   0   8 657.464 128.799  65
   7   0   8 777.413 137.488  63
   7   0   9 1516.79 143.389 106
  -7   0  -9 1293.01 132.921 109
  -7   0  -9 1346.26 144.570  25
   7  -1 -11 1605.15 131.377  85
   7   1 -11 1543.61 138.393  85
   7  -1 -11 1374.08 128.173  82
  -7   1  11 1712.79 147.784   6
  -7  -1  11 1540.74 143.011 108
  -7   1  11 1191.65 115.549 108
  -7  -1  11 1300.08 119.752 107
   7  -1 -11 1289.29 127.662 104
   7  -1 -10 14093.1 532.841  85
   7   1 -10 14996.4 569.480  85
   7   1 -10 14131.6 550.796  83
   7  -1 -10 14473.3 553.798  82
  -7  -1  10 14683.0 575.254 108
  -7   1  10 13968.6 555.206 108
  -7  -1  10 14666.6 564.575 107
   7   1 -10 13816.4 527.648 104
   7   1  -9 1747.51 188.141 103
  -7  -1   9 1864.55 213.276 108
  -7   1   9 1999.83 225.426 108
  -7  -1   9 1922.85 220.696 107
  -7   1   9 1805.24 199.492 107
   7   1  -9 2060.54 217.411 104
   7  -1  -9 1815.34 376.586  96
   7  -1  -9 1859.60 194.573  85
   7   1  -9 2036.48 217.090  85
   7   1  -9 1858.63 208.019  83
   7  -1  -9 1752.08 198.178  82
   7   1  -9 1940.79 217.048  82
   7  -1  -9 1552.14 183.301  73
   7  -1  -9 1563.09 180.321  62
  -7   1   9 1469.75 171.382   5
   7  -1  -8 5237.61 682.678  96
   7   1  -8 5164.85 603.781  96
   7  -1  -8 4663.00 650.689  29
   7  -1  -8 5048.60 673.149  32
   7  -1  -8 5987.14 361.621  85
   7   1  -8 6526.97 404.424  85
   7  -1  -8 6012.75 376.222  82
   7   1  -8 6421.87 399.798  82
   7  -1  -8 5753.11 363.625  73
   7   1  -8 6103.56 389.129 103
  -7  -1   8 6328.81 405.265 108
  -7   1   8 5909.58 383.295 107
   7   1  -8 6647.72 414.138 104
  -7   1   8 6192.33 376.208   5
   7   1  -7 13533.7 612.523  22
  -7   1   7 14005.7 634.106   5
  -7   1   7 12163.7 549.115  16
   7   1  -7 13355.1 634.872 103
  -7  -1   7 13316.1 639.518 108
  -7  -1   7 14175.0 667.803 107
  -7   1   7 14475.0 657.353 107
   7   1  -7 13921.3 653.297 104
   7   1  -7 12768.8 1033.02  96
   7  -1  -7 11223.2 1061.88  29
  -7  -1   7 9999.27 918.339  28
   7   1  -7 12567.1 1008.00  32
   7  -1  -7 12511.0 1113.93  32
   7  -1  -7 13058.6 579.425  85
   7   1  -7 13387.7 622.996  85
   7   1  -7 13554.7 644.543  83
   7  -1  -7 13183.8 593.034  73
   7  -1  -7 12811.1 592.479  82
   7   1  -7 13557.3 629.916  82
   7   1  -7 11895.1 540.941  62
   7  -1  -7 13376.3 1157.12  40
   7   1  -6 10816.2 526.299  20
   7   1  -6 11981.9 588.495  22
  -7   1   6 11011.8 539.480  16
   7   1  -6 11603.6 595.916 103
  -7   1   6 10558.9 523.984 105
  -7  -1   6 11679.5 585.930 108
  -7   1   6 10559.6 587.251 108
  -7  -1   6 11935.7 611.696 107
  -7   1   6 12084.8 615.142 107
  -7   1   6 9306.67 473.450 111
  -7  -1   6 11082.7 533.445 105
   7  -1  -6 10127.0 1004.21  96
   7   1  -6 12071.5 1029.84  96
   7   1  -6 10837.6 939.085  32
   7  -1  -6 10500.6 1042.51  32
   7  -1  -6 11060.4 519.919  85
   7   1  -6 11035.6 565.338  85
  -7  -1   6 11302.2 546.162  79
   7   1  -6 11339.1 587.913  83
   7  -1  -6 10976.5 531.456  82
   7  -1  -6 11054.4 525.696  73
   7   1  -6 11040.0 563.847  82
   7   1  -6 9821.35 513.144  62
   7   1  -6 10588.5 994.305  40
   7   1  -5 6907.09 437.577  20
   7   1  -5 7967.74 486.248  22
  -7   1   5 7665.72 453.673  16
  -7  -1   5 6616.63 790.978   2
  -7  -1   5 7554.80 459.860 108
  -7   1   5 7534.80 486.466 108
  -7  -1   5 7833.77 488.686 107
   7   1  -5 7925.15 490.228 104
  -7   1   5 6396.35 403.460 111
  -7  -1   5 7865.58 462.106 105
  -7   1   5 8272.21 472.493 105
   7  -1  -5 6381.87 788.476  96
   7   1  -5 7538.89 832.901  96
  -7  -1   5 6351.56 724.616  92
   7   1  -5 7998.84 907.552  36
   7  -1  -5 7622.91 847.613  36
   7   1  -5 6506.51 716.000  32
   7  -1  -5 7064.68 863.065  32
   7   1  -5 7571.22 451.524  85
  -7  -1   5 7231.00 452.934  79
   7   1  -5 7262.33 465.473  83
   7  -1  -5 7457.87 414.718  82
   7   1  -5 7729.05 454.048  82
   7   1  -5 7238.24 439.182  62
   7   1  -5 6735.86 792.844  40
   7  -1  -5 7112.07 824.721  42
  -7  -1   5 6269.69 765.576  45
  -7   1   5 7359.99 805.637  45
  -7  -1   4 15352.4 739.556  24
   7   1  -4 16039.5 1277.68  19
   7   1  -4 14641.4 716.257  22
  -7  -1   4 14462.8 1140.90   2
  -7   1   4 16554.2 719.711  16
  -7  -1   4 16342.7 700.293 108
  -7   1   4 15887.9 733.322 108
  -7  -1   4 15281.3 713.128 107
   7   1  -4 17071.1 751.381 104
  -7   1   4 15419.4 682.637 111
  -7  -1   4 15649.8 717.292 105
  -7   1   4 15971.4 721.043 105
   7  -1  -4 16172.1 1251.85  96
   7   1  -4 15424.0 1216.73  96
  -7  -1   4 14780.4 652.651  91
  -7  -1   4 16744.2 1217.55  92
   7   1  -4 15991.8 1286.08  36
   7  -1  -4 12808.7 1145.45  36
   7   1  -4 14873.2 1067.13  32
  -7  -1   4 12972.0 1088.69  31
   7   1  -4 15694.0 678.380  85
  -7  -1   4 15837.1 721.982  79
   7   1  -4 15931.1 719.405  83
   7   1  -4 15543.0 669.013  82
   7   1  -4 16042.3 707.044  62
   7   1  -4 15743.7 1177.33  40
   7  -1  -4 15198.4 1249.61  40
  -7  -1   4 15004.2 1259.64  39
   7  -1  -4 12127.5 1099.42  42
  -7  -1   4 14573.2 1208.43  45
  -7   1   4 14403.8 1181.06  45
  -7  -1   3 53614.9 1724.19  24
   7   1  -3 52005.1 2474.01  19
   7   1  -3 53574.7 1702.22  22
  -7  -1   3 52104.9 2280.61   2
  -7   1   3 57590.5 1702.24  16
  -7   1   3 52745.4 1693.07  14
   7   1  -3 55620.0 1710.32 103
  -7  -1   3 50837.8 1597.48 108
  -7   1   3 55470.4 1703.82 108
  -7  -1   3 56088.6 1680.05 107
  -7   1   3 56389.4 1716.51 107
   7   1  -3 55879.9 1694.42 104
  -7   1   3 53282.1 1655.77 111
  -7  -1   3 56702.3 1721.04 105
  -7   1   3 54300.3 1697.68 105
   7  -1  -3 53904.1 2458.82  96
  -7  -1   3 50545.7 1612.38  91
  -7  -1   3 50117.4 2379.00  92
  -7  -1   3 48625.2 2257.11  31
   7  -1  -3 53669.9 2534.47  36
   7   1  -3 49440.1 2122.71  32
   7   1  -3 54463.5 1607.88  85
  -7  -1   3 53839.6 1691.60  79
   7   1  -3 52239.3 1654.06  83
   7   1  -3 54506.4 1674.76  62
   7   1  -3 54240.0 2306.38  40
   7  -1  -3 49587.2 2425.57  40
  -7  -1   3 54366.6 2509.91  39
   7  -1  -3 49297.9 2369.21  42
  -7  -1   3 52030.5 2484.55  45
  -7   1   3 53627.0 2495.88  45
   7   1  -2 79201.9 2990.30  23
   7   1  -2 74247.8 3150.81  19
   7  -1  -2 72489.3 2923.10  19
  -7  -1   2 70857.6 2773.09   2
  -7   1   2 80544.5 2292.55  14
   7   1  -2 81969.0 2297.19 103
  -7  -1   2 76893.3 2163.69 108
  -7   1   2 78281.0 2264.27 108
  -7  -1   2 77997.9 2224.19 107
  -7   1   2 78324.2 2269.91 107
   7   1  -2 80898.6 2277.40 104
  -7   1   2 77182.4 2241.89 111
  -7  -1   2 80392.3 2296.87 105
  -7   1   2 80744.4 2300.92 105
   7  -1  -2 82396.5 3139.20  96
  -7  -1   2 77291.1 2227.66  91
  -7  -1   2 82753.7 3212.98  92
  -7  -1   2 69283.5 2838.94  31
  -7  -1   2 71937.7 3071.45  33
   7   1  -2 76330.3 3144.49  36
   7  -1  -2 77817.6 3233.21  36
   7   1  -2 75232.1 2142.72  85
  -7  -1   2 83198.9 2322.80  79
   7   1  -2 80773.8 2242.67  83
   7  -1  -2 78422.2 2281.81  62
   7   1  -2 80457.8 2273.93  62
   7   1  -2 71818.1 2781.20  40
   7  -1  -2 78210.2 3133.71  40
  -7  -1   2 78187.7 3136.60  39
  -7  -1   2 76747.8 3188.94  45
  -7   1   2 77890.0 3185.15  45
  -7  -1   1 10165.9 567.117  24
   7   1  -1 9485.92 908.866  23
   7  -1  -1 8536.99 840.635  23
   7   1  -1 11108.5 1063.27  19
   7  -1  -1 9142.43 899.294  19
  -7   1   1 10116.4 544.603  25
  -7  -1   1 10735.7 577.034  25
  -7  -1   1 8327.04 469.334  14
  -7   1   1 9944.72 555.600  14
   7   1  -1 10157.3 553.483 103
  -7  -1   1 9894.94 509.904 107
  -7   1   1 9387.23 531.492 107
   7   1  -1 9920.71 530.226 104
  -7   1   1 10461.6 555.350 111
  -7  -1   1 9773.35 558.396 105
  -7   1   1 9953.57 572.104 105
   7  -1  -1 10129.8 941.524  96
   7   1  -1 10315.6 993.874  96
  -7  -1   1 10575.8 557.029  91
  -7  -1   1 10039.0 996.190  92
  -7  -1   1 9641.55 861.574  31
  -7  -1   1 9581.26 929.107  33
   7   1  -1 9198.12 954.618  36
  -7  -1   1 9133.30 487.183  80
   7   1  -1 10462.2 529.098  83
   7  -1  -1 10801.1 571.651  62
   7   1  -1 10436.4 565.355  62
   7  -1  -1 9329.52 925.547  40
  -7  -1   1 9368.89 914.115  39
  -7  -1   1 9010.14 953.065  41
  -7  -1   1 9384.64 972.709  45
  -7   1   1 9885.38 1001.50  45
  -7   1   0 714.325 171.114  25
  -7  -1   0 440.193 150.407  25
   7   1   0 498.953 285.096  19
   7  -1   0 839.183 316.585  19
  -7  -1   0 577.774 167.050  24
   7   1   0 574.267 295.410  23
   7  -1   0 812.683 319.633  23
   7   1   0 731.616 268.896   1
  -7  -1   0 598.487 142.743  14
  -7   1   0 912.438 170.433  14
  -7   1   0 510.572 138.826 109
   7  -1   0 597.449 138.139 103
   7   1   0 929.227 181.553 103
  -7  -1   0 643.735 178.224 105
  -7   1   0 420.216 156.529 105
  -7  -1   0 608.876 137.038 107
  -7  -1   0 588.364 176.745 111
  -7   1   0 636.059 171.514 111
   7   1   0 710.720 154.593 104
   7   1   0 557.012 237.345  94
   7  -1   0 302.181 222.611  96
   7   1   0 742.485 308.845  96
  -7  -1   0 779.120 183.580  91
  -7  -1   0 1089.57 323.932  33
   7   1   0 274.084 214.808  36
   7  -1   0 914.480 380.514  36
  -7  -1   0 808.607 168.108  80
   7   1   0 872.608 163.228  83
   7  -1   0 893.897 186.726  62
  -7  -1   0 794.037 330.239  45
  -7   1   0 907.409 349.614  45
   7   1   0 737.449 272.200  38
  -7  -1   0 801.886 333.496  41
  -7  -1   0 639.298 272.274  39
  -7  -1  -1 43942.0 1461.15  24
   7   1   1 45120.8 2232.20  23
   7  -1   1 44199.0 2192.97  23
   7  -1   1 43825.2 2189.40  19
  -7   1  -1 44065.8 1435.39  25
  -7  -1  -1 45047.4 1488.20  25
  -7   1  -1 43270.2 1468.25  15
   7   1   1 41513.3 2088.69   1
  -7  -1  -1 42032.8 1358.35  14
  -7   1  -1 46418.2 1482.56  14
   7   1   1 43569.9 1420.51 103
   7   1   1 45221.2 1390.52 104
  -7  -1  -1 44630.2 1454.45 111
  -7  -1  -1 44938.0 1466.45 105
  -7   1  -1 46718.4 1440.51 109
  -7   1  -1 43681.7 1461.44 105
   7  -1   1 41565.5 1980.81  96
   7   1   1 44922.6 2182.36  96
   7   1   1 45380.8 1468.57  95
   7   1   1 40853.9 1931.42  94
  -7  -1  -1 44700.9 2224.24  92
  -7  -1  -1 40193.3 1979.66  33
   7   1   1 40365.6 2024.44  36
   7  -1   1 44919.3 2226.30  36
  -7  -1  -1 45775.4 1450.80  80
   7  -1   1 46766.2 1457.05  62
   7   1   1 46884.8 1481.05  62
   7   1   1 46035.5 1434.65  61
   7   1   1 41497.3 2075.22  38
   7  -1   1 40206.3 2008.24  38
  -7  -1  -1 44881.1 2283.69  41
  -7  -1  -1 40775.6 2158.96  45
  -7   1  -1 41938.0 2158.21  45
  -7  -1  -2 59292.0 1788.63  24
   7   1   2 60212.4 2679.30  23
   7  -1   2 59847.9 2659.59  23
   7  -1   2 59465.6 2653.80  19
  -7   1  -2 58493.5 1769.97  25
  -7  -1  -2 60553.8 1836.27  25
   7   1   2 59626.5 2575.39   1
  -7   1  -2 55397.4 1787.33  15
  -7  -1  -2 53287.0 1674.00  14
   7   1   2 59384.5 1738.70 103
   7   1   2 56516.1 1676.30 104
  -7  -1  -2 59549.6 1776.88 111
  -7   1  -2 58115.7 1790.85 111
  -7  -1  -2 58304.5 1784.51 105
  -7   1  -2 60139.0 1794.92 109
  -7   1  -2 58579.4 1786.44 105
  -7  -1  -2 61501.3 2653.43  92
   7  -1   2 58044.5 2339.14  96
   7   1   2 61571.1 2602.45  96
   7  -1   2 56507.6 1750.19  95
   7   1   2 59095.0 1807.92  95
   7   1   2 53479.8 2324.90  94
   7   1   2 54266.0 2333.80  36
   7  -1   2 56024.0 2542.22  36
  -7  -1  -2 59221.5 1795.83  80
   7   1   2 56136.4 1687.81  57
   7  -1   2 59482.5 1757.64  62
   7   1   2 60236.2 1805.45  62
   7   1   2 60925.8 1781.61  61
   7   1   2 57018.4 2567.80  38
   7  -1   2 55806.5 2518.53  38
  -7  -1  -2 57406.4 2677.24  41
  -7  -1  -2 58072.8 2569.01  45
  -7   1  -2 54390.0 2498.62  45
  -7  -1  -3 60891.1 1849.35  24
   7   1   3 64050.3 2806.98  23
   7  -1   3 64380.5 2821.16  23
   7   1   3 62966.9 2792.93  19
   7  -1   3 60170.5 2739.83  19
  -7   1  -3 63754.8 1879.22  25
  -7  -1  -3 64306.3 1936.43  25
   7   1   3 62024.1 2704.20   1
  -7   1  -3 60381.6 1890.35  15
   7   1   3 63701.1 1811.94 103
  -7  -1  -3 64523.0 1859.42 111
  -7  -1  -3 62527.3 1852.65 105
  -7   1  -3 64039.3 1910.09 109
  -7   1  -3 60344.5 1844.80 105
  -7  -1  -3 64958.1 2727.55  92
   7   1   3 61055.7 2605.56  96
   7  -1   3 62459.1 1835.00  95
   7   1   3 65245.1 1908.96  95
   7   1   3 60915.1 2489.15  94
   7   1   3 64790.9 1861.37  98
   7  -1   3 59060.5 2594.32  36
  -7  -1  -3 62597.1 1912.88  80
   7  -1   3 62375.4 1870.47  88
   7   1   3 61682.5 1897.96  88
   7   1   3 59000.6 1782.58  57
   7   1   3 62027.6 1831.08  63
   7  -1   3 62923.6 1831.26  62
   7  -1   3 64061.3 1929.88  61
   7   1   3 61761.9 1875.42  61
   7   1   3 58227.5 2674.59  38
   7  -1   3 55877.3 2651.27  38
  -7  -1  -3 58620.9 2562.72  45
  -7   1  -3 59111.4 2560.63  45
  -7  -1  -4 8630.26 521.336  25
  -7  -1  -4 9021.56 479.145  24
   7   1   4 7952.47 444.218  20
   7  -1   4 8495.69 925.523  23
   7   1   4 6180.89 792.673  19
   7  -1   4 7848.67 893.338  19
  -7   1  -4 8968.05 500.211  25
  -7   1  -4 8414.93 459.290 105
  -7  -1  -4 8504.81 465.207 111
  -7  -1  -4 8312.42 452.538 105
  -7   1  -4 9116.53 530.022 109
  -7  -1  -4 8617.00 863.925  92
   7   1   4 8121.46 831.483  96
   7  -1   4 8238.26 449.115  95
   7   1   4 8862.18 508.888  95
   7   1   4 7358.38 757.869  94
   7   1   4 9047.64 497.594  98
   7   1   4 8437.80 900.400   1
  -7   1  -4 8266.61 492.979  15
   7  -1   4 8853.18 482.749  88
   7   1   4 8984.43 516.961  88
   7   1   4 8262.45 451.319  65
   7   1   4 8029.27 443.567  57
   7   1   4 9090.43 485.637  63
   7  -1   4 8829.84 519.765  61
   7   1   4 8825.88 499.727  61
   7   1   4 6856.33 830.641  38
   7  -1   4 8428.37 923.571  38
  -7  -1  -4 8108.84 910.190  41
  -7  -1  -5 4894.92 388.746  25
  -7  -1  -5 4844.96 325.495  24
   7   1   5 4896.42 696.435  23
  -7   1  -5 4982.65 361.318  25
   7   1   5 4892.92 331.430 106
   7   1   5 4868.67 610.132  96
   7   1   5 5435.97 374.680  95
   7  -1   5 5429.30 404.952  98
   7   1   5 5316.38 374.253  98
   7   1   5 4925.07 615.529  94
  -7   1  -5 4812.49 363.342  15
  -7  -1  -5 4676.23 308.136  78
   7  -1   5 4890.44 333.921  88
   7   1   5 5334.21 380.924  88
   7   1   5 4880.59 334.751  65
   7   1   5 4909.30 346.649  63
   7   1   5 4355.66 302.906  55
   7  -1   5 5786.91 400.494  61
  -7  -1  -5 5293.22 710.201  41
  -7   1  -6 9444.24 495.739  15
   7   1   6 10567.0 516.814  95
   7  -1   6 10988.2 559.143  98
   7   1   6 10351.0 520.358  98
   7   1   6 10651.1 860.936  94
   7   1   6 10217.8 484.818 106
  -7  -1  -6 9914.97 535.339 109
  -7   1  -6 10625.3 553.809 109
   7  -1   6 9249.16 443.661  88
   7   1   6 10780.1 527.285  88
   7   1   6 9953.03 482.499  65
   7  -1   6 10469.5 550.810  63
   7   1   6 11358.7 524.634  63
   7  -1   6 10488.6 538.764  55
   7  -1   6 10258.1 526.811  61
   7  -1   6 9556.81 479.471  58
  -7  -1  -6 10437.0 553.328  25
   7   1   6 10000.9 934.457  23
   7  -1   6 10242.2 955.476  23
  -7   1  -6 10534.4 517.047  25
  -7   1  -7 22329.8 782.708  15
   7   1   7 21643.3 762.806 106
  -7  -1  -7 23571.0 843.476 109
  -7   1  -7 23313.6 853.155 109
   7   1   7 22361.3 771.687  65
   7  -1   7 23870.2 856.142  63
   7   1   7 23767.2 808.341  63
   7  -1   7 22346.2 827.003  55
   7  -1   7 21816.2 790.728  60
   7  -1   7 20077.1 745.696  58
  -7  -1  -7 21329.2 835.169  25
  -7   1  -7 22687.4 796.566  25
   7  -1   7 24534.2 869.701  98
   7   1   7 22873.3 818.577  98
   7   1   7 19702.1 1155.50  94
  -7   1  -8 6727.21 317.887  15
   7   1   8 7497.58 358.606  97
   7  -1   8 7899.40 392.848  98
   7   1   8 7410.02 368.570  98
   7  -1   8 7602.60 388.246  63
   7  -1   8 7462.07 377.427  55
   7  -1   8 7064.31 344.954  60
  -7  -1  -8 7649.52 393.477  25
  -7   1  -8 7193.77 345.186  25
   7   1   8 7213.83 330.253 106
  -7  -1  -8 7445.41 372.080 109
  -7   1  -8 7387.35 382.530 109
   7  -1   9 1238.44 132.157  98
   7   1   9 1440.25 136.378  98
  -7  -1  -9 1337.96 121.454 109
  -7   1  -9 1136.06 126.424 109
  -7  -1  -9 1319.10 141.701  25
  -7   2  10 6173.09 285.717   6
  -7   2  10 5187.89 239.865   3
  -7  -2  10 6207.50 294.960 108
   7  -2 -10 5365.60 240.918  85
   7   2 -10 5114.17 257.425  83
   7  -2 -10 6126.71 281.731  82
  -7  -2   9 37038.8 1116.70 108
  -7   2   9 36044.8 1105.83 108
  -7  -2   9 38597.9 1154.19 107
   7   2  -9 35490.3 1074.06 104
   7  -2  -9 36392.8 1045.97  85
   7   2  -9 38002.9 1138.95  85
   7   2  -9 35448.1 1098.53  83
   7  -2  -9 37943.2 1099.08  82
   7  -2  -9 34944.1 1063.80  73
  -7   2   9 38656.7 1114.24   6
   7   2  -9 35892.7 1062.90  21
  -7  -2   8 7593.93 410.373 108
  -7   2   8 7552.39 422.627 108
   7   2  -8 7680.75 387.123 103
  -7  -2   8 8693.72 455.831 107
   7   2  -8 7806.76 416.064 104
   7  -2  -8 7438.09 758.024  96
  -7  -2   8 7408.19 412.049  90
   7  -2  -8 7381.24 359.323  85
   7   2  -8 8529.81 442.187  85
   7  -2  -8 7495.22 379.832  73
   7   2  -8 7738.34 418.257  83
   7  -2  -8 7912.48 399.305  82
  -7   2   8 7690.47 401.096   6
  -7   2   8 7007.56 399.674   5
  -7   2   8 6836.38 370.821  16
   7   2  -8 7403.32 403.221  21
   7  -2  -7 15684.0 1177.46  96
  -7  -2   7 16226.0 700.452  90
   7  -2  -7 14902.6 1194.22  32
  -7  -2   7 13911.6 1070.54  28
   7   2  -7 17374.9 712.200  85
  -7  -2   7 15303.7 646.815  79
   7   2  -7 16495.1 699.207  83
  -7  -2   7 16723.7 676.245 108
  -7   2   7 16200.6 705.135 108
   7   2  -7 16178.7 670.081 103
  -7  -2   7 15891.6 699.772 107
   7   2  -7 16062.8 690.690 104
  -7   2   7 16744.6 658.324   6
  -7   2   7 16342.0 702.335   5
  -7   2   7 15014.2 650.252  16
   7   2  -6 6684.43 387.606  20
   7   2  -6 7093.67 447.968  22
  -7   2   6 7274.60 451.687   5
  -7   2   6 7034.45 433.907  16
  -7  -2   6 7392.61 421.513 108
  -7   2   6 6574.16 394.355 105
  -7   2   6 7661.21 466.383 108
   7   2  -6 7678.68 448.877 103
  -7  -2   6 7792.68 461.396 107
  -7   2   6 6564.57 423.869 107
   7   2  -6 7652.93 460.356 104
  -7  -2   6 6536.61 386.149 105
   7  -2  -6 6889.02 798.857  96
   7   2  -6 5801.94 663.396  96
  -7  -2   6 5769.99 367.220  91
  -7  -2   6 6903.24 452.207  90
  -7  -2   6 6364.70 689.592  92
  -7  -2   6 6914.26 746.762  28
   7  -2  -6 5796.15 770.442  32
  -7  -2   6 6666.97 426.677  79
   7   2  -6 7319.79 443.589  85
  -7   2   6 6849.44 388.546  54
   7  -2  -6 6756.31 805.211  40
   7   2  -5 1752.32 224.416  20
   7   2  -5 1747.11 243.590  22
  -7  -2   5 1323.52 346.011  28
  -7   2   5 1916.39 248.684   5
  -7   2   5 2026.03 252.821  16
  -7   2   5 2136.42 248.866 105
  -7  -2   5 1672.18 208.018 108
   7   2  -5 2501.82 275.208 103
  -7  -2   5 2034.22 248.077 107
  -7  -2   5 1737.38 226.051 105
  -7   2   5 1727.14 240.386 107
  -7  -2   5 1769.25 427.006  92
   7  -2  -5 1353.90 389.982  96
   7   2  -5 2244.86 449.760  96
   7   2  -5 1702.61 193.412  95
  -7  -2   5 1732.01 226.026  91
   7  -2  -5 1533.04 429.658  32
  -7  -2   5 1977.31 254.897  79
   7   2  -5 1971.70 242.977  85
   7   2  -5 2207.80 261.058  83
   7   2  -5 1636.04 184.534  62
   7  -2  -5 1899.28 464.292  40
  -7  -2   4 11148.7 595.986  24
   7   2  -4 11524.2 590.064  20
   7   2  -4 11840.3 615.514  22
  -7  -2   4 9694.58 956.441   2
  -7   2   4 12139.8 613.895  16
  -7   2   4 11923.4 602.495 105
   7   2  -4 11599.2 594.358 103
  -7  -2   4 11909.2 581.700 107
  -7   2   4 12183.9 616.929 107
   7   2  -4 12691.6 626.169 104
  -7   2   4 10244.2 496.250 111
  -7  -2   4 12107.5 600.711 105
   7  -2  -4 12622.6 1063.25  96
   7   2  -4 10299.6 956.995  96
   7   2  -4 10663.7 528.764  95
  -7  -2   4 10622.6 565.564  91
  -7  -2   4 9115.08 945.947  92
  -7  -2   4 10365.2 1007.75  31
   7   2  -4 11121.3 1076.08  36
   7  -2  -4 10208.3 1003.59  36
  -7  -2   4 11485.7 611.546  79
   7   2  -4 11810.9 580.628  85
   7   2  -4 11797.5 597.598  83
   7   2  -4 9759.77 484.957  88
   7   2  -4 10795.0 526.430  62
  -7  -2   4 10665.8 552.768  68
   7  -2  -4 10132.4 1026.12  40
   7  -2  -4 8580.25 951.490  42
  -7  -2   4 10263.8 1050.82  39
  -7   2   4 10691.9 1007.16  45
  -7  -2   3 9588.48 547.034  24
   7   2  -3 8464.63 826.474  23
   7   2  -3 8782.97 518.871  20
  -7  -2   3 7101.35 795.685   2
  -7   2   3 8763.99 522.765  16
  -7   2   3 9821.38 555.318 105
  -7   2   3 8388.23 515.836 108
  -7  -2   3 8224.66 469.190 107
   7   2  -3 9120.99 529.271 104
  -7   2   3 8244.64 457.894 111
  -7  -2   3 9556.65 543.704 105
   7  -2  -3 7662.93 837.404  96
   7   2  -3 9179.91 915.884  96
   7   2  -3 8808.18 481.126  95
  -7  -2   3 8214.15 501.568  91
  -7  -2   3 8320.51 518.490  90
  -7  -2   3 8809.33 933.916  92
  -7  -2   3 7815.32 870.957  31
  -7  -2   3 7826.69 920.298  33
   7   2  -3 7995.35 901.573  36
   7  -2  -3 7298.11 883.741  36
  -7  -2   3 8678.58 535.126  79
   7   2  -3 9790.33 536.443  83
   7   2  -3 7671.81 437.145  88
   7   2  -3 8513.55 474.883  62
  -7  -2   3 9954.90 536.862  68
   7  -2  -3 7563.93 867.397  42
  -7  -2   3 7889.65 920.106  39
  -7  -2   3 8019.58 907.138  45
  -7   2   3 7976.18 891.523  45
  -7  -2   2 8291.34 519.587  24
   7   2  -2 7996.87 834.882  23
   7   2  -2 9409.97 539.314  20
   7   2  -2 8739.03 952.690  19
   7   2  -2 8475.75 513.936  22
  -7  -2   2 7577.57 795.796   2
  -7   2   2 8712.95 525.020  16
   7   2  -2 9123.68 528.820 103
  -7  -2   2 8139.19 453.867 107
   7   2  -2 8963.94 521.984 104
  -7   2   2 8346.90 474.134 111
   7  -2  -2 9046.89 867.572  96
   7   2  -2 7928.49 872.763  96
   7   2  -2 9063.22 496.893  95
  -7  -2   2 8967.23 530.571  91
  -7  -2   2 8599.95 931.014  92
  -7  -2   2 8495.44 896.728  31
  -7  -2   2 7755.70 911.125  33
   7   2  -2 7473.85 853.072  36
   7  -2  -2 7732.92 886.177  36
  -7  -2   2 8204.09 449.679  80
   7   2  -2 8946.65 514.800  83
   7   2  -2 8497.57 468.387  88
   7   2  -2 8656.17 490.188  62
  -7  -2   2 8838.37 520.568  68
  -7  -2   2 7044.59 874.078  39
  -7   2   2 8559.94 936.861  45
  -7  -2   1 34419.6 1247.55  24
   7   2  -1 33770.6 1854.26  23
   7   2  -1 34367.6 1234.07  20
   7  -2  -1 28943.5 1633.81  23
   7   2  -1 34546.0 1219.69  22
  -7  -2   1 34711.7 1231.32  25
  -7   2   1 35341.8 1240.19  16
  -7   2   1 35142.3 1260.09 105
   7   2  -1 35779.0 1236.27 103
   7   2  -1 33515.6 1124.62 102
   7   2  -1 36965.8 1237.61 104
  -7   2   1 33046.4 1179.95 111
  -7  -2   1 34769.1 1247.89 105
   7  -2  -1 33421.6 1730.44  96
   7   2  -1 35982.4 1939.21  96
   7   2  -1 34404.6 1196.50  95
  -7  -2   1 35032.1 1242.37  91
  -7  -2   1 30498.6 1794.53  31
  -7  -2   1 30674.3 1877.06  33
  -7  -2   1 34389.4 1928.10  30
   7   2  -1 34866.9 1872.60  36
   7  -2  -1 33374.0 1960.38  36
  -7  -2   1 33532.4 1163.72  80
  -7  -2   1 35479.8 1269.20  79
   7   2  -1 35101.8 1208.85  83
   7   2  -1 36167.6 1197.84  88
   7  -2  -1 34344.8 1202.37  62
   7   2  -1 36691.3 1222.77  62
  -7  -2   1 35534.2 1244.93  68
  -7  -2   1 33218.7 1875.60  41
  -7  -2   1 33815.0 1921.26  39
  -7   2   1 34746.8 1972.75  45
   7   2   0 4913.05 696.382  23
   7  -2   0 4594.24 654.591  23
   7   2   0 4286.77 684.750  19
   7   2   0 5341.55 390.874  22
  -7  -2   0 5932.15 419.112  25
   7   2   0 4946.58 697.361   1
  -7   2   0 5420.17 425.206  15
  -7   2   0 6238.19 443.444 105
   7   2   0 5999.89 413.643 103
   7   2   0 5690.43 401.129 104
  -7  -2   0 6003.24 434.739 105
  -7   2   0 5105.38 357.233 109
   7   2   0 6194.65 419.328  95
  -7  -2   0 6508.45 454.178  91
  -7  -2   0 5860.46 786.663  92
  -7  -2   0 6391.51 751.954  31
  -7  -2   0 4887.08 701.090  33
  -7  -2   0 4982.81 709.762  30
   7   2   0 4786.40 634.467  36
  -7  -2   0 6035.39 410.029  80
  -7  -2   0 5706.03 423.132  79
   7   2   0 5822.67 399.032  88
   7  -2   0 5171.76 379.988  62
   7   2   0 5985.55 408.713  62
   7   2   0 4947.54 324.069  61
  -7  -2   0 4771.77 685.100  41
  -7  -2   0 4413.58 663.810  39
  -7   2   0 5140.03 737.298  45
  -7  -2  -1 6308.88 438.666  24
   7   2   1 5171.88 726.326  23
   7   2   1 5338.70 401.144  20
   7  -2   1 5602.66 738.283  23
   7   2   1 5457.55 749.478  19
   7   2   1 4965.56 371.965  22
   7  -2   1 5773.68 707.883  19
  -7   2  -1 5440.52 354.342  25
  -7  -2  -1 5380.59 408.482  25
   7   2   1 4356.10 671.386   1
  -7   2  -1 5653.55 426.966  15
  -7   2  -1 5514.44 417.295 105
   7   2   1 5780.48 408.821 103
   7   2   1 6226.67 400.106 104
  -7  -2  -1 5632.46 398.051 111
  -7  -2  -1 5499.71 411.390 105
  -7   2  -1 6097.29 402.539 109
   7   2   1 5524.05 752.518  96
   7   2   1 5775.25 414.216  95
  -7  -2  -1 6778.00 798.390  92
  -7  -2  -1 5264.75 686.281  31
  -7  -2  -1 6105.36 764.878  33
  -7  -2  -1 5223.17 704.312  30
   7  -2   1 5723.41 766.961  36
  -7  -2  -1 5824.24 415.344  80
   7   2   1 6265.35 418.491  88
   7  -2   1 6196.02 393.689  62
   7   2   1 5377.18 348.744  61
  -7  -2  -1 5499.81 752.738  41
  -7  -2  -1 4105.06 603.484  39
  -7   2  -1 5959.17 761.882  45
  -7  -2  -2 30849.5 1150.25  24
   7   2   2 33752.9 1887.85  23
   7   2   2 30677.4 1121.52  20
   7  -2   2 28435.2 1741.68  23
   7   2   2 29061.1 1765.23  19
   7   2   2 29696.8 1061.47  22
   7  -2   2 26567.2 1665.67  19
  -7   2  -2 31110.8 1042.66  25
  -7  -2  -2 30284.7 1139.49  25
  -7   2  -2 30929.7 1164.66  15
   7   2   2 30844.3 1833.42   1
  -7   2  -2 31508.9 1139.20 105
   7   2   2 33556.8 1131.91 103
  -7  -2  -2 32053.2 1094.92 111
   7   2   2 31941.7 1092.46 104
  -7  -2  -2 34206.0 1158.04 105
  -7   2  -2 33587.3 1146.31 109
   7   2   2 32823.5 1816.11  96
   7  -2   2 29280.3 1038.00  95
   7   2   2 33618.5 1154.28  95
   7  -2   2 32310.2 1849.90  94
  -7  -2  -2 34278.1 1854.22  92
  -7  -2  -2 27881.7 1644.79  31
  -7  -2  -2 27791.4 1691.97  33
  -7  -2  -2 30117.7 1646.58  30
   7  -2   2 32875.7 1885.63  36
  -7  -2  -2 33592.8 1177.12  80
   7   2   2 32984.7 1153.54  88
   7  -2   2 32167.9 1063.10  62
   7   2   2 31585.7 1065.22  61
  -7  -2  -2 33318.6 1898.52  41
   7  -2   2 28050.6 1715.60  38
  -7  -2  -2 26685.5 1685.21  45
  -7   2  -2 31591.5 1797.19  45
  -7   2  -3 15141.1 722.765  15
  -7   2  -3 14765.3 673.877 105
  -7  -2  -3 14875.8 632.339 111
   7   2   3 15753.7 679.763 103
   7   2   3 15750.3 650.329 104
  -7  -2  -3 15211.5 674.238 105
  -7   2  -3 15888.1 719.300 109
  -7  -2  -3 14289.0 1129.33  92
   7   2   3 16877.5 1227.76  96
   7  -2   3 14207.1 1201.59  94
   7   2   3 15156.5 606.055  98
  -7  -2  -3 14279.1 1027.58  30
  -7  -2  -3 13462.2 586.778  75
   7  -2   3 14479.9 629.359  88
   7   2   3 16273.6 718.389  88
  -7  -2  -3 14913.1 1233.19  41
  -7  -2  -3 14621.0 695.495  24
   7   2   3 14891.9 669.013  20
   7  -2   3 14961.3 1234.92  23
   7   2   3 14756.7 618.016  22
  -7   2  -3 15158.3 624.230  25
  -7  -2  -3 15718.3 719.563  25
  -7  -2  -4 7716.96 457.553  24
   7   2   4 7013.07 400.481  20
   7   2   4 8453.67 894.349  23
   7  -2   4 6986.07 839.865  23
  -7   2  -4 6803.01 382.709  25
  -7  -2  -4 7485.19 468.077  25
  -7   2  -4 8165.58 438.345 105
   7   2   4 7243.59 419.762 103
  -7  -2  -4 7288.19 416.296 105
  -7   2  -4 8397.08 493.198 109
  -7  -2  -4 7014.36 748.399  92
   7   2   4 8354.14 837.906  96
   7   2   4 7933.57 471.426  95
   7  -2   4 7650.85 856.522  94
   7   2   4 7254.35 394.052  98
  -7   2  -4 7703.24 480.445  15
  -7  -2  -4 8123.78 486.470  80
  -7  -2  -4 7498.71 406.944  75
   7  -2   4 7862.55 479.809  57
   7  -2   4 8015.86 467.957  61
  -7  -2  -4 8244.35 909.974  41
  -7   2  -5 13482.6 627.325  15
   7   2   5 12003.9 984.959  96
   7   2   5 12589.9 593.331  95
   7  -2   5 12467.8 1047.69  94
   7  -2   5 12474.2 611.474  98
   7   2   5 12444.4 531.335  98
   7   2   5 12319.0 528.646 103
  -7  -2  -5 12324.1 603.999  80
  -7  -2  -5 11326.8 507.406  78
   7   2   5 13007.2 602.544  88
  -7  -2  -5 11744.4 532.610  75
   7  -2   5 12438.3 604.736  57
   7  -2   5 12395.2 611.893  63
   7  -2   5 12027.8 600.446  55
   7  -2   5 12677.1 580.711  61
  -7   2  -5 12194.0 535.107  52
  -7  -2  -5 12351.4 566.325  24
   7   2   5 11522.0 1013.69  23
   7  -2   5 12262.0 1067.67  23
  -7  -2  -5 12134.3 597.243  25
  -7   2  -6 3607.41 292.125  15
   7   2   6 3513.99 488.777  96
   7   2   6 4166.74 299.952  95
   7  -2   6 3768.73 302.913  98
   7  -2   6 3813.55 557.164  94
   7   2   6 3429.40 253.072  98
  -7   2  -6 3624.78 306.188 109
  -7  -2  -6 3364.62 246.027  78
   7  -2   6 3516.32 300.026  65
   7  -2   6 3835.14 300.749  57
   7  -2   6 3486.17 290.129  63
   7  -2   6 3812.46 305.439  55
   7  -2   6 3488.03 270.311  61
   7  -2   6 4034.94 305.253  58
  -7  -2  -6 3458.24 253.903  24
   7  -2   6 3246.44 536.340  23
  -7  -2  -6 3852.26 299.408  25
  -7   2  -7 3593.17 265.757  15
   7   2   7 3703.99 268.451  97
   7  -2   7 3485.67 261.731  98
   7   2   7 3444.36 232.498  98
   7  -2   7 3660.79 280.447 106
  -7  -2  -7 4068.22 279.994 109
  -7   2  -7 3352.47 271.175 109
  -7  -2  -7 3383.73 227.174  78
   7  -2   7 3658.32 277.045  65
   7  -2   7 3629.93 265.455  63
   7  -2   7 3642.24 272.023  55
   7  -2   7 3498.58 266.755  60
   7  -2   7 3881.63 265.861  58
  -7  -2  -7 4350.88 288.831  25
  -7   2  -8 1232.08 135.836  15
  -7   2  -8 1007.98 138.694 109
   7  -2   8 1360.82 151.723 106
  -7  -2  -8 1376.41 140.189 109
   7  -2   8 1496.05 155.894  65
   7  -2   8 1384.05 144.732  63
   7  -2   8 1281.86 145.425  60
  -7  -2  -8 1255.15 145.068  25
   7   2   8 1341.49 145.507  97
   7  -2   8 1306.59 139.891  98
  -7   2  -9 1722.06 128.497  51
  -7  -2  -9 1589.96 121.943  25
   7  -2   9 1733.68 127.281 106
  -7  -3   9 2046.13 168.589 107
  -7   3   9 1818.21 154.454   3
   7   3  -9 2008.14 151.166  21
  -7  -3   8 13518.7 534.263  90
  -7  -3   8 12153.5 448.885 108
  -7  -3   8 13318.1 525.459 107
   7   3  -8 12169.4 464.652 104
   7   3  -8 12476.2 487.169  83
   7  -3  -8 12629.1 453.340  82
  -7   3   8 12637.8 499.670  16
   7   3  -8 14201.1 532.673  21
  -7  -3   7 2314.70 236.353  90
  -7  -3   7 2292.51 220.821 107
   7   3  -7 2324.39 207.841 104
  -7  -3   7 2606.08 235.400  79
   7   3  -7 2151.35 206.738  83
   7   3  -7 2269.48 224.270  21
  -7   3   7 2270.18 228.097   5
  -7   3   7 2027.69 212.180  16
  -7   3   6 13.5786 108.557  16
  -7  -3   6 9.79626 75.7314 105
   7   3  -6 121.203 89.0472 103
  -7   3   6 79.8608 84.0406 105
  -7  -3   6 72.7359 108.826 107
   7   3  -6 63.0477 92.8272 104
   7  -3  -6 223.434 210.679  96
  -7  -3   6 47.0991 99.1224  91
  -7  -3   6 167.173 121.780  79
   7   3  -6 141.385 98.1908  83
  -7   3   6 114.264 78.5778  54
   7   3  -6 38.2462 74.7720  20
   7   3  -6 70.1280 94.9770  21
  -7   3   5 6770.76 424.025   5
  -7   3   5 6460.49 419.250  16
  -7   3   5 6795.27 408.231 105
  -7  -3   5 6277.02 379.725 107
   7   3  -5 6831.10 401.186 103
   7   3  -5 6128.16 401.853 104
  -7  -3   5 7237.26 407.825 105
   7  -3  -5 5824.62 672.287  96
  -7  -3   5 6327.52 402.793  91
  -7  -3   5 7267.50 448.543  90
  -7  -3   5 5590.44 688.285  92
  -7  -3   5 4326.23 580.951  28
   7  -3  -5 5162.25 698.200  32
  -7  -3   5 6368.23 427.597  79
   7   3  -5 6450.81 402.414  83
  -7   3   5 5971.52 372.461  54
  -7  -3   5 6551.56 382.381  68
   7   3  -5 6177.18 378.036  20
  -7   3   4 4176.66 337.710 105
  -7  -3   4 3809.88 290.114 107
   7   3  -4 3824.38 314.096 103
   7   3  -4 3487.18 318.365 104
  -7  -3   4 3937.88 329.830 105
   7  -3  -4 3563.31 520.972  96
  -7  -3   4 3252.46 558.157  92
   7   3  -4 3015.25 460.698  96
  -7  -3   4 3492.18 324.906  91
  -7  -3   4 4074.21 341.565  90
  -7   3   4 3431.10 312.609   5
  -7   3   4 4051.69 341.924  16
  -7  -3   4 3847.27 343.951  79
  -7   3   4 4050.37 328.615  54
  -7  -3   4 3775.98 313.262  68
  -7  -3   4 3584.68 309.135  24
   7   3  -4 4425.13 333.303  20
  -7  -3   3 59231.9 1758.83  24
   7   3  -3 58933.9 1759.87  20
   7   3  -3 56819.6 1753.34  22
  -7   3   3 58336.7 1781.48 105
   7   3  -3 58203.7 1730.50 102
   7   3  -3 59475.6 1758.82 103
  -7  -3   3 59265.2 1777.55 105
   7  -3  -3 52460.9 2250.07  96
   7   3  -3 60209.9 2408.43  96
  -7  -3   3 57890.1 1777.17  91
   7   3  -3 51624.5 1578.08  95
  -7  -3   3 59523.5 1777.22  90
  -7  -3   3 59002.4 2615.73  92
  -7   3   3 58101.5 1732.88   5
  -7   3   3 61152.7 1793.66  16
  -7  -3   3 51550.3 1599.16  80
  -7   3   3 59575.9 1768.86  54
  -7  -3   3 57802.2 1751.68  68
   7  -3  -3 61239.8 2649.82  40
  -7  -3   2 1352.50 216.569  24
   7   3  -2 1018.32 195.869  20
   7   3  -2 1478.42 384.677  23
   7   3  -2 1078.46 192.748  22
  -7   3   2 1274.42 192.198   5
  -7   3   2 1269.51 204.107  14
   7   3  -2 1273.47 209.209 103
   7   3  -2 1263.64 194.943 102
   7   3  -2 1276.55 219.242 104
   7   3  -2 1205.80 330.927  96
   7   3  -2 1254.03 167.430  95
  -7  -3   2 1313.74 225.126  91
  -7  -3   2 1335.22 196.106  80
  -7  -3   2 1021.38 220.315  79
  -7  -3   2 1399.25 224.851  68
   7  -3  -2 1253.65 373.401  40
  -7   3   1 29974.3 1023.59   5
  -7   3   1 32205.4 1124.31  16
  -7   3   1 30408.6 1096.26  14
  -7   3   1 30631.7 1139.71 105
   7   3  -1 29546.9 1090.12 104
   7   3  -1 29850.9 1036.20 102
  -7  -3   1 30175.5 1120.83 105
   7   3  -1 28713.2 1652.18  96
   7   3  -1 30491.2 1027.07  95
  -7  -3   1 32107.2 1841.49  92
  -7  -3   1 30367.3 1796.10  30
  -7  -3   1 28643.4 1045.62  80
  -7  -3   1 30438.0 1121.69  79
   7   3  -1 27140.1 965.990  88
   7  -3  -1 27939.8 1019.43  62
  -7  -3   1 30734.3 1121.85  24
   7   3  -1 28312.0 1686.28  23
   7   3  -1 32036.5 1122.53  20
   7   3  -1 30724.2 1072.97  22
  -7   3   0 323.164 111.598   5
  -7   3   0 405.878 152.063  16
  -7   3   0 508.013 138.137  14
  -7   3   0 333.414 112.526 109
  -7  -3   0 189.430 130.179 105
   7   3   0 294.914 142.100 103
  -7   3   0 458.712 179.033 105
   7   3   0 363.415 114.720 102
   7   3   0 433.070 150.236 104
  -7  -3   0 473.941 287.987  92
   7   3   0 270.009 220.606  96
   7   3   0 332.745 120.313  95
  -7  -3   0 411.055 293.729  30
  -7  -3   0 269.169 137.338  80
  -7  -3   0 190.056 139.808  79
   7   3   0 294.473 106.966  88
   7  -3   0 278.221 102.460  62
  -7  -3   0 257.667 151.691  68
  -7  -3   0 332.369 151.692  24
   7   3   0 467.004 266.573  23
   7  -3   0 291.576 214.436  23
   7   3   0 364.590 129.300  22
  -7  -3  -1 3471.57 336.505  24
   7   3   1 3697.33 320.563  20
   7   3   1 2821.94 533.441  23
   7  -3   1 2442.04 478.794  23
   7   3   1 3214.07 268.288  22
  -7  -3  -1 3262.82 289.978  25
  -7   3  -1 3554.80 315.174  16
  -7   3  -1 3723.67 341.964  15
  -7   3  -1 3490.41 316.861  14
  -7   3  -1 3125.89 283.041 109
  -7   3  -1 3447.65 331.460 105
   7   3   1 3270.22 305.273 103
  -7  -3  -1 3612.55 287.306 111
   7   3   1 3888.53 325.036 104
  -7  -3  -1 3639.80 327.220 105
   7  -3   1 3203.99 561.299  94
   7   3   1 4346.92 622.502  96
  -7  -3  -1 2887.47 555.769  92
   7   3   1 3737.39 307.403  95
  -7  -3  -1 3700.59 342.322  91
  -7  -3  -1 2339.82 514.553  30
  -7  -3  -1 3423.72 316.031  80
   7   3   1 3032.15 271.656  88
  -7   3  -1 3454.05 314.562  54
  -7  -3  -1 3069.14 301.218  68
  -7  -3  -1 4018.37 596.316  41
   7   3   2 6351.09 406.602  20
   7   3   2 5811.89 754.697  23
   7  -3   2 5301.44 713.450  23
  -7  -3  -2 5750.06 376.142  25
  -7   3  -2 5988.44 391.822  16
  -7   3  -2 6431.04 416.889  14
  -7   3  -2 5470.19 395.032 105
   7   3   2 5869.55 396.950 103
   7   3   2 5997.51 394.335 104
  -7  -3  -2 5623.73 392.299 105
  -7   3  -2 6085.90 401.258 109
   7   3   2 6635.38 407.808  95
   7  -3   2 5624.26 705.974  94
  -7  -3  -2 5546.89 688.526  92
  -7  -3  -2 5631.60 692.826  30
  -7  -3  -2 6756.06 434.510  80
  -7  -3  -2 4528.03 305.308  75
   7   3   2 5829.71 375.836  88
  -7   3  -2 5766.55 391.499  54
  -7  -3  -2 4502.75 646.726  41
  -7   3  -3 36176.3 1160.72  16
  -7   3  -3 38862.3 1234.54  14
  -7   3  -3 35521.7 1182.86 105
   7   3   3 36676.8 1174.65 104
   7   3   3 35758.5 1195.19 103
  -7  -3  -3 37196.2 1180.27 105
  -7   3  -3 36971.9 1214.97 109
  -7  -3  -3 34920.5 1750.08  92
   7   3   3 37089.4 1851.84  96
   7   3   3 38810.9 1217.08  95
   7  -3   3 32842.8 1766.76  94
  -7  -3  -3 34959.6 1733.68  30
  -7  -3  -3 32426.7 1091.61  75
   7   3   3 39580.6 1216.11  88
   7  -3   3 35636.1 1195.88  57
   7  -3   3 34961.7 1154.30  61
  -7   3  -3 38016.9 1215.54  52
  -7   3  -3 35441.2 1158.18  54
  -7  -3  -3 37739.8 1246.49  24
   7   3   3 33323.9 1142.00  20
   7  -3   3 31676.8 1813.48  23
  -7  -3  -3 35174.1 1167.01  25
  -7   3  -4 12039.1 530.638 105
  -7  -3  -4 12617.6 530.460 105
   7   3   4 13684.7 556.874 104
   7   3   4 13295.1 578.983 103
  -7   3  -4 14535.5 630.364 109
   7   3   4 12476.6 993.744  96
   7   3   4 13110.3 585.600  95
   7  -3   4 11006.7 930.083  94
  -7   3  -4 11984.6 519.941  16
  -7   3  -4 12339.1 608.174  15
  -7   3  -4 14204.3 613.189  14
  -7  -3  -4 13829.1 622.139  80
  -7  -3  -4 11681.2 520.197  75
   7  -3   4 12596.7 580.068  57
   7  -3   4 13250.9 587.920  63
  -7   3  -4 13130.9 531.921  51
   7  -3   4 13524.2 599.241  55
   7  -3   4 12210.2 532.731  61
  -7   3  -4 12791.3 522.591  54
  -7   3  -4 13894.2 585.043  52
  -7  -3  -4 13573.4 614.017  24
   7   3   4 12948.4 525.763  20
   7   3   4 13240.8 1049.66  23
   7  -3   4 9787.54 957.478  23
  -7  -3  -4 12196.7 554.153  25
  -7  -3  -5 16003.4 637.386  24
  -7  -3  -5 15347.5 597.220  25
  -7   3  -5 15765.3 653.243 109
   7   3   5 15578.6 596.262 103
   7   3   5 15262.7 628.687  97
   7   3   5 14910.5 1028.51  96
   7  -3   5 14582.6 604.369  98
   7  -3   5 14065.9 977.289  94
  -7   3  -5 14873.4 647.129  15
  -7   3  -5 16424.0 644.537  14
  -7  -3  -5 16674.4 658.227  80
  -7  -3  -5 14430.3 574.894  75
   7  -3   5 15276.4 617.997  57
   7  -3   5 16140.4 620.065  63
  -7   3  -5 15745.5 588.890  51
   7  -3   5 14701.1 617.094  55
  -7   3  -5 14388.5 584.327  52
   7   3   5 14169.3 558.858  49
  -7   3  -6 2535.24 228.068  15
  -7   3  -6 2611.93 224.148  14
   7   3   6 2615.35 188.968   8
   7  -3   6 2665.70 220.321 106
   7  -3   6 2650.65 218.514  65
   7  -3   6 2691.91 206.533  63
  -7   3  -6 2942.32 215.777  51
   7  -3   6 3258.74 238.881  55
   7  -3   6 2984.53 239.643  58
  -7  -3  -6 2805.24 215.088  24
  -7  -3  -6 2538.45 202.774  25
   7  -3   6 2881.60 213.129  98
   7   3   7 12514.7 438.425  17
  -7   3  -7 12924.9 480.386  15
  -7   3  -7 12668.6 455.580  14
   7   3   7 11561.8 407.237   8
   7  -3   7 11130.4 430.215 106
  -7  -3  -7 12311.7 451.870 109
   7  -3   7 11871.0 440.917  65
  -7   3  -7 12613.0 443.040  51
   7  -3   7 11691.1 459.486  58
   7  -3   7 9870.12 378.154  98
  -7  -3  -7 10581.9 398.322  25
  -7   3  -8 1035.91 100.794  15
  -7   3  -8 816.778 83.7782  14
   7   3   8 948.971 94.8799  97
   7  -3   8 908.371 93.9902  66
   7   4  -8 1828.68 126.786  13
  -7   4   8 1936.17 139.350   3
  -7  -4   7 2914.97 204.119  79
   7   4  -7 3090.81 194.464  13
  -7   4   7 2940.01 207.334  16
   7   4  -7 3198.86 211.552  21
  -7  -4   6 15541.3 592.668  79
   7   4  -6 14769.3 575.613 102
   7   4  -6 14624.2 524.275 104
  -7   4   6 16546.2 596.680   3
  -7   4   6 15981.7 590.455  16
  -7  -4   6 14262.2 551.261  91
  -7  -4   6 15051.7 583.478  90
   7   4  -5 5969.94 310.106  12
  -7   4   5 6037.22 354.262  16
  -7  -4   5 5573.23 336.020  91
  -7  -4   5 5010.62 326.426  90
   7   4  -5 5741.14 341.806 102
   7   4  -5 6354.57 330.520 104
  -7  -4   5 5920.43 312.735 105
  -7  -4   5 5395.97 307.454  68
  -7   4   5 5596.60 301.371  54
   7   4  -5 6339.51 315.954  20
   7   4  -5 5970.62 348.701  21
  -7  -4   4 4534.56 329.321  91
  -7  -4   4 5494.69 343.410  90
  -7   4   4 5173.72 333.658 105
   7   4  -4 5000.39 301.640 103
   7   4  -4 5776.00 349.245 102
   7   4  -4 5172.37 325.053 104
  -7  -4   4 5630.17 341.347 105
  -7  -4   4 5868.09 372.883  79
  -7   4   4 5450.05 328.832  54
  -7  -4   4 5552.10 336.661  68
   7   4  -4 5621.55 331.517  20
   7   4  -4 5637.35 342.541  21
  -7   4   3 984.846 170.387  16
  -7  -4   3 732.446 167.127  91
  -7  -4   3 697.270 156.293 105
  -7   4   3 833.376 175.284 105
   7   4  -3 821.669 144.066 103
   7   4  -3 684.023 141.041 102
   7   4  -3 867.411 158.377 104
  -7  -4   3 1004.18 184.706  79
  -7   4   3 911.165 164.850  54
  -7   4   3 658.824 121.177  52
   7  -4  -3 690.059 123.978  62
  -7  -4   3 811.181 160.229  68
  -7  -4   3 832.183 144.554  24
   7   4  -3 854.475 163.572  20
   7   4  -3 973.013 160.521  21
  -7   4   2 12915.3 592.610  16
  -7  -4   2 12139.7 1011.39  92
   7   4  -2 14021.3 593.887 103
   7   4  -2 12852.5 576.929 102
  -7  -4   2 12935.6 551.138  80
  -7  -4   2 14221.4 627.684  79
  -7   4   2 13102.1 553.855  53
  -7   4   2 14016.7 574.430  52
  -7  -4   2 14255.7 623.986  68
  -7  -4   2 13099.3 582.032  24
   7   4  -2 15034.8 629.073  20
   7   4  -2 13026.0 564.742  21
   7   4  -1 10153.7 449.291  17
  -7   4   1 9946.44 493.661  16
   7   4  -1 9656.11 477.416 102
  -7   4   1 10593.8 541.726 105
   7   4  -1 9684.89 495.534 103
  -7  -4   1 11027.3 543.065 105
   7   4  -1 9459.65 773.291  96
  -7  -4   1 10155.3 529.849  91
   7  -4  -1 8636.06 769.754  94
  -7  -4   1 10343.8 914.059  92
  -7  -4   1 9954.31 485.561  80
  -7  -4   1 10352.1 519.636  79
  -7   4   1 10161.6 494.055  52
  -7   4   1 10005.3 513.237  54
  -7  -4   1 10509.4 526.017  68
  -7  -4   1 10429.7 516.701  24
   7   4  -1 11038.4 528.208  20
   7   4  -1 9149.81 442.843  21
   7   4   0 24529.2 846.163  17
  -7   4   0 23722.0 853.558  16
  -7   4   0 24152.3 919.428 105
   7   4   0 24735.1 894.258 104
  -7  -4   0 25127.7 909.026 105
   7   4   0 20484.0 1245.05  96
  -7  -4   0 26119.2 931.597  91
   7  -4   0 18855.6 1193.00  94
  -7  -4   0 22557.2 1384.91  92
  -7  -4   0 23852.9 1443.79  30
  -7  -4   0 24860.5 888.148  80
  -7   4   0 25854.8 892.601  52
  -7   4   0 24509.8 895.727  54
  -7  -4   0 24043.2 897.418  68
  -7  -4   0 26459.2 921.518  24
   7   4   1 17147.1 657.014  17
  -7   4  -1 14803.7 600.530  16
  -7   4  -1 14792.1 601.647  14
  -7   4  -1 15012.9 670.288 105
  -7  -4  -1 15885.1 667.235 105
   7   4   1 17392.8 676.900 104
   7   4   1 15422.3 1047.48  96
  -7  -4  -1 17672.5 698.658  91
  -7  -4  -1 15714.7 1124.43  30
  -7  -4  -1 16203.7 667.388  80
   7  -4   1 13078.5 572.759  57
  -7   4  -1 16514.6 664.315  54
  -7  -4  -1 15414.9 654.571  68
  -7  -4  -1 16881.7 687.736  24
   7   4   1 16892.2 664.563  20
   7   4   2 7546.20 405.173  17
  -7   4  -2 6741.49 357.959  14
  -7   4  -2 6831.75 396.138 105
  -7  -4  -2 7144.81 392.736 105
   7   4   2 7562.19 403.495 104
   7   4   2 7408.16 405.375 103
   7   4   2 7388.25 694.417  96
  -7  -4  -2 7516.03 726.048  30
  -7  -4  -2 7364.91 412.015  80
   7  -4   2 5818.81 337.213  55
  -7   4  -2 7504.43 394.015  54
  -7   4  -2 7479.15 401.860  52
   7   4   2 7221.01 387.978  20
  -7  -4  -2 7845.07 427.099  24
   7   4   3 6720.19 371.084 103
  -7  -4  -3 7519.70 361.322 105
   7   4   3 7606.09 379.901 104
   7   4   3 7283.79 340.913  97
   7   4   3 7213.80 386.683  17
  -7   4  -3 7338.46 393.561  15
  -7   4  -3 6358.10 332.950  14
   7  -4   3 5527.65 306.094  63
  -7   4  -3 6835.85 342.816  54
  -7   4  -3 8156.91 396.680  52
   7   4   3 7266.35 350.611  20
  -7  -4  -3 7453.65 404.060  24
   7  -4   4 886.890 113.561 106
   7   4   4 792.520 114.426  97
   7   4   4 858.801 135.772  17
  -7   4  -4 824.328 138.420  15
  -7  -4  -4 1083.88 150.557  80
  -7   4  -4 1008.76 140.376  52
   7   4   4 965.362 132.914  49
   7   4   5 4313.29 225.086  49
   7   4   5 4179.58 226.582  97
  -7   4  -5 4828.65 268.816  15
  -7  -4  -5 5035.16 268.029  80
   7  -4   5 4378.87 259.797  58
  -7  -4  -5 4817.32 263.842  24
   7   4   6 16386.1 521.701  97
   7   4   6 17880.9 550.278  17
  -7   4  -6 18316.3 564.931  15
   7  -4   6 17172.2 550.581  60
  -7  -4  -6 18099.5 543.497  24
  -7  -5   4 451.997 85.7317  79
   7   5  -4 445.211 69.5250  12
  -7   5   4 536.488 82.9569  16
   7   5  -4 419.253 67.6291  20
  -7  -5   3 14424.9 503.506 105
   7   5  -3 13688.3 476.220 104
  -7  -5   3 14824.1 526.750  91
   7   5  -3 14959.7 501.862  12
  -7   5   3 13972.0 479.990  16
  -7  -5   3 15140.6 516.497  79
  -7  -5   3 14790.6 510.210  68
  -7   5   3 14291.6 496.429  54
   7   5  -3 14932.2 500.102  20
  -7  -5   2 4975.49 278.458 105
   7   5  -2 5342.96 269.894 104
  -7  -5   2 4960.02 280.212  91
   7   5  -2 5489.14 279.082  12
  -7   5   2 6095.18 293.055  54
   7   5  -2 5582.48 283.012  20
   7   5  -1 15089.5 506.889 103
  -7  -5   1 15850.5 557.139 105
   7   5  -1 15948.3 541.326 104
  -7  -5   1 15864.3 556.075  91
  -7  -5   1 14048.8 502.461  80
   7   5  -1 15379.5 542.384  20
  -7  -5   1 13514.9 471.303  24
  -7   5   1 14847.0 508.740  53
  -7  -5   1 14898.0 541.123  68
  -7   5   1 14969.3 542.599  54
   7   5  -1 16084.9 550.874  12
   7   5   0 24335.0 755.620 103
  -7  -5   0 25365.4 786.593 105
  -7  -5   0 23823.1 757.644  80
  -7   5   0 25944.6 774.079  53
  -7   5   0 25590.1 782.571  54
  -7  -5   0 24676.6 740.888  24
   7   5   1 1979.51 159.221  12
  -7  -5  -1 2095.55 166.641 105
  -7  -5  -1 2013.66 164.701  80
  -7   5  -1 2105.24 171.092  53
  -7   5  -1 2140.61 164.497  54
   7   5   1 2171.83 161.086  20
  -7  -5  -1 1960.03 156.926  24
   7   5   1 1920.13 137.917  17
   7   5   2 6934.98 280.265  17
   7   5   2 6846.29 270.940  20
   7   5   2 6771.40 272.079  12
  -7  -5  -2 6705.20 275.864 105
  -7   5  -2 5990.15 262.677  54
   7   5   2 6818.38 302.598  49
  -7  -5  -3 2191.93 147.176  80
  -7   5  -3 2298.93 149.120  53
   7   5   3 2011.53 137.581  49
  -7  -5  -3 2151.55 144.886  24
   7   5   3 2096.70 136.036  17
   8   0 -10 6290.55 263.076 103
  -8   0  10 7360.22 305.423 108
  -8   0  10 6348.20 268.986 107
   8   0 -10 7033.98 293.656 104
   8   0  -9 6767.91 317.691  85
   8   0  -9 7584.29 359.006  83
   8   0  -9 7460.34 336.826  82
   8   0  -9 6873.18 343.079 103
  -8   0   9 7319.91 360.625 108
  -8   0   9 6913.48 346.278 107
   8   0  -8 10393.1 452.836  85
   8   0  -8 11060.0 499.064  83
   8   0  -8 11108.9 471.862  82
   8   0  -8 10997.8 509.530 103
  -8   0   8 12014.0 526.965 108
  -8   0   8 11412.4 512.493 107
   8   0  -8 11969.3 522.971 104
  -8   0   8 10788.0 451.493   5
  -8   0   7 5115.78 352.190 108
   8   0  -7 5208.99 358.412 104
   8   0  -7 4677.79 601.129  96
   8   0  -7 5006.05 306.131  85
   8   0  -7 5757.79 356.102  83
   8   0  -7 4934.91 311.975  82
   8   0  -7 5041.21 325.556  62
   8   0  -7 4923.77 295.147  22
  -8   0   6 1598.05 223.097 108
  -8   0   6 1247.58 171.968 105
  -8   0   6 1417.21 212.129 107
  -8   0   6 1199.31 172.490 111
   8   0  -6 1404.06 209.504 104
   8   0  -6 927.669 311.020  96
   8   0  -6 1220.74 163.671  85
   8   0  -6 1398.71 195.878  83
   8   0  -6 1282.97 168.827  82
   8   0  -6 1126.37 296.369  29
   8   0  -6 1441.07 198.018  62
   8   0  -6 1056.72 162.107  20
   8   0  -6 897.106 158.663  22
  -8   0   5 7595.92 460.589 108
  -8   0   5 7335.82 461.337 107
   8   0  -5 7999.34 469.254 104
  -8   0   5 7350.97 437.216 111
  -8   0   5 8049.28 452.950 105
   8   0  -5 6327.79 688.681  29
   8   0  -5 6652.40 733.889  32
   8   0  -5 8023.10 449.619  83
   8   0  -5 7375.34 390.064  82
   8   0  -5 7894.77 464.980  62
   8   0  -5 8371.62 465.789  22
   8   0  -4 4447.35 350.388  22
  -8   0   4 3312.52 279.051  16
   8   0  -4 3749.82 335.817 103
  -8   0   4 3248.62 304.652 108
  -8   0   4 3883.92 333.821 107
   8   0  -4 4940.22 359.604 104
  -8   0   4 3667.29 325.530 111
  -8   0   4 3742.76 330.963 105
   8   0  -4 4508.66 654.321  96
  -8   0   4 2702.75 464.687  92
   8   0  -4 2971.89 494.720  32
   8   0  -4 3892.84 310.079  83
   8   0  -4 3815.98 333.626  62
   8   0  -4 3319.73 545.963  40
  -8   0   3 6260.50 402.743  16
   8   0  -3 6937.40 441.574 103
  -8   0   3 6068.43 404.906 108
  -8   0   3 5951.23 415.310 107
   8   0  -3 6538.41 418.646 104
  -8   0   3 6645.09 439.540 111
  -8   0   3 6882.52 450.474 105
  -8   0   3 6198.89 728.842  92
   8   0  -3 5775.29 756.407  96
   8   0  -3 4689.57 634.434  32
   8   0  -3 5845.60 377.607  83
   8   0  -3 6403.10 435.775  62
   8   0  -3 6803.99 761.018  40
   8   0  -2 1267.06 207.955 103
  -8   0   2 1250.98 189.958 108
  -8   0   2 1010.02 197.012 107
  -8   0   2 1063.49 209.533 111
   8   0  -2 1256.76 188.098 104
  -8   0   2 718.081 320.121  92
   8   0  -2 1262.55 389.526  96
   8   0  -2 1061.47 313.678  32
   8   0  -2 1232.24 180.472  83
  -8   0   2 1712.90 212.155  14
   8   0  -2 887.295 291.792  40
  -8   0   1 39576.9 1346.17  14
  -8   0   1 43084.9 2138.18  92
   8   0  -1 42409.2 2098.98  96
   8   0  -1 42114.1 1352.76 103
  -8   0   1 41722.6 1354.89 107
   8   0  -1 41730.8 1305.19 104
  -8   0   1 43670.7 1432.70 105
   8   0  -1 37759.4 2082.75  36
   8   0  -1 43254.1 1411.70  62
   8   0  -1 40525.0 1966.37  23
   8   0  -1 39475.8 2097.92  19
  -8   0   0 117700. 3164.18  14
  -8   0   0 122972. 4224.77  92
   8   0   0 114941. 4072.79  96
   8   0   0 112932. 3191.39  95
   8   0   0 106177. 3945.03  94
   8   0   0 118097. 3117.74 103
  -8   0   0 117313. 3201.42 111
  -8   0   0 118312. 3100.22 109
  -8   0   0 119098. 3216.44 105
   8   0   0 124315. 3226.22  62
   8   0   0 116238. 4068.36  23
  -8   0   0 120047. 3229.40  25
  -8   0  -1 12861.7 617.023  14
   8   0   1 11623.3 1008.84  96
   8   0   1 13396.8 645.733  95
   8   0   1 13108.6 1062.53  94
   8   0   1 12846.8 571.798 103
  -8   0  -1 12218.3 629.470 111
  -8   0  -1 13137.7 610.941 109
  -8   0  -1 13166.0 647.571 105
   8   0   1 12338.4 640.193  88
   8   0   1 13953.5 654.402  62
   8   0   1 12293.7 625.193  61
  -8   0  -1 12463.7 603.227  24
   8   0   1 12745.9 1099.17  23
  -8   0  -1 13370.5 664.988  25
  -8   0  -2 2887.14 284.694  14
   8   0   2 3240.82 518.899  94
   8   0   2 3210.79 516.977  96
   8   0   2 3355.60 307.925  95
  -8   0  -2 3584.57 316.486 111
  -8   0  -2 3240.40 299.307 109
  -8   0  -2 3531.11 313.296 105
   8   0   2 3085.44 307.123  88
   8   0   2 3314.82 295.297  57
   8   0   2 3233.70 301.742  62
   8   0   2 3800.57 323.643  61
  -8   0  -2 3126.65 274.513  24
   8   0   2 2965.62 540.550  23
  -8   0  -2 3239.58 314.070  25
  -8   0  -3 722.753 160.261  14
   8   0   3 540.390 252.969  94
   8   0   3 598.166 242.117  96
   8   0   3 791.091 161.045  95
  -8   0  -3 704.805 167.378 109
  -8   0  -3 921.843 175.145 105
   8   0   3 704.359 169.209  88
   8   0   3 783.458 154.833  57
   8   0   3 622.229 145.013  63
   8   0   3 814.273 171.024  61
  -8   0  -3 897.045 187.690  25
   8   0   3 859.104 309.815  23
  -8   0  -4 3719.88 292.745  14
   8   0   4 3757.90 291.838  95
   8   0   4 3886.55 548.616  94
   8   0   4 4001.65 315.790  98
  -8   0  -4 3798.14 320.554 109
  -8   0  -4 3284.53 260.989 105
   8   0   4 3768.70 300.211  88
   8   0   4 3365.37 276.967  65
   8   0   4 3286.72 285.874  57
   8   0   4 3564.16 296.174  63
   8   0   4 3147.10 255.694  20
   8   0   4 3039.63 522.109  23
  -8   0  -4 3581.95 313.316  25
  -8   0  -5 657.293 134.835  14
   8   0   5 668.615 251.660  94
   8   0   5 590.056 123.249  95
   8   0   5 773.523 160.905  98
   8   0   5 681.719 138.094 106
   8   0   5 667.222 139.959  88
   8   0   5 800.113 141.641  65
   8   0   5 769.346 136.220  57
   8   0   5 782.549 153.295  63
   8   0   5 701.135 132.167  55
  -8   0  -5 719.874 161.050  25
  -8   0  -6 5783.65 318.957  14
   8   0   6 5658.55 296.463  95
   8   0   6 5716.44 345.199  98
   8   0   6 5804.20 332.584 106
  -8   0  -6 6465.65 367.496 109
   8   0   6 6386.86 326.978  88
   8   0   6 5599.19 319.452  65
   8   0   6 5976.11 340.911  63
   8   0   6 5314.04 307.175  55
  -8   0  -6 6397.87 360.733  25
  -8   0  -7 2569.59 179.708  14
   8   0   7 2159.77 161.608  97
   8   0   7 2841.32 211.687  98
   8   0   7 2793.23 192.592  65
   8   0   7 2665.90 202.209  63
  -8   0  -7 2818.73 208.967  25
   8   0   7 2741.92 196.379 106
  -8   0  -7 2621.26 209.607 109
  -8   0  -8 155.565 66.2874 109
  -8   0  -8 213.548 64.2709  25
   8   0   8 111.051 60.5571  98
   8  -1 -10 12040.7 415.800 103
  -8  -1  10 12411.7 420.922 108
  -8  -1  10 13012.2 426.112 107
   8   1  -9 2688.83 196.257  85
   8  -1  -9 3278.37 214.821  83
   8  -1  -9 3068.07 188.377  82
  -8  -1   9 3144.77 217.382 108
  -8   1   9 2525.48 205.162 108
   8   1  -9 2970.60 192.271 103
   8  -1  -9 3221.46 223.782 104
   8   1  -9 3165.26 211.680 104
  -8   1   9 2862.26 188.625   6
  -8   1   8 13074.8 521.163   5
  -8  -1   8 13252.3 541.862 108
   8   1  -8 14020.4 544.488 103
  -8  -1   8 13080.6 554.540 107
   8  -1  -8 13830.4 560.265 104
  -8   1   8 13639.8 545.862 107
   8   1  -8 13986.7 557.157 104
   8   1  -8 13260.8 525.638  85
   8  -1  -8 12428.5 521.398  83
   8   1  -8 13077.6 545.190  83
   8  -1  -8 13045.7 492.122  82
   8  -1  -8 11328.3 508.231  62
   8   1  -8 12770.1 483.592  21
  -8   1   7 8423.62 434.684   5
   8   1  -7 8762.00 451.280 103
  -8  -1   7 8072.20 426.159 108
  -8   1   7 8265.53 449.396 108
  -8  -1   7 8288.33 446.726 107
  -8   1   7 9025.87 455.331 107
  -8  -1   7 8287.07 417.926 111
   8   1  -7 8007.31 734.283  96
   8   1  -7 8162.25 413.223  85
   8   1  -7 8248.44 437.103  83
   8  -1  -7 7154.51 363.187  82
   8  -1  -7 7563.34 422.670  62
   8   1  -7 8238.04 413.234  22
  -8   1   6 1030.95 179.799   5
  -8   1   6 864.187 144.989  16
   8   1  -6 955.097 179.900 103
  -8  -1   6 1066.68 174.703 108
  -8   1   6 929.364 186.079 108
  -8  -1   6 879.665 145.768 105
  -8   1   6 1014.31 152.001 105
  -8  -1   6 1198.21 195.935 107
  -8   1   6 1088.94 187.919 107
   8   1  -6 1077.23 186.693 104
   8  -1  -6 761.339 299.884  96
   8   1  -6 1025.00 311.380  96
   8  -1  -6 1108.98 332.063  29
   8   1  -6 975.942 161.275  85
   8  -1  -6 1118.98 166.108  83
   8   1  -6 1006.79 172.628  83
   8  -1  -6 787.502 164.483  62
   8   1  -6 789.998 136.733  62
   8   1  -6 681.651 137.268  20
   8   1  -6 911.202 163.268  22
  -8   1   5 11450.2 534.829  16
  -8   1   5 11698.6 557.828 105
  -8  -1   5 10589.2 526.061 108
  -8   1   5 11606.9 582.134 108
  -8  -1   5 11259.4 568.142 107
   8  -1  -5 11278.3 552.594 104
   8   1  -5 11867.3 580.544 104
  -8   1   5 10912.3 501.095 111
  -8  -1   5 11212.0 542.663 105
   8  -1  -5 10433.6 971.817  96
   8   1  -5 11180.0 991.274  96
   8  -1  -5 9861.20 947.259  32
   8   1  -5 10134.5 498.851  85
   8  -1  -5 11434.2 523.381  83
   8   1  -5 10820.1 548.242  83
   8  -1  -5 10665.3 566.049  62
   8   1  -5 10896.0 529.481  62
   8   1  -5 11027.5 541.950  20
   8   1  -5 11288.7 569.658  22
   8  -1  -5 10829.4 515.940  22
   8   1  -4 6151.94 414.772  20
   8   1  -4 6486.82 434.067  22
  -8   1   4 6034.35 397.996  16
   8   1  -4 6732.69 440.235 103
  -8  -1   4 6995.38 404.310 108
  -8   1   4 6750.87 440.763 108
  -8  -1   4 6527.88 421.446 107
   8  -1  -4 6004.92 392.586 104
  -8   1   4 6651.27 442.294 107
   8   1  -4 7234.76 447.305 104
  -8   1   4 5894.49 382.238 111
  -8  -1   4 7064.89 436.336 105
  -8   1   4 6589.93 434.128 105
  -8  -1   4 6502.72 737.296  92
   8  -1  -4 6760.68 778.205  96
   8   1  -4 5915.30 739.817  96
   8  -1  -4 6286.13 752.322  32
   8   1  -4 6651.98 377.690  85
   8  -1  -4 6442.59 371.931  83
   8   1  -4 6714.53 422.696  83
   8   1  -4 6346.95 405.968  62
   8  -1  -4 5685.60 736.990  40
   8   1  -3 18233.5 795.616  22
  -8   1   3 18368.4 770.217  16
   8   1  -3 18357.8 787.966 103
  -8  -1   3 16393.3 682.895 108
  -8   1   3 18261.3 779.003 108
  -8  -1   3 17596.1 746.638 107
   8  -1  -3 17727.9 716.666 104
  -8   1   3 17650.0 774.834 107
   8   1  -3 18415.7 769.101 104
  -8   1   3 17038.4 735.852 111
  -8  -1   3 17762.2 781.201 105
  -8   1   3 18535.0 794.600 105
  -8  -1   3 17020.2 1253.04  92
   8  -1  -3 17615.6 1277.13  96
   8  -1  -3 16724.5 1269.67  32
   8   1  -3 18701.6 757.272  83
   8  -1  -3 18713.1 797.559  62
   8   1  -3 17156.4 749.320  62
   8  -1  -3 15874.4 1247.19  40
   8   1  -2 4426.73 360.007  22
   8  -1  -2 3814.45 310.655 103
   8   1  -2 4154.26 346.287 103
  -8  -1   2 3366.43 293.531 107
   8  -1  -2 3306.19 274.003 104
   8   1  -2 3535.29 314.764 104
  -8  -1   2 3772.96 334.770 111
  -8   1   2 3922.04 329.534 111
   8  -1  -2 4076.33 612.588  96
   8   1  -2 3963.13 622.874  96
  -8  -1   2 4121.31 638.853  92
   8   1  -2 4004.92 335.123  95
  -8   1   2 3608.92 332.281  16
  -8   1   2 4180.61 346.333  14
   8   1  -2 3805.79 308.495  83
   8  -1  -2 3995.19 345.507  62
   8   1  -2 4019.89 337.745  62
   8   1  -2 3550.31 276.813  61
   8  -1  -2 3994.60 602.083  40
  -8  -1   1 64533.7 1941.93  24
   8   1  -1 59451.7 2567.67  23
   8  -1  -1 62798.8 1814.69 103
   8   1  -1 66186.3 1907.87 103
  -8  -1   1 61361.9 1804.51 107
   8   1  -1 66514.7 1871.04 104
  -8  -1   1 62409.7 1918.07 111
  -8   1   1 66253.1 1922.30 111
  -8  -1   1 63461.9 1929.81 105
  -8   1   1 63967.1 1940.72 105
  -8  -1   1 60811.6 2706.72  92
   8  -1  -1 61515.0 2590.83  96
   8   1  -1 64772.8 2738.21  96
   8   1  -1 64243.0 1917.07  95
  -8   1   1 62819.5 1917.25  14
   8   1  -1 61910.3 1829.36  83
   8   1  -1 63346.5 1897.00  88
   8  -1  -1 63783.4 1913.75  62
   8   1  -1 64175.0 1912.55  62
   8   1  -1 59399.0 1797.85  61
   8  -1  -1 58239.7 2598.33  40
  -8  -1   0 15331.3 710.603  24
   8   1   0 14047.0 1132.58  23
   8  -1   0 13404.2 1086.51  23
  -8  -1   0 16030.9 739.779  25
   8   1   0 15527.7 681.893 103
   8   1   0 15255.9 647.301 104
  -8  -1   0 15150.3 703.883 111
  -8   1   0 15798.1 709.966 111
  -8  -1   0 14849.7 707.215 105
  -8   1   0 15484.4 632.120 109
  -8   1   0 14700.1 710.133 105
   8  -1   0 14794.2 1098.05  96
   8   1   0 16047.8 1221.53  96
   8   1   0 10977.8 897.015  94
  -8   1   0 15352.8 706.251  14
   8   1   0 14793.4 692.005  88
   8  -1   0 14910.5 688.911  62
   8   1   0 14713.1 645.837  61
   8  -1   0 12964.3 1062.89  40
  -8  -1  -1 55950.6 1710.38  24
   8   1   1 55585.3 2505.64  23
   8  -1   1 55631.2 2453.82  23
  -8   1  -1 56513.7 1699.63  25
  -8  -1  -1 55700.6 1745.78  25
   8   1   1 56260.4 1662.73 103
   8   1   1 52394.0 1588.19 104
  -8  -1  -1 59141.6 1726.55 111
  -8  -1  -1 57904.1 1731.97 105
  -8   1  -1 57207.9 1660.62 109
  -8   1  -1 56988.9 1730.91 105
  -8  -1  -1 56124.0 2520.52  92
   8  -1   1 53346.1 2247.30  96
   8   1   1 56617.7 2462.14  96
   8  -1   1 56498.5 1694.74  95
   8   1   1 59672.3 1743.21  95
   8  -1   1 56687.0 2531.41  94
   8   1   1 50448.4 2157.08  94
  -8   1  -1 55578.1 1717.80  14
   8   1   1 50677.4 1568.96  57
   8   1   1 50875.8 1587.59  63
   8  -1   1 57562.3 1698.31  62
   8   1   1 55828.6 1716.15  62
   8   1   1 55483.8 1657.57  61
   8  -1   1 47919.5 2235.65  40
  -8  -1  -1 54139.5 2585.19  41
  -8  -1  -2 3670.47 309.365  24
   8   1   2 3649.71 315.566  20
   8   1   2 2995.31 545.284  23
   8  -1   2 2586.23 498.462  23
  -8   1  -2 3719.97 310.230  25
  -8  -1  -2 4201.09 349.332  25
   8   1   2 3835.39 293.599 103
  -8  -1  -2 3780.13 311.964 111
  -8  -1  -2 3866.16 326.523 105
  -8   1  -2 3890.67 318.821 109
  -8   1  -2 3553.60 312.150 105
   8  -1   2 3183.68 562.748  94
  -8  -1  -2 4409.55 649.951  92
   8   1   2 4189.69 603.112  96
   8  -1   2 3696.67 304.565  95
   8   1   2 3939.95 327.471  95
   8   1   2 3601.66 482.978  94
   8   1   2 2857.30 263.150  98
  -8   1  -2 4198.33 342.869  14
   8  -1   2 3478.03 307.630  88
   8   1   2 3660.56 271.684  57
   8   1   2 3141.72 265.424  63
   8  -1   2 3722.98 306.000  62
   8  -1   2 4042.90 336.753  61
   8   1   2 3496.24 296.106  61
  -8  -1  -2 3459.30 595.715  41
  -8   1  -3 13512.9 626.297  14
  -8  -1  -3 12748.9 1051.45  92
   8   1   3 12480.0 995.923  96
   8  -1   3 12446.3 560.209  95
   8   1   3 13676.5 624.802  95
   8  -1   3 11819.2 1028.94  94
   8   1   3 10368.8 831.967  94
   8   1   3 12380.2 559.395  98
  -8   1  -3 11944.9 570.096 105
  -8  -1  -3 13124.4 584.077 111
   8   1   3 11808.0 520.364 103
  -8  -1  -3 12699.7 575.824 105
  -8   1  -3 14110.4 627.406 109
   8  -1   3 13654.5 603.970  88
   8   1   3 13692.8 629.688  88
   8  -1   3 12834.4 615.433  57
   8   1   3 11287.3 514.229  57
   8   1   3 12320.3 547.731  63
   8  -1   3 12703.0 614.405  61
   8   1   3 12299.6 583.353  61
  -8  -1  -3 12216.6 566.654  24
   8   1   3 12756.9 1082.27  23
   8   1   3 12212.8 569.358  20
   8  -1   3 12994.8 1084.69  23
  -8   1  -3 13544.7 603.842  25
  -8  -1  -3 13507.1 642.913  25
  -8   1  -4 5790.87 375.163  15
  -8   1  -4 6649.45 405.788  14
   8   1   4 5893.16 639.795  96
   8  -1   4 5865.46 335.080  95
   8   1   4 6544.28 394.815  95
   8  -1   4 4924.13 647.666  94
   8   1   4 5953.63 360.221  98
  -8   1  -4 5994.15 342.293 105
   8   1   4 5591.33 321.967 106
  -8  -1  -4 6147.47 397.871 109
  -8   1  -4 6176.48 396.239 109
  -8  -1  -4 5374.26 325.250 105
   8  -1   4 6029.70 358.730  88
   8   1   4 6287.77 393.960  88
   8  -1   4 6046.75 391.224  57
   8   1   4 5489.09 336.527  63
   8  -1   4 6518.47 402.437  61
  -8  -1  -4 5477.99 327.948  24
   8   1   4 5920.19 332.443  20
   8  -1   4 5672.92 708.219  23
  -8   1  -4 6227.46 374.209  25
  -8  -1  -4 6530.24 417.321  25
  -8   1  -5 7662.65 421.455  14
   8   1   5 7739.69 405.768  95
   8  -1   5 5911.16 680.996  94
   8   1   5 7534.50 390.239  98
  -8   1  -5 7497.18 421.270 109
   8  -1   5 6864.90 351.968  88
   8   1   5 8283.84 424.987  88
   8  -1   5 7696.51 419.316  65
   8  -1   5 7656.99 418.817  57
   8   1   5 6924.25 362.421  63
   8  -1   5 6613.89 394.584  55
   8  -1   5 8092.24 425.955  61
  -8   1  -5 6821.76 378.808  25
  -8  -1  -5 7463.83 425.498  25
  -8   1  -6 16045.4 603.784  14
   8  -1   6 15627.0 611.495 106
  -8  -1  -6 15450.9 606.991 109
   8  -1   6 15703.2 600.275  65
   8   1   6 14318.5 533.619  63
   8  -1   6 14232.1 576.266  55
   8  -1   6 13461.7 521.737  60
  -8   1  -6 14855.0 551.879  25
  -8  -1  -6 15059.3 607.006  25
   8   1   6 15526.8 570.898  95
   8  -1   6 14233.2 599.068  98
   8   1   6 14807.2 559.094  98
  -8   1  -7 6673.49 322.121  14
   8  -1   7 6324.18 321.816 106
  -8  -1  -7 6967.58 333.949 109
  -8   1  -7 6958.14 339.021 109
   8  -1   7 6941.49 330.407  65
   8   1   7 6151.41 303.289  97
   8  -1   7 7006.50 337.164  98
   8   1   7 6778.47 304.638  98
  -8  -1  -7 6967.29 339.864  25
   8  -1   8 4220.98 202.768 106
  -8  -1  -8 3737.79 187.529 109
  -8   1  -8 3927.31 198.963 109
   8  -1   8 4267.92 204.341  98
  -8  -2   9 9374.68 356.605 107
   8  -2  -9 8807.34 344.840 104
   8  -2  -8 18809.4 629.978  83
   8   2  -8 20500.5 688.931  83
  -8  -2   8 19774.5 639.729 108
  -8  -2   8 22308.5 710.891 107
   8   2  -8 20032.4 639.369 103
   8   2  -8 21679.5 689.305 104
  -8  -2   8 20160.0 660.452 111
   8   2  -8 20063.9 657.318  21
  -8   2   8 21325.6 689.017   5
  -8   2   7 14576.2 565.729   5
  -8   2   7 12021.4 486.546  16
  -8  -2   7 12052.2 481.475 108
   8   2  -7 12986.5 522.474 103
  -8  -2   7 13293.5 547.333 107
   8   2  -7 14105.6 553.611 104
   8  -2  -7 12118.7 475.558  83
   8  -2  -7 12099.7 538.756  62
   8   2  -7 13535.3 541.557  21
  -8   2   6 6197.80 374.542   5
  -8   2   6 5905.67 343.612  16
   8  -2  -6 5203.28 618.856  96
  -8  -2   6 5025.86 294.381 108
   8   2  -6 6356.08 367.158 103
  -8  -2   6 5789.82 351.754 107
   8   2  -6 5744.03 356.834  83
  -8   2   6 5320.50 300.395  54
   8   2  -6 5298.05 303.430  20
   8   2  -6 5484.84 353.806  22
  -8   2   5 1106.10 180.235  16
   8   2  -5 1065.65 179.716 103
  -8  -2   5 819.769 159.001 105
  -8   2   5 866.590 163.856 105
  -8  -2   5 737.709 154.610 107
   8   2  -5 1022.54 177.433 104
   8  -2  -5 744.555 269.525  96
   8   2  -5 882.168 272.009  96
   8   2  -5 947.244 127.712  95
   8   2  -5 942.161 167.042  83
   8  -2  -5 907.883 179.780  62
   8   2  -5 933.013 157.788  20
   8   2  -5 978.585 174.201  22
  -8   2   4 2436.00 264.427   5
  -8   2   4 2119.23 247.307  16
  -8   2   4 2670.67 264.048 105
  -8  -2   4 2146.35 229.035 107
   8  -2  -4 2219.66 212.858 104
   8   2  -4 2227.66 249.756 104
  -8  -2   4 2132.33 248.305 105
  -8  -2   4 2034.81 426.653  92
   8  -2  -4 1852.61 399.290  96
   8   2  -4 2679.57 456.491  96
   8   2  -4 2530.30 228.958  95
  -8  -2   4 2124.30 225.563  91
   8  -2  -4 2415.21 472.002  32
   8   2  -4 2676.13 261.832  83
   8  -2  -4 1813.64 236.360  62
   8   2  -4 2019.73 202.874  62
   8   2  -4 2681.13 256.777  20
   8   2  -4 2335.05 264.584  22
  -8   2   3 8388.72 479.879 105
   8   2  -3 7880.93 470.155 103
  -8  -2   3 6989.20 392.207 107
   8   2  -3 6888.27 385.957 102
   8   2  -3 7535.34 449.658 104
  -8  -2   3 7341.91 452.926 105
   8  -2  -3 6735.95 724.796  96
   8   2  -3 6617.18 761.423  96
   8   2  -3 6563.19 395.053  95
  -8  -2   3 6883.81 416.168  91
  -8  -2   3 6756.59 770.073  92
  -8   2   3 8173.27 468.784  16
   8   2  -3 7618.01 445.417  83
   8   2  -3 6384.31 369.737  88
   8  -2  -3 6735.27 431.604  62
   8   2  -3 7153.58 407.294  62
  -8  -2   3 7502.33 464.700  24
   8   2  -3 6696.33 433.936  20
   8  -2  -2 7972.65 411.984 103
   8   2  -2 8773.38 498.269 103
   8   2  -2 8423.91 478.563 104
   8  -2  -2 6065.36 680.687  96
   8   2  -2 7839.27 839.128  96
   8   2  -2 8482.57 457.376  95
  -8  -2   2 7884.87 469.466  91
  -8  -2   2 9404.38 940.155  92
  -8   2   2 9189.63 515.907  16
  -8   2   2 7610.30 472.803  14
   8   2  -2 7694.01 424.626  88
   8  -2  -2 7843.40 467.476  62
   8   2  -2 8302.75 460.148  62
  -8  -2   2 8145.62 498.409  24
   8   2  -2 7836.93 771.538  23
   8   2  -2 8505.14 495.320  20
   8   2  -2 8550.04 493.285  22
  -8   2   1 20939.3 856.593 105
   8   2  -1 19660.8 809.549 103
   8   2  -1 20353.3 800.445 104
  -8  -2   1 20230.4 815.242 111
  -8  -2   1 20771.7 842.168 105
   8   2  -1 19201.0 781.622  95
  -8   2   1 20878.6 843.257  16
  -8   2   1 19894.3 831.332  14
  -8  -2   1 18519.6 729.559  80
   8   2  -1 18025.5 748.120  88
   8  -2  -1 18665.7 779.300  62
  -8  -2   1 19709.4 838.283  24
   8   2  -1 18688.2 1275.97  23
   8   2  -1 20420.3 832.315  20
   8   2  -1 19097.4 798.301  22
  -8   2   0 28229.2 1041.03 105
   8   2   0 29227.0 1018.73 103
   8   2   0 27375.8 974.349 104
  -8  -2   0 27274.5 995.352 111
  -8  -2   0 27212.3 1017.67 105
  -8   2   0 24609.8 879.089 109
   8   2   0 27747.9 1001.31  95
  -8  -2   0 25212.9 1584.19  92
  -8   2   0 27024.6 1027.51  14
  -8  -2   0 27134.0 962.038  80
   8   2   0 28456.8 990.665  88
   8  -2   0 27455.4 972.426  62
   8   2   0 30030.8 1660.15  23
   8   2   0 27058.9 985.532  22
  -8  -2  -1 2928.69 293.255  24
   8   2   1 3240.33 291.695  20
   8   2   1 3374.90 549.005  23
   8  -2   1 3196.56 516.815  23
   8   2   1 2775.49 258.633  22
  -8  -2  -1 3671.30 317.590  25
  -8   2  -1 2918.87 296.382 105
   8   2   1 3037.50 279.178 103
  -8  -2  -1 3080.71 278.052 111
   8   2   1 3161.38 269.943 104
  -8  -2  -1 3879.84 323.564 105
  -8   2  -1 2967.43 259.249 109
   8  -2   1 3020.59 551.477  94
  -8  -2  -1 3594.80 574.988  92
   8   2   1 2884.51 514.655  96
   8  -2   1 2925.53 254.520  95
   8   2   1 3682.98 310.899  95
  -8   2  -1 3055.51 299.653  16
  -8   2  -1 2843.57 291.561  14
  -8  -2  -1 2989.76 275.999  80
   8   2   1 3310.47 285.164  88
   8  -2   1 2903.06 253.993  62
  -8  -2  -1 2264.85 465.830  41
  -8   2  -2 2647.49 270.297  16
  -8   2  -2 2820.17 286.988  14
   8  -2   2 2081.06 458.600  94
  -8  -2  -2 2176.65 450.379  92
   8   2   2 2500.77 471.629  96
   8  -2   2 2261.39 204.507  95
  -8   2  -2 2863.34 275.835 105
  -8  -2  -2 2684.49 243.445 111
   8   2   2 2699.62 251.577 103
   8   2   2 2194.13 214.861 104
  -8  -2  -2 3060.06 274.147 105
  -8   2  -2 2473.64 244.961 109
  -8  -2  -2 3035.55 276.964  80
   8  -2   2 2449.17 231.649  88
   8   2   2 2795.11 258.833  88
   8  -2   2 2816.81 270.984  61
  -8  -2  -2 2253.05 254.680  24
   8   2   2 2758.58 264.487  20
   8   2   2 2300.38 462.838  23
   8  -2   2 3196.24 521.225  23
   8   2   2 2483.71 229.033  22
  -8  -2  -2 2541.24 271.417  25
  -8   2  -3 25754.7 913.721  16
  -8   2  -3 24371.0 929.936  15
  -8   2  -3 25126.1 931.585  14
  -8  -2  -3 22609.8 1363.81  92
   8   2   3 23671.4 1393.60  96
   8  -2   3 22238.5 1415.02  94
  -8   2  -3 24763.2 876.785 105
  -8  -2  -3 23355.0 819.724 111
   8   2   3 25470.5 866.230 103
  -8  -2  -3 26088.3 881.783 105
  -8   2  -3 27154.4 919.985 109
  -8  -2  -3 26858.1 937.283  80
   8  -2   3 24144.9 824.408  88
   8   2   3 26781.4 929.156  88
   8  -2   3 25411.1 931.358  57
   8  -2   3 25027.1 910.765  61
  -8  -2  -3 25755.7 914.799  24
   8   2   3 24549.2 862.468  20
   8   2   3 23363.4 1452.56  23
   8  -2   3 24254.0 1465.91  23
  -8  -2  -3 25899.7 932.844  25
  -8   2  -4 11380.3 511.280  16
  -8   2  -4 11512.7 545.155  15
  -8   2  -4 12406.2 559.259  14
  -8   2  -4 10665.1 461.995 105
   8   2   4 11308.0 468.794 103
  -8  -2  -4 11365.7 465.895 105
  -8   2  -4 12850.2 556.151 109
   8  -2   4 11703.0 543.420  57
   8  -2   4 11738.8 547.686  63
   8  -2   4 12095.4 533.646  61
  -8   2  -4 10735.2 449.621  54
  -8   2  -4 12070.7 499.854  52
  -8  -2  -4 11340.3 507.249  24
  -8  -2  -4 12272.9 552.669  25
   8   2   4 12534.7 925.189  96
   8   2   4 13119.2 554.778  95
   8  -2   4 10019.9 885.499  94
  -8   2  -5 436.989 103.736  16
  -8   2  -5 301.421 108.647  15
  -8   2  -5 179.519 99.2244  14
  -8  -2  -5 279.010 115.651 109
  -8   2  -5 353.926 117.545 109
   8  -2   5 286.175 90.2360  58
   8  -2   5 440.678 125.140  65
  -8   2  -5 274.797 77.5802  52
   8  -2   5 393.032 106.129  57
   8  -2   5 357.321 107.969  63
   8  -2   5 323.060 100.187  61
   8  -2   5 245.776 95.2252  55
  -8  -2  -5 248.507 97.2539  25
   8   2   5 549.076 116.970  95
   8  -2   5 230.731 114.597  98
  -8   2  -6 3466.37 235.917  15
  -8   2  -6 4867.14 280.745  14
   8  -2   6 4025.56 262.611 106
  -8  -2  -6 4460.54 269.305 109
   8  -2   6 4182.45 259.251  65
   8  -2   6 3917.54 250.963  63
   8  -2   6 3900.36 242.552  60
  -8  -2  -6 3920.75 250.360  25
   8   2   6 4375.36 260.871  97
   8  -2   6 3853.40 252.871  98
   8   2   7 17270.6 549.472  17
  -8   2  -7 20300.6 614.134  14
  -8   2  -7 19524.7 616.317 109
   8  -2   7 19140.3 609.759 106
  -8  -2  -7 20014.3 606.613 109
   8  -2   7 19281.6 609.424  65
   8   2   7 19564.2 603.041  97
   8  -2   7 18803.6 588.599  98
  -8  -2  -7 19728.1 605.210  25
  -8  -3   8 7181.64 282.168 111
   8   3  -8 6921.46 274.343  21
  -8   3   8 7815.79 301.743   3
  -8  -3   7 5842.84 272.100 107
   8  -3  -7 5304.57 249.491 104
   8   3  -7 6418.99 289.020 104
   8   3  -7 7092.81 319.075  21
  -8   3   7 6458.39 291.755  16
  -8  -3   6 3074.43 201.656 107
   8  -3  -6 2808.63 184.762 104
   8   3  -6 3197.08 226.851 102
   8   3  -6 3324.05 216.009 103
   8   3  -6 3401.36 233.437 104
   8   3  -6 3439.87 243.145  21
  -8   3   6 3242.03 233.982  16
  -8   3   5 10025.6 459.298   5
  -8   3   5 10433.5 475.497  16
  -8  -3   5 10142.8 431.237  91
  -8   3   5 9822.85 437.178 105
  -8  -3   5 8788.73 387.138 107
   8   3  -5 9736.49 437.661 103
   8   3  -5 9493.00 436.521 102
   8   3  -5 9802.86 453.536 104
  -8  -3   5 10136.1 431.666 105
  -8  -3   5 10331.5 475.402  79
   8  -3  -5 8990.29 450.948  62
  -8   3   5 9793.43 423.775  54
   8   3  -5 9639.41 422.520  20
   8   3  -5 10157.1 472.548  21
  -8   3   4 6374.67 362.801   5
  -8   3   4 6966.56 397.638  16
  -8  -3   4 6527.34 365.615  91
  -8   3   4 6501.25 376.465 105
   8   3  -4 6169.63 361.473 103
   8   3  -4 5418.31 329.996 102
  -8  -3   4 6302.65 362.452 105
  -8  -3   4 6614.17 393.143  79
   8  -3  -4 6092.85 363.647  62
  -8   3   4 6653.73 366.532  54
   8   3  -4 5837.02 351.287  20
  -8   3   3 20722.1 773.418   5
  -8   3   3 22563.6 836.670  16
  -8   3   3 22001.9 838.946 105
   8   3  -3 22351.1 812.202 103
   8   3  -3 21967.7 811.631 104
   8   3  -3 20029.1 745.145 102
  -8  -3   3 23012.2 831.506 105
   8  -3  -3 19809.6 774.322  62
  -8   3   3 22585.7 818.823  54
  -8  -3   3 22020.7 818.328  24
   8   3  -3 22864.8 824.871  20
   8   3  -3 22598.8 818.632  22
  -8  -3   3 22184.4 817.074  91
  -8   3   2 6315.87 363.046   5
   8   3  -2 6325.89 660.956  96
   8   3  -2 6374.91 335.067  95
  -8  -3   2 7441.13 427.224  91
  -8  -3   2 7462.27 412.632 111
   8   3  -2 7972.89 428.636 104
   8   3  -2 6115.93 346.327 102
   8  -3  -2 6651.94 379.281  62
  -8  -3   2 7272.17 425.568  24
   8   3  -2 7722.08 427.038  20
   8   3  -2 7018.87 398.051  22
  -8   3   1 3589.42 252.133   5
  -8   3   1 4232.30 315.576  16
  -8   3   1 4175.33 318.567  14
   8   3  -1 3442.36 499.255  96
   8   3  -1 3776.99 263.441  95
  -8  -3   1 4132.48 326.401  91
  -8  -3   1 3829.05 555.671  92
  -8   3   1 3691.38 315.859 105
   8   3  -1 4183.33 311.703 103
  -8  -3   1 3640.16 280.104 111
   8   3  -1 3696.36 292.862 104
  -8  -3   1 4381.26 329.910 105
  -8  -3   1 3439.88 259.114  80
   8  -3  -1 3093.08 247.630  62
  -8   3   1 3578.60 295.636  54
  -8  -3   1 3642.15 309.089  24
   8   3  -1 4206.16 314.987  20
   8   3  -1 3882.03 282.529  22
  -8   3   0 2976.73 267.123  16
  -8   3   0 2502.52 253.568  14
   8  -3   0 2059.32 416.913  94
   8   3   0 3246.90 486.473  96
  -8  -3   0 2867.41 485.378  92
   8   3   0 2711.36 230.099  95
  -8   3   0 2485.85 261.841 105
   8   3   0 2878.67 262.983 103
  -8  -3   0 3029.37 246.920 111
   8   3   0 2744.47 250.154 104
  -8  -3   0 3050.37 278.477 105
  -8  -3   0 2591.70 235.403  80
   8   3   0 2799.22 217.611  88
  -8   3   0 2564.19 254.351  54
  -8  -3   0 3085.63 277.406  24
   8   3   0 2591.90 227.083  22
  -8   3  -1 1481.16 189.906  16
  -8   3  -1 1448.53 196.821  14
   8  -3   1 774.034 264.956  94
   8   3   1 1211.08 302.991  96
   8   3   1 1304.29 168.852  95
  -8  -3  -1 1484.70 196.027 105
  -8   3  -1 1259.45 195.307 105
  -8  -3  -1 1142.72 144.050 111
   8   3   1 1429.57 192.120 103
   8   3   1 1407.55 180.695 104
  -8  -3  -1 1041.86 164.147  80
   8   3   1 1189.82 152.192  88
  -8   3  -1 1287.24 185.664  54
   8   3   1 1238.59 183.995  20
  -8   3  -2 13914.3 564.281  16
  -8   3  -2 14134.1 593.833  14
   8   3   2 13991.2 566.412  95
   8  -3   2 11224.9 905.399  94
  -8   3  -2 13374.1 574.270 105
   8   3   2 13887.8 551.178 104
   8   3   2 13639.3 572.131 103
  -8  -3  -2 14124.3 575.933 105
  -8  -3  -2 14033.2 585.877  80
   8   3   2 13593.9 547.986  88
   8  -3   2 13430.3 576.375  57
   8  -3   2 12587.1 544.785  61
  -8   3  -2 14058.7 582.676  52
  -8   3  -2 14294.2 571.194  54
   8   3   2 13374.5 558.882  20
  -8   3  -3 8709.39 399.892  16
  -8   3  -3 9401.48 445.767  14
   8   3   3 9089.55 424.794  95
  -8   3  -3 9130.43 422.260 109
  -8   3  -3 8572.03 406.217 105
  -8  -3  -3 9741.38 413.697 105
   8   3   3 9129.84 391.338 104
   8   3   3 10029.4 438.643 103
  -8  -3  -3 9811.59 455.583  80
   8  -3   3 8574.54 425.400  57
   8  -3   3 9344.63 439.345  63
   8  -3   3 8877.98 405.517  61
  -8   3  -3 9034.82 397.141  54
  -8   3  -3 10093.5 440.330  52
  -8  -3  -3 9667.27 456.777  24
   8   3   3 9328.58 400.743  20
  -8   3  -4 9916.65 428.086  14
  -8   3  -4 9113.28 415.395 109
   8   3   4 9962.64 396.707 103
   8  -3   4 9632.12 415.730  63
   8  -3   4 9264.95 417.340  55
   8  -3   4 8501.54 363.480  61
  -8   3  -4 10182.4 408.775  52
  -8  -3  -4 10026.9 427.767  24
  -8  -3  -4 9274.62 387.019  25
   8   3   4 9975.01 423.045  97
   8  -3   4 8846.39 409.711  98
  -8   3  -5 28267.8 835.718  14
   8  -3   5 26201.7 819.881 106
   8  -3   5 29033.2 842.017  65
   8  -3   5 25160.5 798.291  63
  -8  -3  -5 28663.6 809.339  24
   8   3   5 29428.9 842.246  97
   8  -3   5 26494.3 799.573  98
  -8  -3  -6 403.887 72.8148 109
   8  -3   6 413.558 67.3590  65
   8   3   6 452.687 71.5500  17
  -8   3  -6 472.210 75.0661  14
   8   3   6 487.593 73.3058  97
  -8   4   6 5077.21 223.948  16
  -8  -4   5 14444.0 481.482 111
   8   4  -5 13049.5 455.887 104
   8   4  -5 15048.5 488.621  21
  -8   4   5 14840.1 499.138  16
  -8   4   5 13759.2 464.807   3
   8   4  -4 2126.97 156.160  12
  -8   4   4 1739.20 142.231   3
  -8  -4   4 1893.67 156.293 111
   8   4  -4 2466.60 176.757 104
   8   4  -4 1882.70 143.130 103
  -8  -4   4 2120.60 158.728 105
  -8   4   4 1956.62 153.084  54
   8   4  -4 2130.94 157.850  20
   8   4  -4 2095.12 164.826  21
  -8  -4   4 1871.56 165.441  91
  -8   4   3 2584.82 201.996  16
  -8  -4   3 2219.41 172.989 111
   8   4  -3 2516.78 195.916 104
   8   4  -3 2592.85 185.889 103
  -8  -4   3 2405.33 194.104 105
  -8   4   3 2344.88 189.061  54
   8   4  -3 2408.35 188.285  20
   8   4  -3 2508.08 179.919  21
  -8  -4   3 2414.83 200.316  91
  -8   4   2 13161.0 510.820  16
  -8   4   2 13969.3 490.523  52
  -8  -4   2 13264.3 500.306  24
   8   4  -2 13979.8 524.337  20
   8   4  -2 12893.1 466.103  21
  -8  -4   2 11842.3 454.964 111
   8   4  -2 13709.5 508.604 103
  -8   4   1 9723.79 414.981  16
  -8   4   1 10041.5 450.241 105
   8   4  -1 9740.62 426.199 104
   8   4  -1 9856.36 423.574 103
  -8  -4   1 10651.3 449.407 105
  -8   4   1 8835.14 377.730  53
  -8   4   1 9973.96 415.519  52
  -8   4   1 10709.6 446.049  54
  -8  -4   1 9935.16 426.134  24
   8   4  -1 10050.3 433.765  20
   8   4   0 17654.9 570.067  17
  -8   4   0 18397.3 607.275  16
  -8  -4   0 17333.7 596.294  80
  -8   4   0 18182.5 654.613 105
   8   4   0 19190.0 643.021 104
  -8  -4   0 19196.0 655.063 105
  -8   4   0 18090.9 614.953  53
  -8   4   0 19073.6 648.344  54
  -8   4   0 18591.9 631.788  52
  -8  -4   0 19361.4 655.281  24
   8   4   0 18665.9 640.021  20
   8   4   1 3217.86 199.289  17
  -8  -4  -1 3245.67 216.483 105
   8   4   1 2962.74 206.024 104
   8   4   1 3068.56 213.585 103
  -8  -4  -1 3070.37 206.460  80
  -8   4  -1 3135.20 216.135  53
   8  -4   1 2513.19 173.265  63
  -8   4  -1 2980.05 208.425  54
  -8  -4  -1 3036.10 222.237  24
   8   4   1 3084.13 208.912  20
   8   4   2 11417.6 402.420  12
   8   4   2 11751.4 420.376  17
  -8  -4  -2 10369.0 414.153  80
   8   4   2 11486.1 427.948 103
  -8  -4  -2 11108.7 403.078 105
  -8   4  -2 11063.2 430.482  53
  -8   4  -2 11157.3 399.309  54
  -8   4  -2 11452.5 428.695  52
   8   4   2 10592.2 390.630  20
  -8  -4  -2 12088.2 449.080  24
   8  -4   3 2957.63 171.523  65
  -8   4  -3 3445.25 192.952  52
   8   4   3 3681.33 200.112  17
  -8  -4  -3 3549.92 202.733  80
  -8  -4  -4 129.019 49.0594  24
   8   4   4 218.404 56.3761  17
   9   0  -8 734.641 100.730 104
  -9   0   7 8621.59 359.494   5
   9   0  -7 8641.70 388.353 103
  -9   0   7 8741.53 379.818 108
  -9   0   7 8336.97 385.552 107
   9   0  -7 8336.17 376.219 104
   9   0  -7 8092.01 357.581  83
  -9   0   6 47.8000 78.0679 108
   9   0  -6 31.1115 82.9028 103
  -9   0   6-31.3696 85.3883 107
   9   0  -6 29.3644 85.5600 104
   9   0  -6 27.0034 64.1538  20
   9   0  -6 54.1680 67.6439  22
   9   0  -6 87.1547 69.6739  83
  -9   0   5 2181.76 207.255 105
   9   0  -5 2560.85 234.537 103
  -9   0   5 2317.79 224.859 107
   9   0  -5 2459.25 218.462 104
  -9   0   5 2324.00 206.806 111
   9   0  -5 2132.71 191.473  83
   9   0  -5 2227.19 213.502  62
   9   0  -5 1940.91 199.901  20
   9   0  -5 2356.12 211.897  22
  -9   0   4-49.7065 76.2595  16
   9   0  -4 310.247 188.342  96
   9   0  -4 12.1678 94.0401 103
  -9   0   4 109.287 99.1545 105
  -9   0   4 36.9204 101.534 107
  -9   0   4-81.4119 100.729 111
   9   0  -4-43.7526 91.1583 104
   9   0  -4 133.588 79.5226  83
   9   0  -4-25.3201 83.0776  62
   9   0  -4-24.2290 91.4250  22
  -9   0   3 844.921 150.925  16
   9   0  -3 1607.80 367.898  96
   9   0  -3 1020.49 169.874 103
  -9   0   3 1098.14 180.772 105
  -9   0   3 1195.96 181.382 111
   9   0  -3 887.301 143.772 104
   9   0  -3 934.129 131.031  83
   9   0  -3 877.654 163.851  62
   9   0  -3 1027.75 173.084  22
   9   0  -2 1313.31 177.522 103
  -9   0   2 1154.20 184.872 111
   9   0  -2 979.535 144.524 104
   9   0  -2 1124.30 183.161  22
   9   0  -2 829.623 256.539  94
   9   0  -2 1062.90 304.288  96
   9   0  -2 1071.12 178.317  95
  -9   0   2 1089.18 165.800  16
   9   0  -1 26172.8 1468.10  96
   9   0  -1 27516.8 968.839  95
   9   0  -1 27110.0 906.747 103
  -9   0   1 28307.2 998.676 105
   9   0  -1 27668.4 971.357  62
   9   0  -1 26438.5 924.771  61
  -9   0   1 27507.7 943.592  16
   9   0   0 2753.09 438.997  94
   9   0   0 3115.11 476.338  96
   9   0   0 3562.37 293.524  95
   9   0   0 3612.75 253.761 103
  -9   0   0 4182.54 315.406 111
  -9   0   0 3960.86 316.918 105
   9   0   0 3540.09 292.941  88
   9   0   0 3646.87 294.499  62
   9   0   0 3704.59 284.539  61
  -9   0   0 3315.11 268.574  14
   9   0   1 21024.5 1231.64  96
   9   0   1 23620.1 847.836  95
   9   0   1 19770.2 1197.81  94
  -9   0  -1 24940.1 866.748 111
  -9   0  -1 22796.9 781.163 109
  -9   0  -1 23587.9 853.575 105
   9   0   1 24117.2 862.079  88
   9   0   1 21486.2 788.848  57
   9   0   1 22868.5 841.598  62
   9   0   1 22960.1 833.172  61
  -9   0  -1 22547.9 802.072  14
  -9   0  -2 3063.24 241.056  14
   9   0   2 3790.04 280.199  95
   9   0   2 3274.94 259.908  98
  -9   0  -2 3741.46 265.428 109
  -9   0  -2 3313.47 266.269 105
   9   0   2 3434.30 273.600  88
   9   0   2 3216.70 243.250  57
   9   0   2 3500.92 258.951  63
   9   0   2 3178.56 259.221  61
   9   0   2 3245.85 255.653  20
  -9   0  -2 3409.87 277.036  25
  -9   0  -3 5249.76 300.139  14
   9   0   3 5916.11 327.190  95
   9   0   3 6082.14 336.947  98
  -9   0  -3 6121.83 321.564 105
  -9   0  -3 6660.55 348.489 109
   9   0   3 6254.56 346.159  88
   9   0   3 5354.64 289.956  65
   9   0   3 4845.96 296.495  57
   9   0   3 5319.67 311.554  63
   9   0   3 4936.39 295.814  55
   9   0   3 6239.86 349.783  61
   9   0   3 5625.03 306.991  20
  -9   0  -3 5964.71 349.513  25
  -9   0  -4 3167.89 209.923  14
   9   0   4 3664.43 231.293  95
   9   0   4 3608.01 242.347  98
   9   0   4 3372.30 222.947 106
  -9   0  -4 3853.02 254.569 109
   9   0   4 3668.41 241.585  88
   9   0   4 3474.50 232.151  63
  -9   0  -4 3631.46 250.627  25
  -9   0  -5 220.597 59.3559  14
   9   0   5 253.926 81.1392  98
   9   0   5 192.296 55.4730  95
  -9   0  -5 173.917 84.9903 109
   9   0   5 179.575 62.5407 106
   9   0   5 185.931 62.9127  88
   9   0   5 99.6412 58.2179  63
  -9   0  -5 218.172 80.8923  25
  -9   0  -6 14427.9 462.896  25
   9   0   6 14264.1 457.149  98
   9  -1  -8 4525.25 229.577 103
   9   1  -8 4743.82 218.165 103
  -9  -1   8 4617.13 230.610 107
   9  -1  -8 4774.12 223.784 104
   9  -1  -7 204.535 85.1574 103
  -9  -1   7 311.584 73.8634 108
   9   1  -7 274.843 82.1632 103
  -9  -1   7 226.574 80.4669 107
   9  -1  -7 312.409 87.9421 104
   9   1  -7 251.256 82.9560 104
   9   1  -7 226.149 77.1425  83
  -9   1   7 240.256 80.6854   5
  -9  -1   7 176.837 56.6997   5
   9   1  -7 248.174 68.3435  21
   9   1  -6 7794.62 349.195  95
   9  -1  -6 10102.9 427.045 103
  -9  -1   6 8254.96 361.524 108
  -9  -1   6 9339.74 417.533 107
   9  -1  -6 9408.51 399.054 104
   9   1  -6 9418.10 420.775 104
  -9  -1   6 9415.33 401.398 111
   9   1  -6 9233.03 404.935  83
   9   1  -6 8236.23 340.028  20
   9  -1  -6 7933.93 341.030  20
   9   1  -6 9765.27 409.061  22
  -9   1   6 9860.58 426.897   5
  -9   1   5 2069.20 209.315   5
  -9   1   5 1869.46 169.483  16
   9   1  -5 1830.60 176.770  95
  -9   1   5 2172.65 201.245 105
   9  -1  -5 1867.18 190.999 103
   9   1  -5 2120.50 209.899 103
  -9  -1   5 1870.96 194.189 107
   9  -1  -5 1917.57 179.762 104
   9   1  -5 2190.30 208.932 104
  -9  -1   5 1779.04 190.290 111
  -9  -1   5 2137.32 195.528 105
   9   1  -5 1659.73 180.136  83
   9  -1  -5 2161.95 211.545  62
   9   1  -5 2097.92 195.512  20
   9   1  -5 2244.21 215.172  22
   9  -1  -5 1816.24 166.215  22
  -9   1   4 11968.7 505.931  16
   9  -1  -4 9399.92 817.496  96
   9   1  -4 10755.3 874.185  96
   9   1  -4 12175.3 518.825  95
  -9   1   4 12329.0 540.174 105
   9  -1  -4 11751.2 511.421 103
   9   1  -4 12611.3 547.221 103
  -9  -1   4 11884.8 514.170 107
   9  -1  -4 11316.8 473.574 104
   9   1  -4 13188.3 541.406 104
  -9  -1   4 11969.5 536.083 111
  -9   1   4 11316.8 481.460 111
  -9  -1   4 11689.2 524.729 105
   9   1  -4 12035.0 510.958  83
   9   1  -4 10942.9 478.999  88
   9   1  -4 11512.1 509.800  62
   9   1  -4 12427.9 539.367  20
   9   1  -4 12694.2 551.192  22
   9  -1  -4 12098.8 508.632  22
  -9   1   3 4820.32 319.433  16
   9  -1  -3 4873.15 578.575  96
   9   1  -3 4838.43 321.607  95
  -9   1   3 5264.13 350.477 105
   9  -1  -3 3984.55 280.590 103
   9   1  -3 4603.35 320.176 103
  -9  -1   3 4627.87 299.242 107
   9   1  -3 4973.78 318.992 104
  -9   1   3 4476.71 303.503 111
  -9  -1   3 5228.39 346.334 105
   9   1  -3 4651.81 299.040  83
   9   1  -3 4736.14 307.135  88
   9  -1  -3 4306.19 323.518  62
   9   1  -3 4450.89 312.389  62
   9   1  -3 4860.15 334.389  20
   9   1  -3 5243.38 348.861  22
   9  -1  -3 5332.16 331.863  22
  -9   1   2 64024.8 1732.20  16
  -9  -1   2 54582.2 1581.66  16
  -9  -1   2 56532.3 2352.12  92
   9  -1  -2 56479.3 2284.30  96
   9   1  -2 59336.8 2404.39  96
   9   1  -2 58808.0 1707.43  95
   9  -1  -2 55461.4 1612.45 103
   9   1  -2 58665.1 1702.14 103
   9   1  -2 59780.1 1665.38 104
  -9  -1   2 61518.9 1739.46 111
  -9   1   2 58146.2 1686.97 111
   9   1  -2 58132.9 1686.63  88
   9  -1  -2 60768.6 1731.60  62
   9   1  -2 59468.5 1712.54  62
   9   1  -2 60542.5 1745.06  20
   9   1  -2 60068.2 1736.44  22
  -9  -1   1 5545.19 657.270  92
   9  -1  -1 5368.99 588.408  96
   9   1  -1 5443.29 645.030  96
   9  -1  -1 6267.34 375.425  95
   9   1  -1 6396.57 383.065  95
   9  -1  -1 3973.22 570.923  94
  -9   1   1 6294.72 401.048 105
   9   1  -1 5783.66 355.851 103
   9   1  -1 5685.24 330.916 104
  -9  -1   1 6398.39 389.786 111
  -9   1   1 5923.28 367.531 111
  -9  -1   1 6956.77 410.250 105
   9   1  -1 5415.80 353.219  88
   9  -1  -1 5887.21 370.829  62
   9   1  -1 5994.00 376.359  62
  -9   1   1 6203.18 381.775  16
  -9   1   1 6170.45 383.170  14
  -9   1   0 12577.0 563.779  16
  -9   1   0 11236.9 539.235  14
   9   1   0 10893.8 891.714  96
   9  -1   0 11030.6 519.640  95
   9  -1   0 9504.46 863.957  94
  -9   1   0 11981.2 561.992 105
   9   1   0 11390.5 504.334 103
  -9  -1   0 11403.6 537.690 111
   9   1   0 10225.3 449.328 104
  -9  -1   0 11986.4 554.880 105
   9  -1   0 11718.3 543.366  88
   9   1   0 11959.2 545.181  88
   9  -1   0 12385.0 546.390  62
   9  -1   0 12351.8 554.092  61
   9   1   0 10511.5 468.374  61
   9   1   0 11434.9 548.530  20
   9   1   0 11512.2 538.648  22
  -9   1  -1 3394.89 282.399  16
  -9   1  -1 2726.00 250.949  14
   9   1   1 3088.91 463.217  96
   9  -1   1 3030.20 244.889  95
   9   1   1 3491.31 274.879  95
   9  -1   1 3114.33 478.286  94
  -9   1  -1 2992.16 266.556 105
   9   1   1 3118.71 235.233 103
  -9  -1  -1 3050.13 258.767 111
  -9  -1  -1 3220.14 243.593 109
  -9  -1  -1 3261.69 270.444 105
   9  -1   1 3429.90 269.325  88
   9  -1   1 2558.51 240.217  57
   9  -1   1 2685.77 237.472  62
   9   1   1 2641.67 219.947  61
   9   1   1 2911.90 261.647  20
   9   1   1 3502.28 268.126  22
  -9   1  -2 22448.1 801.121  14
   9  -1   2 20857.3 742.337  95
   9   1   2 23439.8 810.421  95
  -9   1  -2 22670.4 791.615 105
  -9  -1  -2 22181.9 777.854 111
  -9  -1  -2 22531.4 773.704 109
  -9  -1  -2 22631.5 782.802 105
  -9   1  -2 22004.4 749.084 109
   9  -1   2 23233.5 788.473  88
   9  -1   2 21386.9 787.016  57
   9   1   2 21394.4 748.275  61
   9   1   2 21615.8 772.410  20
   9   1   2 22164.4 767.043  22
  -9  -1  -2 22463.6 824.623  25
  -9   1  -3 3016.77 240.445  14
   9  -1   3 3010.73 204.149  95
   9   1   3 3443.39 248.832  95
   9  -1   3 2956.97 248.524  98
  -9   1  -3 3366.84 231.316 105
  -9  -1  -3 3066.72 236.662 109
  -9   1  -3 2950.93 226.167 109
  -9  -1  -3 3053.44 219.173 105
   9  -1   3 2847.30 217.017  88
   9   1   3 3235.57 245.916  88
   9  -1   3 3068.53 238.923  57
   9  -1   3 3137.29 244.985  63
   9  -1   3 3242.71 249.315  61
  -9   1  -3 3063.99 203.467  52
   9   1   3 2916.10 209.513  22
  -9  -1  -3 3244.53 258.372  25
  -9   1  -4 2071.75 186.192  14
   9   1   4 2255.67 188.731  95
   9  -1   4 2196.98 199.461  98
  -9  -1  -4 2300.82 194.732 109
  -9   1  -4 2108.63 186.372 109
   9  -1   4 1915.65 154.086  88
   9   1   4 2548.08 198.020  88
   9  -1   4 2020.11 176.927  65
   9  -1   4 2261.09 193.038  63
   9  -1   4 2062.51 188.079  61
  -9  -1  -4 2232.01 201.426  25
   9  -1   5 1464.41 145.060 106
  -9  -1  -5 1776.16 155.294 109
  -9   1  -5 1540.29 144.271 109
   9  -1   5 1572.12 138.342  65
   9  -1   5 1645.12 148.988  63
  -9   1  -5 1580.70 142.820  16
  -9   1  -5 1499.28 138.457  14
   9   1   5 1363.84 128.260  95
  -9   1  -6 6474.62 265.347 109
   9   2  -7 1664.63 121.326  21
   9  -2  -7 1409.87 117.332 103
   9   2  -7 1625.34 132.508 104
  -9   2   6 1405.36 145.772   5
  -9   2   6 1062.49 107.087  16
   9   2  -6 1098.02 130.278  21
   9  -2  -6 1132.40 121.368 103
  -9  -2   6 1004.65 113.792 107
   9   2  -6 1201.40 130.280 103
  -9  -2   6 1233.19 136.244 111
  -9   2   5 3323.02 224.203  16
  -9   2   5 3816.04 223.870  54
   9   2  -5 3089.95 207.705  20
   9  -2  -5 3162.69 208.440 103
  -9   2   5 3310.15 218.522 105
  -9  -2   5 3238.79 206.597 107
   9   2  -5 4033.65 253.134 103
   9   2  -5 3986.83 253.000 104
  -9  -2   5 3576.55 245.354 111
  -9  -2   5 3278.45 211.725 105
  -9   2   4 198.402 98.6565   5
  -9   2   4 203.409 96.3364  16
   9  -2  -4 234.752 77.4763 103
  -9  -2   4 226.111 95.6636 105
  -9   2   4 185.718 94.4439 105
  -9  -2   4 161.746 73.4191 107
   9   2  -4 187.829 90.4032 104
  -9   2   4 279.291 94.5337  54
   9  -2  -4 264.032 95.7549  62
   9   2  -4 298.259 100.218  20
   9   2  -4 345.091 105.435  22
  -9   2   3 3453.63 255.314   5
  -9   2   3 4413.50 294.498  16
   9   2  -3 3341.99 232.562  95
  -9   2   3 4074.01 292.496 105
   9   2  -3 3911.41 278.694 103
   9   2  -3 3703.20 265.677 104
  -9  -2   3 4200.28 288.487 111
  -9  -2   3 4223.35 288.560 105
   9  -2  -3 3740.37 273.476  62
   9   2  -3 3852.92 275.265  20
   9  -2  -3 3686.23 241.150  22
  -9   2   2 6903.77 358.145   5
  -9   2   2 7462.72 395.546  16
   9   2  -2 6254.72 341.781  95
   9   2  -2 6747.50 376.601 103
   9   2  -2 7576.42 377.597 104
  -9  -2   2 7456.39 390.238 111
   9   2  -2 6114.36 316.993  88
   9  -2  -2 5944.47 352.688  62
   9   2  -2 7236.23 391.960  20
   9   2  -2 6868.05 378.858  22
  -9   2   1 2673.34 212.820   5
  -9   2   1 3034.75 256.464  16
   9  -2  -1 2664.48 217.780  95
   9   2  -1 2481.10 219.775  95
  -9   2   1 2519.63 250.065 105
   9   2  -1 2853.79 236.711 103
  -9  -2   1 2966.39 243.802 111
   9   2  -1 3097.43 235.023 104
  -9  -2   1 2942.82 263.037 105
   9   2  -1 2842.15 216.810  88
   9  -2  -1 2307.60 209.048  62
   9   2  -1 2898.94 246.672  20
   9   2  -1 2734.84 235.270  22
  -9   2   0 2739.56 246.297  14
   9  -2   0 2748.11 209.478  95
   9   2   0 3395.26 248.560  95
  -9   2   0 3125.44 263.291 105
   9   2   0 3088.31 242.264 103
  -9  -2   0 2844.10 233.502 111
   9   2   0 2815.05 213.292 104
  -9  -2   0 3490.38 268.262 105
   9  -2   0 2787.69 226.390  88
   9   2   0 3046.32 230.835  88
   9  -2   0 2735.59 214.326  62
  -9  -2   0 3182.58 260.104  24
   9   2   0 3461.93 262.724  20
   9   2   0 2789.91 227.972  22
  -9   2  -1 12995.4 552.179  14
   9  -2   1 11511.9 449.760  95
   9   2   1 13689.3 542.542  95
   9  -2   1 12607.4 499.096  88
   9   2   1 13119.7 523.479  88
  -9   2  -1 12661.6 541.988 105
  -9  -2  -1 12949.9 507.900 111
   9   2   1 13013.4 514.622 103
   9   2   1 11829.3 458.289 104
  -9  -2  -1 13092.0 504.052 109
  -9  -2  -1 12735.1 533.499 105
   9  -2   1 12531.3 535.928  61
  -9  -2  -1 13420.6 548.648  24
   9   2   1 13729.5 543.489  20
   9   2   1 12713.8 494.334  22
  -9   2  -2 155.199 93.6325  16
  -9   2  -2 103.142 91.0253  14
  -9  -2  -2 139.426 78.2827 109
  -9  -2  -2 104.364 83.3351 105
  -9   2  -2 170.368 87.2062 105
   9   2   2 173.651 73.9854 103
   9  -2   2 83.3695 55.6274  88
   9   2   2 111.589 79.0976  88
  -9   2  -2 142.507 83.3110  54
  -9   2  -2 233.703 89.5754  52
   9  -2   2 123.324 82.2128  57
   9  -2   2 165.189 92.7258  63
   9  -2   2 98.9142 83.3163  61
  -9  -2  -2 257.535 95.1778  24
   9   2   2 134.535 79.9621  20
  -9   2  -3 14223.4 501.327  16
  -9   2  -3 12901.8 508.758  14
   9  -2   3 13169.4 511.380  98
  -9   2  -3 12510.1 457.142 109
  -9   2  -3 11714.3 442.401 105
  -9  -2  -3 13251.4 497.314 109
  -9  -2  -3 12379.8 440.823 105
   9   2   3 13403.1 496.689  88
   9  -2   3 13250.5 511.067  63
   9  -2   3 12980.6 496.128  61
  -9   2  -3 11823.6 428.246  54
  -9   2  -3 12463.0 455.461  52
  -9  -2  -3 11870.8 457.475  24
  -9   2  -4 10554.3 387.676 109
  -9  -2  -4 11415.2 420.940 109
   9  -2   4 11091.3 421.422  63
   9  -2   4 10475.9 396.954  61
  -9   2  -4 9937.79 376.377  16
  -9   2  -4 10555.4 416.377  14
   9   2   4 10905.8 408.245  95
   9  -2   4 10320.9 414.193  98
   9  -2   5 8501.10 329.451 106
  -9   2  -5 8586.63 326.146  14
   9   2   5 8985.48 329.529  97
   9  -2   5 8595.33 325.207  98
  -9   3   5 3417.73 190.246  16
  -9  -3   5 3633.04 197.365 111
   9   3  -5 3273.70 176.104 103
  -9   3   4 2373.11 177.992  16
  -9   3   4 2088.57 157.833 105
  -9  -3   4 2032.68 163.574 111
   9   3  -4 2312.10 167.596 103
   9   3  -4 2247.61 169.076 104
  -9  -3   4 2192.62 156.355 105
  -9   3   4 2197.47 153.674  54
   9   3  -4 2324.61 159.067  20
   9   3  -4 2327.46 171.381  21
  -9   3   3 2650.49 195.078  16
   9  -3  -3 1854.64 134.712  95
  -9   3   3 2159.16 183.897 105
  -9  -3   3 2334.28 179.098 111
   9   3  -3 2271.72 180.163 104
  -9  -3   3 2191.77 175.738 105
   9   3  -3 2073.03 168.919  20
   9   3  -3 2314.14 177.581  21
  -9   3   3 2354.85 169.313  52
  -9   3   3 2370.09 183.703  54
   9   3  -2 853.339 124.329 103
  -9  -3   2 997.603 122.772 111
   9   3  -2 852.782 121.929 104
  -9   3   2 936.877 120.612  52
   9   3  -2 834.408 121.766  20
   9  -3  -1 2572.76 171.073  88
  -9   3   1 3444.10 229.372  54
  -9   3   1 3279.12 235.114 105
  -9  -3   1 3232.94 199.722 111
   9   3  -1 3324.94 220.790 103
   9   3  -1 3075.97 208.113 104
  -9  -3   1 3647.22 238.549 105
   9   3   0 151.359 57.1466  17
  -9   3   0 259.501 90.4365  16
   9   3   0 202.239 73.3779 104
  -9  -3   0 154.911 85.5177 105
  -9   3   0 143.633 86.3458 105
   9   3   0 163.000 78.2801 103
  -9  -3   0 188.312 58.9630 111
  -9   3   0 213.808 85.6472  54
  -9   3   0 187.791 79.9810  52
   9  -3   0 222.024 79.2961  61
  -9  -3   0 143.677 82.8539  24
   9   3   0 281.692 89.0401  20
   9   3   0 179.355 59.6077  95
   9   3   1 8510.99 340.104  17
  -9   3  -1 8803.67 357.082  16
  -9   3  -1 8470.70 362.229 105
   9   3   1 7524.98 311.701 104
   9   3   1 8918.10 356.443 103
  -9  -3  -1 7665.40 318.165 109
  -9  -3  -1 9033.67 363.190 105
   9  -3   1 8196.25 346.166  61
  -9   3  -1 8899.92 363.907  52
  -9   3  -1 8826.10 354.764  54
   9   3   1 8648.21 350.518  20
   9   3   1 7935.91 323.936  95
   9   3   2 2008.38 153.582  17
  -9   3  -2 1915.71 141.464  16
   9   3   2 2156.64 146.978 103
  -9   3  -2 1910.93 141.247 105
  -9  -3  -2 2041.46 144.292 109
  -9  -3  -2 2086.91 142.125 105
   9  -3   2 2092.95 155.722  63
  -9   3  -2 1981.62 136.735  54
  -9   3  -2 2196.71 154.531  52
  -9  -3  -2 2320.84 170.243  24
   9   3   2 2051.61 136.355  20
   9  -3   2 1912.26 156.955  98
   9   3   3 7532.45 289.407  17
  -9  -3  -3 7061.82 277.817 109
   9  -3   3 7511.97 294.064  65
   9  -3   3 6438.80 270.525  98
  -9  -3  -3 7077.83 272.628  24
  10   0  -5 9152.66 341.081 103
 -10   0   5 9761.84 354.234   5
  10   0  -5 8681.11 334.572  95
  10   0  -4 1511.31 129.843  88
 -10   0   4 1554.11 137.296 105
  10   0  -4 1542.82 131.580 103
  10   0  -4 1642.67 142.690  95
  10   0  -4 1452.10 134.505  20
  10   0  -4 1440.99 131.703  22
  10   0  -3 3875.95 228.257  88
 -10   0   3 3970.79 240.148 105
  10   0  -3 3549.97 205.402 103
 -10   0   3 3696.36 222.459 111
  10   0  -3 3915.59 236.633  20
  10   0  -3 3827.21 229.959  22
  10   0  -2 250.827 85.4867  95
  10   0  -2 255.166 66.7428 103
  10   0  -2 221.898 80.5519  88
 -10   0   2 205.367 62.0163  16
  10   0  -2 325.224 93.9319  20
  10   0  -2 295.457 90.9206  22
  10   0  -1 49132.3 1346.79  95
 -10   0   1 50537.4 1369.71 105
  10   0  -1 48924.4 1353.60  22
 -10   0   1 46120.8 1289.76  16
 -10   0   0 4076.89 232.458  16
  10   0   0 4214.66 244.099  95
 -10   0   0 4260.83 254.312 105
  10   0   0 3867.17 237.591  88
  10   0   0 3709.73 213.711  61
  10   0   0 4192.87 249.448  20
 -10   0  -1 2657.25 185.019  16
  10   0   1 2428.40 175.599  95
 -10   0  -1 2738.92 189.629 105
  10   0   1 2924.67 192.905  88
  10   0   1 2201.65 161.830  61
  10   0   1 2635.67 184.021  20
  10   0   1 2817.60 192.879  22
  10   0   2 7387.47 312.177  88
  10   0   2 7628.81 307.047  22
  10   0   2 7562.26 302.418  95
 -10   0  -2 7990.36 323.492  16
 -10   0  -3 826.094 94.4726  16
  10  -1  -5 4265.77 203.560  88
  10   1  -5 4941.54 219.774 103
 -10   1   5 4819.19 219.330   5
 -10  -1   5 4075.81 193.520   5
  10  -1  -4 6792.34 293.037  95
  10   1  -4 5922.80 254.562  95
 -10  -1   4 6512.98 273.672 105
 -10   1   4 6510.66 275.611 105
  10   1  -4 6859.03 288.405 103
  10   1  -4 5954.30 253.210 104
 -10  -1   4 6694.13 283.933 111
  10  -1  -4 6060.31 280.684  88
 -10   1   4 6097.84 264.103  54
  10   1  -4 6379.17 268.924  20
  10  -1  -4 6425.60 273.602  20
  10   1  -4 6774.00 290.279  22
  10  -1  -3 3547.29 214.362  95
  10   1  -3 3672.50 205.836  95
 -10   1   3 4051.77 230.842 105
  10   1  -3 4048.03 218.015 103
  10   1  -3 3128.61 172.915 104
 -10  -1   3 3821.68 224.503 105
  10   1  -3 2834.50 171.868  88
  10   1  -3 3993.43 224.719  20
  10  -1  -3 3458.43 214.592  20
  10   1  -3 3917.77 225.247  22
  10  -1  -3 3416.91 195.662  22
 -10   1   3 3721.27 213.627   5
 -10   1   3 3247.48 183.078  16
 -10   1   2 21079.2 644.520   5
 -10   1   2 20431.0 640.657  16
  10  -1  -2 21059.3 661.643  95
  10   1  -2 20192.1 653.357  95
  10   1  -2 20347.8 635.335 103
 -10  -1   2 20672.7 667.187 111
  10  -1  -2 19958.6 661.764  88
  10   1  -2 19655.3 629.195  88
  10  -1  -2 19397.3 637.279  61
  10   1  -2 21110.6 676.077  20
  10  -1  -2 21065.7 659.353  22
 -10   1   1 4688.47 233.373   5
 -10   1   1 5235.58 264.292  16
  10  -1  -1 4972.15 256.162  95
  10   1  -1 4957.33 263.265  95
 -10   1   1 5262.56 282.085 105
  10   1  -1 4447.15 227.112 103
 -10  -1   1 5304.04 273.113 111
 -10  -1   1 5657.07 286.248 105
  10  -1  -1 5111.80 267.848  88
  10   1  -1 4834.54 253.589  88
  10  -1  -1 4578.19 251.225  61
  10   1  -1 5380.06 273.435  22
  10  -1  -1 5247.07 270.790  22
 -10   1   0 3930.74 231.570  16
  10  -1   0 3974.14 215.920  95
  10  -1   0 3704.22 213.816  98
 -10   1   0 4694.46 253.777 105
 -10  -1   0 4650.28 249.945 105
  10  -1   0 4064.11 231.054  88
  10   1   0 4136.47 228.433  88
  10  -1   0 3650.50 213.736  63
  10  -1   0 3801.94 226.499  61
  10   1   0 4231.79 236.087  20
  10  -1   0 4272.90 237.751  20
  10   1   0 4292.25 234.150  22
  10  -1   0 4384.36 243.569  22
 -10   1  -1 18973.8 577.586  16
 -10  -1  -1 14097.9 492.379  16
  10  -1   1 15061.4 501.841  95
  10   1   1 17704.2 563.361  95
  10  -1   1 16227.2 535.248  98
 -10  -1  -1 18172.7 559.317 105
 -10   1  -1 17743.5 558.556 105
  10  -1   1 16965.8 542.772  88
  10   1   1 16892.9 554.214  88
  10  -1   1 17735.9 562.137  61
  10   1   1 18051.0 549.035  20
  10  -1   1 17075.8 546.118  20
  10   1   1 17286.8 536.057  22
  10  -1   2 686.370 89.7326  22
 -10   1  -2 725.054 95.6141  16
 -10  -1  -2 582.594 76.4374  16
  10   1   2 635.404 85.9738  95
  10  -1   2 655.363 82.4604  98
  10  -2  -3 21667.6 624.395  88
  10   2  -3 22974.6 631.563 103
 -10  -2   3 21631.6 628.073 111
  10   2  -3 22145.8 620.138  20
 -10   2   2 10771.9 373.734  16
  10   2  -2 11089.5 379.905  20
 -10  -2   2 10575.2 370.457 111
  10   2  -2 10793.7 368.266 103
 -10   2   1 12355.0 415.081  16
 -10   2   1 11712.5 418.044 105
 -10  -2   1 11656.4 393.471 111
 -10  -2   1 12637.7 422.931 105
 -10   2   1 11963.2 405.876  52
 -10   2   1 12303.6 414.799  54
 -10   2   0 8577.31 323.469  16
 -10   2   0 8126.74 317.651 105
 -10  -2   0 8909.19 324.080 105
  10  -2   0 7660.22 311.865  98
 -10   2   0 8742.96 314.325  52
 -10   2   0 8161.15 309.508  54
  10   2   0 8717.00 314.399  20
  10  -2   0 8214.74 307.086  22
  10  -2   1 4202.12 193.769  22
   0   0   0    0.00    0.00   0

TITL knoell in P2(1)/m
REM P2(1)/m (#11 in standard setting)
CELL 1.54184   8.353263   5.760246  11.543532  90.0000  95.1416  90.0000
ZERR    2.00   0.000070   0.000055   0.000097   0.0000   0.0008   0.0000
LATT  1
SYMM -x, y+1/2,-z
SFAC C H N O
UNIT 20.00 28.00 4.00 12.00
TREF
HKLF 4
END
;
_shelx_hkl_checksum              23487
loop_
_space_group_symop_operation_xyz
'x, y, z'
'-x, y+1/2, -z'
loop_
_atom_site_label
_atom_site_type_symbol
_atom_site_fract_x
_atom_site_fract_y
_atom_site_fract_z
_atom_site_U_iso_or_equiv
_atom_site_adp_type
_atom_site_occupancy
_atom_site_site_symmetry_order
_atom_site_calc_flag
_atom_site_refinement_flags_posn
_atom_site_refinement_flags_adp
_atom_site_refinement_flags_occupancy
_atom_site_disorder_assembly
_atom_site_disorder_group
C1 C 0.55685(17) 0.6022(3) 0.29513(12) 0.0139(3) Uani 1 1 d . . . . .
H1 H 0.544351 0.755499 0.333989 0.017 Uiso 1 1 calc R U . . .
C2 C 0.55133(17) 0.4072(3) 0.38389(12) 0.0137(3) Uani 1 1 d . . . . .
H2 H 0.523323 0.257513 0.343152 0.016 Uiso 1 1 calc R U . . .
C3 C 0.72626(17) 0.3997(3) 0.43767(12) 0.0141(3) Uani 1 1 d . . . . .
H3 H 0.754756 0.240172 0.466875 0.017 Uiso 1 1 calc R U . . .
C4 C 0.82280(17) 0.4625(3) 0.33432(13) 0.0147(3) Uani 1 1 d . . . . .
C5 C 0.8773(2) 0.2474(3) 0.27218(15) 0.0187(3) Uani 1 1 d . . . . .
H5A H 0.920605 0.292463 0.198346 0.022 Uiso 1 1 calc R U . . .
H5B H 0.963422 0.167501 0.321492 0.022 Uiso 1 1 calc R U . . .
C6 C 0.96668(19) 0.6192(3) 0.36529(14) 0.0193(3) Uani 1 1 d . . . . .
H6A H 1.012021 0.669016 0.293929 0.029 Uiso 1 1 calc R U . . .
H6B H 1.048328 0.533860 0.414547 0.029 Uiso 1 1 calc R U . . .
H6C H 0.932474 0.755639 0.407364 0.029 Uiso 1 1 calc R U . . .
C7 C 0.43885(19) 0.3882(3) 0.12434(13) 0.0178(3) Uani 1 1 d . . . . .
H7 H 0.526881 0.283813 0.136083 0.021 Uiso 1 1 calc R U . . .
C8 C 0.3242(2) 0.3456(3) 0.03739(14) 0.0196(3) Uani 1 1 d . . . . .
H8 H 0.333015 0.215818 -0.012393 0.023 Uiso 1 1 calc R U . . .
C9 C 0.1884(2) 0.4987(3) 0.02076(14) 0.0187(3) Uani 1 1 d . . . . .
C10 C 0.30914(18) 0.7360(3) 0.18483(13) 0.0153(3) Uani 1 1 d . . . . .
O1 O 0.70990(12) 0.5895(2) 0.25157(9) 0.0153(2) Uani 1 1 d . . . . .
O2 O 0.43685(13) 0.4581(2) 0.46269(9) 0.0163(2) Uani 1 1 d . . . . .
H02 H 0.383(3) 0.329(5) 0.471(2) 0.033(6) Uiso 1 1 d . . . . .
O3 O 0.75340(13) 0.5667(2) 0.52922(9) 0.0166(2) Uani 1 1 d . . . . .
H03 H 0.726(3) 0.495(5) 0.592(2) 0.035(7) Uiso 1 1 d . . . . .
O4 O 0.74334(14) 0.0955(2) 0.24898(10) 0.0204(3) Uani 1 1 d . . . . .
H04 H 0.780(3) -0.031(6) 0.229(2) 0.035(7) Uiso 1 1 d . . . . .
O5 O 0.29859(13) 0.9046(2) 0.24779(9) 0.0186(3) Uani 1 1 d . . . . .
O6 O 0.07247(14) 0.4753(3) -0.05205(10) 0.0239(3) Uani 1 1 d . . . . .
N1 N 0.43335(15) 0.5771(3) 0.19688(11) 0.0149(3) Uani 1 1 d . . . . .
N2 N 0.19408(16) 0.6886(3) 0.09453(12) 0.0175(3) Uani 1 1 d . . . . .
H01 H 0.113(3) 0.788(5) 0.084(2) 0.030(6) Uiso 1 1 d . . . . .
loop_
_atom_site_aniso_label
_atom_site_aniso_U_11
_atom_site_aniso_U_22
_atom_site_aniso_U_33
_atom_site_aniso_U_23
_atom_site_aniso_U_13
_atom_site_aniso_U_12
C1 0.0127(6) 0.0157(8) 0.0125(6) -0.0002(6) -0.0023(5) -0.0003(6)
C2 0.0128(6) 0.0143(8) 0.0138(6) -0.0003(6) 0.0000(5) 0.0002(6)
C3 0.0141(7) 0.0139(7) 0.0137(7) -0.0001(6) -0.0017(5) 0.0005(6)
C4 0.0127(7) 0.0162(8) 0.0147(7) 0.0023(6) -0.0019(5) 0.0010(6)
C5 0.0154(7) 0.0194(8) 0.0214(8) -0.0006(7) 0.0020(6) 0.0012(6)
C6 0.0149(7) 0.0230(9) 0.0193(7) 0.0015(7) -0.0012(6) -0.0034(6)
C7 0.0193(7) 0.0170(8) 0.0167(7) 0.0004(7) 0.0002(6) -0.0002(6)
C8 0.0248(8) 0.0182(9) 0.0149(7) -0.0018(6) -0.0021(6) -0.0020(7)
C9 0.0189(7) 0.0234(8) 0.0133(7) 0.0034(6) -0.0009(6) -0.0058(6)
C10 0.0147(7) 0.0188(8) 0.0124(7) 0.0034(6) 0.0006(6) 0.0006(6)
O1 0.0131(5) 0.0179(6) 0.0146(5) 0.0038(5) -0.0003(4) 0.0004(5)
O2 0.0151(5) 0.0171(6) 0.0171(5) 0.0004(5) 0.0033(4) -0.0001(5)
O3 0.0170(5) 0.0200(6) 0.0121(5) -0.0011(5) -0.0015(4) -0.0012(5)
O4 0.0193(5) 0.0156(6) 0.0267(6) -0.0043(5) 0.0031(4) 0.0002(5)
O5 0.0194(5) 0.0201(6) 0.0155(5) -0.0012(5) -0.0021(4) 0.0045(5)
O6 0.0214(6) 0.0310(7) 0.0175(5) 0.0041(5) -0.0078(5) -0.0082(5)
N1 0.0141(6) 0.0167(6) 0.0130(6) 0.0001(5) -0.0034(5) 0.0001(6)
N2 0.0137(6) 0.0230(7) 0.0151(6) 0.0006(5) -0.0030(5) 0.0023(6)
loop_
_atom_type_symbol
_atom_type_description
_atom_type_scat_dispersion_real
_atom_type_scat_dispersion_imag
_atom_type_scat_source
C C 0.0181 0.0091 'International Tables Vol C Tables 4.2.6.8 and 6.1.1.4'
H H 0.0000 0.0000 'International Tables Vol C Tables 4.2.6.8 and 6.1.1.4'
N N 0.0311 0.0180 'International Tables Vol C Tables 4.2.6.8 and 6.1.1.4'
O O 0.0492 0.0322 'International Tables Vol C Tables 4.2.6.8 and 6.1.1.4'
loop_
_geom_angle_atom_site_label_1
_geom_angle_atom_site_label_2
_geom_angle_atom_site_label_3
_geom_angle
_geom_angle_site_symmetry_1
_geom_angle_site_symmetry_3
_geom_angle_publ_flag
O1 C1 N1 108.31(11) . . ?
O1 C1 C2 106.46(12) . . ?
N1 C1 C2 112.63(13) . . ?
O2 C2 C1 110.13(13) . . ?
O2 C2 C3 114.91(12) . . ?
C1 C2 C3 101.98(12) . . ?
O3 C3 C2 111.16(13) . . ?
O3 C3 C4 110.73(13) . . ?
C2 C3 C4 103.01(11) . . ?
O1 C4 C6 107.70(13) . . ?
O1 C4 C5 107.43(12) . . ?
C6 C4 C5 109.32(13) . . ?
O1 C4 C3 105.61(11) . . ?
C6 C4 C3 114.51(12) . . ?
C5 C4 C3 111.89(14) . . ?
O4 C5 C4 108.98(13) . . ?
C8 C7 N1 122.48(15) . . ?
C7 C8 C9 119.24(16) . . ?
O6 C9 N2 119.19(16) . . ?
O6 C9 C8 125.97(17) . . ?
N2 C9 C8 114.84(14) . . ?
O5 C10 N2 121.61(15) . . ?
O5 C10 N1 124.11(14) . . ?
N2 C10 N1 114.28(14) . . ?
C1 O1 C4 109.91(11) . . ?
C7 N1 C10 121.90(13) . . ?
C7 N1 C1 119.18(13) . . ?
C10 N1 C1 118.78(13) . . ?
C10 N2 C9 127.13(15) . . ?
loop_
_geom_bond_atom_site_label_1
_geom_bond_atom_site_label_2
_geom_bond_distance
_geom_bond_site_symmetry_2
_geom_bond_publ_flag
C1 O1 1.4170(18) . ?
C1 N1 1.4703(17) . ?
C1 C2 1.524(2) . ?
C2 O2 1.4084(18) . ?
C2 C3 1.5363(19) . ?
C3 O3 1.4323(18) . ?
C3 C4 1.542(2) . ?
C4 O1 1.4751(17) . ?
C4 C6 1.520(2) . ?
C4 C5 1.522(2) . ?
C5 O4 1.427(2) . ?
C7 C8 1.346(2) . ?
C7 N1 1.377(2) . ?
C8 C9 1.436(2) . ?
C9 O6 1.232(2) . ?
C9 N2 1.384(2) . ?
C10 O5 1.221(2) . ?
C10 N2 1.380(2) . ?
C10 N1 1.381(2) . ?
loop_
_geom_hbond_atom_site_label_D
_geom_hbond_atom_site_label_H
_geom_hbond_atom_site_label_A
_geom_hbond_distance_DH
_geom_hbond_distance_HA
_geom_hbond_distance_DA
_geom_hbond_angle_DHA
_geom_hbond_site_symmetry_A
_geom_hbond_publ_flag
O2 H02 O3 0.88(3) 1.89(3) 2.7647(17) 172(2) 2_646 yes
O3 H03 O5 0.88(3) 1.95(3) 2.8084(16) 164(2) 2_646 yes
O4 H04 O1 0.83(3) 2.28(3) 2.9281(19) 135(2) 1_545 yes
O4 H04 O6 0.83(3) 2.48(2) 2.9395(17) 116(2) 2_645 yes
N2 H01 O6 0.89(3) 1.90(3) 2.7801(18) 174(2) 2 yes
C7 H7 O4 0.95 2.39 3.275(2) 154.5 . yes
loop_
_geom_torsion_atom_site_label_1
_geom_torsion_atom_site_label_2
_geom_torsion_atom_site_label_3
_geom_torsion_atom_site_label_4
_geom_torsion
_geom_torsion_site_symmetry_1
_geom_torsion_site_symmetry_2
_geom_torsion_site_symmetry_3
_geom_torsion_site_symmetry_4
_geom_torsion_publ_flag
O1 C1 C2 O2 156.99(12) . . . . ?
N1 C1 C2 O2 -84.45(15) . . . . ?
O1 C1 C2 C3 34.55(15) . . . . ?
N1 C1 C2 C3 153.11(12) . . . . ?
O2 C2 C3 O3 -34.54(19) . . . . ?
C1 C2 C3 O3 84.56(14) . . . . ?
O2 C2 C3 C4 -153.17(14) . . . . ?
C1 C2 C3 C4 -34.06(15) . . . . ?
O3 C3 C4 O1 -96.31(14) . . . . ?
C2 C3 C4 O1 22.62(16) . . . . ?
O3 C3 C4 C6 22.01(18) . . . . ?
C2 C3 C4 C6 140.93(14) . . . . ?
O3 C3 C4 C5 147.11(13) . . . . ?
C2 C3 C4 C5 -93.96(14) . . . . ?
O1 C4 C5 O4 -66.49(16) . . . . ?
C6 C4 C5 O4 176.91(13) . . . . ?
C3 C4 C5 O4 48.99(16) . . . . ?
N1 C7 C8 C9 -1.6(3) . . . . ?
C7 C8 C9 O6 -177.00(16) . . . . ?
C7 C8 C9 N2 3.6(2) . . . . ?
N1 C1 O1 C4 -142.43(13) . . . . ?
C2 C1 O1 C4 -21.07(15) . . . . ?
C6 C4 O1 C1 -124.09(14) . . . . ?
C5 C4 O1 C1 118.26(13) . . . . ?
C3 C4 O1 C1 -1.31(16) . . . . ?
C8 C7 N1 C10 -0.1(2) . . . . ?
C8 C7 N1 C1 175.53(15) . . . . ?
O5 C10 N1 C7 179.27(15) . . . . ?
N2 C10 N1 C7 -0.4(2) . . . . ?
O5 C10 N1 C1 3.7(2) . . . . ?
N2 C10 N1 C1 -175.96(13) . . . . ?
O1 C1 N1 C7 53.75(18) . . . . ?
C2 C1 N1 C7 -63.72(17) . . . . ?
O1 C1 N1 C10 -130.53(14) . . . . ?
C2 C1 N1 C10 112.00(16) . . . . ?
O5 C10 N2 C9 -176.85(15) . . . . ?
N1 C10 N2 C9 2.8(2) . . . . ?
O6 C9 N2 C10 176.15(15) . . . . ?
C8 C9 N2 C10 -4.4(2) . . . . ?
