#------------------------------------------------------------------------------
#$Date: 2019-11-27 02:10:55 +0200 (Wed, 27 Nov 2019) $
#$Revision: 243745 $
#$URL: file:///home/coder/svn-repositories/cod/cif/4/03/76/4037616.cif $
#------------------------------------------------------------------------------
#
# This file is available in the Crystallography Open Database (COD),
# http://www.crystallography.net/
#
# All data on this site have been placed in the public domain by the
# contributors.
#
data_4037616
loop_
_publ_author_name
'Bugera, Maksym'
'Trofymchuk, Serhii'
'Tarasenko, Karen'
'Zaporozhets, Olga'
'Pustovit, Yurii'
'Mykhailiuk, Pavel K.'
_publ_section_title
;
 Deoxofluorination of Aliphatic Carboxylic Acids: a Route to
 Trifluoromethyl-Substituted Derivatives.
;
_journal_name_full               'The Journal of organic chemistry'
_journal_paper_doi               10.1021/acs.joc.9b02596
_journal_year                    2019
_chemical_formula_moiety         'C8 H6 Br F3'
_chemical_formula_sum            'C8 H6 Br F3'
_chemical_formula_weight         239.04
_chemical_melting_point          333
_space_group_crystal_system      orthorhombic
_space_group_IT_number           62
_space_group_name_Hall           '-P 2ac 2n'
_space_group_name_H-M_alt        'P n m a'
_atom_sites_solution_hydrogens   mixed
_audit_creation_method           SHELXL-2016/4
_cell_angle_alpha                90
_cell_angle_beta                 90
_cell_angle_gamma                90
_cell_formula_units_Z            4
_cell_length_a                   19.766(4)
_cell_length_b                   9.0401(15)
_cell_length_c                   4.6202(8)
_cell_measurement_reflns_used    686
_cell_measurement_temperature    173(2)
_cell_measurement_theta_max      22.85
_cell_measurement_theta_min      3.05
_cell_volume                     825.6(3)
_computing_cell_refinement       'Bruker SMART'
_computing_data_collection       'Bruker SMART'
_computing_data_reduction        'Bruker SAINT'
_computing_molecular_graphics    'Bruker SHELXTL'
_computing_publication_material  'Bruker SHELXTL'
_computing_structure_refinement  'SHELXL-2016/4 (Sheldrick, 2016)'
_computing_structure_solution    'Bruker SHELXTL'
_diffrn_ambient_temperature      173(2)
_diffrn_measured_fraction_theta_full 1.000
_diffrn_measured_fraction_theta_max 1.000
_diffrn_measurement_device_type  'CCD area detector'
_diffrn_measurement_method       'omega scans'
_diffrn_radiation_monochromator  graphite
_diffrn_radiation_source         'sealed tube'
_diffrn_radiation_type           MoK\a
_diffrn_radiation_wavelength     0.71073
_diffrn_reflns_av_R_equivalents  0.0431
_diffrn_reflns_av_unetI/netI     0.0309
_diffrn_reflns_Laue_measured_fraction_full 1.000
_diffrn_reflns_Laue_measured_fraction_max 1.000
_diffrn_reflns_limit_h_max       23
_diffrn_reflns_limit_h_min       -24
_diffrn_reflns_limit_k_max       10
_diffrn_reflns_limit_k_min       -11
_diffrn_reflns_limit_l_max       5
_diffrn_reflns_limit_l_min       -5
_diffrn_reflns_number            4919
_diffrn_reflns_point_group_measured_fraction_full 1.000
_diffrn_reflns_point_group_measured_fraction_max 1.000
_diffrn_reflns_theta_full        25.242
_diffrn_reflns_theta_max         25.998
_diffrn_reflns_theta_min         2.061
_exptl_absorpt_coefficient_mu    4.966
_exptl_absorpt_correction_T_max  0.57
_exptl_absorpt_correction_T_min  0.51
_exptl_absorpt_correction_type   multi-scan
_exptl_absorpt_process_details   SADABS
_exptl_crystal_colour            colourless
_exptl_crystal_density_diffrn    1.923
_exptl_crystal_description       block
_exptl_crystal_F_000             464
_exptl_crystal_size_max          0.330
_exptl_crystal_size_mid          0.200
_exptl_crystal_size_min          0.130
_refine_diff_density_max         0.287
_refine_diff_density_min         -0.350
_refine_diff_density_rms         0.069
_refine_ls_extinction_method     none
_refine_ls_goodness_of_fit_ref   1.054
_refine_ls_hydrogen_treatment    mixed
_refine_ls_matrix_type           full
_refine_ls_number_parameters     70
_refine_ls_number_reflns         866
_refine_ls_number_restraints     0
_refine_ls_restrained_S_all      1.054
_refine_ls_R_factor_all          0.0386
_refine_ls_R_factor_gt           0.0270
_refine_ls_shift/su_max          0.001
_refine_ls_shift/su_mean         0.000
_refine_ls_structure_factor_coef Fsqd
_refine_ls_weighting_details
'w=1/[\s^2^(Fo^2^)+(0.0250P)^2^+0.3670P] where P=(Fo^2^+2Fc^2^)/3'
_refine_ls_weighting_scheme      calc
_refine_ls_wR_factor_gt          0.0566
_refine_ls_wR_factor_ref         0.0597
_reflns_Friedel_coverage         0.000
_reflns_number_gt                713
_reflns_number_total             866
_reflns_threshold_expression     'I > 2\s(I)'
_cod_data_source_file            jo9b02596_si_004.cif
_cod_data_source_block           xr98
_cod_database_code               4037616
_shelx_shelxl_version_number     2016/4
_shelx_space_group_comment
;
The symmetry employed for this shelxl refinement is uniquely defined
by the following loop, which should always be used as a source of
symmetry information in preference to the above space-group names.
They are only intended as comments.
;
_shelx_estimated_absorpt_t_min   0.291
_shelx_estimated_absorpt_t_max   0.565
_shelx_res_file
;
TITL xr98 in Pnma
 xr98.res created by SHELXL-2016/4 at 11:55:25 on 21-Sep-2018
CELL 0.71073  19.7662   9.0401   4.6202  90.000  90.000  90.000
ZERR    4.00   0.0040   0.0015   0.0008   0.000   0.000   0.000
LATT 1
SYMM 0.5-X, -Y, 0.5+Z
SYMM -X, 0.5+Y, -Z
SYMM 0.5+X, 0.5-Y, 0.5-Z
SFAC C  H  F  Br
UNIT 32  24  12  4
L.S. 4
ACTA
omit -2 52
FMAP 2
PLAN 20
SIZE 0.13 0.20 0.33
TEMP -100
WGHT    0.025000    0.367000
FVAR       0.44610
BR1   4    0.468347    0.750000    0.065862    10.50000    0.03127    0.05181 =
         0.03993    0.00000   -0.00296    0.00000
F1    3    0.787145    0.631759    0.564536    11.00000    0.04383    0.04561 =
         0.05111   -0.01851    0.00151    0.00796
F2    3    0.832230    0.750000    0.918477    10.50000    0.03652    0.05374 =
         0.04622    0.00000   -0.01196    0.00000
C1    1    0.545455    0.750000    0.309055    10.50000    0.02418    0.04056 =
         0.02712    0.00000    0.00776    0.00000
C2    1    0.572079    0.616752    0.400557    11.00000    0.03191    0.02726 =
         0.03445   -0.00377    0.00674   -0.00578
H2    2    0.555065    0.527686    0.333980    11.00000   -1.20000
C3    1    0.626608    0.617986    0.590624    11.00000    0.03254    0.02421 =
         0.03273    0.00371    0.00539    0.00063
AFIX  43
H3    2    0.645353    0.526985    0.654996    11.00000   -1.20000
AFIX   0
C4    1    0.653960    0.750000    0.687354    10.50000    0.02888    0.03117 =
         0.02132    0.00000    0.00519    0.00000
C5    1    0.713073    0.750000    0.889843    10.50000    0.03449    0.03233 =
         0.02201    0.00000   -0.00012    0.00000
H5A   2    0.713796    0.669719    1.020631    11.00000   -1.20000
C6    1    0.779303    0.750000    0.734992    10.50000    0.03554    0.02923 =
         0.03212    0.00000   -0.00008    0.00000
HKLF 4




REM  xr98 in Pnma
REM R1 =  0.0270 for     713 Fo > 4sig(Fo)  and  0.0386 for all     866 data
REM     70 parameters refined using      0 restraints

END

WGHT      0.0239      0.5041

REM Highest difference peak  0.287,  deepest hole -0.350,  1-sigma level  0.069
Q1    1   0.6514  0.8075  0.5807  11.00000  0.05    0.29
Q2    1   0.4705  0.7888  0.2720  11.00000  0.05    0.27
Q3    1   0.5811  0.6165  0.5754  11.00000  0.05    0.26
Q4    1   0.4915  0.8204 -0.1683  11.00000  0.05    0.24
Q5    1   0.4672  0.8744  0.0957  11.00000  0.05    0.24
Q6    1   0.4100  0.7678  0.1903  11.00000  0.05    0.23
Q7    1   0.5398  0.8040  0.4430  11.00000  0.05    0.23
Q8    1   0.8725  0.7500  0.7926  10.50000  0.05    0.22
Q9    1   0.4175  0.7500  0.0824  10.50000  0.05    0.22
Q10   1   0.5155  0.7998  0.0726  11.00000  0.05    0.20
Q11   1   0.4796  0.8600 -0.0679  11.00000  0.05    0.20
Q12   1   0.5096  0.7500  0.0412  10.50000  0.05    0.19
Q13   1   0.7102  0.5070  0.4492  11.00000  0.05    0.19
Q14   1   0.5927  0.6050  0.3018  11.00000  0.05    0.19
Q15   1   0.5664  0.8030  0.2901  11.00000  0.05    0.19
Q16   1   0.6872  0.7500  0.6879  10.50000  0.05    0.18
Q17   1   0.6313  0.7500  0.3762  10.50000  0.05    0.17
Q18   1   0.7768  0.6202  0.7557  11.00000  0.05    0.17
Q19   1   0.6186  0.6158  0.4324  11.00000  0.05    0.17
Q20   1   0.7683  0.4928  0.7500  11.00000  0.05    0.16
;
_shelx_res_checksum              29923
_shelx_hkl_file
;
   0   0   1   -1.45    1.07
   0   0  -1   -2.00    1.04
   0   0   1    0.43    1.09
   0   0  -1   -1.93    1.09
   0   0   2 1748.47   52.39
   0   0  -2 1789.21   55.21
   0   0  -2 1683.51   52.48
   0   0   3   -2.27    2.81
   0   0  -3    0.70    3.43
   0   0  -4   97.45    8.52
   0   0  -5    1.35    6.23
   0  -1   0   -7.39    0.94
   0  -1   0   -8.77    0.58
   0   1   0   -8.39    0.61
   0   1   0   -8.31    0.88
   0   1  -1   36.02    2.55
   0  -1   1   32.37    2.57
   0  -1   1   34.07    2.03
   0   1  -1   34.65    2.06
   0   1   1   33.73    2.59
   0  -1  -1   38.55    2.26
   0  -1  -1   33.25    2.61
   0  -1   2    0.02    2.09
   0   1  -2   -1.03    1.97
   0  -1  -2    0.31    2.44
   0  -1   3  197.19    9.20
   0  -1  -3  191.87   10.04
   0   1  -3  210.39    9.43
   0  -1  -4   -1.78    5.16
   0  -1   4    3.18    4.51
   0   1  -4    6.78    4.96
   0  -1  -5   45.98    8.55
   0   1  -5   47.32    8.01
   0  -2   0 8735.63  275.27
   0   2   0 9273.39  288.68
   0  -2   0 9998.58  288.50
   0   2   0 9445.34  273.51
   0  -2  -1   -1.98    1.36
   0  -2   1    0.90    0.99
   0   2  -1   -1.37    0.91
   0   2  -1    3.39    1.94
   0   2   1    3.31    1.55
   0  -2   1   -1.40    1.94
   0  -2  -1   -1.43    1.67
   0  -2  -2  436.60   15.36
   0  -2  -2  457.73   16.91
   0  -2   2  448.34   16.19
   0   2  -2  487.14   15.73
   0   2  -3   -2.27    3.09
   0  -2  -3    0.88    4.11
   0  -2  -3    2.02    3.08
   0  -2   3   -0.51    3.55
   0  -2  -4    4.57    5.46
   0  -2  -4    0.74    4.14
   0   2  -4    1.41    4.34
   0  -2   4   -5.30    4.58
   0  -2  -5   -5.86    5.41
   0   2  -5   -5.60    5.68
   0  -2  -5    0.18    6.99
   0  -2   5   -2.66    6.06
   0   2   5   -3.91    5.51
   0   3   0   -1.42    1.26
   0   3   0   -1.65    1.93
   0  -3   0   -0.87    2.03
   0   3   0   -0.43    1.29
   0  -3  -1   63.85    4.26
   0   3  -1   60.51    2.86
   0  -3   1   59.91    3.01
   0  -3  -1   61.80    4.27
   0  -3   1   68.86    5.14
   0   3   1   65.21    3.87
   0  -3   2   -2.58    3.22
   0   3  -2    0.29    1.84
   0  -3  -2   -2.47    2.99
   0  -3  -2    2.55    2.61
   0  -3   2    3.62    1.89
   0  -3  -3  609.79   23.11
   0   3  -3  617.26   21.17
   0  -3   3  618.08   22.43
   0  -3  -3  603.45   20.97
   0  -3  -4    4.07    4.59
   0  -3  -4    4.29    6.00
   0  -3   4   12.29    5.77
   0   3  -4    1.69    4.24
   0  -3  -5  101.00    9.12
   0  -3   5   87.23    9.38
   0   3   5  121.90   10.20
   0  -3  -5  141.10   12.49
   0   3  -5   95.29    8.69
   0   4   0  942.20   30.18
   0   4   0  934.33   30.20
   0  -4   0  947.65   30.58
   0   4  -1    0.49    1.58
   0  -4  -1    0.38    2.72
   0  -4   1    1.01    3.37
   0   4   1   -0.48    2.13
   0  -4   1    0.04    1.47
   0  -4  -2    0.83    3.20
   0  -4   2    8.04    4.39
   0   4   2    7.61    3.14
   0   4  -2    5.96    2.04
   0  -4   2    9.07    2.13
   0  -4  -2    2.45    3.66
   0  -4  -3    4.28    3.87
   0  -4   3   -5.42    4.62
   0   4   3    3.36    3.86
   0   4  -3    0.17    2.83
   0  -4  -3    1.06    4.67
   0  -4   4   18.87    6.93
   0   4  -4   12.63    4.50
   0  -4  -4    4.72    6.32
   0   4   4    7.62    5.27
   0  -4  -4   14.98    5.43
   0   4   5    2.57    6.53
   0  -4  -5   -6.16    5.66
   0  -4   5    0.22    7.27
   0   5   0    0.41    2.16
   0  -5   0    5.60    3.49
   0  -5  -1   35.20    4.99
   0   5  -1   46.04    3.62
   0   5   1   49.54    4.25
   0  -5   1   45.76    5.97
   0  -5   1   42.44    3.00
   0  -5   2    3.40    1.97
   0   5   2    4.47    3.35
   0   5  -2    1.07    1.84
   0  -5   2   -1.83    4.62
   0  -5  -2    0.71    3.80
   0   5   3  377.46   15.81
   0  -5  -3  362.09   15.30
   0   5  -3  370.61   13.23
   0  -5  -3  388.77   17.06
   0  -5   3  341.71   16.97
   0   5   4    1.01    5.45
   0  -5   4    1.01    6.79
   0  -5  -4    0.07    5.02
   0  -5   5   77.09   11.12
   0  -5  -5   90.67    9.74
   0   5   5  102.56   10.19
   0  -6   0 1757.94   55.31
   0   6   0 1710.89   54.98
   0   6  -1    1.35    2.95
   0  -6  -1    0.25    4.15
   0  -6   1   -2.50    4.08
   0   6   1    0.13    3.01
   0   6  -1    0.59    2.07
   0  -6   2   78.38    9.01
   0  -6  -2   68.59    7.22
   0   6   2   88.41    6.75
   0   6  -2   76.58    3.78
   0   6   3   -3.29    4.55
   0  -6  -3   -1.38    4.99
   0  -6   3    4.17    6.70
   0  -6  -4   10.06    6.37
   0   6   4    6.23    5.94
   0  -6   4   14.86    8.04
   0  -7   0   -3.52    4.68
   0   7   0    2.10    3.26
   0   7  -1   -0.11    3.47
   0  -7  -1   -0.66    4.96
   0  -7   1    2.56    5.51
   0   7   1   -1.72    3.48
   0  -7  -2   -3.55    5.39
   0   7   2    1.85    4.31
   0  -7   2   12.26    6.95
   0  -7  -3   61.29    8.24
   0  -7   3   73.98   10.97
   0   7   3   73.86    7.89
   0   7   4   -6.45    6.05
   0  -7  -4    2.14    6.51
   0  -7   4   -4.64    8.22
   0  -8   0 1507.01   50.89
   0   8   0 1515.34   49.33
   0   8   1   -1.96    3.93
   0  -8  -1    0.25    5.69
   0  -8   1   -3.67    6.14
   0  -8  -2  143.86   11.21
   0   8   2  123.14    8.89
   0  -8   2  103.71   12.01
   0  -8   3  -10.00    8.27
   0   8   3   -1.72    5.85
   0  -8  -3    6.22    6.87
   0  -8   4   23.32   11.07
   0   8   4   18.73    7.71
   0  -8  -4   25.97    8.30
   0  -9   0   -0.92    6.32
   0   9   0    4.83    4.63
   0   9   1   -6.47    4.26
   0  -9   1  -10.83    6.74
   0  -9  -1   -0.37    6.85
   0   9   2    3.97    5.64
   0  -9  -2   -2.24    6.83
   0  -9   2    3.51    8.31
   0   9   3   23.69    7.43
   0  -9  -3   18.32    8.20
   0  -9   3   27.16   11.16
   0 -10   0  138.19   13.02
   0 -10   1   -7.98    7.71
   0  10   1    4.45    5.49
   0 -10  -1    5.45    7.94
   0 -10  -2   15.97    8.71
   0 -10   2   13.35    9.80
   0  10   2   11.06    6.37
   0 -11   0    1.81    8.48
   0 -11  -1  -14.27    7.92
   0 -11   1    6.94    9.41
  -1   0   0   -0.59    0.07
  -1   0   0   -0.41    0.07
   1   0   0   -0.64    0.06
   1   0   0   -0.35    0.09
  -1   0   1  483.26   15.03
  -1   0  -1  459.88   15.63
  -1   0   1  468.94   15.53
   1   0  -1  485.74   15.05
  -1   0  -1  478.78   14.69
   1   0   1  493.47   15.66
   1   0  -1  471.58   15.59
   1   0   1  469.62   14.62
  -1   0  -2    2.99    1.90
  -1   0   2    4.12    2.27
   1   0  -2    0.68    2.28
  -1   0  -2    1.56    2.26
   1   0   2    4.38    1.86
  -1   0  -3  314.21   13.35
  -1   0   3  322.00   12.50
   1   0  -3  329.85   13.57
   1   0   3  322.38   11.96
   1   0  -4   -0.21    4.74
  -1   0  -4    9.68    5.18
  -1   0  -5   25.31    7.29
   1   0  -5   20.94    7.38
  -1   0   5   15.17    6.03
   1  -1   0   -0.86    0.60
  -1  -1   0   -0.71    0.40
  -1   1   0    0.46    0.66
   1   1   0   -1.13    0.13
   1   1   0   -0.37    0.76
   1  -1   0   -0.69    0.63
  -1   1   0    0.35    0.66
  -1  -1   0   -0.78    0.73
  -1  -1   1  604.64   18.81
   1   1  -1  598.33   18.86
  -1   1  -1  598.57   19.09
   1  -1   1  596.34   19.02
  -1  -1  -1  574.21   19.39
   1  -1  -1  582.83   19.48
  -1   1  -1  590.18   18.52
   1   1   1  609.98   19.48
  -1  -1  -1  586.35   18.17
  -1   1   1  604.18   19.45
  -1  -1   1  570.95   18.79
   1  -1   1  588.19   18.55
   1   1  -1  591.97   18.79
   1  -1  -2  707.24   23.98
  -1  -1   2  682.21   22.80
  -1  -1  -2  735.71   24.05
   1  -1   2  687.96   22.41
  -1   1  -2  720.86   23.47
   1   1  -2  718.75   23.28
  -1   1  -2  664.50   22.44
  -1  -1  -2  705.36   22.09
  -1  -1  -3   -1.31    3.64
   1  -1  -3    0.77    3.80
  -1   1  -3   -3.08    3.31
   1   1  -3   -0.42    3.17
   1  -1   3    1.80    3.10
  -1  -1   3    2.13    3.41
  -1   1  -4  379.95   16.76
   1  -1  -4  421.87   17.94
  -1  -1  -4  414.39   17.80
   1  -1   4  404.54   15.76
   1   1  -4  404.20   17.05
  -1  -1   4  407.17   16.24
   1   1  -5   -8.87    5.64
   1  -1  -5   -5.66    6.52
  -1   1  -5   -2.91    6.23
  -1  -1   5   -0.36    5.14
  -1  -1   5    8.79    6.21
  -1   1   5   -6.25    5.27
  -1  -1  -5    7.33    7.10
  -1   2   0   -0.38    1.34
  -1  -2   0   -1.78    0.85
   1  -2   0   -0.58    1.01
   1   2   0    0.78    1.53
  -1  -2   0   -0.44    1.39
   1   2   0   -1.92    0.30
   1  -2   0   -0.74    1.38
  -1   2   0   -1.30    1.14
   1  -2  -1 1654.81   48.57
  -1   2   1 1512.76   50.55
  -1   2  -1 1621.94   50.19
  -1  -2  -1 1542.64   48.32
   1  -2   1 1620.76   50.11
   1  -2   1 1526.58   48.89
   1  -2  -1 1560.87   50.87
  -1   2  -1 1654.81   48.81
   1   2  -1 1703.97   50.26
   1   2   1 1642.88   48.31
  -1   2   1 1718.42   48.55
   1   2  -1 1648.58   49.14
  -1  -2   1 1623.40   50.05
  -1  -2  -1 1578.69   50.78
  -1  -2   1 1574.88   49.17
   1  -2  -2  205.09    9.39
  -1  -2   2  225.69    7.96
  -1  -2  -2  206.42    9.23
  -1  -2   2  199.05    9.06
  -1  -2  -2  203.29    8.07
   1  -2   2  199.34    8.72
   1  -2  -2  204.75    8.33
   1   2  -2  201.58    7.90
  -1   2  -2  207.90    8.23
  -1  -2  -3  152.20    7.20
   1  -2  -3  135.21    8.81
  -1   2  -3  137.80    7.54
  -1  -2   3  146.10    8.24
  -1  -2  -3  136.91    8.21
   1  -2   3  137.96    7.85
   1   2  -3  139.83    7.48
   1  -2  -3  146.05    7.39
  -1   2   4   53.50    6.34
   1  -2  -4   60.99    7.87
   1  -2  -4   64.84    6.51
   1   2  -4   59.52    6.40
  -1   2  -4   70.06    6.63
  -1  -2  -4   56.39    7.75
  -1  -2  -4   60.48    6.04
   1  -2   4   63.12    6.51
  -1  -2   4   75.14    7.72
  -1  -2   5   42.74    6.38
   1   2  -5   43.48    7.28
   1  -2  -5   58.82    7.66
   1  -2   5   60.30    7.67
  -1  -2   5   42.38    7.48
  -1  -2  -5   53.35    9.15
  -1   2  -5   52.25    7.77
   1  -2  -5   39.44    8.76
  -1  -2  -5   56.40    7.20
  -1   2   5   39.87    7.28
   1  -3   0   -1.19    1.88
   1   3   0   -0.04    1.14
  -1   3   0    0.56    1.86
   1   3   0   -1.44    0.66
   1   3   0    2.26    2.09
  -1   3   0   -0.91    1.46
   1  -3   0   -0.89    1.39
  -1  -3   0   -1.06    1.97
  -1  -3  -1  507.53   17.18
   1   3  -1  545.95   16.41
   1  -3   1  506.31   17.94
  -1   3  -1  515.20   16.90
   1  -3   1  524.66   16.94
  -1   3   1  493.99   17.54
   1  -3  -1  487.71   17.22
  -1  -3   1  511.41   18.12
  -1  -3  -1  521.30   17.85
  -1  -3   1  518.35   16.37
  -1  -3  -2  795.87   28.12
  -1   3   2  805.67   27.57
  -1  -3   2  820.92   27.79
  -1  -3  -2  818.56   26.29
  -1  -3   2  815.78   26.08
   1  -3  -2  827.75   28.30
   1   3  -2  840.14   26.22
   1  -3   2  806.12   27.42
   1  -3  -2  830.76   26.57
  -1   3  -2  819.09   26.57
   1  -3   3    0.98    4.03
  -1   3   3    5.07    3.68
  -1   3  -3    2.29    3.22
  -1  -3   3    3.35    4.35
  -1  -3  -3    1.74    4.42
   1  -3  -3   -1.47    4.27
   1  -3  -3    7.31    3.71
   1   3  -3   -2.06    2.80
  -1  -3  -3    1.48    3.24
  -1   3   4  340.30   15.26
  -1  -3  -4  344.07   14.10
  -1  -3  -4  337.34   16.82
   1  -3  -4  348.01   14.41
   1  -3  -4  346.73   16.85
  -1   3  -4  338.04   14.45
  -1  -3   4  340.11   15.92
   1  -3   4  337.44   15.21
   1   3  -4  339.53   14.20
  -1   3  -5   53.98    7.45
   1  -3   5   51.83    8.10
  -1  -3   5   44.68    8.37
   1  -3  -5   51.28    7.64
  -1  -3  -5   49.23    9.50
  -1  -3  -5   48.37    7.28
   1   3   5   56.91    8.19
  -1   3   5   46.21    7.81
   1  -4   0    1.39    2.73
   1   4   0    0.91    1.58
   1   4   0   -1.55    1.09
  -1   4   0    0.04    1.92
  -1  -4   0    2.41    2.78
   1   4   1 1214.72   39.08
   1  -4  -1 1234.57   38.44
  -1  -4  -1 1194.50   38.31
   1  -4   1 1303.70   38.50
  -1   4   1 1187.50   39.26
  -1  -4  -1 1178.79   39.41
   1   4  -1 1239.95   37.99
  -1   4  -1 1192.66   38.63
   1  -4   1 1199.30   39.18
  -1  -4   1 1208.94   39.35
   1   4  -2  410.18   13.81
  -1  -4  -2  407.43   16.45
  -1  -4   2  410.21   17.00
  -1  -4  -2  407.33   15.41
  -1   4   2  423.42   15.96
  -1   4  -2  425.28   14.46
  -1  -4   2  431.92   13.93
   1  -4  -2  431.21   15.79
   1  -4   2  439.69   17.00
   1  -4  -3   69.19    7.46
  -1  -4  -3   59.83    5.87
   1  -4   3   67.85    7.48
  -1  -4  -3   70.81    7.41
  -1  -4   3   79.18    7.88
  -1   4   3   58.18    6.21
   1   4  -3   72.13    4.75
  -1   4  -3   68.54    5.16
   1  -4  -3   73.26    6.38
   1  -4   4  155.51   11.10
  -1   4   4  142.93    9.91
  -1  -4  -4  150.25   11.35
   1  -4  -4  130.70    9.03
  -1   4  -4  132.85    8.11
  -1  -4   4  122.05   10.65
   1   4  -4  141.19    8.15
  -1  -4  -4  153.98    9.27
   1   4   5   88.22    9.52
  -1  -4  -5   83.37    8.82
  -1   4   5   84.91    9.29
  -1  -4   5   98.65   10.89
  -1  -4  -5   86.87   11.14
   1  -4   5   74.90    9.31
   1  -4  -5   94.37    9.34
   1   5   0    1.80    2.02
  -1   5   0    1.38    2.33
  -1  -5   0   -0.19    3.03
   1  -5   0   -1.83    3.08
  -1  -5  -1  186.52    9.21
  -1   5  -1  170.69    7.87
   1   5   1  184.60    8.19
   1   5  -1  179.11    6.47
   1  -5   1  197.23   10.30
  -1   5   1  176.79    8.31
  -1  -5   1  176.60   10.17
   1  -5   1  188.51    7.28
   1  -5  -1  183.43    9.40
   1   5  -1  178.20    6.87
   1   5   2  401.41   15.57
  -1   5  -2  405.41   13.73
  -1  -5  -2  396.18   16.30
  -1  -5   2  421.88   17.69
   1  -5  -2  386.27   15.78
   1   5  -2  398.16   12.85
   1  -5   2  360.40   16.92
   1  -5   2  410.21   13.91
  -1  -5  -2  413.47   15.80
  -1   5   2  376.69   15.57
  -1  -5  -3    4.92    5.48
  -1  -5  -3    4.44    4.56
   1   5   3    5.52    4.49
   1  -5   3    6.71    6.06
   1   5  -3    7.12    2.60
  -1   5   3   12.15    4.32
  -1   5  -3   11.56    3.27
   1  -5  -3    9.77    4.82
  -1  -5   3   12.58    6.47
  -1  -5   4  207.05   14.14
  -1  -5  -4  203.74   13.65
   1  -5  -4  219.57   11.81
   1  -5   4  217.45   13.74
  -1   5   4  204.57   12.15
   1   5   4  211.03   12.29
  -1  -5  -4  205.67   11.31
   1  -5   5   23.06    8.99
  -1  -5  -5   13.51    6.82
  -1   5   5   22.28    7.56
  -1  -5   5   18.14    9.18
   1  -5  -5   11.09    6.99
   1   5   5   11.17    7.19
  -1   6   0   -1.40    2.92
   1  -6   0    1.22    4.13
  -1  -6   0    8.44    4.44
   1   6   0    2.98    2.57
  -1   6  -1  248.39   10.52
  -1  -6  -1  279.49   12.38
  -1   6   1  224.45   10.52
  -1  -6   1  240.83   12.95
   1  -6  -1  238.09   11.94
   1  -6   1  276.66   13.28
   1   6  -1  250.42    8.77
   1   6  -1  237.80    9.42
   1   6   1  250.55   10.45
   1   6   2   43.58    5.38
   1  -6   2   50.03    7.83
  -1   6  -2   51.22    3.67
  -1  -6  -2   48.00    6.42
   1  -6  -2   56.68    6.80
  -1  -6   2   49.74    7.91
  -1   6   2   52.60    5.88
  -1  -6   3   48.41    8.74
  -1   6   3   38.02    6.38
   1   6   3   41.16    6.37
   1  -6  -3   56.51    7.18
  -1  -6  -3   39.93    6.67
   1  -6   3   43.87    8.80
   1  -6   4   18.23    8.30
  -1   6   4   39.08    7.34
   1   6   4   34.88    6.97
   1  -6  -4   28.93    7.07
  -1  -6   4   47.40    9.71
  -1  -6  -4   37.98    7.11
  -1  -7   0    0.81    5.05
   1  -7   0    0.70    4.74
  -1   7   0   -2.37    3.49
   1   7   0   -1.93    2.95
   1  -7   1   43.63    7.54
  -1  -7   1   58.67    8.16
   1   7   1   60.36    5.36
  -1  -7  -1   65.05    7.52
   1   7  -1   56.18    4.65
  -1   7   1   46.15    5.30
  -1   7  -1   54.79    5.65
   1  -7  -1   78.81    8.03
   1   7   2  104.67    7.90
  -1  -7  -2  109.66    9.35
  -1  -7   2  132.69   11.74
   1  -7  -2   88.99    9.08
   1  -7   2  145.55   12.19
  -1   7   2  113.69    8.59
   1  -7  -3    9.83    6.43
   1   7   3    1.82    5.22
   1  -7   3    3.92    7.66
  -1   7   3    5.94    5.62
  -1  -7  -3    9.29    6.11
  -1  -7   3   -9.79    7.44
  -1  -7   4   92.67   12.35
   1  -7  -4   90.83    9.95
   1   7   4   80.80    9.39
  -1   7   4   72.19    9.31
   1  -7   4   80.35   11.99
  -1  -7  -4   87.48    9.88
   1   8   0    6.60    3.99
  -1  -8   0    7.24    6.14
  -1   8   0    3.80    4.15
   1  -8   0    3.90    5.52
  -1  -8   1   62.30    9.10
   1  -8   1   47.26    8.57
  -1   8   1   64.23    6.55
  -1  -8  -1   62.19    8.41
  -1   8  -1   59.40    6.46
   1  -8  -1   58.08    8.26
   1   8   1   68.95    6.23
   1  -8   2   11.27    7.89
  -1   8   2    0.07    4.76
  -1  -8   2    4.63    7.44
   1   8   2   -2.27    4.65
   1  -8  -2    2.09    6.18
  -1  -8  -2    5.71    6.37
  -1   8   3   42.88    7.58
   1  -8   3   28.17   10.12
   1   8   3   47.12    7.78
   1  -8  -3   42.60    8.41
  -1  -8  -3   48.17    8.36
  -1  -8   3   27.96    9.93
  -1  -8   4   -4.44    9.61
  -1  -8  -4    3.26    7.28
   1  -8   4    2.44    9.73
  -1   8   4   -5.55    6.78
   1  -8  -4    7.10    7.54
   1   8   4    0.58    7.06
  -1   9   0    0.58    4.72
  -1  -9   0   -5.88    6.23
   1  -9   0   -0.67    6.28
   1   9   1   18.30    5.01
  -1  -9   1   18.37    8.14
  -1   9   1   28.63    5.87
   1  -9  -1   29.55    8.08
  -1  -9  -1   18.74    7.60
   1  -9   1   13.63    7.93
  -1  -9   2   54.35   10.81
   1  -9  -2   39.88    8.89
  -1  -9  -2   49.82    9.21
   1  -9   2   46.77   10.40
  -1   9   2   47.01    7.10
   1   9   2   41.98    7.18
  -1   9   3    4.31    6.56
   1  -9  -3    5.64    7.74
   1   9   3    5.73    6.65
  -1  -9   3    5.25    9.78
   1  -9   3   -9.75    9.16
  -1  -9  -3   -2.02    7.07
   1 -10   0    1.52    7.50
  -1 -10   0   -1.68    7.51
  -1 -10  -1   60.94   10.38
  -1 -10   1   51.80   10.63
   1 -10  -1   86.42   11.34
   1 -10   1   54.19   10.69
  -1  10   1   65.59    7.78
   1  10   1   93.31    7.90
   1 -10   2    3.76    9.17
   1  10   2    4.52    6.13
  -1 -10  -2   -2.17    7.83
  -1  10   2    2.18    6.00
  -1 -10   2   17.58    9.84
   1 -10  -2    9.77    8.56
  -1 -11   0    7.10    8.92
   1 -11   0   -9.87    7.58
   1 -11  -1    1.92    8.70
  -1 -11  -1   19.37    9.39
   1 -11   1    2.49    9.18
  -1 -11   1    3.04    9.04
   2   0   0  309.71   10.29
  -2   0   0  314.76   10.33
  -2   0   0  324.61    9.72
   2   0   0  300.95    9.65
  -2   0  -1    4.79    1.47
   2   0  -1    3.97    1.50
  -2   0  -1    5.18    0.97
   2   0   1    6.63    0.95
  -2   0   1    6.09    1.27
  -2   0   1    2.83    1.48
   2   0   1    6.37    1.53
  -2   0   1    4.57    1.37
   2   0   2  166.69    6.52
  -2   0   2  180.05    7.52
   2   0  -2  158.74    7.50
  -2   0  -2  180.45    6.89
  -2   0  -2  189.18    7.99
   2   0  -3   19.07    4.31
  -2   0   3   29.20    4.56
   2   0   3   32.54    3.68
  -2   0  -3   17.64    4.22
  -2   0   4   11.26    4.32
  -2   0   4   10.65    4.95
  -2   0  -4    7.30    5.06
   2   0  -4    2.09    4.81
  -2   0  -5   15.80    6.90
  -2   0   5    2.91    5.44
   2  -1   0   29.99    1.76
   2   1   0   31.15    2.06
   2  -1   0   32.01    2.14
  -2  -1   0   37.99    2.15
  -2   1   0   30.00    1.76
  -2   1   0   28.70    2.13
  -2  -1   0   33.21    1.62
  -2   1  -1 2863.22   88.03
  -2  -1  -1 2891.90   92.43
   2   1  -1 2995.64   88.55
   2  -1   1 2985.74   88.26
  -2   1   1 3070.19   92.39
  -2   1   1 3020.47   92.47
   2  -1  -1 2981.39   88.11
  -2  -1  -1 3021.42   87.95
  -2  -1   1 2859.88   88.55
  -2  -1   1 3002.84   91.97
  -2  -1   1 3091.71   92.10
   2   1   1 3101.82   92.49
  -2   1  -1 2910.34   92.26
   2  -1   1 3062.31   92.20
   2   1  -2  278.52   10.47
  -2   1   2  299.13   10.78
  -2  -1  -2  280.92    9.76
  -2  -1  -2  270.35   11.17
  -2   1  -2  281.67   10.26
   2  -1  -2  282.31   11.23
   2  -1   2  278.00   10.02
  -2   1  -2  280.81   10.74
  -2  -1   2  274.25   10.83
  -2  -1   3 1148.38   37.45
  -2   1  -3 1177.12   38.80
  -2  -1  -3 1168.37   39.40
   2  -1  -3 1202.13   39.46
   2   1  -3 1141.90   38.48
   2  -1   3 1165.17   36.47
  -2   1   4    9.54    4.50
  -2   1  -4    8.15    4.81
   2   1  -4   13.89    5.37
  -2  -1   4   11.69    4.95
   2  -1  -4    7.83    5.56
   2  -1   4   13.24    4.40
  -2  -1  -4   12.63    5.58
  -2   1  -5  152.91   11.56
  -2  -1   5  173.77   10.40
  -2  -1  -5  161.88    9.76
  -2   1   5  104.34    9.61
  -2  -1   5  170.55   10.97
  -2  -1  -5  168.38   12.18
  -2   2   0  680.00   21.04
  -2   2   0  633.40   21.94
   2  -2   0  699.47   21.93
   2   2   0  685.01   21.44
   2  -2   0  662.19   21.10
  -2  -2   0  692.08   21.47
  -2  -2   0  677.54   21.37
  -2  -2   1   17.04    1.11
  -2   2  -1   16.61    2.25
   2   2   1   18.59    2.13
  -2  -2   1   15.66    1.10
  -2  -2  -1   22.70    2.34
   2   2  -1   15.86    2.73
  -2   2  -1   15.89    1.95
   2  -2   1   19.79    2.59
   2  -2  -1   19.77    2.39
  -2   2   1   14.91    2.07
  -2  -2   1   23.26    3.06
  -2  -2  -1   20.62    2.49
   2  -2   1   15.90    1.94
  -2   2  -2  435.28   14.70
  -2  -2  -2  408.85   13.87
  -2  -2   2  417.22   13.94
  -2  -2  -2  403.48   15.47
  -2   2   2  411.28   15.03
   2  -2  -2  398.30   14.39
  -2  -2   2  406.65   15.34
   2   2  -2  417.00   14.11
   2  -2   2  409.77   14.59
   2  -2  -2  414.07   15.64
  -2   2  -3   44.25    4.73
   2  -2   3   62.79    5.36
   2   2  -3   53.93    4.77
  -2  -2  -3   43.35    5.70
  -2  -2   3   42.44    5.49
  -2  -2  -3   49.08    4.42
   2  -2  -3   43.00    5.84
  -2   2   3   41.84    4.83
   2   2  -4   -2.91    4.27
   2  -2   4   -0.09    4.35
  -2  -2  -4    9.46    5.81
   2  -2  -4    2.77    5.60
  -2   2  -4    4.24    4.55
  -2  -2   4    2.55    5.29
  -2   2   4   -0.73    4.43
  -2  -2  -4   -0.16    3.80
  -2  -2   5   -3.83    5.09
  -2  -2  -5   10.49    7.40
   2  -2  -5   -1.85    5.90
   2  -2   5    2.96    5.52
  -2  -2  -5    2.23    5.48
  -2   2   5   -2.81    5.59
  -2   2  -5    0.32    5.70
  -2  -2   5    7.59    6.73
   2  -3   0 1086.09   32.61
  -2  -3   0 1047.36   32.10
  -2  -3   0  962.50   32.00
  -2   3   0 1012.02   32.76
   2  -3   0  974.14   31.74
   2  -3   1  579.30   19.76
  -2   3  -1  578.55   19.25
   2  -3   1  574.16   19.17
  -2  -3  -1  562.51   19.00
  -2   3   1  607.59   19.81
  -2  -3   1  558.74   20.01
   2  -3  -1  588.88   19.27
  -2  -3  -1  581.63   19.71
  -2   3   2  247.38   10.86
   2  -3   2  265.75   11.24
  -2   3  -2  273.30   10.14
  -2  -3  -2  264.97   11.46
  -2  -3  -2  264.64   10.24
  -2  -3   2  269.18   11.93
   2   3  -2  267.72    9.30
  -2  -3   2  269.85    9.20
   2  -3  -2  262.89   10.68
  -2   3  -3  209.23    9.38
  -2  -3   3  197.16   10.86
  -2  -3  -3  212.68   11.08
   2   3  -3  200.39    8.78
   2  -3   3  215.41   10.39
  -2  -3  -3  197.77    9.11
   2  -3  -3  206.75    9.79
  -2   3   3  207.03   10.17
  -2   3  -4   18.32    5.06
  -2  -3   4   18.98    6.54
   2  -3   4    6.11    5.29
   2  -3  -4   25.86    5.52
   2   3  -4   10.86    4.56
  -2  -3  -4   16.31    6.52
  -2   3   4   13.64    5.10
  -2  -3  -4    9.03    4.51
   2  -3   5   65.33    8.06
  -2   3  -5   62.79    7.91
  -2  -3  -5   64.31   10.20
  -2  -3  -5   74.01    7.67
   2  -3  -5   56.79    7.89
  -2  -3   5   81.59    9.98
  -2   4   0 1202.77   39.57
   2   4   0 1254.64   38.67
   2  -4   0 1189.97   38.75
  -2  -4   0 1278.54   39.21
  -2  -4  -1   48.05    4.53
   2  -4  -1   54.79    4.78
   2  -4   1   49.80    3.70
  -2   4   1   31.87    3.77
  -2   4  -1   51.97    3.98
  -2  -4  -1   39.70    3.94
  -2  -4   1   47.27    5.37
   2  -4   1   38.33    4.89
  -2  -4   2  572.35   21.24
  -2  -4   2  541.32   17.68
   2  -4  -2  563.96   19.76
  -2  -4  -2  547.77   19.30
  -2  -4  -2  561.57   20.61
  -2   4  -2  547.70   18.78
  -2   4   2  559.09   20.20
   2  -4   2  572.80   20.77
  -2  -4  -3   65.52    6.06
   2  -4   3   74.82    7.30
  -2   4   3   67.69    6.40
   2   4  -3   69.24    4.63
   2  -4  -3   70.77    6.52
  -2  -4   3   54.57    7.55
  -2   4  -3   70.81    5.44
  -2  -4  -3   77.36    7.54
  -2  -4   4   -0.16    6.39
   2  -4  -4    1.08    4.91
  -2   4  -4    3.52    4.45
  -2  -4  -4   -2.19    5.85
  -2   4   4   -0.07    4.97
  -2  -4  -4    0.56    4.63
   2  -4   4   10.06    6.13
   2   4   5   -0.97    6.55
  -2  -4  -5   -0.52    5.73
  -2   4   5    8.50    6.56
   2  -4  -5   10.96    6.87
  -2  -4   5    3.34    7.78
  -2  -4  -5   11.14    8.36
   2   5   0  183.04    7.07
  -2  -5   0  172.74    9.38
  -2   5   0  173.01    7.95
   2  -5   0  171.50    9.05
  -2  -5  -1  290.73   12.31
   2   5  -1  323.05   10.33
   2  -5   1  312.52   13.85
  -2   5   1  337.06   12.66
   2  -5  -1  317.76   13.24
  -2   5  -1  316.54   12.36
  -2  -5   1  315.34   14.17
  -2  -5  -1  299.71   12.98
   2   5   1  309.20   11.96
   2  -5   2  103.59    8.88
  -2  -5  -2   93.56    7.44
  -2   5  -2  103.23    5.51
  -2  -5  -2  112.27    7.62
  -2   5   2   99.24    6.98
  -2  -5   2   98.11    8.88
   2  -5  -2  108.38    7.73
   2  -5  -3  109.94    8.59
  -2  -5  -3  134.81    8.25
  -2   5   3  137.02    8.73
   2  -5   3  115.66    9.73
  -2  -5   3  124.27   10.55
  -2  -5  -3  106.65    9.31
  -2   5  -3  110.78    6.43
  -2  -5  -4   10.46    5.50
   2   5   4   10.79    5.65
   2  -5   4   -0.47    6.57
  -2  -5  -4   12.78    6.89
  -2  -5   4    2.94    7.26
   2  -5  -4   -2.31    5.51
  -2   5   4   10.59    5.72
   2   5   5   36.61    8.20
   2  -5  -5   27.25    7.89
  -2  -5   5   31.51    9.96
  -2   5   5   31.92    8.01
  -2  -5  -5   22.29    8.93
  -2  -6   0  390.04   16.34
   2  -6   0  366.56   15.97
   2   6   0  392.12   13.70
  -2   6   0  387.59   14.88
  -2  -6   1    9.91    5.18
   2   6  -1    7.96    2.14
   2   6   1   10.65    3.29
   2  -6  -1   20.12    5.16
  -2   6  -1    7.18    3.94
   2  -6   1    4.13    4.84
  -2  -6  -1   10.51    4.68
   2   6  -1    8.02    1.71
  -2   6   1   11.29    3.86
   2  -6  -2  273.03   12.73
  -2   6   2  230.48   11.63
  -2   6  -2  232.62    9.60
   2   6   2  257.09   11.43
   2  -6   2  246.28   13.91
  -2  -6  -2  239.14   12.07
  -2  -6  -2  235.74   11.97
  -2  -6   2  246.27   14.01
  -2  -6   3   26.76    8.05
   2  -6  -3   29.46    6.49
  -2   6   3   32.81    6.30
   2   6   3   27.14    5.80
   2  -6   3   21.20    7.68
  -2  -6  -3   34.25    6.26
  -2  -6  -3   19.49    6.54
   2   6   4    3.56    6.19
  -2  -6   4    6.57    7.80
  -2  -6  -4   -7.45    5.46
   2  -6  -4   -4.77    5.97
  -2   6   4    1.98    5.62
   2  -6   4   -0.77    7.54
  -2  -6  -4   -2.37    7.15
   2  -7   0    1.35    4.83
  -2   7   0    4.65    3.87
   2   7   0    1.82    2.96
  -2  -7   0   -0.66    4.88
   2  -7  -1  301.32   14.63
  -2  -7  -1  309.18   14.44
  -2   7  -1  287.26   12.83
   2   7   1  298.30   12.25
   2  -7   1  284.14   14.99
  -2  -7   1  332.89   15.85
  -2   7   1  266.94   12.56
   2   7  -1  288.10   10.71
  -2  -7   2   22.24    7.77
   2  -7   2   12.64    7.23
   2   7   2   16.90    4.81
   2  -7  -2   24.75    6.06
  -2   7   2   21.83    5.57
  -2  -7  -2   18.62    6.05
   2  -7  -3  204.42   12.65
   2  -7   3  156.91   13.85
   2   7   3  196.77   11.76
  -2  -7  -3  214.58   12.25
  -2  -7   3  229.72   15.29
  -2  -7   4   19.32    9.44
  -2   7   4   12.96    6.51
   2   7   4    9.77    6.65
   2  -7   4   14.03    8.92
   2  -7  -4    3.91    7.04
  -2  -7  -4    9.01    6.57
   2  -8   0   53.59    7.93
   2   8   0   56.17    5.26
  -2   8   0   61.09    6.40
  -2  -8   0   54.64    8.33
   2  -8  -1    6.53    6.17
  -2  -8   1    7.00    6.70
  -2   8   1    6.31    4.59
   2  -8   1   -4.43    5.86
  -2   8  -1   -3.42    4.77
   2   8   1    6.02    3.92
  -2  -8  -1    1.35    5.80
  -2   8   2   30.74    6.28
   2  -8  -2   45.91    8.33
  -2  -8   2   61.50   10.21
   2  -8   2   45.90    9.51
   2   8   2   40.36    6.47
  -2  -8  -2   43.11    7.83
  -2  -8  -3    8.18    6.70
   2   8   3    9.35    6.20
   2  -8   3    5.17    8.74
  -2   8   3    9.25    6.10
  -2  -8   3    8.57    9.24
   2  -8  -3   25.23    7.86
  -2  -8  -4    3.95    7.38
   2  -8  -4   -4.78    7.27
   2  -8   4    2.70    9.76
   2   8   4    4.05    6.99
  -2  -8   4   -1.60   10.07
  -2   8   4    5.23    7.16
  -2   9   0    7.21    4.96
  -2  -9   0   13.54    7.23
   2  -9   0   23.87    7.55
  -2  -9  -1  137.33   11.61
   2   9   1   90.76    7.48
  -2  -9   1  104.46   11.51
   2  -9  -1   89.94   10.67
  -2   9   1  102.96    8.52
   2  -9   1  106.60   11.42
   2  -9  -2   19.68    8.25
   2   9   2   18.26    5.90
   2  -9   2   17.25    9.10
  -2  -9  -2   24.97    8.10
  -2   9   2   25.16    6.76
  -2  -9   2   37.65   10.09
   2  -9   3   91.01   13.62
  -2   9   3   79.03    9.59
  -2  -9   3   84.72   14.10
   2   9   3   77.24    9.22
  -2  -9  -3   61.12    9.93
   2  -9  -3   76.25   10.66
  -2 -10   0   15.35    8.24
   2 -10   0   12.60    8.04
   2 -10  -1   15.24    8.24
  -2 -10   1    1.35    8.08
  -2 -10  -1   -4.46    7.10
  -2  10   1    4.26    5.57
   2 -10   1    7.75    8.21
   2  10   2   17.57    6.57
  -2  10   2   10.99    6.74
  -2 -10   2   14.10   10.35
   2 -10   2    6.07    9.64
  -2 -10  -2   27.05    9.25
   2 -10  -2   25.31    9.37
  -2 -11   0   52.90   11.21
   2 -11   0   50.52   10.67
   2 -11  -1   14.12    9.43
  -2 -11  -1   15.46    9.25
   2 -11   1    6.80    9.24
  -2 -11   1    2.08    9.06
   3   0   0    0.20    0.86
  -3   0   0    0.64    0.73
   3   0   0   -0.24    0.64
  -3   0   0   -0.22    0.90
   3   0  -1 1495.59   45.47
  -3   0   1 1451.15   47.17
  -3   0  -1 1537.99   47.54
  -3   0   1 1468.01   45.46
   3   0   1 1546.72   47.51
  -3   0  -1 1520.08   45.37
   3   0  -1 1568.32   47.19
   3   0   2  860.39   25.91
  -3   0   2  857.59   27.26
  -3   0  -2  826.77   28.32
  -3   0  -2  873.76   26.21
  -3   0   2  833.49   27.70
  -3   0   3   26.73    3.90
  -3   0   3   25.50    4.46
   3   0  -3   27.68    4.72
  -3   0  -3   25.30    4.64
  -3   0  -4  155.99   10.51
  -3   0   4  154.48    9.07
  -3   0   4  170.86    9.72
  -3   0   5   25.25    6.02
  -3   0  -5   25.26    7.69
  -3   1   0   -0.19    0.87
   3   1   0   -0.13    0.84
   3   1   0   -0.46    1.12
  -3   1   0   -0.16    1.33
  -3  -1   0   -1.25    1.06
  -3  -1   0   -0.37    0.82
   3  -1   0    0.24    0.93
   3  -1   0   -0.02    1.20
  -3   1  -1 1300.55   39.25
  -3  -1   1 1290.68   40.18
   3   1  -1 1299.65   40.13
   3  -1  -1 1318.04   39.74
  -3  -1  -1 1349.52   41.73
  -3  -1   1 1334.61   41.06
  -3  -1   1 1315.83   41.02
  -3  -1  -1 1323.55   39.21
  -3   1  -1 1326.12   41.59
  -3   1   1 1295.47   41.59
   3   1   1 1303.33   39.07
   3  -1   1 1381.56   41.57
   3  -1   1 1288.82   39.44
  -3   1   2  183.32    7.89
  -3   1  -2  181.87    7.26
  -3  -1  -2  176.31    8.35
  -3  -1   2  183.38    7.25
  -3  -1  -2  181.01    6.77
  -3   1  -2  184.72    8.00
   3  -1   2  191.65    7.09
  -3  -1  -2  182.38    6.72
  -3  -1   2  183.81    8.31
  -3   1  -3    8.94    3.72
  -3  -1   3    5.70    2.92
   3   1  -3    2.86    3.50
   3  -1   3   10.29    3.07
  -3  -1   3    7.35    3.96
  -3   1   3    5.67    3.48
  -3  -1  -3    0.90    3.68
   3  -1   4  296.38   12.32
  -3   1   4  314.86   13.61
  -3  -1  -4  311.52   15.02
  -3  -1   4  315.14   13.16
  -3  -1  -4  321.52   12.19
  -3   1  -4  302.20   14.23
  -3  -1   4  288.38   14.05
  -3  -1  -5   33.73    8.34
  -3   1  -5   51.49    8.31
  -3   1   5   28.05    6.42
  -3  -1   5   41.41    7.63
  -3  -1   5   29.10    5.97
   3  -2   0   -1.39    1.37
  -3  -2   0   -1.71    0.94
  -3   2   0   -0.96    1.34
   3   2   0    1.14    1.74
  -3  -2   0   -0.11    1.69
   3  -2   0    0.86    1.69
  -3   2   0    0.09    1.76
   3   2   0   -1.73    0.45
  -3  -2  -1 1600.38   47.35
  -3  -2   1 1597.74   49.10
   3  -2  -1 1543.17   47.67
  -3   2   1 1612.11   49.93
   3  -2   1 1583.62   49.56
  -3  -2  -1 1570.15   49.78
   3   2   1 1618.82   47.29
   3  -2   1 1543.78   47.77
  -3   2  -1 1535.10   49.62
  -3  -2   1 1582.76   48.43
  -3  -2   1 1551.48   49.28
  -3   2  -1 1592.46   47.37
  -3  -2   2  182.78    6.86
  -3  -2  -2  188.63    8.65
   3  -2   2  180.14    7.77
  -3   2  -2  168.88    7.79
  -3  -2  -2  172.15    7.06
  -3  -2   2  181.61    6.98
  -3   2  -2  171.30    7.60
  -3   2   2  206.03    8.39
  -3  -2   2  177.17    8.75
  -3   2  -3   49.72    4.97
   3  -2   3   52.90    4.92
   3   2  -3   48.13    4.59
  -3  -2  -3   46.82    4.22
  -3  -2  -3   46.21    5.80
  -3  -2   3   49.84    4.15
  -3  -2   3   43.24    5.87
  -3   2   3   41.31    5.02
  -3  -2   4   61.66    5.72
  -3   2   4   67.99    6.86
   3  -2   4   57.69    6.29
  -3  -2   4   78.85    8.36
  -3   2  -4   69.37    7.27
  -3  -2  -4   71.74    8.30
  -3  -2  -4   72.54    5.89
  -3  -2   5   26.93    5.92
  -3   2  -5   26.65    7.06
  -3  -2  -5   19.48    8.04
  -3   2   5    7.23    5.96
  -3  -2   5   20.15    7.79
   3  -2  -5    9.60    6.48
   3  -3   0    2.02    1.82
   3   3   0   -0.15    0.59
  -3   3   0    1.07    2.16
  -3  -3   0   -0.17    1.28
  -3  -3   0    0.20    2.22
  -3  -3  -1  454.92   15.86
  -3   3   1  436.44   15.99
  -3  -3   1  462.07   16.61
  -3   3  -1  477.81   15.88
   3  -3   1  440.10   15.92
  -3  -3  -1  437.86   15.30
  -3  -3   2  189.03    6.80
  -3  -3  -2  181.40    9.13
   3  -3   2  210.61    9.28
  -3  -3  -2  188.31    8.08
  -3  -3   2  190.83    6.82
  -3   3  -2  188.51    8.13
  -3   3   2  183.37    8.77
  -3  -3   2  188.72    9.74
   3  -3  -2  191.26    8.72
   3  -3   3   12.17    4.34
  -3  -3   3   18.59    5.42
  -3  -3  -3   12.66    3.58
  -3  -3   3   14.39    2.87
  -3   3  -3   11.42    3.71
  -3  -3  -3   13.70    4.77
   3  -3  -3    8.67    4.15
  -3   3   3   16.52    4.26
   3  -3   4  218.83   11.26
  -3  -3  -4  230.48   13.30
  -3   3  -4  229.12   11.46
   3  -3  -4  208.74   11.32
  -3  -3  -4  225.41   10.42
  -3   3   4  241.14   11.96
  -3  -3   4  215.18   12.79
  -3  -3   4  223.39   10.04
  -3   3  -5    6.43    6.10
  -3   3   5    4.21    6.28
  -3  -3   5   -2.63    7.35
   3  -3  -5   -0.92    6.04
  -3  -3  -5   -2.15    7.32
   3  -4   0   -0.85    2.48
  -3  -4   0   -0.44    1.57
   3   4   0   -1.92    1.15
  -3  -4   0    0.99    2.89
  -3   4   0    2.96    2.60
  -3  -4  -1 1350.15   44.22
  -3   4   1 1423.82   44.62
  -3  -4  -1 1360.45   42.92
  -3   4  -1 1408.34   44.45
   3  -4   1 1310.58   43.55
   3  -4  -1 1438.42   43.30
  -3  -4   1 1336.39   44.10
  -3   4   2    7.14    3.59
   3  -4   2    8.62    4.34
  -3   4  -2   13.50    3.05
  -3  -4  -2   12.09    3.54
   3  -4  -2    9.82    3.79
  -3  -4   2    6.36    4.84
  -3  -4  -2   12.32    4.10
  -3  -4   3   51.41    7.39
  -3   4  -3   66.47    5.42
  -3  -4  -3   63.87    5.80
   3  -4   3   59.61    6.91
  -3   4   3   43.72    5.91
   3  -4  -3   67.40    6.59
  -3  -4  -3   54.80    6.92
  -3  -4   3   55.34    3.80
  -3   4  -4    6.32    4.71
  -3  -4   4    8.27    6.84
  -3  -4  -4    5.51    4.78
  -3  -4  -4   13.11    6.69
  -3   4   4    7.84    5.44
   3  -4   4   13.96    6.00
   3  -4  -4    6.67    5.36
   3  -4  -5    7.02    6.99
  -3  -4  -5   21.05    8.69
  -3   4   5   11.16    6.80
  -3  -4   5   10.19    8.22
  -3   5   0   -3.29    2.71
  -3  -5   0    0.67    3.23
   3   5   0    2.25    1.86
   3  -5   0   -3.07    3.11
  -3   5  -1  409.73   15.68
   3  -5   1  394.91   16.52
  -3  -5  -1  425.74   16.00
  -3  -5  -1  406.68   15.46
  -3  -5   1  417.50   17.17
  -3   5   1  426.58   15.80
   3  -5  -1  404.65   16.04
  -3  -5  -2   82.63    6.81
  -3   5   2   60.56    6.13
  -3   5  -2   77.76    5.17
   3  -5  -2   59.13    6.41
   3  -5   2   72.11    7.58
  -3  -5   2   76.57    8.13
  -3  -5  -2   78.05    6.40
  -3  -5   3   10.20    6.34
  -3   5   3   15.35    5.14
  -3   5  -3   15.49    3.88
   3  -5  -3   19.06    5.71
  -3  -5  -3   14.16    4.75
  -3  -5  -3   13.08    5.93
   3  -5   3    8.06    6.05
   3  -5  -4  105.80    9.38
   3  -5   4  117.05   10.49
  -3   5   4  140.60   10.30
  -3  -5   4  119.46   11.93
  -3  -5  -4  121.51    9.05
  -3  -5  -4  124.02   11.36
  -3  -5  -5    5.91    8.43
  -3   5   5    2.00    6.75
   3  -5  -5   -4.68    6.79
  -3  -5   5    4.14    8.81
   3   5   5   13.27    7.61
   3   6   0   -0.17    2.21
  -3   6   0    3.30    3.50
  -3  -6   0   -2.54    4.15
   3  -6   0    2.62    4.15
  -3   6  -1  550.79   20.52
   3  -6  -1  511.82   20.77
   3   6   1  546.55   19.52
  -3  -6  -1  568.55   20.93
  -3  -6   1  565.76   22.19
   3  -6   1  560.01   21.63
  -3   6   1  562.55   20.45
  -3  -6   2   59.31    8.58
  -3   6  -2   61.01    4.94
   3  -6   2   69.67    8.50
  -3   6   2   75.41    6.76
   3  -6  -2   65.99    7.27
  -3  -6  -2   59.77    6.63
  -3  -6  -2   60.24    6.78
   3  -6   3   36.15    8.10
  -3   6   3   28.71    6.22
   3  -6  -3   30.92    6.65
  -3   6  -3   37.43    4.51
  -3  -6   3   30.66    8.46
  -3  -6  -3   22.84    6.61
  -3  -6  -3   31.43    6.12
  -3  -6   4   11.40    8.68
   3   6   4   22.76    6.85
  -3   6   4    9.39    6.40
  -3  -6  -4   12.62    7.49
   3  -6   4   21.30    8.01
  -3  -6  -4   11.58    6.19
   3  -6  -4   29.14    7.41
   3  -7   0   -3.46    4.61
  -3  -7   0   -5.57    3.99
   3   7   0   -1.42    2.63
  -3   7   0   -2.03    3.89
   3   7   1  219.52   10.23
  -3   7  -1  226.90   11.53
   3  -7   1  224.54   12.95
  -3  -7   1  253.04   13.83
  -3  -7  -1  232.07   12.40
   3  -7  -1  246.37   12.81
  -3   7   1  226.93   11.34
  -3   7   2   34.56    6.00
   3   7   2   30.55    5.38
  -3  -7  -2   34.97    6.75
   3  -7  -2   35.41    7.05
  -3   7  -2   31.77    4.40
   3  -7   2   36.35    8.19
  -3  -7   2   53.88    9.01
  -3  -7  -3    1.98    6.32
  -3  -7  -3   -3.81    5.41
   3   7   3    2.30    5.49
  -3  -7   3    2.49    7.79
  -3   7   3   -0.21    5.62
   3  -7   3   11.58    7.87
   3  -7  -3    3.05    6.37
  -3   7   4   33.15    8.03
  -3  -7  -4   47.76    7.98
  -3  -7   4   47.44   11.07
   3  -7   4   53.74   10.59
   3   7   4   69.18    9.04
   3  -7  -4   37.35    8.33
   3  -8   0   -4.21    5.43
  -3  -8   0    3.25    5.74
   3   8   0    1.34    3.36
  -3   8   0   -2.66    4.22
   3  -8  -1  138.05   11.16
  -3  -8  -1  124.04   10.73
  -3  -8   1  133.56   11.90
   3   8   1  122.32    7.82
  -3   8  -1  136.64    9.57
   3  -8   1  158.81   12.41
  -3   8   1  151.17    9.39
   3   8   2   79.28    7.50
  -3  -8  -2   69.52    8.63
  -3   8   2   27.12    6.50
  -3  -8   2   73.82   10.85
   3  -8  -2   66.82    9.10
   3  -8   2   49.76    9.77
  -3  -8   3   -2.29    8.80
   3  -8   3    2.66    8.64
  -3  -8  -3    1.65    6.64
   3   8   3    7.25    5.99
   3  -8  -3   10.52    7.46
  -3   8   3    2.03    6.20
  -3   8   4   14.43    7.77
   3  -8  -4   26.55    8.71
  -3  -8  -4   36.57    8.37
   3  -8   4   11.20    9.84
  -3  -8   4   25.05   11.31
   3   8   4   16.82    7.45
  -3  -9   0    0.20    6.02
  -3   9   0   -8.75    4.93
   3  -9   0    5.20    6.82
  -3  -9   1   35.94    9.32
   3  -9  -1   30.26    8.29
   3   9   1   36.69    5.59
  -3  -9  -1   26.19    7.90
  -3   9   1   33.54    6.20
   3  -9   1   35.71    8.75
  -3  -9  -2   17.17    7.72
   3  -9  -2   13.32    8.08
   3  -9   2   17.51    9.33
   3   9   2   15.28    5.77
  -3  -9   2   25.97    9.43
  -3   9   2   21.18    6.61
   3  -9  -3    7.45    8.20
   3  -9   3   -7.91    8.87
   3   9   3    2.92    6.43
  -3   9   3    7.77    6.95
  -3  -9  -3    3.00    7.46
  -3  -9   3   -1.02    9.51
  -3 -10   0    2.12    7.76
   3 -10   0    6.60    7.79
  -3 -10  -1   29.46    9.11
  -3  10   1   38.12    7.17
   3 -10  -1   41.33    9.61
  -3 -10   1   19.90    8.90
   3 -10   1   20.07    8.82
  -3  10   2    0.02    6.38
   3 -10  -2   16.95    8.77
  -3 -10  -2   15.29    8.55
   3  10   2    5.48    5.96
   3 -10   2  -14.48    8.43
  -3 -10   2   10.30    9.98
  -3 -11   0    0.47    8.81
   3 -11   0   -1.06    8.36
   3 -11  -1    1.46    8.65
  -3 -11  -1    0.66    8.26
  -3 -11   1   -2.49    8.99
   3 -11   1   -5.24    8.33
   4   0   0 1319.87   39.67
   4   0   0 1321.62   41.97
  -4   0   0 1349.31   42.06
  -4   0   0 1346.99   39.72
  -4   0   1   46.61    3.24
  -4   0  -1   46.36    3.17
   4   0  -1   46.56    2.89
  -4   0   1   45.61    2.98
   4   0  -1   42.76    3.09
  -4   0  -2  343.17   11.19
  -4   0  -2  341.66   13.06
  -4   0   2  341.98   12.42
  -4   0   2  334.31   12.64
  -4   0  -3  559.68   20.66
  -4   0   3  544.67   19.83
  -4   0   3  547.26   19.56
  -4   0   4   12.18    5.29
  -4   0  -4   13.42    5.55
  -4   0   4   18.65    4.81
  -4   0  -5  162.15   12.45
  -4   0   5  146.37    9.97
  -4  -1   0   12.47    1.79
  -4   1   0    6.32    2.01
   4  -1   0    9.24    1.31
   4  -1   0   10.21    1.98
  -4  -1   0   12.03    1.52
   4   1   0   10.58    1.44
   4   1   0    8.74    1.63
  -4  -1  -1  295.22    9.38
   4  -1  -1  288.09   10.22
   4  -1   1  287.29    9.55
  -4  -1   1  297.44   10.72
  -4  -1  -1  286.39   10.69
   4   1  -1  305.22   10.74
  -4   1  -1  289.03    9.28
  -4   1  -1  307.83   10.79
   4   1   1  295.59    9.26
  -4  -1   1  299.23   10.20
  -4   1   1  281.06   10.68
   4  -1   2  119.12    4.80
  -4  -1   2  110.37    6.41
  -4   1   2  118.07    6.14
  -4   1  -2  105.50    4.96
  -4   1  -2  113.57    6.10
  -4  -1   2  106.43    5.22
  -4  -1  -2  112.93    4.54
  -4  -1  -2  109.14    4.67
  -4  -1  -2  106.09    6.33
   4  -1   3  364.88   12.35
  -4  -1  -3  334.08   11.90
  -4  -1   3  333.70   13.10
  -4   1  -3  356.59   14.42
  -4  -1   3  345.14   14.21
  -4   1   3  355.15   13.85
  -4  -1  -3  332.92   14.65
  -4  -1   4    8.08    5.53
  -4  -1  -4    3.81    5.45
   4  -1   4    2.55    3.73
  -4  -1   4    4.73    4.13
  -4  -1  -4    2.33    3.45
  -4   1   4   -1.46    4.19
  -4   1  -4    0.75    5.01
  -4   1  -5   32.54    7.89
  -4   1   5   44.16    7.19
  -4  -1   5   30.79    6.45
  -4  -1  -5   26.11    8.00
  -4  -1   5   44.24    8.44
  -4   2   0 1768.50   50.74
   4  -2   0 1662.71   50.79
   4   2   0 1646.74   52.66
  -4   2   0 1705.77   53.91
   4   2   0 1740.14   51.42
  -4  -2   0 1664.12   51.26
  -4  -2   0 1693.32   52.67
  -4  -2  -1  158.75    6.81
  -4   2   1  157.93    6.99
  -4  -2  -1  156.38    6.20
   4  -2  -1  157.16    6.71
  -4  -2   1  158.98    5.72
   4   2  -1  163.88    5.47
   4  -2   1  150.70    6.54
   4   2   1  165.01    6.30
  -4  -2   1  148.08    7.35
  -4   2  -1  155.61    6.10
  -4   2  -1  162.96    6.90
  -4  -2  -2  221.87    8.41
  -4  -2   2  226.07    8.43
  -4   2   2  242.46    9.93
  -4  -2   2  232.69    8.46
  -4  -2  -2  220.11    9.80
  -4   2  -2  226.63    8.77
  -4   2  -2  235.25    9.64
   4  -2   2  226.42    8.99
  -4  -2   2  226.61   10.39
  -4   2   3  464.64   16.96
  -4  -2   3  449.78   17.44
  -4   2  -3  421.49   16.55
  -4  -2  -3  417.22   14.75
  -4  -2   3  438.44   15.41
  -4  -2  -3  394.64   17.34
   4  -2   3  439.24   15.41
   4  -2   4    4.87    4.22
  -4  -2  -4   -1.53    3.58
  -4  -2   4    6.71    5.85
  -4   2   4    2.05    4.51
  -4   2  -4   -0.48    4.56
  -4  -2  -4    7.22    5.57
  -4  -2   4    2.53    3.81
  -4  -2   5   86.09    7.80
  -4  -2  -5  114.29   11.13
  -4  -2   5  105.07   10.71
  -4   2  -5   97.10    9.62
   4  -2  -5   88.63    8.98
   4  -3   0 1614.09   49.56
  -4  -3   0 1578.61   50.02
  -4   3   0 1696.08   52.28
  -4  -3   0 1633.91   50.75
  -4  -3  -1  151.04    6.99
  -4  -3  -1  166.86    7.21
  -4   3  -1  171.11    7.06
  -4  -3   1  150.18    7.80
   4  -3   1  162.97    7.51
  -4   3  -1  166.82    7.42
  -4   3   1  159.23    7.52
   4  -3  -1  157.18    7.33
  -4  -3  -2  427.44   16.86
  -4   3  -2  447.69   16.13
   4  -3   2  439.26   16.22
   4  -3  -2  456.68   16.28
  -4   3   2  456.97   16.70
  -4  -3   2  432.65   17.34
  -4  -3   2  447.53   14.48
  -4  -3  -2  446.70   15.34
  -4  -3   2  446.87   14.59
   4  -3   3  269.15   11.75
  -4  -3   3  288.97   13.72
  -4  -3  -3  266.93   10.84
  -4   3   3  250.18   12.27
  -4  -3  -3  286.19   13.32
  -4   3  -3  288.06   11.97
   4  -3  -3  266.65   12.02
  -4  -3   3  282.28   10.44
  -4   3   4   27.80    5.85
  -4  -3   4   25.60    7.09
  -4  -3  -4   38.38    7.28
   4  -3   4   32.47    5.75
  -4   3  -4   31.05    5.49
  -4  -3   4   31.09    4.59
  -4  -3  -4   31.68    5.03
   4  -3  -4   30.38    6.12
   4  -3  -5   33.35    7.65
  -4   3   5   37.09    7.55
  -4  -3  -5   19.38    8.41
  -4   3  -5   32.17    7.18
  -4  -3   5   35.85    8.98
  -4  -4   0  734.63   24.62
  -4  -4   0  729.49   23.40
  -4   4   0  732.71   25.03
   4  -4   0  697.33   24.01
  -4  -4  -1   40.65    3.95
  -4   4   1   37.07    4.30
  -4   4  -1   40.32    4.33
   4  -4  -1   37.65    4.40
   4  -4   1   48.57    5.08
  -4  -4  -1   41.65    4.37
  -4  -4   1   45.67    5.46
   4  -4  -2   93.29    6.82
  -4  -4   2  109.98    8.41
  -4  -4  -2   89.15    6.18
  -4   4   2   88.90    6.73
   4  -4   2   93.03    7.40
  -4   4  -2   96.95    5.88
  -4  -4  -2   98.60    6.94
  -4  -4   3  200.61   12.27
   4  -4  -3  196.42   10.54
  -4  -4  -3  208.47   11.62
  -4   4  -3  202.31    9.83
  -4  -4  -3  214.98    9.81
  -4   4   3  212.01   10.93
  -4  -4   3  207.24    7.89
   4  -4   3  200.60   10.90
  -4   4  -4    4.15    4.64
  -4  -4  -4    5.12    4.54
   4  -4   4    3.19    5.46
  -4   4   4    4.57    5.46
  -4  -4   4    4.25    6.83
  -4  -4  -4    4.41    6.40
   4  -4  -4    7.23    5.53
  -4  -4  -5   30.79    9.36
  -4   4   5   39.03    8.05
   4  -4  -5   47.45    8.55
  -4  -4   5   35.64    9.60
   4   5   0  758.81   23.75
  -4  -5   0  727.11   23.99
   4  -5   0  742.71   25.33
  -4  -5   0  706.99   25.61
  -4   5   0  728.03   25.68
  -4  -5  -1  109.44    7.46
  -4  -5   1   93.52    8.05
   4  -5   1  110.42    7.71
   4  -5  -1   99.43    7.01
  -4   5  -1   94.31    6.89
  -4  -5  -1  102.90    6.17
  -4   5   1   95.77    6.62
  -4  -5  -2  266.08   12.71
   4  -5   2  302.20   14.00
   4  -5  -2  317.62   13.22
  -4   5  -2  279.73   11.62
  -4  -5  -2  287.64   12.34
  -4  -5   2  286.47   14.53
  -4   5   2  278.45   12.85
   4  -5  -3  179.12   10.50
   4  -5   3  170.42   11.33
  -4  -5  -3  166.73   10.97
  -4  -5   3  189.62   12.44
  -4   5  -3  178.74    8.83
  -4  -5  -3  180.83    9.85
   4  -5  -4   13.50    6.34
  -4  -5  -4   13.84    5.24
  -4  -5   4    7.18    7.74
   4  -5   4    4.02    6.29
  -4  -5  -4   19.96    7.51
  -4   5  -4    3.43    4.76
  -4   5   4   10.63    6.02
   4  -5  -5   28.68    8.30
  -4  -5  -5   22.11    9.29
  -4   5   5   21.75    7.75
  -4  -5   5   19.18    9.59
   4   6   0  206.89    8.01
  -4  -6   0  194.06   11.12
  -4   6   0  197.54    9.98
   4  -6   0  214.50   10.94
  -4   6  -1   24.83    5.14
   4  -6   1   13.33    5.31
  -4  -6   1   18.77    5.78
   4  -6  -1   22.68    4.91
  -4  -6  -1   19.84    5.16
  -4  -6  -1   18.97    4.18
  -4   6   1   23.43    4.66
  -4   6  -2   33.96    4.62
   4  -6   2   40.67    7.53
  -4  -6  -2   29.07    5.62
  -4   6   2   38.91    5.83
   4  -6  -2   25.97    6.01
  -4  -6  -2   22.04    5.64
  -4  -6   2   19.15    6.86
  -4   6   3   78.86    8.24
  -4  -6  -3   77.94    7.64
  -4   6  -3   94.57    6.47
   4  -6  -3   78.54    8.50
  -4  -6  -3   93.68    8.96
   4  -6   3   70.46    9.21
  -4  -6   3   65.82    9.79
  -4   6   4   -0.04    6.07
   4  -6   4    2.25    7.27
  -4  -6  -4    0.21    5.76
   4  -6  -4   -0.63    6.48
  -4  -6   4   -2.16    8.03
  -4  -6  -4   -0.64    7.03
  -4  -7   0   19.73    6.15
   4  -7   0   21.26    5.87
  -4   7   0   20.53    4.89
   4   7   0   12.93    3.01
  -4   7   1   46.08    6.08
   4   7   1   25.90    4.27
  -4   7  -1   30.94    6.22
   4  -7   1   37.47    7.04
  -4  -7  -1   30.60    6.48
  -4  -7   1   27.57    7.02
   4  -7  -1   29.99    6.38
  -4   7   2   29.49    6.10
  -4  -7   2   45.12    8.85
   4   7   2   33.40    5.47
  -4   7  -2   38.18    5.05
  -4  -7  -2   29.28    6.46
   4  -7  -2   31.95    7.09
   4  -7   2   28.12    7.78
  -4  -7  -2   47.99    6.63
  -4  -7  -3   84.09    8.60
  -4  -7   3   66.28   10.88
   4  -7  -3   86.34    9.59
   4   7   3   77.93    8.52
   4  -7   3   70.88   10.99
  -4  -7  -3  103.60   10.05
  -4   7   3   89.91    9.05
   4  -7   4    2.42    8.57
  -4  -7  -4   -3.88    6.15
  -4  -7  -4   -3.56    7.23
  -4  -7   4   -5.47    8.99
  -4   7   4    3.49    6.58
   4  -7  -4    5.61    7.12
   4   7   4   -5.31    6.07
   4  -8   0  107.18    9.84
  -4   8   0   98.26    8.37
  -4  -8   0   91.28    9.64
   4   8   0   85.44    5.73
   4  -8  -1   10.92    6.48
  -4  -8   1   12.81    7.27
  -4  -8  -1   12.12    6.29
  -4   8   1   15.25    5.46
  -4   8  -1   13.64    5.86
   4  -8   1    4.82    6.14
   4   8   1    8.56    4.11
  -4  -8   2   23.97    8.74
   4  -8  -2   23.36    7.56
   4   8   2   26.38    5.58
  -4  -8  -2   23.85    7.07
  -4   8   2   28.67    6.55
   4  -8   2   16.44    8.24
   4   8   3   51.68    7.61
  -4   8   3   50.82    8.30
  -4  -8   3   29.86   10.24
   4  -8  -3   46.03    8.78
   4  -8   3   42.47   10.82
  -4  -8  -3   43.64    8.04
  -4  -8   4  -10.97    9.53
   4  -8   4    1.29    9.58
   4  -8  -4   -1.91    7.64
  -4  -8  -4    4.78    7.29
   4  -9   0    3.54    6.85
  -4   9   0   14.87    5.88
  -4  -9   0    2.46    7.11
  -4  -9  -1   12.81    7.31
  -4  -9   1    3.89    7.80
  -4   9   1   14.67    5.93
   4  -9   1    9.28    7.47
   4   9   1   14.40    4.70
   4  -9  -1   20.47    7.79
   4  -9   2    3.63    8.55
   4  -9  -2    8.34    7.69
  -4  -9  -2   15.80    7.53
  -4  -9   2    7.08    8.30
  -4   9   2   13.66    6.38
   4   9   2    9.04    5.87
   4   9   3   11.34    6.81
   4  -9  -3   19.92    8.90
   4  -9   3    2.77    9.52
  -4  -9   3   28.55   11.19
  -4  -9  -3   19.95    7.99
  -4   9   3   17.16    7.65
  -4 -10   0   55.27   10.34
   4 -10   0   77.78   10.97
   4 -10  -1   -2.03    7.40
  -4 -10   1   -0.42    7.83
   4 -10   1   -0.27    7.99
  -4  10   1   -5.74    5.68
  -4 -10  -1    6.61    7.93
  -4 -10   2   15.38    9.99
   4 -10  -2   26.56    9.57
  -4 -10  -2   19.35    8.46
   4 -10   2   18.02    9.83
  -4  10   2   22.64    7.62
   4  10   2   20.93    6.69
   4 -11   0   40.31   10.46
  -4 -11   0   32.00   10.42
   4 -11  -1    4.74    8.95
  -4 -11   1   -0.08    8.74
  -4 -11  -1   -0.06    8.79
   4 -11   1   -6.50    9.12
   5   0   0    1.60    1.58
  -5   0   0   -0.27    1.15
  -5   0   0   -0.60    1.65
   5   0   0   -1.89    0.99
   5   0  -1 4002.87  112.94
  -5   0  -1 3705.99  113.15
   5   0  -1 3489.90  107.92
  -5   0   1 3532.09  112.93
  -5   0   1 3536.11  107.98
  -5   0  -2 1286.39   41.48
  -5   0  -2 1271.50   37.90
  -5   0   2 1292.58   39.88
  -5   0   2 1229.72   40.72
  -5   0  -3   36.92    3.69
  -5   0   3   25.04    4.93
  -5   0   3   27.26    4.10
  -5   0  -3   25.92    4.88
  -5   0   4  145.24    9.81
  -5   0  -4  125.16    9.38
  -5   0   4  110.65    8.20
  -5   0  -5   51.84    8.85
  -5   0   5   69.28    8.03
   5   1   0    0.55    1.45
  -5  -1   0    0.68    1.36
   5   1   0    1.69    1.44
  -5  -1   0    1.74    1.52
  -5   1   0   -1.06    2.03
   5  -1   1 2308.61   67.53
  -5   1   1 2283.47   71.37
  -5  -1  -1 2258.57   67.33
   5   1  -1 2347.43   70.62
  -5  -1   1 2183.32   68.34
  -5  -1  -1 2264.72   71.22
  -5   1  -1 2310.11   67.09
  -5   1  -1 2281.43   71.36
   5   1   1 2302.10   67.18
  -5  -1   1 2223.81   70.84
  -5   1  -2   34.71    2.70
   5  -1   2   35.27    2.58
  -5  -1   2   38.39    4.50
  -5  -1   2   38.81    3.34
  -5   1   2   35.86    3.80
  -5   1   2   34.33    4.05
  -5   1  -2   33.62    3.95
  -5  -1  -2   34.07    2.40
  -5  -1  -2   29.88    3.99
  -5  -1  -2   35.33    2.48
  -5   1  -3   53.57    5.75
  -5   1  -3   71.59    4.90
  -5   1   3   53.79    5.35
  -5  -1   3   61.12    5.07
   5  -1   3   55.28    4.08
  -5  -1   3   69.10    6.52
  -5  -1  -3   59.55    6.33
  -5  -1  -3   61.00    3.82
  -5  -1  -3   63.48    4.45
  -5   1   4   55.94    6.67
  -5  -1  -4   63.45    7.79
  -5  -1  -4   59.81    4.92
  -5   1  -4   67.30    7.60
  -5  -1   4   62.46    6.17
  -5  -1   4   66.92    7.98
  -5   1   5   30.63    6.95
  -5  -1   5   23.45    5.86
  -5  -1  -5   21.77    7.79
  -5  -1   5   29.45    7.65
  -5   1  -5   30.59    7.52
   5   2   0    1.80    1.43
  -5   2   0   -3.01    1.42
  -5  -2   0    0.56    1.39
  -5  -2   0    0.28    1.98
  -5   2   0   -1.26    2.26
   5  -2   0    1.07    1.61
   5   2   0    2.09    2.04
  -5   2  -1  477.85   15.50
   5  -2  -1  498.55   16.46
  -5   2  -1  499.20   17.35
   5  -2   1  496.41   16.14
  -5   2   1  491.67   17.31
  -5  -2   1  483.94   16.00
  -5  -2  -1  466.65   16.88
  -5  -2   1  493.30   17.11
  -5  -2  -1  492.39   15.81
   5   2  -1  499.18   15.87
  -5   2  -2  410.76   13.87
  -5   2   2  401.82   15.60
  -5  -2   2  417.45   14.23
  -5  -2   2  435.71   14.22
  -5  -2  -2  418.47   13.72
  -5  -2  -2  433.66   15.95
   5  -2   2  423.83   14.19
  -5  -2   2  400.88   15.91
  -5   2  -2  382.96   15.24
  -5  -2   3   25.91    5.61
  -5  -2  -3   28.31    5.36
  -5   2   3   30.23    4.75
  -5  -2  -3   24.67    3.36
   5  -2   3   23.88    3.67
  -5  -2   3   20.02    3.55
  -5   2  -3   26.38    4.72
  -5  -2   4   87.09    8.88
  -5  -2  -4   88.61    5.96
  -5  -2   4   85.27    6.50
  -5   2  -4   73.55    7.49
  -5  -2  -4  106.63    9.29
   5  -2   4   88.08    6.32
  -5   2   4   61.55    7.12
  -5   2   5    5.44    6.10
  -5  -2   5   10.27    7.31
  -5  -2  -5   21.26    8.16
  -5   2  -5    9.26    6.55
  -5  -2   5   -1.68    4.96
  -5   3   0    0.98    2.60
  -5  -3   0   -0.90    2.42
   5  -3   0   -2.09    1.99
  -5  -3   0   -0.43    1.48
   5   3   0    0.00    0.91
  -5  -3  -1  885.35   29.94
  -5  -3  -1  894.72   28.81
   5   3  -1  912.20   28.54
  -5   3  -1  943.44   30.76
  -5   3  -1  990.71   28.69
   5  -3   1  877.22   29.14
  -5  -3   1  916.40   28.59
  -5   3   1  919.55   30.66
  -5  -3   1  903.87   30.19
   5  -3  -1  890.46   29.17
   5  -3  -2  323.34   12.37
  -5   3   2  315.75   12.69
  -5   3  -2  302.47   12.13
  -5  -3  -2  291.50   11.08
  -5  -3   2  297.45   10.15
  -5  -3   2  302.98   10.45
   5  -3   2  281.04   11.92
  -5  -3  -2  294.55   12.61
  -5  -3   2  292.47   13.29
  -5  -3   3   42.89    3.90
  -5   3   3   48.68    5.74
  -5  -3   3   27.78    6.36
  -5   3  -3   44.37    5.33
  -5  -3  -3   44.40    4.47
  -5  -3  -3   36.28    6.00
   5  -3  -3   36.98    5.49
   5  -3   3   46.33    5.13
  -5  -3   4  150.06    8.03
  -5  -3   4  163.82   12.14
   5  -3   4  147.91    8.79
  -5   3   4  150.86   10.13
  -5   3  -4  142.21    9.63
   5  -3  -4  153.87   10.02
  -5  -3  -4  167.91    8.51
  -5  -3  -4  135.35   11.08
   5  -3  -5   10.36    6.89
  -5   3   5    4.44    6.35
  -5   3  -5   16.52    6.75
  -5  -3   5   10.81    8.26
  -5  -3  -5   16.06    8.22
   5   4   0   -1.05    1.30
  -5  -4   0    2.55    3.18
   5  -4   0   -2.97    2.57
  -5  -4   0    0.28    1.80
  -5   4   0   -0.47    2.98
  -5  -4  -1   42.80    4.04
   5  -4   1   42.87    5.03
  -5  -4  -1   39.22    4.29
  -5   4   1   28.96    4.37
  -5  -4   1   51.71    5.73
  -5   4  -1   41.61    4.75
   5  -4  -1   45.49    4.74
   5  -4  -2  180.70    9.61
  -5  -4  -2  192.64    9.68
  -5  -4   2  180.55   10.87
  -5   4   2  200.12    9.89
  -5  -4  -2  188.55    8.69
   5  -4   2  190.32   10.06
  -5   4  -2  198.41    9.16
   5  -4   3   12.48    4.95
  -5  -4  -3    5.56    4.93
  -5  -4   3    1.88    2.48
  -5   4   3    9.99    4.86
  -5  -4   3    7.41    5.96
  -5  -4  -3    5.59    3.92
   5  -4  -3    1.12    4.36
  -5   4  -3    3.38    3.97
  -5   4  -4   32.17    5.91
  -5  -4  -4   33.01    7.52
  -5  -4  -4   42.48    5.80
   5  -4   4   37.86    6.31
  -5   4   4   30.34    6.63
   5  -4  -4   32.33    6.75
  -5  -4   4   40.41    8.65
  -5   4   5    3.51    6.34
   5  -4  -5    0.06    6.89
  -5  -4  -5   -2.04    7.90
  -5  -4   5   -2.48    7.93
   5  -5   0   -0.42    3.33
  -5   5   0   -1.15    3.43
  -5  -5   0   -1.27    2.20
  -5  -5   0   -5.09    3.38
  -5  -5  -1  447.47   17.10
  -5   5  -1  432.47   17.51
  -5   5   1  452.05   17.47
   5  -5   1  468.47   17.81
  -5  -5   1  477.26   18.64
  -5  -5  -1  429.86   16.40
  -5   5   2  171.46    9.75
   5  -5  -2  176.67    9.85
  -5  -5   2  154.29   10.94
  -5  -5  -2  180.72    9.32
   5  -5   2  180.39   10.83
  -5  -5  -2  160.02    9.34
  -5   5  -2  165.52    8.69
  -5  -5  -3   24.40    6.05
  -5  -5  -3   14.15    4.83
  -5   5  -3   14.60    4.54
  -5  -5   3   15.15    6.94
  -5   5   3   11.92    5.18
   5  -5   3   10.38    5.64
   5  -5  -3   16.42    5.82
   5  -5   4  121.97   10.08
   5  -5  -4  117.25    9.93
  -5  -5  -4   89.47   10.43
  -5  -5  -4  121.38    8.88
  -5   5  -4  108.36    8.19
  -5   5   4   89.83    9.38
  -5  -5   4  110.88   11.98
   5  -5  -5    4.97    7.58
  -5  -5   5    3.41    9.70
  -5  -5  -5    5.26    8.59
  -5   5   5   13.25    7.30
   5  -6   0   -3.01    4.01
  -5  -6   0   -0.03    4.50
  -5   6   0   -1.87    3.78
   5   6   0    3.63    2.28
  -5  -6   1  121.91    9.72
   5  -6  -1   98.62    8.07
  -5   6   1   89.58    7.40
   5  -6   1  105.50    8.62
  -5  -6  -1  120.19    8.62
  -5  -6  -1   96.18    6.83
  -5   6  -1   97.13    7.99
  -5   6  -2  205.45   10.22
   5  -6  -2  181.96   11.28
  -5  -6  -2  196.12   10.73
   5  -6   2  214.46   12.89
  -5   6   2  199.34   11.20
  -5  -6  -2  214.19   11.02
  -5  -6   2  193.20   12.68
  -5   6  -3    3.56    4.23
   5  -6  -3   -1.99    5.58
  -5  -6  -3   -3.85    5.52
  -5  -6  -3   -1.17    4.97
  -5  -6   3   -3.60    6.90
   5  -6   3    1.77    6.53
  -5   6   3   -3.69    5.16
   5  -6  -4   41.75    8.47
  -5  -6   4   27.82    9.67
  -5   6   4   43.64    7.86
  -5  -6  -4   28.93    6.73
  -5  -6  -4   54.36    9.29
   5  -6   4   51.33    9.03
  -5  -7   0    0.07    5.16
   5   7   0    1.62    2.51
   5  -7   0    2.06    5.08
  -5   7   0    7.87    4.75
  -5  -7  -1  280.81   12.54
  -5   7   1  282.04   13.60
  -5  -7   1  290.01   15.32
  -5   7  -1  275.75   13.89
   5   7   1  290.02   11.91
   5  -7  -1  283.15   14.33
   5  -7   1  289.19   14.79
  -5  -7  -1  268.25   13.82
  -5  -7  -2    8.79    5.63
   5  -7   2    5.09    6.84
   5  -7  -2    9.99    6.25
  -5  -7   2    2.64    7.02
  -5   7   2   17.62    5.70
  -5   7  -2   15.06    4.97
  -5  -7  -2   13.88    5.39
  -5  -7  -3    1.22    5.67
   5  -7   3   11.57    8.08
   5  -7  -3   11.47    6.84
  -5  -7  -3    8.62    6.70
  -5  -7   3    8.36    8.50
  -5   7   3   13.99    6.68
  -5   7   4   13.19    7.30
  -5  -7   4    5.05    9.32
   5   7   4    6.25    7.01
  -5  -7  -4   15.75    8.20
   5  -7   4    9.14    8.55
   5  -7  -4   17.44    7.70
  -5  -7  -4   13.67    6.73
  -5   8   0    5.97    5.04
  -5  -8   0   -0.54    5.88
   5   8   0   -1.22    2.95
   5  -8   0   -7.30    5.41
  -5   8  -1  229.71   13.00
   5  -8   1  242.08   14.09
   5   8   1  228.40   10.41
  -5  -8   1  213.94   14.25
   5  -8  -1  195.45   13.10
  -5   8   1  203.25   12.07
  -5  -8  -1  215.98   13.24
   5  -8  -2  155.30   12.17
   5  -8   2  129.61   12.62
  -5   8   2  157.96   11.10
  -5  -8  -2  160.76   11.32
   5   8   2  129.47    9.13
  -5  -8   2  105.25   12.43
  -5  -8  -3   -7.64    6.26
  -5  -8  -3   -1.67    6.50
   5  -8   3   12.55    9.16
   5   8   3    1.57    6.14
   5  -8  -3    0.51    6.78
  -5   8   3   -3.49    6.03
  -5  -8   3    5.87    9.15
   5  -9   0   -0.04    6.49
  -5   9   0    2.65    5.77
  -5  -9   0   -6.32    6.34
  -5   9   1  107.47    9.43
   5  -9  -1   89.55   10.65
  -5  -9  -1   78.26   10.07
  -5  -9   1  103.54   11.84
   5  -9   1  103.37   11.37
   5   9   1   93.77    7.33
  -5  -9   2   -4.33    8.38
   5  -9  -2    2.01    7.56
   5  -9   2   -5.92    7.90
   5   9   2   -4.14    4.99
  -5  -9  -2   -9.94    6.48
  -5   9   2    5.30    6.35
   5  -9  -3   14.10    8.86
   5   9   3   11.49    7.03
  -5  -9   3   13.20   10.92
  -5  -9  -3   10.01    7.62
   5  -9   3  -12.77    9.22
  -5   9   3   15.48    7.68
  -5 -10   0    3.62    7.77
  -5  10   0    2.96    6.54
   5 -10   0   -4.62    7.29
   5 -10   1   -1.09    7.87
  -5 -10   1   12.78    8.92
   5 -10  -1   25.98    9.02
  -5  10   1   24.24    7.18
  -5 -10  -1   21.31    8.69
   5  10   2   16.06    6.51
   5 -10   2   24.69   10.40
   5 -10  -2    8.65    8.73
  -5 -10  -2   15.53    8.54
  -5  10   2    9.94    7.13
  -5 -10   2   18.93   10.21
   5 -11   0   10.53    8.77
  -5 -11   0   -1.49    8.82
  -6   0   0  248.75    8.48
  -6   0   0  247.44    9.69
   6   0   0  241.30    8.47
  -6   0   1  207.16    8.75
  -6   0  -1  214.78    8.76
  -6   0   1  212.95    8.43
  -6   0  -2   65.37    2.52
  -6   0   2   70.76    4.94
  -6   0   2   59.18    5.22
  -6   0  -2   72.00    5.49
  -6   0   3  176.76    9.71
  -6   0  -3  179.30    9.78
  -6   0   3  190.88    9.09
  -6   0  -3  167.28    7.16
  -6   0  -4   -2.00    2.88
  -6   0   4   -0.05    4.26
  -6   0   4    4.69    5.58
  -6   0  -4    2.48    5.18
  -6   0  -5   27.96    8.21
  -6   0   5   22.13    6.27
  -6  -1   0 3969.31  114.80
   6   1   0 3895.79  120.18
  -6   1   0 3750.32  121.05
   6  -1   0 4005.14  114.33
  -6  -1   0 3858.91  120.18
   6   1   0 3883.20  114.77
   6   1   1   39.60    2.31
  -6   1   1   29.86    3.56
  -6  -1   1   42.50    3.79
  -6  -1  -1   37.76    3.46
   6   1  -1   39.33    3.17
  -6   1  -1   34.69    3.53
   6  -1   1   32.08    2.22
  -6  -1  -1   28.31    2.16
  -6  -1   1   40.55    3.29
  -6   1  -2  772.99   23.98
  -6  -1   2  795.74   26.31
  -6  -1  -2  812.98   23.97
  -6  -1  -2  788.99   24.01
  -6   1  -2  783.91   27.19
  -6   1   2  807.07   26.98
  -6  -1  -2  798.11   27.36
  -6   1   2  790.82   26.21
  -6  -1   2  797.73   26.64
   6  -1   2  797.05   23.97
   6  -1   3    3.28    2.27
  -6  -1  -3    4.10    2.60
  -6  -1   3    4.74    4.52
  -6   1   3    3.11    3.74
  -6  -1  -3    8.85    2.35
  -6   1  -3   11.80    4.26
  -6   1  -3    3.13    2.69
  -6  -1  -3    8.67    4.46
  -6  -1   3    4.69    3.33
  -6   1   4   -4.33    4.30
  -6  -1  -4   -1.27    2.98
  -6  -1   4   -3.57    5.25
  -6   1  -4   -3.23    4.85
  -6  -1  -4    4.50    5.62
  -6  -1   4    0.15    4.10
  -6  -1   5   31.70    8.13
  -6  -1  -5   16.91    7.96
  -6   1  -5   23.89    7.48
  -6   1   5   14.67    6.25
  -6  -1   5   16.41    6.19
  -6  -2   0  855.31   27.36
   6  -2   0  845.93   26.81
   6   2   0  886.77   27.90
  -6  -2   0  840.39   27.73
   6   2   0  932.40   27.74
  -6   2   0  832.20   29.28
  -6   2  -1  102.49    4.27
  -6  -2  -1   90.19    5.18
  -6  -2   1   87.86    5.84
  -6  -2  -1   91.61    4.59
  -6  -2   1   94.19    4.42
  -6   2  -1  104.21    5.83
  -6   2   1   84.59    5.70
   6  -2  -1   95.57    5.02
   6  -2   1   92.55    4.78
   6   2  -1  101.34    4.52
  -6  -2  -2  147.98    7.85
  -6  -2  -2  141.84    5.81
  -6   2  -2  140.38    5.83
  -6  -2   2  127.60    8.10
  -6   2   2  138.01    7.56
  -6   2  -2  133.69    7.36
   6  -2   2  143.13    6.25
  -6  -2   2  135.97    6.32
   6  -2   3  759.33   24.04
  -6  -2   3  773.60   27.16
  -6  -2   3  735.04   25.30
  -6   2  -3  767.13   26.97
  -6  -2  -3  718.23   27.39
  -6  -2  -3  745.37   23.79
  -6   2   3  777.88   26.97
  -6  -2  -4    2.37    3.43
  -6  -2  -4    6.89    6.07
  -6  -2   4    7.24    4.15
  -6  -2   4    4.68    6.17
  -6   2   4    0.66    4.71
  -6   2  -4    2.72    5.07
   6  -2   4    0.32    3.58
  -6  -2  -5   78.44   10.50
  -6   2  -5   45.10    8.06
  -6  -2   5   51.41    8.96
  -6   2   5   32.02    7.27
  -6   3   0  322.45   13.04
   6   3   0  319.70   11.17
  -6  -3   0  307.70   10.97
  -6  -3   0  331.53   12.32
   6  -3   0  293.58   11.41
  -6  -3  -1    9.83    2.80
  -6   3   1   13.38    3.16
  -6   3  -1   12.32    2.55
  -6  -3  -1   10.44    2.76
  -6  -3   1    7.59    3.62
  -6  -3   1   10.22    1.50
   6   3  -1   15.82    1.89
   6  -3   1    7.53    2.92
   6  -3  -1   11.62    3.06
  -6   3  -1    8.51    3.40
  -6  -3  -2  125.46    7.56
   6  -3  -2  129.15    7.42
  -6   3  -2  135.08    7.41
  -6   3   2  135.18    7.68
   6  -3   2  122.16    6.83
  -6  -3   2  121.61    8.32
  -6  -3  -2  113.50    6.08
  -6  -3   2  112.13    5.29
  -6  -3   2  116.90    5.01
  -6   3   3   47.35    5.92
  -6  -3  -3   47.14    4.58
  -6   3  -3   56.09    5.95
  -6  -3   3   55.64    4.32
  -6  -3  -3   37.08    6.18
  -6  -3   3   47.76    7.36
   6  -3  -3   35.15    5.58
   6  -3   3   46.34    5.03
  -6  -3  -4   21.12    4.47
  -6   3  -4   14.26    5.55
   6  -3   4    9.13    4.55
  -6  -3   4    9.02    4.00
   6  -3  -4    8.87    5.62
  -6   3   4    8.41    5.51
  -6  -3  -4   10.65    6.36
  -6  -3   4    8.62    7.06
  -6   3   5   10.96    6.48
   6  -3  -5    3.88    6.72
  -6  -3  -5   18.55    8.41
  -6  -3   5   20.51    8.79
  -6   3  -5   16.96    7.27
   6  -4   0  966.24   30.16
  -6   4   0  909.09   31.89
  -6  -4   0  861.79   30.42
  -6  -4   0  958.44   29.75
  -6   4  -1  259.26   12.05
  -6  -4  -1  273.20   10.82
   6  -4   1  267.96   11.41
  -6  -4  -1  265.67   11.00
  -6  -4   1  262.14   12.28
   6  -4  -1  254.42   11.08
  -6   4   1  257.83   11.65
   6  -4   2  144.14    8.77
  -6  -4  -2  157.35    8.66
  -6  -4  -2  136.75    7.53
   6  -4  -2  140.59    8.53
  -6   4  -2  146.57    8.30
  -6  -4   2  144.59    9.76
  -6   4   2  170.31    8.69
  -6  -4  -3 1182.44   41.00
  -6  -4  -3 1169.83   37.52
   6  -4   3 1169.23   38.48
  -6   4  -3 1192.09   39.79
  -6  -4   3 1188.52   41.07
   6  -4  -3 1242.25   39.32
  -6  -4   3 1127.77   37.34
  -6   4   4   13.61    6.19
  -6   4  -4    8.13    5.42
   6  -4   4    7.42    5.21
   6  -4  -4    3.76    5.95
  -6  -4  -4   10.29    4.79
  -6  -4  -4    5.74    6.62
  -6  -4   4   21.41    8.00
   6  -4  -5   62.81    9.34
  -6  -4   5   69.87   11.69
  -6  -4  -5   66.61   10.81
  -6   4   5   79.48    9.50
   6  -5   0  171.47    8.91
  -6   5   0  156.47    9.33
  -6  -5   0  166.42    9.44
  -6  -5   0  166.48    7.02
   6  -5   1   -0.26    3.90
  -6   5   1    0.92    3.74
  -6  -5  -1    3.26    3.81
  -6   5  -1    0.05    4.37
   6  -5  -1    0.25    3.64
  -6  -5  -1   -5.18    2.94
  -6  -5   1    0.19    4.44
   6  -5   2   48.81    6.87
  -6   5  -2   58.69    6.04
  -6  -5  -2   57.84    5.95
  -6  -5   2   42.70    7.34
  -6  -5  -2   56.96    6.09
   6  -5  -2   44.18    6.20
  -6   5   2   54.63    6.37
  -6  -5   3   16.05    7.13
  -6   5  -3   23.78    4.97
   6  -5  -3   16.27    5.75
   6  -5   3   21.34    6.29
  -6  -5  -3   17.02    5.96
  -6   5   3   19.48    5.86
  -6  -5  -3   19.94    5.19
  -6   5   4   -5.88    5.61
  -6  -5  -4    1.87    5.04
  -6  -5  -4    0.95    6.74
  -6   5  -4    2.37    5.19
  -6  -5   4    9.45    8.17
   6  -5  -4    8.66    6.21
  -6  -5   5    8.12    9.90
   6  -5  -5    4.41    7.62
  -6   6   0  121.14    8.70
   6  -6   0  121.61    8.62
  -6  -6   0  134.90    9.17
  -6  -6   0  127.87    6.26
  -6   6   1   24.62    5.17
   6  -6  -1   12.96    5.07
  -6  -6  -1   11.87    4.13
  -6  -6   1   30.49    6.70
   6  -6   1   17.98    5.58
  -6   6  -1   13.09    5.55
  -6  -6  -1   22.02    5.35
  -6  -6   2   30.60    7.55
  -6  -6  -2   24.55    5.45
  -6  -6  -2   33.49    5.96
   6  -6  -2   25.00    6.14
  -6   6  -2   35.81    5.73
  -6   6   2   23.42    5.88
   6  -6   2   37.43    7.54
   6  -6   3  265.69   14.93
   6  -6  -3  254.50   14.02
  -6   6   3  263.58   14.12
  -6  -6  -3  259.33   12.62
  -6  -6  -3  249.72   14.00
  -6   6  -3  256.69   12.25
  -6  -6   4    3.57    8.67
  -6   6   4    8.64    6.54
   6  -6  -4   -5.42    6.40
  -6  -6  -4   12.84    7.80
  -6  -6  -4   -0.92    5.63
  -6  -7   0  488.99   20.45
  -6   7   0  478.40   19.77
   6   7   0  476.32   16.54
   6  -7   0  487.70   19.98
   6  -7  -1    3.67    5.32
  -6  -7   1    0.09    6.15
  -6  -7  -1    2.13    5.11
  -6   7   1    2.45    5.00
  -6  -7  -1    2.12    4.13
  -6   7  -1    4.25    5.51
   6  -7   1    5.42    5.78
  -6  -7   2  107.55   11.32
  -6   7  -2  112.46    8.71
  -6   7   2  143.76   10.26
   6  -7   2  104.75   10.77
  -6  -7  -2  106.32    8.75
   6  -7  -2   99.56    9.79
  -6  -7  -2  133.58    9.97
  -6  -7  -3  -10.84    5.56
   6  -7  -3   -1.83    6.53
  -6  -7  -3    1.33    5.91
  -6  -7   3   -7.54    7.64
   6  -7   3    2.03    7.39
  -6   7   3    4.32    6.13
  -6   7   4   -3.68    6.91
   6  -7  -4    1.07    7.51
  -6  -7  -4    5.95    7.78
  -6  -7   4  -11.22    9.02
  -6   8   0   10.35    5.80
   6  -8   0   18.01    6.75
  -6  -8   0    7.96    6.59
  -6  -8  -1   13.19    6.53
  -6  -8   1    3.84    7.16
  -6   8  -1   12.02    6.64
   6  -8  -1   11.65    6.48
   6  -8   1    2.04    6.18
   6   8   1    0.46    3.89
  -6   8   1    2.49    5.22
  -6  -8   2   -4.02    7.41
  -6  -8  -2    5.57    5.72
   6   8   2   12.88    5.31
   6  -8   2    2.42    7.78
   6  -8  -2   11.07    6.82
  -6  -8  -2   10.94    6.51
  -6   8   2    6.31    6.07
  -6  -8  -3   27.32    7.72
  -6  -8   3   19.28   10.05
  -6   8   3   14.53    7.33
   6  -8   3   41.62   10.39
   6  -8  -3   44.63    9.07
   6   8   3   36.90    7.29
  -6  -8  -3   19.00    7.43
  -6  -9   0  167.49   13.54
  -6   9   0  191.07   12.26
   6  -9   0  190.21   13.47
  -6  -9   1    5.09    8.09
   6   9   1   -4.21    4.07
   6  -9  -1    2.89    6.98
  -6   9   1   -1.67    5.70
  -6   9  -1   -7.98    6.45
   6  -9   1   -2.84    7.09
  -6  -9  -1    4.00    7.02
  -6  -9   2   47.77   10.82
   6   9   2   45.20    7.05
   6  -9   2   43.02   10.39
  -6  -9  -2   48.29    8.86
   6  -9  -2   31.08    9.15
  -6   9   2   43.24    8.08
  -6  -9   3   -3.29    9.86
  -6   9   3   -1.50    7.48
   6  -9  -3    8.47    8.60
  -6  -9  -3    1.51    7.33
   6   9   3    5.64    6.73
   6  -9   3    2.39    9.64
  -6 -10   0   27.95    9.58
  -6  10   0   35.51    8.09
   6 -10   0   33.62    9.17
   6 -10  -1    4.32    8.07
  -6 -10  -1    9.52    8.24
  -6 -10   1    3.94    8.76
  -6  10   1    8.57    6.42
   6 -10   1    6.99    8.24
   6 -10  -2    8.79    8.82
  -6 -10   2    4.56    9.73
  -6 -10  -2    8.44    8.28
  -6  10   2    3.23    7.15
   6 -10   2    6.70    9.61
   6  10   2    4.07    6.20
   6 -11   0    6.03    8.85
  -6 -11   0   10.88    9.65
  -7   0   0    0.49    2.17
   7   0   0    1.55    1.50
  -7   0   0    2.03    1.60
  -7   0   1  461.68   15.70
  -7   0   1  426.26   16.36
   7   0   1  473.49   14.10
  -7   0  -1  456.54   16.47
  -7   0   2 1345.32   42.02
  -7   0  -2 1298.96   43.65
  -7   0   2 1338.03   43.15
  -7   0  -3    2.96    1.66
  -7   0  -3    3.74    4.27
  -7   0  -3    2.02    2.10
  -7   0   3   -0.14    3.52
  -7   0   3    4.47    4.38
  -7   0  -4  345.89   16.49
  -7   0   4  325.64   14.79
  -7   0   4  383.99   16.38
  -7   0   5   -2.55    5.35
  -7   0  -5    4.59    7.17
  -7  -1   0   -0.61    1.73
   7   1   0   -2.19    1.81
  -7   1   0    0.60    2.52
   7  -1   0    1.28    1.60
  -7  -1   0   -0.96    1.83
  -7  -1   1  853.64   28.64
  -7  -1  -1  871.27   26.23
   7  -1   1  878.23   26.28
  -7   1   1  848.56   29.24
  -7  -1  -1  884.76   28.93
  -7  -1   1  870.20   27.96
  -7   1  -1  803.89   29.06
   7   1   1  923.12   26.43
  -7   1   2  908.20   32.63
  -7  -1  -2  955.74   29.25
  -7  -1   2  994.07   32.20
  -7   1   2 1002.79   31.81
  -7  -1  -2  986.58   33.11
   7  -1   2  993.21   29.23
  -7   1  -2  931.63   32.93
  -7  -1   2 1007.58   32.27
  -7  -1  -2 1009.36   29.19
  -7  -1  -3   19.98    2.83
  -7   1  -3   20.46    4.79
  -7   1   3   14.95    4.37
  -7  -1   3   24.05    4.16
  -7  -1   3   18.93    5.17
  -7  -1  -3   11.51    4.79
  -7  -1  -3   22.32    2.56
  -7   1  -3   23.53    2.71
  -7   1  -4   54.37    7.41
  -7  -1  -4   44.24    7.62
  -7   1   4   86.95    7.57
  -7  -1   4   53.74    5.85
  -7  -1   4   60.84    8.09
  -7  -1   5   -1.44    5.26
  -7  -1  -5   15.30    7.93
  -7   1   5   -0.97    5.77
  -7   1  -5    3.90    7.00
  -7  -1   5    4.45    7.34
  -7  -2   0   -1.15    1.79
   7   2   0   -1.65    2.21
  -7  -2   0   -2.26    2.15
   7  -2   0    0.79    1.89
  -7   2   0    1.39    2.89
  -7   2   1   33.93    4.24
  -7  -2   1   21.86    2.72
   7   2   1   20.81    2.48
  -7  -2  -1   23.13    2.74
   7  -2   1   25.16    2.82
  -7  -2  -1   18.00    3.15
  -7   2  -1   25.83    2.31
  -7   2  -1   20.54    3.73
  -7  -2   1   30.00    4.11
  -7  -2  -2  779.01   24.73
  -7   2  -2  809.72   27.85
  -7  -2  -2  755.01   27.74
  -7   2  -2  830.05   24.61
  -7  -2   2  792.04   26.55
  -7   2   2  821.73   27.95
  -7  -2   2  815.63   27.67
   7  -2   2  808.73   25.03
  -7   2  -3   22.86    3.13
  -7  -2  -3   21.80    3.28
  -7  -2   3   26.86    5.90
  -7  -2   3   15.89    3.80
  -7   2   3   18.80    4.83
  -7  -2  -3   20.46    5.34
  -7   2  -3   20.37    4.82
  -7  -2  -3   18.37    3.07
   7  -2   3   22.39    3.15
  -7   2  -4  269.59   13.94
  -7   2   4  264.75   13.39
  -7  -2   4  269.79   12.10
  -7  -2   4  275.18   14.68
  -7  -2  -4  274.37   14.69
  -7   2  -5    2.80    6.84
  -7  -2   5   14.74    8.25
  -7   2   5   -6.97    5.85
  -7  -2  -5    0.57    7.54
  -7  -3   0    2.46    2.89
  -7   3   0    0.91    3.27
  -7  -3   0   -0.25    1.77
   7  -3   0    0.55    2.27
  -7  -3   1  995.74   31.23
   7   3  -1 1029.87   31.68
   7  -3  -1 1011.49   31.76
  -7  -3  -1  953.55   31.11
  -7   3   1  997.93   33.71
   7  -3   1  979.10   31.37
  -7   3  -1 1017.45   33.98
  -7  -3   1  985.62   32.69
  -7  -3  -1  933.39   32.47
   7  -3   2   -0.09    3.28
   7  -3  -2    2.11    3.52
  -7  -3  -2    1.60    2.64
  -7  -3  -2    5.47    3.66
  -7  -3   2    5.49    2.30
  -7   3  -2    5.75    3.61
  -7  -3   2    5.90    2.05
  -7   3   2    5.36    3.49
  -7  -3   2    2.96    4.29
   7  -3   3   15.28    3.96
   7  -3  -3   19.73    5.01
  -7  -3  -3   22.04    3.75
  -7  -3  -3   23.12    5.55
  -7   3   3   21.05    5.19
  -7  -3   3   19.40    6.32
  -7  -3   3   19.26    3.58
  -7   3  -3   13.11    4.87
  -7  -3  -4   23.25    7.05
   7  -3  -4   12.79    5.89
  -7  -3   4   12.00    7.07
  -7   3   4   16.97    6.00
  -7   3  -4   11.47    5.50
  -7   3  -5   -0.34    6.76
  -7  -3   5    5.69    8.31
  -7  -3  -5    1.09    7.71
   7  -3  -5    2.59    6.97
  -7   3   5    3.01    6.28
  -7  -4   0    0.98    2.07
  -7  -4   0    1.97    3.40
  -7   4   0    0.64    3.64
   7  -4   0    1.98    2.91
   7  -4   1   89.82    6.47
  -7  -4  -1   85.66    5.87
  -7   4  -1   95.46    7.39
   7   4  -1   90.97    4.22
  -7  -4  -1   86.26    5.76
  -7   4   1   94.18    7.02
  -7  -4   1   82.95    7.26
   7  -4  -1   89.01    6.41
  -7  -4   1   90.21    3.70
  -7   4  -2  419.33   16.91
   7  -4  -2  407.05   16.52
  -7  -4   2  446.85   18.26
  -7  -4  -2  437.32   16.90
  -7   4   2  414.15   17.31
  -7  -4  -2  419.57   15.47
   7  -4   2  411.00   16.45
  -7  -4  -3   65.47    7.52
   7  -4  -3   61.37    7.16
  -7  -4   3   58.81    8.37
  -7   4  -3   69.40    6.92
  -7   4   3   65.50    7.25
   7  -4   3   61.69    6.52
  -7  -4  -3   54.06    5.57
  -7  -4   4  131.47   12.49
  -7  -4  -4  170.65   12.12
   7  -4  -4  160.05   10.97
  -7   4  -4  160.51   10.45
  -7  -4   5   -7.68    8.43
  -7   4   5    1.83    6.99
  -7   4  -5    4.95    6.58
  -7  -4  -5   19.02    8.77
   7  -4  -5    6.04    7.48
  -7   5   0    4.44    4.16
  -7  -5   0   -1.03    3.92
  -7  -5   0    1.10    2.34
   7  -5   0    1.07    3.68
  -7   5  -1  455.74   19.01
   7  -5  -1  484.90   18.04
  -7  -5  -1  479.12   17.85
  -7   5   1  478.32   18.78
  -7  -5   1  473.88   19.17
   7  -5   1  454.68   17.95
  -7  -5  -1  446.27   17.05
  -7   5  -2    0.49    4.39
  -7  -5  -2    6.83    3.97
  -7  -5  -2    1.78    4.15
  -7  -5   2    7.24    5.85
  -7   5   2    4.82    4.74
   7  -5  -2    3.80    4.54
   7  -5   2    4.27    4.81
  -7  -5  -3    6.90    5.67
  -7  -5  -3   15.24    4.97
  -7  -5   3    4.12    6.46
  -7   5   3    8.33    5.39
   7  -5   3   11.19    5.92
  -7   5  -3   15.20    5.11
   7  -5  -3   10.67    5.79
   7  -5  -4    1.71    6.53
  -7  -5  -4   12.97    7.40
  -7   5  -4    2.46    5.50
  -7   5   4    6.42    6.41
  -7  -5   4    8.32    8.43
  -7  -6   0   -1.77    2.73
   7  -6   0   -1.11    4.08
  -7   6   0   -5.56    4.28
  -7  -6   0   -2.73    4.41
  -7   6   1    9.25    4.85
   7  -6  -1   12.38    5.18
  -7  -6  -1    6.57    3.60
  -7  -6   1    4.34    5.62
  -7  -6  -1   10.41    5.00
  -7   6  -1    1.29    5.15
   7  -6   1    0.37    4.74
  -7  -6  -2  265.72   13.04
  -7   6  -2  285.00   13.56
   7  -6   2  301.27   15.11
  -7  -6   2  296.75   15.73
   7  -6  -2  279.32   14.04
  -7   6   2  261.00   14.01
  -7  -6  -2  270.89   13.12
  -7  -6  -3   15.42    5.72
  -7   6  -3   32.03    5.81
   7  -6   3   29.36    7.55
  -7  -6  -3   25.58    6.98
   7  -6  -3   17.57    6.71
  -7   6   3   32.54    7.04
  -7  -6   3   10.95    7.94
  -7  -6  -4   95.78   11.03
  -7  -6   4  120.41   13.57
   7  -6  -4  108.72   10.78
   7  -7   0    4.53    5.40
  -7  -7   0   -5.71    5.15
   7   7   0   -2.61    2.53
  -7   7   0    6.77    5.23
   7  -7   1  117.31   10.09
  -7  -7  -1  122.23    8.10
  -7  -7   1  123.92   10.96
  -7   7  -1  152.09   10.95
  -7  -7  -1  110.36    9.47
   7  -7  -1  112.35    9.76
  -7   7   1  130.01    9.95
  -7  -7  -2  181.28   10.86
   7  -7  -2  194.59   12.50
  -7   7  -2  176.23   11.18
  -7   7   2  222.22   12.78
   7  -7   2  161.14   12.86
  -7  -7  -2  192.96   11.69
  -7  -7   2  190.11   13.68
  -7  -7  -3    1.65    6.46
  -7  -7  -3    4.69    6.03
  -7   7   3    6.42    6.74
   7  -7   3    5.45    8.00
   7  -7  -3    2.88    6.82
  -7  -7   3    0.62    8.10
   7  -7  -4   14.16    8.49
  -7  -7  -4   21.20    8.74
  -7  -7   4    1.07    9.62
  -7   7   4   21.30    7.78
   7  -8   0    0.87    5.81
  -7   8   0   -2.12    5.49
  -7  -8   0   -0.99    6.28
  -7   8   1   14.72    6.21
   7  -8  -1   12.83    6.73
   7  -8   1   12.57    6.91
  -7  -8  -1   20.78    6.91
   7   8   1    8.40    4.49
  -7  -8   1   17.95    7.70
  -7   8  -1   24.69    7.29
  -7  -8   2  119.65   12.95
  -7  -8  -2  139.61   10.50
  -7  -8  -2  107.43   10.26
  -7   8  -2  134.13   10.17
  -7   8   2  108.41   10.54
   7  -8  -2  159.76   12.47
   7  -8   2  157.79   13.58
  -7  -8  -3    3.45    6.72
  -7  -8   3  -10.63    8.85
  -7   8   3    2.37    7.23
   7  -8  -3    7.37    7.89
   7  -8   3   11.12    8.99
  -7  -8  -3   11.58    7.21
  -7   9   0    5.07    6.12
  -7  -9   0    1.73    6.98
   7  -9   0   -4.64    6.57
  -7   9  -1   73.62    9.81
   7  -9   1   60.85    9.87
   7  -9  -1   66.48    9.92
  -7   9   1   81.37    9.27
   7   9   1   68.25    6.51
  -7  -9  -1   97.00   10.66
  -7  -9   1   61.47   10.48
  -7  -9  -2   61.01    9.45
   7  -9   2   53.02   11.04
   7  -9  -2   41.65    9.56
  -7  -9   2   37.81   10.39
   7   9   2   55.83    7.53
  -7   9   2   68.56    9.39
  -7   9   3   -0.31    7.47
   7  -9  -3   -0.14    8.23
  -7  -9   3    6.80   10.46
   7   9   3   -6.07    6.52
   7  -9   3   12.56   10.25
  -7  -9  -3    3.17    7.38
  -7  10   0   -3.92    6.72
  -7 -10   0   -7.84    7.62
   7 -10   0    8.40    8.18
  -7 -10   1    9.25    8.93
   7 -10   1   -0.08    7.86
  -7 -10  -1    7.86    8.47
  -7  10   1    4.45    6.65
   7 -10  -1   -5.62    7.77
   7 -10  -2   27.78    9.90
  -7  10   2   20.63    8.02
   7 -10   2   39.24   10.96
  -7 -10  -2   23.96    8.91
   7  10   2   14.82    6.66
  -7 -10   2   27.73   10.85
  -8   0   0  301.43   11.82
   8   0   0  293.25   10.29
  -8   0   0  287.15   10.20
  -8   0   1  654.16   23.45
  -8   0   1  695.11   22.32
   8   0   1  671.20   20.46
  -8   0  -1  679.82   23.45
  -8   0   2   13.15    3.88
  -8   0   2    2.55    3.15
  -8   0  -2    8.86    3.62
  -8   0   3  587.42   22.22
  -8   0  -3  608.66   23.30
  -8   0   3  650.38   22.93
  -8   0   4    9.67    5.19
  -8   0   4    5.77    6.06
  -8   0  -4   11.90    6.26
  -8   0   5  135.97   10.74
  -8   0  -5  174.41   13.39
  -8   1   0  977.03   34.02
   8   1   0 1022.41   31.43
  -8  -1   0 1025.44   31.31
  -8  -1   0 1001.00   33.00
   8  -1   0 1013.12   30.89
  -8   1   1   70.78    5.50
  -8  -1   1   61.01    4.89
   8  -1   1   63.37    2.84
  -8   1  -1   55.67    5.03
  -8  -1  -1   58.02    3.04
  -8  -1  -1   59.22    4.52
   8  -1   1   61.25    3.02
  -8  -1   1   62.19    4.74
   8   1   1   62.98    3.40
  -8  -1  -2  792.41   28.34
  -8  -1   2  814.26   27.65
  -8   1   2  843.53   28.31
  -8   1  -2  814.88   28.45
  -8  -1   2  821.10   27.66
  -8   1   2  799.65   27.21
  -8  -1  -3   -0.15    1.65
  -8  -1   3    1.22    3.57
  -8  -1  -3    1.43    1.87
  -8  -1  -3    1.80    4.29
  -8   1   3   -3.57    3.85
  -8   1  -3    3.86    4.31
  -8  -1   3   -2.78    4.61
  -8  -1   4   35.83    5.55
  -8  -1   4   42.78    7.64
  -8   1  -4   44.68    7.53
  -8   1   4   39.14    6.32
  -8  -1  -4   49.10    7.74
  -8   1   5   -7.11    5.79
  -8  -1  -5    2.89    7.61
  -8  -1   5    6.39    5.91
  -8  -1   5   -4.91    7.21
  -8   1  -5    6.19    7.05
   8  -2   0  103.71    5.11
  -8  -2   0  100.36    5.77
  -8  -2   0  112.20    5.51
  -8   2   0   91.07    6.93
  -8  -2   1  170.18    8.61
   8   2   1  209.99    7.63
  -8  -2  -1  172.91    7.09
  -8   2  -1  160.25    8.94
  -8  -2  -1  183.25    8.31
  -8   2   1  182.14    9.20
   8  -2   1  174.56    7.11
  -8  -2   1  172.84    7.53
  -8   2   2    3.57    3.67
  -8  -2  -2    3.28    2.02
  -8  -2   2    6.44    3.12
  -8   2  -2    7.74    1.85
  -8  -2   2    5.10    4.22
   8  -2   2    8.55    2.34
  -8  -2  -2    8.26    3.82
  -8   2  -2    6.31    3.72
   8  -2   3  189.37    7.23
  -8  -2   3  183.71    9.14
  -8  -2  -3  197.13   10.85
  -8  -2  -3  192.33    7.46
  -8   2   3  177.94   10.36
  -8   2  -3  192.65   10.58
  -8  -2   3  189.12   11.39
  -8  -2   4    8.97    6.72
  -8  -2  -4    9.97    6.37
  -8   2  -4    7.06    5.68
  -8  -2   4   -2.47    4.10
  -8   2   4    5.43    5.45
  -8   2   5   79.13    9.22
  -8  -2  -5   94.54   11.15
  -8  -2   5   80.15   11.06
  -8   2  -5   68.64    9.46
  -8   3   0 1709.51   55.77
  -8  -3   0 1694.43   52.33
   8  -3   0 1670.83   51.65
  -8  -3   0 1695.22   53.32
  -8   3  -1   26.69    4.76
   8  -3   1   19.50    3.47
   8  -3  -1   27.43    4.00
  -8  -3   1   32.99    4.59
  -8  -3  -1   26.52    3.81
  -8  -3   1   25.56    2.63
  -8  -3  -1   24.70    3.45
  -8   3   1   20.00    4.38
   8   3  -1   22.74    3.21
  -8   3  -2  969.66   28.90
  -8  -3   2  919.06   29.76
   8  -3  -2  956.89   31.05
  -8   3   2  935.29   32.62
  -8  -3   2  961.96   32.36
  -8  -3  -2  950.41   32.16
   8  -3   2  906.14   29.83
  -8   3  -2  884.67   32.20
  -8  -3  -2  897.40   29.16
  -8  -3   2  921.56   30.08
  -8   3  -3   60.52    6.70
  -8   3   3   48.54    6.81
   8  -3   3   70.15    5.21
  -8  -3   3   69.60    5.41
  -8  -3  -3   73.87    5.16
  -8  -3  -3   63.52    7.46
  -8  -3   3   81.03    8.69
  -8   3  -4   21.97    6.49
  -8  -3  -4   41.26    7.86
  -8  -3   4   33.95    8.39
  -8   3   4   35.46    6.83
   8  -3  -4   37.00    6.79
  -8   3   5   -5.89    6.19
   8  -3  -5   -2.68    6.79
  -8  -3  -5   -0.45    7.87
  -8  -3   5   -2.06    8.01
  -8   3  -5    0.54    6.92
  -8   4   0   20.69    4.95
  -8  -4   0   21.33    2.81
  -8  -4   0   21.45    4.46
   8  -4   0   13.59    3.68
  -8   4  -1   18.75    5.21
   8  -4   1   24.75    4.46
  -8  -4  -1   25.52    4.06
  -8   4   1   31.51    5.24
  -8  -4   1   23.53    5.28
   8   4  -1   30.93    3.08
  -8  -4  -1   27.75    3.86
  -8  -4   1   28.52    2.37
   8  -4  -1   21.97    4.33
  -8   4   2    1.87    3.98
  -8  -4  -2   -1.05    3.86
  -8  -4  -2    0.00    3.13
  -8  -4   2   -3.08    4.78
   8  -4   2   -1.73    4.00
   8  -4  -2    2.13    4.04
  -8   4  -2    0.36    4.22
  -8  -4   2    1.32    1.49
  -8  -4   3   18.64    7.16
   8  -4  -3   21.08    5.99
  -8   4  -3   25.03    5.51
  -8  -4  -3   31.81    4.67
  -8   4   3   16.28    5.79
  -8  -4  -3   16.95    5.94
   8  -4   3   24.58    5.10
  -8   4   4    0.29    6.06
   8  -4  -4    0.57    6.02
  -8  -4  -4   -4.90    6.39
  -8  -4   4   -0.42    7.38
  -8   4  -4   -0.50    5.52
   8  -4  -5   34.48    8.62
  -8  -4  -5   31.29    9.53
  -8   4   5   18.91    7.85
  -8  -4   5   36.61   10.56
  -8   4  -5   41.89    8.37
  -8  -5   0  943.06   30.32
  -8   5   0  909.34   33.24
   8  -5   0  915.59   31.13
  -8  -5   0  957.45   31.89
  -8  -5  -1    5.04    3.56
   8   5  -1    3.14    2.00
  -8  -5   1    0.46    1.55
  -8   5   1    0.24    4.39
  -8   5  -1   -2.10    4.91
   8  -5  -1    5.19    4.01
  -8  -5  -1    2.96    4.12
   8  -5   1    2.45    4.02
  -8  -5   1   -0.87    4.75
  -8   5   2  604.42   24.11
  -8  -5  -2  621.80   23.05
   8  -5  -2  639.92   23.16
  -8   5  -2  617.73   23.63
   8  -5   2  609.94   23.28
  -8  -5   2  591.53   24.48
  -8  -5  -2  623.33   21.99
  -8   5   3   16.40    6.23
  -8  -5   3   24.36    7.86
  -8  -5  -3   20.31    6.48
  -8  -5  -3   19.66    5.13
   8  -5   3   14.37    5.81
   8  -5  -3   14.39    6.16
  -8   5  -3   17.05    5.67
  -8  -5   4    8.78    8.47
  -8   5  -4   15.85    6.41
  -8  -5  -4   14.22    7.47
  -8   5   4   18.53    7.26
   8  -5  -4   20.83    7.39
  -8  -6   0    6.63    3.03
  -8  -6   0   13.63    5.49
   8  -6   0   11.42    4.81
  -8   6   0   10.05    5.17
  -8   6   1   81.82    7.93
  -8   6  -1   69.42    8.45
   8  -6  -1   54.68    7.06
  -8  -6   1   60.77    8.16
   8  -6   1   72.60    7.62
  -8  -6  -1   83.27    6.44
  -8  -6  -1   63.52    7.02
  -8  -6   2   -0.40    6.15
  -8  -6  -2    0.31    4.62
   8  -6   2   -0.59    5.79
  -8   6  -2   -5.08    5.16
   8  -6  -2    7.23    5.54
  -8   6   2    5.11    5.65
  -8  -6  -2    4.30    4.64
  -8  -6  -3   72.90    7.74
  -8  -6  -3   64.45    8.30
  -8   6   3   80.24    9.06
  -8  -6   3   60.42   10.20
   8  -6   3   66.30    9.00
  -8   6  -3   70.79    7.69
   8  -6  -3   78.04    9.04
  -8   6   4   -1.39    7.03
  -8  -6  -4   -6.78    6.67
  -8  -6   4   -4.37    8.05
   8  -6  -4    2.17    6.81
  -8  -7   0  215.41   12.88
  -8   7   0  209.47   12.38
   8  -7   0  232.54   12.54
  -8  -7   0  215.87    9.47
  -8  -7   1   20.56    7.14
  -8   7   1   13.13    5.92
  -8  -7  -1   22.26    6.25
  -8   7  -1   18.35    6.91
   8  -7  -1   13.54    6.26
   8  -7   1    9.13    5.99
  -8  -7  -1   16.18    4.99
   8  -7  -2  212.67   13.03
   8  -7   2  213.77   14.01
  -8   7   2  201.01   12.75
  -8  -7   2  192.33   14.19
  -8   7  -2  190.95   12.40
  -8  -7  -2  226.14   12.07
  -8  -7  -2  178.63   11.46
  -8  -7  -3   14.43    6.52
  -8   7   3    5.54    7.04
   8  -7  -3    6.58    7.15
  -8  -7  -3    6.86    6.80
   8  -7   3   15.60    7.97
  -8  -7   3    3.60    8.38
  -8   7  -3    1.05    5.56
  -8  -7  -4    6.20    8.04
  -8   7   4   12.26    7.88
   8  -7  -4    7.30    8.24
  -8  -7   4    5.93   10.49
   8  -8   0   14.57    6.88
  -8   8   0    6.69    5.90
  -8  -8   0   11.33    7.01
   8  -8   1   86.22   10.18
  -8  -8  -1   69.91    8.91
  -8   8  -1   68.36    9.68
  -8   8   1   78.24    9.18
  -8  -8  -1   62.98    7.20
  -8  -8   1   65.68   10.01
   8  -8  -1   74.33    9.40
   8  -8  -2    9.88    7.41
  -8  -8   2   -8.87    7.62
  -8   8  -2   -5.85    6.16
  -8   8   2   -3.91    6.32
  -8  -8  -2    5.31    6.34
  -8  -8  -2   -0.52    5.77
   8  -8   2   -7.45    6.91
   8  -8   3   56.31   10.64
  -8  -8  -3   63.68    9.15
  -8   8   3   64.67    9.73
  -8  -8   3   34.33   10.86
   8  -8  -3   45.79    9.80
  -8  -8  -3   59.64    8.58
   8  -9   0   34.87    8.52
  -8  -9   0   37.58    9.00
  -8   9   0   41.36    8.01
  -8   9   1   -1.37    6.22
   8  -9   1   -1.91    7.19
  -8   9  -1   -2.52    7.23
   8  -9  -1    0.70    6.89
  -8  -9   1    3.65    7.84
  -8  -9  -1   -0.63    7.10
  -8   9   2   72.38   10.06
   8  -9  -2   51.30    9.91
   8   9   2   46.30    7.52
  -8  -9   2   57.61   11.44
  -8  -9  -2   81.88   10.39
   8  -9   2   75.02   11.78
   8  -9  -3   -2.86    8.03
  -8  -9  -3    7.26    7.58
   8 -10   0    5.47    8.21
  -8  10   0    6.77    7.40
  -8 -10   0   12.57    8.89
   8 -10   1   -5.89    7.98
  -8  10   1    9.09    7.24
  -8 -10   1   16.22    9.66
  -8 -10  -1    5.64    8.21
   8 -10  -1   10.59    8.62
  -8 -10   2    8.81   10.02
   8 -10  -2    7.19    8.44
  -8 -10  -2   -1.59    7.88
   8 -10   2   10.65   10.11
   9   0   0   -2.60    1.69
  -9   0   0   -2.08    2.68
  -9   0   0   -0.93    1.92
   9   0   1  444.65   13.89
  -9   0   1  459.20   15.87
  -9   0  -1  444.60   16.78
  -9   0   1  424.07   16.79
  -9   0   2  215.70   10.26
  -9   0   2  219.40   10.40
  -9   0  -2  205.50   10.42
  -9   0   3   33.52    5.21
  -9   0  -3   28.54    5.72
  -9   0   3   42.87    6.26
  -9   0   4  226.08   12.91
  -9   0   4  216.47   11.73
  -9   0  -4  178.91   12.43
  -9   0   5    6.20    6.13
  -9   0  -5    2.93    7.22
  -9  -1   0   -1.60    2.22
   9   1   0    2.28    2.33
  -9  -1   0    1.73    2.26
  -9   1   0   -1.17    3.11
   9  -1   0   -1.75    1.93
  -9  -1  -1 1068.03   35.49
  -9  -1   1 1055.91   34.06
   9  -1   1 1045.32   31.88
   9  -1   1 1043.94   32.07
  -9   1   1 1078.81   36.20
  -9   1  -1 1045.48   36.00
   9   1   1 1090.34   32.47
  -9  -1   1 1115.07   35.46
  -9  -1  -1 1058.00   32.12
  -9  -1  -2  185.16    9.62
  -9  -1   2  179.30    8.82
  -9   1   2  173.26    9.39
  -9   1   2  184.65    9.40
  -9  -1   2  183.86    9.68
  -9   1  -2  186.14    9.63
  -9  -1   3   23.85    5.84
  -9   1   3   14.74    4.85
  -9  -1   3   18.36    4.62
  -9   1  -3   21.78    5.49
  -9  -1  -3    7.66    4.97
  -9  -1   4   39.03    5.87
  -9  -1  -4   51.43    7.93
  -9   1  -4   40.39    7.31
  -9  -1   4   41.31    7.88
  -9   1   4   42.07    6.93
  -9   1  -5    3.42    7.41
  -9  -1  -5   10.09    7.99
  -9   1   5   13.48    6.63
  -9  -1   5   14.14    6.32
  -9  -1   5   16.59    8.44
   9  -2   0    0.44    2.14
  -9   2   0   -1.47    3.49
  -9  -2   0   -1.07    2.29
  -9  -2   0    2.68    2.72
  -9  -2   1   53.36    5.22
   9  -2   1   50.07    3.66
   9   2   1   51.26    4.12
  -9  -2  -1   49.56    3.71
  -9  -2   1   44.20    3.97
  -9  -2  -1   38.52    4.38
  -9   2   1   40.78    5.34
  -9   2  -1   40.64    5.27
  -9  -2   2  423.80   17.08
   9  -2   2  431.73   13.76
  -9   2   2  405.79   17.01
  -9   2  -2  427.44   17.17
  -9  -2  -2  439.97   16.90
  -9  -2  -2  406.90   13.62
  -9  -2   2  413.74   15.63
  -9   2  -2  424.65   13.18
  -9  -2  -3   22.89    2.69
  -9   2  -3   23.62    5.59
   9  -2   3   22.84    2.37
  -9  -2   3   18.18    4.54
  -9   2   3   23.55    5.49
  -9  -2  -3   16.11    5.41
  -9  -2   3   22.66    6.23
  -9  -2   4  227.64   14.15
  -9  -2   4  211.24   11.18
  -9  -2  -4  263.54   14.26
  -9   2  -4  227.92   13.46
  -9   2   4  230.06   12.79
  -9  -2  -5   16.07    8.44
  -9  -2   5    3.98    8.36
  -9   2   5   -1.93    6.51
  -9   2  -5   -7.58    6.71
   9  -3   0    0.37    2.56
  -9  -3   0    1.53    3.22
  -9  -3   0   -2.41    2.22
  -9   3   0   -2.81    3.83
  -9  -3   1 1264.56   39.31
  -9   3  -1 1167.16   41.05
  -9  -3  -1 1200.82   37.44
  -9  -3  -1 1214.24   39.45
   9  -3   1 1218.09   37.57
   9  -3  -1 1120.03   37.97
  -9  -3   1 1190.99   38.18
  -9   3   1 1225.38   40.88
   9  -3   2  144.23    7.63
  -9  -3  -2  146.02    6.89
   9   3   2  163.76    7.10
  -9  -3   2  148.72    7.03
  -9   3  -2  172.55    9.57
  -9  -3  -2  139.07    8.78
  -9  -3   2  147.09    9.81
  -9   3  -2  166.89    6.62
  -9   3   2  152.17    9.61
   9  -3  -2  147.92    8.76
  -9  -3  -3   18.01    5.86
   9  -3   3   16.26    3.51
  -9   3   3   23.86    5.87
  -9  -3  -3   18.28    3.49
  -9   3  -3   30.48    5.80
   9  -3  -3   18.28    5.38
  -9  -3   3   13.85    6.51
  -9  -3   3   19.12    4.11
   9  -3  -4   11.23    6.11
  -9  -3  -4   11.95    6.90
  -9  -3   4   21.99    8.09
  -9   3   4   23.45    7.08
  -9   3  -4   17.74    6.37
   9  -3  -5   14.46    7.62
  -9  -3   5   20.66    9.59
  -9   3   5   12.60    7.34
  -9   3  -5    1.33    6.99
  -9  -3  -5   27.65    9.18
  -9  -4   0   -0.95    3.51
  -9  -4   0    1.94    2.40
  -9   4   0   -1.10    4.02
   9  -4   0   -0.39    3.21
  -9   4   1   12.08    4.81
  -9  -4  -1   21.84    4.28
   9   4  -1   24.53    3.35
  -9  -4   1   22.05    5.25
   9  -4  -1   26.16    4.61
  -9  -4   1   18.86    2.47
   9  -4   1   14.12    3.92
  -9   4  -1   18.18    5.50
  -9  -4  -1   16.23    3.66
  -9  -4   2  353.48   11.86
  -9   4  -2  344.61   15.63
  -9   4   2  355.64   16.02
   9  -4  -2  341.31   14.83
   9  -4   2  349.91   14.55
  -9  -4   2  348.38   11.82
  -9  -4  -2  348.75   13.36
  -9  -4   2  347.86   16.24
  -9  -4  -2  356.98   15.14
  -9  -4  -3   45.60    7.07
  -9   4   3   33.03    6.94
   9  -4   3   26.34    5.01
   9  -4  -3   42.14    6.88
  -9  -4   3   48.17    8.35
  -9   4  -3   35.99    6.32
  -9  -4  -3   35.71    4.82
  -9   4  -4  145.74   10.84
  -9  -4   4  167.76   13.94
   9  -4  -4  159.44   11.48
  -9  -4  -4  182.60   12.83
   9  -4  -5   -1.98    7.60
  -9  -4   5    2.07    9.29
   9  -5   0   -0.07    3.82
  -9   5   0    3.46    4.81
  -9  -5   0   -1.41    2.61
  -9  -5   0    3.62    4.40
  -9  -5  -1  732.38   25.32
  -9   5   1  685.84   27.12
  -9  -5   1  765.23   27.05
   9  -5   1  726.86   25.62
   9  -5  -1  736.84   25.53
  -9  -5   1  719.38   23.10
   9   5  -1  723.94   23.71
  -9  -5  -1  716.72   25.10
  -9   5  -1  703.88   27.65
  -9  -5   2   68.04    8.52
  -9  -5  -2   66.33    6.47
  -9   5   2   66.48    7.89
   9  -5  -2   57.29    7.16
  -9  -5  -2   53.83    6.48
   9  -5   2   67.18    7.48
  -9   5  -2   80.85    8.21
   9  -5  -3    9.63    6.01
  -9   5   3    6.96    6.18
  -9  -5  -3   13.79    6.17
  -9  -5  -3   11.36    5.02
   9  -5   3   15.40    5.89
  -9   5  -3   15.26    6.03
  -9  -5   3    7.39    7.21
  -9  -5   4   -4.94    8.36
   9  -5  -4    8.71    7.27
  -9   5   4    2.20    6.83
  -9   5  -4    6.84    6.07
  -9  -5  -4    6.24    7.13
  -9  -6   0   -2.08    4.77
  -9  -6   0   -0.42    3.02
   9  -6   0   -1.74    4.26
  -9   6   0   -0.07    5.21
  -9  -6   1    3.42    5.68
  -9   6  -1    2.30    5.74
  -9   6   1   -0.33    5.09
  -9  -6  -1   -2.25    3.81
   9  -6   1   -1.73    4.85
   9  -6  -1   -7.07    4.46
  -9  -6  -1    3.57    4.70
   9  -6   2   81.65    9.09
   9  -6  -2   82.28    8.49
  -9  -6  -2   83.36    7.52
  -9   6   2   69.93    8.65
  -9  -6   2   80.05    9.75
  -9   6  -2   75.12    8.72
  -9  -6  -2   89.41    8.09
  -9  -6  -3   25.12    6.86
   9  -6   3   24.20    7.24
   9  -6  -3   23.08    7.41
  -9   6  -3   41.42    7.23
  -9   6   3   22.25    7.05
  -9  -6  -3   25.81    6.11
  -9  -6   3   20.24    8.57
  -9   6   4   73.80    9.85
  -9  -6   4   53.08   11.62
   9  -6  -4   45.23    9.18
  -9  -6  -4   42.78    9.19
  -9   7   0    6.74    6.08
  -9  -7   0   -3.52    5.45
  -9  -7   0    1.06    3.43
   9  -7   0    3.82    5.53
  -9  -7  -1  233.18   12.77
  -9  -7   1  227.26   13.82
   9  -7   1  194.02   12.31
  -9   7   1  183.71   12.37
   9  -7  -1  213.89   12.66
  -9   7  -1  202.28   13.09
  -9  -7  -1  204.85   10.59
  -9  -7  -2   19.23    5.92
   9  -7   2   18.72    7.72
  -9   7   2   18.59    7.16
  -9  -7   2   14.83    7.91
  -9  -7  -2   22.84    6.49
  -9   7  -2    8.38    6.86
   9  -7  -2   24.13    7.15
  -9  -7  -3   12.62    6.32
  -9  -7  -3   10.72    6.79
   9  -7  -3    6.51    7.44
  -9  -7   3   -1.18    8.07
  -9   7  -3    5.72    6.17
  -9   7   3    7.10    7.27
   9  -7   3    7.01    7.81
   9  -7  -4   -9.94    7.34
  -9   7   4   -4.67    7.49
  -9  -7   4  -10.48    9.12
  -9  -7  -4    2.99    8.01
  -9   8   0    1.45    6.29
   9  -8   0   -5.25    5.79
  -9  -8   0   -3.89    6.38
   9  -8   1   15.17    7.12
  -9   8   1   12.23    6.54
  -9  -8  -1    8.87    5.50
  -9  -8  -1   14.05    6.90
   9  -8  -1   18.67    7.32
  -9   8  -1    0.87    6.94
  -9  -8   1   16.34    7.75
  -9   8  -2   18.14    7.80
  -9  -8   2   22.17    9.12
  -9   8   2   19.70    7.79
  -9  -8  -2   19.00    6.74
   9  -8  -2    8.40    7.45
   9  -8   2   14.78    8.69
  -9  -8  -2   27.04    7.65
  -9  -8  -3   19.70    7.95
   9  -8  -3    8.98    8.49
  -9  -8   3   10.94    9.87
  -9  -8  -3    5.44    6.97
  -9   8   3   10.34    7.99
   9  -8   3   -0.37    8.40
  -9   9   0   -1.91    6.60
   9  -9   0    3.72    7.03
  -9  -9   0    7.88    7.74
   9  -9   1   51.41    9.95
  -9  -9   1   63.97   10.72
  -9  -9  -1   70.47    9.92
  -9   9  -1   73.90   10.57
   9  -9  -1   68.52   10.16
  -9   9   1   71.99    9.57
  -9  -9  -2   26.24    8.47
  -9   9   2   -1.08    7.17
   9  -9   2   11.53    9.07
   9  -9  -2   13.87    8.32
  -9  -9  -2   13.55    7.20
  -9  -9   2   16.79    9.47
   9   9   2   14.21    6.39
  -9  10   0   18.94    7.96
   9 -10   0  -13.73    7.09
  -9 -10   0    5.14    8.58
   9 -10  -1   -2.03    7.85
  -9 -10   1    7.19    9.38
  -9 -10  -1  -12.04    7.54
  -9  10   1    4.55    7.11
   9 -10   1   -2.41    8.05
 -10   0   0  278.01   10.22
 -10   0   0  280.86   12.14
 -10   0   1  301.64   13.17
 -10   0   1  319.08   12.22
  10   0   1  300.95   10.22
 -10   0  -1  324.06   13.24
 -10   0   2    1.70    3.84
 -10   0  -2    6.89    4.01
 -10   0   2    0.76    3.89
 -10   0  -3  901.97   32.59
 -10   0   3  881.03   31.42
 -10   0   3  908.80   31.69
 -10   0   4    8.64    5.44
 -10   0  -4    4.96    6.36
 -10   0   4   14.52    6.81
 -10   0  -5   46.79    9.52
 -10   0   5   48.01    8.14
 -10  -1   0 1219.97   41.31
 -10  -1   0 1269.15   38.99
 -10   1   0 1303.47   42.68
 -10  -1  -1  100.98    6.66
 -10  -1   1  100.44    6.69
  10  -1   1  107.36    4.39
  10   1   1  110.98    5.05
 -10  -1   1   94.51    6.62
 -10  -1  -1  104.52    4.56
 -10   1   1   96.76    7.18
 -10   1  -1   93.92    7.10
  10  -1   1   99.82    4.42
 -10  -1   2  225.52   10.65
 -10   1   2  235.43   10.94
 -10   1   2  221.74   11.18
 -10   1  -2  222.72   11.26
 -10  -1  -2  214.26   11.09
 -10  -1   2  231.32   10.79
 -10   1  -3  109.98    9.09
 -10  -1   3  121.81    8.30
 -10  -1   3  103.28    9.17
 -10  -1  -3  120.78    9.28
 -10   1   3  146.49    9.07
 -10  -1   4    4.35    5.21
 -10   1  -4    8.89    6.50
 -10  -1  -4    9.12    6.59
 -10   1   4    7.62    5.74
 -10  -1   4    5.99    6.53
 -10   1   5   15.82    7.45
 -10   1  -5   24.73    8.42
 -10  -1   5   16.79    8.93
 -10  -1  -5   12.78    8.35
 -10  -1   5   17.42    6.69
 -10  -2   0  335.96   12.76
  10  -2   0  327.38   11.95
 -10   2   0  324.13   14.76
 -10  -2   0  334.49   12.60
 -10   2   1   88.30    7.49
  10  -2   1   97.63    5.12
 -10  -2  -1   93.97    6.46
 -10  -2  -1  100.40    5.24
 -10  -2   1  106.25    6.99
 -10  -2   1  105.83    5.99
 -10   2  -1  103.68    7.76
  10   2   1  115.64    5.83
 -10   2   2    6.83    4.70
 -10  -2   2   13.16    3.77
 -10  -2  -2   16.23    4.58
 -10   2  -2   16.42    4.84
  10  -2   2   13.39    2.24
 -10  -2   2   17.20    5.22
 -10  -2  -2   12.08    2.29
 -10  -2   3  624.10   23.27
 -10   2  -3  567.82   22.77
 -10  -2   3  535.10   20.92
 -10   2   3  571.87   22.68
 -10  -2  -3  582.74   22.98
 -10   2  -4    5.71    6.15
 -10  -2   4    3.16    4.95
 -10   2   4    5.23    6.11
 -10  -2   4    3.43    6.98
 -10  -2  -4    0.84    6.04
 -10  -2   5   51.23   10.56
 -10   2  -5   62.22   10.04
 -10   2   5   33.23    8.23
 -10  -2  -5   45.04    9.85
 -10  -3   0  304.38   11.85
 -10  -3   0  313.18   12.68
 -10   3   0  299.96   14.42
  10  -3   0  321.03   11.95
 -10  -3   1   14.79    2.85
 -10  -3   1   21.06    4.80
 -10  -3  -1   12.59    3.68
 -10   3   1    9.62    4.66
  10  -3  -1   17.09    3.89
  10  -3   1   12.70    3.48
 -10   3  -1   15.94    5.10
 -10  -3  -1   14.69    3.38
 -10  -3  -2   73.99    4.95
 -10  -3   2   72.55    5.23
  10  -3  -2   75.44    6.76
  10   3   2   73.97    4.95
  10  -3   2   69.01    5.41
 -10  -3  -2   89.06    7.08
 -10   3  -2   73.55    7.40
 -10   3  -2   74.68    4.36
 -10   3   2   78.27    7.70
 -10  -3   2   64.01    7.56
 -10   3  -3   15.58    5.60
  10  -3  -3   22.10    5.62
 -10  -3   3   26.19    4.48
 -10  -3  -3   24.61    6.23
 -10   3   3   26.28    6.41
 -10  -3   3   24.32    7.18
 -10  -3   4   14.26    8.18
 -10   3   4   15.94    6.60
 -10  -3  -4    6.59    6.84
  10  -3  -4    2.94    5.99
 -10   3  -4    7.88    6.29
  10  -3  -5    1.11    7.14
 -10  -3  -5    5.83    8.43
 -10   3   5    7.75    7.58
 -10   3  -5   10.82    7.91
 -10  -3   5    7.47    9.23
 -10   4   0  520.19   22.14
 -10  -4   0  581.30   20.53
 -10  -4   0  552.39   19.18
  10  -4   0  555.18   19.63
 -10   4  -1   32.71    6.47
 -10   4   1   25.20    5.68
 -10  -4  -1   36.76    4.88
 -10  -4   1   31.39    3.20
 -10  -4   1   34.09    6.00
 -10  -4  -1   28.35    4.28
  10  -4   1   34.75    4.97
  10  -4  -1   39.45    5.24
 -10   4   2   33.66    6.52
 -10  -4   2   52.23    3.54
 -10  -4  -2   44.97    4.96
 -10  -4   2   26.19    6.68
 -10  -4  -2   38.56    5.82
  10  -4   2   46.63    5.89
  10  -4  -2   30.65    5.80
 -10   4  -2   41.07    6.68
  10  -4  -3  294.52   14.39
 -10   4   3  283.93   15.27
 -10  -4   3  331.07   16.69
 -10  -4  -3  288.19   11.70
 -10   4  -3  284.40   14.58
 -10  -4  -3  281.46   14.61
 -10   4  -4   -1.19    6.26
 -10  -4   4   12.74    8.55
  10  -4  -4    9.75    6.68
 -10   4   4   -2.64    6.59
 -10  -4  -4   -2.95    6.58
 -10  -5   0  182.50    8.14
 -10  -5   0  187.53   10.30
  10  -5   0  167.06    9.68
 -10   5   0  181.70   11.53
 -10  -5  -1    1.62    4.27
 -10  -5   1    8.08    2.36
 -10   5  -1   10.30    5.88
 -10  -5   1    9.68    5.50
 -10  -5  -1    1.32    3.51
 -10   5   1    8.69    5.48
  10  -5   1    3.93    4.55
  10  -5  -1   13.12    4.84
 -10   5   2   39.45    7.11
  10  -5  -2   37.24    6.48
 -10  -5  -2   36.01    5.48
  10  -5   2   25.25    6.10
 -10   5  -2   35.60    7.09
 -10  -5   2   38.12    7.77
 -10  -5  -2   34.38    6.03
 -10  -5   3   14.39    7.70
  10  -5  -3   12.20    6.40
 -10   5  -3   12.52    6.30
 -10  -5  -3   14.51    6.40
 -10  -5  -3    7.09    4.63
 -10   5   3   13.71    6.67
 -10  -5  -4    2.31    7.26
 -10   5  -4    2.50    6.54
  10  -5  -4    8.30    6.99
 -10  -5   4    2.48    8.80
 -10   5   4   -1.49    6.52
 -10   6   0  166.12   11.54
 -10  -6   0  170.11    8.15
  10  -6   0  172.81   10.65
 -10  -6   0  184.61   10.95
 -10  -6  -1   49.79    5.65
 -10  -6   1   42.47    7.61
 -10   6   1   23.77    6.60
  10  -6  -1   45.87    6.89
  10  -6   1   54.25    7.37
 -10  -6  -1   62.00    7.20
 -10   6  -1   30.34    7.58
 -10   6   2   16.27    6.78
 -10  -6  -2   13.27    5.31
  10  -6   2   24.36    6.96
 -10   6  -2    7.67    6.44
 -10  -6  -2    9.76    5.25
  10  -6  -2   16.51    6.52
 -10  -6   2    8.37    6.49
 -10  -6   3  274.27   17.27
 -10   6  -3  307.87   15.64
 -10  -6  -3  272.87   14.98
 -10   6   3  266.03   16.10
  10  -6  -3  302.90   15.84
 -10  -6  -3  296.35   13.93
 -10  -6  -4    0.72    7.75
  10  -6  -4   -2.84    6.93
 -10  -6   4  -12.15    8.75
 -10   6   4   -5.00    7.02
 -10  -7   0  223.61    9.78
 -10  -7   0  233.87   13.22
  10  -7   0  195.81   12.32
 -10   7   0  202.16   13.12
  10  -7  -1   12.41    6.27
 -10  -7   1    9.47    7.01
 -10  -7  -1   19.24    5.19
 -10   7   1   20.91    6.75
  10  -7   1   12.38    6.44
 -10   7  -1   14.10    7.59
 -10  -7  -1   16.62    6.31
 -10   7  -2   40.51    8.63
 -10  -7   2   34.96    9.11
 -10  -7  -2   33.04    6.79
 -10   7   2   27.10    7.81
  10  -7  -2   30.62    7.67
  10  -7   2   41.12    8.18
 -10  -7  -2   27.39    6.78
 -10   7   3   22.91    8.30
 -10  -7  -3   26.41    7.64
 -10  -7   3   27.65    9.54
  10  -7  -3   18.77    8.07
 -10   7  -3   21.06    7.54
 -10  -7  -3   37.34    7.31
  10  -8   0   32.02    7.72
 -10  -8   0   29.30    8.02
 -10   8   0   46.25    8.52
 -10   8  -1   39.69    9.12
 -10  -8   1   29.26    8.67
  10  -8   1   24.21    7.76
 -10  -8  -1   32.15    7.80
  10  -8  -1   28.85    8.02
 -10  -8  -1   35.91    6.56
 -10   8   1   39.18    7.95
 -10  -8   2    3.47    8.24
  10  -8   2   -2.34    7.61
 -10   8  -2  -10.18    7.11
  10  -8  -2   -0.50    6.91
 -10  -8  -2   -3.21    6.27
 -10  -8  -2   -1.66    5.74
 -10   8   2    2.15    7.10
 -10   8   3  176.84   14.34
 -10  -8  -3  145.04   12.61
  10  -8  -3  127.68   13.09
 -10   9   0  102.13   11.16
  10  -9   0   81.71   10.81
 -10  -9   0  106.03   11.55
  10  -9  -1    5.48    7.81
 -10  -9   1   14.77    9.01
 -10   9   1   13.96    7.26
 -10  -9  -1    3.37    7.36
  10  -9   1   10.61    8.15
 -10   9  -1    9.42    8.39
 -10   9   2   11.78    8.05
  10  -9  -2   14.98    8.61
  10  -9   2    9.76    9.37
 -10  -9  -2   19.68    7.60
 -10  -9  -2   27.99    8.77
 -10  -9   2   16.54   10.10
 -10  10   0   11.90    8.25
  10 -10   0   -2.35    7.91
 -10 -10   0    9.92    8.89
 -10 -10  -1    4.83    8.30
 -10 -10   1    3.65    8.98
  10 -10   1  -20.25    7.28
  10 -10  -1    8.47    8.58
 -10  10   1   -7.84    7.17
 -11   0   0    2.18    3.42
 -11   0   0    0.66    2.39
 -11   0  -1  607.14   22.03
 -11   0   1  595.26   20.40
 -11   0   1  581.38   21.99
  11   0   1  571.72   18.44
 -11   0  -2   10.50    4.51
 -11   0   2    1.75    4.04
 -11   0   2    7.90    4.31
 -11   0   3   92.57    8.41
 -11   0  -3   76.46    8.06
 -11   0   3   68.52    7.26
 -11   0   4   15.18    7.19
 -11   0   4   16.45    6.23
 -11   0  -4   12.32    6.92
 -11   0  -5   20.23    8.71
 -11   0   5   29.79    7.83
 -11   1   0   -0.58    3.60
 -11  -1   0    3.68    3.17
 -11  -1   0    5.72    2.79
  11  -1   1 1001.10   30.17
 -11  -1   1  995.02   33.71
 -11  -1   1  998.97   32.36
 -11  -1  -1  984.32   33.86
  11  -1   1  973.71   30.07
  11   1   1  992.65   30.66
 -11   1  -1  976.76   34.58
 -11  -1  -1  979.27   30.17
 -11   1   1 1028.32   34.87
 -11   1  -2   57.87    6.59
 -11  -1   2   54.87    5.84
 -11  -1   2   60.10    6.46
 -11   1   2   52.21    5.57
 -11   1   2   59.80    6.70
 -11  -1  -2   55.02    6.29
 -11  -1  -3  108.08    8.66
 -11   1  -3  103.35    9.13
 -11  -1   3  106.96    8.36
 -11  -1   3  101.86    8.61
 -11   1   3  104.20    8.73
 -11  -1  -4   52.22    8.71
 -11  -1   4   56.32    9.08
 -11   1   4   72.27    8.74
 -11   1  -4   72.65    9.12
 -11  -1   4   78.57    8.08
 -11  -1  -5   15.19    8.85
 -11   1  -5   10.75    8.12
 -11   1   5   14.98    7.27
 -11  -1   5   17.84    9.22
 -11   2   0   -2.31    4.27
 -11  -2   0    1.31    2.98
 -11  -2   0   -3.31    2.67
  11  -2   0    5.90    2.79
 -11  -2   1  414.80   16.24
 -11  -2  -1  411.03   14.25
  11  -2   1  414.41   14.20
  11  -2   1  419.19   13.68
  11   2   1  432.08   14.86
 -11   2  -1  419.12   17.72
 -11  -2   1  400.91   15.58
 -11   2   1  443.69   17.84
 -11  -2  -1  412.55   16.29
 -11  -2  -2  231.43   11.80
 -11  -2  -2  247.23    8.14
 -11   2  -2  238.97   12.50
  11  -2   2  234.40    8.07
 -11   2   2  228.30   12.25
 -11  -2   2  230.10   10.73
 -11  -2   2  224.15   12.08
 -11  -2   3   21.11    6.79
 -11   2  -3   35.92    6.67
 -11  -2   3   24.38    5.23
 -11  -2  -3   40.55    6.78
 -11   2   3   40.13    6.81
 -11  -2  -4   92.12    9.96
 -11   2   4   72.79    8.95
 -11   2  -4   78.59    9.47
 -11  -2   4   92.77   10.61
 -11  -2   4   84.98    7.88
 -11   2  -5   31.72    9.28
 -11  -2  -5   23.35    9.16
 -11  -2   5   27.68   10.26
 -11   2   5   12.00    7.65
 -11  -3   0    2.08    2.74
  11  -3   0    0.75    3.00
 -11  -3   0    0.88    3.31
 -11   3   0    1.66    4.67
 -11  -3   1  349.03   14.70
 -11   3  -1  352.65   16.21
 -11  -3  -1  355.75   14.19
 -11   3   1  342.64   15.83
  11  -3  -1  332.49   13.76
 -11  -3  -1  346.36   12.94
 -11  -3   1  341.20   12.90
  11  -3   1  334.95   12.87
  11  -3   2   19.09    3.89
  11   3   2   20.10    3.55
  11  -3  -2   23.91    5.08
 -11  -3   2   27.09    4.13
 -11   3  -2   28.59    6.10
 -11  -3  -2   20.76    5.07
 -11  -3  -2   18.95    3.41
 -11  -3   2   20.12    6.02
 -11   3   2   23.65    5.93
 -11  -3  -3   42.38    7.08
 -11   3   3   25.00    6.85
 -11   3  -3   40.81    7.15
 -11  -3   3   45.51    5.35
 -11  -3   3   30.04    7.61
 -11   3  -4   45.31    8.08
 -11   3   4   43.78    8.22
 -11  -3   4   51.39    9.84
 -11  -3  -4   39.06    8.56
  11  -3  -4   39.30    7.53
  11  -4   0    2.07    3.51
 -11  -4   0   -0.99    3.98
 -11  -4   0    0.30    2.86
 -11   4   0   -3.00    4.75
 -11   4   1  134.99   10.01
 -11  -4   1  143.63    6.63
  11  -4   1  163.97    8.54
 -11   4  -1  144.89   10.72
 -11  -4  -1  147.17    8.22
 -11  -4   1  137.12    9.52
  11  -4  -1  130.16    8.45
 -11  -4  -1  142.44    8.21
 -11  -4   2  542.20   18.30
 -11  -4  -2  543.04   18.93
 -11  -4  -2  560.67   21.30
 -11   4   2  484.88   22.12
 -11  -4   2  554.53   22.35
  11  -4  -2  560.41   21.08
  11  -4   2  516.14   19.73
 -11   4  -2  576.12   23.04
 -11  -4  -3   12.64    6.34
 -11   4   3    7.12    6.47
 -11  -4   3   10.35    7.14
  11  -4  -3   11.72    6.13
 -11   4  -3    3.76    5.92
 -11   4   4  137.96   12.24
 -11   4  -4  150.63   12.41
 -11  -4  -4  189.11   14.01
 -11  -4   4  164.88   14.41
 -11   5   0    6.49    5.90
  11  -5   0    2.21    4.18
 -11  -5   0    1.45    4.59
 -11  -5   0    1.48    3.09
  11  -5  -1  124.27    8.89
 -11  -5  -1  127.16    8.25
  11  -5   1  137.82    9.11
 -11   5  -1  146.05   10.97
 -11   5   1  142.99   10.43
 -11  -5   1  138.53    6.18
 -11  -5  -1  121.57    7.97
 -11  -5   1  143.74   10.06
 -11  -5   2   15.59    6.94
  11  -5  -2   21.50    6.22
 -11   5  -2   11.55    6.63
  11  -5   2   20.22    5.91
 -11  -5  -2   13.10    5.27
 -11  -5  -2   21.62    4.95
 -11   5   2   23.74    6.74
  11  -5  -3   16.65    6.87
 -11  -5  -3   21.24    6.72
 -11   5   3   35.01    7.90
 -11   5  -3   25.80    7.20
 -11  -5   3   14.21    8.25
 -11   5   4   60.92    9.63
  11  -5  -4   30.17    8.39
 -11  -5   4   18.91    9.89
 -11  -5  -4   27.43    8.64
 -11   5  -4   32.98    8.33
 -11   6   0   -0.67    5.78
 -11  -6   0    6.57    5.44
  11  -6   0    2.42    4.90
 -11  -6   0   -2.81    3.22
 -11   6   1   93.48    9.68
 -11  -6  -1  106.96    8.57
  11  -6  -1  107.72    9.13
 -11   6  -1  129.83   11.53
  11  -6   1   90.67    8.59
 -11  -6  -1   98.80    7.55
 -11  -6   1  106.31   10.01
 -11  -6  -2   79.99    8.03
 -11  -6  -2   72.46    7.50
  11  -6   2   65.59    8.50
 -11   6  -2   72.51    9.35
 -11   6   2   89.05    9.93
 -11  -6   2   67.11    9.75
  11  -6  -2   65.17    8.56
  11  -6  -3    3.14    7.04
 -11  -6  -3    9.33    6.75
 -11   6  -3   12.39    6.96
 -11  -6   3    9.91    8.22
 -11   6   3   11.79    7.56
  11  -6  -4   17.50    8.57
 -11   6  -4   20.26    7.99
 -11  -6  -4   29.98    8.95
 -11  -6   4   26.30   10.84
 -11   6   4    9.53    8.35
 -11   7   0   -4.21    5.91
  11  -7   0    0.84    5.57
 -11  -7   0    1.48    3.97
 -11  -7   0    4.58    5.92
 -11  -7  -1  132.63    8.73
  11  -7   1  113.20   10.28
 -11  -7   1  147.38   11.89
 -11   7   1  121.88   10.95
 -11  -7  -1  108.43    9.69
 -11   7  -1  121.43   11.55
  11  -7  -1  129.79   10.70
 -11   7  -2   10.14    8.13
 -11  -7   2   20.08    8.45
 -11  -7  -2   20.87    6.55
 -11   7   2   18.32    7.71
 -11  -7  -2   24.21    6.29
  11  -7  -2   24.85    7.65
  11  -7   2   21.57    7.77
 -11  -7  -3   21.89    7.33
 -11   7   3    7.57    8.00
 -11  -7   3   13.87    9.08
  11  -7  -3   14.59    8.18
 -11   7  -3   22.23    8.18
 -11   8   0   -1.06    6.49
 -11  -8   0    2.20    7.04
  11  -8   0   -5.51    6.03
 -11  -8   1   49.90    9.55
 -11   8  -1   42.84    9.74
 -11   8   1   50.02    8.71
  11  -8   1   46.45    8.83
 -11  -8  -1   47.92    8.47
 -11  -8  -1   56.84    7.09
  11  -8  -1   53.62    9.08
 -11  -8   2   -7.47    8.06
  11  -8  -2   -4.95    7.15
 -11   8  -2   -0.86    7.84
 -11  -8  -2    2.24    6.34
  11  -8   2    8.60    8.11
 -11   8   2    3.79    7.58
 -11  -8  -2    5.37    6.64
 -11  -8   3    0.25    9.48
 -11  -8  -3    7.13    7.69
  11  -8  -3    1.13    8.52
 -11   8   3   13.09    8.91
  11  -9   0    6.38    7.72
 -11  -9   0   11.44    7.89
 -11   9   0   -3.56    7.13
 -11  -9   1   52.79   10.65
  11  -9  -1   77.06   10.86
 -11  -9  -1   54.49    9.57
  11  -9   1   57.18   10.46
 -11   9  -1   55.10   10.54
 -11   9   1   65.94    9.70
 -11   9   2    2.17    7.78
  11  -9   2    2.72    8.72
 -11  -9  -2   -0.60    6.59
  11  -9  -2    5.78    8.25
 -11  -9   2   -0.90    9.21
 -11  -9  -2   18.39    8.24
 -11 -10   0    1.54    8.33
  11 -10   0   -1.39    8.27
 -11  10   0    9.80    8.30
 -12   0   0 1672.85   54.28
 -12   0   0 1614.47   50.00
  12   0   1  158.73    6.46
 -12   0   1  135.59    9.16
 -12   0  -1  173.46    9.51
 -12   0   1  156.33    8.50
 -12   0   2  244.04   11.67
 -12   0  -2  219.82   11.42
 -12   0   2  213.85   11.55
 -12   0  -3  218.39   12.71
 -12   0   3  217.96   12.47
 -12   0   3  218.31   12.26
 -12   0   4   -0.49    6.62
 -12   0   4    0.27    5.77
 -12   0  -4    5.00    6.84
 -12   0  -5   43.85    9.93
 -12   0   5   47.53    8.38
 -12   1   0  785.30   28.23
 -12  -1   0  778.30   27.12
 -12  -1   0  745.15   24.98
  12   1   1   54.30    4.12
 -12   1  -1   41.53    6.02
 -12  -1  -1   43.00    5.53
  12  -1   1   45.93    3.39
 -12  -1  -1   52.07    3.53
 -12  -1   1   42.19    5.28
 -12   1   1   46.44    6.38
  12  -1   1   48.57    3.43
 -12  -1   1   49.65    5.77
 -12   1   2  164.83   10.19
 -12  -1  -2  167.70   10.05
 -12   1  -2  151.87   10.06
 -12  -1   2  146.44    9.51
 -12  -1   2  167.31    9.72
 -12   1  -3   44.24    7.42
 -12  -1   3   47.04    6.63
 -12   1   3   53.56    7.32
 -12  -1  -3   60.81    7.64
 -12  -1   3   47.48    7.62
 -12  -1   4   12.08    5.89
 -12   1  -4    7.83    6.86
 -12  -1   4   19.25    7.72
 -12   1   4   12.89    6.47
 -12  -1  -4    5.40    6.86
 -12   1  -5    8.16    8.54
 -12  -1  -5   14.92    8.90
 -12  -1   5   10.39    9.23
 -12   1   5    7.78    7.31
  12  -2   0  536.95   18.53
 -12  -2   0  544.82   19.90
 -12   2   0  561.42   22.02
 -12  -2   0  542.50   19.11
  12   2   1   66.06    5.19
 -12  -2   1   70.89    6.47
 -12   2   1   62.58    7.28
 -12  -2  -1   66.52    4.64
 -12   2  -1   63.54    7.42
  12  -2   1   59.80    3.99
  12  -2   1   69.87    4.73
 -12  -2   1   61.54    5.48
 -12  -2  -1   55.98    5.83
 -12   2  -2  113.77    9.35
 -12  -2   2   73.40    7.87
  12  -2   2   84.58    3.69
 -12  -2  -2   83.19    3.83
 -12  -2   2   95.43    7.07
 -12  -2  -2   73.11    7.36
 -12   2   2   94.18    8.52
 -12   2  -3   90.00    9.23
 -12   2   3  110.06    9.55
 -12  -2   3   96.35    7.72
 -12  -2   3   89.47    9.69
 -12  -2  -3  111.86    9.56
 -12   2   4   -0.58    6.45
 -12  -2   4    5.00    5.31
 -12   2  -4    0.76    6.67
 -12  -2   4    4.27    7.56
 -12  -2  -4   -1.54    6.45
  12  -3   0  395.93   14.92
 -12  -3   0  421.69   15.73
 -12  -3   0  374.53   15.10
 -12   3   0  426.55   18.50
 -12  -3   1  303.88   13.91
 -12   3   1  303.24   15.18
  12  -3  -1  343.39   13.41
 -12   3  -1  306.87   15.56
 -12  -3  -1  303.45   12.05
 -12  -3   1  302.43   12.23
  12  -3   1  320.10   12.28
 -12  -3  -1  305.73   13.23
 -12   3  -2  146.49   10.67
  12  -3  -2  132.39    8.95
 -12  -3   2  136.60    7.56
 -12   3   2  141.08   10.31
 -12  -3  -2  142.46    6.72
  12  -3   2  135.19    7.20
 -12  -3   2  167.88   10.66
 -12  -3  -2  121.49    8.98
 -12  -3   3  399.06   18.75
 -12  -3  -3  368.17   17.53
 -12  -3   3  381.06   15.17
 -12   3  -3  379.56   18.12
 -12   3   3  352.53   17.86
 -12   3  -4   -4.79    6.57
 -12  -3   4   20.01    8.72
 -12  -3  -4    0.89    7.20
  12  -3  -4    2.05    6.18
 -12   3   4   -2.96    6.59
 -12   4   0   75.93    8.75
  12  -4   0   77.34    6.46
 -12  -4   0   91.51    7.57
 -12  -4   0   80.33    5.85
 -12  -4  -1   17.30    4.56
 -12  -4   1   17.14    5.62
 -12  -4   1   11.38    3.17
 -12  -4  -1    9.61    4.10
 -12   4  -1   22.11    6.77
 -12   4   1   19.36    6.14
  12  -4  -1   16.82    4.78
  12  -4   1   16.98    4.55
 -12  -4   2   -1.39    5.87
 -12  -4  -2    6.85    4.94
 -12  -4   2    3.27    2.97
  12  -4  -2    9.40    5.35
 -12  -4  -2    5.36    3.89
  12  -4   2    4.84    4.41
 -12   4  -2   18.08    6.73
 -12   4   2    2.73    5.85
  12  -4  -3   24.42    6.70
 -12  -4   3   36.45    8.69
 -12   4  -3   30.31    7.86
 -12  -4  -3   20.54    6.84
 -12   4   3   14.23    7.26
  12  -4  -4    2.49    6.79
 -12   4   4    9.02    7.62
 -12   4  -4    3.90    7.36
 -12  -4   4   -6.77    7.92
 -12  -4  -4    9.61    7.88
  12  -5   0  239.54   11.74
 -12  -5   0  238.17   10.41
 -12  -5   0  241.09   12.30
 -12   5   0  255.87   14.48
 -12  -5  -1  151.73    8.79
 -12   5   1  151.65   11.16
  12  -5  -1  150.35    9.56
  12  -5   1  136.59    9.44
 -12  -5   1  149.57    6.92
 -12   5  -1  138.68   11.72
 -12  -5  -1  155.57    9.05
 -12  -5   1  155.32   11.00
 -12  -5  -2  109.68    8.46
 -12   5  -2   66.79    9.34
 -12  -5   2  109.96   10.54
 -12   5   2   79.80    9.54
  12  -5  -2   94.72    8.88
 -12  -5  -2   85.07    7.22
  12  -5   2   83.23    8.20
 -12   5  -3  212.47   14.20
  12  -5  -3  210.21   13.06
 -12  -5  -3  214.13   13.35
 -12   5   3  229.12   14.58
 -12  -5   3  163.92   14.39
 -12   5  -4   -4.63    6.96
  12  -5  -4    1.17    7.28
 -12  -5  -4   -4.81    7.40
 -12   5   4   12.29    8.33
 -12  -5   4    1.49    9.35
 -12  -6   0  130.46    7.56
  12  -6   0  122.18    9.57
 -12   6   0  153.48   11.78
 -12  -6   0  154.28   10.35
  12  -6   1   18.99    6.10
 -12   6  -1   23.34    7.77
 -12  -6   1   18.64    6.99
 -12  -6  -1   31.57    5.51
 -12  -6  -1   32.56    6.45
 -12   6   1   34.31    7.64
  12  -6  -1   27.26    6.60
 -12   6  -2    0.90    6.95
 -12  -6  -2   12.22    5.47
  12  -6  -2   13.75    6.68
 -12  -6   2   13.74    7.58
 -12   6   2   10.04    7.10
 -12  -6  -2    5.27    5.52
  12  -6   2    9.20    6.29
 -12   6   3   48.14    9.55
 -12  -6  -3   41.99    8.11
 -12   6  -3   52.95    9.71
  12  -6  -3   53.48    9.01
 -12  -6   3   28.09    9.40
 -12  -6  -4   -5.00    7.80
 -12  -6   4    1.01    9.83
 -12   6  -4   -6.16    7.83
 -12   6   4   -5.40    7.91
  12  -6  -4    1.15    8.13
  12  -7   0  139.52   11.31
 -12   7   0  157.94   12.68
 -12  -7   0  137.76   11.17
 -12  -7  -1   -0.46    5.79
  12  -7  -1   13.05    6.69
 -12   7   1   -6.32    6.43
 -12  -7  -1   11.65    5.32
 -12  -7   1    1.69    6.78
  12  -7   1    5.42    6.56
 -12   7  -1   -1.74    7.04
 -12  -7  -2   53.26    7.89
  12  -7  -2   34.87    8.33
  12  -7   2   36.53    8.50
 -12   7  -2   42.20    9.76
 -12  -7   2   52.29    9.82
 -12  -7  -2   42.46    7.35
 -12   7   2   36.05    8.79
  12  -7  -3    9.03    7.69
 -12   7   3    2.27    7.63
 -12  -7   3   -2.61    8.73
 -12  -7  -3   -1.36    6.93
 -12   7  -3    1.97    7.94
  12  -8   0  195.59   13.12
 -12   8   0  149.84   13.09
 -12  -8   0  198.29   13.63
  12  -8  -1   26.58    8.11
 -12  -8  -1   30.35    6.49
 -12   8  -1    9.27    8.19
 -12   8   1   17.11    8.02
 -12  -8   1   10.08    8.21
 -12  -8  -1   28.95    7.65
  12  -8   1    8.42    7.61
 -12  -8  -2   31.04    8.05
  12  -8  -2   31.28    8.93
 -12  -8   2   21.68    9.49
 -12   8  -2    8.91    8.79
  12  -8   2   25.09    9.12
 -12  -8  -2    9.70    6.74
 -12   8   2   12.58    8.36
  12  -8  -3   20.17    9.12
 -12  -8   3   29.67   11.02
 -12  -9   0   51.61    9.94
 -12   9   0   47.37    9.76
  12  -9   0   53.15   10.13
 -12   9   1    4.00    7.82
  12  -9   1    1.46    7.88
  12  -9  -1    4.30    7.73
 -12   9  -1   10.45    9.27
 -12  -9  -1    3.52    7.79
 -12  -9   1    2.96    8.74
 -12  -9  -2   10.98    7.47
 -12  -9   2   14.25    9.96
  12  -9  -2   11.45    8.80
 -12  -9  -2   11.45    8.03
  12  -9   2    4.20    9.06
 -12   9   2    3.18    8.16
 -13   0   0    9.83    3.15
 -13   0   0    7.87    4.47
  13   0   1  582.90   19.06
 -13   0   1  581.13   22.90
 -13   0   1  584.20   20.95
 -13   0  -1  628.50   23.11
 -13   0   2  253.34   13.17
 -13   0   2  262.85   12.74
 -13   0  -2  274.77   13.66
 -13   0  -3    4.05    5.75
 -13   0   3   11.79    6.12
 -13   0   3    7.55    5.62
 -13   0   4  147.25   12.54
 -13   0  -4  138.92   12.28
 -13   0   4  163.82   11.70
 -13  -1   0   11.02    3.48
 -13  -1   0    5.47    3.86
 -13   1   0    3.59    4.16
 -13   1  -1   10.39    5.07
 -13  -1  -1    0.49    4.09
  13   1   1    4.68    2.91
 -13  -1   1    3.24    4.16
 -13   1   1   -1.56    4.83
 -13  -1  -1    0.73    2.41
  13  -1   1    3.19    2.38
 -13  -1   1   -0.33    4.03
  13  -1   1    2.78    2.39
 -13  -1   2  253.85   12.55
 -13   1   2  249.55   13.34
 -13   1  -2  242.14   13.23
 -13  -1  -2  243.35   12.72
 -13  -1   2  231.03   12.30
 -13  -1  -3   10.67    6.08
 -13   1   3   12.77    6.00
 -13  -1   3   10.38    5.54
 -13  -1   3   22.22    6.99
 -13   1  -3   23.61    6.61
 -13  -1  -4  199.81   14.05
 -13  -1   4  206.94   12.45
 -13   1  -4  183.92   13.69
 -13   1   4  210.81   13.15
 -13  -1   4  199.41   14.19
  13  -2   0    3.18    3.15
 -13   2   0   -4.00    4.91
 -13  -2   0    0.61    3.38
 -13  -2   0    0.50    3.44
 -13   2   1  486.83   20.83
 -13  -2  -1  479.85   19.16
 -13  -2  -1  505.35   16.81
 -13  -2   1  500.06   18.87
  13  -2   1  496.37   16.75
 -13  -2   1  479.52   18.56
 -13   2  -1  502.20   21.12
 -13  -2  -2   73.78    3.42
 -13  -2  -2   80.23    7.79
 -13   2   2   81.66    8.52
 -13   2  -2   76.42    8.60
 -13  -2   2   92.46    7.21
 -13  -2   2   70.85    7.95
 -13   2  -3   19.35    6.90
 -13  -2  -3   19.05    6.59
 -13  -2   3   13.66    5.27
 -13  -2   3   25.92    7.44
 -13   2   3   11.30    6.57
 -13  -2   4   78.59   10.58
 -13   2   4   48.35    8.82
 -13   2  -4   83.75   10.51
 -13  -2  -4   74.59   10.33
 -13  -3   0   -1.39    3.82
  13  -3   0    2.75    3.40
 -13   3   0   -4.79    4.47
 -13  -3   0    2.15    3.61
 -13  -3  -1  312.34   13.86
 -13  -3   1  311.08   12.81
 -13   3  -1  314.56   16.16
 -13   3   1  329.38   15.48
 -13  -3  -1  320.77   12.43
  13  -3  -1  316.53   13.44
  13  -3   1  303.12   12.35
 -13  -3   1  297.42   14.13
 -13  -3  -2   18.63    5.59
 -13  -3   2   31.13    4.65
 -13   3   2   31.73    7.00
 -13  -3  -2   24.33    3.63
  13  -3  -2   21.60    5.44
 -13   3  -2   18.90    6.75
 -13  -3   2   22.01    6.63
  13  -3   2   20.18    4.05
 -13  -3  -3   10.55    6.32
 -13  -3   3    9.04    7.08
 -13   3   3   20.14    7.17
 -13  -3   3    4.35    4.41
 -13   3  -3   12.41    6.87
 -13  -3  -4   64.74    9.98
 -13   3   4   77.70   10.18
  13  -3  -4   73.44    9.04
 -13  -3   4   60.54   10.74
 -13   3  -4   79.82   10.35
 -13   4   0   -0.55    6.03
 -13  -4   0    0.39    4.39
  13  -4   0    3.07    4.04
 -13  -4   0   -1.15    3.36
 -13  -4  -1  333.36   13.44
  13  -4   1  329.22   13.66
 -13   4  -1  300.46   16.81
 -13   4   1  337.12   16.12
 -13  -4  -1  317.11   13.84
 -13  -4   1  344.85   15.38
 -13  -4   1  312.10   12.59
  13  -4  -1  316.22   14.12
 -13  -4   2    2.21    3.27
  13  -4  -2   -2.30    4.90
  13  -4   2    5.62    4.39
 -13  -4  -2    8.34    5.19
 -13  -4  -2    0.99    3.70
 -13   4  -2    4.09    6.51
 -13  -4   2   -0.88    6.21
 -13   4   2    2.86    6.24
 -13  -4  -3   12.36    6.67
 -13  -4   3   28.52    8.52
 -13   4  -3   11.38    7.33
 -13   4   3   19.09    7.63
  13  -4  -3   20.91    6.86
 -13   4   4   12.35    7.95
 -13   4  -4    3.68    7.81
 -13  -4   4    9.44    9.34
 -13  -4  -4   13.86    8.01
  13  -4  -4    8.04    7.19
 -13  -5   0   -1.84    5.12
  13  -5   0    0.82    4.61
 -13  -5   0   -1.86    3.33
 -13   5   0   -7.39    5.99
 -13   5  -1  187.36   13.36
 -13   5   1  169.20   12.56
 -13  -5  -1  199.20   10.31
  13  -5   1  184.80   10.76
 -13  -5   1  203.06   12.08
 -13  -5   1  181.87    8.35
 -13  -5  -1  178.17   10.23
  13  -5  -1  209.59   11.27
 -13   5   2    7.73    6.85
 -13  -5   2   25.01    7.71
 -13  -5  -2   23.69    6.29
  13  -5  -2   27.51    6.87
 -13  -5  -2   34.88    5.65
  13  -5   2   23.46    5.85
 -13   5  -2   21.48    8.01
 -13  -5   3   15.39    8.62
 -13  -5  -3   10.15    6.97
 -13   5  -3   17.27    7.98
 -13   5   3    6.16    7.50
  13  -5  -3   17.07    7.24
 -13  -5   4   79.80   12.55
 -13   5   4   66.25   10.91
 -13   5  -4   40.01    9.46
 -13  -5  -4   70.21   10.42
  13  -5  -4   60.32   10.02
 -13   6   0    7.81    6.80
  13  -6   0   -1.41    5.24
 -13  -6   0    2.20    3.88
 -13  -6   0    3.42    5.72
  13  -6   1  163.02   11.22
 -13   6   1  134.63   12.02
 -13  -6  -1  177.93   10.86
 -13   6  -1  164.99   13.34
 -13  -6   1  164.26   11.95
 -13  -6  -1  165.80    9.70
  13  -6  -1  179.22   11.37
 -13   6  -2   11.71    8.16
  13  -6   2   23.57    6.91
  13  -6  -2   23.96    7.23
 -13  -6  -2   22.71    6.23
 -13   6   2   26.61    8.20
 -13  -6   2   29.33    8.58
 -13  -6  -2   19.66    6.04
  13  -6  -3    5.51    7.01
 -13  -6   3    0.12    8.37
 -13  -6  -3    0.88    6.68
 -13   6  -3   -4.65    7.47
 -13   6   3   12.53    8.21
 -13   7   0   -3.43    6.74
 -13  -7   0    0.77    6.21
  13  -7   0    1.34    6.11
 -13  -7   1    6.35    7.34
 -13  -7  -1    0.01    4.90
 -13  -7  -1    7.83    6.13
 -13   7  -1    4.62    8.03
 -13   7   1   -6.50    6.34
  13  -7  -1   11.55    6.66
  13  -7   1   -3.16    6.16
 -13  -7  -2   84.97    9.10
  13  -7  -2  120.06   11.17
 -13  -7  -2   99.33    9.54
 -13   7  -2   84.90   11.91
 -13   7   2   56.67   10.23
  13  -7   2   81.95   10.20
 -13  -7   2   68.22   11.06
 -13  -7   3    3.92    9.31
  13  -7  -3   -0.60    7.63
 -13   7   3    0.13    8.30
 -13  -7  -3   -0.15    7.20
 -13   7  -3    9.67    8.91
  13  -8   0   -1.65    6.47
 -13   8   0    0.62    7.30
 -13  -8   0    2.67    6.99
 -13  -8   1   83.74   10.96
  13  -8   1   75.56   10.23
 -13   8   1   59.93   10.02
 -13   8  -1   76.70   11.60
  13  -8  -1   77.96   10.28
 -13  -8  -1   77.13    9.75
 -13  -8   2   45.26   10.38
 -13   8  -2   38.89   10.78
 -13  -8  -2   30.55    7.84
  13  -8  -2   39.38    9.56
 -13  -8  -2   17.29    6.81
  13  -8   2   19.38    8.85
 -13   8   2   22.59    9.06
 -13   9   0    9.43    8.49
  13  -9   0   -3.49    7.51
 -13  -9   0    4.34    8.03
 -13  -9   1    9.39    8.97
 -13  -9  -1   -1.12    7.64
 -13   9   1   -6.41    7.38
  13  -9   1   10.92    8.57
 -13   9  -1   -3.05    8.74
  13  -9  -1   -0.45    7.74
 -14   0   0   61.10    7.03
 -14   0   0   64.75    5.18
 -14   0   1   11.81    4.30
 -14   0   1   12.05    5.26
  14   0   1    7.06    2.74
 -14   0  -1   -1.14    4.48
 -14   0   2  118.30    8.91
 -14   0  -2  106.52    8.86
 -14   0   2  108.23    9.20
 -14   0   3    4.44    6.22
 -14   0  -3    5.93    6.05
 -14   0   3   -4.33    5.55
 -14   0   4    0.77    7.46
 -14   0  -4    0.83    7.13
 -14   0   4    8.89    6.81
 -14  -1   0  317.81   12.91
 -14  -1   0  326.57   14.72
 -14   1   0  372.50   16.35
 -14  -1   1  279.21   12.33
  14   1   1  271.03   10.57
 -14  -1  -1  250.14   12.91
 -14  -1   1  289.69   13.40
 -14   1  -1  278.33   14.21
  14  -1   1  262.63    9.91
 -14   1   1  258.38   14.06
  14  -1   1  270.54    9.94
 -14  -1  -1  272.49    9.88
 -14  -1  -2   52.80    7.26
 -14   1   2   46.00    7.55
 -14  -1   2   43.88    6.91
 -14   1  -2   60.96    7.94
 -14  -1   2   48.26    6.98
 -14  -1   3  205.36   12.14
 -14  -1   3  224.49   13.06
 -14   1   3  205.34   12.64
 -14   1  -3  208.68   13.49
 -14  -1  -3  176.66   12.63
 -14  -1  -4    6.11    7.06
 -14   1   4   13.02    7.11
 -14  -1   4    3.59    6.19
 -14   1  -4    2.72    7.04
 -14  -1   4   -3.13    6.94
  14  -2   0  554.38   19.56
 -14  -2   0  555.75   21.12
 -14  -2   0  570.22   20.06
 -14   2   0  575.69   23.68
 -14   2  -1   25.49    6.13
 -14  -2   1   16.21    5.18
 -14  -2  -1   15.35    4.97
  14  -2   1   17.18    3.67
 -14  -2   1   15.02    4.61
 -14   2   1   15.71    6.21
 -14  -2  -1   20.12    3.65
 -14   2  -2  199.57   13.27
 -14   2   2  208.71   13.00
 -14  -2   2  208.72   12.11
 -14  -2   2  214.07   11.22
 -14  -2  -2  242.99   12.53
 -14  -2   3   16.07    7.24
 -14  -2   3   13.66    5.58
 -14   2  -3    9.12    7.03
 -14   2   3   12.90    6.97
 -14  -2  -3   10.40    6.51
 -14   2  -4    9.71    7.79
 -14   2   4   18.22    7.83
 -14  -2  -4    3.55    7.35
 -14  -2   4   -5.21    7.69
  14  -3   0  102.62    7.04
 -14   3   0   94.20    9.88
 -14  -3   0   99.45    7.66
 -14  -3   0   90.41    6.95
 -14  -3  -1  182.64    8.77
  14  -3  -1  187.06    9.98
  14  -3   1  164.77    8.80
 -14  -3  -1  178.42   10.07
 -14  -3   1  180.89    9.28
 -14   3  -1  180.93   12.65
 -14  -3   1  197.05   10.90
 -14   3   1  194.58   12.55
 -14   3   2   21.77    6.98
 -14  -3   2   23.16    4.86
 -14   3  -2   16.21    6.99
  14  -3  -2   17.69    5.48
 -14  -3   2   16.04    6.71
 -14  -3  -2   15.64    5.81
 -14   3  -3  108.68   11.23
 -14  -3  -3  113.12   10.56
 -14   3   3  108.42   10.92
 -14  -3   3  119.64   11.66
  14  -3  -3  139.12    9.37
 -14   3  -4    4.68    8.21
  14  -3  -4    1.69    6.45
 -14  -3  -4   -4.15    7.50
 -14   3   4   -3.01    7.12
 -14  -3   4   -9.68    8.03
  14  -4   0  883.03   29.74
 -14   4   0  796.58   33.51
 -14  -4   0  904.75   30.48
 -14  -4   0  908.10   30.27
 -14   4  -1   26.64    7.84
 -14   4   1   19.97    6.95
  14  -4  -1   22.97    5.57
 -14  -4   1   33.97    4.47
  14  -4   1   23.68    5.25
 -14  -4   1   28.80    6.63
 -14  -4  -1   32.04    5.45
 -14  -4  -1   28.14    5.32
 -14  -4  -2  312.74   14.69
 -14  -4   2  306.51   15.83
 -14   4   2  245.12   15.77
  14  -4  -2  306.96   14.74
 -14  -4  -2  299.35   12.11
 -14   4  -2  313.20   17.09
 -14  -4   2  286.19   12.03
 -14   4   3   19.50    8.02
 -14  -4   3   29.55    9.07
  14  -4  -3   20.48    7.05
 -14   4  -3   22.98    8.66
 -14  -4  -3   27.75    7.58
 -14   4  -4    2.21    7.94
  14  -4  -4    0.92    7.07
 -14  -4   4    7.30    9.41
 -14   4   4   21.57    8.58
 -14  -4  -4    3.94    8.11
 -14  -5   0   75.45    6.28
 -14   5   0   58.82    9.25
 -14  -5   0   71.53    7.80
  14  -5   0   69.12    7.28
 -14  -5   1  111.38    6.54
  14  -5  -1  100.01    8.83
 -14  -5  -1  118.60    8.56
  14  -5   1  115.64    9.06
 -14  -5   1   79.08    9.18
 -14   5  -1  122.43   11.67
 -14  -5  -1  104.49    8.24
 -14   5   1  127.02   11.28
 -14  -5   2   18.09    7.93
 -14  -5  -2   16.11    6.13
  14  -5  -2   20.75    6.88
 -14   5  -2   11.18    8.07
 -14  -5  -2   18.56    5.24
 -14   5   2   11.50    7.45
 -14  -5   3   49.46   10.28
 -14   5   3   50.36    9.84
 -14  -5  -3   74.05    9.63
 -14   5  -3   74.71   11.14
  14  -5  -3   47.44    8.79
 -14  -5   4  -13.69    8.71
  14  -5  -4   -5.49    7.42
 -14   5   4   10.24    8.09
 -14   5  -4    6.54    9.03
 -14  -5  -4    5.95    8.04
 -14   6   0  194.17   13.84
 -14  -6   0  177.42    9.12
  14  -6   0  167.09   11.07
 -14  -6   0  169.07   11.36
 -14  -6  -1   -1.63    5.40
 -14   6  -1    1.67    7.44
 -14  -6   1    5.32    6.81
 -14   6   1    4.38    7.14
  14  -6  -1   -0.67    5.57
  14  -6   1    4.52    5.89
 -14  -6  -1    3.31    4.61
 -14  -6   2   79.98   10.66
 -14   6  -2   84.66   11.39
 -14  -6  -2  109.01    8.83
 -14   6   2   67.31   10.25
 -14  -6  -2   88.48    8.73
  14  -6  -2   90.07    9.98
 -14   6  -3  -15.49    7.71
  14  -6  -3    3.20    7.59
 -14   6   3   -0.85    8.16
 -14  -6   3    0.84    8.77
 -14  -6  -3   -2.90    6.82
 -14   7   0   68.73   10.53
 -14  -7   0  102.44   10.32
  14  -7   0   94.88   10.10
 -14  -7  -1   61.58    7.28
 -14   7   1   50.48    9.64
 -14  -7  -1   66.69    8.88
 -14   7  -1   47.90    9.94
  14  -7   1   57.91    9.11
  14  -7  -1   74.28    9.37
 -14  -7   1   63.65    9.70
  14  -7  -2   18.33    8.22
 -14   7   2   23.46    8.79
 -14  -7   2   15.06    8.79
 -14   7  -2   14.42    9.37
 -14  -7  -2   22.20    7.06
 -14   7   3   23.76    9.66
  14  -7  -3   30.02    9.42
 -14   7  -3   24.28   10.31
 -14  -7   3   28.51   10.74
 -14  -7  -3   26.46    8.20
 -14   8   0    9.27    8.26
  14  -8   0    3.81    7.33
 -14  -8   0   17.48    7.97
  14  -8  -1   -4.82    7.14
  14  -8   1   -1.15    7.12
 -14   8  -1   -1.49    8.58
 -14  -8   1   -2.75    7.60
 -14   8   1    6.10    7.82
 -14  -8  -1   11.14    7.56
  14  -8  -2    3.21    8.30
 -14   8  -2   -4.14    9.39
 -14  -8  -2    9.82    6.79
 -14  -8   2   14.39    9.60
 -14   8   2    7.37    8.69
  14  -9   0   23.04    9.05
 -14   9   0   22.99    9.58
 -14  -9   0   28.59    9.51
  14  -9  -1   29.66    9.57
 -14  -9  -1   24.30    8.85
  14  -9   1   27.46    9.45
 -14   9  -1   21.81   10.22
 -14   9   1   23.68    9.31
 -14  -9   1   56.95   11.06
 -15   0   0    1.55    4.95
 -15   0  -1  503.09   20.70
 -15   0   1  473.29   20.40
 -15   0   1  480.17   18.42
 -15   0   2    1.18    5.38
 -15   0   2    4.22    5.65
 -15   0  -2   -2.42    5.38
 -15   0   3   16.99    6.87
 -15   0  -3   14.36    7.12
 -15   0   3   13.37    6.80
 -15   0  -4   25.67    8.71
 -15   0   4    8.00    6.84
 -15  -1   0    4.83    4.59
 -15  -1   0    5.61    3.71
 -15   1   0   -3.09    5.13
 -15   1   1   61.75    8.18
 -15  -1  -1   60.64    7.13
  15  -1   1   60.77    4.46
 -15  -1   1   48.87    6.28
 -15  -1   1   59.71    7.24
 -15  -1  -1   50.06    4.21
 -15   1  -1   56.04    7.90
 -15  -1   2  396.63   17.55
 -15   1   2  406.37   19.02
 -15  -1   2  433.90   18.21
 -15  -1  -2  403.14   18.37
 -15   1  -2  380.46   18.74
 -15  -1   3   14.42    6.94
 -15  -1  -3   18.27    6.95
 -15  -1   3    7.58    6.25
 -15   1  -3    9.89    7.34
 -15   1   3   13.63    7.12
 -15   1  -4  159.93   13.86
 -15  -1   4  141.50   13.40
 -15   1   4  182.46   13.24
 -15  -1  -4  170.64   13.93
 -15  -1   4  194.00   12.52
 -15  -2   0    3.60    4.12
 -15  -2   0    0.68    4.33
 -15   2   0   -0.91    5.98
  15  -2   0    3.39    3.69
 -15  -2  -1  248.80    9.87
 -15   2  -1  227.26   14.21
 -15  -2   1  234.80   11.88
 -15  -2  -1  261.81   12.61
 -15   2   1  240.94   13.95
  15  -2   1  230.39    9.83
 -15  -2   1  231.10   11.88
 -15  -2   2    1.49    4.82
 -15  -2   2   -4.07    5.39
 -15  -2  -2   -6.86    5.11
 -15   2   2   -1.57    5.93
 -15   2  -2   -0.10    6.32
 -15   2  -3   37.86    8.94
 -15  -2  -3   37.17    7.98
 -15  -2   3   33.89    6.68
 -15   2   3   19.49    7.53
 -15  -2   3   38.53    8.34
 -15   2  -4   28.51    9.29
 -15  -2   4   26.57    9.52
 -15  -2  -4   17.10    8.25
 -15   2   4    7.18    7.76
  15  -3   0   -0.82    4.03
 -15  -3   0    0.24    4.43
 -15  -3   0   -1.06    4.01
 -15   3   0   -7.83    6.00
 -15   3   1    3.15    6.35
  15  -3  -1    5.40    4.69
 -15  -3   1    0.30    3.92
 -15   3  -1   -3.98    6.36
 -15  -3  -1    1.88    3.87
 -15  -3  -1    4.32    4.78
 -15  -3   1   -2.15    4.86
  15  -3   1    1.69    3.96
 -15   3   2  246.84   14.98
 -15  -3   2  258.85   13.94
 -15  -3   2  232.81   11.28
  15  -3  -2  235.89   12.59
 -15  -3  -2  250.24   13.63
 -15   3  -2  217.14   15.00
 -15  -3  -3    4.79    6.74
  15  -3  -3   -0.19    5.73
 -15   3   3    8.24    7.29
 -15   3  -3    1.77    7.36
 -15  -3   3    6.99    7.94
 -15   3   4  153.12   13.24
 -15  -3   4  122.10   13.55
 -15   3  -4  125.37   13.19
 -15  -3  -4  137.52   13.41
 -15  -4   0   -3.40    4.79
 -15   4   0    4.64    6.61
 -15  -4   0    6.49    4.22
  15  -4   0    7.23    4.61
 -15  -4   1  100.62    9.43
 -15  -4  -1  119.40    8.45
 -15  -4   1  107.91    7.28
  15  -4   1  104.68    8.07
  15  -4  -1   87.93    8.27
 -15   4  -1  104.47   11.26
 -15   4   1  105.40   10.71
 -15  -4  -1  110.14    7.73
 -15   4  -2   -9.01    6.76
  15  -4  -2   -3.57    5.31
 -15  -4  -2    3.50    5.70
 -15   4   2   -2.79    6.57
 -15  -4   2   10.03    6.89
 -15  -4  -3   38.29    8.07
 -15  -4   3   40.08    9.65
 -15   4  -3   36.51    9.31
  15  -4  -3   22.99    7.41
 -15   4   3   41.38    9.07
 -15   4   4   30.88    9.65
 -15  -4  -4   19.91    9.07
 -15   4  -4   14.23    9.19
 -15  -4   4   28.41   10.80
  15  -4  -4   15.29    7.75
 -15  -5   0   -4.25    5.11
 -15   5   0   -7.47    6.25
 -15  -5   0   -1.88    4.14
  15  -5   0   -0.19    5.06
 -15   5   1   -1.77    6.55
 -15  -5  -1    4.87    5.19
 -15  -5   1    4.06    6.29
  15  -5  -1    5.13    5.77
 -15  -5  -1    4.37    4.94
  15  -5   1    3.66    5.35
 -15   5  -1    4.93    7.75
 -15  -5   1   -2.09    3.71
 -15  -5   2   91.59   11.01
  15  -5  -2   94.33    9.94
 -15   5   2  145.05   12.43
 -15  -5  -2  133.75   10.29
 -15   5  -2  105.11   12.36
 -15  -5  -3    7.24    7.17
 -15   5   3   -0.15    7.88
 -15   5  -3   -1.65    7.93
  15  -5  -3   -0.70    7.14
 -15  -5   3    6.19    8.94
 -15   6   0    4.16    7.71
 -15  -6   0   -4.27    4.23
 -15  -6   0   -2.56    5.95
  15  -6   0    4.79    6.07
 -15  -6  -1  130.66    9.41
 -15  -6   1  157.70   12.21
 -15  -6  -1  141.28   10.26
 -15   6   1  113.50   12.15
  15  -6   1  165.30   11.53
  15  -6  -1  132.72   11.00
 -15   6  -1  170.15   14.12
 -15   6   2   -1.22    7.23
  15  -6  -2    4.97    6.93
 -15  -6  -2    1.64    5.91
 -15  -6   2    1.65    7.92
 -15   6  -2  -16.90    7.86
 -15   6   3   13.89    9.33
 -15   6  -3    8.55    9.72
  15  -6  -3    9.94    8.11
 -15  -6  -3   11.04    7.63
 -15  -6   3    9.63    9.60
 -15   7   0   -4.31    7.74
  15  -7   0   -9.50    5.97
 -15  -7   0    8.08    7.00
 -15  -7  -1   16.29    6.12
 -15   7   1   -1.48    7.61
  15  -7  -1    4.98    6.97
 -15  -7   1    4.98    7.40
 -15  -7  -1    0.47    6.38
 -15   7  -1    3.60    8.70
  15  -7   1    4.74    6.82
  15  -7  -2   52.87    9.78
 -15   7  -2   57.60   11.44
 -15  -7   2   87.33   11.57
 -15  -7  -2   68.58    9.10
 -15   8   0   -2.09    8.17
 -15  -8   0    3.75    7.67
  15  -8   0   -5.03    7.32
 -15   8   1   87.50   11.97
 -15  -8  -1   84.53   10.32
  15  -8  -1   97.80   11.41
  15  -8   1   83.84   11.37
 -15  -8   1   70.49   10.93
 -15   8   2   -9.77    7.74
 -15  -8  -2    4.28    6.83
  15  -8  -2    3.14    8.48
 -15  -8   2   -6.18    8.73
 -15   8  -2  -19.87    8.49
  15  -9   0    2.34    8.46
 -15  -9   0   -3.52    8.06
 -16   0   0 1104.69   39.52
 -16   0  -1    0.20    5.56
 -16   0   1    4.15    5.82
 -16   0   1   -0.32    4.36
 -16   0  -2  135.33   11.15
 -16   0   2  114.96   10.22
 -16   0   2  132.83   10.00
 -16   0   3    6.15    7.08
 -16   0   3   16.10    7.17
 -16   0  -3   12.84    7.16
 -16   0   4   -7.06    6.53
 -16   0  -4    1.21    7.94
 -16  -1   0   12.93    4.66
 -16   1   0   22.09    6.62
 -16  -1   0   16.17    5.62
 -16   1   1   15.98    6.84
  16  -1   1    7.02    3.26
 -16  -1   1   20.83    5.28
 -16   1  -1    7.41    6.38
 -16  -1   1    5.80    5.42
 -16  -1  -1    3.36    5.23
 -16  -1   2    8.01    6.09
 -16  -1  -2    3.75    5.99
 -16   1  -2    7.77    6.57
 -16  -1   2    3.42    5.80
 -16   1   2    2.57    6.02
 -16   1  -3  136.54   12.56
 -16  -1   3  117.53   11.52
 -16   1   3  162.38   12.68
 -16  -1   3  177.77   11.79
 -16  -1  -3  150.02   12.41
 -16   1   4    7.75    7.66
 -16  -1  -4   19.47    8.63
 -16   1  -4   12.56    8.36
 -16  -1   4   17.98    7.41
 -16  -1   4    4.78    8.50
 -16  -2   0  970.39   34.69
  16  -2   0 1023.84   32.43
 -16   2   0 1005.08   37.42
 -16  -2   0  947.76   32.50
 -16   2   1   14.76    7.05
 -16  -2   1   11.66    5.27
 -16  -2   1   15.46    5.62
  16  -2   1   17.41    4.20
 -16  -2  -1   17.09    4.02
 -16   2  -1   18.85    7.17
 -16  -2  -1   15.03    5.50
 -16   2   2  135.79   11.70
 -16   2  -2   89.86   10.73
 -16  -2   2  120.29   10.27
 -16  -2   2  101.36    8.67
 -16  -2  -2  107.33    9.81
 -16  -2   3    0.63    5.71
 -16   2   3   -1.79    7.07
 -16   2  -3   -0.16    7.62
 -16  -2   3   14.60    7.61
 -16  -2  -3    3.00    6.81
 -16   2  -4   -6.30    8.13
 -16  -2   4   -8.13    8.07
 -16  -2  -4    6.38    8.08
 -16   2   4    8.89    8.11
  16  -3   0    4.61    4.60
 -16  -3   0   -0.84    4.53
 -16  -3   0   11.91    4.81
 -16   3   0    8.51    7.05
  16  -3   1    9.48    4.52
 -16  -3   1   18.47    5.07
 -16  -3  -1   20.77    5.81
 -16  -3  -1   20.38    4.72
  16  -3  -1   13.54    5.44
 -16   3   1   19.76    7.40
 -16  -3   1   18.52    6.19
 -16   3  -1   16.38    7.61
 -16   3   2   15.11    7.26
 -16  -3   2   16.53    4.99
  16  -3  -2    8.84    5.85
 -16   3  -2   12.93    7.92
 -16  -3   2   11.64    6.91
 -16  -3  -2    6.07    6.05
 -16   3   3  109.33   11.96
 -16  -3  -3  168.37   12.36
 -16   3  -3  186.64   14.98
  16  -3  -3  131.37   10.83
 -16  -3   3  171.78   13.78
 -16   3   4   13.84    8.61
  16  -3  -4   -5.08    6.42
 -16  -3   4    0.64    8.86
 -16   3  -4    4.36    8.71
 -16  -3  -4    4.65    8.44
 -16  -4   0  680.17   25.06
 -16   4   0  694.05   29.06
 -16  -4   0  689.84   25.10
  16  -4   0  675.60   24.70
 -16  -4   1   35.37    7.32
 -16   4   1   45.96    8.81
 -16  -4   1   34.98    5.26
 -16   4  -1   20.12    8.59
  16  -4   1   43.29    6.25
  16  -4  -1   17.45    6.08
 -16  -4  -1   39.87    6.68
 -16  -4  -1   37.39    5.96
  16  -4  -2   60.10    8.60
 -16  -4  -2   41.30    7.53
 -16   4   2   56.38    9.53
 -16   4  -2   59.41   10.36
 -16  -4   2   61.14    9.36
 -16   4   3   26.78    8.82
 -16  -4   3   27.36    9.52
 -16   4  -3    8.76    8.75
  16  -4  -3   15.57    7.21
 -16  -4  -3    9.81    7.52
  16  -5   0   21.60    6.28
 -16  -5   0   10.23    4.72
 -16  -5   0    9.34    6.20
 -16   5   0   19.66    8.27
 -16   5   1    2.36    7.11
  16  -5   1    6.21    5.69
 -16   5  -1    5.13    8.22
 -16  -5  -1    9.58    5.61
  16  -5  -1   13.57    6.37
 -16  -5  -1    9.29    5.52
 -16  -5   1    9.01    6.83
 -16  -5   2   10.69    7.72
 -16   5   2    7.72    7.99
 -16  -5  -2    8.72    6.24
 -16   5  -2    8.03    9.08
  16  -5  -2    7.87    7.00
 -16  -5   3  104.67   12.80
 -16   5  -3   75.15   12.14
  16  -5  -3   62.61    9.91
 -16   5   3  100.79   12.33
 -16  -5  -3   89.83   10.45
 -16   6   0  274.58   17.60
 -16  -6   0  301.20   15.41
  16  -6   0  285.40   15.15
 -16  -6   0  286.46   13.17
 -16  -6  -1   16.25    6.51
  16  -6  -1    9.75    6.82
 -16   6  -1   -1.63    8.23
 -16  -6   1    8.97    7.30
  16  -6   1   12.44    6.79
 -16   6   1    6.04    7.65
 -16  -6  -1   -1.10    5.04
 -16  -6   2   23.55    8.82
  16  -6  -2   13.65    7.61
 -16  -6  -2   15.59    6.82
 -16   6  -2   27.99   10.18
 -16   6   2    2.10    8.09
 -16   6  -3   -3.75    9.84
  16  -6  -3    5.88    8.16
 -16  -6   3   -2.23    9.19
 -16  -6  -3    2.26    7.69
 -16   6   3    5.17    8.46
 -16   7   0    0.35    8.39
  16  -7   0    1.25    7.02
 -16  -7   0   19.36    7.74
 -16   7  -1   -3.99    8.51
  16  -7  -1    2.86    7.19
 -16  -7  -1    0.37    6.61
 -16   7   1    2.24    8.25
 -16  -7   1    5.18    7.88
 -16  -7  -1   -0.04    5.88
  16  -7   1  -10.02    6.69
 -16  -7   2   -6.99    8.15
 -16   7   2   -2.74    8.08
  16  -7  -2    4.28    8.09
 -16  -7  -2    3.32    6.94
 -16   7  -2    1.38    9.45
  16  -8   0  126.29   12.59
 -16   8   0   79.49   12.02
 -16  -8   0  110.77   11.56
 -16  -8  -1    4.34    7.40
 -16  -8   1    7.01    8.46
 -16   8  -1   -0.80    8.98
  16  -8  -1   -3.22    7.83
  16  -8   1    2.60    7.99
 -16   8   1    2.05    8.70
 -17   0   0   21.21    6.57
 -17   0   1  790.75   27.81
 -17   0   1  802.22   30.77
 -17   0  -1  780.67   30.76
 -17   0   2   14.69    6.46
 -17   0  -2   17.07    7.37
 -17   0   2   22.99    7.36
 -17   0   3   44.64    8.80
 -17   0   3   39.31    8.72
 -17   0  -3   22.18    8.34
 -17   0   4   13.12    7.82
 -17   0  -4    7.00    8.48
 -17  -1   0    0.88    5.32
 -17  -1   0   -3.08    4.25
 -17   1   0   -3.65    6.07
 -17  -1   1   -6.15    5.05
 -17   1   1    2.15    6.47
 -17   1  -1   -0.63    6.42
 -17  -1  -1    1.03    5.52
  17  -1   1    1.27    3.38
 -17  -1   1   -5.43    5.11
 -17  -1   2   83.08    8.91
 -17   1   2   89.33   10.13
 -17  -1  -2   88.43    9.82
 -17  -1   2   82.22    9.09
 -17   1  -2  119.51   11.35
 -17  -1   3   -7.47    6.96
 -17  -1   3    4.24    6.73
 -17  -1  -3    2.09    7.01
 -17   1  -3    0.26    7.62
 -17   1   3    8.78    7.42
 -17  -1   4   41.41   10.29
 -17   1   4   27.74    8.88
 -17  -1  -4   43.83    9.96
 -17   1  -4   33.41   10.19
  17  -2   0   10.18    4.51
 -17  -2   0   20.59    5.13
 -17  -2   0   -1.32    4.89
 -17   2   0    3.54    6.87
 -17  -2  -1  419.93   15.46
  17  -2   1  429.50   15.75
 -17  -2   1  415.27   17.81
 -17  -2  -1  428.48   18.88
 -17   2  -1  412.21   20.99
 -17   2   1  444.00   20.80
 -17  -2   1  452.12   18.54
 -17   2  -2   37.61    8.98
 -17  -2  -2   45.25    7.97
 -17   2   2   63.82    9.34
 -17  -2   2   34.89    6.87
 -17  -2   2   36.48    7.78
 -17   2   3   18.11    8.14
 -17  -2   3   41.80    7.61
 -17  -2  -3    8.96    7.58
 -17   2  -3   21.06    9.14
 -17  -2   3   43.68    9.33
 -17   2  -4   20.77    9.68
 -17  -2   4    6.04    9.24
 -17  -2  -4   11.14    9.02
 -17   2   4    7.65    8.40
 -17  -3   0    3.26    4.86
  17  -3   0   -4.04    4.54
 -17  -3   0   -2.21    5.07
 -17   3   0   -3.00    7.13
  17  -3  -1   22.34    6.05
 -17  -3  -1   24.58    5.11
  17  -3   1   24.44    5.21
 -17   3  -1   22.13    8.37
 -17  -3  -1   20.03    6.37
 -17  -3   1   14.48    6.56
 -17  -3   1   21.01    5.44
 -17   3   1   22.14    8.10
 -17   3  -2  185.75   14.66
 -17  -3   2  156.79   12.15
 -17   3   2  139.47   12.65
 -17  -3  -2  169.03   11.99
  17  -3  -2  104.09    9.91
 -17  -3   2  162.26    9.98
 -17   3   3   10.61    8.29
  17  -3  -3    3.70    6.27
 -17   3  -3    4.21    8.53
 -17  -3  -3    5.00    7.52
 -17  -3   3    7.49    8.37
  17  -4   0    8.61    5.37
 -17  -4   0   10.06    5.91
 -17   4   0    3.54    7.28
 -17  -4   0   -1.05    4.79
 -17   4   1  130.93   12.63
 -17  -4  -1  138.13    9.15
  17  -4   1  139.65    9.41
 -17  -4   1  124.46    8.63
 -17   4  -1  137.19   13.32
 -17  -4   1  130.43   11.01
  17  -4  -1  140.34   10.19
 -17  -4  -1  133.14    9.78
 -17  -4  -2   50.30    8.02
 -17   4  -2   59.78   11.05
 -17  -4   2   62.30    9.51
  17  -4  -2   48.75    8.38
 -17   4   2   33.56    9.22
 -17  -4   3   -1.51    8.60
 -17  -4  -3   11.08    7.95
 -17   4   3   20.24    9.03
  17  -4  -3   17.79    7.57
 -17   4  -3    6.26    9.29
 -17   5   0    0.55    7.80
 -17  -5   0   -2.56    4.76
  17  -5   0   -2.54    5.48
 -17  -5   0    0.81    6.10
  17  -5  -1    8.22    6.42
 -17  -5  -1    3.68    5.63
  17  -5   1   12.51    6.09
 -17   5  -1   -1.00    8.53
 -17  -5  -1    5.01    5.41
 -17   5   1    3.10    7.53
 -17  -5   1    7.74    6.81
 -17   5   2   90.25   11.82
 -17  -5  -2  107.11    9.96
 -17  -5   2  102.20   11.57
 -17   5  -2  100.97   13.22
  17  -5  -2   82.68   10.10
 -17  -5  -3    1.33    7.65
  17  -5  -3    4.29    7.62
 -17   5  -3    5.79    9.79
 -17  -5   3    5.03    9.13
 -17   5   3    7.85    9.02
 -17  -6   0    1.99    6.65
  17  -6   0   -4.63    6.21
 -17   6   0    8.29    8.67
 -17   6   1  110.61   12.72
 -17  -6  -1  129.91   10.30
 -17  -6   1  123.22   11.70
  17  -6  -1  113.71   10.90
 -17  -6  -1  113.03    9.40
 -17   6  -1  106.47   13.25
  17  -6   1  114.96   10.42
 -17   6   2    6.34    8.67
  17  -6  -2    5.63    7.71
 -17   6  -2    2.62    9.89
 -17  -6   2   13.74    8.57
 -17  -6  -2   10.35    7.13
  17  -7   0    6.39    7.36
 -17   7   0   -4.24    8.48
 -17  -7   0    3.23    7.25
 -17   7  -1    8.75    9.58
 -17  -7  -1    0.12    6.13
 -17  -7  -1    9.19    7.20
 -17   7   1    1.02    8.43
  17  -7   1   -3.94    7.19
 -17  -7   1    6.23    7.93
  17  -7  -1   -4.06    7.20
 -17  -7   2    8.88    8.94
 -17   7   2   22.47   10.07
 -17  -7  -2    6.29    7.24
 -17   7  -2    5.20   10.60
  17  -7  -2   20.26    9.00
  17  -8   0    2.85    7.78
 -17   8   0    9.19    9.52
 -17  -8   0   -2.69    7.79
 -17  -8   1   94.52   12.12
  17  -8  -1  126.14   13.21
 -17  -8  -1   93.73   10.76
 -18   0   0   97.20   10.01
 -18   0   1   22.14    7.27
 -18   0  -1   19.81    7.07
 -18   0   1   15.23    5.60
 -18   0   2  132.14   10.48
 -18   0   2   94.50   10.72
 -18   0  -2   89.13   10.64
 -18   0   3   21.50    8.15
 -18   0   3   16.16    7.85
 -18   0  -3   11.74    8.47
 -18  -1   0  151.09   11.32
 -18  -1   0  126.39    8.41
 -18   1   0  115.47   11.30
 -18  -1   1  100.69    9.52
 -18   1  -1   90.85   10.95
 -18  -1  -1  121.70   10.55
 -18   1   1  115.67   11.23
 -18  -1   1  116.63    9.13
 -18  -1   2   86.43    9.67
 -18   1  -2   68.78   10.18
 -18  -1   2   75.66    9.22
 -18   1   2   69.33    9.86
 -18  -1  -2   83.20   10.05
 -18  -1  -3  147.03   13.51
 -18   1  -3  164.42   14.47
 -18  -1   3  162.38   13.23
 -18   1   3  139.29   12.82
 -18  -1   3  174.29   12.68
 -18  -2   0  116.66    9.86
 -18  -2   0  118.19    8.53
 -18   2   0  110.10   11.78
  18  -2   0  119.49    8.20
 -18   2  -1   27.07    8.45
 -18  -2   1   15.22    6.06
 -18  -2  -1   27.21    6.65
 -18  -2   1   18.57    6.21
 -18   2   1   14.01    7.89
 -18   2  -2   94.61   11.75
 -18  -2  -2  105.58   10.59
 -18   2   2   88.78   10.80
 -18  -2   2   89.72   10.02
 -18  -2   2  113.18    9.64
 -18  -2   3   36.77    9.34
 -18  -2  -3   40.39    9.25
 -18   2   3   52.90    9.97
 -18   2  -3   38.56   10.24
 -18  -2   3   40.85    7.93
 -18  -3   0   13.72    5.71
  18  -3   0   35.50    6.04
 -18   3   0   16.49    8.29
 -18  -3   0   26.30    6.33
 -18   3  -1   77.10   11.08
 -18  -3   1   54.02    8.18
  18  -3  -1   64.45    8.13
 -18  -3  -1   77.40    8.41
 -18  -3   1   76.60    7.89
 -18   3   1   76.65   10.67
 -18   3  -2    3.86    8.37
 -18  -3  -2    7.59    6.78
  18  -3  -2    3.61    6.36
 -18   3   2   -4.47    7.28
 -18  -3   2    9.99    7.53
 -18  -3   2    4.89    5.57
 -18   3  -3   95.25   12.94
 -18  -3   3   77.02   11.47
 -18   3   3  117.12   12.73
  18  -3  -3   80.52    9.89
 -18  -3  -3   99.64   11.28
  18  -4   0   97.09    8.86
 -18  -4   0  111.44    8.91
 -18  -4   0  109.70    9.61
 -18   4   0  101.66   12.13
 -18   4  -1   28.18    9.52
  18  -4  -1   26.09    7.24
 -18   4   1   19.78    8.72
 -18  -4  -1   25.72    6.82
 -18  -4   1   27.04    7.41
 -18  -4   1   39.22    6.27
 -18  -4  -2   86.59    9.66
 -18  -4   2   85.51   10.81
  18  -4  -2  101.09   10.18
 -18   4  -2   72.97   12.11
 -18   4   2   76.72   11.24
  18  -4  -3   48.94    9.26
 -18   4   3   39.17   10.18
 -18  -4   3   28.07   10.01
 -18   4  -3   24.85   10.95
 -18  -4  -3   56.27    9.77
  18  -5   0   16.36    6.75
 -18  -5   0   10.19    5.44
 -18  -5   0    7.86    6.61
 -18   5   0   18.35    9.21
 -18  -5  -1   39.30    7.31
 -18  -5   1   51.54    8.85
 -18   5  -1   13.93    9.56
 -18   5   1   43.81    9.69
  18  -5  -1   44.79    8.13
  18  -5  -2    6.38    7.50
 -18   5   2    9.92    8.73
 -18   5  -2   -9.63    8.98
 -18  -5  -2    0.42    6.42
 -18  -5   2   -0.41    8.09
 -18  -5   3   61.90   11.49
 -18   5   3   60.34   11.28
 -18   5  -3   34.68   11.61
  18  -5  -3   49.86    9.66
 -18  -5  -3   51.10    9.82
  18  -6   0   65.36    9.15
 -18  -6   0   57.44    9.02
 -18   6   0   61.56   11.24
 -18  -6   1   10.13    7.85
  18  -6  -1   11.16    7.47
 -18  -6  -1    0.66    6.12
 -18   6   1    2.77    8.49
 -18   6  -1    3.38    9.11
  18  -6  -2   38.13    9.27
 -18   6  -2   55.29   12.43
 -18  -6  -2   52.88    8.59
 -18  -6   2   53.25   10.72
 -18   6   2   38.84   10.52
  18  -7   0   36.43    9.08
 -18   7   0   35.78   10.68
 -18  -7   0   43.76    9.17
 -18   7  -1   34.16   10.83
 -18  -7   1   39.31    9.52
 -18   7   1   34.71   10.36
  18  -7  -1   22.69    8.78
 -19   0   0    3.59    6.66
 -19   0   1   29.03    7.96
 -19   0  -1   26.26    8.11
 -19   0   2   23.33    8.04
 -19   0  -2   25.72    8.60
 -19   0   3   -2.14    7.35
 -19   0  -3    7.26    8.36
 -19   1   0    4.68    7.23
 -19  -1   0    0.88    4.93
 -19  -1   0   -1.56    6.18
 -19  -1   1  113.78    9.27
 -19   1  -1  111.89   11.79
 -19   1   1   84.25   10.75
 -19  -1  -1   94.27   10.24
 -19  -1   1  103.90    9.97
 -19  -1   2  135.42   11.31
 -19   1  -2  142.00   13.40
 -19  -1  -2  146.42   12.59
 -19   1   2  164.65   13.58
 -19  -1   2  112.95   10.98
 -19  -1   3   -3.45    7.92
 -19  -1  -3    0.72    8.14
 -19  -1   3   -7.06    6.82
 -19   1   3    5.07    7.84
 -19   1  -3    7.30    8.79
 -19   2   0    1.88    7.66
 -19  -2   0   -5.88    5.49
  19  -2   0    0.94    4.79
 -19  -2   0    2.54    5.13
 -19   2   1  160.96   13.86
 -19   2  -1  163.79   14.33
 -19  -2  -1  189.49   12.81
 -19  -2   1  170.05   11.26
 -19  -2   1  187.55   11.93
  19  -2  -1  168.03   10.62
 -19   2  -2   28.16    9.48
 -19  -2   2   22.67    6.87
 -19  -2   2   14.22    7.61
 -19   2   2   33.12    9.30
 -19  -2  -2   35.80    8.42
 -19  -2   3   -1.48    7.99
 -19   2  -3    1.59    9.09
 -19   2   3    1.27    8.01
 -19  -2  -3   -2.86    7.51
 -19   3   0  -10.64    7.43
 -19  -3   0   -5.59    5.37
 -19  -3   0    2.24    5.79
  19  -3   0   -3.62    4.89
 -19  -3   1  194.11   12.01
  19  -3  -1  206.55   12.27
 -19   3   1  207.12   15.28
 -19   3  -1  211.34   15.88
 -19  -3   1  236.78   13.19
 -19  -3  -1  211.99   12.96
 -19   3   2   30.38    9.48
 -19   3  -2   29.77   10.45
  19  -3  -2   33.16    7.58
 -19  -3   2   42.11    6.96
 -19  -3   2   31.93    9.01
 -19  -3  -2   38.44    8.44
 -19  -3  -3    6.07    7.91
 -19   3  -3    9.55    9.84
  19  -3  -3   -5.36    6.51
 -19  -3   3   -5.89    8.36
 -19   3   3   -7.12    8.10
 -19   4   0   -1.87    8.12
 -19  -4   0   -0.64    6.08
  19  -4   0    7.38    5.89
 -19  -4   0    1.46    5.54
 -19  -4   1  270.71   15.49
 -19  -4   1  296.01   14.21
 -19   4   1  341.11   18.86
 -19  -4  -1  307.07   15.72
 -19   4  -1  264.19   18.78
  19  -4  -1  291.10   15.50
  19  -4  -2   17.51    7.65
 -19  -4   2   17.53    8.57
 -19   4  -2   17.25   10.52
 -19  -4  -2   32.24    8.15
 -19   4   2   20.80    9.28
 -19  -4  -3    6.94    8.15
 -19   4  -3  -14.46    9.37
  19  -4  -3   -2.88    7.38
 -19  -4   3   -2.21    9.06
 -19   4   3  -16.23    7.73
 -19   5   0    0.57    8.66
  19  -5   0    3.68    6.38
 -19  -5   0   -1.96    5.58
 -19  -5   0   -1.35    6.43
  19  -5  -1  100.36   10.34
 -19   5   1  111.68   13.07
 -19  -5  -1   94.66    9.14
 -19  -5   1   87.69   10.49
 -19   5  -1   85.07   12.80
 -19  -5  -2   11.80    7.18
 -19   5   2   20.74    9.83
 -19  -5   2   22.02    9.46
 -19   5  -2   10.05   10.72
  19  -5  -2   21.46    8.24
  19  -6   0    8.26    7.09
 -19  -6   0    3.04    7.06
 -19   6   0   -9.49    8.21
 -19  -6   1   63.92   10.27
 -19   6   1   54.44   11.20
 -19   6  -1   42.29   11.40
 -19  -6  -1   56.19    7.93
  19  -6  -1   50.17    9.29
 -19  -6   2    5.18    9.17
 -19   6   2   29.78   10.42
  19  -6  -2   21.10    8.76
 -19   6  -2   14.12   11.12
 -19  -6  -2   23.65    8.21
 -19  -7   0   -2.08    7.62
 -19   7   0   -2.73    9.24
  19  -7   0    2.80    7.83
 -19  -7   1   12.50    8.87
  19  -7  -1    9.69    8.39
 -20   0   0  326.10   18.17
 -20   0   1   34.80    8.53
 -20   0  -1   61.18    9.85
 -20   0  -2   72.29   11.17
 -20   0   2  124.76   12.28
 -20   0   3  129.54   12.46
 -20   0  -3  138.09   14.13
 -20  -1   0   84.46    9.88
  20  -1   0   72.40    7.04
 -20  -1   0   74.91    7.58
 -20   1   0   79.32   10.80
 -20  -1   1    4.23    6.56
 -20  -1   1    5.46    6.50
 -20  -1  -1    7.46    7.27
 -20   1  -1    0.08    7.89
 -20   1   1    8.80    8.12
 -20   1  -2   33.66   10.18
 -20  -1   2   16.09    7.52
 -20   1   2   28.60    8.98
 -20  -1  -2   22.37    8.56
 -20  -1   2   41.60    8.85
 -20  -1   3   66.09   10.69
 -20   1   3   54.00   10.39
 -20  -1   3   47.39    9.41
 -20  -1  -3   48.74   10.68
 -20   1  -3   45.85   11.14
 -20   2   0   91.91   11.94
 -20  -2   0  121.80    9.06
 -20  -2   0  103.94   10.37
  20  -2   0   99.08    8.40
 -20   2  -1   13.41    9.04
 -20  -2   1   22.58    7.24
 -20   2   1   19.70    9.03
 -20  -2  -1   23.18    7.86
 -20  -2   1   16.87    6.64
  20  -2  -1   14.51    6.27
 -20  -2   2   48.08    8.35
 -20  -2   2   47.00    8.95
 -20  -2  -2   61.88    9.76
 -20   2   2   40.81    9.99
 -20   2  -2   31.98   10.55
 -20  -2  -3   56.05   10.70
 -20   2  -3   50.35   12.02
 -20  -2   3   42.21   10.29
 -20   2   3   43.82   10.42
 -20  -3   0  129.47   10.06
  20  -3   0  141.52    9.90
 -20   3   0  121.70   13.42
 -20  -3   0  145.04   11.31
 -20  -3   1    9.31    7.24
  20  -3  -1   13.68    6.71
 -20   3  -1    4.27    8.79
 -20  -3   1    1.92    5.93
 -20   3   1    7.19    8.66
 -20  -3  -1   13.60    6.80
 -20   3   2   63.02   11.19
 -20  -3   2   57.35    9.89
 -20  -3  -2   58.99    9.60
 -20   3  -2   46.70   11.45
  20  -3  -2   60.36    9.02
  20  -3  -3   27.57    8.15
 -20   3  -3   37.62   11.69
 -20  -3   3   32.76   10.27
 -20   3   3   40.75   10.68
 -20  -3  -3   27.72    9.40
 -20   4   0    0.43    8.80
 -20  -4   0    6.50    6.80
  20  -4   0   17.87    6.65
 -20  -4   0    8.88    6.37
 -20   4  -1   -0.10    8.94
  20  -4  -1    3.44    6.82
 -20  -4   1    0.60    5.68
 -20   4   1    9.48    9.13
 -20  -4  -1   14.49    7.16
 -20  -4   1   10.74    7.70
 -20  -4   2   18.62    9.26
 -20   4  -2   26.95   11.12
 -20  -4  -2   22.48    8.08
  20  -4  -2   21.92    8.34
 -20   4   2   32.02   10.29
  20  -5   0  121.11   10.84
 -20  -5   0  117.34    9.87
 -20   5   0   60.94   11.91
 -20  -5   0   88.39   10.03
 -20  -5   1    2.55    7.83
 -20   5   1    0.71    9.02
 -20   5  -1    1.21    9.31
  20  -5  -1    6.18    7.08
 -20  -5  -1   -0.26    6.59
  20  -5  -2   60.89   10.36
 -20   5   2   49.00   11.20
 -20  -5  -2   36.88    8.58
 -20   5  -2   12.11   10.90
 -20  -5   2   26.32    9.96
 -20   6   0   91.15   13.04
 -20  -6   0   51.07    9.35
  20  -6   0   65.43    9.98
 -20   6   1    4.20    9.50
  20  -6  -1    5.99    7.72
 -20  -6  -1    8.64    7.16
 -20   6  -1   -6.23    9.45
 -20  -6   1   -3.96    7.96
 -21   0   0    7.85    7.57
 -21   0   1   62.86    9.91
 -21   0  -1   40.12    9.84
 -21   0   2   45.82    9.80
 -21   0  -2   68.94   11.22
 -21   0  -3   -0.13    9.10
 -21   0   3    3.15    8.56
  21  -1   0    0.54    5.08
 -21   1   0    0.06    7.93
 -21  -1   0   -4.68    6.76
 -21  -1  -1  168.52   13.49
 -21  -1   1  135.25   11.22
 -21   1  -1  148.91   14.12
 -21   1   1  141.03   13.55
 -21  -1   1  154.93   12.73
 -21  -1   2    7.02    7.62
 -21  -1  -2   -1.73    7.95
 -21   1  -2    3.95    9.00
 -21   1   2   17.42    9.35
 -21  -1   2    8.67    7.64
 -21  -1  -3   -6.18    8.92
 -21  -1   3   10.40    8.49
 -21   1   3    6.21    8.94
 -21  -1   3   -1.55    8.56
 -21   1  -3   -3.30    9.21
  21  -2   0   -0.50    5.24
 -21  -2   0   -1.06    6.73
 -21  -2   0    2.42    5.85
 -21   2   0   -3.43    8.25
  21  -2  -1   41.38    7.54
 -21  -2   1   43.97    8.18
 -21   2   1   57.10   10.83
 -21  -2   1   47.65    8.24
 -21  -2  -1   51.84    9.16
 -21   2  -1   62.46   11.56
 -21  -2   2   85.78   10.13
 -21   2   2   91.81   12.30
 -21  -2  -2   95.51   11.46
 -21   2  -2   80.66   12.97
 -21  -2   2   84.15   11.04
  21  -3   0    7.09    5.81
 -21   3   0   -8.40    8.53
 -21  -3   0    1.25    6.14
 -21  -3   0    1.27    6.37
  21  -3  -1   54.58    8.47
 -21   3   1   35.13   10.48
 -21  -3   1   73.65    9.06
 -21   3  -1   64.01   12.06
 -21  -3  -1   69.21    9.81
 -21  -3   1   67.58    9.20
 -21  -3  -2   49.38    9.57
 -21  -3   2   29.50    9.11
 -21   3   2   44.95   10.95
 -21   3  -2   38.42   11.66
  21  -3  -2   31.64    8.08
 -21  -4   0   -1.71    6.46
  21  -4   0   -2.72    6.32
 -21   4   0    1.55    9.18
 -21  -4   0  -13.99    6.26
  21  -4  -1   41.90    8.68
 -21   4   1   23.16   10.26
 -21  -4  -1   37.66    8.56
 -21  -4   1   57.74    9.75
 -21   4  -1   38.46   11.28
  21  -4  -2   54.38    9.63
 -21  -4   2   61.99   10.94
 -21   4  -2   75.95   13.67
 -21  -4  -2   59.43    9.84
 -21   4   2   80.65   12.36
 -21  -5   0   -6.21    6.82
 -21   5   0   15.27   10.25
 -21  -5   0    5.89    6.77
 -21  -5  -1   48.48    9.02
 -21   5  -1   56.52   12.27
  21  -5  -1   71.48   10.11
 -21   5   1   69.73   12.48
 -21  -5   1   56.80   10.05
 -22   0   0   47.23    9.95
 -22   0  -1    5.24    8.48
 -22   0   1   11.82    8.61
 -22   0   2   35.21    9.97
 -22   0  -2   50.75   11.35
 -22  -1   0  214.79   15.01
 -22   1   0  229.54   16.45
 -22  -1  -1    1.21    7.96
 -22  -1   1    6.81    6.81
 -22   1   1    8.12    8.92
 -22   1  -1    0.87    8.85
 -22  -1   1   -4.87    7.29
 -22  -1  -2   25.52    9.70
 -22  -1   2   36.36    9.55
 -22  -1   2   46.91    9.68
 -22   1   2   33.91   10.23
 -22   1  -2   36.70   11.13
 -22  -2   0   26.48    8.39
 -22   2   0   11.54    9.52
  22  -2  -1    4.39    6.27
 -22   2  -1   -4.99    9.13
 -22  -2   1    9.40    7.20
 -22  -2   1    7.78    7.63
 -22   2   1    6.08    9.28
 -22  -2  -1    0.44    7.56
 -22  -2  -2   16.25    8.97
 -22   2  -2   16.13   10.46
 -22   2   2   10.69    9.69
 -22  -2   2   10.22    8.41
 -22  -2   2   11.67    7.75
 -22  -3   0  225.81   14.57
 -22  -3   1   -2.63    7.62
 -22   3   1    3.81    9.12
  22  -3  -1    1.73    7.03
 -22   3  -1   -0.15    9.26
 -22  -3   1    6.18    6.90
 -22  -3  -1   11.59    8.04
 -22  -3   2   29.87    9.31
 -22   3  -2   21.01   11.73
  22  -3  -2   24.33    8.44
 -22   3   2   39.17   11.26
 -22  -3  -2   24.84    9.21
 -22  -4   0    6.84    7.11
 -22   4   0    1.35    9.55
  22  -4  -1   19.91    7.89
 -22  -4   1    9.12    8.10
 -22  -4  -1   10.26    7.90
 -22   4  -1   -0.75   10.10
 -22   4   1    2.22    9.62
 -22   5   0  101.65   14.16
 -23   0   0   -8.09    8.21
 -23   0  -1    2.50    9.23
 -23   0   1   -0.57    8.68
 -23   0   2   93.69   12.51
 -23   0  -2   72.39   12.88
 -23  -1   0    5.81    8.15
 -23   1   0    3.78    8.70
 -23   1   1  116.72   13.56
 -23  -1  -1  174.22   15.04
 -23   1  -1  170.15   15.73
 -23  -1   1  145.27   13.55
 -23   1  -2    4.15   10.07
 -23  -1  -2   10.21    9.58
 -23   1   2    5.12    9.51
 -23  -1   2    3.83    8.43
 -23  -2   0   10.84    8.00
 -23   2   0    1.34    9.18
 -23  -2  -1    1.26    8.45
 -23   2  -1  -13.64    9.17
 -23  -2   1   -5.44    7.61
 -23  -2   1   -9.14    6.99
 -23   2   1   13.39    9.94
  23  -2  -1    2.23    6.70
 -23  -3   0   -3.68    7.20
 -23   3   0   -8.71    9.11
 -23   3  -1   10.78   11.03
 -23  -3  -1   40.64    9.30
 -23  -3   1   24.31    8.41
  23  -3  -1   13.12    7.72
 -23   3   1   40.61   11.38
 -23  -3   1   23.27    8.13
 -23   4   0    0.48    9.94
 -23  -4   0    4.80    7.11
 -24   0   0   49.67   11.13
 -24   0   1   25.62   10.26
 -24   0  -1   25.83   10.62
 -24  -1   0   77.61   12.14
 -24   1   0   92.59   13.55
 -24   1  -1    9.17   10.38
 -24  -1  -1   -1.05    8.96
 -24  -1   1    8.51    8.75
 -24   1   1   13.40    9.90
 -24   2   0   10.05    9.99
 -24  -2   0   12.82    8.80
 -24  -2   1    9.46    8.56
  24  -2  -1   37.61    8.29
   0   0   0    0.00    0.00
;
_shelx_hkl_checksum              25104
loop_
_space_group_symop_operation_xyz
'x, y, z'
'-x+1/2, -y, z+1/2'
'-x, y+1/2, -z'
'x+1/2, -y+1/2, -z+1/2'
'-x, -y, -z'
'x-1/2, y, -z-1/2'
'x, -y-1/2, z'
'-x-1/2, y-1/2, z-1/2'
loop_
_atom_site_label
_atom_site_type_symbol
_atom_site_fract_x
_atom_site_fract_y
_atom_site_fract_z
_atom_site_U_iso_or_equiv
_atom_site_adp_type
_atom_site_occupancy
_atom_site_site_symmetry_order
_atom_site_calc_flag
_atom_site_refinement_flags_posn
_atom_site_refinement_flags_adp
_atom_site_refinement_flags_occupancy
BR1 Br 0.46835(2) 0.750000 0.06586(9) 0.04100(16) Uani 1 2 d S T P
F1 F 0.78715(8) 0.63176(18) 0.5645(4) 0.0469(4) Uani 1 1 d . . .
F2 F 0.83223(12) 0.750000 0.9185(5) 0.0455(6) Uani 1 2 d S T P
C1 C 0.54545(17) 0.750000 0.3091(8) 0.0306(9) Uani 1 2 d S T P
C2 C 0.57208(14) 0.6168(3) 0.4006(6) 0.0312(6) Uani 1 1 d . . .
H2 H 0.5551(13) 0.528(3) 0.334(6) 0.037 Uiso 1 1 d . U .
C3 C 0.62661(13) 0.6180(3) 0.5906(5) 0.0298(6) Uani 1 1 d . . .
H3 H 0.645353 0.526985 0.654996 0.036 Uiso 1 1 calc R U .
C4 C 0.65396(17) 0.750000 0.6874(8) 0.0271(8) Uani 1 2 d S T P
C5 C 0.71307(19) 0.750000 0.8898(8) 0.0296(9) Uani 1 2 d S T P
H5A H 0.7138(13) 0.670(3) 1.021(5) 0.036 Uiso 1 1 d . U .
C6 C 0.77930(19) 0.750000 0.7350(8) 0.0323(9) Uani 1 2 d S T P
loop_
_atom_site_aniso_label
_atom_site_aniso_U_11
_atom_site_aniso_U_22
_atom_site_aniso_U_33
_atom_site_aniso_U_23
_atom_site_aniso_U_13
_atom_site_aniso_U_12
BR1 0.0313(2) 0.0518(3) 0.0399(3) 0.000 -0.0030(2) 0.000
F1 0.0438(10) 0.0456(10) 0.0511(10) -0.0185(8) 0.0015(8) 0.0080(8)
F2 0.0365(13) 0.0537(15) 0.0462(14) 0.000 -0.0120(12) 0.000
C1 0.024(2) 0.041(2) 0.0271(18) 0.000 0.0078(16) 0.000
C2 0.0319(15) 0.0273(15) 0.0345(16) -0.0038(12) 0.0067(13) -0.0058(11)
C3 0.0325(15) 0.0242(14) 0.0327(15) 0.0037(11) 0.0054(12) 0.0006(11)
C4 0.029(2) 0.031(2) 0.0213(17) 0.000 0.0052(17) 0.000
C5 0.034(2) 0.032(2) 0.022(2) 0.000 -0.0001(16) 0.000
C6 0.036(2) 0.029(2) 0.032(2) 0.000 -0.0001(18) 0.000
loop_
_atom_type_symbol
_atom_type_description
_atom_type_scat_dispersion_real
_atom_type_scat_dispersion_imag
_atom_type_scat_source
C C 0.0033 0.0016 'International Tables Vol C Tables 4.2.6.8 and 6.1.1.4'
H H 0.0000 0.0000 'International Tables Vol C Tables 4.2.6.8 and 6.1.1.4'
F F 0.0171 0.0103 'International Tables Vol C Tables 4.2.6.8 and 6.1.1.4'
Br Br -0.2901 2.4595 'International Tables Vol C Tables 4.2.6.8 and 6.1.1.4'
loop_
_geom_angle_atom_site_label_1
_geom_angle_atom_site_label_2
_geom_angle_atom_site_label_3
_geom_angle
_geom_angle_site_symmetry_1
_geom_angle_site_symmetry_3
C2 C1 C2 121.5(4) 7_575 .
C2 C1 BR1 119.24(18) 7_575 .
C2 C1 BR1 119.24(18) . .
C1 C2 C3 118.8(3) . .
C4 C3 C2 120.9(2) . .
C3 C4 C3 119.1(3) 7_575 .
C3 C4 C5 120.44(17) 7_575 .
C3 C4 C5 120.44(17) . .
C6 C5 C4 112.7(3) . .
F1 C6 F1 106.2(3) . 7_575
F1 C6 F2 106.3(2) . .
F1 C6 F2 106.3(2) 7_575 .
F1 C6 C5 112.6(2) . .
F1 C6 C5 112.6(2) 7_575 .
F2 C6 C5 112.3(3) . .
loop_
_geom_bond_atom_site_label_1
_geom_bond_atom_site_label_2
_geom_bond_distance
_geom_bond_site_symmetry_2
BR1 C1 1.894(4) .
F1 C6 1.337(3) .
F2 C6 1.347(4) .
C1 C2 1.381(3) 7_575
C1 C2 1.381(3) .
C2 C3 1.390(4) .
C3 C4 1.384(3) .
C4 C3 1.384(3) 7_575
C4 C5 1.497(5) .
C5 C6 1.492(5) .
C6 F1 1.337(3) 7_575
