#------------------------------------------------------------------------------
#$Date: 2019-11-24 01:18:38 +0200 (Sun, 24 Nov 2019) $
#$Revision: 235952 $
#$URL: file:///home/coder/svn-repositories/cod/cif/4/03/73/4037323.cif $
#------------------------------------------------------------------------------
#
# This file is available in the Crystallography Open Database (COD),
# http://www.crystallography.net/
#
# All data on this site have been placed in the public domain by the
# contributors.
#
data_4037323
loop_
_publ_author_name
'Rycek, Lukas'
'Hayward, John J.'
'Latif, Marwa Abdel'
'Tanko, James'
'Simionescu, Razvan'
'Hudlicky, Tomas'
_publ_section_title
;
 Chemoenzymatic Total Synthesis of Hydromorphone by an Oxidative
 Dearomatization/Intramolecular [4 + 2] Cycloaddition Sequence: A
 Second-Generation Approach.
;
_journal_issue                   22
_journal_name_full               'The Journal of organic chemistry'
_journal_page_first              10930
_journal_page_last               10941
_journal_paper_doi               10.1021/acs.joc.6b01990
_journal_volume                  81
_journal_year                    2016
_chemical_formula_moiety         'C15 H20 O3'
_chemical_formula_sum            'C15 H20 O3'
_chemical_formula_weight         248.31
_space_group_crystal_system      triclinic
_space_group_IT_number           2
_space_group_name_Hall           '-P 1'
_space_group_name_H-M_alt        'P -1'
_atom_sites_solution_hydrogens   difmap
_audit_creation_method           SHELXL-2014/6
_cell_angle_alpha                94.6390(10)
_cell_angle_beta                 90.5730(10)
_cell_angle_gamma                99.5660(10)
_cell_formula_units_Z            2
_cell_length_a                   6.7727(2)
_cell_length_b                   8.6658(3)
_cell_length_c                   10.6659(3)
_cell_measurement_reflns_used    6434
_cell_measurement_temperature    173(2)
_cell_measurement_theta_max      71.73
_cell_measurement_theta_min      4.16
_cell_volume                     615.09(3)
_computing_cell_refinement       'Bruker SAINT'
_computing_data_collection       'Bruker APEX2'
_computing_data_reduction        'Bruker SAINT'
_computing_molecular_graphics    'Bruker SHELXTL'
_computing_publication_material  'Bruker SHELXTL'
_computing_structure_refinement  'SHELXL-2014/6 (Sheldrick, 2014)'
_computing_structure_solution    'SHELXS-97 (Sheldrick 2008)'
_diffrn_ambient_temperature      173(2)
_diffrn_measured_fraction_theta_full 0.973
_diffrn_measured_fraction_theta_max 0.949
_diffrn_measurement_device_type  'Bruker APEX-II CCD'
_diffrn_measurement_method       '\f and \w scans'
_diffrn_radiation_type           CuK\a
_diffrn_radiation_wavelength     1.54178
_diffrn_reflns_av_R_equivalents  0.0318
_diffrn_reflns_av_unetI/netI     0.0296
_diffrn_reflns_Laue_measured_fraction_full 0.973
_diffrn_reflns_Laue_measured_fraction_max 0.949
_diffrn_reflns_limit_h_max       8
_diffrn_reflns_limit_h_min       -8
_diffrn_reflns_limit_k_max       10
_diffrn_reflns_limit_k_min       -10
_diffrn_reflns_limit_l_max       13
_diffrn_reflns_limit_l_min       -12
_diffrn_reflns_number            6655
_diffrn_reflns_point_group_measured_fraction_full 0.973
_diffrn_reflns_point_group_measured_fraction_max 0.949
_diffrn_reflns_theta_full        67.679
_diffrn_reflns_theta_max         71.719
_diffrn_reflns_theta_min         4.160
_exptl_absorpt_coefficient_mu    0.739
_exptl_absorpt_correction_T_max  0.8532
_exptl_absorpt_correction_T_min  0.7532
_exptl_absorpt_correction_type   numerical
_exptl_absorpt_process_details   SADABS
_exptl_crystal_colour            colourless
_exptl_crystal_density_diffrn    1.341
_exptl_crystal_description       block
_exptl_crystal_F_000             268
_exptl_crystal_size_max          0.442
_exptl_crystal_size_mid          0.407
_exptl_crystal_size_min          0.379
_refine_diff_density_max         0.274
_refine_diff_density_min         -0.283
_refine_diff_density_rms         0.063
_refine_ls_extinction_method     none
_refine_ls_goodness_of_fit_ref   1.070
_refine_ls_hydrogen_treatment    refxyz
_refine_ls_matrix_type           full
_refine_ls_number_parameters     223
_refine_ls_number_reflns         2294
_refine_ls_number_restraints     0
_refine_ls_restrained_S_all      1.070
_refine_ls_R_factor_all          0.0403
_refine_ls_R_factor_gt           0.0401
_refine_ls_shift/su_max          0.000
_refine_ls_shift/su_mean         0.000
_refine_ls_structure_factor_coef Fsqd
_refine_ls_weighting_details
'w=1/[\s^2^(Fo^2^)+(0.0587P)^2^+0.1914P] where P=(Fo^2^+2Fc^2^)/3'
_refine_ls_weighting_scheme      calc
_refine_ls_wR_factor_gt          0.1049
_refine_ls_wR_factor_ref         0.1052
_reflns_Friedel_coverage         0.000
_reflns_number_gt                2267
_reflns_number_total             2294
_reflns_threshold_expression     'I > 2\s(I)'
_cod_data_source_file            jo6b01990_si_002.cif
_cod_data_source_block           lrk_main_0m_a
_cod_database_code               4037323
_shelx_space_group_comment
; 
The symmetry employed for this shelxl refinement is uniquely defined 
by the following loop, which should always be used as a source of 
symmetry information in preference to the above space-group names. 
They are only intended as comments. 
;
_shelx_estimated_absorpt_t_min   0.736
_shelx_estimated_absorpt_t_max   0.767
_shelxl_version_number           2014/6
_shelx_res_file
; 
TITL LRK_main_0m_a.res in P-1 
REM Old TITL LRK_main_0m in P-1 
  
REM SHELXT solution in P-1 
REM R1 0.115,  Rweak 0.007,  Alpha 0.034,  Orientation as input 
REM Formula found by SHELXT:  C15 O3 
  
CELL  1.54178   6.7727   8.6658  10.6659   94.639   90.573   99.566 
ZERR    2.000   0.0002   0.0003   0.0003    0.001    0.001    0.001 
LATT  1 
SFAC C H O 
UNIT 30 40 6 
TEMP -100.000 
SIZE 0.379 0.407 0.442 
L.S. 10 
BOND $H 
LIST 4 
FMAP 2 
PLAN 5 
REM Instructions for potential hydrogen bonds 
EQIV $1 -x+1, -y+1, -z+1 
HTAB O1 O3_$1 
EQIV $2 -x, -y+1, -z+1 
HTAB C15 O1_$2 
acta 
conf 
htab 
WGHT    0.058700    0.191400 
FVAR       1.27606 
O2    3    0.244032    0.568726    0.273626    11.00000    0.02415    0.02151 = 
         0.02895    0.00285   -0.00189   -0.00126 
O3    3    0.573608    0.591588    0.352365    11.00000    0.02078    0.02621 = 
         0.02706    0.01039    0.00610    0.00746 
O1    3    0.256284    0.640216    0.545761    11.00000    0.03054    0.03456 = 
         0.03020    0.01367    0.01162    0.00946 
H1A   2    0.334814    0.581421    0.566404    11.00000   -1.20000 
C1    1    0.252729    0.967537    0.355716    11.00000    0.02547    0.02458 = 
         0.02718   -0.00011    0.00053    0.00891 
H1B   2    0.174961    1.052108    0.350789    11.00000   -1.20000 
C2    1    0.216698    0.866239    0.443511    11.00000    0.02336    0.02746 = 
         0.02570   -0.00092    0.00459    0.00528 
H2A   2    0.107462    0.866676    0.503470    11.00000   -1.20000 
C3    1    0.350964    0.747074    0.462901    11.00000    0.02136    0.02618 = 
         0.02065    0.00403    0.00311    0.00234 
H3A   2    0.476661    0.805083    0.500954    11.00000   -1.20000 
C4    1    0.405763    0.671349    0.335050    11.00000    0.01698    0.02112 = 
         0.02365    0.00361    0.00068    0.00385 
C5    1    0.735458    0.647866    0.268442    11.00000    0.01821    0.02617 = 
         0.02499    0.00836    0.00402    0.00520 
H5A   2    0.860606    0.641738    0.314377    11.00000   -1.20000 
C6    1    0.720533    0.550079    0.142331    11.00000    0.03065    0.02376 = 
         0.02966    0.00445    0.00560    0.00904 
  
H6B   2    0.581745    0.528127    0.111648    11.00000   -1.20000 
H6A   2    0.765527    0.447705    0.152770    11.00000   -1.20000 
C7    1    0.846335    0.640399    0.044571    11.00000    0.03630    0.03192 = 
         0.02757    0.00522    0.01001    0.01324 
H7B   2    0.984530    0.662187    0.073366    11.00000   -1.20000 
H7A   2    0.839927    0.576804   -0.035555    11.00000   -1.20000 
C8    1    0.775450    0.795618    0.026099    11.00000    0.03112    0.02993 = 
         0.02341    0.00771    0.00745    0.00887 
H8B   2    0.630431    0.773256   -0.003479    11.00000   -1.20000 
H8A   2    0.851515    0.846938   -0.040564    11.00000   -1.20000 
C9    1    0.711776    1.058304    0.139767    11.00000    0.03262    0.02303 = 
         0.03257    0.00828    0.00657    0.00279 
H9B   2    0.813930    1.148262    0.170872    11.00000   -1.20000 
H9A   2    0.683788    1.070339    0.050007    11.00000   -1.20000 
C10   1    0.526696    1.074075    0.214890    11.00000    0.03130    0.02207 = 
         0.02455    0.00232   -0.00030    0.00724 
H10A  2    0.494501    1.177997    0.229343    11.00000   -1.20000 
C11   1    0.416963    0.955844    0.269078    11.00000    0.02343    0.02320 = 
         0.02065    0.00179   -0.00203    0.00631 
C12   1    0.478448    0.797522    0.246861    11.00000    0.01881    0.02090 = 
         0.01838    0.00217    0.00061    0.00371 
H12A  2    0.428205    0.752286    0.162865    11.00000   -1.20000 
C13   1    0.706095    0.816176    0.256945    11.00000    0.01858    0.02278 = 
         0.02071    0.00333    0.00065    0.00258 
H13A  2    0.748638    0.876023    0.339848    11.00000   -1.20000 
C14   1    0.800041    0.903818    0.148007    11.00000    0.02106    0.02519 = 
         0.02535    0.00717    0.00351    0.00238 
H14A  2    0.947596    0.935148    0.164274    11.00000   -1.20000 
C15   1    0.187127    0.417471    0.319652    11.00000    0.03024    0.02243 = 
         0.03751    0.00352    0.00461   -0.00194 
H15A  2    0.120924    0.351704    0.253267    11.00000   -1.50000 
H15B  2    0.096861    0.417959    0.383026    11.00000   -1.50000 
H15C  2    0.297631    0.376065    0.356967    11.00000   -1.50000 
HKLF 4 
  
REM  LRK_main_0m_a.res in P-1 
REM R1 =  0.0401 for    2267 Fo > 4sig(Fo)  and  0.0403 for all    2294 data 
REM    223 parameters refined using      0 restraints 
  
END 
  
WGHT      0.0569      0.1965 
  
REM Instructions for potential hydrogen bonds 
HTAB O1 O3_$1 
HTAB C15 O1_$2 
  
REM Highest difference peak  0.274,  deepest hole -0.283,  1-sigma level  0.063 
Q1    1   0.0273  0.3818  0.2986  11.00000  0.05    0.27 
Q2    1   0.7372  0.7354  0.2607  11.00000  0.05    0.25 
Q3    1   0.3823  0.7140  0.4046  11.00000  0.05    0.21 
Q4    1   0.2447  0.3333  0.2586  11.00000  0.05    0.19 
Q5    1   0.4422  0.8732  0.2657  11.00000  0.05    0.19 
;
_shelx_res_checksum              28462
_shelx_hkl_file
; 
  -1   0   0 3119.19  127.99 
  -1   0   0 3318.17  133.99 
   1   0   0 3138.79  131.39 
  -2   0   0 6348.17  256.17 
  -2   0   0 5990.40  241.58 
   2   0   0 5800.92  249.48 
  -3   0   0  439.96   24.40 
  -3   0   0  528.05   19.00 
   3   0   0  500.05   18.90 
  -4   0   0 1517.65   56.89 
   4   0   0 1457.35   56.79 
  -5   0   0   67.49    2.70 
  -5   0   0   69.39    2.70 
  -5   0   0   67.69    2.70 
  -5   0   0   66.69    3.10 
  -5   0   0   70.59    2.70 
   5   0   0   66.79    3.10 
  -6   0   0  326.97   12.10 
  -6   0   0  321.67   12.00 
  -6   0   0  315.77   12.10 
  -6   0   0  291.37   12.60 
   6   0   0  288.57   12.40 
   6   0   0  334.07   13.00 
  -7   0   0   31.40    1.30 
  -7   0   0   33.00    1.40 
  -7   0   0   30.90    1.30 
   7   0   0   30.70    1.30 
  -8   0   0    4.60    0.30 
  -8   0   0    4.60    0.20 
   8  -1   0   15.70    0.70 
  -8   1   0   16.20    0.70 
   7  -1   0   17.00    0.80 
  -7   1   0   17.70    0.80 
  -7   1   0   17.30    0.80 
  -7   1   0   16.90    0.80 
   6  -1   0   21.00    1.40 
   6  -1   0   23.40    1.10 
  -6   1   0   23.40    1.10 
  -6   1   0   27.70    1.50 
  -6   1   0   23.40    1.00 
  -6   1   0   26.50    1.10 
   5  -1   0   93.29    3.70 
   5  -1   0   96.29    4.10 
  -5   1   0   91.69    3.70 
  -5   1   0   92.29    4.10 
  -5   1   0   93.99    3.70 
  -5   1   0   92.69    3.60 
   4  -1   0   12.90    0.80 
  -4   1   0   14.60    0.90 
   3  -1   0  179.38    7.40 
  -3   1   0  205.58    7.50 
  -3   1   0  181.88    7.40 
   2  -1   0 2429.36  112.99 
  -2   1   0 2420.36  112.19 
  -2   1   0 2478.85  112.09 
   1  -1   0   10.70    0.50 
  -1   1   0    9.60    0.50 
  -1   1   0   10.40    0.50 
   0  -1   0  100.29    4.10 
   0  -1   0  109.19    4.10 
   0   1   0  106.99    4.10 
  -1  -1   0  388.26   14.30 
  -1  -1   0  320.57   14.30 
  -1  -1   0  418.46   19.10 
  -2  -1   0  157.78    6.40 
  -2  -1   0  175.58    6.60 
   2   1   0  168.58    6.50 
  -3  -1   0   21.50    1.10 
   3   1   0   21.20    1.10 
  -4  -1   0   14.70    0.70 
  -4  -1   0   14.70    1.00 
  -4  -1   0   15.70    0.70 
   4   1   0   15.40    0.90 
  -5  -1   0    0.50    0.30 
  -5  -1   0    0.50    0.10 
  -5  -1   0    0.60    0.20 
  -5  -1   0    0.70    0.10 
  -5  -1   0    0.70    0.10 
   5   1   0    0.60    0.20 
  -6  -1   0   81.29    3.30 
  -6  -1   0   85.39    3.30 
  -6  -1   0   83.89    3.30 
   6   1   0   81.89    3.30 
  -7  -1   0   91.09    3.40 
  -7  -1   0   84.99    3.40 
  -7  -1   0   79.19    3.30 
   7   1   0   85.99    3.40 
  -8   2   0   15.20    0.60 
   7  -2   0    0.20    0.10 
  -7   2   0    0.00    0.10 
  -7   2   0    0.00    0.10 
   6  -2   0    0.10    0.20 
   6  -2   0    0.20    0.10 
  -6   2   0    0.30    0.10 
  -6   2   0    0.30    0.10 
  -6   2   0    0.30    0.10 
   5  -2   0    5.10    0.30 
   5  -2   0    4.90    0.50 
  -5   2   0    5.10    0.30 
  -5   2   0    5.10    0.50 
  -5   2   0    4.80    0.30 
   4  -2   0  575.34   22.20 
  -4   2   0  579.44   22.20 
  -4   2   0  570.84   22.20 
   3  -2   0  827.62   31.30 
  -3   2   0  797.32   31.30 
  -3   2   0  824.72   31.20 
   2  -2   0  242.18    9.80 
  -2   2   0  254.57    9.90 
  -2   2   0  266.17    9.80 
   1  -2   0  130.59    6.20 
   1  -2   0  133.49    5.30 
  -1   2   0  144.19    5.40 
   0  -2   0  370.46   19.90 
   0  -2   0  401.46   14.50 
   0   2   0  360.76   14.60 
  -1  -2   0  290.87   10.80 
  -1  -2   0  285.27   10.80 
   1   2   0  263.67   10.80 
  -2  -2   0  149.59    6.60 
   2   2   0  183.68    6.50 
  -3  -2   0  249.28    9.90 
  -4  -2   0    6.60    0.40 
  -4  -2   0    6.80    0.40 
  -4  -2   0    6.80    0.40 
  -4  -2   0    7.60    0.70 
   4   2   0    7.20    0.60 
  -5  -2   0   14.10    1.10 
  -5  -2   0   15.40    0.80 
  -5  -2   0   15.40    0.70 
  -5  -2   0   17.00    0.80 
   5   2   0   15.80    1.10 
  -6  -2   0  311.57   12.10 
  -6  -2   0  312.27   12.20 
  -6  -2   0  321.67   12.20 
  -7  -2   0  150.88    5.80 
  -7  -2   0  150.18    5.80 
   7   2   0  143.99    5.70 
  -8   3   0   28.40    1.10 
   7  -3   0  386.26   15.10 
   7  -3   0  399.56   15.10 
  -7   3   0  398.76   15.10 
   6  -3   0   67.49    2.70 
  -6   3   0   67.19    2.60 
  -6   3   0   64.09    2.70 
   5  -3   0  112.29    4.40 
   5  -3   0  107.39    4.70 
  -5   3   0  114.09    4.40 
  -5   3   0  113.29    4.40 
   4  -3   0  328.37   13.40 
   4  -3   0  358.26   13.70 
  -4   3   0  371.86   13.70 
  -4   3   0  338.27   13.30 
   3  -3   0 1407.66   82.69 
  -3   3   0 1503.65   55.69 
  -3   3   0 1439.76   82.09 
   2  -3   0    8.10    0.50 
   2  -3   0    6.90    0.30 
  -2   3   0    7.90    0.60 
   1  -3   0   51.99    2.20 
  -1   3   0   51.39    2.30 
   0  -3   0  203.48    8.30 
   0  -3   0  218.48    8.40 
   0   3   0  224.18    8.50 
  -1  -3   0    4.50    0.30 
  -1  -3   0    4.80    0.40 
   1   3   0    5.00    0.40 
  -2  -3   0   13.50    0.80 
  -2  -3   0   14.70    0.80 
   2   3   0   13.50    0.70 
  -3  -3   0  231.58    9.40 
   3   3   0  240.78    9.40 
  -4  -3   0    1.20    0.20 
  -4  -3   0    1.50    0.20 
   4   3   0    1.60    0.30 
  -5  -3   0  282.37   10.40 
  -5  -3   0  265.57   10.90 
  -5  -3   0  263.07   10.40 
  -5  -3   0  275.07   10.40 
   5   3   0  257.87   10.80 
  -6  -3   0  135.59    5.30 
  -6  -3   0  138.59    5.40 
  -6  -3   0  137.29    5.40 
  -7  -3   0    0.00    0.10 
  -7  -3   0    0.20    0.10 
  -8   4   0   56.99    2.20 
   7  -4   0    2.20    0.20 
  -7   4   0    2.10    0.20 
   6  -4   0  156.58    6.00 
   6  -4   0  141.79    5.90 
  -6   4   0  160.68    5.90 
   5  -4   0  252.77    9.50 
   5  -4   0  240.38    9.90 
   5  -4   0  246.38    9.50 
  -5   4   0  248.98    9.50 
   4  -4   0   26.40    1.20 
   4  -4   0   30.40    1.50 
   4  -4   0   28.80    1.20 
  -4   4   0   29.70    1.60 
  -4   4   0   29.20    1.20 
  -4   4   0   26.40    1.10 
   3  -4   0  119.69    5.00 
  -3   4   0  126.69    5.20 
   1  -4   0 2096.59  108.49 
  -1   4   0 1982.80  115.49 
   0  -4   0 1325.17   73.99 
   0   4   0 1217.18   48.30 
  -1  -4   0  240.98    9.90 
  -1  -4   0  252.97   10.00 
   1   4   0  269.07   10.00 
  -2  -4   0   64.89    2.80 
  -2  -4   0   65.49    2.90 
  -3  -4   0  411.36   20.50 
  -3  -4   0  369.46   15.60 
  -3  -4   0  435.36   15.70 
  -3  -4   0  384.56   16.00 
   3   4   0  445.96   16.10 
  -4  -4   0   67.59    2.80 
  -4  -4   0   66.69    2.80 
  -4  -4   0   68.89    2.70 
  -4  -4   0   71.09    3.20 
   4   4   0   67.39    3.10 
  -5  -4   0    2.60    0.20 
  -5  -4   0    3.10    0.30 
  -5  -4   0    2.00    0.20 
  -6  -4   0    1.60    0.20 
  -6  -4   0    1.60    0.20 
  -6  -4   0    1.60    0.20 
  -7  -4   0   13.00    0.60 
  -7  -4   0   13.30    0.60 
   7  -5   0   20.30    0.90 
  -7   5   0   21.00    0.90 
   6  -5   0    4.80    0.30 
  -6   5   0    5.40    0.30 
   5  -5   0    6.70    0.40 
   5  -5   0    6.30    0.70 
  -5   5   0    6.40    0.30 
  -5   5   0    6.70    0.40 
   4  -5   0   15.20    1.00 
   4  -5   0   14.80    0.70 
  -4   5   0   13.60    0.60 
  -4   5   0   13.90    1.10 
   3  -5   0    8.70    0.70 
   3  -5   0    8.60    0.40 
   3  -5   0    8.40    0.40 
  -3   5   0    9.60    0.80 
   2  -5   0    1.00    0.20 
   1  -5   0  546.45   22.10 
  -1   5   0  599.74   22.40 
   0  -5   0  803.22   31.00 
   0   5   0  807.22   31.10 
  -1  -5   0   24.90    1.10 
  -1  -5   0   26.10    1.40 
   1   5   0   26.10    1.40 
  -2  -5   0  207.98    8.30 
  -2  -5   0  210.28    8.00 
  -2  -5   0  207.38    7.90 
  -2  -5   0  199.18    8.00 
  -3  -5   0   26.90    1.20 
  -3  -5   0   31.00    1.40 
  -3  -5   0   28.50    1.20 
   3   5   0   28.80    1.60 
  -4  -5   0  183.28    7.10 
  -4  -5   0  174.08    7.10 
  -4  -5   0  192.48    7.10 
  -5  -5   0    1.20    0.20 
  -5  -5   0    1.20    0.20 
  -5  -5   0    1.30    0.20 
  -6  -5   0   83.39    3.20 
  -6  -5   0   77.09    3.20 
  -6  -5   0   82.49    3.20 
   7  -6   0   21.10    0.90 
  -7   6   0   22.50    0.90 
   6  -6   0   15.20    0.70 
  -6   6   0   15.10    0.70 
   5  -6   0  157.08    5.90 
  -5   6   0  151.28    5.90 
  -5   6   0  147.69    5.90 
   4  -6   0    7.60    0.40 
   4  -6   0    6.80    0.70 
  -4   6   0    9.20    0.90 
  -4   6   0    6.70    0.50 
  -4   6   0    7.70    0.40 
   3  -6   0   17.40    0.80 
   3  -6   0   21.20    0.90 
   3  -6   0   21.90    1.20 
  -3   6   0   17.20    1.30 
   2  -6   0   87.39    3.50 
   2  -6   0   84.59    3.50 
   2  -6   0   88.39    3.80 
   2  -6   0   89.19    3.50 
  -2   6   0   92.29    4.10 
   1  -6   0   58.39    2.40 
   1  -6   0   59.69    2.40 
   1  -6   0   59.89    2.40 
   1  -6   0   60.39    2.70 
  -1   6   0   59.09    2.90 
   0  -6   0  163.68    6.40 
   0  -6   0  161.88    6.30 
   0  -6   0  166.78    6.30 
   0  -6   0  158.58    6.30 
   0  -6   0  167.58    6.70 
   0   6   0  163.58    6.90 
  -1  -6   0   20.90    1.20 
  -1  -6   0   21.20    0.90 
  -1  -6   0   22.20    1.00 
   1   6   0   19.70    1.30 
  -2  -6   0   78.19    3.10 
  -2  -6   0   78.59    3.10 
  -2  -6   0   74.49    3.50 
  -2  -6   0   78.49    3.10 
  -3  -6   0   41.30    1.60 
  -3  -6   0   36.40    1.60 
  -3  -6   0   40.10    1.60 
   3   6   0   35.20    2.00 
  -4  -6   0    3.90    0.30 
  -4  -6   0    4.70    0.30 
  -5  -6   0    0.50    0.10 
  -5  -6   0    0.40    0.10 
   6  -7   0   18.50    0.80 
   5  -7   0    5.80    0.30 
  -5   7   0    5.40    0.30 
   4  -7   0   90.79    3.60 
  -4   7   0   89.39    3.50 
   3  -7   0   45.90    1.80 
   3  -7   0   43.20    2.20 
   3  -7   0   43.20    1.80 
   3  -7   0   43.90    1.80 
  -3   7   0   40.10    2.40 
   2  -7   0    0.20    0.10 
   2  -7   0    0.50    0.10 
   2  -7   0    0.30    0.20 
   2  -7   0    0.30    0.10 
  -2   7   0    0.50    0.30 
   1  -7   0    5.80    0.30 
   1  -7   0    5.20    0.40 
   1  -7   0    6.70    0.40 
   1  -7   0    6.20    0.60 
  -1   7   0    5.20    0.70 
   0  -7   0  110.49    4.50 
   0  -7   0  120.69    4.50 
   0  -7   0  113.99    4.40 
   0  -7   0  111.49    4.90 
   0  -7   0  114.79    4.50 
   0   7   0  113.79    5.10 
  -1  -7   0  102.69    4.00 
  -1  -7   0  101.29    4.00 
  -1  -7   0   96.49    4.40 
  -2  -7   0   23.80    1.00 
  -2  -7   0   22.80    1.10 
  -2  -7   0   23.20    1.00 
  -3  -7   0   68.29    2.70 
  -3  -7   0   69.79    2.70 
  -3  -7   0   64.89    2.70 
  -4  -7   0  236.08    9.10 
  -4  -7   0  238.08    9.10 
  -5  -7   0  121.09    4.70 
   6  -8   0    0.70    0.10 
   5  -8   0   15.30    0.70 
  -5   8   0   15.80    0.70 
   4  -8   0  155.68    6.10 
  -4   8   0  157.88    6.10 
   3  -8   0  180.28    7.30 
   3  -8   0  196.88    7.30 
   2  -8   0   42.80    1.70 
   2  -8   0   39.90    1.70 
   2  -8   0   40.60    1.70 
   1  -8   0    0.30    0.10 
   1  -8   0    0.30    0.10 
   1  -8   0    0.20    0.10 
   0  -8   0  201.98    7.60 
   0  -8   0  189.78    7.50 
   0  -8   0  191.58    7.50 
  -1  -8   0  312.37   11.50 
  -1  -8   0  301.07   11.40 
  -1  -8   0  277.07   11.40 
  -2  -8   0   21.40    1.00 
  -2  -8   0   22.30    1.00 
  -2  -8   0   22.20    1.00 
  -3  -8   0   94.89    3.60 
  -3  -8   0   84.59    3.60 
  -3  -8   0   91.89    3.50 
  -4  -8   0   14.90    0.60 
   5  -9   0    1.60    0.10 
  -5   9   0    1.60    0.10 
   4  -9   0   69.39    2.70 
  -4   9   0   66.19    2.70 
   3  -9   0    2.20    0.20 
   3  -9   0    1.40    0.20 
  -3   9   0    1.90    0.20 
   2  -9   0   13.00    0.60 
   2  -9   0   12.90    0.60 
  -2   9   0   13.50    0.60 
   1  -9   0   62.39    2.50 
   1  -9   0   61.19    2.50 
  -1   9   0   64.49    2.50 
   0  -9   0   15.00    0.70 
   0  -9   0   14.40    0.70 
  -1  -9   0  168.68    6.50 
  -1  -9   0  164.78    6.50 
  -2  -9   0   45.50    1.70 
  -2  -9   0   39.20    1.70 
  -3  -9   0   36.60    1.50 
  -4  10   0    0.30    0.10 
   3 -10   0   17.00    0.70 
  -3  10   0   17.90    0.70 
   2 -10   0   89.99    3.40 
   2 -10   0   86.99    3.40 
  -2  10   0   86.99    3.40 
   1 -10   0   32.30    1.30 
   1 -10   0   32.50    1.30 
  -1  10   0   30.50    1.30 
   0 -10   0   44.80    1.80 
   0 -10   0   45.30    1.80 
  -1 -10   0   28.50    1.20 
  -1 -10   0   29.20    1.20 
  -1 -10   1   15.60    0.70 
  -1 -10   1   16.40    0.70 
   0 -10   1   20.10    0.90 
   0 -10   1   20.40    0.90 
  -1  10  -1   68.99    2.80 
   1 -10   1   74.49    2.90 
   1 -10   1   73.09    2.80 
  -2  10  -1  117.59    4.40 
   2 -10   1  115.39    4.40 
   2 -10   1  110.49    4.40 
  -3  10  -1   25.30    1.00 
   3 -10   1   26.00    1.10 
  -4  10  -1   38.40    1.50 
  -3  -9   1    1.30    0.10 
  -2  -9   1    0.20    0.10 
  -2  -9   1    0.20    0.10 
  -2  -9   1    0.30    0.10 
  -1  -9   1   49.50    2.10 
  -1  -9   1   50.79    2.00 
  -1  -9   1   50.29    2.00 
   0  -9   1    0.10    0.10 
   0  -9   1    0.40    0.10 
  -1   9  -1   33.60    1.40 
   1  -9   1   35.00    1.50 
   1  -9   1   33.80    1.40 
  -2   9  -1    6.50    0.40 
   2  -9   1    6.50    0.40 
   2  -9   1    7.40    0.40 
  -3   9  -1    7.20    0.40 
   3  -9   1    6.90    0.40 
  -4   9  -1    0.10    0.10 
   4  -9   1    0.10    0.10 
  -5   9  -1    0.30    0.10 
   5  -9   1    0.30    0.10 
  -4  -8   1    0.40    0.10 
  -4  -8   1    0.20    0.10 
  -3  -8   1   62.49    2.50 
  -3  -8   1   62.29    2.50 
  -3  -8   1   60.69    2.50 
  -2  -8   1    1.30    0.20 
  -2  -8   1    1.20    0.20 
  -2  -8   1    1.10    0.20 
  -1  -8   1  145.09    5.80 
  -1  -8   1  150.88    5.80 
  -1  -8   1  151.68    5.80 
   0   8  -1   51.89    2.20 
   0  -8   1   54.69    2.20 
   0  -8   1   55.89    2.30 
   0  -8   1   55.19    2.20 
   1  -8   1    0.10    0.10 
   1  -8   1    0.10    0.10 
  -2   8  -1   55.49    2.30 
   2  -8   1   58.39    2.30 
   2  -8   1   57.49    2.30 
  -3   8  -1   38.20    1.50 
   3  -8   1   35.50    1.50 
  -4   8  -1   90.39    3.50 
   4  -8   1   90.29    3.60 
  -5   8  -1    2.70    0.20 
   5  -8   1    2.60    0.20 
  -5  -7   1    7.80    0.40 
  -5  -7   1    8.20    0.40 
  -4  -7   1    0.30    0.10 
  -4  -7   1    0.10    0.10 
  -3  -7   1  136.59    5.30 
  -3  -7   1  133.09    5.30 
  -3  -7   1  138.29    5.30 
  -2  -7   1  173.58    6.60 
  -2  -7   1  164.08    6.60 
  -2  -7   1  168.08    6.60 
  -1  -7   1  326.67   12.70 
  -1  -7   1  315.77   13.10 
  -1  -7   1  331.67   12.60 
  -1  -7   1  340.77   12.60 
   0   7  -1  448.16   18.30 
   0  -7   1  479.35   17.80 
   0  -7   1  456.55   17.80 
   0  -7   1  449.16   18.20 
   0  -7   1  478.95   17.80 
   0  -7   1  470.85   17.70 
  -1   7  -1  128.39    5.70 
   1  -7   1  128.69    5.00 
   1  -7   1  130.29    5.00 
   1  -7   1  121.89    5.40 
   1  -7   1  133.89    5.10 
   1  -7   1  129.19    5.00 
  -2   7  -1   10.70    1.00 
   2  -7   1   10.90    0.60 
   2  -7   1   10.60    0.50 
   2  -7   1   10.70    0.80 
   2  -7   1   11.10    0.60 
  -3   7  -1  462.25   16.40 
  -3   7  -1  407.96   17.10 
   3  -7   1  429.96   16.40 
   3  -7   1  425.96   16.80 
   3  -7   1  415.06   16.40 
  -4   7  -1   49.40    2.00 
   4  -7   1   48.30    2.00 
  -5   7  -1    0.20    0.10 
   5  -7   1    0.30    0.10 
   6  -7   1    2.10    0.20 
  -6  -6   1    9.70    0.50 
  -5  -6   1    9.40    0.50 
  -5  -6   1    9.50    0.50 
  -4  -6   1  108.29    4.10 
  -4  -6   1  100.69    4.10 
   3   6  -1  279.37   11.60 
  -3  -6   1  302.97   11.20 
  -3  -6   1  279.57   11.20 
  -3  -6   1  299.47   11.20 
  -2  -6   1  220.48    8.00 
  -2  -6   1  203.38    8.00 
  -2  -6   1  196.18    8.40 
  -2  -6   1  205.18    8.00 
  -1  -6   1    8.50    0.40 
  -1  -6   1    6.50    0.40 
  -1  -6   1    7.00    0.40 
  -1  -6   1    6.60    0.60 
   0   6  -1   16.00    1.10 
   0  -6   1   15.60    0.70 
   0  -6   1   16.10    0.70 
   0  -6   1   15.70    0.70 
   0  -6   1   15.60    0.70 
   0  -6   1   16.20    1.00 
  -1   6  -1  241.98    9.50 
   1  -6   1  235.68    9.30 
   1  -6   1  249.28    8.90 
   1  -6   1  219.78    8.90 
   1  -6   1  221.88    9.00 
   1  -6   1  225.08    8.90 
  -2   6  -1  114.99    4.90 
   2  -6   1  104.99    4.30 
   2  -6   1  108.39    4.30 
   2  -6   1  110.29    4.30 
   2  -6   1  111.29    4.60 
   2  -6   1  107.19    4.30 
  -3   6  -1  314.67   12.70 
   3  -6   1  319.97   12.00 
   3  -6   1  312.47   12.40 
   3  -6   1  301.97   12.00 
   3  -6   1  310.67   12.00 
  -4   6  -1    0.10    0.20 
   4  -6   1    0.30    0.10 
   4  -6   1    0.50    0.10 
   4  -6   1    0.50    0.30 
  -5   6  -1    1.90    0.20 
  -5   6  -1    2.20    0.20 
   5  -6   1    2.10    0.20 
   5  -6   1    2.10    0.20 
  -6   6  -1   46.30    1.80 
   6  -6   1   44.80    1.80 
  -7   6  -1   70.69    2.70 
  -6  -5   1   47.30    1.80 
  -6  -5   1   44.30    1.80 
  -6  -5   1   43.80    1.80 
  -5  -5   1    7.20    0.40 
  -5  -5   1    7.40    0.40 
  -5  -5   1    6.90    0.40 
  -4  -5   1  242.48    9.10 
  -4  -5   1  233.78    9.10 
  -4  -5   1  229.48    9.10 
   3   5  -1  109.99    4.70 
  -3  -5   1  115.09    4.20 
  -3  -5   1  102.69    4.60 
  -3  -5   1  108.69    4.20 
  -3  -5   1  101.59    4.20 
  -3  -5   1  107.59    4.20 
  -2  -5   1  306.37   12.10 
  -2  -5   1  318.17   12.50 
  -2  -5   1  327.57   12.10 
  -2  -5   1  308.37   12.10 
   1   5  -1  466.75   17.20 
  -1  -5   1  432.06   25.40 
  -1  -5   1  419.36   16.90 
  -1  -5   1  447.26   17.20 
   0   5  -1  102.59    4.30 
   0  -5   1  101.09    4.20 
  -1   5  -1   74.59    3.30 
   1  -5   1   72.89    3.20 
  -2   5  -1  465.55   18.10 
   2  -5   1  456.15   17.90 
  -3   5  -1   71.39    3.30 
   3  -5   1   68.09    2.70 
   3  -5   1   64.19    2.70 
   3  -5   1   71.59    3.00 
   3  -5   1   67.49    2.70 
  -4   5  -1   81.29    3.20 
  -4   5  -1   78.69    3.80 
  -4   5  -1   82.49    3.20 
   4  -5   1   79.09    3.20 
   4  -5   1   84.09    3.20 
   4  -5   1   82.39    3.60 
  -5   5  -1   80.39    3.00 
  -5   5  -1   76.29    3.00 
   5  -5   1   78.79    3.00 
   5  -5   1   73.79    3.00 
   5  -5   1   71.69    3.40 
  -6   5  -1   75.29    2.90 
   6  -5   1   70.39    2.90 
   6  -5   1   71.69    2.90 
  -7   5  -1   54.99    2.20 
  -7  -4   1    7.20    0.30 
  -7  -4   1    6.50    0.30 
  -6  -4   1  167.28    6.70 
  -6  -4   1  179.38    6.80 
  -6  -4   1  174.98    6.80 
  -5  -4   1   38.00    1.60 
  -5  -4   1   40.00    1.60 
  -5  -4   1   36.90    1.60 
   4   4  -1  803.72   31.60 
  -4  -4   1  821.22   31.20 
  -4  -4   1  815.62   31.70 
  -4  -4   1  893.61   31.20 
  -4  -4   1  750.42   31.20 
   3   4  -1   60.09    2.70 
  -3  -4   1   56.99    2.30 
  -3  -4   1   58.99    2.70 
  -3  -4   1   55.69    2.30 
  -3  -4   1   58.39    2.30 
  -2  -4   1  317.07   12.20 
  -2  -4   1  307.77   12.30 
   1   4  -1   29.00    1.40 
  -1  -4   1   28.60    1.40 
  -1  -4   1   26.40    1.30 
   0   4  -1 1119.69   39.90 
   0  -4   1  896.51   49.30 
   0  -4   1 1104.29   65.29 
  -1   4  -1 1874.91  108.19 
   1  -4   1 1681.33   92.89 
  -2   4  -1   29.50    1.60 
   2  -4   1   31.00    1.40 
  -3   4  -1  134.99    5.60 
   3  -4   1  130.29    5.40 
  -4   4  -1  834.02   30.90 
  -4   4  -1  812.42   30.40 
  -4   4  -1  776.72   33.70 
   4  -4   1  761.92   35.10 
   4  -4   1  820.02   30.70 
   4  -4   1  777.22   30.40 
  -5   4  -1  553.54   20.80 
   5  -4   1  539.45   20.80 
   5  -4   1  539.25   21.20 
   5  -4   1  545.95   21.80 
  -6   4  -1   11.20    0.50 
   6  -4   1   11.40    0.60 
   6  -4   1   10.60    0.50 
  -7   4  -1   13.20    0.60 
   7  -4   1   12.10    0.60 
  -8   4  -1    8.20    0.40 
   7   3  -1   13.60    0.60 
  -7  -3   1   14.20    0.60 
  -7  -3   1   14.80    0.70 
  -6  -3   1  557.84   21.50 
  -6  -3   1  574.54   21.50 
  -6  -3   1  553.54   21.50 
   5   3  -1  298.67   13.00 
  -5  -3   1  324.07   12.60 
  -5  -3   1  345.27   12.60 
  -5  -3   1  312.77   13.10 
  -5  -3   1  352.16   12.60 
   4   3  -1   80.39    3.60 
  -4  -3   1   77.99    3.20 
  -4  -3   1   81.99    3.20 
  -4  -3   1   79.69    3.60 
  -4  -3   1   77.99    3.20 
   3   3  -1  114.29    4.80 
  -3  -3   1  117.69    4.90 
  -2  -3   1   -0.30    0.20 
   1   3  -1  158.98    6.80 
  -1  -3   1  187.48    6.80 
  -1  -3   1  176.78    6.90 
   0   3  -1 1100.29   64.29 
   0  -3   1  962.10   47.60 
   0  -3   1 1088.29   40.00 
  -1   3  -1   17.70    0.90 
   1  -3   1   14.90    0.80 
   1  -3   1   15.00    0.70 
  -2   3  -1 4066.09  195.78 
   2  -3   1 3985.20  166.58 
   2  -3   1 3911.71  176.28 
  -3   3  -1  951.00   65.49 
  -3   3  -1  996.00   37.40 
   3  -3   1  983.50   59.99 
  -4   3  -1  148.19    5.70 
  -4   3  -1  146.79    6.10 
  -4   3  -1  148.49    5.80 
   4  -3   1  152.38    6.00 
  -5   3  -1   58.59    2.30 
  -5   3  -1   58.29    2.30 
   5  -3   1   55.79    2.30 
   5  -3   1   54.99    2.60 
  -6   3  -1  578.14   21.50 
  -6   3  -1  570.34   21.60 
   6  -3   1  543.65   21.50 
  -7   3  -1   34.00    1.40 
   7  -3   1   33.20    1.40 
  -8   3  -1   54.69    2.10 
   7   2  -1    3.10    0.20 
  -7  -2   1    3.40    0.30 
  -7  -2   1    3.10    0.20 
  -6  -2   1  100.19    4.00 
  -6  -2   1   96.89    3.90 
  -6  -2   1  101.39    4.00 
   5   2  -1   65.79    3.10 
  -5  -2   1   68.29    2.70 
  -5  -2   1   67.49    2.70 
  -5  -2   1   63.69    3.20 
  -5  -2   1   66.59    2.70 
   4   2  -1  130.39    5.20 
  -4  -2   1  125.49    4.80 
  -4  -2   1  121.69    4.80 
  -4  -2   1  125.09    4.80 
  -4  -2   1  112.69    5.20 
   3   2  -1   30.10    1.50 
  -3  -2   1   32.60    1.60 
   2   2  -1  149.39    5.80 
  -2  -2   1  142.99    5.80 
   1   2  -1  202.48    8.30 
  -1  -2   1  222.98   14.00 
  -1  -2   1  229.08   14.60 
   0   2  -1  436.06   17.10 
   0  -2   1  434.66   17.10 
   0  -2   1  468.45   17.00 
  -1   2  -1 2724.83  123.89 
   1  -2   1 2432.46  112.89 
   1  -2   1 2672.43  110.09 
  -2   2  -1    3.50    0.30 
  -2   2  -1    3.40    0.20 
   2  -2   1    3.70    0.30 
  -3   2  -1 2298.07  111.19 
  -3   2  -1 2171.68  119.29 
   3  -2   1 2100.89  110.89 
  -4   2  -1  368.76   13.80 
  -4   2  -1  349.07   13.90 
   4  -2   1  346.57   13.80 
  -5   2  -1   70.79    3.20 
  -5   2  -1   68.79    2.80 
  -5   2  -1   70.99    2.80 
  -5   2  -1   70.99    2.80 
   5  -2   1   74.89    3.20 
   5  -2   1   70.09    2.80 
  -6   2  -1    0.10    0.10 
  -6   2  -1    0.10    0.10 
   6  -2   1    0.00    0.10 
  -7   2  -1  266.87   10.30 
  -7   2  -1  271.07   10.40 
  -8   2  -1   24.30    1.00 
   8  -2   1   24.30    1.00 
   7   1  -1   29.70    1.30 
  -7  -1   1   30.80    1.30 
  -7  -1   1   31.10    1.30 
   6   1  -1   50.19    2.00 
  -6  -1   1   49.30    2.10 
  -6  -1   1   48.00    2.00 
  -6  -1   1   50.59    2.10 
   5   1  -1   17.90    1.20 
  -5  -1   1   17.80    0.80 
  -5  -1   1   18.70    0.90 
  -5  -1   1   19.10    1.30 
  -5  -1   1   18.30    0.80 
  -5  -1   1   19.10    0.90 
   4   1  -1   10.20    0.70 
  -4  -1   1    9.60    0.50 
  -4  -1   1    9.40    0.50 
  -4  -1   1   10.30    0.60 
  -4  -1   1   10.50    0.80 
   3   1  -1  844.72   32.40 
   2   1  -1  164.78    6.70 
  -2  -1   1  178.48    6.80 
   1   1  -1 2085.89   82.89 
  -1  -1   1 1947.81   93.69 
  -1  -1   1 2144.89   94.09 
   0   1  -1 2347.57   99.09 
   0  -1   1 2412.26   97.19 
   0  -1   1 2073.69   94.29 
  -1   1  -1 5010.00  207.78 
  -1   1  -1 4946.00  199.28 
   1  -1   1 4821.22  196.78 
  -2   1  -1 1208.48   67.49 
  -2   1  -1 1294.57   65.39 
   2  -1   1 1298.27   64.29 
  -3   1  -1  864.61   33.30 
  -3   1  -1  858.11   33.30 
   3  -1   1  890.51   33.30 
  -4   1  -1   54.19    2.40 
   4  -1   1   48.70    2.30 
  -5   1  -1   17.00    1.10 
  -5   1  -1   18.30    0.80 
  -5   1  -1   17.90    0.80 
  -5   1  -1   18.20    0.80 
   5  -1   1   17.80    0.80 
   5  -1   1   17.40    1.10 
  -6   1  -1  285.07   12.50 
  -6   1  -1  330.17   12.10 
  -6   1  -1  319.37   12.00 
  -6   1  -1  316.47   12.10 
   6  -1   1  316.67   12.00 
  -7   1  -1    1.60    0.20 
  -7   1  -1    1.40    0.20 
  -8   1  -1  109.29    4.40 
   8  -1   1  117.79    4.40 
   7   0  -1    7.10    0.40 
  -7   0   1    7.20    0.40 
  -7   0   1    7.30    0.40 
  -7   0   1    6.90    0.40 
   6   0  -1  514.65   21.40 
   6   0  -1  532.15   21.20 
  -6   0   1  532.45   20.50 
  -6   0   1  545.35   20.40 
  -6   0   1  550.34   20.50 
   5   0  -1   69.99    3.20 
  -5   0   1   72.59    2.80 
  -5   0   1   67.39    2.80 
  -5   0   1   69.89    3.20 
  -5   0   1   67.99    2.70 
  -5   0   1   70.19    2.80 
   4   0  -1  313.77   12.20 
  -4   0   1  307.67   12.20 
   3   0  -1   14.40    0.80 
  -3   0   1   13.40    0.80 
   2   0  -1  106.89    4.30 
  -2   0   1  110.79    4.30 
  -2   0   1  107.79    4.20 
   1   0  -1   95.89    3.80 
   1   0  -1   94.49    3.70 
  -1   0   1   97.09    3.80 
   0   0  -1  523.35   30.10 
   0   0  -1  684.63   26.10 
   0   0   1  646.34   30.70 
  -1   0  -1 1480.05   74.49 
  -1   0  -1 1761.12   76.49 
   1   0   1 1669.03   68.99 
  -2   0  -1    1.70    0.20 
  -2   0  -1    1.00    0.20 
   2   0   1    1.30    0.20 
  -3   0  -1  509.95   26.30 
  -3   0  -1  546.85   20.20 
   3   0   1  507.85   20.00 
  -4   0  -1  202.48    7.80 
   4   0   1  185.78    7.70 
  -5   0  -1   13.20    0.90 
  -5   0  -1    9.80    0.50 
  -5   0  -1    9.90    0.60 
   5   0   1   11.40    0.80 
  -6   0  -1   12.10    0.60 
  -6   0  -1   11.90    0.60 
  -6   0  -1   11.20    0.60 
   6   0   1   10.80    0.60 
  -7   0  -1   39.50    1.60 
  -7   0  -1   40.10    1.70 
  -7   0  -1   39.40    1.70 
  -8   0  -1    4.50    0.30 
  -8   0  -1    4.80    0.30 
   8  -1  -1    0.00    0.10 
  -8   1   1    0.10    0.10 
   7  -1  -1   23.80    1.00 
  -7   1   1   23.60    1.00 
  -7   1   1   23.60    1.00 
  -7   1   1   23.60    1.00 
   6  -1  -1   86.19    3.30 
   6  -1  -1   78.59    3.80 
  -6   1   1   77.09    3.80 
  -6   1   1   88.39    3.30 
  -6   1   1   85.99    3.30 
  -6   1   1   84.09    3.30 
   5  -1  -1  108.19    4.30 
   5  -1  -1  106.99    4.70 
  -5   1   1  116.49    4.80 
  -5   1   1  113.49    4.40 
  -5   1   1  107.59    4.30 
  -5   1   1  112.09    4.30 
   4  -1  -1   14.00    0.90 
  -4   1   1   12.70    0.80 
   3  -1  -1   16.40    0.90 
  -3   1   1   15.90    0.80 
  -3   1   1   17.70    0.90 
   2  -1  -1  734.73   27.70 
  -2   1   1  715.53   27.70 
  -2   1   1  727.03   42.60 
   1  -1  -1   45.00    1.80 
  -1   1   1   41.00    1.70 
   0  -1  -1 5461.85  206.28 
   0  -1  -1 4920.11  213.28 
  -1  -1  -1 6165.48  265.87 
  -1  -1  -1 6613.04  271.27 
  -1  -1  -1 7207.28  273.57 
  -2  -1  -1   10.20    0.60 
  -2  -1  -1    9.70    0.50 
   2   1   1    9.80    0.50 
  -3  -1  -1   14.80    0.70 
  -3  -1  -1   15.00    0.90 
   3   1   1   14.50    0.80 
  -4  -1  -1  217.78    8.60 
  -4  -1  -1  214.58    8.60 
  -4  -1  -1  236.28    9.00 
  -5  -1  -1    0.30    0.30 
  -5  -1  -1    0.40    0.10 
   5   1   1    0.10    0.20 
  -6  -1  -1  167.28    6.40 
  -6  -1  -1  164.48    6.40 
  -6  -1  -1  162.78    6.30 
   6   1   1  155.88    6.30 
  -7  -1  -1  143.89    5.80 
  -7  -1  -1  160.48    5.90 
  -7  -1  -1  145.79    5.80 
   8  -2  -1   56.89    2.30 
  -8   2   1   61.29    2.30 
   7  -2  -1  139.89    5.30 
  -7   2   1  134.59    5.30 
  -7   2   1  137.29    5.30 
   6  -2  -1  701.43   25.90 
   6  -2  -1  628.94   26.40 
  -6   2   1  682.33   25.90 
  -6   2   1  704.23   25.90 
   5  -2  -1    0.40    0.10 
   5  -2  -1    0.40    0.20 
  -5   2   1    0.50    0.20 
  -5   2   1    0.40    0.10 
  -5   2   1    0.40    0.10 
   4  -2  -1  267.87   10.30 
  -4   2   1  250.57   10.20 
   3  -2  -1   25.50    1.20 
  -3   2   1   26.60    1.30 
  -3   2   1   24.80    1.20 
   2  -2  -1  103.39    4.10 
  -2   2   1  101.29    4.10 
  -2   2   1   99.39    4.00 
   1  -2  -1  363.76   13.20 
  -1   2   1  345.27   13.10 
  -1   2   1  320.67   13.20 
   0  -2  -1   69.89    2.70 
   0  -2  -1   65.09    2.60 
   0  -2  -1   61.29    2.60 
  -1  -2  -1    0.70    0.10 
  -1  -2  -1    0.50    0.10 
  -2  -2  -1  671.43   35.50 
  -2  -2  -1  688.93   25.20 
  -2  -2  -1  612.44   25.20 
  -3  -2  -1  386.86   21.70 
   3   2   1  381.16   14.90 
  -4  -2  -1   21.20    0.90 
  -4  -2  -1   20.40    0.90 
  -4  -2  -1   20.00    0.90 
  -4  -2  -1   21.40    1.30 
  -4  -2  -1   18.30    0.80 
   4   2   1   20.40    1.10 
  -5  -2  -1   39.60    1.60 
  -5  -2  -1   39.50    2.10 
  -5  -2  -1   38.90    1.60 
  -5  -2  -1   38.90    1.60 
  -5  -2  -1   38.70    1.60 
   5   2   1   36.00    1.90 
  -6  -2  -1    1.10    0.20 
  -6  -2  -1    1.10    0.20 
  -7  -2  -1    9.30    0.50 
  -7  -2  -1    9.20    0.50 
  -8   3   1   19.80    0.80 
   7  -3  -1    2.80    0.20 
  -7   3   1    3.00    0.20 
   6  -3  -1   18.50    0.90 
  -6   3   1   18.10    0.80 
   5  -3  -1  149.59    5.70 
   5  -3  -1  147.59    6.10 
  -5   3   1  145.09    5.70 
   4  -3  -1   38.60    1.60 
   4  -3  -1   39.50    1.90 
  -4   3   1   38.60    1.90 
  -4   3   1   38.10    1.60 
   3  -3  -1  125.69    5.00 
  -3   3   1  117.99    5.00 
   2  -3  -1   24.60    1.20 
  -2   3   1   26.70    1.30 
   1  -3  -1  534.95   20.40 
  -1   3   1  528.95   20.50 
   0  -3  -1   23.50    1.00 
   0  -3  -1   24.00    1.10 
   0   3   1   24.60    1.20 
  -1  -3  -1   18.10    0.90 
  -1  -3  -1   17.90    0.90 
  -1  -3  -1   17.20    0.90 
  -2  -3  -1   76.49    3.20 
  -2  -3  -1   77.39    3.20 
  -3  -3  -1   22.60    1.30 
   3   3   1   24.70    1.20 
  -4  -3  -1    8.40    0.80 
  -4  -3  -1    8.30    0.50 
  -4  -3  -1    7.80    0.40 
  -4  -3  -1    7.70    0.40 
   4   3   1    8.60    0.70 
  -5  -3  -1   44.10    2.40 
  -5  -3  -1   51.29    2.00 
  -5  -3  -1   47.10    2.00 
  -5  -3  -1   50.39    2.00 
  -6  -3  -1   71.89    3.00 
  -6  -3  -1   64.89    2.90 
  -6  -3  -1   83.19    3.00 
  -7  -3  -1   44.30    1.80 
  -7  -3  -1   45.40    1.80 
  -8   4   1    4.80    0.20 
   7  -4  -1    8.20    0.40 
  -7   4   1    8.00    0.40 
   6  -4  -1  256.27    9.80 
  -6   4   1  251.37    9.80 
   5  -4  -1  728.83   35.70 
   5  -4  -1  685.03   27.20 
  -5   4   1  698.63   26.80 
   4  -4  -1  337.87   12.80 
   4  -4  -1  349.37   13.20 
   4  -4  -1  306.27   12.80 
  -4   4   1  347.07   13.30 
  -4   4   1  330.47   12.80 
   3  -4  -1   88.39    3.80 
  -3   4   1   90.89    3.90 
  -2   4   1  178.28    7.30 
   1  -4  -1  637.64   39.10 
  -1   4   1  583.44   23.40 
   0  -4  -1   56.69    2.40 
   0   4   1   55.39    2.50 
  -1  -4  -1    0.80    0.20 
   1   4   1    1.10    0.20 
  -2  -4  -1   10.90    0.70 
  -2  -4  -1   10.90    0.70 
   2   4   1   10.80    0.70 
  -3  -4  -1  146.09    6.10 
  -3  -4  -1  151.88    5.70 
  -3  -4  -1  132.79    5.70 
  -3  -4  -1  149.69    5.70 
   3   4   1  155.38    6.10 
  -4  -4  -1   12.50    0.60 
  -4  -4  -1   12.80    0.60 
  -4  -4  -1   13.60    0.70 
  -4  -4  -1   12.00    1.00 
   4   4   1   12.90    0.90 
  -5  -4  -1  154.68    6.20 
  -5  -4  -1  158.08    6.20 
  -5  -4  -1  160.28    6.10 
  -6  -4  -1   53.29    2.20 
  -6  -4  -1   55.49    2.20 
  -7  -4  -1    1.40    0.10 
   7  -5  -1    0.40    0.10 
  -7   5   1    0.50    0.10 
   6  -5  -1    8.50    0.50 
  -6   5   1    8.20    0.40 
   5  -5  -1   29.10    1.70 
   5  -5  -1   31.30    1.30 
  -5   5   1   29.70    1.30 
   4  -5  -1   12.00    0.60 
   4  -5  -1   11.00    0.50 
   4  -5  -1   12.40    0.90 
  -4   5   1   10.60    0.50 
  -4   5   1   11.10    1.00 
   3  -5  -1   21.40    1.20 
   3  -5  -1   20.20    0.90 
   3  -5  -1   21.00    0.90 
  -3   5   1   20.00    1.30 
  -3   5   1   18.30    0.80 
   2  -5  -1    5.60    0.30 
   2  -5  -1    5.70    0.50 
   2  -5  -1    5.10    0.30 
  -2   5   1    6.10    0.60 
   1  -5  -1    0.70    0.20 
   0  -5  -1   16.60    1.00 
   0   5   1   16.80    1.10 
  -1  -5  -1   13.70    0.70 
  -1  -5  -1   15.30    0.90 
  -1  -5  -1   14.10    0.70 
   1   5   1   15.90    1.00 
  -2  -5  -1   31.10    1.30 
  -2  -5  -1   32.00    1.60 
  -2  -5  -1   32.10    1.30 
  -2  -5  -1   30.20    1.30 
  -3  -5  -1   63.49    2.50 
  -3  -5  -1   58.19    2.40 
   3   5   1   59.99    2.80 
  -4  -5  -1    1.50    0.20 
  -4  -5  -1    1.30    0.20 
  -4  -5  -1    0.90    0.20 
  -5  -5  -1   15.30    0.70 
  -5  -5  -1   12.50    0.70 
  -5  -5  -1   12.40    0.60 
  -6  -5  -1   55.59    2.20 
  -6  -5  -1   55.59    2.20 
   7  -6  -1    1.50    0.10 
  -7   6   1    1.70    0.10 
   6  -6  -1    7.10    0.40 
  -6   6   1    7.20    0.40 
   5  -6  -1   41.70    1.70 
  -5   6   1   39.50    1.60 
  -5   6   1   41.00    1.70 
   4  -6  -1  394.96   16.30 
   4  -6  -1  437.56   15.90 
   4  -6  -1  425.96   15.80 
  -4   6   1  396.86   15.80 
  -4   6   1  412.86   16.50 
   3  -6  -1   81.19    3.70 
   3  -6  -1   84.59    3.30 
   3  -6  -1   84.39    3.30 
   3  -6  -1   82.69    3.30 
  -3   6   1   85.89    4.00 
   2  -6  -1  105.39    4.30 
   2  -6  -1  109.89    4.70 
   2  -6  -1  107.19    4.30 
  -2   6   1  115.99    5.00 
   1  -6  -1  112.09    4.50 
   1  -6  -1  119.29    4.90 
   1  -6  -1  112.79    4.50 
   1  -6  -1  114.09    4.50 
  -1   6   1  120.29    5.10 
   0  -6  -1   10.70    0.80 
   0  -6  -1   10.30    0.50 
   0  -6  -1   10.50    0.50 
   0  -6  -1   10.80    0.60 
   0   6   1   11.00    0.90 
  -1  -6  -1    5.70    0.30 
  -1  -6  -1    5.00    0.30 
  -1  -6  -1    5.70    0.60 
  -1  -6  -1    5.20    0.30 
  -1  -6  -1    5.60    0.40 
   1   6   1    5.50    0.60 
  -2  -6  -1  222.38    8.50 
  -2  -6  -1  213.58    8.50 
  -2  -6  -1  227.38    8.60 
  -2  -6  -1  221.28    9.00 
  -3  -6  -1  146.89    5.70 
  -3  -6  -1  142.69    5.60 
  -4  -6  -1    0.30    0.10 
  -5  -6  -1    2.90    0.20 
  -5  -6  -1    2.40    0.20 
   6  -7  -1   98.29    3.80 
  -6   7   1   94.79    3.70 
   5  -7  -1    4.60    0.30 
  -5   7   1    5.00    0.30 
   4  -7  -1    8.40    0.50 
   3  -7  -1    7.80    0.80 
   3  -7  -1    8.50    0.50 
   3  -7  -1    8.80    0.50 
   3  -7  -1    8.10    0.50 
  -3   7   1    8.50    0.90 
   2  -7  -1   11.10    0.60 
   2  -7  -1   12.20    0.60 
   2  -7  -1   15.30    1.00 
  -2   7   1   10.70    1.10 
   1  -7  -1   88.59    3.40 
   1  -7  -1   85.59    3.40 
   1  -7  -1   84.39    3.80 
   1  -7  -1   89.09    3.50 
  -1   7   1   82.09    4.10 
   0  -7  -1    0.70    0.20 
   0  -7  -1    0.70    0.10 
   0  -7  -1    0.60    0.30 
   0   7   1    1.00    0.40 
  -1  -7  -1  449.16   16.60 
  -1  -7  -1  406.86   17.00 
  -1  -7  -1  439.76   16.60 
  -2  -7  -1   12.00    0.60 
  -2  -7  -1   12.20    0.60 
  -2  -7  -1   12.10    0.60 
  -3  -7  -1  351.86   13.60 
  -3  -7  -1  358.96   13.60 
  -4  -7  -1   28.70    1.20 
  -4  -7  -1   28.40    1.20 
   6  -8  -1   68.79    2.70 
  -5   8   1    0.30    0.10 
   4  -8  -1   31.60    1.40 
  -4   8   1   32.50    1.30 
   3  -8  -1   15.00    0.80 
   3  -8  -1   16.70    0.80 
   3  -8  -1   16.50    0.70 
   2  -8  -1   93.59    3.80 
   2  -8  -1   93.59    3.80 
   2  -8  -1   98.19    3.70 
   1  -8  -1  129.99    5.00 
   1  -8  -1  126.19    4.90 
   1  -8  -1  123.29    5.00 
   0  -8  -1  102.19    4.10 
   0  -8  -1  103.59    4.00 
   0  -8  -1  100.29    4.00 
  -1  -8  -1   35.20    1.40 
  -1  -8  -1   33.00    1.50 
  -2  -8  -1  167.48    6.70 
  -2  -8  -1  178.28    6.70 
  -3  -8  -1    1.00    0.10 
   5  -9  -1    9.70    0.40 
  -5   9   1    9.50    0.40 
   4  -9  -1    2.30    0.20 
  -4   9   1    1.80    0.20 
   3  -9  -1    0.10    0.10 
   3  -9  -1    0.10    0.10 
  -3   9   1    0.10    0.10 
   2  -9  -1   72.39    3.00 
   2  -9  -1   75.69    3.00 
   1  -9  -1  173.58    6.70 
   1  -9  -1  174.18    6.70 
   1  -9  -1  172.88    6.80 
   0  -9  -1    4.70    0.30 
   0  -9  -1    4.70    0.30 
  -1  -9  -1   61.39    2.50 
  -1  -9  -1   63.59    2.50 
  -2  -9  -1    2.90    0.20 
  -2  -9  -1    2.70    0.20 
   3 -10  -1   67.89    2.70 
  -3  10   1   68.19    2.60 
   2 -10  -1    1.70    0.20 
   2 -10  -1    1.80    0.20 
   1 -10  -1   24.10    1.00 
   1 -10  -1   26.00    1.00 
  -1  10   1   24.20    1.00 
   0 -10  -1  104.29    4.00 
   0 -10  -1  101.49    4.00 
  -1 -10  -1   42.50    1.70 
  -1 -10  -1   41.40    1.70 
  -1 -10   2    1.20    0.10 
  -1 -10   2    1.10    0.10 
   0 -10   2    5.60    0.30 
   0 -10   2    5.60    0.30 
   1 -10   2    0.30    0.10 
   1 -10   2    0.30    0.10 
  -2  10  -2    4.30    0.20 
   2 -10   2    4.40    0.30 
   2 -10   2    4.50    0.30 
  -3  10  -2   16.00    0.70 
   3 -10   2   15.30    0.70 
  -4  10  -2   16.40    0.70 
  -3  -9   2   50.29    2.00 
  -2  -9   2   38.50    1.50 
  -2  -9   2   38.80    1.60 
  -2  -9   2   37.00    1.50 
  -1  -9   2   35.60    1.50 
  -1  -9   2   34.10    1.50 
  -1  -9   2   36.70    1.50 
   0  -9   2    2.80    0.20 
   0  -9   2    2.40    0.20 
   0  -9   2    2.80    0.20 
  -1   9  -2    0.70    0.10 
   1  -9   2    0.70    0.10 
   1  -9   2    1.00    0.20 
   1  -9   2    0.60    0.10 
  -2   9  -2   11.70    0.50 
   2  -9   2   11.50    0.60 
   2  -9   2   11.70    0.60 
   2  -9   2   11.30    0.60 
  -3   9  -2   54.69    2.10 
   3  -9   2   53.09    2.20 
  -4   9  -2   17.20    0.70 
   4  -9   2   17.30    0.70 
  -5   9  -2    8.90    0.40 
  -4  -8   2   20.00    0.80 
  -4  -8   2   19.80    0.80 
  -2  -8   2  145.49    5.70 
  -2  -8   2  147.89    5.70 
  -2  -8   2  142.29    5.70 
  -1  -8   2    8.70    0.50 
  -1  -8   2    9.00    0.50 
   0  -8   2 1098.49   46.00 
   0  -8   2 1127.69   42.50 
   0  -8   2 1120.89   42.50 
  -1   8  -2  279.37   10.90 
   1  -8   2  297.77   11.00 
   1  -8   2  277.57   11.00 
   1  -8   2  283.77   11.00 
  -2   8  -2   80.19    3.10 
   2  -8   2   76.19    3.10 
   2  -8   2   75.19    3.10 
   2  -8   2   78.09    3.10 
  -3   8  -2   22.30    1.00 
   3  -8   2   22.30    1.00 
   3  -8   2   21.50    1.00 
  -4   8  -2  151.18    5.80 
   4  -8   2  146.19    5.80 
   4  -8   2  150.88    5.80 
  -5   8  -2    5.20    0.30 
   5  -8   2    5.00    0.30 
  -5  -7   2   10.90    0.50 
  -5  -7   2   11.30    0.50 
  -4  -7   2   47.90    2.00 
  -4  -7   2   49.50    2.00 
  -3  -7   2    2.90    0.20 
  -3  -7   2    2.70    0.20 
  -3  -7   2    2.80    0.30 
  -2  -7   2   34.80    1.50 
  -2  -7   2   32.80    1.50 
  -2  -7   2   34.60    1.50 
  -1  -7   2  239.58    9.30 
  -1  -7   2  233.08    9.70 
  -1  -7   2  247.38    9.30 
  -1  -7   2  242.38    9.30 
   0   7  -2    9.80    0.50 
   0   7  -2    8.90    0.90 
   0  -7   2    9.90    0.60 
   0  -7   2   10.90    0.50 
   0  -7   2   10.30    0.80 
   0  -7   2   10.10    0.50 
  -1   7  -2   13.60    0.60 
  -1   7  -2   13.60    1.10 
   1  -7   2   13.10    0.70 
   1  -7   2   13.30    0.60 
   1  -7   2   12.70    0.90 
   1  -7   2   13.40    0.70 
  -2   7  -2   55.69    2.90 
   2  -7   2   57.69    2.30 
   2  -7   2   55.69    2.70 
   2  -7   2   57.59    2.30 
   2  -7   2   59.89    2.30 
  -3   7  -2   63.99    3.30 
  -3   7  -2   71.29    2.60 
   3  -7   2   61.09    3.00 
   3  -7   2   65.09    2.60 
   3  -7   2   65.99    2.60 
  -4   7  -2   13.10    0.60 
   4  -7   2   12.20    0.60 
   4  -7   2   12.00    0.60 
  -5   7  -2    0.60    0.10 
   5  -7   2    0.50    0.10 
   5  -7   2    0.60    0.10 
  -6   7  -2  102.79    4.00 
  -5  -6   2    0.60    0.10 
  -5  -6   2    0.30    0.10 
  -4  -6   2  449.66   17.40 
  -4  -6   2  459.95   17.40 
  -3  -6   2  746.13   28.10 
  -3  -6   2  729.53   28.00 
  -3  -6   2  729.43   28.10 
  -2  -6   2    2.30    0.20 
  -2  -6   2    2.40    0.20 
  -2  -6   2    2.20    0.20 
  -1  -6   2   34.10    1.40 
  -1  -6   2   35.00    1.80 
   0   6  -2  205.88    8.30 
   0  -6   2  209.88    7.80 
   0  -6   2  201.28    7.80 
   0  -6   2  192.28    7.70 
   0  -6   2  199.78    7.80 
   0  -6   2  203.08    8.20 
  -1   6  -2  115.69    5.00 
   1  -6   2  111.49    4.40 
   1  -6   2  114.29    4.50 
   1  -6   2  116.79    4.80 
   1  -6   2  113.29    4.50 
   1  -6   2  113.09    4.40 
  -2   6  -2  126.29    5.30 
   2  -6   2  120.69    5.00 
   2  -6   2  117.79    4.70 
   2  -6   2  121.09    4.70 
   2  -6   2  117.69    4.70 
  -3   6  -2  260.17   10.60 
  -3   6  -2  262.47    9.90 
   3  -6   2  264.87    9.90 
   3  -6   2  248.98    9.90 
   3  -6   2  255.27   10.30 
  -4   6  -2   46.70    2.50 
  -4   6  -2   48.20    1.80 
   4  -6   2   43.50    1.90 
   4  -6   2   42.40    2.20 
   4  -6   2   47.10    1.90 
  -5   6  -2    0.50    0.10 
   5  -6   2    0.40    0.10 
  -6   6  -2    5.90    0.30 
   6  -6   2    5.90    0.30 
  -7   6  -2   12.30    0.50 
  -6  -5   2    4.40    0.30 
  -6  -5   2    4.30    0.30 
  -6  -5   2    4.40    0.30 
  -5  -5   2  225.08    8.30 
  -5  -5   2  209.08    8.30 
  -5  -5   2  207.08    8.30 
  -4  -5   2   27.80    1.20 
  -4  -5   2   25.80    1.20 
  -4  -5   2   28.80    1.20 
   3   5  -2  621.84   25.20 
  -3  -5   2  630.84   24.80 
  -3  -5   2  644.14   25.20 
  -3  -5   2  726.53   24.80 
  -3  -5   2  636.04   24.80 
  -3  -5   2  636.84   24.80 
  -2  -5   2   66.29    2.90 
  -2  -5   2   65.49    2.60 
  -2  -5   2   59.79    2.50 
  -2  -5   2   59.49    2.80 
  -2  -5   2   66.49    2.50 
   1   5  -2  167.88    6.80 
  -1  -5   2  163.38    6.50 
  -1  -5   2  161.68    6.50 
  -1  -5   2  163.28    6.50 
  -1  -5   2  186.08    6.90 
   0   5  -2    3.90    0.40 
   0  -5   2    3.40    0.40 
  -1   5  -2  302.57   12.00 
   1  -5   2  301.97   11.80 
  -2   5  -2    7.90    0.70 
   2  -5   2    9.10    0.60 
   2  -5   2    7.80    0.40 
  -3   5  -2  696.13   25.80 
  -3   5  -2  702.33   26.40 
   3  -5   2  695.53   26.10 
   3  -5   2  639.84   27.30 
   3  -5   2  650.23   25.80 
  -4   5  -2   53.19    2.10 
  -4   5  -2   51.49    2.10 
  -4   5  -2   53.29    2.70 
   4  -5   2   52.59    2.40 
   4  -5   2   52.99    2.10 
   4  -5   2   51.49    2.10 
  -5   5  -2  270.47   10.10 
  -5   5  -2  263.47   10.10 
  -5   5  -2  245.88   10.70 
   5  -5   2  265.27   10.10 
   5  -5   2  269.47   10.10 
  -6   5  -2   33.90    1.40 
   6  -5   2   33.80    1.40 
  -7   5  -2   72.99    2.70 
   7  -5   2   67.29    2.80 
  -7  -4   2    1.70    0.10 
  -7  -4   2    1.60    0.10 
  -6  -4   2   87.49    3.40 
  -6  -4   2   87.89    3.40 
  -6  -4   2   85.29    3.40 
  -5  -4   2   21.90    1.00 
  -5  -4   2   20.80    1.00 
   4   4  -2   19.10    1.30 
  -4  -4   2   20.10    0.90 
  -4  -4   2   19.40    0.90 
  -4  -4   2   19.70    1.30 
  -4  -4   2   20.10    0.90 
   3   4  -2    8.60    0.70 
  -3  -4   2    7.10    0.40 
  -3  -4   2    8.00    0.40 
  -3  -4   2    7.70    0.40 
  -3  -4   2    7.50    0.40 
  -3  -4   2    9.30    0.70 
  -2  -4   2  271.37   10.80 
  -2  -4   2  274.47   10.80 
   1   4  -2  160.08    6.50 
  -1  -4   2  157.78    6.50 
  -1  -4   2  175.28    6.60 
   0   4  -2  167.68    7.10 
   0  -4   2  193.08    7.10 
   0  -4   2  174.38    7.00 
  -1   4  -2  219.98    8.80 
   1  -4   2  218.58    8.60 
  -2   4  -2 1562.74   59.39 
   2  -4   2 1540.05   59.09 
  -3   4  -2 1262.07   86.29 
   3  -4   2 1257.87   48.10 
  -4   4  -2   38.60    1.50 
  -4   4  -2   36.30    1.50 
  -4   4  -2   41.00    2.00 
   4  -4   2   34.10    1.50 
   4  -4   2   37.30    1.60 
   4  -4   2   34.80    1.80 
  -5   4  -2   19.40    0.80 
  -5   4  -2   17.70    0.80 
   5  -4   2   20.80    0.90 
  -6   4  -2  130.99    5.10 
   6  -4   2  130.79    5.10 
  -7   4  -2    0.50    0.10 
   7  -4   2    0.40    0.10 
  -8   4  -2  130.29    5.00 
   7   3  -2   71.19    2.90 
  -7  -3   2   76.29    2.90 
  -7  -3   2   72.49    2.90 
  -6  -3   2    5.00    0.30 
  -6  -3   2    4.90    0.30 
  -6  -3   2    4.80    0.40 
   5   3  -2   36.30    2.00 
  -5  -3   2   40.30    1.70 
  -5  -3   2   39.40    1.60 
  -5  -3   2   37.90    2.10 
  -5  -3   2   39.00    1.70 
   4   3  -2   17.50    1.10 
  -4  -3   2   17.60    0.80 
  -4  -3   2   17.20    0.80 
  -4  -3   2   18.50    1.20 
  -4  -3   2   16.40    0.80 
   3   3  -2  212.38    7.90 
  -3  -3   2  171.88    7.50 
  -3  -3   2  192.28    7.50 
  -3  -3   2  208.08    8.00 
  -2  -3   2  562.24   21.70 
   1   3  -2  245.68    9.60 
  -1  -3   2  245.08    9.70 
  -1  -3   2  253.27    9.70 
   0   3  -2   62.09    2.60 
   0  -3   2   55.39    2.40 
   0  -3   2   62.29    2.50 
  -1   3  -2  559.04   21.80 
   1  -3   2  544.45   21.60 
   1  -3   2  605.44   35.90 
  -2   3  -2   94.69    3.90 
   2  -3   2   90.39    3.70 
   2  -3   2   94.49    3.70 
  -3   3  -2  385.46   19.20 
   3  -3   2  357.06   14.40 
   3  -3   2  378.66   14.40 
  -4   3  -2  272.57   10.50 
  -4   3  -2  249.97   10.00 
  -4   3  -2  254.27   10.00 
   4  -3   2  259.67   10.30 
   4  -3   2  264.27   10.20 
  -5   3  -2  356.26   14.00 
  -5   3  -2  374.86   14.00 
  -6   3  -2   39.30    1.70 
  -6   3  -2   38.80    1.60 
  -7   3  -2   23.50    1.00 
   7  -3   2   22.90    1.00 
  -8   3  -2   31.20    1.20 
   8  -3   2   29.10    1.20 
   7   2  -2   19.10    0.80 
  -7  -2   2   18.40    0.80 
  -7  -2   2   18.10    0.80 
  -6  -2   2  337.67   12.80 
  -6  -2   2  335.17   12.80 
  -6  -2   2  324.37   12.80 
   5   2  -2 1275.07   50.79 
  -5  -2   2 1358.16   50.29 
  -5  -2   2 1234.38   60.59 
  -5  -2   2 1350.16   50.89 
  -5  -2   2 1375.96   50.29 
   4   2  -2   54.69    2.50 
  -4  -2   2   51.69    2.20 
  -4  -2   2   58.99    2.70 
  -4  -2   2   54.99    2.20 
   3   2  -2  534.55   19.00 
  -3  -2   2  444.26   19.00 
   2   2  -2    2.10    0.20 
  -2  -2   2    1.50    0.30 
   1   2  -2  275.67   11.80 
  -1  -2   2  303.07   11.40 
  -1  -2   2  300.97   11.40 
   0   2  -2  427.56   16.70 
   0  -2   2  413.46   16.70 
   0  -2   2  467.05   16.70 
  -1   2  -2 2614.24  128.79 
   1  -2   2 2572.04  117.29 
   1  -2   2 2639.74  113.69 
  -2   2  -2  263.67   15.10 
   2  -2   2  240.48    9.40 
   2  -2   2  232.58    9.50 
  -3   2  -2  281.47   11.60 
  -3   2  -2  296.07   11.50 
   3  -2   2  305.27   11.40 
  -4   2  -2  157.08    6.40 
  -4   2  -2  158.38    6.10 
  -4   2  -2  151.48    6.00 
  -4   2  -2  158.58    6.40 
   4  -2   2  160.08    6.30 
  -5   2  -2   10.60    0.80 
  -5   2  -2   11.40    0.50 
  -5   2  -2   11.00    0.60 
  -5   2  -2   11.00    0.50 
  -6   2  -2    0.80    0.20 
  -6   2  -2    0.50    0.10 
  -7   2  -2    6.90    0.40 
  -7   2  -2    7.10    0.40 
  -7   2  -2    6.80    0.40 
   7   1  -2    3.10    0.20 
  -7  -1   2    3.00    0.20 
  -7  -1   2    3.00    0.20 
   6   1  -2   93.59    3.80 
  -6  -1   2   95.29    3.80 
  -6  -1   2   94.89    3.80 
   5   1  -2   13.20    1.00 
  -5  -1   2   13.60    0.70 
  -5  -1   2   13.60    0.60 
  -5  -1   2   13.20    0.70 
  -5  -1   2   13.20    1.00 
  -5  -1   2   13.70    0.70 
   4   1  -2  464.75   17.40 
  -4  -1   2  449.36   17.00 
  -4  -1   2  433.16   17.40 
  -4  -1   2  458.65   17.00 
  -4  -1   2  422.66   17.00 
   3   1  -2   25.90    1.30 
  -3  -1   2   28.70    1.40 
   2   1  -2  164.98    6.30 
  -2  -1   2  153.48    6.30 
   1   1  -2   96.29    6.00 
   1   1  -2   97.39    3.90 
  -1  -1   2  101.29    3.90 
   0   1  -2   46.90    2.00 
   0  -1   2   52.09    2.00 
   0  -1   2   50.89    2.00 
  -1   1  -2   43.10    1.80 
   1  -1   2   42.10    1.80 
  -2   1  -2  216.78    9.00 
  -2   1  -2  244.18    9.00 
   2  -1   2  235.38   13.90 
  -3   1  -2  633.04   24.00 
  -3   1  -2  552.24   23.90 
   3  -1   2  680.13   23.80 
  -4   1  -2  642.24   25.00 
  -4   1  -2  710.33   25.00 
   4  -1   2  589.14   24.80 
  -5   1  -2  403.96   14.90 
  -5   1  -2  382.46   15.40 
  -5   1  -2  377.56   15.00 
  -5   1  -2  398.96   15.00 
  -6   1  -2  124.59    4.50 
  -6   1  -2  109.39    4.60 
  -6   1  -2  113.39    4.60 
  -8   1  -2    5.30    0.30 
   8  -1   2    5.70    0.30 
   7   0  -2   88.59    3.50 
  -7   0   2   90.79    3.50 
  -7   0   2   87.69    3.50 
  -7   0   2   84.89    3.40 
   6   0  -2    1.90    0.20 
  -6   0   2    1.90    0.20 
  -6   0   2    1.60    0.20 
  -6   0   2    2.20    0.20 
   5   0  -2   30.40    1.60 
  -5   0   2   28.80    1.70 
  -5   0   2   28.50    1.20 
  -5   0   2   31.00    1.30 
  -5   0   2   28.50    1.20 
  -5   0   2   27.70    1.30 
   4   0  -2  191.88    7.60 
  -4   0   2  187.08    7.70 
   3   0  -2 1143.79   41.30 
  -3   0   2 1015.70   41.30 
   2   0  -2  714.33   26.40 
  -2   0   2  639.94   32.40 
  -2   0   2  710.63   26.40 
   1   0  -2  584.94   28.30 
   1   0  -2  678.93   24.50 
  -1   0   2  657.63   24.50 
   0   0  -2 2279.17  102.89 
   0   0  -2 2154.78   89.79 
   0   0   2 2322.67  101.19 
  -1   0  -2 9999.00  372.36 
  -1   0  -2 9114.59  374.46 
   1   0   2 8465.65  352.86 
  -2   0  -2   21.30    1.00 
  -2   0  -2   20.10    1.00 
   2   0   2   20.50    0.90 
  -3   0  -2  284.47   11.00 
  -3   0  -2  278.47   11.00 
   3   0   2  278.57   13.70 
  -4   0  -2  413.86   16.00 
  -4   0  -2  383.36   15.70 
  -4   0  -2  423.36   15.70 
  -4   0  -2  411.16   15.60 
   4   0   2  415.06   15.90 
  -5   0  -2   56.19    2.20 
  -5   0  -2   55.39    2.20 
  -5   0  -2   50.59    2.60 
  -5   0  -2   53.09    2.20 
  -6   0  -2  213.28    8.10 
  -6   0  -2  205.98    8.20 
  -6   0  -2  214.48    8.20 
  -7   0  -2   71.79    2.80 
  -7   0  -2   72.99    2.90 
  -7   0  -2   71.49    2.90 
   8  -1  -2    0.40    0.10 
   7  -1  -2    7.50    0.40 
  -7   1   2    6.70    0.40 
  -7   1   2    7.00    0.40 
  -6   1   2    2.10    0.20 
  -6   1   2    2.80    0.90 
  -6   1   2    2.10    0.20 
  -6   1   2    2.30    0.20 
   5  -1  -2   39.00    1.60 
   5  -1  -2   40.20    2.00 
  -5   1   2   37.10    1.60 
  -5   1   2   36.40    1.50 
  -5   1   2   36.20    1.60 
  -5   1   2   37.50    1.90 
   4  -1  -2    0.60    0.20 
  -4   1   2    0.90    0.20 
   3  -1  -2  277.97   10.70 
  -3   1   2  259.37   10.60 
  -3   1   2  283.87   10.70 
   2  -1  -2  269.37    9.80 
  -2   1   2  250.87    9.80 
  -2   1   2  236.08    9.70 
   0  -1  -2  330.27   13.10 
   0  -1  -2  358.66   13.30 
   0   1   2  321.07   21.10 
  -1  -1  -2 6330.17  267.77 
  -1  -1  -2 6481.45  274.77 
  -1  -1  -2 6543.44  256.77 
  -2  -1  -2 2381.26  119.39 
  -2  -1  -2 2391.26  119.89 
   2   1   2 2418.76  108.19 
  -3  -1  -2  534.75   20.60 
  -3  -1  -2  489.85   20.70 
   3   1   2  579.54   20.50 
  -4  -1  -2  325.07   14.20 
  -4  -1  -2  316.17   12.80 
  -4  -1  -2  342.77   12.80 
  -4  -1  -2  354.56   13.20 
   4   1   2  324.77   13.00 
  -5  -1  -2  130.79    4.90 
  -5  -1  -2  126.99    5.50 
  -5  -1  -2  123.49    5.00 
  -5  -1  -2  125.39    5.00 
  -6  -1  -2    0.60    0.20 
  -6  -1  -2    0.60    0.10 
  -7  -1  -2   58.89    2.30 
  -7  -1  -2   59.19    2.40 
  -7  -1  -2   59.09    2.40 
   8  -2  -2   49.10    1.90 
  -8   2   2   47.20    1.90 
   7  -2  -2   14.60    0.70 
  -7   2   2   14.60    0.70 
   6  -2  -2    0.20    0.10 
  -6   2   2    0.30    0.10 
   5  -2  -2   10.80    0.90 
  -5   2   2   13.00    0.60 
   4  -2  -2  508.05   19.60 
   4  -2  -2  512.35   20.00 
  -4   2   2  522.85   19.90 
   3  -2  -2  561.14   21.90 
  -3   2   2  578.14   21.80 
  -3   2   2  562.94   21.80 
   2  -2  -2  614.14   34.80 
  -2   2   2  589.24   22.60 
  -2   2   2  567.04   22.40 
   1  -2  -2 1069.79   44.10 
   1  -2  -2 1191.98   61.99 
  -1   2   2 1220.28   55.69 
   0  -2  -2 2698.83  115.09 
   0  -2  -2 2463.35  126.49 
   0   2   2 2657.33  112.19 
  -1  -2  -2  168.38    6.40 
  -1  -2  -2  147.09    6.50 
  -1  -2  -2  180.68    6.60 
  -2  -2  -2 2522.75  133.69 
  -2  -2  -2 2772.22  127.69 
  -2  -2  -2 2832.02  137.39 
  -3  -2  -2  492.35   19.30 
  -3  -2  -2  527.55   29.50 
   3   2   2  491.35   19.30 
  -4  -2  -2   19.80    0.90 
  -4  -2  -2   19.90    0.90 
  -4  -2  -2   21.70    1.30 
  -4  -2  -2   18.40    0.80 
   4   2   2   19.80    1.10 
  -5  -2  -2    0.30    0.10 
  -5  -2  -2    0.50    0.30 
  -6  -2  -2    0.30    0.10 
  -6  -2  -2    0.20    0.10 
  -6  -2  -2    0.20    0.10 
  -7  -2  -2    5.90    0.30 
  -7  -2  -2    5.90    0.30 
   8  -3  -2   11.70    0.50 
  -8   3   2   12.10    0.50 
   7  -3  -2    8.10    0.40 
  -7   3   2    8.30    0.40 
   6  -3  -2  289.17   11.20 
  -6   3   2  291.27   11.10 
   5  -3  -2   89.49    4.10 
   5  -3  -2   93.49    3.70 
  -5   3   2   93.89    3.60 
   4  -3  -2   13.70    0.90 
   4  -3  -2   12.90    0.60 
  -4   3   2   13.30    0.60 
   3  -3  -2   38.70    1.80 
  -3   3   2   34.90    1.80 
   2  -3  -2  304.87   12.40 
  -2   3   2  330.77   12.50 
   1  -3  -2  678.13   41.20 
   0  -3  -2   62.59    2.80 
   0  -3  -2   63.69    2.60 
   0   3   2   61.09    2.50 
  -1  -3  -2  239.88    9.20 
  -1  -3  -2  222.98    9.30 
  -1  -3  -2  243.88    9.20 
  -2  -3  -2   34.30    1.60 
  -2  -3  -2   34.70    1.70 
  -2  -3  -2   35.50    1.60 
  -3  -3  -2   24.30    1.00 
  -3  -3  -2   23.80    1.30 
  -3  -3  -2   22.70    1.00 
   3   3   2   26.20    1.30 
  -4  -3  -2   20.10    1.10 
  -4  -3  -2   21.40    1.30 
  -4  -3  -2   20.90    1.00 
  -4  -3  -2   21.50    0.90 
   4   3   2   20.80    1.20 
  -5  -3  -2   79.99    3.20 
  -5  -3  -2   76.99    3.20 
  -6  -3  -2  245.58    9.60 
  -6  -3  -2  249.28    9.50 
  -7  -3  -2    6.70    0.30 
  -7  -3  -2    6.50    0.30 
  -8   4   2    3.30    0.20 
   7  -4  -2   19.00    0.80 
  -7   4   2   18.40    0.80 
   6  -4  -2   18.60    0.90 
  -6   4   2   18.10    0.80 
   5  -4  -2   43.20    2.30 
   5  -4  -2   46.20    1.90 
  -5   4   2   44.90    1.80 
   4  -4  -2  273.37   11.00 
   4  -4  -2  283.27   10.60 
  -4   4   2  274.07   11.10 
  -4   4   2  276.57   10.60 
   3  -4  -2  433.86   16.70 
   3  -4  -2  405.36   16.30 
  -3   4   2  444.56   16.90 
   2  -4  -2  180.08    7.00 
  -2   4   2  170.48    7.20 
   1  -4  -2   71.29    2.90 
  -1   4   2   65.09    3.00 
   0  -4  -2  181.98    7.30 
   0   4   2  185.98    7.50 
  -1  -4  -2   96.79    4.10 
  -1  -4  -2  104.59    4.20 
  -2  -4  -2   18.50    1.10 
  -2  -4  -2   22.00    1.10 
   2   4   2   20.70    1.20 
  -3  -4  -2  176.08    7.00 
  -3  -4  -2  193.58    7.40 
  -3  -4  -2  172.28    7.00 
  -3  -4  -2  184.38    7.00 
   3   4   2  181.48    7.30 
  -4  -4  -2    6.40    0.40 
  -4  -4  -2    6.20    0.40 
  -4  -4  -2    5.70    0.70 
  -4  -4  -2    7.00    0.40 
  -5  -4  -2  173.68    6.80 
  -5  -4  -2  175.28    6.80 
  -6  -4  -2    2.40    0.20 
  -6  -4  -2    2.10    0.20 
   7  -5  -2  104.39    4.00 
  -7   5   2  101.59    4.00 
   6  -5  -2   18.10    0.80 
  -6   5   2   18.20    0.80 
   5  -5  -2  989.70   39.30 
   5  -5  -2 1075.29   38.90 
  -5   5   2  993.40   38.80 
   4  -5  -2  269.97   10.20 
   4  -5  -2  259.47   10.10 
   4  -5  -2  270.07   10.60 
  -4   5   2  253.17   10.70 
  -4   5   2  267.77   10.10 
   3  -5  -2  100.89    4.20 
   3  -5  -2  107.39    4.20 
   3  -5  -2  112.09    4.60 
   3  -5  -2  108.19    4.20 
  -3   5   2  113.29    4.80 
  -3   5   2  104.89    4.20 
   2  -5  -2  107.39    4.30 
   2  -5  -2  107.89    4.30 
   2  -5  -2  110.89    4.30 
   2  -5  -2  113.69    4.60 
  -2   5   2  112.29    4.90 
   1  -5  -2 1042.60   42.40 
   1  -5  -2 1134.29   42.30 
   1  -5  -2 1126.49   42.20 
  -1   5   2 1128.19   42.70 
   0  -5  -2  245.18    9.70 
   0  -5  -2  232.58    9.40 
   0   5   2  255.37    9.90 
  -1  -5  -2  183.28    7.20 
  -1  -5  -2  186.38    7.30 
  -1  -5  -2  193.28    7.60 
  -1  -5  -2  181.58    7.20 
   1   5   2  195.88    7.80 
  -2  -5  -2  237.68    9.30 
  -2  -5  -2  248.18    9.70 
  -2  -5  -2  240.88    9.30 
  -2  -5  -2  245.38    9.40 
  -3  -5  -2    3.20    0.20 
   3   5   2    3.10    0.40 
  -4  -5  -2    0.20    0.10 
  -4  -5  -2    0.10    0.10 
  -5  -5  -2   94.79    3.90 
  -5  -5  -2  102.89    3.90 
  -6  -5  -2   12.70    0.60 
  -6  -5  -2   13.20    0.60 
   7  -6  -2    3.50    0.20 
  -7   6   2    3.70    0.20 
   6  -6  -2   21.10    1.00 
  -6   6   2   22.00    0.90 
   5  -6  -2   54.29    2.10 
  -5   6   2   49.10    2.00 
  -5   6   2   51.49    2.10 
   4  -6  -2    2.40    0.50 
   4  -6  -2    3.30    0.20 
   4  -6  -2    2.70    0.30 
  -4   6   2    2.90    0.60 
  -4   6   2    2.80    0.20 
   3  -6  -2  614.94   23.10 
   3  -6  -2  656.33   23.00 
   3  -6  -2  597.04   23.50 
   3  -6  -2  580.84   24.60 
  -3   6   2  593.34   23.80 
  -3   6   2  578.14   23.00 
   2  -6  -2   65.29    2.60 
   2  -6  -2   65.29    3.00 
   2  -6  -2   63.49    2.60 
   2  -6  -2   62.59    2.60 
  -2   6   2   65.29    3.20 
   1  -6  -2  366.96   14.40 
   1  -6  -2  364.66   14.00 
   1  -6  -2  351.26   14.00 
   1  -6  -2  360.86   14.00 
  -1   6   2  381.16   14.70 
   0  -6  -2    2.40    0.20 
   0  -6  -2    3.00    0.20 
   0  -6  -2    2.40    0.40 
   0  -6  -2    2.30    0.20 
   0   6   2    2.20    0.50 
  -1  -6  -2    0.80    0.30 
  -1  -6  -2    0.30    0.10 
  -1  -6  -2    0.20    0.10 
   1   6   2    0.30    0.30 
  -2  -6  -2   45.40    1.90 
  -2  -6  -2   48.80    1.90 
  -2  -6  -2   46.10    2.30 
  -3  -6  -2   94.49    3.80 
  -3  -6  -2   98.99    3.80 
  -4  -6  -2   65.19    2.60 
  -4  -6  -2   63.39    2.60 
  -5  -6  -2   81.69    3.20 
   6  -7  -2   71.39    2.70 
  -6   7   2   66.99    2.70 
   5  -7  -2   79.39    3.00 
  -5   7   2   75.09    3.00 
  -5   7   2   73.59    3.00 
   4  -7  -2  181.88    7.00 
   4  -7  -2  178.38    7.00 
   3  -7  -2  311.37   11.10 
   3  -7  -2  294.67   11.20 
   3  -7  -2  284.67   11.10 
   3  -7  -2  299.67   12.20 
  -3   7   2  256.57   12.80 
   2  -7  -2   97.99    4.50 
   2  -7  -2  106.29    4.10 
   2  -7  -2  106.99    4.00 
   2  -7  -2  104.49    4.10 
  -2   7   2   98.79    4.80 
   1  -7  -2   37.50    2.00 
   1  -7  -2   42.50    1.70 
   1  -7  -2   39.00    1.60 
   1  -7  -2   38.70    1.60 
  -1   7   2   38.60    2.30 
   0  -7  -2   35.80    1.50 
   0  -7  -2   32.90    1.80 
   0  -7  -2   33.40    1.40 
   0  -7  -2   35.50    1.50 
   0   7   2   33.50    2.00 
  -1  -7  -2  187.18    7.10 
  -1  -7  -2  177.38    7.00 
  -1  -7  -2  172.08    7.50 
  -1  -7  -2  193.08    7.10 
  -2  -7  -2  520.05   19.80 
  -2  -7  -2  516.35   19.80 
  -3  -7  -2   88.39    3.50 
   6  -8  -2    0.90    0.10 
   5  -8  -2   39.10    1.60 
  -5   8   2   38.30    1.50 
   4  -8  -2   30.40    1.30 
  -4   8   2   29.80    1.20 
   3  -8  -2  107.99    4.30 
   3  -8  -2  111.49    4.30 
   3  -8  -2  107.29    4.30 
   2  -8  -2    6.40    0.40 
   2  -8  -2    7.10    0.40 
   2  -8  -2    6.20    0.40 
   1  -8  -2    3.60    0.30 
   1  -8  -2    3.60    0.30 
   0  -8  -2   94.39    3.70 
   0  -8  -2   88.89    3.60 
   0  -8  -2   94.29    3.70 
  -1  -8  -2  180.58    7.00 
  -1  -8  -2  179.58    7.00 
  -2  -8  -2   37.20    1.50 
  -2  -8  -2   35.30    1.50 
  -3  -8  -2   31.10    1.30 
   5  -9  -2  131.09    5.00 
   4  -9  -2    0.20    0.10 
  -4   9   2    0.10    0.10 
   3  -9  -2   49.60    2.00 
   3  -9  -2   51.39    2.00 
   2  -9  -2  124.69    5.00 
   2  -9  -2  128.19    5.00 
   2  -9  -2  132.39    5.00 
   1  -9  -2  197.98    7.60 
   1  -9  -2  199.08    7.70 
   1  -9  -2  197.58    7.70 
   0  -9  -2    1.20    0.20 
   0  -9  -2    1.40    0.10 
   0  -9  -2    1.30    0.20 
  -1  -9  -2    9.10    0.40 
  -1  -9  -2    8.90    0.50 
  -2  -9  -2   17.60    0.80 
  -2  -9  -2   18.50    0.80 
   3 -10  -2    1.00    0.10 
  -3  10   2    0.90    0.10 
   2 -10  -2   85.29    3.40 
   2 -10  -2   88.99    3.40 
  -2  10   2   91.39    3.40 
   1 -10  -2   98.89    3.90 
   1 -10  -2  101.59    3.90 
  -1  10   2   99.79    3.80 
   0 -10  -2   36.10    1.50 
   0 -10  -2   37.10    1.50 
  -1 -10   3    0.50    0.10 
   0 -10   3   23.60    1.00 
   0 -10   3   22.90    1.00 
   0 -10   3   23.70    1.00 
   1 -10   3   74.39    2.90 
   1 -10   3   75.19    2.90 
   1 -10   3   73.79    2.90 
  -2  10  -3   46.30    1.70 
   2 -10   3   43.10    1.80 
  -3  10  -3    1.30    0.10 
  -3  -9   3   32.20    1.30 
  -2  -9   3    0.30    0.10 
  -2  -9   3    0.30    0.10 
  -1  -9   3   32.00    1.40 
  -1  -9   3   32.50    1.40 
  -1  -9   3   33.40    1.40 
   0  -9   3    1.10    0.20 
   0  -9   3    1.10    0.20 
   0  -9   3    1.00    0.10 
  -1   9  -3    0.90    0.10 
   1  -9   3    0.60    0.10 
   1  -9   3    0.70    0.20 
   1  -9   3    0.70    0.10 
  -2   9  -3   54.49    2.10 
   2  -9   3   53.69    2.20 
   2  -9   3   53.29    2.10 
   2  -9   3   51.99    2.20 
  -3   9  -3   34.20    1.30 
   3  -9   3   32.10    1.30 
   3  -9   3   31.50    1.30 
  -4   9  -3   19.10    0.80 
  -5   9  -3    2.10    0.10 
  -4  -8   3    0.80    0.10 
  -4  -8   3    0.90    0.10 
   3   8  -3   48.50    2.00 
  -3  -8   3   49.90    2.00 
  -3  -8   3   51.09    2.00 
  -2  -8   3   16.60    0.80 
  -2  -8   3   17.60    0.80 
  -2  -8   3   18.10    0.80 
  -1  -8   3   40.80    1.70 
  -1  -8   3   40.40    1.70 
  -1  -8   3   42.80    1.80 
   0  -8   3   39.50    1.70 
   0  -8   3   37.60    1.60 
   0  -8   3   37.60    1.60 
  -1   8  -3    9.10    0.50 
   1  -8   3    9.00    0.50 
   1  -8   3   10.10    0.50 
   1  -8   3   10.00    0.50 
  -2   8  -3   26.90    1.10 
   2  -8   3   26.40    1.20 
   2  -8   3   26.30    1.20 
   2  -8   3   26.90    1.20 
  -3   8  -3  114.99    4.40 
   3  -8   3  112.19    4.50 
   3  -8   3  112.59    4.40 
  -4   8  -3   40.30    1.60 
   4  -8   3   38.30    1.60 
  -5   8  -3  188.08    7.10 
   5  -8   3  183.48    7.10 
  -5  -7   3    0.40    0.10 
  -5  -7   3    0.50    0.10 
  -4  -7   3    2.80    0.20 
  -4  -7   3    2.70    0.20 
  -3  -7   3   33.10    1.40 
  -3  -7   3   30.40    1.40 
  -3  -7   3   33.30    1.40 
  -2  -7   3   46.80    1.90 
  -2  -7   3   44.90    1.90 
  -2  -7   3   47.80    2.00 
  -1  -7   3    0.60    0.20 
  -1  -7   3    0.50    0.30 
  -1  -7   3    0.60    0.20 
   0  -7   3  386.46   14.40 
   0  -7   3  352.26   14.80 
   0  -7   3  383.36   14.40 
   0  -7   3  374.66   14.40 
  -1   7  -3  498.95   18.70 
  -1   7  -3  413.56   19.20 
   1  -7   3  512.15   18.70 
   1  -7   3  514.55   18.70 
   1  -7   3  478.55   19.10 
   1  -7   3  517.15   18.70 
  -2   7  -3   59.29    3.20 
  -2   7  -3   68.49    2.60 
   2  -7   3   67.49    2.70 
   2  -7   3   67.39    2.60 
   2  -7   3   69.59    2.70 
   2  -7   3   60.49    3.00 
  -3   7  -3   99.69    4.90 
  -3   7  -3  116.29    4.30 
   3  -7   3  109.19    4.30 
   3  -7   3  110.29    4.30 
  -4   7  -3  106.19    4.00 
   4  -7   3  100.29    4.10 
  -5   7  -3    0.40    0.10 
   5  -7   3    0.10    0.10 
  -6   7  -3    5.20    0.20 
   6  -7   3    4.10    0.30 
  -5  -6   3    9.70    0.50 
  -5  -6   3    9.30    0.50 
  -4  -6   3   22.00    1.00 
  -4  -6   3   21.70    1.00 
  -4  -6   3   22.20    1.00 
  -3  -6   3   11.90    0.60 
  -3  -6   3   11.90    0.60 
  -3  -6   3   13.10    0.60 
   2   6  -3   19.80    1.30 
  -2  -6   3   19.30    0.90 
  -2  -6   3   18.60    0.90 
  -1  -6   3  194.88    7.60 
  -1  -6   3  199.68    7.60 
  -1  -6   3  192.08    8.00 
  -1  -6   3  197.88    7.60 
   0   6  -3  383.56   14.30 
   0   6  -3  316.37   13.80 
   0  -6   3  368.66   14.20 
   0  -6   3  361.96   13.80 
   0  -6   3  377.46   13.90 
   0  -6   3  359.66   13.90 
  -1   6  -3   68.59    3.20 
  -1   6  -3   64.39    2.60 
   1  -6   3   65.99    2.70 
   1  -6   3   65.49    3.00 
   1  -6   3   69.09    2.70 
   1  -6   3   68.09    2.70 
  -2   6  -3   36.20    2.00 
  -2   6  -3   36.30    1.50 
   2  -6   3   35.50    1.80 
   2  -6   3   38.20    1.50 
   2  -6   3   35.50    1.50 
   2  -6   3   33.80    1.50 
  -3   6  -3  155.18    5.80 
  -3   6  -3  149.19    6.50 
   3  -6   3  146.59    6.10 
   3  -6   3  152.78    5.80 
   3  -6   3  145.29    5.80 
  -4   6  -3    7.00    0.80 
  -4   6  -3    7.70    0.40 
   4  -6   3    7.50    0.40 
  -5   6  -3   81.19    3.10 
   5  -6   3   79.19    3.20 
  -6   6  -3    6.60    0.30 
   6  -6   3    7.00    0.40 
   7  -6   3   20.10    0.80 
  -6  -5   3   16.80    0.70 
  -6  -5   3   17.20    0.70 
  -6  -5   3   16.20    0.70 
  -5  -5   3  194.28    7.60 
  -5  -5   3  194.58    7.50 
  -5  -5   3  196.08    7.60 
  -4  -5   3  146.29    5.70 
  -4  -5   3  147.29    5.70 
  -4  -5   3  143.29    5.70 
   3   5  -3  999.10   37.80 
  -3  -5   3 1040.10   37.80 
  -3  -5   3  838.32   37.30 
  -3  -5   3  963.20   37.30 
  -3  -5   3  990.50   37.30 
  -3  -5   3 1038.60   37.30 
   2   5  -3   18.00    1.10 
  -2  -5   3   19.20    1.10 
  -2  -5   3   18.00    0.80 
  -2  -5   3   18.70    0.90 
  -2  -5   3   18.00    0.80 
  -1  -5   3   72.19    3.00 
  -1  -5   3   78.09    3.00 
  -1  -5   3   74.49    3.00 
  -1  -5   3   74.89    3.30 
  -1  -5   3   79.79    3.30 
   0   5  -3  633.94   24.60 
   0  -5   3  657.53   24.60 
   0  -5   3  631.34   24.30 
   0  -5   3  623.24   24.30 
  -1   5  -3    0.30    0.20 
   1  -5   3    0.50    0.20 
   1  -5   3    0.10    0.10 
  -2   5  -3  278.47   11.60 
   2  -5   3  283.97   11.10 
   2  -5   3  301.57   11.30 
  -3   5  -3    4.00    0.60 
  -3   5  -3    3.70    0.20 
   3  -5   3    3.50    0.40 
   3  -5   3    3.40    0.30 
  -4   5  -3  236.08    9.50 
  -4   5  -3  224.68    8.80 
   4  -5   3  227.38    8.90 
  -5   5  -3  210.58    8.30 
  -5   5  -3  215.68    8.30 
   5  -5   3  221.88    8.40 
  -6   5  -3    3.90    0.20 
   6  -5   3    3.60    0.30 
  -7   5  -3   13.20    0.60 
   7  -5   3   13.30    0.60 
  -6  -4   3    6.10    0.40 
  -6  -4   3    5.90    0.40 
  -6  -4   3    6.00    0.40 
  -5  -4   3    4.80    0.40 
  -5  -4   3    5.20    0.30 
  -5  -4   3    4.40    0.30 
   4   4  -3   93.99    4.30 
  -4  -4   3   97.69    3.80 
  -4  -4   3   90.29    4.30 
  -4  -4   3  103.69    3.90 
   3   4  -3  173.38    7.00 
  -3  -4   3  174.48    7.10 
  -3  -4   3  166.68    6.60 
  -3  -4   3  173.48    6.60 
  -3  -4   3  162.68    6.60 
  -3  -4   3  173.68    6.60 
   2   4  -3  155.88    5.80 
  -2  -4   3  142.89    5.80 
  -2  -4   3  136.99    5.50 
  -2  -4   3  127.89    5.40 
  -2  -4   3  138.79    5.40 
   1   4  -3  543.15   20.70 
  -1  -4   3  529.25   27.70 
  -1  -4   3  539.95   20.80 
   0   4  -3  212.38    9.40 
   0  -4   3  269.77    9.40 
   0  -4   3  234.68    9.40 
  -1   4  -3   18.60    1.00 
   1  -4   3   16.60    0.90 
   1  -4   3   15.70    0.90 
  -2   4  -3  204.68    8.20 
   2  -4   3  199.58    7.90 
  -3   4  -3  109.39    4.60 
  -3   4  -3  103.79    4.00 
   3  -4   3  102.49    4.20 
   3  -4   3  101.39    4.10 
  -4   4  -3  439.76   17.20 
  -4   4  -3  457.45   17.80 
  -4   4  -3  443.36   19.00 
   4  -4   3  459.15   17.20 
  -5   4  -3  155.58    5.90 
  -5   4  -3  142.79    6.60 
  -5   4  -3  150.98    5.90 
   5  -4   3  163.68    6.00 
  -6   4  -3  447.66   17.40 
   6  -4   3  465.85   17.50 
  -7   4  -3    0.50    0.10 
   7  -4   3    0.40    0.10 
   7   3  -3    0.00    0.10 
  -7  -3   3    0.30    0.10 
  -7  -3   3    0.10    0.10 
  -6  -3   3    9.40    0.50 
  -6  -3   3    9.50    0.50 
  -6  -3   3    9.40    0.50 
  -5  -3   3   79.09    3.20 
  -5  -3   3   78.29    3.20 
  -5  -3   3   79.29    3.20 
   4   3  -3    2.40    0.40 
  -4  -3   3    2.00    0.20 
  -4  -3   3    1.70    0.40 
  -4  -3   3    2.80    0.20 
  -4  -3   3    2.80    0.20 
   3   3  -3    3.60    0.40 
  -3  -3   3    3.30    0.30 
  -3  -3   3    3.80    0.30 
  -3  -3   3    3.30    0.20 
  -3  -3   3    4.50    0.50 
   2   3  -3  294.07   11.70 
  -2  -3   3  304.57   11.80 
   1   3  -3  148.49    5.60 
  -1  -3   3  141.39    5.60 
  -1  -3   3  130.69    5.60 
   0   3  -3  593.24   41.50 
   0  -3   3  550.64   22.60 
   0  -3   3  617.54   22.50 
  -1   3  -3   65.09    2.80 
   1  -3   3   59.69    2.70 
   1  -3   3   64.19    2.60 
  -2   3  -3  176.98    6.60 
   2  -3   3  154.18    6.30 
   2  -3   3  154.68    6.40 
  -3   3  -3  649.34   24.90 
   3  -3   3  586.14   24.50 
   3  -3   3  688.33   24.70 
  -4   3  -3  245.68    9.40 
  -4   3  -3  237.68    9.30 
  -4   3  -3  256.37    9.90 
  -4   3  -3  247.58    9.40 
   4  -3   3  233.68    9.70 
  -5   3  -3   20.70    0.90 
  -5   3  -3   23.10    1.00 
  -6   3  -3  310.77   11.90 
  -7   3  -3   73.59    2.80 
   7  -3   3   70.59    2.90 
  -8   3  -3  127.79    4.90 
   7   2  -3  118.89    4.60 
  -7  -2   3  121.39    4.60 
  -7  -2   3  111.29    4.50 
  -6  -2   3   86.59    3.40 
  -6  -2   3   87.19    3.50 
  -6  -2   3   85.79    3.50 
   5   2  -3    0.20    0.20 
  -5  -2   3    0.10    0.20 
  -5  -2   3    0.30    0.10 
  -5  -2   3    0.30    0.10 
   4   2  -3 1435.46   85.29 
  -4  -2   3 1431.76   52.29 
  -4  -2   3 1391.86   52.29 
  -4  -2   3 1336.97   52.29 
  -4  -2   3 1269.07   82.29 
   3   2  -3   93.19    3.90 
  -3  -2   3   91.49    4.00 
   2   2  -3 3263.37  162.08 
  -2  -2   3 3464.25  168.48 
   1   2  -3  489.25   20.00 
  -1  -2   3  555.44   20.10 
   0   2  -3  173.28    6.90 
   0  -2   3  191.18    6.90 
   0  -2   3  156.98    7.90 
  -1   2  -3    5.20    0.40 
   1  -2   3    5.00    0.40 
   1  -2   3    6.30    0.30 
  -2   2  -3   39.00    1.90 
   2  -2   3   40.40    1.80 
  -3   2  -3   19.50    1.10 
   3  -2   3   17.60    1.00 
   3  -2   3   17.80    0.90 
  -4   2  -3   70.89    2.70 
  -4   2  -3   75.29    3.20 
  -4   2  -3   70.39    2.80 
  -4   2  -3   63.79    2.80 
  -5   2  -3    2.40    0.20 
  -5   2  -3    2.20    0.20 
  -5   2  -3    2.00    0.20 
   5  -2   3    2.00    0.50 
  -6   2  -3   52.69    2.10 
  -6   2  -3   52.29    2.10 
  -6   2  -3   49.70    2.10 
  -7   2  -3    0.00    0.10 
  -7   2  -3    0.00    0.10 
  -8   2  -3    2.00    0.10 
   8  -2   3    2.10    0.20 
   7   1  -3    9.10    0.40 
  -7  -1   3    8.30    0.40 
  -7  -1   3    7.60    0.40 
   6   1  -3   67.89    2.70 
  -6  -1   3   65.29    2.70 
  -6  -1   3   68.99    2.80 
   5   1  -3  253.37   10.20 
  -5  -1   3  250.57    9.80 
  -5  -1   3  243.68    9.80 
  -5  -1   3  259.77   10.30 
  -5  -1   3  258.97    9.80 
   4   1  -3  409.16   15.20 
  -4  -1   3  373.26   14.80 
  -4  -1   3  357.86   15.50 
  -4  -1   3  413.56   15.30 
  -4  -1   3  382.96   14.80 
   3   1  -3  218.38    8.10 
  -3  -1   3  188.78    8.10 
   2   1  -3  236.58    9.10 
  -2  -1   3  229.28    9.20 
   1   1  -3  191.08    7.50 
   1   1  -3  201.58    7.50 
  -1  -1   3  184.88    7.50 
   0   1  -3  592.24   29.90 
   0   1  -3  589.94   22.70 
   0  -1   3  588.74   22.60 
  -1   1  -3    2.80    0.30 
   1  -1   3    2.60    0.20 
  -2   1  -3  547.75   40.90 
   2  -1   3  533.65   20.50 
  -3   1  -3 1382.66   50.59 
  -3   1  -3 1291.97   50.59 
   3  -1   3 1293.57   50.39 
  -4   1  -3  376.76   13.80 
  -4   1  -3  364.16   14.20 
  -4   1  -3  347.27   13.70 
  -4   1  -3  353.86   14.20 
  -4   1  -3  358.06   13.80 
  -5   1  -3  780.82   28.50 
  -5   1  -3  686.93   29.00 
  -5   1  -3  737.53   36.00 
  -5   1  -3  783.02   28.50 
  -6   1  -3   95.09    3.70 
  -6   1  -3   90.09    3.70 
  -6   1  -3   95.69    3.70 
  -7   1  -3  119.09    4.50 
  -7   1  -3  120.79    4.60 
  -7   1  -3  110.59    4.60 
  -8   1  -3   40.50    1.60 
   8  -1   3   43.30    1.70 
   7   0  -3   81.69    3.20 
  -7   0   3   77.99    3.20 
   6   0  -3   87.59    3.40 
  -6   0   3   82.59    3.40 
  -6   0   3   87.09    3.40 
  -6   0   3   83.69    3.30 
   5   0  -3   56.59    2.80 
  -5   0   3   57.89    2.40 
  -5   0   3   61.79    2.30 
  -5   0   3   58.59    2.40 
  -5   0   3   56.69    2.80 
   4   0  -3   17.40    1.00 
  -4   0   3   16.60    1.00 
  -4   0   3   15.40    0.70 
  -4   0   3   16.10    0.70 
   3   0  -3  212.38    8.30 
  -3   0   3  207.88    8.40 
   2   0  -3   13.60    0.70 
   2   0  -3   12.60    0.60 
  -2   0   3   13.20    0.70 
   1   0  -3  526.65   20.40 
   1   0  -3  538.95   20.50 
  -1   0   3  538.85   20.50 
   0   0  -3  337.27   13.50 
   0   0  -3  354.76   16.40 
   0   0   3  359.66   13.50 
  -1   0  -3  381.06   26.50 
   1   0   3  399.06   15.10 
  -2   0  -3   19.30    1.00 
  -2   0  -3   19.80    1.10 
   2   0   3   18.70    0.80 
  -3   0  -3   83.99    3.50 
  -3   0  -3   83.99    3.50 
   3   0   3   81.79    3.30 
  -4   0  -3  529.55   20.20 
  -4   0  -3  530.45   20.60 
  -5   0  -3  569.34   20.60 
  -5   0  -3  532.15   20.60 
  -5   0  -3  548.45   20.50 
  -5   0  -3  501.55   21.10 
  -6   0  -3  105.39    4.30 
  -6   0  -3  106.69    4.30 
  -6   0  -3  112.59    4.20 
  -7   0  -3   17.10    0.80 
  -7   0  -3   18.90    0.80 
  -7   0  -3   18.50    0.80 
   8  -1  -3    2.40    0.20 
   7  -1  -3   30.10    1.20 
  -7   1   3   28.70    1.20 
  -7   1   3   28.60    1.20 
   6  -1  -3    0.20    0.10 
  -6   1   3    0.10    0.10 
  -6   1   3    0.10    0.10 
   5  -1  -3  146.99    5.70 
   5  -1  -3  148.29    6.10 
  -5   1   3  146.29    6.10 
  -5   1   3  141.49    5.70 
  -5   1   3  143.69    5.60 
   4  -1  -3  227.38    9.00 
   4  -1  -3  239.08    9.40 
  -4   1   3  225.68    9.00 
  -4   1   3  248.48    9.40 
   3  -1  -3  162.48    6.80 
  -3   1   3  175.98    6.80 
   2  -1  -3   57.89    2.40 
   2  -1  -3   57.79    2.40 
  -2   1   3   57.09    2.40 
   1  -1  -3 5380.06  244.28 
   1  -1  -3 5587.44  234.68 
  -1   1   3 5911.01  241.88 
   0  -1  -3 1882.21   80.59 
   0  -1  -3 1800.72   98.59 
   0   1   3 1886.01   91.29 
  -1  -1  -3 1930.71   85.89 
  -1  -1  -3 2170.08  113.19 
   1   1   3 2049.20  105.29 
  -2  -1  -3   57.99    2.40 
  -2  -1  -3   55.19    2.40 
   2   1   3   49.80    2.20 
  -3  -1  -3  952.30   33.20 
  -3  -1  -3  818.02   33.10 
   3   1   3  819.32   32.90 
  -4  -1  -3   12.70    0.60 
  -4  -1  -3   12.10    0.60 
  -4  -1  -3   14.20    1.00 
  -4  -1  -3   13.10    0.60 
  -5  -1  -3   14.90    0.70 
  -5  -1  -3   15.40    0.70 
  -5  -1  -3   15.00    0.70 
  -5  -1  -3   14.30    1.10 
  -6  -1  -3   18.80    0.80 
  -6  -1  -3   17.30    0.90 
  -6  -1  -3   18.50    0.90 
  -7  -1  -3   37.70    1.60 
  -7  -1  -3   38.60    1.50 
  -7  -1  -3   38.40    1.60 
   8  -2  -3    0.90    0.10 
   7  -2  -3   94.39    3.60 
  -7   2   3   89.19    3.60 
   6  -2  -3  119.09    4.70 
  -6   2   3  116.89    4.60 
   5  -2  -3   67.89    2.70 
   5  -2  -3   67.49    3.10 
  -5   2   3   65.19    2.60 
   4  -2  -3  468.45   18.20 
   4  -2  -3  486.55   18.60 
  -4   2   3  487.85   18.50 
  -4   2   3  464.25   18.20 
   3  -2  -3   19.70    1.00 
  -3   2   3   17.80    1.00 
  -3   2   3   18.40    1.00 
   2  -2  -3  263.77   10.30 
  -2   2   3  264.17   10.20 
   1  -2  -3 1048.30   40.20 
   1  -2  -3 1050.89   67.59 
  -1   2   3 1061.39   57.09 
   0  -2  -3  180.68    7.00 
   0  -2  -3  171.88    6.80 
   0   2   3  177.58    6.90 
  -1  -2  -3 1290.57   48.90 
  -1  -2  -3 1263.97   61.49 
  -2  -2  -3  834.92   31.20 
  -2  -2  -3  815.32   52.49 
   2   2   3  784.42   31.00 
  -3  -2  -3   46.70    2.20 
  -3  -2  -3   51.29    2.30 
   3   2   3   50.19    2.10 
  -4  -2  -3  116.59    4.50 
  -4  -2  -3  119.39    4.50 
  -4  -2  -3  110.99    4.90 
  -4  -2  -3  110.89    4.40 
  -5  -2  -3   18.40    0.80 
  -5  -2  -3   19.60    0.90 
  -5  -2  -3   18.30    0.90 
  -5  -2  -3   17.60    1.30 
  -6  -2  -3   24.30    1.10 
  -6  -2  -3   26.20    1.10 
  -6  -2  -3   24.80    1.10 
  -7  -2  -3   85.29    3.30 
  -7  -2  -3   82.49    3.30 
   7  -3  -3   39.00    1.60 
  -7   3   3   37.90    1.60 
   6  -3  -3    4.00    0.30 
  -6   3   3    4.20    0.30 
   5  -3  -3   80.39    3.80 
   5  -3  -3   86.59    3.40 
  -5   3   3   87.69    3.30 
   4  -3  -3  208.38    8.10 
   4  -3  -3  216.68    8.50 
  -4   3   3  205.88    8.10 
   3  -3  -3   83.29    3.50 
  -3   3   3   81.09    3.60 
   2  -3  -3  493.35   18.30 
  -2   3   3  451.15   18.40 
   1  -3  -3  474.65   17.80 
   1  -3  -3  463.65   25.10 
  -1   3   3  430.56   17.40 
   0  -3  -3  203.28    7.90 
   0  -3  -3  207.98    8.20 
   0   3   3  198.38    7.90 
  -1  -3  -3    0.90    0.20 
   1   3   3    0.90    0.20 
  -2  -3  -3  302.57   12.00 
  -2  -3  -3  311.27   12.10 
  -2  -3  -3  312.87   12.20 
  -3  -3  -3  484.55   19.60 
  -3  -3  -3  522.55   20.00 
  -3  -3  -3  536.15   19.70 
  -3  -3  -3  514.45   19.60 
  -4  -3  -3   15.80    0.70 
  -4  -3  -3   15.20    1.10 
  -4  -3  -3   16.30    0.80 
  -4  -3  -3   16.20    0.80 
  -5  -3  -3    2.80    0.30 
  -5  -3  -3    2.80    0.20 
  -6  -3  -3   68.99    2.80 
  -6  -3  -3   70.59    2.80 
  -7  -3  -3    0.10    0.10 
  -7  -3  -3    0.10    0.10 
   7  -4  -3   78.79    3.00 
  -7   4   3   75.19    3.00 
   6  -4  -3   37.50    1.60 
  -6   4   3   37.30    1.50 
   5  -4  -3  189.58    7.40 
   5  -4  -3  189.08    7.90 
  -5   4   3  197.28    7.40 
   4  -4  -3 1604.54   74.79 
   4  -4  -3 1549.45   59.79 
  -4   4   3 1540.05   59.39 
   3  -4  -3  432.46   17.50 
   3  -4  -3  457.05   17.50 
   3  -4  -3  465.55   17.80 
   3  -4  -3  451.35   17.40 
  -3   4   3  463.95   17.40 
  -3   4   3  471.25   18.00 
   2  -4  -3   30.50    1.50 
  -2   4   3   28.90    1.60 
   1  -4  -3   11.20    0.70 
  -1   4   3   11.50    0.90 
   0  -4  -3    9.10    0.70 
   0  -4  -3    9.40    0.60 
  -1  -4  -3   86.59    3.80 
  -1  -4  -3   88.69    3.70 
  -2  -4  -3   58.49    2.80 
  -2  -4  -3   61.39    2.70 
  -2  -4  -3   64.49    2.70 
  -3  -4  -3    0.30    0.10 
  -3  -4  -3    0.30    0.20 
  -4  -4  -3    0.30    0.30 
  -4  -4  -3    0.50    0.10 
  -4  -4  -3    0.60    0.10 
  -5  -4  -3    1.70    0.20 
  -5  -4  -3    1.80    0.20 
  -6  -4  -3   69.89    2.80 
  -6  -4  -3   70.29    2.80 
   7  -5  -3   15.70    0.70 
  -7   5   3   16.00    0.70 
  -6   5   3    0.30    0.10 
   5  -5  -3  266.67   10.20 
  -5   5   3  261.77   10.10 
   4  -5  -3  417.76   15.70 
   4  -5  -3  399.26   16.20 
  -4   5   3  395.36   16.30 
  -4   5   3  430.46   15.70 
   3  -5  -3  120.89    4.80 
   3  -5  -3  120.99    5.20 
   3  -5  -3  120.39    4.80 
   3  -5  -3  127.99    4.80 
  -3   5   3  123.19    5.40 
  -3   5   3  125.09    4.80 
   2  -5  -3  538.85   20.90 
   2  -5  -3  550.54   20.90 
   2  -5  -3  504.25   24.90 
   2  -5  -3  562.14   21.30 
  -2   5   3  578.54   21.60 
   1  -5  -3  497.15   18.70 
   1  -5  -3  464.65   18.30 
   1  -5  -3  481.55   18.30 
   1  -5  -3  460.85   18.30 
  -1   5   3  495.75   19.00 
   0  -5  -3  607.34   23.70 
   0  -5  -3  604.84   23.60 
   0  -5  -3  647.54   24.00 
   0  -5  -3  574.24   23.60 
   0   5   3  666.83   24.30 
  -1  -5  -3   91.39    3.90 
  -1  -5  -3   89.59    3.60 
  -1  -5  -3   91.29    3.70 
  -1  -5  -3   93.49    3.60 
   1   5   3   99.79    4.20 
  -2  -5  -3   16.30    1.00 
  -2  -5  -3   16.10    0.70 
  -2  -5  -3   16.10    0.70 
  -3  -5  -3  161.28    6.40 
  -4  -5  -3    2.90    0.20 
  -4  -5  -3    2.80    0.20 
  -5  -5  -3   80.89    3.20 
  -5  -5  -3   83.19    3.20 
   7  -6  -3   43.30    1.70 
  -7   6   3   42.70    1.70 
   6  -6  -3    1.60    0.20 
  -6   6   3    1.60    0.20 
   5  -6  -3   92.69    3.90 
  -5   6   3  104.19    3.90 
   4  -6  -3   44.20    1.90 
   4  -6  -3   51.09    2.00 
  -4   6   3   46.20    1.90 
   3  -6  -3  195.28    8.20 
   3  -6  -3  206.88    7.80 
   3  -6  -3  204.28    7.80 
   3  -6  -3  208.68    7.80 
  -3   6   3  197.18    8.50 
  -3   6   3  198.18    7.80 
   2  -6  -3    0.80    0.30 
   2  -6  -3    1.10    0.20 
   2  -6  -3    1.00    0.20 
  -2   6   3    0.90    0.20 
   1  -6  -3  715.13   28.60 
   1  -6  -3  744.13   28.60 
   1  -6  -3  753.52   29.00 
   1  -6  -3  778.42   28.50 
  -1   6   3  754.62   29.30 
   0  -6  -3   46.00    1.80 
   0  -6  -3   44.00    2.20 
   0  -6  -3   48.80    1.90 
   0  -6  -3   45.20    1.90 
   0   6   3   45.40    2.50 
  -1  -6  -3  232.28    9.40 
  -1  -6  -3  234.28    9.00 
  -1  -6  -3  231.38    8.90 
  -1  -6  -3  234.78    9.00 
   1   6   3  232.68    9.60 
  -2  -6  -3    5.90    0.40 
  -2  -6  -3    6.90    0.40 
  -6   7   3    2.40    0.20 
   5  -7  -3   65.09    2.50 
  -5   7   3   63.59    2.50 
  -5   7   3   61.39    2.50 
   4  -7  -3   25.60    1.10 
   4  -7  -3   25.20    1.10 
  -4   7   3   23.40    1.00 
   3  -7  -3   51.69    2.20 
   3  -7  -3   53.99    2.20 
   3  -7  -3   54.79    2.20 
   2  -7  -3  226.78    8.20 
   2  -7  -3  205.08    8.30 
   2  -7  -3  203.78    8.70 
   2  -7  -3  225.68    8.30 
  -2   7   3  204.38    9.00 
   1  -7  -3   14.50    0.70 
   1  -7  -3   13.80    1.00 
   1  -7  -3   15.60    0.80 
   1  -7  -3   17.80    0.70 
  -1   7   3   15.00    1.30 
   0  -7  -3   36.50    1.50 
   0  -7  -3   36.70    1.50 
   0  -7  -3   32.10    1.90 
   0  -7  -3   36.30    1.50 
   0   7   3   36.30    2.10 
  -1  -7  -3   89.29    3.50 
  -1  -7  -3   91.09    3.60 
  -1  -7  -3   87.69    3.50 
  -2  -7  -3   90.19    3.60 
  -2  -7  -3   90.99    3.60 
   5  -8  -3  101.09    3.80 
  -5   8   3   93.49    3.70 
   4  -8  -3    0.70    0.10 
   3  -8  -3   17.10    0.80 
   3  -8  -3   16.80    0.80 
   3  -8  -3   16.70    0.80 
   2  -8  -3    9.70    0.50 
   2  -8  -3    9.50    0.50 
   2  -8  -3    9.50    0.50 
   1  -8  -3   56.49    2.30 
   1  -8  -3   57.59    2.30 
   1  -8  -3   56.19    2.30 
   0  -8  -3   21.40    0.90 
   0  -8  -3   21.00    1.00 
   0  -8  -3   21.30    0.90 
  -1  -8  -3   59.79    2.50 
  -1  -8  -3   63.29    2.50 
  -1  -8  -3   63.89    2.50 
  -2  -8  -3   23.60    1.00 
  -2  -8  -3   23.50    1.00 
  -4   9   3    0.90    0.10 
   3  -9  -3   14.80    0.70 
   3  -9  -3   15.30    0.70 
   2  -9  -3    2.30    0.20 
   2  -9  -3    2.50    0.20 
   2  -9  -3    2.20    0.20 
   1  -9  -3    9.60    0.50 
   1  -9  -3   10.50    0.50 
   1  -9  -3    9.30    0.50 
   0  -9  -3   20.60    0.90 
   0  -9  -3   20.10    0.90 
   0  -9  -3   18.70    0.80 
  -1  -9  -3    3.00    0.20 
  -1  -9  -3    2.70    0.20 
   2 -10  -3   22.30    0.90 
   2 -10  -3   23.20    0.90 
  -2  10   3   23.30    0.90 
   1 -10  -3   10.80    0.50 
   0  10  -4    0.40    0.10 
   0 -10   4    0.40    0.10 
   1 -10   4    0.30    0.10 
   2 -10   4   32.00    1.30 
  -3  10  -4    3.80    0.20 
   2   9  -4    3.80    0.20 
  -2  -9   4    5.00    0.30 
  -2  -9   4    4.10    0.30 
  -1  -9   4   22.10    1.00 
  -1  -9   4   23.50    1.00 
  -1  -9   4   23.40    1.00 
   0  -9   4    0.30    0.10 
   0  -9   4    0.40    0.10 
   0  -9   4    0.30    0.10 
  -1   9  -4   16.60    0.70 
   1  -9   4   17.60    0.80 
   1  -9   4   17.40    0.80 
   1  -9   4   16.60    0.70 
  -2   9  -4   48.20    1.80 
   2  -9   4   46.40    1.80 
   2  -9   4   42.70    1.80 
   2  -9   4   43.10    1.80 
  -3   9  -4    1.40    0.10 
   3  -9   4    1.50    0.20 
  -4   9  -4    3.70    0.20 
   4  -9   4    3.30    0.20 
  -5   9  -4   18.90    0.80 
  -4  -8   4   12.20    0.50 
  -4  -8   4   12.00    0.50 
   3   8  -4   44.00    1.80 
  -3  -8   4   45.40    1.80 
  -3  -8   4   47.40    1.90 
  -2  -8   4   74.29    2.90 
  -2  -8   4   73.09    2.90 
  -2  -8   4   69.69    2.90 
  -1  -8   4    6.90    0.40 
  -1  -8   4    6.60    0.40 
  -1  -8   4    6.90    0.40 
   0  -8   4   20.20    0.80 
   0  -8   4   16.80    0.90 
   0  -8   4   16.20    0.80 
  -1   8  -4  182.38    7.40 
   1  -8   4  187.18    7.40 
   1  -8   4  197.78    7.40 
   1  -8   4  198.18    7.50 
  -2   8  -4   43.40    1.70 
   2  -8   4   40.60    1.70 
   2  -8   4   42.00    1.70 
   2  -8   4   40.40    1.70 
  -3   8  -4    6.70    0.40 
   3  -8   4    7.30    0.40 
  -4   8  -4   10.80    0.50 
   4  -8   4   10.80    0.50 
  -5   8  -4    0.30    0.10 
   5  -8   4    0.30    0.10 
  -4  -7   4    4.90    0.30 
  -4  -7   4    4.30    0.30 
   3   7  -4   24.20    1.10 
  -3  -7   4   23.50    1.00 
  -3  -7   4   23.80    1.10 
  -2  -7   4  130.49    5.20 
  -2  -7   4  139.19    5.20 
  -2  -7   4  125.29    5.10 
  -1  -7   4    1.80    0.20 
  -1  -7   4    2.00    0.20 
   0  -7   4  575.04   19.30 
   0  -7   4  504.35   19.20 
   0  -7   4  477.15   19.30 
   0  -7   4  456.35   19.60 
  -1   7  -4  409.96   16.50 
  -1   7  -4  409.26   15.80 
   1  -7   4  419.46   15.80 
   1  -7   4  452.85   15.80 
   1  -7   4  382.06   15.80 
   1  -7   4  401.66   16.20 
  -2   7  -4   78.69    3.90 
  -2   7  -4   83.89    3.20 
   2  -7   4   79.69    3.30 
   2  -7   4   82.19    3.30 
   2  -7   4   83.39    3.20 
  -3   7  -4    8.90    0.50 
   3  -7   4    9.40    0.50 
  -4   7  -4   27.70    1.10 
   4  -7   4   26.70    1.20 
  -5   7  -4   17.10    0.70 
   5  -7   4   16.90    0.80 
  -6   7  -4   15.70    0.70 
   6  -7   4   16.30    0.70 
  -5  -6   4   47.00    1.80 
  -5  -6   4   42.60    1.80 
  -5  -6   4   47.10    1.80 
   4   6  -4   30.50    1.40 
  -4  -6   4   33.80    1.40 
  -4  -6   4   33.80    1.40 
  -4  -6   4   34.40    1.40 
  -3  -6   4  737.93   28.80 
  -3  -6   4  772.22   28.80 
   2   6  -4   87.69    4.00 
  -2  -6   4   91.59    3.60 
  -2  -6   4   92.89    3.60 
  -2  -6   4   90.69    3.60 
  -1  -6   4  437.56   16.70 
  -1  -6   4  446.86   16.70 
  -1  -6   4  414.56   17.00 
  -1  -6   4  442.96   16.70 
   0   6  -4  106.99    4.90 
   0  -6   4  118.19    4.50 
   0  -6   4  116.79    4.80 
   0  -6   4  112.09    4.40 
   0  -6   4  112.79    4.50 
  -1   6  -4  608.94   23.40 
  -1   6  -4  599.74   22.80 
   1  -6   4  609.24   22.90 
   1  -6   4  590.64   22.90 
   1  -6   4  585.24   23.20 
   1  -6   4  598.24   22.80 
  -2   6  -4  539.35   22.20 
  -2   6  -4  568.04   21.60 
   2  -6   4  589.84   21.60 
  -3   6  -4  783.72   29.70 
  -3   6  -4  743.93   28.80 
   3  -6   4  744.13   28.90 
  -4   6  -4    6.20    0.30 
   4  -6   4    6.10    0.40 
  -5   6  -4    0.10    0.10 
   5  -6   4    0.20    0.10 
  -6   6  -4    1.20    0.10 
   6  -6   4    1.50    0.20 
   7  -6   4   25.80    1.10 
  -6  -5   4   19.20    0.80 
  -6  -5   4   19.30    0.80 
  -5  -5   4    1.50    0.20 
  -5  -5   4    1.60    0.20 
   4   5  -4    3.10    0.20 
  -4  -5   4    3.40    0.30 
  -4  -5   4    3.40    0.30 
   3   5  -4    7.80    0.80 
  -3  -5   4    7.90    0.50 
  -3  -5   4    8.10    0.50 
  -3  -5   4    8.10    0.50 
  -3  -5   4    8.30    0.50 
  -3  -5   4    7.40    0.80 
   2   5  -4  288.47   11.60 
  -2  -5   4  284.87   11.20 
  -2  -5   4  293.87   11.20 
  -2  -5   4  285.57   11.70 
  -2  -5   4  307.87   11.30 
  -2  -5   4  295.27   11.30 
  -1  -5   4  294.67   10.90 
  -1  -5   4  292.17   11.20 
  -1  -5   4  278.67   10.90 
  -1  -5   4  282.07   11.20 
  -1  -5   4  267.67   10.80 
   0   5  -4  642.94   24.70 
   0  -5   4  625.24   24.30 
   0  -5   4  657.03   24.60 
   0  -5   4  629.74   24.30 
   0  -5   4  629.54   24.30 
  -1   5  -4  130.29    5.10 
  -1   5  -4  133.09    5.60 
   1  -5   4  128.59    5.20 
   1  -5   4  131.09    5.20 
   1  -5   4  142.59    5.40 
  -2   5  -4  242.78    9.60 
  -2   5  -4  216.98    9.00 
   2  -5   4  245.58    9.40 
   2  -5   4  232.18    9.00 
  -3   5  -4   29.80    1.20 
  -3   5  -4   29.80    1.80 
   3  -5   4   29.50    1.30 
  -4   5  -4    4.70    0.30 
  -4   5  -4    4.80    0.70 
   4  -5   4    4.70    0.30 
  -5   5  -4   14.80    0.70 
  -5   5  -4   15.00    0.70 
   5  -5   4   16.00    0.80 
  -6   5  -4   24.50    1.00 
   6  -5   4   25.40    1.10 
  -7   5  -4    4.10    0.20 
   7  -5   4    4.00    0.20 
  -6  -4   4   20.40    0.90 
  -6  -4   4   21.30    0.90 
  -6  -4   4   20.80    0.90 
  -5  -4   4    2.60    0.20 
  -5  -4   4    2.40    0.20 
  -5  -4   4    2.80    0.30 
   4   4  -4  123.79    4.90 
   4   4  -4  122.89    5.30 
  -4  -4   4  132.89    4.90 
  -4  -4   4  106.89    5.30 
  -4  -4   4  129.49    4.90 
  -4  -4   4  128.49    4.90 
   3   4  -4   53.99    2.50 
  -3  -4   4   55.49    2.60 
  -3  -4   4   52.49    2.20 
  -3  -4   4   49.70    2.20 
  -3  -4   4   53.09    2.20 
   2   4  -4  518.65   19.20 
  -2  -4   4  498.75   18.80 
  -2  -4   4  443.36   18.80 
  -2  -4   4  503.25   18.90 
  -2  -4   4  499.55   19.20 
  -2  -4   4  494.95   18.80 
  -1  -4   4  457.55   17.40 
  -1  -4   4  434.26   17.30 
   0   4  -4  150.38    6.50 
   0  -4   4  173.68    6.40 
   0  -4   4  153.08    6.40 
  -1   4  -4  128.19    5.30 
   1  -4   4  126.19    5.10 
   1  -4   4  126.09    5.10 
  -2   4  -4    1.00    0.30 
   2  -4   4    0.90    0.20 
  -3   4  -4   37.80    2.10 
  -3   4  -4   37.50    1.50 
   3  -4   4   37.80    1.60 
  -4   4  -4   22.10    1.00 
  -4   4  -4   23.70    1.00 
  -4   4  -4   21.90    1.50 
   4  -4   4   24.20    1.00 
  -5   4  -4  291.77   11.20 
  -5   4  -4  286.37   11.20 
  -5   4  -4  279.47   11.90 
   5  -4   4  309.47   11.30 
  -6   4  -4    0.30    0.10 
   6  -4   4    0.30    0.10 
  -7   4  -4  123.69    4.80 
   7  -4   4  124.69    4.80 
   7   3  -4   70.09    2.60 
  -7  -3   4   65.19    2.60 
  -6  -3   4   87.79    3.60 
  -6  -3   4   92.99    3.60 
  -5  -3   4  693.93   36.40 
  -5  -3   4  686.83   26.80 
  -5  -3   4  731.63   35.90 
   4   3  -4  409.26   16.70 
  -4  -3   4  424.26   16.20 
  -4  -3   4  420.76   16.20 
  -4  -3   4  418.06   16.80 
  -4  -3   4  443.56   16.20 
   3   3  -4  124.69    5.10 
   3   3  -4  138.99    5.50 
  -3  -3   4  141.39    5.60 
  -3  -3   4  127.19    5.10 
  -3  -3   4  127.49    5.10 
  -3  -3   4  130.69    5.10 
   2   3  -4  446.26   24.10 
  -2  -3   4  470.25   17.90 
   1   3  -4 3720.73  176.28 
   1   3  -4 3796.72  175.98 
  -1  -3   4 3702.53  185.58 
   0   3  -4  998.30   37.30 
   0  -3   4  968.50   37.30 
   0  -3   4  953.20   37.20 
  -1   3  -4   44.20    2.10 
   1  -3   4   42.60    1.90 
   1  -3   4   46.30    2.00 
  -2   3  -4   51.79    2.40 
   2  -3   4   50.99    2.30 
   3  -3   4    1.20    0.10 
  -4   3  -4  137.99    5.50 
  -4   3  -4  143.29    5.50 
  -4   3  -4  146.79    6.10 
   4  -3   4  140.39    5.90 
  -5   3  -4  148.19    5.90 
  -5   3  -4  155.38    5.90 
  -6   3  -4    5.20    0.30 
   6  -3   4    5.60    0.40 
  -7   3  -4   27.60    1.10 
   7  -3   4   26.40    1.20 
   7   2  -4   38.60    1.60 
  -7  -2   4   38.70    1.60 
   6   2  -4   27.60    1.20 
  -6  -2   4   27.10    1.20 
  -6  -2   4   26.90    1.20 
   5   2  -4   90.69    4.40 
  -5  -2   4  102.59    4.60 
  -5  -2   4  100.39    4.00 
  -5  -2   4   98.29    4.00 
  -5  -2   4  109.19    4.00 
   4   2  -4  276.47   10.70 
  -4  -2   4  266.77   10.80 
  -4  -2   4  271.47   10.30 
  -4  -2   4  270.57   10.20 
  -4  -2   4  244.88   10.20 
   3   2  -4    9.60    0.70 
  -3  -2   4    9.30    0.50 
  -3  -2   4    9.00    0.50 
  -3  -2   4   10.10    0.80 
   2   2  -4  194.98    7.80 
  -2  -2   4  198.58    7.90 
   1   2  -4  479.75   20.00 
   1   2  -4  509.05   20.00 
  -1  -2   4  576.24   20.20 
   0   2  -4   50.39    2.20 
   0  -2   4   47.50    2.10 
  -1   2  -4   12.50    0.80 
   1  -2   4   13.10    0.80 
   1  -2   4   13.40    0.60 
  -2   2  -4   41.90    2.00 
   2  -2   4   41.10    1.90 
  -3   2  -4   78.39    3.50 
   3  -2   4   79.39    3.40 
  -4   2  -4    1.60    0.20 
  -4   2  -4    2.20    0.50 
  -4   2  -4    1.80    0.20 
  -4   2  -4    1.60    0.20 
  -4   2  -4    2.30    0.20 
   4  -2   4    1.80    0.40 
  -5   2  -4  395.56   14.70 
  -5   2  -4  417.96   14.80 
  -5   2  -4  351.66   14.70 
   5  -2   4  372.66   15.30 
  -6   2  -4  195.78    7.90 
  -6   2  -4  207.68    7.90 
  -6   2  -4  211.08    7.90 
  -7   2  -4   12.30    0.60 
  -7   2  -4   11.90    0.60 
   7  -2   4   12.40    0.60 
   7   1  -4    8.40    0.40 
  -7  -1   4    8.30    0.40 
   6   1  -4   42.30    1.70 
  -6  -1   4   40.10    1.70 
   5   1  -4   10.60    0.90 
  -5  -1   4   10.80    0.60 
  -5  -1   4   10.10    0.50 
  -5  -1   4   11.30    0.60 
  -5  -1   4   10.60    0.90 
   4   1  -4  931.61   35.30 
  -4  -1   4  924.81   34.90 
  -4  -1   4  899.01   35.40 
  -4  -1   4  909.51   34.90 
   3   1  -4  887.01   50.79 
  -3  -1   4 1134.89   39.30 
   2   1  -4  998.20   35.00 
  -2  -1   4  831.52   35.10 
   1   1  -4 1438.06   72.09 
   1   1  -4 1390.96   74.99 
  -1  -1   4 1403.86   83.39 
   0   1  -4  436.06   17.70 
   0   1  -4  452.75   17.50 
   0  -1   4  488.75   17.70 
  -1   1  -4   36.20    1.70 
   1  -1   4   37.90    1.70 
  -2   1  -4 2067.39  123.19 
   2  -1   4 2268.87  121.09 
  -3   1  -4  927.71   34.70 
   3  -1   4  871.31   34.60 
  -4   1  -4   39.00    1.60 
  -4   1  -4   37.20    1.50 
  -4   1  -4   37.00    1.50 
  -4   1  -4   38.80    2.00 
  -4   1  -4   33.60    1.50 
  -5   1  -4    2.70    0.20 
  -5   1  -4    2.70    0.30 
  -5   1  -4    3.10    0.30 
   5  -1   4    2.90    0.50 
  -6   1  -4  188.68    7.60 
  -6   1  -4  196.58    7.50 
  -6   1  -4  201.18    7.60 
  -7   1  -4   97.29    3.90 
  -7   1  -4  102.19    3.90 
   7   0  -4   76.49    3.00 
  -7   0   4   75.49    3.00 
   6   0  -4    2.70    0.20 
  -6   0   4    2.50    0.20 
  -6   0   4    2.80    0.30 
   5   0  -4    5.10    0.30 
   5   0  -4    4.70    0.60 
  -5   0   4    4.40    0.30 
  -5   0   4    4.50    0.60 
  -5   0   4    4.80    0.30 
   4   0  -4   90.89    3.70 
  -4   0   4   86.99    3.30 
  -4   0   4   79.49    3.30 
  -4   0   4   84.79    3.70 
  -4   0   4   76.39    3.30 
   3   0  -4  378.66   13.90 
  -3   0   4  329.87   13.90 
   2   0  -4   12.20    0.70 
   2   0  -4   11.50    0.60 
  -2   0   4   11.70    0.70 
   1   0  -4   50.49    2.20 
   1   0  -4   49.70    2.10 
  -1   0   4   49.80    2.20 
   0   0  -4  591.34   23.50 
   0   0  -4  610.74   23.20 
   0   0   4  630.04   23.50 
  -1   0  -4  778.72   30.00 
   1   0   4  783.72   30.00 
  -2   0  -4   -0.20    0.10 
   2   0   4   -0.20    0.10 
  -3   0  -4   10.80    0.80 
  -4   0  -4  158.68    6.30 
  -4   0  -4  159.58    6.70 
  -4   0  -4  169.58    6.70 
  -4   0  -4  160.28    6.30 
  -4   0  -4  161.58    6.20 
  -5   0  -4  326.37   12.20 
  -5   0  -4  298.97   12.20 
  -5   0  -4  323.67   12.10 
  -6   0  -4   14.70    0.70 
  -6   0  -4   15.50    0.80 
  -6   0  -4   15.30    0.70 
  -7   0  -4    1.30    0.20 
  -7   0  -4    1.10    0.10 
   7  -1  -4  152.18    5.60 
  -7   1   4  137.59    5.60 
   6  -1  -4  266.47   10.10 
  -6   1   4  261.57   10.00 
  -6   1   4  252.37   10.00 
   5  -1  -4   19.30    1.30 
   5  -1  -4   20.00    0.90 
  -5   1   4   20.10    0.80 
  -5   1   4   19.30    0.90 
  -5   1   4   18.30    1.20 
   4  -1  -4    0.10    0.10 
   4  -1  -4    0.10    0.10 
  -4   1   4    0.40    0.20 
  -4   1   4    0.10    0.10 
   3  -1  -4   21.90    1.20 
  -3   1   4   23.40    1.20 
   2  -1  -4 1202.18   44.00 
   2  -1  -4 1052.89   43.90 
  -2   1   4 1192.68   44.00 
   1  -1  -4 1811.02  100.09 
   1  -1  -4 1719.93   69.29 
  -1   1   4 1960.00   99.59 
   0  -1  -4  679.13   26.20 
   0  -1  -4  694.03   47.90 
   0   1   4  690.53   26.30 
  -1  -1  -4  652.03   25.70 
   1   1   4  689.33   46.50 
   2   1   4  850.21   54.19 
  -3  -1  -4  143.79    5.80 
  -3  -1  -4  149.69    6.10 
  -3  -1  -4  151.08    6.10 
  -4  -1  -4  109.39    4.80 
  -4  -1  -4  113.09    4.30 
  -4  -1  -4  109.49    4.30 
  -4  -1  -4  107.79    4.30 
  -5  -1  -4   19.60    0.90 
  -5  -1  -4   19.70    0.90 
  -5  -1  -4   19.20    0.90 
  -6  -1  -4    0.50    0.10 
  -6  -1  -4    0.40    0.10 
  -7  -1  -4  145.79    5.60 
  -7  -1  -4  146.29    5.60 
  -7  -1  -4  144.39    5.60 
   7  -2  -4   30.50    1.30 
  -7   2   4   29.20    1.20 
   6  -2  -4   23.90    1.10 
  -6   2   4   23.10    1.00 
   5  -2  -4   95.89    4.30 
   5  -2  -4   95.49    3.80 
  -5   2   4   93.39    3.70 
   4  -2  -4   39.50    2.00 
  -4   2   4   41.30    1.90 
  -4   2   4   34.50    1.50 
   3  -2  -4  667.73   24.90 
  -3   2   4  631.14   24.90 
  -3   2   4  636.04   24.80 
   2  -2  -4  690.63   26.40 
   2  -2  -4  682.03   26.30 
  -2   2   4  681.03   26.30 
   1  -2  -4 2041.10   98.69 
   1  -2  -4 2192.38  118.19 
  -1   2   4 1874.31   94.39 
   0  -2  -4 3892.41  203.28 
   0  -2  -4 3977.60  173.88 
   0   2   4 4392.06  189.18 
  -1  -2  -4 1144.09   45.40 
  -1  -2  -4 1214.38   45.80 
   1   2   4 1222.28   45.60 
  -2  -2  -4 1437.26   53.19 
   2   2   4 1321.57   84.09 
  -3  -2  -4  378.96   15.10 
  -3  -2  -4  402.36   14.70 
  -3  -2  -4  376.36   19.40 
  -3  -2  -4  379.76   15.10 
  -4  -2  -4  318.57   12.50 
  -4  -2  -4  348.27   16.90 
  -4  -2  -4  283.07   12.00 
  -4  -2  -4  311.87   12.00 
  -5  -2  -4   31.90    1.40 
  -5  -2  -4   33.40    1.40 
  -5  -2  -4   31.50    1.30 
  -6  -2  -4   40.90    1.70 
  -6  -2  -4   42.00    1.70 
  -6  -2  -4   41.90    1.70 
  -7  -2  -4    1.10    0.10 
  -7  -2  -4    1.20    0.10 
   7  -3  -4   19.00    0.80 
  -7   3   4   18.80    0.80 
   6  -3  -4   12.00    0.60 
  -6   3   4   11.90    0.60 
   5  -3  -4   20.20    0.90 
   5  -3  -4   19.00    1.30 
  -5   3   4   20.20    0.90 
   4  -3  -4   42.30    1.80 
   4  -3  -4   42.80    2.20 
  -4   3   4   46.30    1.80 
   3  -3  -4    1.00    0.30 
   3  -3  -4    1.00    0.10 
   2  -3  -4    2.10    0.30 
  -2   3   4    2.10    0.40 
   1  -3  -4  399.66   15.30 
   1  -3  -4  421.36   15.60 
  -1   3   4  368.56   15.30 
   0  -3  -4   27.80    1.50 
   0  -3  -4   28.00    1.30 
   0   3   4   26.50    1.30 
  -1  -3  -4    5.00    0.40 
  -1  -3  -4    6.30    0.60 
   1   3   4    4.60    0.40 
  -2  -3  -4   97.09    4.20 
   2   3   4   99.49    4.20 
  -3  -3  -4   69.69    3.60 
  -3  -3  -4   71.59    2.80 
  -3  -3  -4   73.29    2.90 
  -4  -3  -4  147.99    5.60 
  -4  -3  -4  139.89    5.60 
  -4  -3  -4  144.29    5.60 
  -5  -3  -4    0.20    0.10 
  -5  -3  -4    0.30    0.10 
  -5  -3  -4    0.40    0.10 
  -6  -3  -4   18.80    0.80 
  -6  -3  -4   17.50    0.80 
   7  -4  -4   24.50    1.00 
  -7   4   4   24.40    1.00 
   6  -4  -4   27.70    1.20 
  -6   4   4   27.80    1.20 
   5  -4  -4  275.67   10.40 
  -5   4   4  265.57   10.40 
   4  -4  -4  131.89    5.00 
   4  -4  -4  122.19    5.40 
  -4   4   4  128.99    5.00 
   3  -4  -4   44.70    1.90 
   3  -4  -4   44.70    1.90 
   3  -4  -4   47.90    1.90 
   3  -4  -4   48.70    2.20 
  -3   4   4   48.00    1.90 
  -3   4   4   46.10    2.40 
   2  -4  -4  171.18    6.60 
   2  -4  -4  152.68    6.60 
   2  -4  -4  182.98    6.90 
   2  -4  -4  169.08    6.60 
   2  -4  -4  168.98    6.60 
  -2   4   4  178.08    7.10 
   1  -4  -4   26.30    1.30 
   1  -4  -4   22.20    1.10 
   0  -4  -4  148.69    6.40 
   0  -4  -4  172.38    6.30 
   0  -4  -4  162.68    6.80 
  -1  -4  -4  395.06   15.20 
  -1  -4  -4  386.16   15.30 
  -1  -4  -4  392.66   15.50 
  -1  -4  -4  424.76   15.90 
  -2  -4  -4  116.49    4.70 
  -2  -4  -4  116.79    4.70 
  -2  -4  -4  129.29    5.30 
   2   4   4  122.59    5.10 
  -3  -4  -4    0.20    0.10 
  -3  -4  -4    0.00    0.10 
   3   4   4    0.00    0.20 
  -4  -4  -4   32.60    1.40 
  -4  -4  -4   31.70    1.40 
  -5  -4  -4    6.90    0.40 
  -5  -4  -4    7.30    0.40 
  -6  -4  -4   60.59    2.30 
  -6  -4  -4   55.69    2.30 
   7  -5  -4   53.39    2.10 
  -7   5   4   53.69    2.10 
   6  -5  -4   13.80    0.70 
  -6   5   4   14.50    0.60 
   5  -5  -4   14.80    0.70 
  -5   5   4   15.40    0.70 
   4  -5  -4  506.65   18.70 
   4  -5  -4  480.65   18.60 
   4  -5  -4  482.65   21.00 
   4  -5  -4  464.25   19.10 
  -4   5   4  503.05   18.60 
   3  -5  -4  406.86   15.80 
   3  -5  -4  412.86   16.30 
   3  -5  -4  424.06   15.80 
   3  -5  -4  413.16   15.80 
  -3   5   4  419.96   15.80 
  -3   5   4  403.36   16.50 
   2  -5  -4   63.29    2.60 
   2  -5  -4   68.09    3.00 
   2  -5  -4   61.89    2.60 
   2  -5  -4   65.69    2.60 
   2  -5  -4   63.89    2.60 
  -2   5   4   67.69    3.20 
   1  -5  -4  176.58    7.10 
   1  -5  -4  186.58    7.10 
   1  -5  -4  180.58    7.10 
   1  -5  -4  179.08    7.00 
   1  -5  -4  183.48    7.40 
  -1   5   4  194.68    7.80 
   0  -5  -4   44.40    1.80 
   0  -5  -4   41.00    1.70 
   0  -5  -4   43.60    2.00 
   0  -5  -4   40.40    1.70 
   0  -5  -4   43.50    1.70 
   0   5   4   45.70    2.40 
  -1  -5  -4   44.30    1.80 
  -1  -5  -4   41.80    1.80 
   1   5   4   47.10    2.40 
  -2  -5  -4  196.18    7.60 
  -2  -5  -4  204.28    7.70 
   2   5   4  196.08    8.20 
   7  -6  -4    1.90    0.10 
   6  -6  -4   24.30    1.00 
  -6   6   4   24.40    1.00 
   5  -6  -4    4.50    0.30 
  -5   6   4    4.50    0.30 
   4  -6  -4  450.65   17.50 
   4  -6  -4  436.26   17.50 
   4  -6  -4  473.75   17.50 
  -4   6   4  470.85   18.90 
   3  -6  -4  240.28    9.20 
   3  -6  -4  250.17    9.20 
   3  -6  -4  243.78    9.20 
   3  -6  -4  234.08    9.60 
  -3   6   4  239.78    9.10 
  -3   6   4  219.18    9.90 
   2  -6  -4  539.45   21.80 
   2  -6  -4  605.64   30.10 
   2  -6  -4  567.34   22.20 
   2  -6  -4  564.34   21.80 
  -2   6   4  594.94   21.80 
  -2   6   4  562.94   22.60 
   1  -6  -4   96.89    4.30 
   1  -6  -4  105.19    3.90 
   1  -6  -4   95.99    3.90 
   1  -6  -4   98.69    4.00 
   1  -6  -4  101.69    4.00 
  -1   6   4  106.49    4.80 
   0  -6  -4  589.24   23.90 
   0  -6  -4  611.74   23.60 
   0  -6  -4  608.24   23.50 
   0  -6  -4  677.33   23.50 
   0   6   4  594.64   24.30 
  -1  -6  -4   87.19    3.50 
  -1  -6  -4   85.19    3.50 
  -1  -6  -4   91.09    3.50 
   1   6   4   89.69    4.20 
  -2  -6  -4   47.40    2.00 
   6  -7  -4    1.60    0.10 
  -6   7   4    1.50    0.10 
   5  -7  -4   20.90    0.90 
  -5   7   4   19.10    0.80 
   4  -7  -4   18.00    0.80 
   4  -7  -4   18.40    0.80 
   4  -7  -4   17.80    0.80 
  -4   7   4   17.50    0.80 
   3  -7  -4    7.50    0.40 
   3  -7  -4    7.90    0.40 
   3  -7  -4    7.50    0.40 
  -3   7   4    7.10    0.40 
   2  -7  -4   19.40    0.90 
   2  -7  -4   19.20    0.90 
   2  -7  -4   19.50    0.90 
   1  -7  -4  296.87   11.30 
   1  -7  -4  292.97   11.20 
   1  -7  -4  286.77   11.20 
   0  -7  -4    0.60    0.10 
   0  -7  -4    0.70    0.20 
   0  -7  -4    0.80    0.10 
  -1  -7  -4   47.90    1.90 
  -1  -7  -4   48.80    2.00 
  -1  -7  -4   46.70    1.90 
  -2  -7  -4  134.09    5.20 
   4  -8  -4   12.30    0.60 
   4  -8  -4   11.80    0.50 
   3  -8  -4    1.40    0.20 
   3  -8  -4    1.50    0.20 
   3  -8  -4    1.60    0.20 
   2  -8  -4   12.30    0.60 
   2  -8  -4   12.70    0.60 
   2  -8  -4   13.00    0.60 
   1  -8  -4   68.69    2.70 
   1  -8  -4   69.99    2.80 
   1  -8  -4   67.29    2.70 
   0  -8  -4   38.70    1.60 
   0  -8  -4   38.10    1.60 
   0  -8  -4   38.80    1.60 
  -1  -8  -4  103.19    3.90 
  -1  -8  -4   96.19    3.90 
   4  -9  -4    5.70    0.30 
  -4   9   4    5.80    0.30 
   3  -9  -4    8.50    0.40 
   3  -9  -4    8.60    0.40 
   3  -9  -4    8.90    0.40 
   2  -9  -4   20.60    0.90 
   2  -9  -4   20.60    0.90 
   2  -9  -4   20.40    0.90 
   1  -9  -4   89.79    3.60 
   1  -9  -4   93.99    3.60 
   1  -9  -4   90.69    3.60 
   0  -9  -4    0.60    0.10 
   0  -9  -4    0.70    0.10 
  -1  -9  -4    5.50    0.30 
   1 -10   5    5.20    0.30 
   1   9  -5   15.50    0.70 
  -1  -9   5   15.30    0.70 
  -1  -9   5   14.80    0.70 
   0  -9   5    6.50    0.30 
   0  -9   5    6.90    0.40 
   1  -9   5    0.60    0.10 
  -2   9  -5  154.08    5.90 
   2  -9   5  152.28    5.90 
  -3   9  -5  251.87    9.30 
   3  -9   5  232.78    9.30 
  -4   9  -5   24.50    1.00 
   4  -9   5   23.00    1.00 
   3   8  -5    4.90    0.30 
  -3  -8   5    5.20    0.30 
  -3  -8   5    4.60    0.30 
   2   8  -5   11.50    0.60 
  -2  -8   5   11.40    0.50 
  -2  -8   5   11.80    0.60 
  -1  -8   5    7.00    0.40 
  -1  -8   5    7.10    0.40 
   0  -8   5    0.30    0.10 
   0  -8   5    0.40    0.10 
   0  -8   5    0.60    0.10 
  -1   8  -5    6.60    0.40 
   1  -8   5    7.40    0.40 
   1  -8   5    7.40    0.40 
  -2   8  -5    0.70    0.10 
   2  -8   5    0.90    0.20 
   2  -8   5    0.90    0.20 
  -3   8  -5    9.40    0.50 
   3  -8   5    9.30    0.50 
  -4   8  -5    8.80    0.40 
   4  -8   5    9.10    0.50 
  -5   8  -5   45.60    1.80 
   5  -8   5   45.90    1.80 
  -4  -7   5   16.80    0.70 
  -4  -7   5   16.50    0.70 
   3   7  -5    0.40    0.10 
  -3  -7   5    0.40    0.10 
  -3  -7   5    0.40    0.10 
  -2  -7   5    5.10    0.30 
  -2  -7   5    5.40    0.40 
  -1  -7   5  287.37   11.50 
  -1  -7   5  316.37   11.50 
  -1  -7   5  292.57   11.50 
   0  -7   5  118.99    4.80 
   0  -7   5  121.89    4.90 
   0  -7   5  131.29    4.90 
  -1   7  -5  108.29    4.40 
   1  -7   5  117.79    4.50 
   1  -7   5  112.69    4.50 
  -2   7  -5    3.90    0.20 
   2  -7   5    3.00    0.30 
  -3   7  -5  473.25   17.30 
   3  -7   5  433.36   17.40 
  -4   7  -5   72.39    2.90 
   4  -7   5   75.19    3.00 
  -5   7  -5   45.70    1.80 
   5  -7   5   46.10    1.90 
  -6   7  -5    0.60    0.10 
   6  -7   5    0.60    0.10 
  -5  -6   5    4.50    0.20 
  -5  -6   5    4.10    0.20 
  -5  -6   5    4.00    0.20 
   4   6  -5    6.00    0.30 
  -4  -6   5    6.40    0.40 
  -4  -6   5    6.50    0.40 
  -4  -6   5    6.20    0.40 
  -3  -6   5   11.40    0.60 
  -3  -6   5   11.90    0.60 
  -3  -6   5   11.80    0.60 
   2   6  -5    4.50    0.80 
  -2  -6   5    4.50    0.30 
  -2  -6   5    4.60    0.30 
   1   6  -5  230.98   10.00 
  -1  -6   5  270.97    9.70 
  -1  -6   5  246.68    9.70 
  -1  -6   5  254.77    9.70 
   0  -6   5   62.19    2.60 
   0  -6   5   66.59    2.70 
   0  -6   5   67.49    2.70 
  -1   6  -5 1253.17   48.20 
  -1   6  -5 1191.58   47.50 
   1  -6   5 1251.57   47.60 
   1  -6   5 1319.97   62.49 
  -2   6  -5  510.85   18.80 
  -2   6  -5  465.75   19.50 
   2  -6   5  500.65   18.90 
  -3   6  -5   12.00    1.10 
  -3   6  -5   12.50    0.60 
   3  -6   5   12.90    0.70 
   4  -6   5    0.90    0.20 
  -5   6  -5  202.08    7.60 
   5  -6   5  193.38    7.70 
  -6   6  -5    8.20    0.40 
   6  -6   5    8.30    0.40 
   6   5  -5   19.30    0.80 
  -5  -5   5    2.00    0.20 
  -5  -5   5    2.00    0.20 
  -5  -5   5    2.20    0.20 
   4   5  -5   28.60    1.30 
  -4  -5   5   30.30    1.30 
  -4  -5   5   31.30    1.30 
  -4  -5   5   31.70    1.30 
   3   5  -5  322.57   13.90 
   3   5  -5  359.66   13.50 
  -3  -5   5  327.67   14.00 
  -3  -5   5  378.96   13.50 
  -3  -5   5  361.46   13.50 
  -3  -5   5  355.96   13.50 
   2   5  -5   71.99    3.30 
  -2  -5   5   73.89    2.90 
  -2  -5   5   71.39    2.90 
  -2  -5   5   71.99    2.90 
  -2  -5   5   73.69    3.30 
  -2  -5   5   73.59    2.90 
   1   5  -5  130.09    5.60 
  -1  -5   5  143.09    5.30 
  -1  -5   5  141.59    5.70 
  -1  -5   5  138.79    5.40 
  -1  -5   5  129.89    5.30 
   0  -5   5   35.80    1.50 
   0  -5   5   33.80    1.70 
   0  -5   5   34.40    1.50 
  -1   5  -5  662.13   26.30 
  -1   5  -5  770.12   27.00 
   1  -5   5  632.54   26.40 
   1  -5   5  700.53   26.40 
  -2   5  -5   79.09    3.70 
  -2   5  -5   75.69    3.10 
   2  -5   5   79.39    3.10 
  -3   5  -5  779.72   28.70 
  -3   5  -5  696.13   29.40 
   3  -5   5  785.42   28.80 
  -4   5  -5  131.49    6.00 
  -4   5  -5  136.79    5.30 
   4  -5   5  139.29    5.30 
  -5   5  -5   22.10    1.00 
   5  -5   5   22.50    1.00 
  -6   5  -5   37.00    1.50 
  -6   5  -5   36.90    1.50 
   6  -5   5   42.10    1.60 
   7  -5   5    0.40    0.10 
   6   4  -5   45.40    1.80 
  -6  -4   5   43.80    1.80 
  -6  -4   5   46.20    1.80 
  -5  -4   5   29.30    1.30 
  -5  -4   5   30.70    1.30 
  -5  -4   5   28.70    1.30 
   4   4  -5  478.65   18.80 
  -4  -4   5  488.45   18.90 
  -4  -4   5  509.25   18.90 
  -4  -4   5  494.25   18.90 
   3   4  -5  247.48    9.40 
   3   4  -5  237.08    9.90 
  -3  -4   5  258.97    9.50 
  -3  -4   5  236.58    9.40 
  -3  -4   5  240.38   10.00 
  -3  -4   5  246.88    9.40 
   2   4  -5  363.56   14.30 
  -2  -4   5  360.56   14.00 
  -2  -4   5  349.27   14.40 
  -2  -4   5  355.76   14.60 
  -2  -4   5  391.36   14.00 
   1   4  -5  204.58    8.30 
  -1  -4   5  209.78    8.10 
  -1  -4   5  237.88    8.50 
  -1  -4   5  195.28    8.10 
  -1  -4   5  205.18    8.10 
   0   4  -5  352.06   13.20 
   0  -4   5  315.47   13.10 
   0  -4   5  330.47   12.80 
   0  -4   5  332.37   12.80 
   0  -4   5  343.97   13.00 
  -1   4  -5   13.00    0.90 
   1  -4   5   12.00    0.60 
   1  -4   5   13.00    0.80 
  -2   4  -5  194.58    7.40 
  -2   4  -5  199.78    8.00 
   2  -4   5  195.68    7.80 
   2  -4   5  183.78    7.50 
  -3   4  -5   13.80    0.60 
  -3   4  -5   14.20    1.10 
   3  -4   5   13.10    0.70 
  -4   4  -5   73.69    3.00 
  -4   4  -5   77.79    3.70 
  -4   4  -5   73.29    3.00 
   4  -4   5   78.59    3.10 
  -5   4  -5    0.30    0.10 
  -5   4  -5    0.10    0.10 
   5  -4   5    0.10    0.10 
  -6   4  -5   22.30    0.90 
   6  -4   5   22.40    1.00 
  -7   4  -5   45.10    1.80 
   7  -4   5   49.30    1.90 
   7   3  -5   40.30    1.60 
  -7  -3   5   40.60    1.70 
   6   3  -5   29.50    1.20 
  -6  -3   5   26.80    1.20 
  -6  -3   5   29.50    1.20 
  -5  -3   5  208.58    8.40 
  -5  -3   5  220.58    8.40 
  -5  -3   5  222.78    8.40 
   4   3  -5   20.70    1.30 
   4   3  -5   18.60    0.90 
  -4  -3   5   20.80    1.40 
  -4  -3   5   21.60    1.00 
  -4  -3   5   18.90    0.90 
  -4  -3   5   21.90    0.90 
   3   3  -5  138.09    5.60 
   3   3  -5  137.49    5.30 
  -3  -3   5  132.59    5.30 
  -3  -3   5  136.99    5.30 
  -3  -3   5  126.79    5.70 
  -3  -3   5  136.89    5.30 
   2   3  -5   11.00    0.70 
   2   3  -5   10.30    0.50 
  -2  -3   5   11.30    0.80 
  -2  -3   5   10.30    0.50 
   1   3  -5 1116.69   46.40 
   1   3  -5 1173.18   46.50 
  -1  -3   5 1360.56   46.70 
   0   3  -5  114.09    4.90 
   0   3  -5  125.99    5.10 
   0  -3   5  129.69    5.10 
  -1   3  -5  102.89    4.00 
   1  -3   5   79.19    3.80 
  -2   3  -5  132.39    5.70 
   2  -3   5  137.79    5.60 
  -3   3  -5  129.29    5.00 
  -3   3  -5  122.09    5.00 
  -3   3  -5  126.99    5.00 
  -3   3  -5  124.09    5.60 
   3  -3   5  131.79    5.40 
   3  -3   5  136.59    5.00 
  -4   3  -5    0.70    0.20 
  -4   3  -5    0.40    0.10 
  -4   3  -5    0.40    0.10 
  -4   3  -5    0.40    0.30 
   4  -3   5    0.70    0.20 
   4  -3   5    0.60    0.30 
  -5   3  -5   22.50    1.00 
  -5   3  -5   21.40    1.00 
  -5   3  -5   22.10    0.90 
   5  -3   5   22.40    1.00 
  -6   3  -5   14.50    0.70 
   6  -3   5   14.40    0.70 
  -7   3  -5  130.29    5.20 
   7  -3   5  138.69    5.20 
   7   2  -5  138.39    5.30 
  -7  -2   5  135.99    5.30 
   6   2  -5   69.49    2.80 
  -6  -2   5   68.19    2.80 
  -5  -2   5   72.99    2.90 
  -5  -2   5   72.79    3.00 
   4   2  -5   88.79    3.90 
   4   2  -5   78.69    3.40 
  -4  -2   5   90.09    3.50 
  -4  -2   5   88.49    3.50 
  -4  -2   5   89.69    3.50 
  -4  -2   5   85.29    4.00 
   3   2  -5  140.79    5.50 
   3   2  -5  128.79    5.20 
  -3  -2   5  131.79    5.20 
  -3  -2   5  136.09    5.20 
  -3  -2   5  127.79    5.60 
   2   2  -5    8.00    0.60 
  -2  -2   5    9.40    0.70 
   1   2  -5 1719.73   87.19 
   1   2  -5 1681.03   64.39 
  -1  -2   5 1669.03   64.49 
   0   2  -5  741.83   27.60 
   0   2  -5  689.03   27.30 
   0  -2   5  716.13   27.60 
  -1   2  -5    0.80    0.30 
   1  -2   5    0.90    0.30 
  -2   2  -5  241.98    9.80 
   2  -2   5  245.48    9.70 
  -3   2  -5    1.00    0.30 
  -3   2  -5    0.70    0.10 
  -3   2  -5    0.80    0.10 
  -3   2  -5    0.60    0.10 
   3  -2   5    0.60    0.20 
  -4   2  -5    0.00    0.20 
  -4   2  -5    0.00    0.10 
  -4   2  -5    0.20    0.10 
  -4   2  -5    0.00    0.10 
  -4   2  -5    0.00    0.10 
   4  -2   5    0.40    0.30 
  -5   2  -5  245.28    9.80 
  -5   2  -5  263.07    9.80 
  -5   2  -5  267.07    9.80 
  -5   2  -5  248.88    9.70 
   5  -2   5  245.68   10.40 
  -6   2  -5  246.28    9.30 
  -6   2  -5  233.88    9.30 
   6  -2   5  247.08    9.40 
  -7   2  -5    0.40    0.10 
   7  -2   5    0.40    0.10 
   7   1  -5   43.10    1.70 
  -7  -1   5   41.20    1.70 
   6   1  -5   61.79    2.50 
  -6  -1   5   60.89    2.50 
  -5  -1   5    8.20    0.50 
  -5  -1   5    8.00    0.80 
   4   1  -5    2.60    0.40 
   4   1  -5    1.60    0.20 
  -4  -1   5    1.60    0.40 
  -4  -1   5    1.70    0.20 
   3   1  -5   88.39    3.50 
   3   1  -5   88.79    3.70 
  -3  -1   5   85.29    3.50 
  -3  -1   5   82.59    3.40 
  -3  -1   5   94.39    3.90 
   2   1  -5  292.07   11.80 
  -2  -1   5  312.67   11.90 
   1   1  -5    3.60    0.40 
   1   1  -5    3.40    0.30 
  -1  -1   5    4.10    0.40 
   0   1  -5    7.20    0.60 
   0  -1   5    7.00    0.60 
  -1   1  -5   28.50    1.50 
   1  -1   5   29.50    1.50 
  -2   1  -5   76.19    3.40 
   2  -1   5   73.89    3.30 
  -3   1  -5   25.10    1.50 
  -3   1  -5   21.70    1.00 
  -3   1  -5   27.90    1.10 
  -3   1  -5   22.40    1.00 
  -4   1  -5   71.99    3.40 
  -4   1  -5   71.39    2.90 
  -4   1  -5   71.89    2.90 
  -4   1  -5   74.19    2.90 
  -4   1  -5   73.59    2.90 
   4  -1   5   73.09    3.40 
  -5   1  -5  154.98    5.80 
  -5   1  -5  154.28    5.80 
  -5   1  -5  145.19    5.80 
   5  -1   5  139.99    6.40 
  -6   1  -5   99.89    3.70 
  -6   1  -5   95.79    3.70 
  -6   1  -5   88.09    3.70 
  -7   1  -5   22.00    0.90 
  -7   1  -5   21.20    0.90 
   7  -1   5   21.60    0.90 
   7   0  -5    2.50    0.20 
  -7   0   5    2.70    0.20 
  -6   0   5   64.69    2.60 
   5   0  -5    0.30    0.20 
   5   0  -5    0.40    0.10 
  -5   0   5    0.30    0.10 
  -5   0   5    0.30    0.10 
  -5   0   5    0.30    0.30 
   4   0  -5   63.29    2.60 
   4   0  -5   66.39    3.00 
   4   0  -5   64.59    2.60 
  -4   0   5   64.29    2.60 
  -4   0   5   66.99    2.70 
  -4   0   5   69.09    3.10 
   3   0  -5   35.20    1.70 
  -3   0   5   34.20    1.50 
  -3   0   5   35.80    1.80 
   2   0  -5    5.00    0.40 
   2   0  -5    5.20    0.40 
  -2   0   5    5.30    0.50 
   1   0  -5    4.60    0.30 
   1   0  -5    4.70    0.50 
   0   0   5  351.26   13.80 
  -1   0  -5    4.80    0.50 
   1   0   5    3.30    0.40 
  -2   0  -5  616.14   24.90 
   2   0   5  668.03   24.90 
  -3   0  -5  339.47   12.70 
  -3   0  -5  342.57   13.20 
  -3   0  -5  310.27   12.60 
  -3   0  -5  325.77   12.70 
   3   0   5  338.17   13.20 
  -4   0  -5   64.49    2.70 
  -4   0  -5   70.39    2.70 
  -4   0  -5   71.89    3.30 
  -4   0  -5   69.79    2.80 
   4   0   5   67.09    3.30 
  -5   0  -5   23.00    1.00 
  -5   0  -5   21.50    1.00 
  -5   0  -5   22.30    1.00 
   5   0   5   21.20    1.50 
  -6   0  -5    2.30    0.20 
  -6   0  -5    2.20    0.20 
  -7   0  -5   66.19    2.60 
  -7   0  -5   64.49    2.60 
   7   0   5   66.39    2.60 
   7  -1  -5   69.99    2.80 
   6  -1  -5  262.57    9.90 
  -6   1   5  243.78    9.80 
  -6   1   5  260.77    9.80 
   5  -1  -5  115.29    5.10 
   5  -1  -5  117.99    4.60 
  -5   1   5  115.69    5.00 
  -5   1   5  114.99    4.50 
  -5   1   5  117.39    4.60 
   4  -1  -5   87.99    3.40 
   4  -1  -5   88.29    3.80 
   4  -1  -5   86.69    3.40 
  -4   1   5   86.09    3.80 
  -4   1   5   83.69    3.40 
  -4   1   5   88.69    3.40 
   3  -1  -5   42.80    2.00 
  -3   1   5   43.80    2.10 
   2  -1  -5  286.57   11.10 
   2  -1  -5  286.47   11.00 
  -2   1   5  274.97   11.10 
   1  -1  -5  204.58    8.00 
   1  -1  -5  207.98    8.20 
  -1   1   5  205.68    8.20 
   0  -1  -5 1324.57   49.90 
   0   1   5 1277.87   49.70 
  -1  -1  -5  103.99    4.50 
   1   1   5  103.99    4.30 
  -2  -1  -5  651.53   24.00 
   2   1   5  582.64   23.90 
  -3  -1  -5   86.59    3.90 
  -3  -1  -5   90.09    3.30 
  -3  -1  -5   74.69    3.30 
  -3  -1  -5   79.79    3.40 
  -3  -1  -5   89.39    3.40 
   3   1   5   91.89    3.90 
  -4  -1  -5  410.76   16.10 
  -4  -1  -5  416.26   16.10 
  -4  -1  -5  431.96   16.10 
   4   1   5  424.06   16.70 
  -5  -1  -5    0.20    0.10 
  -5  -1  -5    0.30    0.10 
  -5  -1  -5    0.20    0.10 
  -6  -1  -5    4.70    0.30 
  -6  -1  -5    4.90    0.30 
  -6  -1  -5    5.20    0.30 
  -7  -1  -5   33.50    1.30 
  -7  -1  -5   35.50    1.40 
   7   1   5   32.20    1.40 
   7  -2  -5    0.40    0.10 
   6  -2  -5  118.59    4.50 
  -6   2   5  107.59    4.40 
   5  -2  -5    4.90    0.60 
   5  -2  -5    5.20    0.30 
  -5   2   5    5.20    0.30 
   3  -2  -5   28.30    1.40 
   3  -2  -5   26.20    1.10 
   3  -2  -5   26.10    1.10 
  -3   2   5   27.40    1.40 
   2  -2  -5   86.79    3.70 
   2  -2  -5   87.39    3.60 
  -2   2   5   82.89    3.60 
   1  -2  -5   29.60    1.60 
   1  -2  -5   29.70    1.30 
  -1   2   5   28.70    1.40 
   0  -2  -5  134.49    5.60 
   0   2   5  130.79    5.40 
  -1  -2  -5 1510.45   61.99 
   1   2   5 1728.23   61.89 
  -2  -2  -5  205.68    8.40 
  -2  -2  -5  222.98    8.90 
   2   2   5  229.38    8.90 
  -3  -2  -5  228.28    9.40 
  -3  -2  -5  223.38    8.80 
  -3  -2  -5  228.58    8.90 
   3   2   5  237.38    9.40 
  -4  -2  -5    3.40    0.30 
  -4  -2  -5    3.40    0.20 
  -4  -2  -5    3.10    0.30 
   4   2   5    3.00    0.60 
  -5  -2  -5   70.49    2.90 
  -5  -2  -5   73.29    2.90 
  -5  -2  -5   73.89    2.90 
  -6  -2  -5    6.20    0.40 
  -6  -2  -5    6.40    0.40 
  -6  -2  -5    6.60    0.30 
  -7  -2  -5   70.99    2.80 
   7  -3  -5   13.40    0.60 
  -7   3   5   12.80    0.60 
   6  -3  -5    3.00    0.20 
  -6   3   5    2.80    0.20 
   5  -3  -5   61.59    2.50 
  -5   3   5   62.79    2.50 
   4  -3  -5   35.70    1.90 
   4  -3  -5   37.90    1.60 
   4  -3  -5   36.30    1.60 
  -4   3   5   38.90    1.50 
   3  -3  -5   95.99    4.00 
   3  -3  -5   91.89    3.60 
   3  -3  -5   91.29    3.60 
  -3   3   5   89.39    4.10 
   2  -3  -5   58.99    2.50 
   2  -3  -5   55.39    2.30 
   1  -3  -5   90.39    3.70 
   1  -3  -5   91.09    4.00 
   0  -3  -5  557.84   21.30 
   0   3   5  532.55   21.00 
  -1  -3  -5 1211.78   47.10 
  -1  -3  -5 1123.59   47.10 
  -1  -3  -5 1358.86   47.70 
   1   3   5 1272.17   75.49 
  -2  -3  -5    2.20    0.20 
  -2  -3  -5    3.20    0.50 
   2   3   5    2.00    0.40 
  -3  -3  -5   71.19    3.40 
  -3  -3  -5   69.19    2.80 
  -3  -3  -5   71.29    2.90 
  -3  -3  -5   73.29    2.80 
   3   3   5   75.79    3.40 
  -4  -3  -5  107.29    4.10 
  -4  -3  -5  104.39    4.20 
  -5  -3  -5   13.30    0.60 
  -5  -3  -5   13.90    0.70 
  -5  -3  -5   14.00    0.60 
  -6  -3  -5    6.70    0.40 
  -6  -3  -5    6.20    0.30 
   7  -4  -5  136.79    5.20 
  -7   4   5  133.89    5.20 
   6  -4  -5  110.69    4.30 
  -6   4   5  110.89    4.30 
   5  -4  -5  138.19    5.40 
  -5   4   5  138.99    5.40 
   4  -4  -5    0.10    0.10 
   4  -4  -5    0.10    0.20 
   4  -4  -5    0.30    0.10 
  -4   4   5    0.10    0.10 
   3  -4  -5  211.88    8.40 
   3  -4  -5  203.58    8.00 
   3  -4  -5  202.48    7.90 
   3  -4  -5  206.88    8.00 
  -3   4   5  209.28    8.60 
   2  -4  -5   25.40    1.10 
   2  -4  -5   26.60    1.10 
   2  -4  -5   26.00    1.40 
   2  -4  -5   25.40    1.10 
   2  -4  -5   25.30    1.10 
  -2   4   5   25.40    1.60 
   1  -4  -5   35.10    1.50 
   1  -4  -5   37.70    2.00 
   1  -4  -5   35.40    1.50 
   1  -4  -5   37.50    1.70 
   1  -4  -5   34.20    1.50 
   0  -4  -5  137.49    5.10 
   0  -4  -5  130.39    5.10 
   0  -4  -5  137.49    5.80 
   0  -4  -5  127.09    5.20 
  -2  -4  -5  120.69    5.40 
  -2  -4  -5  121.39    4.70 
  -2  -4  -5  125.09    4.80 
  -3  -4  -5    0.10    0.10 
  -3  -4  -5    0.20    0.10 
  -4  -4  -5  155.18    6.10 
  -4  -4  -5  156.98    6.00 
  -5  -4  -5   40.80    1.70 
   7  -5  -5   28.40    1.10 
  -7   5   5   28.30    1.10 
   6  -5  -5   69.19    2.80 
  -6   5   5   69.69    2.70 
   5  -5  -5  101.09    4.00 
  -5   5   5  103.19    4.00 
   4  -5  -5   88.39    3.50 
   4  -5  -5   89.39    3.50 
   4  -5  -5   88.09    3.50 
  -4   5   5   89.99    3.50 
   3  -5  -5  542.25   20.10 
   3  -5  -5  505.65   20.60 
   3  -5  -5  522.05   20.20 
   3  -5  -5  547.55   20.20 
  -3   5   5  553.74   20.10 
  -3   5   5  491.85   20.80 
   2  -5  -5   98.79    3.90 
   2  -5  -5   96.99    3.90 
   2  -5  -5  100.79    3.90 
   2  -5  -5  100.09    4.30 
   2  -5  -5  101.89    4.00 
  -2   5   5  101.29    4.70 
   1  -5  -5  140.69    5.30 
   1  -5  -5  138.29    5.30 
   1  -5  -5  134.59    5.30 
   1  -5  -5  130.39    5.30 
   1  -5  -5  133.79    5.60 
  -1   5   5  141.19    6.00 
   0  -5  -5    2.30    0.20 
   0  -5  -5    2.10    0.20 
   0  -5  -5    2.00    0.20 
   0   5   5    2.20    0.50 
  -1  -5  -5    0.10    0.10 
  -1  -5  -5    0.20    0.10 
  -1  -5  -5    0.10    0.10 
  -2  -5  -5  177.28    6.60 
  -2  -5  -5  181.68    6.60 
   2   5   5  154.18    7.20 
   6  -6  -5   92.29    3.60 
  -6   6   5   93.99    3.60 
   5  -6  -5   57.89    2.40 
  -5   6   5   59.19    2.30 
   4  -6  -5   24.90    1.10 
   4  -6  -5   25.60    1.10 
   4  -6  -5   26.00    1.10 
  -4   6   5   25.70    1.10 
   3  -6  -5   11.20    0.60 
   3  -6  -5   11.30    0.60 
   3  -6  -5   11.50    0.60 
  -3   6   5   11.80    0.60 
   2  -6  -5   11.30    0.60 
   2  -6  -5   11.50    0.60 
   2  -6  -5    9.80    0.90 
   2  -6  -5   11.00    0.50 
  -2   6   5   10.40    1.10 
   1  -6  -5  288.77   11.70 
   1  -6  -5  328.87   11.70 
   1  -6  -5  300.57   11.70 
   1  -6  -5  310.47   11.80 
  -1   6   5  298.07   12.60 
   0  -6  -5   80.99    3.10 
   0  -6  -5   80.69    3.20 
   0  -6  -5   79.39    3.10 
   0   6   5   72.59    3.80 
  -1  -6  -5  256.27    9.90 
  -1  -6  -5  254.97    9.80 
  -2  -6  -5  142.69    5.60 
  -2  -6  -5  146.49    5.60 
   6  -7  -5    1.40    0.10 
   5  -7  -5   42.40    1.70 
  -5   7   5   42.60    1.70 
   4  -7  -5   70.09    2.70 
   4  -7  -5   69.09    2.70 
   4  -7  -5   66.99    2.70 
  -4   7   5   67.19    2.70 
   3  -7  -5   15.10    0.70 
   3  -7  -5   14.70    0.70 
   3  -7  -5   15.10    0.70 
  -3   7   5   14.70    0.70 
   2  -7  -5   17.80    0.80 
   2  -7  -5   18.20    0.80 
   2  -7  -5   17.40    0.80 
  -2   7   5   16.80    0.80 
   1  -7  -5  145.89    5.60 
   1  -7  -5  143.59    5.60 
   1  -7  -5  142.39    5.60 
   0  -7  -5    4.40    0.30 
   0  -7  -5    4.40    0.30 
  -1  -7  -5  201.08    7.80 
  -1  -7  -5  205.38    7.90 
   5  -8  -5    6.70    0.30 
   4  -8  -5    2.50    0.20 
   4  -8  -5    3.30    0.20 
   3  -8  -5   49.20    1.90 
   3  -8  -5   47.20    1.90 
   3  -8  -5   48.50    2.00 
   2  -8  -5  133.29    5.10 
   2  -8  -5  130.09    5.10 
   2  -8  -5  129.29    5.10 
   1  -8  -5    0.10    0.10 
   1  -8  -5    0.00    0.10 
   1  -8  -5    0.20    0.10 
   0  -8  -5   19.40    0.90 
   0  -8  -5   18.00    0.80 
  -1  -8  -5   10.10    0.50 
  -1  -8  -5   11.40    0.50 
   3  -9  -5    9.40    0.40 
   3  -9  -5   10.30    0.40 
   2  -9  -5   60.19    2.40 
   2  -9  -5   61.89    2.40 
   1  -9  -5    0.20    0.10 
   1  -9  -5    0.20    0.10 
   0  -9  -5    1.70    0.10 
   0  -9  -5    1.40    0.10 
   1   9  -6    0.80    0.10 
  -1  -9   6    0.70    0.10 
   0   9  -6    7.50    0.40 
   0  -9   6    7.30    0.40 
  -1   9  -6   82.09    3.30 
   1  -9   6   85.39    3.30 
  -2   9  -6    4.30    0.20 
   2  -9   6    4.20    0.30 
  -3   9  -6    2.10    0.10 
   3  -9   6    1.90    0.20 
  -4   9  -6    1.10    0.10 
   3   8  -6   42.60    1.70 
  -3  -8   6   42.20    1.70 
   2   8  -6   61.59    2.40 
  -2  -8   6   61.49    2.40 
  -2  -8   6   54.59    2.30 
   1   8  -6    4.40    0.30 
  -1  -8   6    4.70    0.30 
   0   8  -6    4.50    0.30 
   0  -8   6    4.40    0.30 
  -1   8  -6    3.20    0.20 
  -1   8  -6    3.10    0.20 
   1  -8   6    3.40    0.30 
  -2   8  -6    6.80    0.40 
   2  -8   6    7.10    0.40 
  -3   8  -6   65.39    2.60 
   3  -8   6   64.49    2.60 
  -4   8  -6    0.40    0.10 
  -5   8  -6   82.99    3.20 
   5  -8   6   85.09    3.30 
  -4  -7   6    7.60    0.40 
  -4  -7   6    7.70    0.40 
   3   7  -6   16.20    0.70 
  -3  -7   6   15.80    0.70 
  -3  -7   6   16.70    0.70 
   2   7  -6   84.19    3.30 
  -2  -7   6   79.39    3.20 
  -2  -7   6   81.19    3.30 
  -1  -7   6   55.69    2.20 
  -1  -7   6   56.59    2.30 
   0  -7   6   10.40    0.60 
  -1   7  -6   41.60    1.70 
   1  -7   6   45.40    1.80 
  -2   7  -6   95.69    3.80 
   2  -7   6   96.89    3.80 
  -3   7  -6   97.99    3.90 
   3  -7   6  102.79    4.00 
  -4   7  -6   10.90    0.50 
   4  -7   6   10.00    0.50 
  -5   7  -6    0.20    0.10 
   5  -7   6    0.20    0.10 
   6  -7   6    1.00    0.10 
   4   6  -6   37.10    1.50 
  -4  -6   6   36.40    1.50 
  -4  -6   6   36.60    1.50 
  -4  -6   6   36.80    1.50 
   3   6  -6   47.60    1.90 
  -3  -6   6   45.20    1.90 
  -3  -6   6   46.00    1.90 
  -3  -6   6   45.30    1.90 
   2   6  -6  234.38    8.60 
  -2  -6   6  214.88    8.60 
  -2  -6   6  218.08    8.60 
  -1  -6   6  167.08    6.50 
   0  -6   6  781.82   30.40 
   0  -6   6  813.62   30.50 
  -1   6  -6  378.16   14.10 
  -1   6  -6  342.37   14.70 
   1  -6   6  396.96   14.10 
   1  -6   6  353.76   14.10 
  -2   6  -6  784.42   31.80 
  -2   6  -6  790.92   31.00 
   2  -6   6  888.71   44.60 
  -3   6  -6  277.57   10.80 
   3  -6   6  283.17   10.80 
  -4   6  -6  344.27   12.90 
   4  -6   6  328.57   12.90 
  -5   6  -6   43.40    1.80 
   5  -6   6   44.00    1.80 
  -6   6  -6   12.50    0.60 
   6  -6   6   13.80    0.60 
  -5  -5   6    1.60    0.20 
  -5  -5   6    1.50    0.20 
  -5  -5   6    1.40    0.10 
   4   5  -6   26.30    1.10 
  -4  -5   6   25.40    1.10 
  -4  -5   6   27.20    1.20 
  -4  -5   6   27.20    1.10 
   3   5  -6   22.30    1.00 
  -3  -5   6   22.20    1.00 
  -3  -5   6   21.70    1.00 
  -3  -5   6   21.80    1.00 
   2   5  -6   16.40    0.70 
  -2  -5   6   13.70    1.10 
  -2  -5   6   14.00    0.70 
  -2  -5   6   14.20    0.70 
  -2  -5   6   15.20    0.70 
  -1  -5   6  302.07   12.20 
  -1  -5   6  318.27   11.80 
  -1  -5   6  301.67   11.80 
   0   5  -6   68.29    3.40 
   0  -5   6   70.09    3.00 
   0  -5   6   84.39    3.00 
  -1   5  -6  179.08    7.40 
  -1   5  -6  166.98    6.80 
   1  -5   6  183.38    6.90 
  -2   5  -6    5.50    0.30 
  -2   5  -6    5.50    0.70 
   2  -5   6    4.40    0.30 
  -3   5  -6    2.60    0.60 
  -3   5  -6    2.90    0.20 
   3  -5   6    2.40    0.30 
  -4   5  -6  246.28    9.70 
   4  -5   6  260.97    9.80 
  -5   5  -6   91.59    3.60 
   5  -5   6   94.69    3.70 
  -6   5  -6    0.30    0.10 
   6  -5   6    0.50    0.10 
   6   4  -6    1.80    0.10 
  -6  -4   6    2.00    0.20 
  -5  -4   6   92.49    3.60 
  -5  -4   6   95.89    3.60 
  -5  -4   6   87.49    3.60 
   4   4  -6   98.49    4.00 
  -4  -4   6  106.59    4.00 
  -4  -4   6   99.29    4.00 
  -4  -4   6   97.79    4.00 
   3   4  -6    6.00    0.40 
   3   4  -6    5.40    0.60 
  -3  -4   6    5.80    0.40 
  -3  -4   6    6.10    0.40 
  -3  -4   6    6.10    0.40 
  -3  -4   6    5.90    0.70 
   2   4  -6   44.40    1.80 
   2   4  -6   43.00    2.10 
  -2  -4   6   45.40    2.30 
  -2  -4   6   45.50    1.80 
  -2  -4   6   42.70    1.80 
  -2  -4   6   44.30    1.80 
   1   4  -6   43.20    1.80 
  -1  -4   6   41.60    1.80 
  -1  -4   6   42.70    1.80 
  -1  -4   6   45.00    2.20 
   0   4  -6    4.00    0.20 
   0   4  -6    4.60    0.60 
   0  -4   6    3.70    0.30 
   0  -4   6    5.10    0.50 
   0  -4   6    4.70    0.30 
  -1   4  -6  168.78    6.90 
  -1   4  -6  157.98    6.20 
  -1   4  -6  158.08    6.30 
   1  -4   6  155.08    6.30 
   1  -4   6  171.68    6.70 
   1  -4   6  163.58    6.30 
  -2   4  -6   16.50    1.20 
  -2   4  -6   16.40    0.70 
   2  -4   6   13.30    0.70 
   2  -4   6   12.60    1.00 
  -3   4  -6   22.00    0.90 
  -3   4  -6   21.90    1.50 
   3  -4   6   21.60    1.00 
  -4   4  -6  168.28    7.50 
  -4   4  -6  170.08    6.80 
   4  -4   6  186.18    6.80 
  -5   4  -6   36.70    1.50 
  -5   4  -6   37.30    1.50 
   5  -4   6   37.60    1.60 
  -6   4  -6   10.10    0.50 
   6  -4   6   10.80    0.50 
   7  -4   6    4.20    0.20 
   6   3  -6    5.40    0.30 
  -6  -3   6    5.40    0.30 
  -5  -3   6   63.69    2.60 
  -5  -3   6   65.79    2.60 
   4   3  -6  440.06   16.50 
  -4  -3   6  451.45   16.50 
  -4  -3   6  400.56   16.40 
  -4  -3   6  425.36   16.50 
   3   3  -6  733.93   27.70 
   3   3  -6  696.53   28.10 
  -3  -3   6  695.93   27.70 
  -3  -3   6  688.73   27.70 
  -3  -3   6  734.23   27.80 
  -3  -3   6  811.22   28.30 
   2   3  -6   27.40    1.40 
   2   3  -6   29.30    1.20 
  -2  -3   6   28.80    1.60 
  -2  -3   6   28.40    1.20 
  -2  -3   6   28.10    1.20 
   1   3  -6   79.89    3.20 
  -1  -3   6   80.19    3.20 
  -1  -3   6   81.89    3.60 
   0   3  -6  111.99    4.50 
   0   3  -6   94.99    4.20 
   0  -3   6  103.69    4.40 
  -1   3  -6   20.80    1.30 
  -1   3  -6   18.50    0.80 
   1  -3   6   19.80    1.20 
  -2   3  -6    6.80    0.40 
  -2   3  -6    6.60    0.30 
  -2   3  -6    7.10    0.70 
   2  -3   6    7.00    0.40 
   2  -3   6    7.10    0.60 
  -3   3  -6  117.19    4.70 
  -3   3  -6  125.29    4.80 
  -3   3  -6  122.09    5.50 
  -3   3  -6  122.49    4.80 
   3  -3   6  119.79    4.80 
   3  -3   6  130.79    5.30 
  -4   3  -6    0.70    0.20 
  -4   3  -6    0.70    0.10 
  -4   3  -6    0.40    0.10 
  -4   3  -6    0.60    0.40 
   4  -3   6    0.40    0.10 
   4  -3   6    0.70    0.30 
  -5   3  -6   45.90    1.90 
  -5   3  -6   45.10    1.80 
  -5   3  -6   44.20    1.80 
   5  -3   6   48.20    1.90 
  -6   3  -6    5.80    0.30 
  -6   3  -6    5.10    0.30 
   6  -3   6    5.70    0.40 
  -7   3  -6    8.00    0.40 
   7  -3   6    8.50    0.40 
   7   2  -6    9.00    0.40 
   6   2  -6    7.40    0.40 
  -6  -2   6    7.10    0.40 
  -5  -2   6   25.60    1.20 
   4   2  -6  288.87   12.00 
   4   2  -6  301.17   11.60 
  -4  -2   6  312.17   11.60 
  -4  -2   6  293.97   12.10 
  -4  -2   6  305.57   11.60 
   3   2  -6  599.14   22.40 
   3   2  -6  563.54   22.00 
  -3  -2   6  566.74   22.10 
  -3  -2   6  581.94   22.60 
  -3  -2   6  572.44   22.00 
   2   2  -6   12.10    0.60 
   2   2  -6   10.40    0.70 
  -2  -2   6   10.30    0.60 
  -2  -2   6   11.10    0.80 
   1   2  -6   68.79    3.20 
  -1  -2   6   77.09    3.30 
   0   2  -6  917.01   35.60 
   0  -2   6  929.41   38.30 
  -1   2  -6  279.37   11.00 
   1  -2   6  265.07   10.80 
  -2   2  -6    0.20    0.10 
  -2   2  -6    0.10    0.10 
  -2   2  -6    0.10    0.20 
   2  -2   6    0.30    0.20 
  -3   2  -6    2.20    0.20 
  -3   2  -6    2.50    0.50 
  -3   2  -6    2.00    0.20 
   3  -2   6    2.00    0.20 
   3  -2   6    2.20    0.40 
  -4   2  -6   70.59    2.70 
  -4   2  -6   66.29    2.70 
  -4   2  -6   68.09    3.40 
  -4   2  -6   66.99    2.70 
   4  -2   6   67.69    2.70 
   4  -2   6   63.89    3.20 
  -5   2  -6   15.20    0.70 
  -5   2  -6   15.40    0.70 
  -5   2  -6   16.10    0.80 
   5  -2   6   17.40    0.80 
  -6   2  -6   64.59    2.70 
  -6   2  -6   67.09    2.60 
   6  -2   6   67.89    2.70 
  -7   2  -6    0.60    0.10 
  -7   2  -6    0.80    0.10 
   7  -2   6    0.80    0.10 
   7   1  -6  117.69    4.50 
  -7  -1   6  117.59    4.50 
   6   1  -6    0.20    0.10 
  -6  -1   6    0.20    0.10 
   5   1  -6  166.68    6.40 
  -5  -1   6  163.28    6.40 
   4   1  -6  202.88    7.80 
   4   1  -6  198.58    8.20 
  -4  -1   6  198.78    8.30 
  -4  -1   6  202.08    7.80 
   3   1  -6   64.39    3.00 
   3   1  -6   70.99    2.80 
  -3  -1   6   71.29    3.20 
  -3  -1   6   66.39    2.70 
  -3  -1   6   70.49    2.80 
   2   1  -6  186.48    7.80 
   2   1  -6  206.58    8.00 
  -2  -1   6  223.28    8.30 
  -2  -1   6  194.38    7.80 
   1   1  -6  117.29    4.90 
  -1  -1   6  118.39    5.00 
   0   1  -6    6.00    0.50 
   0  -1   6    4.10    0.50 
  -1   1  -6   72.09    3.40 
   1  -1   6   76.59    3.30 
  -2   1  -6  215.38    9.00 
  -2   1  -6  237.58    9.60 
  -2   1  -6  236.38    9.00 
   2  -1   6  250.87    9.50 
  -3   1  -6   76.79    3.00 
  -3   1  -6   80.19    3.70 
  -3   1  -6   76.99    3.10 
  -3   1  -6   75.49    3.00 
   3  -1   6   76.79    3.50 
  -4   1  -6    1.80    0.20 
  -4   1  -6    1.50    0.20 
  -4   1  -6    2.60    0.50 
  -4   1  -6    1.50    0.20 
   4  -1   6    1.50    0.40 
  -5   1  -6    2.20    0.20 
  -5   1  -6    1.60    0.20 
  -6   1  -6   11.60    0.60 
  -6   1  -6   11.70    0.60 
   6  -1   6   11.80    0.60 
  -7   1  -6   17.00    0.70 
  -7   1  -6   16.00    0.70 
   7  -1   6   16.20    0.70 
   7   0  -6   20.10    0.80 
  -7   0   6   18.50    0.80 
   6   0  -6  108.89    4.20 
  -6   0   6  106.69    4.20 
   5   0  -6  332.87   12.60 
  -5   0   6  321.67   12.60 
   4   0  -6   66.19    3.10 
   4   0  -6   65.59    2.70 
   4   0  -6   69.99    2.80 
  -4   0   6   66.99    2.70 
  -4   0   6   70.89    2.80 
  -4   0   6   70.19    3.20 
   3   0  -6  453.85   17.20 
   3   0  -6  473.95   17.50 
   3   0  -6  430.56   17.20 
  -3   0   6  434.16   17.10 
  -3   0   6  432.16   17.20 
  -3   0   6  471.55   17.60 
   2   0  -6    3.30    0.50 
   2   0  -6    3.90    0.30 
   2   0  -6    3.60    0.40 
  -2   0   6    3.40    0.40 
   1   0  -6    6.90    0.60 
  -1   0   6    7.30    0.60 
   0   0  -6   60.39    2.80 
   0   0   6   62.39    2.80 
  -1   0  -6   18.20    1.10 
   1   0   6   16.10    1.00 
  -2   0  -6   35.40    1.90 
  -2   0  -6   32.60    1.40 
  -2   0  -6   33.50    1.30 
  -2   0  -6   30.10    1.30 
   2   0   6   33.20    1.80 
  -3   0  -6  244.28    9.50 
  -3   0  -6  240.78    8.80 
  -3   0  -6  212.18    8.80 
  -3   0  -6  228.88    8.80 
  -3   0  -6  225.38    8.90 
   3   0   6  224.38    9.40 
  -4   0  -6  622.74   22.50 
  -4   0  -6  555.14   22.50 
  -4   0  -6  612.44   22.60 
  -4   0  -6  574.34   23.20 
  -4   0  -6  586.24   22.50 
   4   0   6  586.54   23.20 
  -5   0  -6   54.09    2.30 
  -5   0  -6   57.89    2.30 
  -5   0  -6   56.89    2.30 
  -6   0  -6   25.70    1.10 
  -6   0  -6   26.10    1.10 
  -7   0  -6    9.30    0.40 
  -7   0  -6    9.10    0.40 
   7   0   6    8.80    0.40 
   7  -1  -6   36.90    1.50 
   6  -1  -6    1.60    0.20 
  -6   1   6    1.70    0.10 
  -6   1   6    1.50    0.20 
   5  -1  -6    3.70    0.30 
  -5   1   6    3.70    0.30 
  -5   1   6    3.70    0.20 
   4  -1  -6   26.70    1.10 
   4  -1  -6   25.80    1.50 
   4  -1  -6   25.70    1.10 
  -4   1   6   28.40    1.10 
  -4   1   6   26.00    1.10 
  -4   1   6   24.30    1.50 
   3  -1  -6   22.40    1.00 
   3  -1  -6   19.80    0.90 
   3  -1  -6   23.50    1.30 
  -3   1   6   24.00    1.30 
  -3   1   6   22.50    1.00 
   2  -1  -6   20.30    1.20 
   2  -1  -6   19.20    0.90 
   2  -1  -6   18.60    0.80 
   2  -1  -6   20.60    1.10 
  -2   1   6   20.20    1.20 
   1  -1  -6  741.13   28.80 
  -1   1   6  746.63   28.70 
   0  -1  -6   45.10    2.30 
   0   1   6   47.10    2.20 
  -1  -1  -6  206.38    7.80 
   1   1   6  170.88    7.60 
  -2  -1  -6  695.83   25.50 
  -2  -1  -6  628.54   26.10 
  -2  -1  -6  617.64   25.50 
  -2  -1  -6  687.63   25.60 
   2   1   6  722.83   26.10 
  -3  -1  -6    2.60    0.50 
  -3  -1  -6    2.60    0.20 
  -3  -1  -6    2.80    0.20 
  -3  -1  -6    2.70    0.20 
   3   1   6    2.70    0.50 
  -4  -1  -6  363.66   13.70 
  -4  -1  -6  357.86   13.70 
  -4  -1  -6  352.16   13.60 
  -4  -1  -6  356.66   13.70 
   4   1   6  351.96   14.30 
  -5  -1  -6    8.80    0.50 
  -5  -1  -6    9.10    0.50 
  -5  -1  -6    9.50    0.50 
  -6  -1  -6   56.59    2.30 
  -6  -1  -6   57.49    2.30 
  -7  -1  -6   12.80    0.60 
   7  -2  -6    0.70    0.10 
  -7   2   6    0.70    0.10 
   6  -2  -6   77.99    3.20 
  -6   2   6   81.19    3.10 
   5  -2  -6  375.96   14.60 
  -5   2   6  384.76   14.60 
   4  -2  -6  141.69    5.40 
   4  -2  -6  141.49    5.40 
   4  -2  -6  133.49    5.80 
  -4   2   6  140.09    5.40 
   3  -2  -6   48.50    2.00 
   3  -2  -6   50.69    2.30 
   3  -2  -6   47.50    2.00 
   3  -2  -6   52.29    2.00 
  -3   2   6   49.99    2.50 
   2  -2  -6   80.79    3.30 
   2  -2  -6   76.69    3.50 
   2  -2  -6   75.59    3.00 
   2  -2  -6   73.69    3.00 
  -2   2   6   75.89    3.30 
   1  -2  -6  147.29    5.70 
   1  -2  -6  141.19    5.80 
   1  -2  -6  151.88    6.20 
  -1   2   6  153.58    6.10 
   0  -2  -6   54.99    2.40 
   0  -2  -6   69.39    3.00 
   0  -2  -6   60.39    2.40 
   0   2   6   58.49    2.70 
   1   2   6    0.20    0.20 
  -2  -2  -6  152.38    5.90 
  -2  -2  -6  160.48    6.60 
  -2  -2  -6  151.78    5.90 
  -2  -2  -6  147.39    6.00 
   2   2   6  158.08    6.50 
  -3  -2  -6  123.59    4.70 
  -3  -2  -6  118.79    5.40 
  -3  -2  -6  121.69    4.80 
  -3  -2  -6  119.99    4.70 
   3   2   6  124.79    5.40 
  -4  -2  -6  112.69    4.40 
  -4  -2  -6  110.09    4.40 
  -5  -2  -6   89.99    3.40 
  -5  -2  -6   88.09    3.50 
  -5  -2  -6   82.59    3.40 
  -6  -2  -6   26.50    1.10 
  -6  -2  -6   26.80    1.10 
   7  -3  -6    3.20    0.20 
  -7   3   6    3.30    0.20 
   6  -3  -6   93.09    3.70 
  -6   3   6   94.29    3.70 
   5  -3  -6  107.39    4.30 
  -5   3   6  109.49    4.20 
   4  -3  -6  243.18   10.20 
   4  -3  -6  259.57    9.80 
   4  -3  -6  252.47    9.80 
  -4   3   6  260.97    9.80 
   3  -3  -6   43.00    1.80 
   3  -3  -6   45.70    1.80 
   3  -3  -6   43.40    1.80 
   3  -3  -6   43.70    2.10 
   2  -3  -6    1.00    0.30 
   2  -3  -6    1.20    0.20 
   2  -3  -6    1.20    0.30 
   2  -3  -6    1.20    0.10 
   2  -3  -6    1.20    0.10 
   1  -3  -6  262.77   10.20 
   1  -3  -6  254.17   10.20 
   1  -3  -6  271.77   10.20 
   1  -3  -6  273.67   10.80 
   0  -3  -6   15.60    0.70 
   0  -3  -6   14.90    0.70 
   0  -3  -6   15.00    0.70 
   0  -3  -6   16.20    1.20 
   0   3   6   14.90    1.00 
  -1  -3  -6  888.21   35.50 
  -1  -3  -6  895.71   35.40 
  -1  -3  -6  945.51   35.40 
  -1  -3  -6  942.91   36.10 
   1   3   6  985.00   35.90 
  -2  -3  -6   18.30    1.30 
  -2  -3  -6   17.70    0.80 
  -2  -3  -6   19.10    0.80 
  -2  -3  -6   19.50    0.80 
   2   3   6   19.00    1.20 
  -3  -3  -6  400.16   15.20 
  -3  -3  -6  366.96   15.70 
  -3  -3  -6  405.46   15.10 
  -3  -3  -6  417.06   15.10 
   3   3   6  386.76   15.70 
  -4  -3  -6    1.60    0.20 
  -4  -3  -6    1.40    0.20 
  -5  -3  -6  136.69    5.40 
  -5  -3  -6  141.99    5.40 
  -6  -3  -6    4.20    0.20 
   7  -4  -6   84.19    3.30 
  -7   4   6   87.19    3.30 
   6  -4  -6   41.40    1.70 
  -6   4   6   42.30    1.70 
   5  -4  -6  371.06   14.70 
  -5   4   6  395.56   14.70 
   4  -4  -6  114.09    4.40 
   4  -4  -6  109.49    4.40 
  -4   4   6  114.59    4.40 
   3  -4  -6  380.96   14.10 
   3  -4  -6  348.67   14.40 
   3  -4  -6  361.46   14.00 
   3  -4  -6  385.76   14.00 
  -3   4   6  351.76   14.70 
   2  -4  -6  265.67   10.80 
   2  -4  -6  290.07   10.70 
   2  -4  -6  287.37   10.70 
  -2   4   6  273.97   11.40 
   1  -4  -6    7.50    0.80 
   1  -4  -6    7.30    0.40 
   1  -4  -6    7.70    0.40 
   1  -4  -6    8.10    0.40 
   0  -4  -6    3.80    0.30 
   0  -4  -6    4.10    0.60 
   0  -4  -6    4.40    0.30 
   0  -4  -6    4.00    0.30 
  -1  -4  -6  465.55   20.80 
  -1  -4  -6  450.25   18.60 
  -1  -4  -6  469.75   17.90 
  -1  -4  -6  489.75   17.90 
  -2  -4  -6  671.43   28.40 
  -2  -4  -6  772.02   27.80 
  -2  -4  -6  741.93   27.80 
  -3  -4  -6   33.10    1.40 
  -3  -4  -6   33.00    1.40 
  -3  -4  -6   33.60    1.40 
  -4  -4  -6   70.69    2.80 
  -4  -4  -6   71.59    2.80 
  -5  -4  -6   17.70    0.80 
   6  -5  -6   97.29    3.90 
  -6   5   6  102.69    3.90 
   5  -5  -6   94.99    3.80 
  -5   5   6   96.99    3.80 
   4  -5  -6   10.70    0.60 
   4  -5  -6   11.00    0.60 
  -4   5   6   11.40    0.60 
   3  -5  -6    2.70    0.20 
   3  -5  -6    2.30    0.20 
   3  -5  -6    2.30    0.20 
  -3   5   6    2.40    0.20 
   2  -5  -6   58.29    2.30 
   2  -5  -6   59.19    2.30 
   2  -5  -6   61.49    2.40 
  -2   5   6   53.79    3.00 
   1  -5  -6  117.49    4.80 
   1  -5  -6  124.39    4.70 
   1  -5  -6  124.09    4.70 
  -1   5   6  116.89    5.50 
   0  -5  -6  201.38    7.50 
   0  -5  -6  202.98    7.50 
   0  -5  -6  187.88    7.40 
   0   5   6  180.38    8.30 
  -1  -5  -6   21.20    1.00 
  -1  -5  -6   20.40    0.90 
  -1  -5  -6   22.00    0.90 
  -2  -5  -6   13.70    0.60 
  -2  -5  -6   14.00    0.60 
  -3  -5  -6   12.70    0.60 
   6  -6  -6   33.30    1.40 
  -6   6   6   35.60    1.40 
   5  -6  -6   43.20    1.80 
  -5   6   6   45.20    1.80 
   4  -6  -6    2.20    0.20 
   4  -6  -6    1.90    0.20 
  -4   6   6    2.00    0.20 
   3  -6  -6  139.19    5.50 
   3  -6  -6  138.19    5.50 
   3  -6  -6  140.69    5.40 
  -3   6   6  144.29    5.50 
   2  -6  -6  463.85   17.00 
   2  -6  -6  429.56   17.00 
   2  -6  -6  441.76   17.10 
   1  -6  -6    9.30    0.50 
   1  -6  -6    8.70    0.40 
   0  -6  -6   43.60    1.80 
   0  -6  -6   46.10    1.90 
   0  -6  -6   41.60    1.80 
  -1  -6  -6    7.10    0.40 
  -1  -6  -6    6.00    0.30 
  -1  -6  -6    6.70    0.40 
  -2  -6  -6    0.50    0.10 
   5  -7  -6   95.19    3.90 
  -5   7   6  108.69    3.90 
   4  -7  -6    7.40    0.40 
   4  -7  -6    8.90    0.40 
   4  -7  -6    7.90    0.40 
  -4   7   6    7.50    0.40 
   3  -7  -6   81.09    3.20 
   3  -7  -6   82.19    3.20 
   3  -7  -6   78.69    3.20 
  -3   7   6   81.39    3.20 
   2  -7  -6   11.70    0.60 
   2  -7  -6   10.30    0.50 
  -2   7   6   10.80    0.50 
   1  -7  -6  301.57   11.10 
   1  -7  -6  276.67   11.10 
   0  -7  -6   29.90    1.20 
   0  -7  -6   29.30    1.30 
  -1  -7  -6  108.99    4.30 
  -1  -7  -6  112.19    4.30 
   3  -8  -6   40.60    1.70 
   3  -8  -6   41.00    1.60 
   2  -8  -6    1.40    0.20 
   1  -8  -6   35.50    1.50 
   1  -8  -6   35.30    1.40 
   0  -8  -6    5.40    0.30 
   0  -8  -6    5.60    0.30 
  -1  -8  -6   11.40    0.50 
  -1  -8  -6   12.00    0.50 
   2  -9  -6   15.70    0.70 
   2  -9  -6   16.80    0.70 
   1  -9  -6   15.50    0.70 
   1  -9  -6   15.80    0.70 
   1   9  -7    0.10    0.10 
  -1  -9   7    0.20    0.10 
   0  -9   7    0.20    0.10 
   1  -9   7    8.00    0.40 
   2  -9   7   27.60    1.10 
   3  -9   7   53.29    2.10 
   2   8  -7    1.90    0.20 
  -2  -8   7    2.30    0.20 
   1   8  -7   66.09    2.60 
  -1  -8   7   64.49    2.60 
   0   8  -7    0.40    0.10 
   0  -8   7    0.30    0.10 
  -1   8  -7   51.19    2.10 
   1  -8   7   55.49    2.20 
  -2   8  -7  177.78    7.00 
   2  -8   7  186.28    7.00 
  -3   8  -7  124.99    4.70 
   3  -8   7  118.49    4.70 
  -4   8  -7    7.80    0.40 
   4  -8   7    7.30    0.40 
   3   7  -7    5.70    0.30 
  -3  -7   7    5.40    0.30 
   2   7  -7  146.79    5.70 
  -2  -7   7  143.99    5.60 
   1   7  -7    3.10    0.30 
  -1  -7   7    2.60    0.20 
   0   7  -7   28.00    1.20 
   0  -7   7   27.20    1.20 
  -1   7  -7   43.20    1.80 
  -1   7  -7   45.50    1.80 
   1  -7   7   45.50    1.90 
  -2   7  -7   53.19    2.10 
   2  -7   7   54.59    2.20 
  -3   7  -7    1.90    0.20 
   3  -7   7    1.90    0.20 
  -4   7  -7   79.79    3.10 
   4  -7   7   80.69    3.20 
  -5   7  -7    0.30    0.10 
   5  -7   7    0.20    0.10 
   4   6  -7   38.60    1.50 
  -4  -6   7   37.80    1.50 
  -4  -6   7   38.00    1.50 
  -4  -6   7   36.80    1.50 
   3   6  -7   23.40    1.00 
  -3  -6   7   21.30    0.90 
  -3  -6   7   22.20    1.00 
  -3  -6   7   22.30    1.00 
   2   6  -7    0.80    0.20 
  -2  -6   7    0.70    0.20 
  -2  -6   7    1.00    0.20 
   1   6  -7  138.99    5.50 
  -1  -6   7  140.49    5.50 
   0   6  -7   25.60    1.20 
   0  -6   7   26.90    1.20 
  -1   6  -7  164.58    7.00 
  -1   6  -7  183.48    7.00 
   1  -6   7  195.18    7.10 
  -2   6  -7  339.87   12.90 
   2  -6   7  335.17   13.00 
  -3   6  -7   31.30    1.30 
   3  -6   7   30.70    1.40 
  -4   6  -7   17.40    0.80 
   4  -6   7   18.50    0.80 
  -5   6  -7   69.49    2.70 
   5  -6   7   70.39    2.80 
   6  -6   7    6.70    0.30 
  -5  -5   7    0.90    0.10 
   4   5  -7    3.20    0.20 
  -4  -5   7    3.40    0.20 
  -4  -5   7    3.20    0.20 
  -4  -5   7    3.40    0.30 
   3   5  -7   18.70    0.90 
  -3  -5   7   18.30    0.80 
  -3  -5   7   17.70    0.80 
  -3  -5   7   19.20    0.90 
   2   5  -7    1.60    0.20 
  -2  -5   7    1.70    0.20 
  -2  -5   7    1.60    0.20 
   0   5  -7   11.20    0.60 
   0  -5   7   10.90    0.60 
   0  -5   7   11.00    0.60 
  -1   5  -7   21.60    1.00 
  -1   5  -7   22.20    1.50 
  -1   5  -7   22.00    0.90 
   1  -5   7   23.70    1.00 
  -2   5  -7   89.89    3.50 
  -2   5  -7   89.89    4.20 
   2  -5   7   84.89    3.50 
  -3   5  -7   87.49    3.40 
   3  -5   7   87.29    3.50 
  -4   5  -7   97.19    3.80 
   4  -5   7   96.49    3.80 
  -5   5  -7   70.49    2.80 
   5  -5   7   70.89    2.80 
  -6   5  -7    2.30    0.10 
   6  -5   7    2.70    0.20 
   5   4  -7   48.50    1.90 
  -5  -4   7   48.60    2.00 
   4   4  -7   28.40    1.20 
  -4  -4   7   28.50    1.20 
  -4  -4   7   28.00    1.20 
   3   4  -7    5.70    0.40 
  -3  -4   7    5.90    0.40 
  -3  -4   7    5.30    0.40 
  -3  -4   7    5.90    0.30 
   2   4  -7  137.89    5.20 
  -2  -4   7  133.09    5.20 
  -2  -4   7  126.29    5.20 
  -2  -4   7  131.79    5.70 
   1   4  -7   20.50    0.90 
  -1  -4   7   19.40    0.90 
  -1  -4   7   18.80    0.90 
  -1  -4   7   18.50    1.20 
   0   4  -7  122.49    5.10 
   0   4  -7  113.19    4.50 
   0   4  -7  117.89    4.40 
   0  -4   7  110.79    4.50 
   0  -4   7  111.39    4.90 
   0  -4   7  111.19    4.50 
  -1   4  -7   39.90    1.50 
  -1   4  -7   32.90    1.50 
   1  -4   7   34.10    1.50 
   1  -4   7   34.40    1.90 
   1  -4   7   35.40    1.50 
  -2   4  -7  193.68    8.30 
  -2   4  -7  197.28    7.60 
   2  -4   7  208.58    7.60 
   2  -4   7  187.98    8.10 
  -3   4  -7   30.40    1.20 
  -3   4  -7   29.40    1.30 
  -3   4  -7   27.20    1.90 
   3  -4   7   30.30    1.30 
  -4   4  -7  468.75   17.90 
   4  -4   7  469.75   22.50 
  -5   4  -7  193.78    7.40 
  -5   4  -7  182.18    7.30 
   5  -4   7  198.68    7.40 
  -6   4  -7    0.30    0.10 
   6  -4   7    0.00    0.10 
   6   3  -7    0.20    0.10 
  -6  -3   7    0.10    0.10 
   5   3  -7   58.49    2.30 
  -5  -3   7   57.99    2.40 
   4   3  -7   38.40    1.60 
  -4  -3   7   37.40    1.60 
   3   3  -7  131.09    4.90 
  -3  -3   7  114.09    5.30 
  -3  -3   7  125.29    4.90 
   2   3  -7  274.27    9.90 
  -2  -3   7  245.08   10.40 
  -2  -3   7  250.97    9.90 
  -1  -3   7    0.60    0.10 
  -1  -3   7    0.50    0.30 
   0   3  -7    5.70    0.40 
   0   3  -7    5.70    0.30 
   0   3  -7    5.60    0.60 
   0  -3   7    6.30    0.70 
   0  -3   7    5.70    0.40 
  -1   3  -7   14.80    0.70 
  -1   3  -7   14.60    0.70 
  -1   3  -7   15.60    1.10 
   1  -3   7   15.20    1.10 
   1  -3   7   14.00    0.70 
  -2   3  -7   29.60    1.20 
  -2   3  -7   29.10    1.30 
  -2   3  -7   32.20    1.90 
   2  -3   7   30.00    1.70 
   2  -3   7   28.80    1.30 
  -3   3  -7    0.10    0.10 
  -3   3  -7    0.60    0.20 
  -3   3  -7    0.10    0.30 
   3  -3   7    0.50    0.30 
   3  -3   7    0.20    0.10 
  -4   3  -7   15.90    0.80 
  -4   3  -7   17.10    0.80 
  -4   3  -7   16.90    0.70 
   4  -3   7   16.30    0.80 
  -5   3  -7   28.00    1.20 
  -5   3  -7   28.20    1.20 
  -5   3  -7   27.90    1.20 
   5  -3   7   29.60    1.30 
  -6   3  -7   17.80    0.90 
  -6   3  -7   17.80    0.80 
   6  -3   7   19.00    0.80 
   6   2  -7   17.90    0.80 
  -6  -2   7   18.30    0.80 
   5   2  -7   20.70    0.90 
  -5  -2   7   21.10    1.00 
   4   2  -7  137.59    5.50 
  -4  -2   7  141.59    5.50 
   3   2  -7   11.60    0.60 
  -3  -2   7    9.30    0.90 
  -3  -2   7   10.10    0.60 
   2   2  -7  663.43   25.00 
  -2  -2   7  672.43   25.50 
  -2  -2   7  625.34   25.00 
   1   2  -7  299.67   11.90 
   1   2  -7  312.67   12.30 
  -1  -2   7  301.27   11.90 
  -1  -2   7  325.17   12.40 
   0   2  -7    2.90    0.50 
   0   2  -7    2.70    0.20 
   0   2  -7    2.60    0.20 
   0  -2   7    2.60    0.40 
   0  -2   7    2.60    0.20 
  -1   2  -7   18.80    0.80 
  -1   2  -7   19.40    0.90 
  -1   2  -7   16.90    0.80 
  -1   2  -7   20.00    1.30 
   1  -2   7   20.30    1.30 
  -2   2  -7   23.30    1.50 
  -2   2  -7   23.00    1.00 
  -2   2  -7   23.10    1.00 
  -2   2  -7   20.80    0.90 
   2  -2   7   21.60    1.00 
   2  -2   7   23.80    1.40 
  -3   2  -7   89.19    3.50 
  -3   2  -7   87.69    3.50 
  -3   2  -7   89.79    4.20 
  -3   2  -7   89.49    3.50 
   3  -2   7   87.09    3.50 
   3  -2   7   88.09    4.10 
  -4   2  -7  264.57   10.00 
  -4   2  -7  249.58   10.70 
  -4   2  -7  270.37   10.00 
  -4   2  -7  254.17   10.00 
   4  -2   7  252.87   10.60 
   4  -2   7  265.57   10.00 
  -6   2  -7   13.80    0.60 
  -6   2  -7   13.60    0.70 
   6  -2   7   15.30    0.70 
   6   1  -7   12.80    0.60 
  -6  -1   7   14.40    0.60 
   5   1  -7    2.60    0.20 
  -5  -1   7    2.70    0.20 
   4   1  -7   11.00    0.60 
   4   1  -7   11.30    0.60 
  -4  -1   7   12.20    0.60 
  -4  -1   7   10.70    1.00 
   3   1  -7   53.69    2.20 
  -3  -1   7   52.99    2.20 
  -3  -1   7   52.49    2.60 
   2   1  -7   96.89    3.90 
  -2  -1   7   99.49    3.90 
  -2  -1   7  102.79    4.40 
   1   1  -7    0.20    0.20 
   0   1  -7    0.20    0.10 
   0   1  -7    0.40    0.10 
   0   1  -7    0.40    0.20 
   0   1  -7    0.30    0.10 
   0  -1   7    0.20    0.20 
  -1   1  -7   86.89    3.70 
  -1   1  -7   93.09    3.70 
  -1   1  -7   97.39    4.30 
  -1   1  -7   97.59    3.70 
   1  -1   7   99.89    4.20 
  -2   1  -7   23.40    1.00 
  -2   1  -7   24.10    1.50 
  -2   1  -7   22.30    1.00 
  -2   1  -7   21.80    1.00 
   2  -1   7   22.90    1.40 
  -3   1  -7   27.10    1.10 
  -3   1  -7   27.10    1.10 
  -3   1  -7   25.80    1.70 
  -3   1  -7   27.40    1.20 
   3  -1   7   28.00    1.70 
   3  -1   7   25.10    1.20 
  -4   1  -7   19.60    0.90 
  -4   1  -7   20.90    0.90 
  -4   1  -7   18.40    1.50 
  -4   1  -7   19.90    0.90 
   4  -1   7   18.80    1.40 
   4  -1   7   19.00    0.90 
  -5   1  -7    1.20    0.20 
  -5   1  -7    0.90    0.10 
  -5   1  -7    0.90    0.10 
   5  -1   7    1.10    0.20 
  -6   1  -7    3.40    0.20 
  -6   1  -7    3.40    0.20 
   6  -1   7    3.40    0.20 
   6   0  -7    1.80    0.20 
  -6   0   7    1.80    0.20 
   5   0  -7   78.49    3.10 
  -5   0   7   78.19    3.10 
   4   0  -7  414.86   15.60 
   4   0  -7  400.06   15.60 
  -4   0   7  389.16   16.10 
  -4   0   7  422.96   15.60 
   3   0  -7   71.39    2.80 
  -3   0   7   70.99    3.30 
  -3   0   7   67.49    2.80 
  -3   0   7   72.19    2.80 
   2   0  -7 1696.33   78.59 
   2   0  -7 1553.94   63.79 
  -2   0   7 1723.33   64.39 
  -2   0   7 1766.22   81.29 
   1   0  -7   51.39    2.20 
   1   0  -7   55.29    2.60 
   1   0  -7   62.89    2.30 
   1   0  -7   53.69    2.20 
  -1   0   7   53.39    2.60 
  -1   0   7   51.69    2.20 
   0   0  -7  237.68    9.00 
   0   0  -7  224.18    9.00 
   0   0  -7  252.37    9.50 
   0   0  -7  216.78    8.90 
   0   0  -7  225.38    8.90 
   0   0   7  238.98    9.40 
  -1   0  -7  101.19    3.90 
  -1   0  -7  101.69    4.50 
  -1   0  -7   96.39    3.90 
   1   0   7   98.39    4.40 
  -2   0  -7  506.35   19.30 
  -2   0  -7  508.85   20.00 
  -2   0  -7  505.15   19.20 
  -2   0  -7  491.55   19.20 
   2   0   7  506.45   19.80 
  -3   0  -7   26.20    1.10 
  -3   0  -7   25.00    1.10 
  -3   0  -7   26.10    1.10 
  -3   0  -7   25.70    1.70 
   3   0   7   24.70    1.60 
  -4   0  -7    7.50    0.50 
  -4   0  -7    6.70    0.90 
  -4   0  -7    7.00    0.40 
  -4   0  -7    7.40    0.40 
   4   0   7    8.90    1.30 
   4   0   7    7.40    0.40 
  -5   0  -7   58.99    2.30 
  -5   0  -7   60.79    2.40 
   5   0   7   54.39    2.30 
  -6   0  -7   29.20    1.20 
  -6   0  -7   30.00    1.20 
   6   0   7   27.40    1.20 
   6  -1  -7    0.30    0.10 
   5  -1  -7  447.96   17.30 
  -5   1   7  451.55   17.20 
  -5   1   7  453.45   17.30 
   4  -1  -7  328.67   12.90 
   4  -1  -7  345.07   13.00 
  -4   1   7  343.37   12.90 
  -4   1   7  329.97   12.90 
   3  -1  -7  104.09    4.00 
  -3   1   7   97.49    4.00 
  -3   1   7  101.29    4.40 
   2  -1  -7  220.98    8.80 
   2  -1  -7  224.88    8.30 
   2  -1  -7  236.08    8.40 
  -2   1   7  202.88    8.30 
  -2   1   7  194.38    8.70 
   1  -1  -7   10.60    0.60 
   1  -1  -7   10.10    0.50 
   1  -1  -7   11.40    0.90 
   1  -1  -7   10.60    0.50 
  -1   1   7   12.90    0.60 
   0  -1  -7    7.90    0.80 
   0  -1  -7    7.70    0.40 
   0  -1  -7    7.90    0.40 
   0  -1  -7    7.80    0.40 
   0  -1  -7    7.40    0.40 
   0   1   7    8.40    0.70 
  -1  -1  -7    7.80    0.80 
  -1  -1  -7    6.70    0.40 
  -1  -1  -7    7.70    0.40 
  -1  -1  -7    8.10    0.40 
  -1  -1  -7    8.10    0.40 
   1   1   7    8.00    0.70 
  -2  -1  -7   57.29    2.30 
  -2  -1  -7   55.59    2.30 
  -2  -1  -7   59.49    2.30 
  -2  -1  -7   55.09    2.90 
   2   1   7   58.19    2.80 
  -3  -1  -7   60.29    2.50 
  -3  -1  -7   60.79    3.10 
  -3  -1  -7   60.89    2.40 
  -3  -1  -7   62.79    2.40 
   3   1   7   56.79    3.00 
  -4  -1  -7  756.32   29.50 
  -4  -1  -7  725.53   29.40 
  -4  -1  -7  834.72   29.40 
  -5  -1  -7  273.87   10.50 
  -5  -1  -7  271.37   10.50 
  -6  -1  -7   19.50    0.90 
  -6  -1  -7   19.70    0.80 
   6  -2  -7   38.30    1.60 
  -6   2   7   39.40    1.60 
   5  -2  -7   69.39    2.90 
  -5   2   7   74.39    2.80 
   4  -2  -7    0.10    0.10 
   4  -2  -7    0.30    0.10 
  -4   2   7    0.00    0.10 
   3  -2  -7    0.30    0.10 
   2  -2  -7   79.69    3.10 
   2  -2  -7   74.39    3.00 
   2  -2  -7   79.09    3.10 
   2  -2  -7   76.39    3.60 
  -2   2   7   77.69    3.40 
   1  -2  -7   78.89    3.00 
   1  -2  -7   78.39    3.60 
   1  -2  -7   76.39    3.00 
   1  -2  -7   82.09    3.10 
  -1   2   7   71.09    3.10 
  -1   2   7   76.69    3.50 
   0  -2  -7   49.99    2.10 
   0  -2  -7   56.19    2.80 
   0  -2  -7   53.99    2.10 
   0  -2  -7   52.19    2.20 
   0  -2  -7   52.99    2.10 
   0   2   7   54.89    2.60 
  -1  -2  -7   57.19    2.30 
  -1  -2  -7   59.09    2.30 
  -1  -2  -7   56.59    2.40 
  -1  -2  -7   58.29    2.30 
  -1  -2  -7   56.69    2.90 
   1   2   7   61.89    2.80 
  -2  -2  -7  895.01   35.30 
  -2  -2  -7  931.11   35.30 
  -2  -2  -7  904.51   35.30 
  -2  -2  -7  914.41   36.00 
   2   2   7  986.40   35.90 
  -3  -2  -7   10.50    0.50 
  -3  -2  -7   10.20    0.50 
  -3  -2  -7    9.60    1.00 
  -3  -2  -7   10.30    0.50 
   3   2   7    9.10    0.90 
  -4  -2  -7  330.97   13.10 
  -4  -2  -7  335.27   13.20 
  -4  -2  -7  364.86   13.20 
  -5  -2  -7    1.30    0.20 
  -6  -2  -7   10.10    0.40 
  -6  -2  -7   10.40    0.50 
   6  -3  -7   42.40    1.80 
  -6   3   7   45.80    1.80 
   5  -3  -7   91.19    3.60 
  -5   3   7   93.79    3.60 
   4  -3  -7    0.80    0.10 
  -4   3   7    0.80    0.10 
   3  -3  -7    0.20    0.10 
   2  -3  -7  319.57   12.10 
   2  -3  -7  312.87   12.10 
   2  -3  -7  318.37   12.70 
   2  -3  -7  310.47   12.10 
   1  -3  -7  145.59    5.80 
   1  -3  -7  145.99    5.70 
   1  -3  -7  153.28    5.70 
   1  -3  -7  148.29    6.40 
   0  -3  -7  308.27   12.30 
   0  -3  -7  303.27   11.60 
   0  -3  -7  299.97   11.60 
   0  -3  -7  296.47   11.60 
  -1  -3  -7  103.89    4.00 
  -1  -3  -7  107.79    4.00 
  -1  -3  -7  101.59    4.70 
  -1  -3  -7  102.49    4.00 
  -1  -3  -7   97.69    4.00 
   1   3   7  100.19    4.50 
  -2  -3  -7  111.29    5.20 
  -2  -3  -7  122.89    4.50 
  -2  -3  -7  118.39    4.60 
  -2  -3  -7  117.69    4.50 
   2   3   7  110.59    5.10 
  -3  -3  -7    2.70    0.20 
  -3  -3  -7    2.90    0.20 
  -3  -3  -7    2.10    0.20 
  -5  -3  -7   48.00    1.90 
  -5  -3  -7   45.60    1.90 
   6  -4  -7   85.69    3.40 
  -6   4   7   90.69    3.40 
   5  -4  -7   14.80    0.70 
  -5   4   7   13.70    0.60 
   4  -4  -7  184.88    7.50 
   4  -4  -7  199.68    7.50 
  -4   4   7  194.98    7.50 
   3  -4  -7    0.60    0.10 
   3  -4  -7    0.50    0.10 
   2  -4  -7  138.09    5.30 
   2  -4  -7  139.39    5.30 
   2  -4  -7  138.99    5.40 
  -2   4   7  129.69    6.00 
   1  -4  -7    4.20    0.70 
   1  -4  -7    4.40    0.30 
   1  -4  -7    4.20    0.30 
   1  -4  -7    4.30    0.30 
   0  -4  -7   64.49    2.40 
   0  -4  -7   56.09    3.10 
   0  -4  -7   59.59    2.40 
   0  -4  -7   57.49    2.40 
  -1  -4  -7  189.28    7.20 
  -1  -4  -7  189.98    7.20 
  -1  -4  -7  180.28    7.90 
  -1  -4  -7  183.88    7.20 
  -2  -4  -7   98.99    4.00 
  -2  -4  -7  104.29    4.00 
  -3  -4  -7    3.80    0.30 
  -3  -4  -7    4.00    0.30 
  -3  -4  -7    3.80    0.20 
  -4  -4  -7    1.90    0.20 
  -4  -4  -7    2.10    0.20 
  -6   5   7    0.10    0.10 
   5  -5  -7  247.78    9.70 
  -5   5   7  260.97    9.80 
   4  -5  -7  116.19    4.50 
   4  -5  -7  108.69    4.40 
  -4   5   7  118.09    4.50 
   3  -5  -7   17.30    0.80 
   3  -5  -7   17.20    0.80 
  -3   5   7   18.50    0.80 
   2  -5  -7   19.50    0.90 
   2  -5  -7   18.90    0.90 
   2  -5  -7   19.00    0.80 
   1  -5  -7   12.60    0.60 
   1  -5  -7   13.00    0.60 
   1  -5  -7   13.00    0.70 
   0  -5  -7   14.90    0.70 
   0  -5  -7   15.00    0.80 
   0  -5  -7   18.70    0.70 
  -1  -5  -7    0.60    0.10 
  -1  -5  -7    0.90    0.10 
  -1  -5  -7    0.80    0.20 
  -2  -5  -7   88.89    3.50 
  -2  -5  -7   88.09    3.50 
  -3  -5  -7  192.88    7.40 
   5  -6  -7   73.59    3.00 
  -5   6   7   79.89    3.00 
   4  -6  -7   19.10    0.80 
   4  -6  -7   18.40    0.80 
  -4   6   7   19.70    0.80 
   3  -6  -7   80.59    3.20 
   3  -6  -7   79.39    3.20 
  -3   6   7   83.59    3.20 
   2  -6  -7   31.00    1.40 
   2  -6  -7   31.20    1.30 
  -2   6   7   31.90    1.30 
   1  -6  -7    9.30    0.50 
   1  -6  -7    9.80    0.50 
   1  -6  -7   10.80    0.60 
   0  -6  -7   57.99    2.30 
   0  -6  -7   54.79    2.30 
   0  -6  -7   60.49    2.40 
  -2  -6  -7   20.30    0.90 
   4  -7  -7   14.70    0.60 
  -4   7   7   15.00    0.60 
   3  -7  -7   97.39    3.90 
   3  -7  -7  101.39    3.90 
  -3   7   7  101.59    3.90 
   2  -7  -7   18.00    0.80 
   2  -7  -7   18.50    0.80 
  -2   7   7   18.10    0.80 
   1  -7  -7  161.18    6.50 
   1  -7  -7  174.88    6.40 
  -1   7   7  163.98    6.40 
   0  -7  -7   23.00    1.00 
   0  -7  -7   22.40    1.00 
  -1  -7  -7   24.60    1.00 
  -1  -7  -7   24.00    1.00 
   3  -8  -7   14.80    0.60 
   3  -8  -7   14.70    0.60 
   2  -8  -7   75.99    3.00 
   2  -8  -7   76.59    3.00 
   1  -8  -7   73.79    2.90 
   1  -8  -7   72.59    2.80 
   0  -8  -7   17.40    0.70 
   0  -8  -7   17.20    0.70 
   2   8  -8    0.90    0.10 
   1   8  -8   86.19    3.40 
  -1  -8   8   86.59    3.40 
   0   8  -8    0.10    0.10 
   0  -8   8    0.30    0.10 
   1  -8   8   14.40    0.70 
  -2   8  -8    1.40    0.10 
   2  -8   8    1.70    0.20 
  -3   8  -8   24.50    1.00 
   3  -8   8   25.60    1.00 
   3   7  -8    4.50    0.30 
   2   7  -8    0.60    0.10 
  -2  -7   8    0.40    0.10 
   1   7  -8  158.88    6.20 
  -1  -7   8  159.88    6.20 
   0   7  -8   42.70    1.80 
   0  -7   8   42.30    1.80 
  -1   7  -8    4.10    0.30 
   1  -7   8    4.50    0.30 
  -2   7  -8    0.30    0.10 
   2  -7   8    0.50    0.10 
  -3   7  -8    1.70    0.20 
   3  -7   8    1.50    0.20 
  -4   7  -8   29.10    1.20 
   4  -7   8   30.40    1.20 
   3   6  -8    0.50    0.10 
  -3  -6   8    0.50    0.10 
  -3  -6   8    0.70    0.10 
   2   6  -8   24.30    1.00 
  -2  -6   8   21.30    1.00 
  -2  -6   8   20.20    0.90 
   1   6  -8    0.50    0.10 
  -1  -6   8    0.40    0.10 
   0   6  -8   35.40    1.50 
   0  -6   8   34.10    1.50 
  -1   6  -8    1.00    0.20 
  -1   6  -8    1.20    0.10 
   1  -6   8    1.30    0.20 
  -2   6  -8   23.70    1.00 
   2  -6   8   24.50    1.10 
  -3   6  -8   36.10    1.50 
   3  -6   8   37.00    1.50 
   4  -6   8    0.70    0.10 
  -5   6  -8    0.60    0.10 
   5  -6   8    0.70    0.10 
   4   5  -8    0.10    0.10 
  -4  -5   8    0.10    0.10 
   3   5  -8    0.30    0.10 
  -3  -5   8    0.40    0.10 
   2   5  -8  102.29    4.00 
  -2  -5   8   99.29    3.90 
  -2  -5   8   96.89    3.90 
   1   5  -8   70.39    2.90 
  -1  -5   8   71.69    2.80 
  -1  -5   8   69.69    2.80 
   0   5  -8   98.99    3.90 
   0  -5   8   98.49    3.90 
   0  -5   8  100.59    3.90 
  -1   5  -8  334.97   13.20 
  -1   5  -8  360.46   13.20 
   1  -5   8  343.97   13.20 
   1  -5   8  338.77   13.20 
  -3   5  -8   82.79    3.30 
   3  -5   8   82.39    3.30 
  -4   5  -8   98.99    3.90 
   4  -5   8  102.39    4.00 
  -5   5  -8  291.07   10.80 
   5  -5   8  276.27   10.90 
  -5  -4   8   12.30    0.60 
   4   4  -8  119.99    4.50 
  -4  -4   8  109.69    4.50 
   3   4  -8    9.00    0.50 
  -3  -4   8    8.20    0.50 
   2   4  -8  276.27   10.50 
  -2  -4   8  267.47   10.50 
   1   4  -8   25.80    1.10 
  -1  -4   8   23.60    1.50 
  -1  -4   8   25.90    1.10 
   0   4  -8  129.09    5.00 
   0  -4   8  126.29    5.50 
   0  -4   8  130.09    5.10 
   0  -4   8  128.09    5.00 
  -1   4  -8   31.80    1.30 
  -1   4  -8   28.90    1.30 
  -1   4  -8   29.40    1.80 
   1  -4   8   29.00    1.70 
   1  -4   8   30.20    1.30 
   1  -4   8   31.30    1.30 
  -2   4  -8  449.76   18.50 
  -2   4  -8  480.05   17.70 
   2  -4   8  412.26   18.20 
   2  -4   8  500.75   17.70 
   2  -4   8  470.05   17.70 
  -3   4  -8    6.80    0.40 
   3  -4   8    7.10    0.40 
  -4   4  -8   32.00    1.40 
  -4   4  -8   34.80    1.40 
   4  -4   8   35.90    1.50 
  -5   4  -8    8.30    0.40 
   5  -4   8    9.40    0.50 
   6  -4   8    3.40    0.20 
  -5  -3   8   10.70    0.50 
   4   3  -8    3.90    0.30 
  -4  -3   8    4.10    0.30 
   3   3  -8    1.40    0.20 
  -3  -3   8    1.60    0.20 
   2   3  -8   26.00    1.10 
  -2  -3   8   24.20    1.10 
  -2  -3   8   23.90    1.50 
   1   3  -8   57.59    2.30 
  -1  -3   8   55.59    2.30 
  -1  -3   8   55.29    2.80 
   0   3  -8  404.16   16.20 
   0   3  -8  408.86   15.60 
   0   3  -8  423.66   15.70 
   0  -3   8  392.16   16.20 
   0  -3   8  411.16   15.70 
  -1   3  -8    2.00    0.50 
  -1   3  -8    1.70    0.20 
  -1   3  -8    1.90    0.20 
   1  -3   8    1.70    0.50 
  -2   3  -8    8.50    0.50 
  -2   3  -8    9.30    0.90 
   2  -3   8    7.80    0.80 
   2  -3   8    8.00    0.50 
  -3   3  -8   42.00    1.70 
  -3   3  -8   40.50    1.70 
   3  -3   8   40.70    1.70 
   3  -3   8   40.20    2.30 
  -4   3  -8   20.70    0.90 
  -4   3  -8   18.40    0.90 
  -4   3  -8   18.30    0.80 
   4  -3   8   19.10    0.90 
  -5   3  -8   39.20    1.50 
  -5   3  -8   37.40    1.50 
  -5   3  -8   37.20    1.60 
   5  -3   8   38.60    1.60 
  -6   3  -8   51.59    2.10 
   6  -3   8   54.59    2.10 
  -6  -2   8   93.59    3.60 
   5   2  -8    9.50    0.50 
  -5  -2   8    9.70    0.50 
   4   2  -8   28.80    1.30 
  -4  -2   8   29.50    1.30 
   3   2  -8  359.56   13.70 
  -3  -2   8  352.36   13.70 
   2   2  -8 1977.00   93.09 
  -2  -2   8 1967.00   74.69 
  -2  -2   8 1901.51   92.69 
   1   2  -8  243.58   10.00 
  -1  -2   8  274.27   10.00 
   0   2  -8   35.80    1.50 
   0   2  -8   31.80    1.40 
   0   2  -8   33.80    1.90 
   0  -2   8   34.30    1.90 
  -1   2  -8   40.90    2.30 
  -1   2  -8   39.50    1.60 
  -1   2  -8   37.90    1.70 
  -1   2  -8   41.30    1.70 
   1  -2   8   40.90    2.20 
  -2   2  -8   31.90    1.40 
  -2   2  -8   33.40    2.00 
  -2   2  -8   35.10    1.40 
  -2   2  -8   35.30    1.50 
   2  -2   8   33.10    1.90 
  -3   2  -8   20.10    0.90 
  -3   2  -8   19.40    0.80 
  -3   2  -8   20.60    0.90 
  -3   2  -8   18.80    1.50 
   3  -2   8   19.60    1.40 
   3  -2   8   18.70    0.90 
  -4   2  -8   91.69    3.70 
  -4   2  -8   97.49    3.70 
  -4   2  -8   97.19    3.70 
   4  -2   8   89.09    3.70 
  -5   2  -8  109.99    4.20 
  -5   2  -8  106.99    4.20 
  -5   2  -8  106.99    4.20 
   5  -2   8  104.49    4.20 
  -6   2  -8   11.30    0.50 
  -6   2  -8   10.90    0.50 
   6  -2   8   11.10    0.50 
   6   1  -8    0.70    0.10 
  -6  -1   8    0.80    0.10 
   5   1  -8   64.29    2.70 
   5   1  -8   66.69    2.60 
  -5  -1   8   68.19    2.70 
   4   1  -8  241.98    9.20 
  -4  -1   8  232.18    9.20 
   3   1  -8  551.84   20.00 
  -3  -1   8  556.64   20.00 
  -3  -1   8  456.65   20.40 
   2   1  -8  218.98    8.30 
  -2  -1   8  211.18    8.30 
  -2  -1   8  208.78    8.80 
   1   1  -8  802.42   29.70 
   1   1  -8  755.52   30.20 
  -1  -1   8  769.32   30.30 
  -1  -1   8  785.82   29.70 
  -1   1  -8  186.88    7.60 
  -1   1  -8  200.88    7.60 
  -1   1  -8  208.68    7.70 
  -1   1  -8  189.18    7.60 
  -1   1  -8  191.18    8.30 
   1  -1   8  205.08    8.20 
  -2   1  -8   36.10    1.50 
  -2   1  -8   33.70    2.10 
  -2   1  -8   37.10    1.50 
  -2   1  -8   37.30    1.50 
   2  -1   8   35.00    2.00 
  -3   1  -8  155.38    5.80 
  -3   1  -8  148.59    5.80 
  -3   1  -8  157.98    5.90 
  -3   1  -8  147.69    6.60 
   3  -1   8  140.99    6.50 
  -4   1  -8   82.09    3.30 
  -4   1  -8   81.69    3.20 
  -4   1  -8   83.69    3.30 
  -5   1  -8  105.99    4.00 
  -5   1  -8  100.29    4.00 
  -5   1  -8  108.79    4.10 
   5  -1   8  100.69    4.10 
  -6   1  -8   51.99    2.10 
  -6   1  -8   53.09    2.10 
   6   0  -8   76.79    3.10 
  -6   0   8   82.19    3.10 
   5   0  -8    4.10    0.30 
   5   0  -8    4.40    0.30 
  -5   0   8    4.40    0.30 
   4   0  -8   14.70    0.70 
  -4   0   8   14.50    0.70 
   3   0  -8  283.57   10.70 
  -3   0   8  274.87   10.60 
  -3   0   8  286.67   10.70 
  -3   0   8  263.27   11.20 
   2   0  -8   19.30    0.90 
  -2   0   8   18.80    1.30 
  -2   0   8   19.50    0.90 
   1   0  -8  690.53   27.30 
   1   0  -8  689.73   26.60 
   1   0  -8  684.63   26.60 
   1   0  -8  637.84   26.70 
  -1   0   8  730.53   26.70 
  -1   0   8  765.62   27.30 
   0   0  -8  112.99    5.00 
   0   0  -8  109.69    4.30 
   0   0  -8  110.89    4.30 
   0   0  -8  114.59    4.40 
   0   0   8  109.29    4.90 
  -1   0  -8   13.00    0.60 
  -1   0  -8   13.00    0.60 
  -1   0  -8   12.00    1.10 
  -1   0  -8   13.20    0.60 
  -1   0  -8   13.10    0.60 
   1   0   8   12.70    1.00 
  -2   0  -8   17.50    0.80 
  -2   0  -8   17.30    0.80 
  -2   0  -8   17.60    0.80 
  -2   0  -8   16.20    1.30 
   2   0   8   17.30    1.30 
  -3   0  -8   45.90    1.90 
  -3   0  -8   46.60    1.90 
  -3   0  -8   44.80    2.60 
  -3   0  -8   48.70    1.90 
   3   0   8   43.00    2.50 
  -4   0  -8  176.18    6.80 
  -4   0  -8  176.08    6.80 
  -4   0  -8  174.18    6.80 
  -5   0  -8  183.78    7.00 
  -5   0  -8  179.18    7.00 
  -6   0  -8    0.30    0.10 
   6  -1  -8    2.50    0.20 
   5  -1  -8   16.10    0.70 
   5  -1  -8   15.50    0.70 
  -5   1   8   15.40    0.70 
  -5   1   8   16.20    0.70 
   4  -1  -8  219.38    8.40 
  -4   1   8  209.78    8.30 
  -4   1   8  221.38    8.40 
   3  -1  -8   35.40    1.50 
  -3   1   8   34.00    1.40 
  -3   1   8   35.00    1.40 
  -3   1   8   30.20    1.80 
   2  -1  -8  527.65   19.60 
   2  -1  -8  501.95   19.70 
  -2   1   8  478.55   20.10 
  -2   1   8  544.05   19.70 
   1  -1  -8   37.00    1.60 
   1  -1  -8   37.00    1.50 
   1  -1  -8   39.90    1.50 
   1  -1  -8   36.60    2.10 
  -1   1   8   37.30    1.60 
  -1   1   8   38.90    2.10 
   0  -1  -8  231.88    9.40 
   0  -1  -8  230.48    8.70 
   0  -1  -8  232.18    8.80 
   0  -1  -8  212.08    8.70 
   0  -1  -8  225.78    8.70 
   0   1   8  227.88    9.30 
  -1  -1  -8   35.70    1.40 
  -1  -1  -8   35.90    2.10 
  -1  -1  -8   30.90    1.50 
  -1  -1  -8   37.60    1.50 
  -1  -1  -8   35.20    1.50 
   1   1   8   34.60    2.00 
  -2  -1  -8   25.90    1.10 
  -2  -1  -8   21.90    1.60 
  -2  -1  -8   26.00    1.10 
  -2  -1  -8   24.00    1.00 
   2   1   8   23.60    1.60 
  -3  -1  -8  162.98    6.30 
  -3  -1  -8  166.08    6.40 
  -3  -1  -8  157.98    6.30 
  -4  -1  -8   33.00    1.40 
  -4  -1  -8   33.90    1.50 
  -4  -1  -8   33.90    1.40 
  -5  -1  -8    1.60    0.20 
  -5  -1  -8    1.60    0.20 
  -6  -1  -8    3.10    0.20 
  -6  -1  -8    3.00    0.20 
   6  -2  -8    9.70    0.50 
  -6   2   8   10.60    0.40 
   5  -2  -8   18.50    0.90 
   5  -2  -8   18.50    0.90 
  -5   2   8   20.20    0.80 
   4  -2  -8  377.06   14.40 
  -4   2   8  372.46   14.30 
   3  -2  -8   23.70    1.10 
   2  -2  -8  256.37   10.00 
   2  -2  -8  251.77    9.90 
   2  -2  -8  268.57    9.90 
   1  -2  -8    8.60    0.40 
   1  -2  -8    8.80    0.40 
   1  -2  -8    9.10    0.50 
   1  -2  -8    8.00    0.90 
  -1   2   8    8.70    0.80 
  -1   2   8    8.10    0.50 
   0  -2  -8    6.90    0.40 
   0  -2  -8    7.00    0.80 
   0  -2  -8    7.10    0.40 
   0  -2  -8    7.60    0.40 
   0   2   8    6.60    0.70 
  -1  -2  -8  279.37   10.70 
  -1  -2  -8  279.67   10.70 
  -1  -2  -8  267.17   10.70 
  -1  -2  -8  275.87   11.50 
  -1  -2  -8  300.77   10.70 
   1   2   8  265.77   11.30 
  -2  -2  -8   93.79    3.70 
  -2  -2  -8   97.89    3.70 
  -2  -2  -8   92.99    4.50 
  -2  -2  -8   94.79    3.70 
   2   2   8   88.19    4.30 
  -3  -2  -8    1.60    0.20 
  -3  -2  -8    1.60    0.20 
  -3  -2  -8    1.50    0.20 
  -4  -2  -8    2.30    0.20 
  -4  -2  -8    2.30    0.20 
  -4  -2  -8    2.40    0.20 
  -5  -2  -8  148.19    5.80 
  -5  -2  -8  148.79    5.70 
  -6   3   8    0.40    0.10 
  -5   3   8  125.09    4.80 
   4  -3  -8    1.10    0.20 
  -4   3   8    1.20    0.20 
   3  -3  -8    6.10    0.40 
   2  -3  -8   62.59    2.50 
   2  -3  -8   65.29    2.60 
   2  -3  -8   61.39    2.50 
   1  -3  -8    4.00    0.70 
   1  -3  -8    4.20    0.30 
   1  -3  -8    4.80    0.30 
   0  -3  -8   22.30    1.00 
   0  -3  -8   20.70    1.50 
   0  -3  -8   22.10    1.00 
   0  -3  -8   22.90    1.00 
  -1  -3  -8   27.10    1.10 
  -1  -3  -8   27.20    1.10 
  -1  -3  -8   27.20    1.80 
  -1  -3  -8   25.00    1.10 
  -1  -3  -8   26.70    1.20 
  -2  -3  -8   20.40    0.90 
  -2  -3  -8   18.90    0.90 
  -2  -3  -8   20.20    0.90 
  -3  -3  -8    4.80    0.30 
  -3  -3  -8    4.00    0.30 
  -3  -3  -8    4.30    0.30 
  -4  -3  -8   11.10    0.50 
  -4  -3  -8   10.70    0.50 
  -5  -3  -8    1.20    0.10 
  -5  -3  -8    1.30    0.10 
  -6   4   8   51.29    2.00 
  -5   4   8    1.00    0.10 
   4  -4  -8  114.49    4.60 
  -4   4   8  118.59    4.50 
   3  -4  -8   57.79    2.30 
   3  -4  -8   53.19    2.20 
  -3   4   8   54.49    2.20 
   2  -4  -8  315.47   12.40 
   2  -4  -8  318.27   12.30 
   2  -4  -8  332.77   12.40 
   1  -4  -8  110.59    4.30 
   1  -4  -8  110.69    4.40 
   1  -4  -8  109.69    4.30 
   0  -4  -8   43.60    1.80 
   0  -4  -8   44.00    1.80 
   0  -4  -8   43.40    1.80 
  -1  -4  -8    7.50    0.40 
  -1  -4  -8    6.90    0.40 
  -1  -4  -8    6.90    0.40 
  -2  -4  -8    0.30    0.10 
  -2  -4  -8    0.30    0.10 
  -3  -4  -8  125.59    5.00 
  -3  -4  -8  133.99    5.00 
  -4  -4  -8   49.60    2.00 
  -5   5   8   23.20    1.00 
   4  -5  -8   10.10    0.60 
  -4   5   8   13.30    0.60 
   3  -5  -8   43.00    1.80 
   3  -5  -8   39.60    1.70 
  -3   5   8   42.80    1.70 
   2  -5  -8   66.49    2.60 
   2  -5  -8   61.99    2.50 
   2  -5  -8   61.89    2.50 
   1  -5  -8  291.47   11.50 
   1  -5  -8  304.27   11.60 
   1  -5  -8  302.97   11.50 
   0  -5  -8   62.09    2.50 
   0  -5  -8   62.19    2.50 
   0  -5  -8   61.09    2.50 
  -1  -5  -8    9.20    0.50 
  -1  -5  -8    9.50    0.50 
  -1  -5  -8    9.80    0.50 
  -2  -5  -8   60.19    2.40 
  -2  -5  -8   60.89    2.40 
  -3  -5  -8  120.19    4.60 
  -5   6   8   58.69    2.30 
   4  -6  -8   73.59    2.90 
  -4   6   8   75.49    2.90 
   3  -6  -8   47.30    1.90 
   3  -6  -8   48.50    2.00 
  -3   6   8   48.80    1.90 
   2  -6  -8   18.30    0.80 
   2  -6  -8   17.10    0.80 
  -2   6   8   17.20    0.80 
   1  -6  -8   50.69    2.00 
   1  -6  -8   49.40    2.00 
   1  -6  -8   51.49    2.10 
   0  -6  -8    5.40    0.30 
   0  -6  -8    5.30    0.30 
   0  -6  -8    5.10    0.30 
  -1  -6  -8   22.40    0.90 
  -1  -6  -8   21.90    0.90 
  -1  -6  -8   20.80    0.90 
  -2  -6  -8    3.10    0.20 
   3  -7  -8    2.90    0.20 
   3  -7  -8    3.00    0.20 
  -3   7   8    3.10    0.20 
   2  -7  -8   15.30    0.70 
   2  -7  -8   15.00    0.60 
  -2   7   8   13.80    0.60 
   1  -7  -8   12.10    0.50 
   1  -7  -8   12.10    0.60 
  -1   7   8   11.20    0.50 
   0  -7  -8    4.20    0.30 
   0  -7  -8    4.30    0.20 
  -1  -7  -8   36.20    1.40 
   1  -8   9   23.60    1.00 
   2  -8   9   66.09    2.60 
   2   7  -9    3.50    0.20 
   1   7  -9  112.09    4.30 
  -1  -7   9  107.49    4.20 
   0   7  -9    0.80    0.10 
   0  -7   9    0.90    0.10 
   1  -7   9   11.50    0.50 
  -3   7  -9   37.00    1.50 
   3  -7   9   38.60    1.50 
  -4   7  -9  201.98    7.70 
   3   6  -9    5.30    0.30 
   2   6  -9   13.60    0.70 
  -2  -6   9   16.20    0.70 
   1   6  -9   81.29    3.30 
  -1  -6   9   82.89    3.20 
   0   6  -9   39.10    1.60 
   0  -6   9   39.20    1.60 
  -1   6  -9    2.60    0.20 
  -1   6  -9    2.40    0.20 
   1  -6   9    2.50    0.20 
  -2   6  -9  133.19    5.00 
   2  -6   9  125.49    5.00 
  -3   6  -9  106.99    4.20 
   3  -6   9  107.19    4.20 
  -4   6  -9    2.80    0.20 
   4  -6   9    2.40    0.20 
   4   5  -9   17.80    0.80 
  -4  -5   9   18.30    0.80 
   3   5  -9    7.30    0.40 
  -3  -5   9    8.90    0.40 
   2   5  -9   15.30    0.70 
  -2  -5   9   15.00    0.70 
   1   5  -9  156.18    6.00 
  -1  -5   9  149.09    5.90 
   0   5  -9   86.09    3.50 
   0  -5   9   88.19    3.50 
   0  -5   9   87.49    3.40 
  -1   5  -9  570.84   21.00 
  -1   5  -9  542.65   23.20 
   1  -5   9  544.75   21.00 
   1  -5   9  542.35   21.00 
  -2   5  -9    6.30    0.30 
   2  -5   9    6.50    0.40 
  -3   5  -9   18.70    0.80 
   3  -5   9   18.30    0.80 
  -4   5  -9   72.09    2.90 
   4  -5   9   74.09    2.90 
  -5   5  -9   20.60    0.80 
   5  -5   9   21.10    0.90 
   4   4  -9   29.70    1.20 
  -4  -4   9   29.80    1.20 
   3   4  -9    0.70    0.20 
  -3  -4   9    0.50    0.10 
   2   4  -9   79.49    3.10 
  -2  -4   9   70.89    3.00 
   1   4  -9  395.56   14.70 
  -1  -4   9  368.16   14.70 
   0   4  -9   89.69    3.50 
   0  -4   9   86.59    3.50 
  -1   4  -9  389.36   15.70 
  -1   4  -9  412.96   15.70 
   1  -4   9  428.86   15.80 
  -2   4  -9   22.00    0.90 
   2  -4   9   21.40    1.00 
   2  -4   9   20.40    0.90 
  -3   4  -9   37.70    1.60 
   3  -4   9   38.10    1.60 
   3  -4   9   37.70    1.60 
  -4   4  -9  163.48    6.00 
   4  -4   9  140.49    6.00 
   4  -4   9  159.38    6.00 
  -5   4  -9  197.78    7.60 
   5  -4   9  197.28    7.60 
  -5  -3   9   29.20    1.20 
   4   3  -9    9.90    0.50 
  -4  -3   9    9.90    0.50 
   3   3  -9   11.90    0.60 
  -3  -3   9   11.80    0.60 
   2   3  -9    3.70    0.30 
  -2  -3   9    4.20    0.30 
   1   3  -9    0.50    0.10 
  -1  -3   9    0.40    0.10 
   0   3  -9   12.50    0.60 
   0   3  -9   11.80    0.60 
   0  -3   9   11.00    1.00 
   0  -3   9   12.80    0.70 
  -1   3  -9   21.30    1.00 
  -1   3  -9   23.60    1.00 
  -1   3  -9   19.50    1.50 
   1  -3   9   23.10    1.00 
   1  -3   9   20.80    1.50 
  -2   3  -9   28.10    1.20 
   2  -3   9   28.20    1.30 
  -3   3  -9  287.17   10.80 
  -3   3  -9  277.07   10.90 
  -4   3  -9    4.40    0.30 
  -4   3  -9    4.80    0.30 
   4  -3   9    4.60    0.30 
  -5   3  -9   55.89    2.30 
  -5   3  -9   57.19    2.20 
   5  -3   9   57.99    2.30 
  -5  -2   9    4.00    0.30 
   4   2  -9   93.39    3.70 
  -4  -2   9   93.79    3.70 
   3   2  -9   62.49    2.50 
  -3  -2   9   60.39    2.50 
   2   2  -9  115.19    4.60 
  -2  -2   9  117.89    4.60 
   1   2  -9    1.60    0.20 
  -1  -2   9    2.30    0.30 
  -1  -2   9    1.90    0.50 
   0   2  -9   35.80    2.10 
   0   2  -9   38.20    1.50 
   0   2  -9   37.10    1.60 
   0  -2   9   39.30    1.60 
   0  -2   9   37.70    2.10 
  -1   2  -9    5.60    0.80 
  -1   2  -9    5.80    0.30 
  -1   2  -9    6.60    0.40 
   1  -2   9    6.70    0.40 
   1  -2   9    6.40    0.80 
  -2   2  -9   15.90    0.70 
  -2   2  -9   16.40    0.80 
  -3   2  -9   61.49    2.40 
  -3   2  -9   55.49    2.30 
  -3   2  -9   58.79    2.40 
  -4   2  -9    2.10    0.20 
  -4   2  -9    2.00    0.20 
  -4   2  -9    1.90    0.20 
  -5   2  -9   68.49    2.80 
  -5   2  -9   73.19    2.80 
  -5   2  -9   74.59    2.90 
   5   1  -9    1.40    0.10 
  -5  -1   9    0.90    0.10 
   4   1  -9    0.40    0.10 
  -4  -1   9    0.60    0.20 
   3   1  -9    0.70    0.20 
   2   1  -9   43.30    1.80 
  -2  -1   9   40.00    2.30 
  -2  -1   9   44.00    1.80 
   1   1  -9  753.62   27.70 
  -1  -1   9  747.13   27.70 
  -1  -1   9  673.43   28.20 
   0   1  -9  359.66   14.80 
   0   1  -9  372.46   14.00 
   0   1  -9  361.46   14.10 
   0  -1   9  371.76   14.10 
   0  -1   9  367.76   14.70 
  -1   1  -9   16.60    0.80 
  -1   1  -9   15.90    1.30 
  -1   1  -9   17.10    0.80 
  -1   1  -9   18.90    0.80 
   1  -1   9   18.50    1.30 
  -2   1  -9   11.50    0.50 
  -2   1  -9   10.80    1.10 
  -2   1  -9   10.90    0.60 
  -2   1  -9   10.50    0.50 
   2  -1   9   10.30    1.00 
  -3   1  -9    0.50    0.10 
  -3   1  -9    0.30    0.10 
  -3   1  -9    0.10    0.10 
  -4   1  -9   80.69    3.30 
  -4   1  -9   87.89    3.40 
  -4   1  -9   84.29    3.30 
  -5   1  -9  119.39    4.40 
  -5   1  -9  108.89    4.40 
  -5   1  -9  113.09    4.40 
   5   0  -9    1.00    0.10 
   4   0  -9    4.30    0.30 
  -4   0   9    3.40    0.30 
   3   0  -9  109.09    4.30 
  -3   0   9  107.29    4.30 
   2   0  -9    3.80    0.30 
   2   0  -9    4.00    0.20 
  -2   0   9    3.30    0.60 
  -2   0   9    3.50    0.30 
   1   0  -9  608.94   22.00 
   1   0  -9  561.54   21.90 
   1   0  -9  566.54   21.90 
  -1   0   9  564.04   22.00 
   0   0  -9   16.30    0.80 
   0   0  -9   15.90    0.70 
   0   0  -9   15.00    1.20 
   0   0  -9   16.30    0.70 
   0   0   9   15.00    0.80 
   0   0   9   15.90    1.20 
  -1   0  -9   52.99    2.90 
  -1   0  -9   56.59    2.30 
  -1   0  -9   54.59    2.20 
  -1   0  -9   56.19    2.20 
   1   0   9   55.19    2.90 
  -2   0  -9   70.09    2.90 
  -2   0  -9   71.19    2.80 
  -2   0  -9   69.19    2.80 
  -3   0  -9  161.28    6.10 
  -3   0  -9  153.58    6.10 
  -3   0  -9  158.48    6.20 
  -4   0  -9    1.20    0.20 
  -4   0  -9    1.10    0.10 
  -4   0  -9    1.00    0.20 
  -5   0  -9   26.10    1.10 
  -5   0  -9   26.60    1.10 
   5  -1  -9    0.20    0.10 
   4  -1  -9   28.10    1.20 
  -4   1   9   28.60    1.20 
  -4   1   9   29.00    1.20 
   3  -1  -9    0.50    0.10 
  -3   1   9    0.00    0.10 
  -3   1   9    0.20    0.10 
   2  -1  -9  114.09    4.40 
   2  -1  -9  117.99    4.40 
  -2   1   9  115.89    4.40 
  -2   1   9   98.09    5.00 
   1  -1  -9   83.29    3.10 
   1  -1  -9   71.89    3.70 
   1  -1  -9   78.39    3.10 
   1  -1  -9   78.69    3.10 
  -1   1   9   74.39    3.60 
  -1   1   9   80.59    3.20 
   0  -1  -9  416.76   18.20 
   0  -1  -9  461.25   19.70 
   0  -1  -9  398.36   16.70 
   0  -1  -9  434.96   15.90 
   0   1   9  393.46   16.50 
   0   1   9  394.46   16.00 
  -1  -1  -9    0.70    0.10 
  -1  -1  -9    0.30    0.30 
  -1  -1  -9    0.60    0.10 
  -1  -1  -9    0.50    0.10 
  -1  -1  -9    0.50    0.10 
   1   1   9    0.70    0.40 
  -2  -1  -9   50.19    2.10 
  -2  -1  -9   49.30    2.00 
  -2  -1  -9   50.69    2.00 
  -3  -1  -9  117.09    4.30 
  -3  -1  -9  105.99    4.30 
  -3  -1  -9  105.69    4.30 
  -4  -1  -9  211.38    8.50 
  -4  -1  -9  224.38    8.50 
  -4  -1  -9  226.88    8.50 
  -5  -1  -9   59.09    2.40 
  -5  -1  -9   59.99    2.30 
   5  -2  -9    4.80    0.30 
  -5   2   9    5.20    0.30 
   4  -2  -9   97.59    3.90 
  -4   2   9  100.39    3.90 
   3  -2  -9   45.10    1.90 
  -3   2   9   46.50    1.90 
   2  -2  -9    6.40    0.40 
   2  -2  -9    6.60    0.40 
   2  -2  -9    6.30    0.30 
   1  -2  -9    3.80    0.30 
   1  -2  -9    3.80    0.30 
   1  -2  -9    3.20    0.70 
   1  -2  -9    3.70    0.30 
  -1   2   9    3.60    0.30 
   0  -2  -9   10.60    1.10 
   0  -2  -9   13.00    0.60 
   0  -2  -9   12.90    0.60 
   0  -2  -9   12.90    0.60 
   0   2   9   12.30    0.70 
  -1  -2  -9    4.00    0.30 
  -1  -2  -9    3.50    0.30 
  -1  -2  -9    3.80    0.30 
  -2  -2  -9    3.20    0.30 
  -2  -2  -9    3.60    0.30 
  -2  -2  -9    3.00    0.20 
  -3  -2  -9   13.10    0.70 
  -3  -2  -9   13.60    0.60 
  -3  -2  -9   13.60    0.60 
  -4  -2  -9    6.50    0.40 
  -4  -2  -9    6.40    0.30 
  -4  -2  -9    7.00    0.40 
  -5  -2  -9   31.40    1.30 
  -5  -2  -9   33.70    1.30 
  -5   3   9   28.70    1.20 
   4  -3  -9    4.60    0.30 
  -4   3   9    4.60    0.30 
   3  -3  -9    6.00    0.40 
  -3   3   9    5.50    0.30 
   2  -3  -9   34.50    1.40 
   2  -3  -9   34.30    1.50 
   2  -3  -9   32.80    1.40 
   1  -3  -9    7.20    0.50 
   1  -3  -9    7.40    0.40 
   1  -3  -9    7.70    0.40 
   0  -3  -9   21.20    0.90 
   0  -3  -9   21.10    1.00 
   0  -3  -9   21.30    0.90 
  -1  -3  -9   67.79    2.70 
  -1  -3  -9   67.99    2.70 
  -1  -3  -9   63.79    2.70 
  -2  -3  -9   25.00    1.00 
  -2  -3  -9   23.60    1.10 
  -2  -3  -9   24.80    1.10 
  -3  -3  -9    1.10    0.20 
  -3  -3  -9    1.10    0.10 
  -3  -3  -9    1.00    0.10 
  -5   4   9    4.60    0.20 
   4  -4  -9   47.00    1.90 
  -4   4   9   45.00    1.80 
   3  -4  -9    4.10    0.30 
  -3   4   9    3.80    0.30 
   2  -4  -9    0.20    0.10 
   2  -4  -9    0.20    0.10 
   2  -4  -9    0.10    0.10 
   1  -4  -9   54.59    2.30 
   1  -4  -9   54.29    2.30 
   1  -4  -9   60.69    2.30 
   0  -4  -9  146.79    5.80 
   0  -4  -9  152.08    5.80 
   0  -4  -9  146.69    5.80 
  -1  -4  -9   44.00    1.80 
  -1  -4  -9   43.60    1.80 
  -1  -4  -9   46.00    1.80 
  -2  -4  -9   22.80    0.90 
  -2  -4  -9   21.70    0.90 
  -3  -4  -9    4.70    0.30 
  -3  -4  -9    4.20    0.20 
   4  -5  -9    9.10    0.50 
  -4   5   9    9.90    0.40 
   3  -5  -9   22.20    0.90 
  -3   5   9   19.50    0.90 
   2  -5  -9    0.70    0.20 
   2  -5  -9    0.70    0.10 
   1  -5  -9   56.09    2.30 
   1  -5  -9   59.59    2.30 
   1  -5  -9   55.19    2.30 
   0  -5  -9   21.70    1.00 
   0  -5  -9   22.60    1.00 
   0  -5  -9   22.80    1.00 
  -1  -5  -9   79.79    3.10 
  -1  -5  -9   77.49    3.10 
  -2  -5  -9    6.60    0.30 
  -2  -5  -9    6.70    0.30 
  -4   6   9   23.10    0.90 
   3  -6  -9    1.30    0.10 
  -3   6   9    1.80    0.10 
  -2   6   9    0.40    0.10 
   1  -6  -9   17.00    0.80 
   1  -6  -9   16.00    0.70 
   0  -6  -9   27.60    1.10 
   0  -6  -9   26.80    1.10 
   0  -6  -9   25.30    1.10 
  -1  -6  -9    0.40    0.10 
  -1  -6  -9    0.40    0.10 
   2  -7  -9    2.60    0.20 
   1  -7  -9   35.60    1.40 
   1  -7  -9   36.30    1.40 
   0  -7  -9    9.10    0.40 
   1   7 -10    1.40    0.10 
   2   6 -10    3.60    0.20 
   1   6 -10    0.70    0.10 
   0   6 -10    2.40    0.20 
  -2   6 -10   42.20    1.70 
   2  -6  10   41.50    1.70 
  -3   6 -10    5.80    0.30 
   3  -6  10    5.50    0.30 
  -4   6 -10   15.70    0.70 
   3   5 -10    0.20    0.10 
  -3  -5  10    0.30    0.10 
   2   5 -10   26.60    1.10 
  -2  -5  10   23.60    1.10 
   1   5 -10    0.30    0.10 
  -1  -5  10    0.60    0.10 
   0   5 -10   16.20    0.80 
   0  -5  10   18.30    0.80 
  -1   5 -10   37.60    1.50 
   1  -5  10   36.90    1.50 
  -2   5 -10   16.20    0.70 
  -3   5 -10    8.50    0.40 
  -4   5 -10   12.40    0.50 
   4   4 -10    0.20    0.10 
   3   4 -10    0.10    0.10 
  -3  -4  10    0.20    0.10 
   2   4 -10   88.79    3.50 
  -2  -4  10   87.69    3.50 
   1   4 -10  270.67   10.40 
  -1  -4  10  269.07   10.40 
   0   4 -10  105.79    4.20 
   0  -4  10  106.69    4.20 
  -1   4 -10  191.38    7.50 
   1  -4  10  199.48    7.60 
  -2   4 -10  237.98    9.20 
   2  -4  10  242.28    9.30 
  -3   4 -10   77.69    3.00 
   3  -4  10   74.89    3.00 
  -4   4 -10   78.19    2.90 
   4  -4  10   72.09    3.00 
   4   3 -10    6.30    0.30 
  -4  -3  10    6.20    0.30 
   3   3 -10    3.10    0.30 
  -3  -3  10    3.00    0.20 
   2   3 -10    7.60    0.50 
  -2  -3  10    7.60    0.40 
   1   3 -10    1.10    0.20 
  -1  -3  10    1.50    0.20 
   0   3 -10   44.50    1.90 
   0   3 -10   44.10    1.80 
   0  -3  10   47.00    1.90 
  -1   3 -10   75.69    3.00 
   1  -3  10   75.79    3.10 
  -2   3 -10   17.40    0.80 
   2  -3  10   18.00    0.90 
  -3   3 -10  115.29    4.50 
   3  -3  10  115.29    4.50 
  -4   3 -10  206.08    7.70 
   4  -3  10  193.58    7.70 
  -5   3 -10    9.50    0.40 
  -5  -2  10  139.49    5.40 
   4   2 -10   18.00    0.80 
  -4  -2  10   18.30    0.80 
   3   2 -10    4.70    0.30 
  -3  -2  10    5.50    0.30 
   2   2 -10  335.37   12.60 
  -2  -2  10  319.27   12.60 
   1   2 -10  189.08    7.00 
  -1  -2  10  167.98    7.00 
   0   2 -10    0.20    0.10 
   0  -2  10    0.40    0.10 
  -1   2 -10   11.80    0.60 
   1  -2  10   12.20    0.70 
  -2   2 -10   55.39    2.20 
   2  -2  10   52.29    2.20 
  -3   2 -10   14.10    0.70 
  -3   2 -10   16.00    0.70 
  -3   2 -10   15.20    0.70 
  -4   2 -10   81.29    3.10 
  -4   2 -10   76.19    3.10 
  -4   2 -10   77.09    3.00 
  -5   2 -10    8.70    0.40 
   5  -2  10    9.10    0.40 
  -5  -1  10  107.49    4.20 
   4   1 -10    6.00    0.40 
  -4  -1  10    5.60    0.30 
   3   1 -10    7.30    0.40 
  -3  -1  10    7.70    0.40 
   2   1 -10  131.99    5.40 
  -2  -1  10  140.79    5.40 
   1   1 -10  120.29    4.80 
  -1  -1  10  123.39    4.80 
   0   1 -10   12.30    0.60 
   0   1 -10   12.90    0.60 
   0  -1  10   13.00    0.70 
  -1   1 -10    3.20    0.20 
  -1   1 -10    3.10    0.20 
   1  -1  10    3.60    0.30 
  -2   1 -10    8.20    0.40 
  -2   1 -10    8.50    0.40 
  -2   1 -10    8.00    0.50 
  -3   1 -10   78.69    3.10 
  -3   1 -10   72.99    3.00 
  -3   1 -10   77.69    3.00 
  -4   1 -10   46.40    1.90 
  -4   1 -10   43.90    1.80 
  -4   1 -10   45.40    1.80 
  -5   1 -10    4.20    0.20 
  -5   1 -10    4.10    0.20 
   4   0 -10   63.89    2.70 
  -4   0  10   68.99    2.70 
   3   0 -10    3.30    0.30 
  -3   0  10    3.40    0.30 
   2   0 -10  335.87   12.80 
  -2   0  10  330.47   12.80 
   1   0 -10    4.80    0.30 
   1   0 -10    5.30    0.40 
   1   0 -10    4.60    0.30 
  -1   0  10    5.40    0.40 
   0   0 -10 1131.89   41.10 
   0   0 -10 1106.69   41.10 
   0   0 -10 1025.90   41.20 
   0   0  10 1057.49   41.20 
  -1   0 -10  171.48    6.60 
  -1   0 -10  174.08    6.70 
   1   0  10  169.98    6.70 
  -2   0 -10  125.39    4.90 
  -2   0 -10  124.19    4.90 
  -2   0 -10  124.49    4.80 
  -3   0 -10    2.40    0.20 
  -3   0 -10    2.30    0.20 
  -3   0 -10    2.20    0.20 
  -4   0 -10   51.19    2.10 
  -4   0 -10   51.09    2.00 
  -4   0 -10   51.19    2.00 
  -5   0 -10    1.70    0.10 
  -5   0 -10    2.40    0.20 
   4  -1 -10    2.60    0.20 
   3  -1 -10   64.59    2.50 
  -3   1  10   61.59    2.40 
  -3   1  10   59.69    2.50 
   2  -1 -10   46.30    1.90 
   2  -1 -10   47.00    1.90 
  -2   1  10   45.00    1.90 
   1  -1 -10   13.60    0.60 
   1  -1 -10   10.80    0.50 
   1  -1 -10   11.30    0.60 
  -1   1  10   10.80    0.60 
   0  -1 -10   11.50    0.60 
   0  -1 -10   11.50    0.60 
   0  -1 -10   11.20    0.60 
   0   1  10   11.60    0.60 
  -2  -1 -10   37.60    1.60 
  -2  -1 -10   38.40    1.60 
  -2  -1 -10   37.50    1.60 
  -3  -1 -10    1.40    0.20 
  -3  -1 -10    1.30    0.20 
  -4  -1 -10   42.10    1.60 
  -4  -1 -10   41.60    1.70 
  -4  -1 -10   40.70    1.70 
   4  -2 -10    0.10    0.10 
  -4   2  10    0.10    0.10 
   3  -2 -10    0.40    0.10 
  -3   2  10    0.40    0.10 
   2  -2 -10    0.80    0.20 
   2  -2 -10    1.00    0.10 
  -1   2  10    0.70    0.20 
   0  -2 -10    2.30    0.20 
   0  -2 -10    2.80    0.30 
   0  -2 -10    2.70    0.20 
   0   2  10    2.30    0.20 
  -1  -2 -10   23.30    1.00 
  -1  -2 -10   24.40    1.00 
   1   2  10   22.90    1.10 
  -2  -2 -10   37.80    1.60 
  -2  -2 -10   38.50    1.60 
  -3  -2 -10   28.30    1.10 
  -3  -2 -10   28.00    1.10 
  -3  -2 -10   26.50    1.20 
  -4  -2 -10   15.70    0.60 
  -4  -2 -10   15.20    0.60 
  -4  -2 -10   14.80    0.70 
   4  -3 -10    2.20    0.20 
  -4   3  10    2.40    0.20 
   3  -3 -10   36.40    1.50 
  -3   3  10   36.30    1.50 
   2  -3 -10   28.70    1.20 
   2  -3 -10   30.80    1.20 
   2  -3 -10   29.30    1.30 
   1  -3 -10   11.60    0.60 
   1  -3 -10   11.50    0.60 
   1  -3 -10   12.20    0.60 
   0  -3 -10  120.79    4.80 
   0  -3 -10  126.69    4.80 
   0  -3 -10  123.79    4.90 
  -1  -3 -10    0.40    0.10 
  -1  -3 -10    0.30    0.10 
  -2  -3 -10    2.00    0.20 
  -2  -3 -10    2.00    0.20 
  -3  -3 -10  133.49    5.00 
  -3  -3 -10  128.39    5.00 
   4  -4 -10    6.90    0.40 
  -4   4  10    7.20    0.30 
   3  -4 -10   18.60    0.80 
  -3   4  10   18.30    0.80 
   2  -4 -10   90.89    3.60 
   2  -4 -10   94.09    3.70 
   1  -4 -10   12.90    0.60 
   1  -4 -10   12.70    0.60 
   1  -4 -10   12.00    0.60 
   0  -4 -10    7.60    0.40 
   0  -4 -10    7.50    0.40 
   0  -4 -10    7.70    0.40 
  -1  -4 -10   43.20    1.80 
  -1  -4 -10   45.40    1.80 
  -2  -4 -10    5.50    0.30 
  -2  -4 -10    5.00    0.30 
  -3  -4 -10    7.30    0.30 
   3  -5 -10   19.10    0.80 
  -3   5  10   19.20    0.80 
   2  -5 -10   16.20    0.70 
   2  -5 -10   17.30    0.80 
  -2   5  10   17.70    0.70 
   1  -5 -10   93.89    3.70 
   1  -5 -10   94.09    3.70 
   1  -5 -10   95.59    3.70 
   0  -5 -10  193.08    7.60 
   0  -5 -10  200.68    7.60 
   0  -5 -10  200.48    7.60 
  -1  -5 -10   81.59    3.20 
  -1  -5 -10   85.49    3.20 
   2  -6 -10   49.70    2.00 
  -2   6  10   50.39    2.00 
   1  -6 -10  104.09    4.00 
   1  -6 -10  103.19    4.00 
  -1   6  10  102.99    4.00 
   0  -6 -10   22.50    0.90 
   2   5 -11   78.39    3.00 
  -2  -5  11   77.19    3.00 
   1   5 -11    0.50    0.10 
  -1  -5  11    0.40    0.10 
   0   5 -11   19.50    0.80 
   0  -5  11   19.30    0.80 
   1  -5  11   55.59    2.20 
  -2   5 -11  133.99    5.10 
  -3   5 -11   19.30    0.80 
   3   4 -11   13.20    0.60 
  -3  -4  11   12.60    0.60 
   2   4 -11    0.20    0.10 
  -2  -4  11    0.10    0.10 
   1   4 -11    7.10    0.40 
  -1  -4  11    7.50    0.40 
   0   4 -11    0.70    0.10 
  -1   4 -11   54.09    2.20 
   1  -4  11   55.89    2.20 
  -2   4 -11   16.40    0.70 
   2  -4  11   16.10    0.70 
  -3   4 -11  134.19    5.00 
   3  -4  11  125.29    5.00 
  -4   4 -11   39.40    1.50 
   3   3 -11   99.19    3.80 
  -3  -3  11   95.39    3.80 
   2   3 -11   21.00    0.90 
  -2  -3  11   20.30    0.90 
   1   3 -11    2.40    0.20 
  -1  -3  11    2.50    0.20 
   0   3 -11  154.48    6.30 
   0  -3  11  169.78    6.30 
  -1   3 -11  117.39    4.50 
   1  -3  11  116.79    4.60 
  -2   3 -11  217.88    8.40 
   2  -3  11  221.68    8.50 
  -3   3 -11   69.59    2.80 
   3  -3  11   71.79    2.80 
  -4   3 -11  125.69    4.60 
   4  -3  11  115.99    4.70 
   4   2 -11   32.00    1.30 
  -4  -2  11   33.40    1.30 
   3   2 -11    3.30    0.20 
  -3  -2  11    3.50    0.20 
   2   2 -11    0.80    0.20 
  -2  -2  11    1.00    0.20 
   1   2 -11    7.90    0.50 
  -1  -2  11    8.90    0.50 
   0   2 -11    1.00    0.20 
   0   2 -11    1.50    0.10 
   0  -2  11    1.30    0.20 
  -1   2 -11    7.40    0.40 
   1  -2  11    7.30    0.50 
  -2   2 -11   19.40    0.90 
   2  -2  11   20.90    0.90 
  -3   2 -11  157.98    6.10 
   3  -2  11  161.58    6.20 
  -4   2 -11  151.98    5.80 
   4  -2  11  149.09    5.80 
   4   1 -11   10.00    0.50 
  -4  -1  11    9.40    0.50 
   3   1 -11   72.39    2.90 
  -3  -1  11   71.39    2.90 
   2   1 -11  114.79    4.70 
  -2  -1  11  123.59    4.70 
   1   1 -11    0.90    0.20 
  -1  -1  11    1.00    0.20 
   0   1 -11   43.90    1.90 
   0   1 -11   46.30    1.80 
   0  -1  11   46.90    1.90 
  -1   1 -11   78.69    3.00 
   1  -1  11   75.99    3.10 
  -2   1 -11    2.10    0.20 
  -2   1 -11    2.60    0.20 
   2  -1  11    2.30    0.30 
  -3   1 -11    1.50    0.20 
  -3   1 -11    1.40    0.10 
   3  -1  11    1.70    0.20 
  -4   1 -11    5.40    0.30 
  -4   1 -11    5.00    0.30 
   4  -1  11    5.40    0.30 
   4   0 -11  143.09    5.40 
  -4   0  11  134.09    5.30 
   3   0 -11   32.00    1.30 
  -3   0  11   31.40    1.30 
   2   0 -11   58.99    2.40 
  -2   0  11   57.49    2.40 
   1   0 -11   16.20    0.80 
  -1   0  11   15.20    0.80 
   0   0 -11   48.10    1.90 
   0   0 -11   47.40    1.90 
   0   0 -11   47.40    1.90 
   0   0  11   45.00    2.00 
  -1   0 -11   29.40    1.20 
  -1   0 -11   28.20    1.20 
   1   0  11   29.40    1.30 
  -2   0 -11   19.20    0.80 
  -2   0 -11   19.80    0.90 
   2   0  11   20.00    0.90 
  -3   0 -11   74.19    2.90 
  -3   0 -11   77.49    3.00 
   3   0  11   74.99    3.00 
  -4   0 -11    7.90    0.40 
  -4   0 -11    7.80    0.40 
   4   0  11    8.20    0.40 
   4  -1 -11    9.80    0.50 
   3  -1 -11   39.30    1.60 
   2  -1 -11   32.70    1.30 
  -2   1  11   31.50    1.30 
  -2   1  11   29.80    1.30 
   1  -1 -11    1.80    0.20 
   1  -1 -11    1.80    0.20 
   1  -1 -11    1.70    0.20 
  -1   1  11    1.60    0.20 
   0  -1 -11   88.19    3.30 
   0  -1 -11   85.79    3.30 
   0  -1 -11   83.69    3.40 
   0   1  11   82.29    3.40 
  -1  -1 -11  256.47   10.10 
  -1  -1 -11  259.27   10.10 
   1   1  11  276.77   10.20 
   2   1  11    0.80    0.20 
  -3  -1 -11    1.20    0.10 
   3   1  11    1.60    0.20 
   4  -2 -11   24.30    1.00 
   3  -2 -11   22.60    1.00 
  -3   2  11   21.00    0.90 
   2  -2 -11  110.59    4.30 
  -2   2  11  109.29    4.30 
   1  -2 -11    9.80    0.50 
   1  -2 -11   10.00    0.50 
   1  -2 -11   10.40    0.50 
   0  -2 -11   18.60    0.80 
   0  -2 -11   18.60    0.80 
   0  -2 -11   18.90    0.80 
   0   2  11   16.90    0.80 
  -1  -2 -11   19.50    0.80 
  -1  -2 -11   19.70    0.80 
   1   2  11   19.00    0.90 
  -2  -2 -11    0.50    0.10 
  -2  -2 -11    0.50    0.10 
   2   2  11    0.50    0.10 
  -3  -2 -11    9.90    0.40 
  -3  -2 -11    9.50    0.40 
   3   2  11    8.70    0.40 
   3  -3 -11   75.79    2.90 
  -3   3  11   71.99    2.90 
   2  -3 -11    3.40    0.30 
  -2   3  11    3.40    0.20 
   1  -3 -11   82.99    3.30 
   1  -3 -11   84.29    3.30 
   1  -3 -11   82.79    3.20 
   0  -3 -11   18.40    0.80 
   0  -3 -11   17.40    0.80 
   0  -3 -11   19.60    0.80 
  -1  -3 -11   57.49    2.30 
  -1  -3 -11   58.09    2.30 
  -2  -3 -11    5.00    0.30 
  -2  -3 -11    5.40    0.30 
   3  -4 -11   16.60    0.70 
  -3   4  11   16.20    0.70 
   2  -4 -11   16.70    0.70 
  -2   4  11   17.30    0.70 
   1  -4 -11    2.50    0.20 
   1  -4 -11    2.70    0.20 
   1  -4 -11    3.20    0.20 
   0  -4 -11    0.30    0.10 
   0  -4 -11    0.40    0.10 
  -1  -4 -11   11.60    0.50 
  -1  -4 -11   11.30    0.50 
  -1   5  11   62.89    2.40 
   1   4 -12   49.70    1.90 
  -1  -4  12   48.50    1.90 
   0  -4  12    9.20    0.40 
   1  -4  12    8.60    0.40 
   2   3 -12    4.50    0.30 
  -2  -3  12    4.40    0.30 
   1   3 -12   15.70    0.70 
  -1  -3  12   16.80    0.70 
   0  -3  12  170.38    6.60 
  -1   3 -12   64.69    2.60 
   1  -3  12   66.99    2.60 
  -2   3 -12    8.50    0.40 
   2  -3  12    9.00    0.40 
  -3   3 -12    7.80    0.30 
   3   2 -12  117.89    4.60 
  -3  -2  12  122.49    4.60 
   2   2 -12   13.10    0.60 
  -2  -2  12   13.00    0.60 
   1   2 -12  162.58    6.40 
  -1  -2  12  171.18    6.50 
   0   2 -12    7.20    0.40 
   0  -2  12    7.90    0.40 
  -1   2 -12   25.30    1.00 
   1  -2  12   25.80    1.10 
  -2   2 -12    0.10    0.10 
   2  -2  12    0.10    0.10 
  -3   2 -12   62.59    2.40 
   3  -2  12   62.29    2.50 
   3   1 -12   75.29    2.90 
  -3  -1  12   71.69    2.90 
   2   1 -12    3.60    0.20 
  -2  -1  12    3.60    0.20 
   1   1 -12   36.90    1.60 
  -1  -1  12   40.40    1.60 
   0   1 -12   50.59    2.10 
   0   1 -12   51.89    2.10 
   0  -1  12   57.19    2.20 
  -1   1 -12    4.00    0.20 
   1  -1  12    3.40    0.30 
  -2   1 -12    3.60    0.20 
   2  -1  12    3.50    0.30 
  -3   1 -12   30.50    1.20 
   3  -1  12   30.60    1.30 
   3   0 -12   12.60    0.60 
   2   0 -12   69.49    2.70 
  -2   0  12   68.99    2.70 
   1   0 -12    1.10    0.20 
  -1   0  12    1.30    0.20 
   0   0 -12    8.70    0.50 
   0   0 -12   10.30    0.40 
   0   0  12    9.80    0.50 
  -1   0 -12   53.99    2.10 
  -1   0 -12   53.99    2.10 
   1   0  12   54.09    2.20 
  -2   0 -12   16.70    0.70 
  -2   0 -12   18.10    0.70 
   2   0  12   17.80    0.80 
  -3   0 -12    8.80    0.40 
   3   0  12    8.80    0.40 
   3  -1 -12   21.40    0.90 
   2  -1 -12  136.59    5.30 
   1  -1 -12  110.69    4.20 
  -1   1  12  106.19    4.20 
   0  -1 -12   59.39    2.30 
   0  -1 -12   57.09    2.30 
   0  -1 -12   57.39    2.40 
   0   1  12   58.29    2.30 
  -1  -1 -12   80.79    3.10 
  -1  -1 -12   79.39    3.10 
   1   1  12   80.19    3.10 
  -2  -1 -12    8.00    0.40 
  -2  -1 -12    8.20    0.40 
   2   1  12    7.80    0.40 
   3  -2 -12    0.20    0.10 
   2  -2 -12   62.59    2.40 
  -2   2  12   57.69    2.40 
   1  -2 -12  241.38    9.30 
   0  -2 -12    5.30    0.30 
   0  -2 -12    5.30    0.30 
  -1  -2 -12   69.39    2.70 
  -1  -2 -12   68.39    2.70 
  -2  -2 -12    0.40    0.10 
   2  -3 -12    5.40    0.30 
   1  -3 -12   14.10    0.70 
  -1   3  12   14.30    0.60 
   0  -3 -12   18.70    0.80 
   0  -3 -12   19.20    0.80 
  -1  -3 -12   26.40    1.10 
   0  -2  13   42.40    1.70 
   0  -1  13    7.60    0.40 
   1  -1  13   20.10    0.90 
  
_computing_structure_solution     'SHELXT 2014/4 (Sheldrick, 2014)' 
;
_shelx_hkl_checksum              63419
loop_
_space_group_symop_operation_xyz
'x, y, z'
'-x, -y, -z'
loop_
_atom_site_label
_atom_site_type_symbol
_atom_site_fract_x
_atom_site_fract_y
_atom_site_fract_z
_atom_site_U_iso_or_equiv
_atom_site_adp_type
_atom_site_occupancy
_atom_site_site_symmetry_order
_atom_site_calc_flag
_atom_site_refinement_flags_adp
O2 O 0.24403(12) 0.56873(10) 0.27363(8) 0.0254(2) Uani 1 1 d .
O3 O 0.57361(12) 0.59159(10) 0.35236(8) 0.0238(2) Uani 1 1 d .
O1 O 0.25628(14) 0.64022(11) 0.54576(9) 0.0306(2) Uani 1 1 d .
H1A H 0.335(3) 0.581(2) 0.5664(16) 0.037 Uiso 1 1 d U
C1 C 0.25273(19) 0.96754(14) 0.35572(12) 0.0253(3) Uani 1 1 d .
H1B H 0.175(2) 1.0521(19) 0.3508(14) 0.030 Uiso 1 1 d U
C2 C 0.21670(18) 0.86624(15) 0.44351(11) 0.0255(3) Uani 1 1 d .
H2A H 0.107(2) 0.8667(18) 0.5035(15) 0.031 Uiso 1 1 d U
C3 C 0.35096(18) 0.74707(14) 0.46290(11) 0.0228(3) Uani 1 1 d .
H3A H 0.477(2) 0.8051(18) 0.5010(14) 0.027 Uiso 1 1 d U
C4 C 0.40576(16) 0.67135(13) 0.33505(11) 0.0204(3) Uani 1 1 d .
C5 C 0.73546(17) 0.64787(14) 0.26844(11) 0.0226(3) Uani 1 1 d .
H5A H 0.861(2) 0.6417(18) 0.3144(14) 0.027 Uiso 1 1 d U
C6 C 0.7205(2) 0.55008(15) 0.14233(12) 0.0274(3) Uani 1 1 d .
H6B H 0.582(3) 0.5281(19) 0.1116(15) 0.033 Uiso 1 1 d U
H6A H 0.766(2) 0.448(2) 0.1528(15) 0.033 Uiso 1 1 d U
C7 C 0.8463(2) 0.64040(16) 0.04457(12) 0.0309(3) Uani 1 1 d .
H7B H 0.985(3) 0.662(2) 0.0734(16) 0.037 Uiso 1 1 d U
H7A H 0.840(3) 0.577(2) -0.0356(17) 0.037 Uiso 1 1 d U
C8 C 0.7755(2) 0.79562(15) 0.02610(12) 0.0274(3) Uani 1 1 d .
H8B H 0.630(2) 0.7733(19) -0.0035(15) 0.033 Uiso 1 1 d U
H8A H 0.852(2) 0.8469(19) -0.0406(16) 0.033 Uiso 1 1 d U
C9 C 0.7118(2) 1.05830(15) 0.13977(13) 0.0293(3) Uani 1 1 d .
H9B H 0.814(3) 1.148(2) 0.1709(15) 0.035 Uiso 1 1 d U
H9A H 0.684(2) 1.070(2) 0.0500(16) 0.035 Uiso 1 1 d U
C10 C 0.52670(19) 1.07408(14) 0.21489(11) 0.0256(3) Uani 1 1 d .
H10A H 0.495(2) 1.178(2) 0.2293(15) 0.031 Uiso 1 1 d U
C11 C 0.41696(18) 0.95584(14) 0.26908(11) 0.0222(3) Uani 1 1 d .
C12 C 0.47845(16) 0.79752(13) 0.24686(10) 0.0193(3) Uani 1 1 d .
H12A H 0.428(2) 0.7523(17) 0.1629(14) 0.023 Uiso 1 1 d U
C13 C 0.70609(17) 0.81618(14) 0.25695(11) 0.0207(3) Uani 1 1 d .
H13A H 0.749(2) 0.8760(18) 0.3398(14) 0.025 Uiso 1 1 d U
C14 C 0.80004(18) 0.90382(14) 0.14801(11) 0.0237(3) Uani 1 1 d .
H14A H 0.948(2) 0.9351(18) 0.1643(14) 0.028 Uiso 1 1 d U
C15 C 0.1871(2) 0.41747(15) 0.31965(14) 0.0307(3) Uani 1 1 d .
H15A H 0.121(3) 0.352(2) 0.2533(18) 0.046 Uiso 1 1 d U
H15B H 0.097(3) 0.418(2) 0.3830(18) 0.046 Uiso 1 1 d U
H15C H 0.298(3) 0.376(2) 0.3570(17) 0.046 Uiso 1 1 d U
loop_
_atom_site_aniso_label
_atom_site_aniso_U_11
_atom_site_aniso_U_22
_atom_site_aniso_U_33
_atom_site_aniso_U_23
_atom_site_aniso_U_13
_atom_site_aniso_U_12
O2 0.0241(4) 0.0215(4) 0.0289(4) 0.0028(3) -0.0019(3) -0.0013(3)
O3 0.0208(4) 0.0262(4) 0.0271(4) 0.0104(3) 0.0061(3) 0.0075(3)
O1 0.0305(5) 0.0346(5) 0.0302(5) 0.0137(4) 0.0116(4) 0.0095(4)
C1 0.0255(6) 0.0246(6) 0.0272(6) -0.0001(5) 0.0005(5) 0.0089(5)
C2 0.0234(6) 0.0275(6) 0.0257(6) -0.0009(5) 0.0046(5) 0.0053(5)
C3 0.0214(6) 0.0262(6) 0.0207(6) 0.0040(5) 0.0031(4) 0.0023(5)
C4 0.0170(5) 0.0211(6) 0.0237(6) 0.0036(4) 0.0007(4) 0.0039(4)
C5 0.0182(6) 0.0262(6) 0.0250(6) 0.0084(5) 0.0040(4) 0.0052(4)
C6 0.0307(7) 0.0238(6) 0.0297(6) 0.0045(5) 0.0056(5) 0.0090(5)
C7 0.0363(7) 0.0319(7) 0.0276(7) 0.0052(5) 0.0100(5) 0.0132(6)
C8 0.0311(7) 0.0299(7) 0.0234(6) 0.0077(5) 0.0074(5) 0.0089(5)
C9 0.0326(7) 0.0230(6) 0.0326(7) 0.0083(5) 0.0066(6) 0.0028(5)
C10 0.0313(6) 0.0221(6) 0.0245(6) 0.0023(5) -0.0003(5) 0.0072(5)
C11 0.0234(6) 0.0232(6) 0.0207(5) 0.0018(4) -0.0020(4) 0.0063(5)
C12 0.0188(5) 0.0209(6) 0.0184(5) 0.0022(4) 0.0006(4) 0.0037(4)
C13 0.0186(6) 0.0228(6) 0.0207(6) 0.0033(5) 0.0006(4) 0.0026(4)
C14 0.0211(6) 0.0252(6) 0.0254(6) 0.0072(5) 0.0035(5) 0.0024(5)
C15 0.0302(7) 0.0224(6) 0.0375(7) 0.0035(5) 0.0046(6) -0.0019(5)
loop_
_atom_type_symbol
_atom_type_description
_atom_type_scat_dispersion_real
_atom_type_scat_dispersion_imag
_atom_type_scat_source
C C 0.0181 0.0091 'International Tables Vol C Tables 4.2.6.8 and 6.1.1.4'
H H 0.0000 0.0000 'International Tables Vol C Tables 4.2.6.8 and 6.1.1.4'
O O 0.0492 0.0322 'International Tables Vol C Tables 4.2.6.8 and 6.1.1.4'
loop_
_geom_angle_atom_site_label_1
_geom_angle_atom_site_label_2
_geom_angle_atom_site_label_3
_geom_angle
C4 O2 C15 117.75(9)
C4 O3 C5 110.12(8)
C3 O1 H1A 110.0(12)
C2 C1 C11 119.50(11)
C2 C1 H1B 120.8(9)
C11 C1 H1B 119.6(9)
C1 C2 C3 121.62(11)
C1 C2 H2A 123.5(9)
C3 C2 H2A 114.8(9)
O1 C3 C2 108.26(9)
O1 C3 C4 114.87(10)
C2 C3 C4 110.24(9)
O1 C3 H3A 110.2(9)
C2 C3 H3A 106.9(9)
C4 C3 H3A 106.1(9)
O2 C4 O3 110.83(9)
O2 C4 C12 107.35(9)
O3 C4 C12 105.28(8)
O2 C4 C3 113.34(9)
O3 C4 C3 109.40(9)
C12 C4 C3 110.32(9)
O3 C5 C13 102.00(9)
O3 C5 C6 112.29(10)
C13 C5 C6 113.07(9)
O3 C5 H5A 105.4(9)
C13 C5 H5A 112.4(9)
C6 C5 H5A 111.1(9)
C5 C6 C7 110.28(10)
C5 C6 H6B 109.9(10)
C7 C6 H6B 108.0(10)
C5 C6 H6A 109.8(9)
C7 C6 H6A 110.8(9)
H6B C6 H6A 108.1(13)
C8 C7 C6 111.10(10)
C8 C7 H7B 108.9(10)
C6 C7 H7B 108.9(10)
C8 C7 H7A 109.9(10)
C6 C7 H7A 110.4(10)
H7B C7 H7A 107.6(14)
C7 C8 C14 111.12(10)
C7 C8 H8B 109.1(9)
C14 C8 H8B 110.4(9)
C7 C8 H8A 109.3(9)
C14 C8 H8A 110.1(10)
H8B C8 H8A 106.7(13)
C10 C9 C14 116.96(10)
C10 C9 H9B 105.7(10)
C14 C9 H9B 108.8(10)
C10 C9 H9A 109.3(10)
C14 C9 H9A 108.4(10)
H9B C9 H9A 107.3(14)
C11 C10 C9 123.99(11)
C11 C10 H10A 119.0(9)
C9 C10 H10A 116.8(10)
C10 C11 C1 126.52(11)
C10 C11 C12 116.69(11)
C1 C11 C12 116.60(10)
C11 C12 C4 119.18(9)
C11 C12 C13 109.22(9)
C4 C12 C13 103.90(9)
C11 C12 H12A 107.9(8)
C4 C12 H12A 105.2(8)
C13 C12 H12A 111.4(9)
C5 C13 C12 101.49(9)
C5 C13 C14 119.40(10)
C12 C13 C14 109.92(9)
C5 C13 H13A 106.8(8)
C12 C13 H13A 107.2(9)
C14 C13 H13A 111.0(9)
C13 C14 C8 110.31(10)
C13 C14 C9 109.53(10)
C8 C14 C9 113.96(10)
C13 C14 H14A 109.6(9)
C8 C14 H14A 106.2(9)
C9 C14 H14A 107.1(9)
O2 C15 H15A 106.8(11)
O2 C15 H15B 112.7(12)
H15A C15 H15B 105.9(16)
O2 C15 H15C 114.1(11)
H15A C15 H15C 113.5(16)
H15B C15 H15C 103.6(16)
loop_
_geom_bond_atom_site_label_1
_geom_bond_atom_site_label_2
_geom_bond_distance
O2 C4 1.4098(14)
O2 C15 1.4309(15)
O3 C4 1.4428(13)
O3 C5 1.4674(13)
O1 C3 1.4128(14)
O1 H1A 0.835(18)
C1 C2 1.3317(18)
C1 C11 1.4643(17)
C1 H1B 0.975(16)
C2 C3 1.5096(16)
C2 H2A 0.983(17)
C3 C4 1.5409(16)
C3 H3A 0.980(16)
C4 C12 1.5229(15)
C5 C13 1.5188(16)
C5 C6 1.5238(17)
C5 H5A 0.986(16)
C6 C7 1.5342(17)
C6 H6B 0.975(17)
C6 H6A 0.999(17)
C7 C8 1.5278(17)
C7 H7B 0.965(18)
C7 H7A 0.975(18)
C8 C14 1.5311(18)
C8 H8B 1.011(16)
C8 H8A 0.975(17)
C9 C10 1.5137(18)
C9 C14 1.5625(17)
C9 H9B 0.985(18)
C9 H9A 0.991(17)
C10 C11 1.3369(17)
C10 H10A 0.962(17)
C11 C12 1.5004(15)
C12 C13 1.5251(15)
C12 H12A 0.982(15)
C13 C14 1.5260(15)
C13 H13A 1.002(15)
C14 H14A 1.001(16)
C15 H15A 0.93(2)
C15 H15B 0.92(2)
C15 H15C 0.98(2)
loop_
_geom_hbond_atom_site_label_D
_geom_hbond_atom_site_label_H
_geom_hbond_atom_site_label_A
_geom_hbond_distance_DH
_geom_hbond_distance_HA
_geom_hbond_distance_DA
_geom_hbond_angle_DHA
_geom_hbond_site_symmetry_A
O1 H1A O3 0.835(18) 1.973(19) 2.7641(12) 157.9(17) 2_666
C15 H15B O1 0.92(2) 2.50(2) 3.3215(16) 149.4(15) 2_566
loop_
_geom_torsion_atom_site_label_1
_geom_torsion_atom_site_label_2
_geom_torsion_atom_site_label_3
_geom_torsion_atom_site_label_4
_geom_torsion
C11 C1 C2 C3 4.86(19)
C1 C2 C3 O1 -169.88(11)
C1 C2 C3 C4 -43.46(16)
C15 O2 C4 O3 47.86(13)
C15 O2 C4 C12 162.33(10)
C15 O2 C4 C3 -75.59(13)
C5 O3 C4 O2 108.81(10)
C5 O3 C4 C12 -6.96(12)
C5 O3 C4 C3 -125.51(10)
O1 C3 C4 O2 51.39(13)
C2 C3 C4 O2 -71.23(12)
O1 C3 C4 O3 -72.83(12)
C2 C3 C4 O3 164.54(9)
O1 C3 C4 C12 171.80(9)
C2 C3 C4 C12 49.18(13)
C4 O3 C5 C13 30.23(11)
C4 O3 C5 C6 -91.11(11)
O3 C5 C6 C7 161.99(10)
C13 C5 C6 C7 47.23(14)
C5 C6 C7 C8 -59.45(14)
C6 C7 C8 C14 62.26(15)
C14 C9 C10 C11 -11.82(19)
C9 C10 C11 C1 171.62(12)
C9 C10 C11 C12 -3.27(18)
C2 C1 C11 C10 -149.89(13)
C2 C1 C11 C12 25.01(16)
C10 C11 C12 C4 161.24(11)
C1 C11 C12 C4 -14.17(15)
C10 C11 C12 C13 42.16(14)
C1 C11 C12 C13 -133.26(10)
O2 C4 C12 C11 100.92(11)
O3 C4 C12 C11 -140.95(10)
C3 C4 C12 C11 -23.02(14)
O2 C4 C12 C13 -137.30(9)
O3 C4 C12 C13 -19.17(11)
C3 C4 C12 C13 98.76(10)
O3 C5 C13 C12 -40.50(10)
C6 C5 C13 C12 80.29(11)
O3 C5 C13 C14 -161.41(10)
C6 C5 C13 C14 -40.61(14)
C11 C12 C13 C5 165.05(9)
C4 C12 C13 C5 36.87(11)
C11 C12 C13 C14 -67.61(12)
C4 C12 C13 C14 164.20(9)
C5 C13 C14 C8 41.61(14)
C12 C13 C14 C8 -74.96(12)
C5 C13 C14 C9 167.82(10)
C12 C13 C14 C9 51.25(13)
C7 C8 C14 C13 -50.80(14)
C7 C8 C14 C9 -174.48(10)
C10 C9 C14 C13 -13.44(16)
C10 C9 C14 C8 110.66(13)
