#------------------------------------------------------------------------------
#$Date: 2019-11-24 02:15:59 +0200 (Sun, 24 Nov 2019) $
#$Revision: 236219 $
#$URL: file:///home/coder/svn-repositories/cod/cif/4/03/74/4037477.cif $
#------------------------------------------------------------------------------
#
# This file is available in the Crystallography Open Database (COD),
# http://www.crystallography.net/
#
# All data on this site have been placed in the public domain by the
# contributors.
#
data_4037477
loop_
_publ_author_name
'Evoniuk, Christopher J.'
'Gomes, Gabriel Dos Passos'
'Ly, Michelle'
'White, Frankie D.'
'Alabugin, Igor V.'
_publ_section_title
;
 Coupling Radical Homoallylic Expansions with C-C Fragmentations for the
 Synthesis of Heteroaromatics: Quinolines from Reactions of
 o-Alkenylarylisonitriles with Aryl, Alkyl, and Perfluoroalkyl Radicals.
;
_journal_issue                   8
_journal_name_full               'The Journal of organic chemistry'
_journal_page_first              4265
_journal_page_last               4278
_journal_paper_doi               10.1021/acs.joc.7b00262
_journal_volume                  82
_journal_year                    2017
_chemical_formula_moiety         '2(C19 H12 Br N)'
_chemical_formula_sum            'C38 H24 Br2 N2'
_chemical_formula_weight         668.41
_space_group_crystal_system      triclinic
_space_group_IT_number           2
_space_group_name_Hall           '-P 1'
_space_group_name_H-M_alt        'P -1'
_atom_sites_solution_hydrogens   geom
_audit_creation_date             2017-01-26
_audit_creation_method
;
Olex2 1.2
(compiled 2017.01.04 svn.r3372 for OlexSys, GUI svn.r5292)
;
_cell_angle_alpha                103.756(2)
_cell_angle_beta                 94.792(2)
_cell_angle_gamma                109.637(2)
_cell_formula_units_Z            1
_cell_length_a                   4.0508(5)
_cell_length_b                   12.2873(15)
_cell_length_c                   15.1864(19)
_cell_measurement_reflns_used    5951
_cell_measurement_temperature    137(2)
_cell_measurement_theta_max      25.328
_cell_measurement_theta_min      2.607
_cell_volume                     680.37(15)
_computing_cell_refinement       'SAINT v8.34A (Bruker, 2013)'
_computing_data_reduction        'SAINT v8.34A (Bruker, 2013)'
_computing_molecular_graphics    'Olex2 (Dolomanov et al., 2009)'
_computing_publication_material  'Olex2 (Dolomanov et al., 2009)'
_computing_structure_refinement  'ShelXL (Sheldrick, 2015)'
_diffrn_ambient_temperature      137.0
_diffrn_measured_fraction_theta_full 0.999
_diffrn_measured_fraction_theta_max 0.998
_diffrn_measurement_device_type  'Bruker apex II'
_diffrn_measurement_method       '0.5 wide w/ exposures'
_diffrn_radiation_type           MoK\a
_diffrn_radiation_wavelength     0.71073
_diffrn_reflns_av_R_equivalents  0.0275
_diffrn_reflns_av_unetI/netI     0.0255
_diffrn_reflns_Laue_measured_fraction_full 0.999
_diffrn_reflns_Laue_measured_fraction_max 0.998
_diffrn_reflns_limit_h_max       4
_diffrn_reflns_limit_h_min       -4
_diffrn_reflns_limit_k_max       14
_diffrn_reflns_limit_k_min       -14
_diffrn_reflns_limit_l_max       18
_diffrn_reflns_limit_l_min       -18
_diffrn_reflns_number            8328
_diffrn_reflns_point_group_measured_fraction_full 0.999
_diffrn_reflns_point_group_measured_fraction_max 0.998
_diffrn_reflns_theta_full        25.242
_diffrn_reflns_theta_max         25.352
_diffrn_reflns_theta_min         2.607
_diffrn_source                   'Imus microfocused'
_exptl_absorpt_coefficient_mu    3.012
_exptl_absorpt_correction_T_max  0.7452
_exptl_absorpt_correction_T_min  0.6358
_exptl_absorpt_correction_type   multi-scan
_exptl_absorpt_process_details
'SADABS-2014/2 (Bruker,2014/2) was used for absorption correction. wR2(int) was 0.0795 before and 0.0411 after correction. The Ratio of minimum to maximum transmission is 0.8532. The \l/2 correction factor is 0.00150.'
_exptl_crystal_colour            colorless
_exptl_crystal_density_diffrn    1.631
_exptl_crystal_density_meas      ?
_exptl_crystal_density_method    'not measured'
_exptl_crystal_description       irregular
_exptl_crystal_F_000             336
_exptl_crystal_size_max          0.08
_exptl_crystal_size_mid          0.04
_exptl_crystal_size_min          0.03
_refine_diff_density_max         0.458
_refine_diff_density_min         -0.238
_refine_diff_density_rms         0.068
_refine_ls_extinction_method     none
_refine_ls_goodness_of_fit_ref   1.154
_refine_ls_hydrogen_treatment    constr
_refine_ls_matrix_type           full
_refine_ls_number_parameters     190
_refine_ls_number_reflns         2477
_refine_ls_number_restraints     0
_refine_ls_restrained_S_all      1.154
_refine_ls_R_factor_all          0.0301
_refine_ls_R_factor_gt           0.0263
_refine_ls_shift/su_max          0.000
_refine_ls_shift/su_mean         0.000
_refine_ls_structure_factor_coef Fsqd
_refine_ls_weighting_details
'w=1/[\s^2^(Fo^2^)+(0.0273P)^2^+0.4083P] where P=(Fo^2^+2Fc^2^)/3'
_refine_ls_weighting_scheme      calc
_refine_ls_wR_factor_gt          0.0620
_refine_ls_wR_factor_ref         0.0631
_reflns_Friedel_coverage         0.000
_reflns_number_gt                2310
_reflns_number_total             2477
_reflns_threshold_expression     'I > 2\s(I)'
_iucr_refine_instructions_details
;

    chris_br_0m.res created by SHELXL-2014/7

TITL chris_br_0m_a.res in P-1
REM Old TITL Chris_Br_0m in P-1 #2
REM SHELXT solution in P-1
REM R1 0.072, Rweak 0.013, Alpha 0.050, Orientation as input
REM Formula found by SHELXT: C19 Br N
CELL 0.71073 4.0508 12.2873 15.1864 103.756 94.792 109.637
ZERR 1 0.0005 0.0015 0.0019 0.002 0.002 0.002
LATT 1
SFAC C H Br N
UNIT 38 24 2 2
 
L.S. 50 0 0
PLAN  4
TEMP -136.15
BOND $H
LIST 6
fmap 2 53
acta
REM <olex2.extras>
REM <HklSrc "%.\\Chris_Br_0m.hkl">
REM </olex2.extras>
 
WGHT    0.027300    0.408300
FVAR       0.86744
BR01  3    0.321286    0.230437    0.010334    11.00000    0.02363    0.02923 =
         0.01826    0.00562    0.00061    0.00718
N002  4    0.722194    0.492152    0.273979    11.00000    0.01691    0.01570 =
         0.01771    0.00547    0.00020    0.00388
C003  1    0.747523    0.304846    0.191508    11.00000    0.01656    0.01863 =
         0.01901    0.00634    0.00810    0.00670
C004  1    0.498603    0.089824    0.113676    11.00000    0.02154    0.01875 =
         0.02138    0.00103    0.00710    0.00370
AFIX  43
H004  2    0.353310    0.025234    0.062139    11.00000   -1.20000
AFIX   0
C005  1    0.680521    0.673981    0.366703    11.00000    0.01448    0.01813 =
         0.01957    0.00405   -0.00381    0.00598
C006  1    0.915036    0.671762    0.221448    11.00000    0.01521    0.02037 =
         0.02175    0.00870   -0.00274    0.00334
C007  1    1.006990    0.606987    0.144485    11.00000    0.01880    0.02758 =
         0.02225    0.01343    0.00236    0.00489
AFIX  43
H007  2    1.108500    0.645895    0.100782    11.00000   -1.20000
AFIX   0
C008  1    0.802267    0.432497    0.198790    11.00000    0.01472    0.01930 =
         0.01920    0.00604    0.00056    0.00516
C009  1    0.905694    0.278428    0.265020    11.00000    0.02087    0.02151 =
         0.01939    0.00423    0.00350    0.00571
AFIX  43
H009  2    1.040895    0.342288    0.318128    11.00000   -1.20000
AFIX   0
C00A  1    0.870484    0.162067    0.262415    11.00000    0.02595    0.02523 =
         0.02340    0.01082    0.00590    0.01108
AFIX  43
H00A  2    0.987226    0.146881    0.312449    11.00000   -1.20000
AFIX   0
C00B  1    0.774487    0.610038    0.285595    11.00000    0.01406    0.01704 =
         0.01878    0.00592   -0.00272    0.00332
C00C  1    0.664612    0.067151    0.186744    11.00000    0.02764    0.01748 =
         0.03267    0.00954    0.01176    0.00848
AFIX  43
H00C  2    0.637871   -0.013155    0.185171    11.00000   -1.20000
AFIX   0
C00D  1    0.542439    0.618278    0.433598    11.00000    0.02129    0.01875 =
         0.02120    0.00554   -0.00093    0.00718
AFIX  43
H00D  2    0.508080    0.535923    0.425681    11.00000   -1.20000
AFIX   0
C00E  1    0.961065    0.795498    0.237299    11.00000    0.02134    0.02241 =
         0.02831    0.01512   -0.00197    0.00427
AFIX  43
H00E  2    1.055373    0.836645    0.194068    11.00000   -1.20000
AFIX   0
C00F  1    0.728712    0.796148    0.379219    11.00000    0.01717    0.01850 =
         0.02562    0.00469   -0.00479    0.00640
C00G  1    0.950390    0.487674    0.132377    11.00000    0.02173    0.02594 =
         0.01761    0.00534    0.00301    0.00740
AFIX  43
H00G  2    1.009796    0.442859    0.080196    11.00000   -1.20000
AFIX   0
C00H  1    0.873072    0.855022    0.312539    11.00000    0.02336    0.01676 =
         0.03243    0.00936   -0.00353    0.00601
AFIX  43
H00H  2    0.907322    0.937553    0.321582    11.00000   -1.20000
AFIX   0
C00I  1    0.546036    0.207441    0.116310    11.00000    0.01651    0.02461 =
         0.01644    0.00607    0.00542    0.00653
C00J  1    0.502478    0.801707    0.522286    11.00000    0.02550    0.03117 =
         0.02404   -0.00065    0.00056    0.01513
AFIX  43
H00J  2    0.441613    0.844824    0.575052    11.00000   -1.20000
AFIX   0
C00K  1    0.635601    0.858064    0.457982    11.00000    0.02483    0.01823 =
         0.03167    0.00057   -0.00424    0.01050
AFIX  43
H00K  2    0.665535    0.940207    0.466686    11.00000   -1.20000
AFIX   0
C00L  1    0.456556    0.680931    0.510093    11.00000    0.02424    0.02993 =
         0.02092    0.00693    0.00256    0.01169
AFIX  43
H00L  2    0.365740    0.642031    0.554795    11.00000   -1.20000
AFIX   0
HKLF 4
 
REM  chris_br_0m_a.res in P-1
REM R1 =  0.0263 for    2310 Fo > 4sig(Fo)  and  0.0301 for all    2477 data
REM    190 parameters refined using      0 restraints
 
END  
     
WGHT      0.0272      0.4121 

REM Highest difference peak  0.458,  deepest hole -0.238,  1-sigma level  0.068
Q1    1   0.3382  0.3207  0.0373  11.00000  0.05    0.46
Q2    1   0.7440  0.7426  0.3814  11.00000  0.05    0.36
Q3    1   0.8771  0.6420  0.2591  11.00000  0.05    0.35
Q4    1   0.5708  0.2430  0.0014  11.00000  0.05    0.33

  REM The information below was added by Olex2.
  REM
  REM R1 = 0.0263 for 2310 Fo > 4sig(Fo) and 0.0301 for all 8328 data
  REM n/a parameters refined using n/a restraints
  REM Highest difference peak 0.46, deepest hole -0.24
  REM Mean Shift 0, Max Shift 0.000.

  REM +++ Tabular Listing of Refinement Information +++
  REM R1_all = 0.0301
  REM R1_gt = 0.0263
  REM wR_ref = 0.0631
  REM GOOF = 1.154
  REM Shift_max = 0.000
  REM Shift_mean = 0
  REM Reflections_all = 8328
  REM Reflections_gt = 2310
  REM Parameters = n/a
  REM Hole = -0.24
  REM Peak = 0.46
  REM Flack = n/a

  
;
_cod_data_source_file            jo7b00262_si_002.cif
_cod_data_source_block           chris_br_0m
_cod_depositor_comments
;
The following automatic conversions were performed:

data item '_exptl_crystal_density_meas' value 'N/A' was changed to
'?' -- the value is perceived as not measured.

Automatic conversion script
Id: cif_fix_values 6909 2019-04-08 15:41:33Z antanas 
;
_cod_database_code               4037477
_shelx_shelxl_version_number     2014/7
_shelx_space_group_comment
;
The symmetry employed for this shelxl refinement is uniquely defined
by the following loop, which should always be used as a source of
symmetry information in preference to the above space-group names.
They are only intended as comments.
;
_exptl_absorpt_special_details   SCALE
_olex2_refinement_description
;
1. Fixed Uiso
 At 1.2 times of:
  All C(H) groups
2.a Aromatic/amide H refined with riding coordinates:
 C004(H004), C007(H007), C009(H009), C00A(H00A), C00C(H00C), C00D(H00D),
 C00E(H00E), C00G(H00G), C00H(H00H), C00J(H00J), C00K(H00K), C00L(H00L)
;
_olex2_submission_special_instructions 'No special instructions were received'
loop_
_space_group_symop_operation_xyz
'x, y, z'
'-x, -y, -z'
loop_
_atom_site_label
_atom_site_type_symbol
_atom_site_fract_x
_atom_site_fract_y
_atom_site_fract_z
_atom_site_U_iso_or_equiv
_atom_site_adp_type
_atom_site_occupancy
_atom_site_site_symmetry_order
_atom_site_calc_flag
_atom_site_refinement_flags_posn
Br01 Br 0.32129(6) 0.23044(2) 0.01033(2) 0.02478(10) Uani 1 1 d .
N002 N 0.7222(5) 0.49215(16) 0.27398(12) 0.0174(4) Uani 1 1 d .
C003 C 0.7475(6) 0.3048(2) 0.19151(15) 0.0175(5) Uani 1 1 d .
C004 C 0.4986(6) 0.0898(2) 0.11368(16) 0.0222(5) Uani 1 1 d .
H004 H 0.3533 0.0252 0.0621 0.027 Uiso 1 1 calc R
C005 C 0.6805(6) 0.6740(2) 0.36670(15) 0.0181(5) Uani 1 1 d .
C006 C 0.9150(6) 0.6718(2) 0.22145(15) 0.0198(5) Uani 1 1 d .
C007 C 1.0070(6) 0.6070(2) 0.14449(16) 0.0228(5) Uani 1 1 d .
H007 H 1.1085 0.6459 0.1008 0.027 Uiso 1 1 calc R
C008 C 0.8023(6) 0.4325(2) 0.19879(15) 0.0181(5) Uani 1 1 d .
C009 C 0.9057(6) 0.2784(2) 0.26502(15) 0.0214(5) Uani 1 1 d .
H009 H 1.0409 0.3423 0.3181 0.026 Uiso 1 1 calc R
C00A C 0.8705(6) 0.1621(2) 0.26242(16) 0.0236(5) Uani 1 1 d .
H00A H 0.9872 0.1469 0.3124 0.028 Uiso 1 1 calc R
C00B C 0.7745(6) 0.61004(19) 0.28559(15) 0.0175(5) Uani 1 1 d .
C00C C 0.6646(6) 0.0672(2) 0.18674(17) 0.0250(5) Uani 1 1 d .
H00C H 0.6379 -0.0132 0.1852 0.030 Uiso 1 1 calc R
C00D C 0.5424(6) 0.6183(2) 0.43360(15) 0.0208(5) Uani 1 1 d .
H00D H 0.5081 0.5359 0.4257 0.025 Uiso 1 1 calc R
C00E C 0.9611(6) 0.7955(2) 0.23730(16) 0.0240(5) Uani 1 1 d .
H00E H 1.0554 0.8366 0.1941 0.029 Uiso 1 1 calc R
C00F C 0.7287(6) 0.7961(2) 0.37922(16) 0.0213(5) Uani 1 1 d .
C00G C 0.9504(6) 0.4877(2) 0.13238(15) 0.0223(5) Uani 1 1 d .
H00G H 1.0098 0.4429 0.0802 0.027 Uiso 1 1 calc R
C00H C 0.8731(6) 0.8550(2) 0.31254(17) 0.0246(5) Uani 1 1 d .
H00H H 0.9073 0.9376 0.3216 0.030 Uiso 1 1 calc R
C00I C 0.5460(6) 0.2074(2) 0.11631(15) 0.0193(5) Uani 1 1 d .
C00J C 0.5025(6) 0.8017(2) 0.52229(17) 0.0274(6) Uani 1 1 d .
H00J H 0.4416 0.8448 0.5751 0.033 Uiso 1 1 calc R
C00K C 0.6356(6) 0.8581(2) 0.45798(17) 0.0260(5) Uani 1 1 d .
H00K H 0.6655 0.9402 0.4667 0.031 Uiso 1 1 calc R
C00L C 0.4566(6) 0.6809(2) 0.51009(16) 0.0247(5) Uani 1 1 d .
H00L H 0.3657 0.6420 0.5548 0.030 Uiso 1 1 calc R
loop_
_atom_site_aniso_label
_atom_site_aniso_U_11
_atom_site_aniso_U_22
_atom_site_aniso_U_33
_atom_site_aniso_U_23
_atom_site_aniso_U_13
_atom_site_aniso_U_12
Br01 0.02363(14) 0.02923(15) 0.01826(13) 0.00562(10) 0.00061(9) 0.00718(10)
N002 0.0169(9) 0.0157(10) 0.0177(9) 0.0055(8) 0.0002(7) 0.0039(8)
C003 0.0166(11) 0.0186(11) 0.0190(11) 0.0063(9) 0.0081(9) 0.0067(9)
C004 0.0215(12) 0.0188(12) 0.0214(11) 0.0010(9) 0.0071(9) 0.0037(10)
C005 0.0145(11) 0.0181(11) 0.0196(11) 0.0041(9) -0.0038(9) 0.0060(9)
C006 0.0152(11) 0.0204(12) 0.0217(11) 0.0087(10) -0.0027(9) 0.0033(9)
C007 0.0188(12) 0.0276(13) 0.0222(12) 0.0134(10) 0.0024(9) 0.0049(10)
C008 0.0147(11) 0.0193(12) 0.0192(11) 0.0060(9) 0.0006(9) 0.0052(9)
C009 0.0209(12) 0.0215(12) 0.0194(11) 0.0042(9) 0.0035(9) 0.0057(10)
C00A 0.0259(13) 0.0252(13) 0.0234(12) 0.0108(10) 0.0059(10) 0.0111(11)
C00B 0.0141(11) 0.0170(11) 0.0188(11) 0.0059(9) -0.0027(8) 0.0033(9)
C00C 0.0276(13) 0.0175(12) 0.0327(13) 0.0095(10) 0.0118(11) 0.0085(10)
C00D 0.0213(12) 0.0187(12) 0.0212(11) 0.0055(9) -0.0009(9) 0.0072(10)
C00E 0.0213(12) 0.0224(12) 0.0283(13) 0.0151(10) -0.0020(10) 0.0043(10)
C00F 0.0172(11) 0.0185(12) 0.0256(12) 0.0047(10) -0.0048(9) 0.0064(10)
C00G 0.0217(12) 0.0259(13) 0.0176(11) 0.0053(10) 0.0030(9) 0.0074(10)
C00H 0.0234(12) 0.0168(12) 0.0324(13) 0.0094(10) -0.0035(10) 0.0060(10)
C00I 0.0165(11) 0.0246(12) 0.0164(11) 0.0061(9) 0.0054(9) 0.0065(10)
C00J 0.0255(13) 0.0312(14) 0.0240(12) -0.0007(11) 0.0006(10) 0.0151(11)
C00K 0.0248(13) 0.0182(12) 0.0317(13) 0.0006(10) -0.0042(10) 0.0105(10)
C00L 0.0242(13) 0.0299(13) 0.0209(12) 0.0069(10) 0.0026(10) 0.0117(11)
loop_
_atom_type_symbol
_atom_type_description
_atom_type_scat_dispersion_real
_atom_type_scat_dispersion_imag
_atom_type_scat_source
C C 0.0033 0.0016 'International Tables Vol C Tables 4.2.6.8 and 6.1.1.4'
H H 0.0000 0.0000 'International Tables Vol C Tables 4.2.6.8 and 6.1.1.4'
Br Br -0.2901 2.4595 'International Tables Vol C Tables 4.2.6.8 and 6.1.1.4'
N N 0.0061 0.0033 'International Tables Vol C Tables 4.2.6.8 and 6.1.1.4'
loop_
_geom_angle_atom_site_label_1
_geom_angle_atom_site_label_2
_geom_angle_atom_site_label_3
_geom_angle
C008 N002 C00B 118.48(19)
C009 C003 C008 118.56(19)
C00I C003 C008 124.8(2)
C00I C003 C009 116.7(2)
C00C C004 H004 120.3
C00C C004 C00I 119.3(2)
C00I C004 H004 120.3
C00D C005 C00B 122.2(2)
C00D C005 C00F 118.8(2)
C00F C005 C00B 119.0(2)
C007 C006 C00B 117.5(2)
C007 C006 C00E 122.8(2)
C00B C006 C00E 119.7(2)
C006 C007 H007 120.0
C00G C007 C006 120.0(2)
C00G C007 H007 120.0
N002 C008 C003 115.74(19)
N002 C008 C00G 122.8(2)
C00G C008 C003 121.4(2)
C003 C009 H009 119.2
C00A C009 C003 121.7(2)
C00A C009 H009 119.2
C009 C00A H00A 120.0
C009 C00A C00C 120.0(2)
C00C C00A H00A 120.0
N002 C00B C005 118.27(19)
N002 C00B C006 122.4(2)
C006 C00B C005 119.3(2)
C004 C00C C00A 119.8(2)
C004 C00C H00C 120.1
C00A C00C H00C 120.1
C005 C00D H00D 119.4
C00L C00D C005 121.1(2)
C00L C00D H00D 119.4
C006 C00E H00E 119.5
C00H C00E C006 121.1(2)
C00H C00E H00E 119.5
C005 C00F C00H 119.7(2)
C00K C00F C005 118.9(2)
C00K C00F C00H 121.4(2)
C007 C00G C008 118.8(2)
C007 C00G H00G 120.6
C008 C00G H00G 120.6
C00E C00H C00F 121.2(2)
C00E C00H H00H 119.4
C00F C00H H00H 119.4
C003 C00I Br01 121.17(17)
C004 C00I Br01 116.37(17)
C004 C00I C003 122.5(2)
C00K C00J H00J 120.0
C00K C00J C00L 119.9(2)
C00L C00J H00J 120.0
C00F C00K H00K 119.4
C00J C00K C00F 121.1(2)
C00J C00K H00K 119.4
C00D C00L C00J 120.1(2)
C00D C00L H00L 119.9
C00J C00L H00L 119.9
loop_
_geom_bond_atom_site_label_1
_geom_bond_atom_site_label_2
_geom_bond_distance
Br01 C00I 1.909(2)
N002 C008 1.330(3)
N002 C00B 1.357(3)
C003 C008 1.484(3)
C003 C009 1.398(3)
C003 C00I 1.393(3)
C004 H004 0.9500
C004 C00C 1.382(3)
C004 C00I 1.383(3)
C005 C00B 1.449(3)
C005 C00D 1.408(3)
C005 C00F 1.410(3)
C006 C007 1.403(3)
C006 C00B 1.415(3)
C006 C00E 1.426(3)
C007 H007 0.9500
C007 C00G 1.369(3)
C008 C00G 1.411(3)
C009 H009 0.9500
C009 C00A 1.379(3)
C00A H00A 0.9500
C00A C00C 1.387(3)
C00C H00C 0.9500
C00D H00D 0.9500
C00D C00L 1.373(3)
C00E H00E 0.9500
C00E C00H 1.347(4)
C00F C00H 1.433(3)
C00F C00K 1.410(3)
C00G H00G 0.9500
C00H H00H 0.9500
C00J H00J 0.9500
C00J C00K 1.372(4)
C00J C00L 1.396(4)
C00K H00K 0.9500
C00L H00L 0.9500
loop_
_refln_index_h
_refln_index_k
_refln_index_l
_refln_F_squared_meas
_refln_F_squared_sigma
-1 0 0 582.9 16.24
-1 0 0 561.95 16.04
-1 0 0 568.86 15.58
1 0 0 556.34 15.91
1 0 0 570.49 15.66
-2 0 0 175.39 6.56
-2 0 0 178.2 7.1
2 0 0 176.17 6.95
2 0 0 179 7.11
-3 0 0 609.22 19.27
3 0 0 620.9 19.47
3 0 0 614.38 22.46
-4 0 0 27.04 8.13
-4 0 0 16.26 8.21
4 0 0 16.28 5.04
4 0 0 12.32 8.46
4 -1 0 271.71 17.04
4 -1 0 233.82 15.2
-4 1 0 240.66 15.83
-4 1 0 276.96 11.38
3 -1 0 44.75 7.08
3 -1 0 48.54 4.82
-3 1 0 44.93 4.46
-3 1 0 48.42 6.57
2 -1 0 888.23 26.73
-2 1 0 953.64 25.58
-2 1 0 923.27 26.49
-2 1 0 925.11 26.89
1 -1 0 870.28 24.3
1 -1 0 878.44 24.14
1 -1 0 914.7 23.2
1 -1 0 900.74 24.44
1 -1 0 829.13 23.71
-1 1 0 922.8 23.33
-1 1 0 894.88 23.88
-1 1 0 906.31 24.29
-1 -1 0 5229.74 133.71
-1 -1 0 5357.63 133.35
1 1 0 5188.91 133.53
1 1 0 5228.16 132.41
-2 -1 0 1036.23 30.11
-2 -1 0 1053.16 29.47
2 1 0 1017.36 29.79
2 1 0 1064.6 28.87
-3 -1 0 66.47 8.72
-3 -1 0 68.11 5.63
3 1 0 80.71 9.14
3 1 0 63.93 4.92
-4 -1 0 816.38 30.86
-4 -1 0 815.28 29.46
4 1 0 804.12 30.44
4 -2 0 88.81 12.91
4 -2 0 79.91 10.46
-4 2 0 80.21 11.97
-4 2 0 83.08 7.82
3 -2 0 580 19.8
-3 2 0 575.76 21.48
-3 2 0 620.52 17.95
2 -2 0 68.29 4.23
-2 2 0 72.74 4.23
-2 2 0 76.94 3.91
-2 2 0 68.77 3.12
1 -2 0 1425.77 39.67
1 -2 0 1558.47 41.05
-1 2 0 1554.53 40.47
-1 2 0 1581.63 39.86
0 -2 0 6241.15 160.3
0 -2 0 6552.64 161.47
0 2 0 5972.53 160.19
0 2 0 6411.01 160
0 2 0 6465.13 159.88
0 2 0 6423.65 160.6
-1 -2 0 54.82 3.02
-1 -2 0 59 3.02
1 2 0 53.65 2.78
-2 -2 0 273.84 9.89
-2 -2 0 267.83 10.06
2 2 0 280.14 8.52
2 2 0 259.68 9.44
2 2 0 249.66 8
-3 -2 0 272.29 14.43
-3 -2 0 281.65 14.16
3 2 0 264.08 9.28
3 2 0 290.37 14.36
-4 -2 0 -12.73 9.07
-4 -2 0 -0.56 9.11
4 2 0 -7.88 9.34
4 -3 0 433.45 20.79
-4 3 0 448.96 19.88
-4 3 0 449.72 20.83
3 -3 0 13.72 3.57
-3 3 0 17.23 2.89
2 -3 0 1035.1 30.9
-2 3 0 1045.96 30.23
-2 3 0 1068.82 29.36
1 -3 0 1534.88 41.59
-1 3 0 1586.16 40.04
-1 3 0 1525.7 39.57
-1 3 0 1497.08 40.72
0 -3 0 1249.58 31.54
0 3 0 1170.33 30.9
0 3 0 1162.55 31.06
0 3 0 1107.16 31.01
0 3 0 1188.58 31.15
-1 -3 0 1276.93 35.53
-1 -3 0 1385.09 36.01
1 3 0 1236.47 34.83
-2 -3 0 313.13 11.33
-2 -3 0 302.92 11.73
2 3 0 292.96 10.64
-3 -3 0 228.24 13.23
-3 -3 0 216.59 13.86
3 3 0 207.58 13.5
-4 -3 0 362.47 21
-4 -3 0 341.82 21.75
4 3 0 360.42 21.4
4 -4 0 110.79 13.94
-4 4 0 120.75 12.76
-4 4 0 130.79 12.17
3 -4 0 1228.86 37.96
-3 4 0 1273.54 35.99
-3 4 0 1256.82 38.3
2 -4 0 22.63 2.56
-2 4 0 25.09 2.7
-2 4 0 20.67 3.04
1 -4 0 1467.74 39.86
1 -4 0 1524.17 37.86
-1 4 0 1460.07 37.96
-1 4 0 1500.2 39.04
-1 4 0 1295.6 37.63
0 -4 0 508.38 14.75
0 -4 0 568.46 15.79
0 4 0 519.94 15.13
0 4 0 532.89 15.14
0 4 0 494.68 14.84
-1 -4 0 72.94 4.13
-1 -4 0 66.37 3.81
1 4 0 72.82 3.51
-2 -4 0 977.84 35.56
-2 -4 0 1141.27 33.84
2 4 0 1168.58 31.7
-3 -4 0 254.54 15.78
-3 -4 0 280.76 15.69
3 4 0 271.62 15.67
4 -5 0 203.79 16.18
-4 5 0 226.43 13.79
-4 5 0 210.1 14.96
3 -5 0 6.96 6.38
-3 5 0 4.38 4.92
-3 5 0 -2.44 2.96
2 -5 0 681.35 22.11
2 -5 0 689.1 18.58
-2 5 0 666 21.06
-2 5 0 684.84 19.86
1 -5 0 4.64 1.3
1 -5 0 4.71 1.72
-1 5 0 5.12 1.35
-1 5 0 8.04 1.68
0 -5 0 512.32 14.86
0 -5 0 511.18 15.81
0 5 0 507.23 15.28
0 5 0 515.81 15.33
0 5 0 523.67 16.24
-1 -5 0 300.69 10.99
-1 -5 0 316.31 11.41
1 5 0 310.78 10.2
-2 -5 0 136.36 12.6
-2 -5 0 126.22 10.17
2 5 0 129.05 9.68
-3 -5 0 164.44 14.39
-3 -5 0 167.65 14.19
3 5 0 171.85 14.59
4 -6 0 114.58 15.05
-4 6 0 127.7 11.93
-4 6 0 124.54 12.91
3 -6 0 590.49 23.29
-3 6 0 543.48 24.35
-3 6 0 592.55 18.46
2 -6 0 24.45 3.88
2 -6 0 21.33 2.33
-2 6 0 27.36 3.64
-2 6 0 20.14 2.39
1 -6 0 3091.79 79.21
1 -6 0 3004.42 80.72
-1 6 0 3064.81 78.76
-1 6 0 3015.35 79.98
0 -6 0 63.68 3.25
0 -6 0 62.64 3.64
0 6 0 64.23 3.68
-1 -6 0 221.46 9.73
1 6 0 218.07 8.99
1 6 0 223.2 8.27
-2 -6 0 265.27 14.67
-2 -6 0 257.62 14.38
2 6 0 268.73 13.7
-3 -6 0 6.77 9.24
-3 -6 0 1.87 9.41
3 6 0 -1.58 8.76
4 -7 0 95.16 14.47
-4 7 0 92.51 12.55
-4 7 0 83.47 12.17
3 -7 0 310.04 16.92
-3 7 0 304.22 15.03
-3 7 0 310.38 11.23
2 -7 0 512.91 17.96
2 -7 0 513.64 15.06
-2 7 0 506.35 15.49
-2 7 0 496.85 16.84
1 -7 0 -0.75 1.99
1 -7 0 8.6 2.34
-1 7 0 -0.15 2.09
-1 7 0 4.23 2.5
0 -7 0 1262.91 34.51
0 -7 0 1328.62 36.56
0 7 0 1258.27 35.37
0 7 0 1224.23 35.24
-1 -7 0 1362.42 43.34
1 7 0 1337.46 40.31
1 7 0 1382.78 38.36
-2 -7 0 44.46 8.91
-2 -7 0 51.2 8.66
2 7 0 59.64 8.57
2 7 0 49.68 8.86
-3 -7 0 324.09 22.65
-3 -7 0 297.92 20.91
3 7 0 343.09 19.82
4 -8 0 559.25 25.95
-4 8 0 551.73 24.36
-4 8 0 558.85 22.25
3 -8 0 367.63 18.62
-3 8 0 366.85 12.87
-3 8 0 365.97 17.29
2 -8 0 3.96 2.44
2 -8 0 -1.89 5.3
-2 8 0 4.52 2.85
-2 8 0 -6.31 6.4
1 -8 0 630.01 19.78
1 -8 0 621.45 19.14
-1 8 0 600.26 19.4
-1 8 0 606.11 18.38
0 -8 0 51.8 8.07
0 -8 0 54.91 4.17
0 8 0 43.15 4.71
0 8 0 57.48 4.46
-1 -8 0 276.7 14.39
1 8 0 284.2 14.5
1 8 0 281.21 14.18
-2 -8 0 127.24 12.89
2 8 0 137.33 13.98
2 8 0 137.16 14.44
4 -9 0 -3.38 9.68
-4 9 0 2.22 9.08
-4 9 0 -3 7.35
3 -9 0 244.69 15.88
-3 9 0 255.89 10.13
-3 9 0 245.33 15.16
2 -9 0 655.39 29.24
2 -9 0 610.84 18.92
-2 9 0 615.98 22.77
-2 9 0 611.11 18.66
1 -9 0 4.64 2.88
1 -9 0 10.36 3.27
-1 9 0 1.2 3.13
0 -9 0 241.52 8.81
0 -9 0 214.31 12.48
0 9 0 240.63 12.79
0 9 0 252.11 9.9
-1 -9 0 556.05 22.72
1 9 0 577.46 21.59
1 9 0 577.77 21.79
-2 -9 0 6.27 8.55
2 9 0 0.95 9.17
2 9 0 4.52 9.6
4 -10 0 1910.91 60.83
-4 10 0 1868.69 58.81
-4 10 0 1827.58 54.53
3 -10 0 23.42 3.85
3 -10 0 24.12 8.34
-3 10 0 33.73 8.02
2 -10 0 8.07 6.87
2 -10 0 26.3 3.54
-2 10 0 24.49 4.12
-2 10 0 11.35 6.42
1 -10 0 645.04 19.98
1 -10 0 613.33 21.46
-1 10 0 554.75 18.49
-1 10 0 566.47 23.89
0 -10 0 27.84 4.01
0 -10 0 23.33 6.69
0 10 0 12.22 6.55
0 10 0 29.92 6.53
-1 -10 0 381.78 19.71
1 10 0 413.27 19.2
1 10 0 448.82 19.38
-2 -10 0 154.53 18.34
2 10 0 204.81 19.89
4 -11 0 4.03 11.08
-4 11 0 11.99 9.62
-4 11 0 19.81 10.95
3 -11 0 608.33 18.9
3 -11 0 617.44 26.9
-3 11 0 616.61 26.01
-3 11 0 595.94 19.65
2 -11 0 381.52 16.08
2 -11 0 373.65 18.47
-2 11 0 377.55 18.6
-2 11 0 383.62 13.73
1 -11 0 33.11 7.82
1 -11 0 32.27 7.01
-1 11 0 43.35 9.24
-1 11 0 29.6 7.76
0 -11 0 726.74 20.57
0 -11 0 632.15 25.51
0 11 0 668.76 24.56
0 11 0 667.63 24.94
-1 -11 0 26.42 8.81
1 11 0 37.22 9.44
1 11 0 35.46 9.44
3 -12 0 16.89 5.58
3 -12 0 16.65 9.63
-3 12 0 9.07 9.57
-3 12 0 34.51 9.52
2 -12 0 45.31 9.4
2 -12 0 45.74 8.11
-2 12 0 48.34 10.39
1 -12 0 306.29 22.91
1 -12 0 224.16 14.67
-1 12 0 234.16 16.68
-1 12 0 251.26 18.11
0 -12 0 8.55 7.97
0 12 0 4.64 8.4
0 12 0 -11.48 8.68
-1 -12 0 170.9 23.94
3 -13 0 94.64 14.18
-3 13 0 97.55 14.51
2 -13 0 77.09 9.79
2 -13 0 61.09 12.36
-2 13 0 79.69 10.77
-2 13 0 91.72 13.2
1 -13 0 78.16 11.2
1 -13 0 84.05 10.75
-1 13 0 66.4 10.68
-1 13 0 61.31 11.29
0 -13 0 218.55 17.44
0 13 0 308.13 19.36
0 13 0 293.3 19
2 -14 0 261.52 19.7
2 -14 0 219.37 16.46
-2 14 0 227.62 18.01
-2 14 0 224.99 20.75
1 -14 0 53.6 11.01
-1 14 0 68.75 13.04
-1 14 0 84.07 12.8
-1 14 -1 153.02 17.6
-1 14 -1 164.82 18.25
1 -14 1 170.95 17.67
1 -14 1 155.33 15.76
-2 14 -1 117.64 16.71
-2 14 -1 111.39 14.13
2 -14 1 119.76 17.94
2 -14 1 116.42 14.3
0 13 -1 115.17 15.72
0 13 -1 124.27 14.93
0 -13 1 97.43 14.65
-1 13 -1 5.51 9.39
-1 13 -1 4.25 8.86
1 -13 1 9.76 8.07
1 -13 1 25.35 9.37
-2 13 -1 104.64 15.12
2 -13 1 119.74 12.32
2 -13 1 111.1 15.28
-3 13 -1 213.78 17.41
-3 13 -1 203.66 18.76
3 -13 1 203.32 19.15
1 12 -1 67.98 12.3
1 12 -1 127.48 15.75
-1 -12 1 85.6 12.99
0 12 -1 47.69 9.48
0 12 -1 41.24 9.2
0 -12 1 45.85 7.36
0 -12 1 51.91 9.55
-1 12 -1 80.72 12.16
-1 12 -1 91.75 11.16
1 -12 1 102.74 11.39
1 -12 1 102.43 15.52
-2 12 -1 280.92 16.72
-2 12 -1 262.52 15.66
2 -12 1 246.76 17.08
2 -12 1 251.04 14.11
-3 12 -1 2.15 9.55
-3 12 -1 17.14 9.96
3 -12 1 14.36 9.94
-4 12 -1 33.31 11.42
-4 12 -1 53.09 13.07
4 -12 1 53.55 21.56
1 11 -1 87.89 10.7
1 11 -1 122.06 14.19
-1 -11 1 73.97 10.87
0 11 -1 361.1 17.32
0 11 -1 338.08 16.62
0 -11 1 332.74 17.11
0 -11 1 362.42 12.41
-1 11 -1 42.65 8.33
-1 11 -1 51.29 8.76
1 -11 1 69.03 11
1 -11 1 49.89 7.78
-2 11 -1 256.94 10.86
-2 11 -1 256.65 15.24
2 -11 1 257.44 10.36
2 -11 1 267.99 15.81
-3 11 -1 222.79 15.32
-3 11 -1 211.42 15.99
3 -11 1 213.82 16.53
-4 11 -1 16.34 9.92
-4 11 -1 23.21 11
4 -11 1 10.29 11.36
2 10 -1 248.47 18.79
2 10 -1 222.81 19.37
-2 -10 1 180.16 18.14
1 10 -1 299.71 15.81
1 10 -1 276.55 15.88
-1 -10 1 265.26 16.19
0 10 -1 119.19 10.94
0 -10 1 130.81 6.85
0 -10 1 128.91 10.74
-1 10 -1 576.97 18.62
-1 10 -1 561.43 21.8
1 -10 1 618.39 21.4
1 -10 1 590.58 19.31
-2 10 -1 201.51 13.13
-2 10 -1 210.24 8.93
2 -10 1 200.59 13.26
2 -10 1 217.08 8.67
-3 10 -1 170.25 14.29
3 -10 1 159.9 14.55
-4 10 -1 273.32 17.89
-4 10 -1 253.15 19.74
4 -10 1 268.06 20.87
2 9 -1 5.32 9.59
2 9 -1 2.48 8.7
-2 -9 1 -1.26 8.81
1 9 -1 81.87 9.93
-1 -9 1 73.65 10.02
0 9 -1 417.54 14.19
0 -9 1 413.34 17.8
0 -9 1 424.52 13.61
-1 9 -1 2.49 3.44
-1 9 -1 -3.42 3.2
1 -9 1 6.06 3.2
1 -9 1 1.98 3.07
-2 9 -1 499.21 22.56
-2 9 -1 534.99 16.9
2 -9 1 553.75 16.59
2 -9 1 545.4 21.26
-3 9 -1 174.75 8.53
-3 9 -1 159.67 12.83
3 -9 1 164.49 13.41
-4 9 -1 10.26 8.61
-4 9 -1 19.63 9.56
4 -9 1 16.26 10.08
2 8 -1 311.36 17.64
2 8 -1 308.31 16.33
-2 -8 1 250.42 17.04
1 8 -1 624.46 21.77
-1 -8 1 572.04 22.5
0 8 -1 185.28 7.74
0 8 -1 189.48 7.68
0 -8 1 182.65 8.07
0 -8 1 193 7.32
-1 8 -1 658.57 20.89
-1 8 -1 669.78 20.34
1 -8 1 694.96 21.42
1 -8 1 697.2 20.73
-2 8 -1 119.08 5.99
-2 8 -1 119.71 6.33
2 -8 1 111.61 11.93
2 -8 1 135.69 5.52
-3 8 -1 244.7 14.08
-3 8 -1 272.69 10.54
3 -8 1 269.41 15.59
-4 8 -1 283.56 17.25
-4 8 -1 264.53 16.42
4 -8 1 272.5 19.27
3 7 -1 348.78 19.8
3 7 -1 359.62 22.48
-3 -7 1 310.35 20.81
2 7 -1 172.74 13.29
2 7 -1 203.07 12.4
-2 -7 1 163.52 13.26
1 7 -1 716.37 21.2
1 7 -1 710.2 23.83
-1 -7 1 679.95 24.35
0 7 -1 521.36 15.98
0 7 -1 530.01 16.3
0 -7 1 510.56 16.79
0 -7 1 510.75 15.53
-1 7 -1 107.97 5.09
-1 7 -1 83.37 4.5
1 -7 1 98.98 5.25
1 -7 1 102.5 4.72
-2 7 -1 916.19 27.91
-2 7 -1 908.34 26.61
2 -7 1 941.31 29.35
2 -7 1 960.31 25.57
-3 7 -1 190.54 8.42
-3 7 -1 171.48 11.76
3 -7 1 180.55 12.82
-4 7 -1 69.88 10.81
-4 7 -1 70.27 9.55
4 -7 1 59.12 10.54
3 6 -1 145.64 14.12
-3 -6 1 114.47 14.03
-3 -6 1 128.24 15.61
2 6 -1 361.76 15.35
-2 -6 1 351.27 16.96
-2 -6 1 343.57 16.6
1 6 -1 350.17 12.49
1 6 -1 347.11 11.3
-1 -6 1 340.49 12.86
0 6 -1 3879 101.18
0 6 -1 3945.16 100.81
0 -6 1 3968.76 101.78
0 -6 1 3825.8 100.33
-1 6 -1 1907.96 51.93
-1 6 -1 1951.12 51.38
1 -6 1 1909.6 52.74
1 -6 1 1991.49 51.34
-2 6 -1 8.15 2.42
-2 6 -1 14.62 2.27
2 -6 1 11.51 2.69
-3 6 -1 363.96 19.15
-3 6 -1 419.13 14.13
3 -6 1 384.19 18.18
-4 6 -1 254.3 15.48
-4 6 -1 242.32 16.04
4 -6 1 233.7 17.46
3 5 -1 340.15 17.55
-3 -5 1 333.68 19.1
-3 -5 1 351.96 18.03
2 5 -1 37.63 4.72
-2 -5 1 33.7 6.75
-2 -5 1 21.29 5.98
1 5 -1 619.79 17.99
1 5 -1 566.36 16.5
1 5 -1 630.66 19.4
-1 -5 1 659.79 19.91
0 5 -1 2059.83 56.01
0 5 -1 2144.67 55.67
0 -5 1 2220.93 56.6
0 -5 1 2078.95 55.46
-1 5 -1 468.02 14.46
-1 5 -1 472.82 14.07
1 -5 1 499.95 13.87
1 -5 1 467.52 15.28
-2 5 -1 1607.01 45.3
-2 5 -1 1638.83 44.31
2 -5 1 1662.92 46.61
-3 5 -1 286.98 14.17
-3 5 -1 301.86 11.33
3 -5 1 282.1 15.24
-4 5 -1 12.69 6.89
-4 5 -1 -0.25 6.66
4 -5 1 -4.01 7.4
3 4 -1 246.95 14.63
-3 -4 1 240.34 15.35
-3 -4 1 258.49 14.8
2 4 -1 602.24 18.44
-2 -4 1 594.33 21.17
-2 -4 1 589.09 20.31
1 4 -1 10.61 1.51
1 4 -1 17.59 2.22
-1 -4 1 13.67 1.94
0 4 -1 3722.24 95.65
0 4 -1 3527.49 95.61
0 4 -1 3682.89 96.11
0 -4 1 4093.58 96.54
0 -4 1 3712.87 95.64
-1 4 -1 1788.69 47.86
-1 4 -1 1844.95 48.74
-1 4 -1 1840.14 49.28
1 -4 1 1972.47 48.13
1 -4 1 1886.26 50.32
-2 4 -1 37.26 3.07
-2 4 -1 41.69 3.39
2 -4 1 41.76 3.74
-3 4 -1 1305.51 40.27
-3 4 -1 1337.94 38.29
3 -4 1 1359.43 39.97
-4 4 -1 147.55 12.63
-4 4 -1 131.25 13.68
4 -4 1 126.1 13.58
4 3 -1 140.03 17.19
-4 -3 1 186.4 17.4
-4 -3 1 169.76 17.92
3 3 -1 31.14 7.08
3 3 -1 32.36 4.47
-3 -3 1 31.97 7.28
-3 -3 1 44.79 7.1
2 3 -1 354.36 11.4
2 3 -1 279.55 9.32
2 3 -1 331.86 10.1
-2 -3 1 343.2 12.16
-2 -3 1 344.23 12.11
1 3 -1 2341.52 64.19
-1 -3 1 2534.27 63.31
-1 -3 1 2551.54 65.46
-1 -3 1 2491.94 65.4
0 3 -1 442.03 12.6
0 3 -1 418.91 12.17
0 3 -1 424.44 12.13
0 3 -1 425.68 12.38
0 -3 1 438.98 12.28
0 -3 1 425.25 12.45
0 -3 1 466.13 12.74
-1 3 -1 2140.18 55.04
-1 3 -1 2164.4 55.51
1 -3 1 2060.97 56.16
-2 3 -1 355.14 12.12
-2 3 -1 355.17 11.68
2 -3 1 335.39 12.4
-3 3 -1 50.64 7.43
3 -3 1 61.05 5.3
-4 3 -1 245.07 14.87
4 -3 1 228.75 15.28
4 -3 1 220.22 16.54
4 2 -1 15.66 9.55
-4 -2 1 12.89 9.05
-4 -2 1 8.68 9.44
3 2 -1 124.1 10.33
3 2 -1 120.01 6.22
-3 -2 1 113.36 10.58
-3 -2 1 116.89 10.37
2 2 -1 1649.1 45.2
-2 -2 1 1656.1 45.47
-2 -2 1 1650.26 45.72
1 2 -1 -1.37 1.06
1 2 -1 -0.14 0.9
-1 -2 1 0.57 1.11
-1 -2 1 -0.09 1.05
-1 -2 1 -1.42 1.16
0 2 -1 52.1 2.13
0 2 -1 56.35 2.14
0 2 -1 58.34 2.43
0 2 -1 57.38 2.25
0 -2 1 52.81 2.23
0 -2 1 52.95 2.41
0 -2 1 56.48 2.31
-1 2 -1 114.5 4.22
-1 2 -1 116.37 4.49
1 -2 1 111.49 4.68
-2 2 -1 564.73 17.46
-2 2 -1 553.61 16.94
2 -2 1 531.13 17.32
-3 2 -1 1341.66 40.86
-3 2 -1 1332.75 36.91
-3 2 -1 1320.44 40.11
3 -2 1 1427.73 39.67
-4 2 -1 112.99 8.08
-4 2 -1 102.05 12.82
4 -2 1 117.92 12.32
4 -2 1 96.29 11.63
4 1 -1 295.6 17.89
-4 -1 1 260.17 16.89
-4 -1 1 279.69 17.6
3 1 -1 83.12 8.83
3 1 -1 68.69 5.26
-3 -1 1 71.75 8.82
-3 -1 1 64.24 5.62
2 1 -1 414.33 13.44
2 1 -1 409.41 13.06
-2 -1 1 419.07 13.4
-2 -1 1 412.86 13.64
1 1 -1 2740.47 68.43
1 1 -1 2561.89 67.76
1 1 -1 2510.43 68.33
-1 -1 1 2707.19 68.53
-1 -1 1 2720.96 68.09
-1 -1 1 2657.92 68.57
-1 1 -1 1246.01 35.61
-1 1 -1 1365.62 35.69
-1 1 -1 1402.99 35.97
1 -1 1 1367 35.78
-2 1 -1 869.17 23.83
-2 1 -1 869.32 25.64
-2 1 -1 852.71 25.3
2 -1 1 881.21 25.17
-3 1 -1 18.41 2.99
-3 1 -1 25.3 5.59
3 -1 1 26.46 6.75
3 -1 1 22.1 3.07
-4 1 -1 291.16 11.82
-4 1 -1 269.48 16.55
4 -1 1 322.49 19.03
4 -1 1 283.08 17.13
4 0 -1 19.78 6.28
4 0 -1 45.38 9.5
-4 0 1 30.36 8.83
-4 0 1 32.87 8.25
3 0 -1 646.99 23.33
3 0 -1 639.85 21.02
-3 0 1 677.37 20.77
-3 0 1 701.91 30.62
2 0 -1 943.59 27.77
-2 0 1 983.17 28.03
-2 0 1 980.22 27.45
-2 0 1 989.5 27.95
1 0 -1 4412.34 115.49
1 0 -1 4233.26 115.6
1 0 -1 4401.59 115.8
1 0 -1 4455.64 115.7
-1 0 1 4767.96 115.97
-1 0 1 4768.18 115.82
-1 0 1 4708.3 115.84
-1 0 1 4704.3 115.94
-1 0 -1 6220.09 162.59
-1 0 -1 6742.93 162.5
-1 0 -1 6210.44 163.23
1 0 1 6477.56 163.45
1 0 1 6556.89 162.42
-2 0 -1 49.05 3.55
-2 0 -1 53.56 3.24
2 0 1 59.74 3.47
2 0 1 61.34 3.84
-3 0 -1 942.12 26.91
-3 0 -1 897.77 29.87
3 0 1 886.45 29.71
3 0 1 916.52 26.61
-4 0 -1 -0.9 7.71
-4 0 -1 7.3 7.99
4 0 1 16.3 8.9
4 -1 -1 351.22 18.11
4 -1 -1 333.85 18.58
-4 1 1 355.54 17.64
3 -1 -1 33.43 3.73
-3 1 1 39.63 6.58
-3 1 1 33.17 6.21
-3 1 1 33.42 4.51
2 -1 -1 414.2 13.97
-2 1 1 427.76 13.47
-2 1 1 424.21 13
-2 1 1 428.36 13.89
1 -1 -1 670.89 19.4
1 -1 -1 667.41 18.71
1 -1 -1 680.35 19.16
1 -1 -1 695.09 18.78
-1 1 1 713.57 19.4
-1 1 1 688.76 18.84
-1 1 1 725.89 18.87
-1 1 1 741.33 19.74
0 -1 -1 58.88 2.14
0 -1 -1 59.83 2.37
0 -1 -1 60.46 2.23
0 1 1 57.69 2.13
0 1 1 59.58 2.35
0 1 1 60.82 2.23
-1 -1 -1 2598.34 64.2
-1 -1 -1 2421.11 64.55
1 1 1 2373.55 64.39
1 1 1 2531.89 63
1 1 1 2477.73 62.92
-2 -1 -1 405.81 13.79
-2 -1 -1 409.63 13.13
2 1 1 413.91 12.25
2 1 1 394.71 13.37
-3 -1 -1 191.79 12.27
-3 -1 -1 211.3 8.73
3 1 1 193.7 12.59
3 1 1 198.38 7.64
-4 -1 -1 182.61 14.96
-4 -1 -1 185.83 16.28
4 1 1 213.14 17.02
4 -2 -1 61.55 16.46
4 -2 -1 82.95 10.99
-4 2 1 90.48 11.48
-4 2 1 94.5 7.9
3 -2 -1 532.96 18.61
-3 2 1 554.66 17.87
-3 2 1 544.28 16.64
-3 2 1 532.53 19.79
2 -2 -1 699.9 21.43
-2 2 1 688.56 20.72
-2 2 1 686.22 20.03
-2 2 1 679.31 19.41
1 -2 -1 1327.24 33.46
1 -2 -1 1251.55 33.13
-1 2 1 1283.22 33.44
-1 2 1 1268.47 34.11
-1 2 1 1205.39 33.61
-1 2 1 1341.24 34.72
0 -2 -1 2010.8 49.43
0 -2 -1 1779.58 49.24
0 -2 -1 1971.9 48.95
0 2 1 1835.52 49.25
0 2 1 2011.11 48.93
0 2 1 1861.31 49.43
0 2 1 1908.01 48.91
-1 -2 -1 309.54 9.83
-1 -2 -1 286.48 9.77
-2 -2 -1 169.98 7.45
-2 -2 -1 176.43 7.21
2 2 1 153.8 6.71
2 2 1 168.66 5.37
2 2 1 162.94 5.42
-3 -2 -1 550.49 21.76
-3 -2 -1 597.07 21.2
3 2 1 525.03 15.88
3 2 1 566.76 21.54
-4 -2 -1 10.03 9.53
-4 -2 -1 6.65 9.49
4 2 1 -1.21 10.44
4 -3 -1 284.75 17.71
4 -3 -1 312.79 10.97
-4 3 1 297.4 17.4
-4 3 1 280.7 15.85
3 -3 -1 27.11 3.61
3 -3 -1 24.5 2.66
-3 3 1 15.47 2.95
-3 3 1 16.01 4.93
2 -3 -1 1398.43 36.31
2 -3 -1 1379.67 39.02
-2 3 1 1336.09 36.79
-2 3 1 1338.68 38.04
1 -3 -1 597.71 17.95
1 -3 -1 615.73 16.49
-1 3 1 582.35 16.58
-1 3 1 583.03 16.45
-1 3 1 614.94 17.3
0 -3 -1 163.61 5.7
0 -3 -1 154.57 5.04
0 3 1 139.48 4.94
0 3 1 150.61 5.47
0 3 1 154.83 5.24
-1 -3 -1 2159.54 56.58
-1 -3 -1 2128.85 56.29
1 3 1 2065.32 55.73
-2 -3 -1 618.03 19.38
2 3 1 587.37 18.77
-3 -3 -1 119.08 11.51
-3 -3 -1 121.81 11.18
3 3 1 100.03 11.59
4 -4 -1 848.58 23.93
4 -4 -1 824.77 31.37
-4 4 1 807.41 29.77
-4 4 1 813.95 28.24
3 -4 -1 732.71 28.7
3 -4 -1 755.71 21.07
-3 4 1 749.63 22.55
-3 4 1 721.45 25.14
2 -4 -1 21.1 2.29
2 -4 -1 21.76 2.41
-2 4 1 21.24 2.52
-2 4 1 24.12 3.01
1 -4 -1 1162.32 32.56
1 -4 -1 1277.22 33.35
1 -4 -1 1284.02 35.08
-1 4 1 1276.32 34.34
-1 4 1 1289.87 32.83
0 -4 -1 2225.57 56.67
0 -4 -1 2045.11 55.44
0 -4 -1 2180.28 55.58
0 4 1 2107.54 56.13
0 4 1 2151.38 55.92
-1 -4 -1 88.02 4.34
-1 -4 -1 94.25 4.58
1 4 1 83.29 4.19
-2 -4 -1 621.59 24.23
-2 -4 -1 615.87 21.89
2 4 1 626.11 21.14
-3 -4 -1 91.87 11.8
-3 -4 -1 72.99 9.97
3 4 1 74.81 9.85
4 -5 -1 415.92 21.97
-4 5 1 400.84 19.77
-4 5 1 421 18.55
3 -5 -1 163.64 11.94
3 -5 -1 176.32 6.32
-3 5 1 172.32 7.45
-3 5 1 176.89 10.77
2 -5 -1 1234.81 36.92
2 -5 -1 1264.23 33.36
-2 5 1 1248.4 35.69
-2 5 1 1250.27 33.81
1 -5 -1 1209.41 31.74
1 -5 -1 1029.52 30.63
1 -5 -1 1187.32 33.35
-1 5 1 1230.45 32.79
-1 5 1 1203.21 31.02
0 -5 -1 104.8 4.16
0 -5 -1 92.82 4.18
0 -5 -1 102.94 4.72
0 5 1 100.29 4.48
0 5 1 92.63 4.49
-1 -5 -1 1561.99 42.86
-1 -5 -1 1535.75 43.4
1 5 1 1537.03 42.04
-2 -5 -1 127.55 10.45
-2 -5 -1 138.22 10.75
2 5 1 147.7 13.18
-3 -5 -1 193.26 15.53
-3 -5 -1 198.35 15.81
3 5 1 202.34 15.54
4 -6 -1 329.77 20
-4 6 1 323.61 16.24
-4 6 1 306.75 17.73
3 -6 -1 629.45 17.76
3 -6 -1 656.07 34.52
-3 6 1 568.9 23.11
-3 6 1 646.64 19.3
2 -6 -1 40.37 4.35
2 -6 -1 56.93 3.04
-2 6 1 43.95 3.31
-2 6 1 45.15 3.93
1 -6 -1 2202.65 61.36
1 -6 -1 2285.06 60.09
-1 6 1 2305.64 59.13
-1 6 1 2306.21 61.02
0 -6 -1 536.63 16.73
0 -6 -1 521.22 15.25
0 6 1 514.18 15.74
0 6 1 509.39 16
-1 -6 -1 365.53 13
-1 -6 -1 377.82 16.18
1 6 1 359.55 12.35
-2 -6 -1 364.47 17.23
-2 -6 -1 342.38 16.58
2 6 1 367.55 16.16
-3 -6 -1 27.86 10.12
-3 -6 -1 37.54 10.52
3 6 1 20.88 9.61
4 -7 -1 55.42 11.22
-4 7 1 66.01 9.49
-4 7 1 61.66 10.35
3 -7 -1 115.54 4.99
3 -7 -1 104.39 11.41
-3 7 1 105.06 6.16
-3 7 1 106.53 9.72
2 -7 -1 226.06 9.96
2 -7 -1 229.74 7.95
-2 7 1 225.67 7.94
-2 7 1 224.55 9.15
1 -7 -1 166.16 7.53
1 -7 -1 177.84 7.08
-1 7 1 172.77 7.17
-1 7 1 175.79 6.4
0 -7 -1 964.68 25.96
0 -7 -1 911.33 27.57
0 7 1 897 26.41
0 7 1 924.42 26.91
-1 -7 -1 551.44 21.24
1 7 1 592.56 20.68
1 7 1 577.6 20.89
-2 -7 -1 8.12 6.96
-2 -7 -1 15.12 7.99
2 7 1 12.52 7.38
4 -8 -1 30.65 10.3
-4 8 1 30.31 9.93
-4 8 1 13.03 9.25
3 -8 -1 219.82 15
3 -8 -1 230.91 8.2
-3 8 1 227.89 14.07
-3 8 1 232.83 9.04
2 -8 -1 154.19 6.53
2 -8 -1 160.39 11.43
-2 8 1 155.24 10.58
-2 8 1 158.28 6.33
1 -8 -1 894.4 26.15
1 -8 -1 907.39 26.9
-1 8 1 855.17 24.78
-1 8 1 858.15 26.4
0 -8 -1 263.69 8.88
0 -8 -1 253.77 12.37
0 8 1 257.59 9.38
0 8 1 235.99 10.22
-1 -8 -1 17.18 5.95
1 8 1 3.77 5.92
1 8 1 -6.74 6
-2 -8 -1 165.95 14.49
2 8 1 169.22 14.99
2 8 1 187.09 16.01
4 -9 -1 8.42 10.23
-4 9 1 21.53 8.52
-4 9 1 27.61 9.23
3 -9 -1 10.17 3.29
3 -9 -1 14.52 7.27
-3 9 1 10.42 6.63
-3 9 1 16.96 4.09
2 -9 -1 461.52 14.81
2 -9 -1 444.01 19.44
-2 9 1 419.39 20.33
-2 9 1 450.11 13.97
1 -9 -1 3.01 3.41
-1 9 1 -0.98 3.04
-1 9 1 2.83 7.93
0 -9 -1 575.93 17.22
0 -9 -1 546.57 21.28
0 9 1 581.87 18.15
0 9 1 569.92 20.95
-1 -9 -1 782.49 28.89
1 9 1 822.28 27.63
1 9 1 797.28 27.92
-2 -9 -1 4.43 8.87
2 9 1 5.22 10.05
2 9 1 28.28 10.22
4 -10 -1 13.1 9.67
-4 10 1 24.87 9.63
-4 10 1 14.76 8.73
3 -10 -1 45.85 5.89
-3 10 1 38.87 7.97
-3 10 1 56.6 7
2 -10 -1 9.99 6.48
2 -10 -1 9.56 3.57
-2 10 1 4.51 4.05
-2 10 1 5.29 6.35
1 -10 -1 449.14 25.44
1 -10 -1 480.9 16.24
-1 10 1 445.19 19.09
-1 10 1 452.51 14.82
0 -10 -1 9.4 6.07
0 -10 -1 7.18 3.82
0 10 1 11.44 6.34
0 10 1 9.14 6.76
-1 -10 -1 -2.82 7.28
1 10 1 6.66 7.78
1 10 1 8.95 8.65
4 -11 -1 19.07 12.84
-4 11 1 7.48 10.81
3 -11 -1 265.16 18.42
3 -11 -1 265.44 10.66
-3 11 1 273.22 18
-3 11 1 270.87 11.09
2 -11 -1 132.08 13.35
2 -11 -1 117.79 10.58
-2 11 1 123.07 13.52
-2 11 1 148.11 8.19
1 -11 -1 32.87 8.01
1 -11 -1 36.09 6.94
-1 11 1 48.78 8.38
-1 11 1 33.85 4.71
0 -11 -1 119.97 7.39
0 -11 -1 88.3 11.19
0 11 1 85.9 12.42
0 11 1 112.93 12.14
-1 -11 -1 15.58 9.53
1 11 1 24.99 9.56
1 11 1 17.87 9.5
3 -12 -1 62.66 9.11
3 -12 -1 72.12 12.03
-3 12 1 104.16 13.61
-3 12 1 84.67 11.95
2 -12 -1 60 10.14
2 -12 -1 60.2 8.07
-2 12 1 53.07 10.75
-2 12 1 50.27 6.09
1 -12 -1 367.85 24.65
1 -12 -1 306.47 17.04
-1 12 1 302.49 18.58
-1 12 1 335.89 16.93
0 -12 -1 5.98 7.77
0 12 1 8.55 9.43
0 12 1 10.04 8.38
3 -13 -1 236.98 20.87
3 -13 -1 243.82 15.05
-3 13 1 268.88 20.82
2 -13 -1 185.97 16.2
2 -13 -1 163.78 13.77
-2 13 1 139.14 17.22
-2 13 1 186.77 16.58
1 -13 -1 31.56 10.49
-1 13 1 25.37 10.32
-1 13 1 5.77 9.85
0 -13 -1 157.65 16.48
0 13 1 204.15 18.34
0 13 1 220.13 17.49
2 -14 -1 73.85 13.3
2 -14 -1 88.83 11.67
-2 14 1 67.19 14.35
-1 14 -2 92.92 12.4
-1 14 -2 114.2 16.6
1 -14 2 104.46 13.24
1 -14 2 98.93 14.97
-2 14 -2 114.67 16.9
-2 14 -2 117.67 14.89
2 -14 2 139.01 14.72
2 -14 2 113.35 17.31
-3 14 -2 22.67 12.21
3 -14 2 -1 11.6
0 13 -2 124.2 15.1
0 13 -2 115.37 15.11
0 -13 2 80.54 12.23
-1 13 -2 115.96 15.11
-1 13 -2 142.54 15.3
1 -13 2 163.62 15.39
1 -13 2 126.71 14.14
-2 13 -2 23.2 9.74
-2 13 -2 27.69 10.21
2 -13 2 14.08 7.79
2 -13 2 21.41 10.02
-3 13 -2 104.1 14.07
-3 13 -2 86.22 12.53
3 -13 2 111.82 16.37
1 12 -2 190.66 17.9
1 12 -2 223.14 16.2
-1 -12 2 174.42 17.63
0 12 -2 69.32 9.53
0 12 -2 80.87 10.05
0 -12 2 68.7 7.76
0 -12 2 64.28 9.73
-1 12 -2 100.15 13.23
-1 12 -2 118.96 13.3
1 -12 2 167.08 13.49
1 -12 2 138.85 12.06
-2 12 -2 635.45 25.41
-2 12 -2 668.77 34.02
2 -12 2 597.01 22.76
2 -12 2 612.82 25.13
-3 12 -2 30.32 10.27
-3 12 -2 32.15 9.72
3 -12 2 19.94 10.12
-4 12 -2 122.52 15.28
-4 12 -2 105.41 13.86
4 -12 2 89.79 24.53
1 11 -2 56.8 9.49
1 11 -2 50.81 9.71
-1 -11 2 64.04 10.78
0 11 -2 223.62 13.83
0 11 -2 219.44 13.53
0 -11 2 235.95 9.36
0 -11 2 189.97 13.84
-1 11 -2 46.37 9.11
-1 11 -2 33.56 7.94
1 -11 2 69.16 11.05
-2 11 -2 76.95 9.49
-2 11 -2 76.97 11.34
2 -11 2 58.35 6.15
2 -11 2 62.54 8.8
-3 11 -2 425.57 21.36
3 -11 2 445.76 22.12
-4 11 -2 123.55 17.82
-4 11 -2 120.72 16.77
4 -11 2 109.82 15.14
2 10 -2 152.58 17.09
2 10 -2 187.88 16.97
-2 -10 2 139.02 16.99
1 10 -2 131.87 12.37
1 10 -2 159.78 12.57
-1 -10 2 140.2 12.31
0 10 -2 29.58 8.29
0 10 -2 40.8 12.29
0 -10 2 36.64 5.34
0 -10 2 44.78 7.19
-1 10 -2 314.23 12.03
1 -10 2 322.58 13.92
1 -10 2 326.52 13.12
-2 10 -2 193.8 18.66
-2 10 -2 202.85 8.92
2 -10 2 191.44 13.69
2 -10 2 202.43 8.19
-3 10 -2 310.48 16.18
-3 10 -2 318.21 16.96
3 -10 2 305.99 17.53
-4 10 -2 63.51 12.06
-4 10 -2 46.25 10.66
4 -10 2 51.23 12.48
2 9 -2 33.35 9.66
2 9 -2 44.36 9.39
-2 -9 2 35.96 10.31
1 9 -2 86.03 10.55
1 9 -2 95.41 10.03
-1 -9 2 76.58 10.19
-1 -9 2 87.45 5.5
0 9 -2 717.52 25.51
0 9 -2 741.97 22.15
0 -9 2 760.29 21.81
0 -9 2 681.57 24.77
-1 9 -2 18.83 3.24
-1 9 -2 23.88 3.4
1 -9 2 24.07 3.37
1 -9 2 20.33 3.06
-2 9 -2 347.79 12.19
-2 9 -2 343.55 15.57
2 -9 2 342.71 11.35
2 -9 2 339.94 16.47
-3 9 -2 612.39 22.49
-3 9 -2 607.45 23.86
3 -9 2 607.51 24.68
-4 9 -2 67.29 11.11
-4 9 -2 57.73 10.59
4 -9 2 42.17 10.73
2 8 -2 645.93 25.25
2 8 -2 652.68 23.36
-2 -8 2 617.26 26.17
1 8 -2 483.84 18.47
1 8 -2 499.03 15.56
-1 -8 2 441.53 19.06
-1 -8 2 469.43 14.06
0 8 -2 52.73 4.46
0 8 -2 44.75 4.42
0 -8 2 48.18 4.38
0 -8 2 52.3 4.18
-1 8 -2 514.96 16.45
-1 8 -2 510.68 16.27
1 -8 2 514.91 16.3
1 -8 2 515.89 17.01
-2 8 -2 89.25 5.46
-2 8 -2 100.77 5.52
2 -8 2 79.99 9.61
2 -8 2 77.25 4.32
-3 8 -2 491.96 22.5
-3 8 -2 547.36 21.23
3 -8 2 551.51 22.71
-4 8 -2 312.19 18.96
-4 8 -2 324.97 18.3
4 -8 2 306.16 19.43
3 7 -2 168.48 17.46
3 7 -2 201.89 16.33
-3 -7 2 186.69 17.28
2 7 -2 6.81 6.08
2 7 -2 1.41 6.08
-2 -7 2 6.06 7.02
1 7 -2 435.15 13.46
1 7 -2 420 16.34
-1 -7 2 396.18 12.28
-1 -7 2 396.15 16.72
0 7 -2 588.93 18.25
0 7 -2 574.66 17.54
0 -7 2 598.89 17.78
0 -7 2 612.49 18.88
-1 7 -2 60.88 4.04
-1 7 -2 70.97 4.19
1 -7 2 65.23 3.74
1 -7 2 64.93 4.37
-2 7 -2 465.01 14.97
-2 7 -2 455.3 15.57
2 -7 2 462.41 16.43
-3 7 -2 210.77 13.3
3 -7 2 220.56 14.11
-4 7 -2 78.07 11.83
-4 7 -2 44.47 9.77
4 -7 2 51.63 9.83
3 6 -2 224.62 15.29
-3 -6 2 206.61 15.82
-3 -6 2 193.82 16.68
2 6 -2 491.53 20.18
-2 -6 2 491.23 20.26
1 6 -2 232.09 9.03
1 6 -2 222.17 7.86
-1 -6 2 211.41 7.19
-1 -6 2 218.34 9.27
0 6 -2 732.65 20.91
0 6 -2 711.49 21.55
0 -6 2 776.2 22.21
0 -6 2 736.64 21.16
-1 6 -2 177.47 6.65
-1 6 -2 165.08 6.39
1 -6 2 177.5 6.24
1 -6 2 160.22 6.99
-2 6 -2 38.59 3.74
-2 6 -2 41.56 3.77
2 -6 2 31.22 4.08
-3 6 -2 330.94 16
3 -6 2 310.28 15.9
-4 6 -2 240.93 15.66
-4 6 -2 216 15.14
4 -6 2 241.07 17.24
3 5 -2 174.27 13.03
-3 -5 2 167.65 14.48
-3 -5 2 177.11 13.82
-2 -5 2 8.43 5.5
-2 -5 2 13.02 5.45
1 5 -2 1465.8 39.66
1 5 -2 1208.28 36.45
1 5 -2 1390.46 37.52
-1 -5 2 1455.39 37.07
-1 -5 2 1498.62 40
0 5 -2 1761.28 48.76
0 5 -2 1755.6 47.9
0 -5 2 1816.06 48.39
0 -5 2 2005.87 49.35
-1 5 -2 297.75 9.52
-1 5 -2 280.99 9.27
-1 5 -2 249.05 8.28
1 -5 2 310.38 8.85
1 -5 2 283.47 10.09
-2 5 -2 955.51 27.58
-2 5 -2 914.96 26.89
2 -5 2 933.77 28.4
-3 5 -2 247.76 17.56
3 -5 2 234.04 13.86
-4 5 -2 140.24 13.71
-4 5 -2 147.74 12.76
4 -5 2 136.56 13.37
3 4 -2 140.97 11.93
-3 -4 2 139.98 12.25
-3 -4 2 146.3 12.64
2 4 -2 791.65 23.08
-2 -4 2 789.91 25.41
-2 -4 2 783.71 25.93
-2 -4 2 776.84 21.81
1 4 -2 24.75 2.15
1 4 -2 22.57 2.98
1 4 -2 15.63 1.96
-1 -4 2 24.98 2.29
-1 -4 2 17.9 2.7
0 4 -2 977.13 26.97
0 4 -2 954.48 26.08
0 -4 2 980.85 26.68
0 -4 2 1022.35 27.1
-1 4 -2 635.77 18.22
-1 4 -2 660.49 18.47
1 -4 2 624.93 19.06
-2 4 -2 26.52 2.95
-2 4 -2 29.04 3.14
2 -4 2 25.78 3.43
-3 4 -2 788.93 27.24
-3 4 -2 783.49 26.18
3 -4 2 808.17 25.48
-4 4 -2 125.36 12.87
-4 4 -2 126.35 13.48
4 -4 2 132.52 12.73
4 3 -2 139.22 17.49
-4 -3 2 161.26 17.22
-4 -3 2 185.68 17.72
3 3 -2 369.27 12.76
3 3 -2 397.27 16.83
-3 -3 2 378.23 17.39
-3 -3 2 402.6 17.96
2 3 -2 31.77 3.53
-2 -3 2 35.3 3.87
-2 -3 2 42 3.36
-2 -3 2 37.51 3.78
1 3 -2 972.43 27.07
-1 -3 2 1031.54 28.61
-1 -3 2 1013.31 27.05
-1 -3 2 1007.72 28.42
0 3 -2 20.61 1.58
0 3 -2 16.99 1.48
0 3 -2 22.96 1.4
0 -3 2 20.43 1.53
0 -3 2 22.25 1.59
-1 3 -2 511.68 14.82
-1 3 -2 507.7 14.73
1 -3 2 492.75 15.19
-2 3 -2 1224.82 34.72
-2 3 -2 1232.84 34.27
2 -3 2 1197.29 34.69
-3 3 -2 332.38 14.71
-3 3 -2 307.18 15.6
3 -3 2 338.95 12.75
-4 3 -2 238.4 15.8
4 -3 2 240.51 16.55
4 -3 2 235.67 15.33
4 2 -2 141.48 15.31
-4 -2 2 125.26 15.02
-4 -2 2 111 15.2
3 2 -2 351.32 12.58
3 2 -2 353.29 15.85
-3 -2 2 369.16 16.17
-3 -2 2 361.27 16.17
2 2 -2 2164.7 57.93
-2 -2 2 2186.22 58.54
-2 -2 2 2142.67 57.25
-2 -2 2 2166.93 58.56
1 2 -2 180.64 6.01
1 2 -2 179.05 6.01
-1 -2 2 188.81 6.76
-1 -2 2 180.69 6.1
-1 -2 2 194.62 6.88
0 2 -2 1553.76 39.85
0 2 -2 1563.66 40
0 -2 2 1517.44 39.92
0 -2 2 1565.13 39.94
0 -2 2 1502.18 39.88
-1 2 -2 9023.62 228.46
-1 2 -2 9187.05 228.57
1 -2 2 8916.81 228.51
-2 2 -2 563.3 17.62
-2 2 -2 530.68 17.07
2 -2 2 555.17 17.17
-3 2 -2 471.6 18.31
3 -2 2 477.15 16.06
-4 2 -2 155.58 13.14
4 -2 2 129.6 13.4
4 -2 2 100.53 12.58
4 1 -2 119.59 8.62
4 1 -2 113.42 13.99
-4 -1 2 114.91 13.7
-4 -1 2 113.76 13.1
3 1 -2 220.97 9.27
3 1 -2 223.46 12.13
-3 -1 2 224.35 9.49
-3 -1 2 215.05 12.69
2 1 -2 152.64 6.31
-2 -1 2 152.95 6.53
-2 -1 2 158.22 6.46
-2 -1 2 153.1 6.53
1 1 -2 5866.14 160.88
1 1 -2 6265.32 160.9
-1 -1 2 6514.94 160.92
-1 -1 2 6472.74 161.27
-1 -1 2 6640.43 161.46
-1 -1 2 6422.15 161.62
0 1 -2 5461.38 134.66
0 1 -2 5429.5 135.72
0 1 -2 5398.58 136.39
0 -1 2 4806.04 137.2
0 -1 2 5655.69 136.6
0 -1 2 5269.01 134.83
-1 1 -2 429.77 13.52
-1 1 -2 473.06 13.92
-1 1 -2 481.16 13.97
1 -1 2 480.7 13.5
-2 1 -2 5183.34 136.37
-2 1 -2 5308.53 134.25
2 -1 2 5364.65 135.41
2 -1 2 5266.64 136.82
-3 1 -2 14.58 2.89
-3 1 -2 14.36 5
3 -1 2 8.93 2.96
3 -1 2 11.91 5.31
-4 1 -2 505.49 16.49
-4 1 -2 472.47 22.58
4 -1 2 457.47 16.59
4 -1 2 501.04 23.03
4 0 -2 9.6 8.51
4 0 -2 -0.71 7.68
-4 0 2 -2.1 7.46
-4 0 2 -18.16 8
3 0 -2 343.38 13.12
3 0 -2 366.87 16.2
-3 0 2 367.02 15.4
-3 0 2 359.22 12.82
-2 0 2 154.85 6.46
-2 0 2 151.44 6.24
-2 0 2 161.65 6.35
-2 0 2 147.58 6.57
1 0 -2 3751.76 102
1 0 -2 3903.48 101.6
1 0 -2 3744.34 101.86
1 0 -2 4029.3 101.76
-1 0 2 4231.04 101.75
-1 0 2 4106.85 101.81
-1 0 2 4024.49 102.26
-1 0 2 4159.32 102.28
0 0 -2 44.27 2
0 0 -2 45.63 2.06
0 0 -2 42.78 1.77
0 0 -2 43.63 1.84
0 0 2 40.97 1.99
0 0 2 42.92 1.82
0 0 2 42.99 1.79
0 0 2 42.1 2.05
-1 0 -2 9170.88 241.99
-1 0 -2 9601.16 242.91
-1 0 -2 9999 244.38
1 0 2 9793.06 243
1 0 2 9798.85 242.64
1 0 2 9326.86 241.79
-2 0 -2 14.36 1.81
-2 0 -2 10.87 2.04
2 0 2 15.33 2.36
2 0 2 13.66 2.25
-3 0 -2 609.06 22.55
-3 0 -2 613.33 19.02
3 0 2 620.94 18.7
3 0 2 625.01 22.99
-4 0 -2 49.32 10.01
-4 0 -2 52.21 9.3
4 0 2 64.61 10.85
4 -1 -2 451.91 21.28
4 -1 -2 428.98 21.01
-4 1 2 442.03 19.96
-4 1 2 466.66 20.08
3 -1 -2 20.19 3.53
-3 1 2 13.2 5.61
-3 1 2 21.31 3.2
-3 1 2 18.08 3.28
-2 1 2 478.97 15.16
-2 1 2 475.01 14.73
-2 1 2 481.81 14.75
-2 1 2 473.28 15.47
1 -1 -2 7219.37 181.61
1 -1 -2 6719.85 182.13
1 -1 -2 7134.4 182.34
-1 1 2 7324.38 183.08
-1 1 2 7662.86 182.05
-1 1 2 7235.35 182.41
0 -1 -2 480.79 12.98
0 -1 -2 457.18 13.3
0 -1 -2 486.51 13.3
0 -1 -2 492.07 13.53
0 1 2 493.2 12.99
0 1 2 489.71 13.36
0 1 2 483.91 13.47
0 1 2 478.14 13.47
-1 -1 -2 739.52 20.27
-1 -1 -2 715.11 20.65
-1 -1 -2 731.17 19.17
1 1 2 702.09 18.87
1 1 2 720.15 20.5
-2 -1 -2 333.27 12.18
-2 -1 -2 368.07 11.71
2 1 2 329.52 10.33
2 1 2 348.34 10.33
2 1 2 356.23 12.12
-3 -1 -2 64.72 8.54
-3 -1 -2 57.42 5.68
3 1 2 87.72 10.12
3 1 2 66.07 4.52
-4 -1 -2 241.82 15.79
-4 -1 -2 230.11 17.66
4 1 2 194.58 17.73
4 -2 -2 5.72 7.38
-4 2 2 17.74 6.62
-4 2 2 -0.04 7.42
-4 2 2 3.88 5.04
3 -2 -2 641.89 21.61
-3 2 2 646.51 19.58
-3 2 2 661.52 20.34
-3 2 2 606.6 22.34
-2 2 2 89.79 4.11
-2 2 2 83.5 4.43
-2 2 2 89.84 4.93
1 -2 -2 3052.25 76.72
1 -2 -2 2921.25 75.52
-1 2 2 3029.46 77.67
-1 2 2 2938.86 76.89
-1 2 2 3073.33 75.57
-1 2 2 2906.03 76.71
0 -2 -2 4910.18 121.03
0 -2 -2 4843.96 121.43
0 2 2 4950.72 120.84
0 2 2 4829.62 121.61
0 2 2 4370.55 121.37
-1 -2 -2 1235.09 33.74
-1 -2 -2 1254.03 33.97
1 2 2 1208.12 33.61
-2 -2 -2 647.64 19.9
-2 -2 -2 639.57 20.43
2 2 2 635.93 19.94
-3 -2 -2 551.93 21.89
-3 -2 -2 580.21 21.54
3 2 2 552.81 22.08
-4 -2 -2 3.42 9.89
-4 -2 -2 1.29 9.68
4 2 2 -3.31 10.18
4 -3 -2 286.19 10.84
4 -3 -2 284.4 17.8
-4 3 2 286.31 15.33
-4 3 2 278.16 16.41
3 -3 -2 143.16 7.7
3 -3 -2 136.31 6
-3 3 2 138.7 9.73
-3 3 2 123.4 6.49
2 -3 -2 402.26 14.08
2 -3 -2 409.4 12.24
-2 3 2 377.06 13.14
-2 3 2 410.12 12.26
1 -3 -2 624.19 17.41
-1 3 2 620.43 18.44
-1 3 2 606.62 17.84
0 -3 -2 364.49 11.05
0 -3 -2 351.55 10.29
0 -3 -2 351.59 10.33
0 3 2 344.53 10.26
0 3 2 366.45 10.42
0 3 2 348.62 11.06
-1 -3 -2 2512.53 67.12
-1 -3 -2 2628.57 67.53
1 3 2 2507.05 66.82
-2 -3 -2 141.99 9.42
-2 -3 -2 145.29 6.8
2 3 2 121.07 12.14
-3 -3 -2 149.03 12.7
-3 -3 -2 138.63 12.1
3 3 2 138.13 13.06
4 -4 -2 58.13 9.79
-4 4 2 48.17 8.85
-4 4 2 44.03 8.5
3 -4 -2 22.5 2.73
3 -4 -2 28.83 6.51
-3 4 2 22.24 6.05
-3 4 2 24.78 2.89
2 -4 -2 200.06 8.78
2 -4 -2 196.98 6.88
-2 4 2 210.98 6.92
-2 4 2 197.33 7.96
1 -4 -2 565.47 16.29
1 -4 -2 555.48 17.39
-1 4 2 554.98 15.15
-1 4 2 579.03 17.05
0 -4 -2 1104.55 30.01
0 -4 -2 1142.75 30.22
0 -4 -2 1168.59 31.22
0 -4 -2 1078.04 29.88
0 4 2 1104.83 30.84
-1 -4 -2 243.21 8.83
-1 -4 -2 242.79 9.04
1 4 2 228.61 8.31
-2 -4 -2 520.46 19.5
2 4 2 523.17 19.12
-3 -4 -2 213.25 15.95
-3 -4 -2 228.14 14.76
3 4 2 239.92 15.16
4 -5 -2 253.45 17.73
4 -5 -2 260.5 9.65
-4 5 2 264.48 14.48
-4 5 2 268.02 16.31
3 -5 -2 32.14 6.77
3 -5 -2 25.14 2.61
-3 5 2 17.77 5.33
-3 5 2 34.79 4.18
2 -5 -2 1062.49 31.98
2 -5 -2 1072.6 29.02
-2 5 2 1049.6 28.5
-2 5 2 1032.29 30.72
1 -5 -2 772.13 21.79
1 -5 -2 709.92 20.39
1 -5 -2 753.31 23.01
-1 5 2 801.12 22.74
-1 5 2 800.48 20.57
0 -5 -2 422.56 13.71
0 -5 -2 406.71 12.47
0 5 2 420.86 12.83
0 5 2 410.7 13.23
-1 -5 -2 2577.5 69.47
-1 -5 -2 2655.16 70.4
1 5 2 2582.72 69.09
-2 -5 -2 -2.82 5.07
-2 -5 -2 -4.05 5.08
2 5 2 -5.35 5.29
-3 -5 -2 180.61 15.65
-3 -5 -2 178.83 15.98
3 5 2 205.62 15.35
4 -6 -2 144.93 15.29
-4 6 2 145.97 11.67
-4 6 2 136.22 13.28
3 -6 -2 417.7 19.79
3 -6 -2 437.19 13.44
-3 6 2 430.32 18.04
-3 6 2 458.37 14.25
2 -6 -2 18.58 2.99
2 -6 -2 29.39 2.9
-2 6 2 32.07 2.88
-2 6 2 27.09 3.57
1 -6 -2 773.65 23.78
1 -6 -2 776.4 22.61
-1 6 2 809.81 21.39
-1 6 2 760.39 23.19
0 -6 -2 890.27 26.3
0 -6 -2 873.89 24.74
0 6 2 896.71 25.81
0 6 2 885.92 25.16
-1 -6 -2 7.77 2.88
-1 -6 -2 16.56 4.89
-2 -6 -2 872.24 30.8
-2 -6 -2 926.67 31.15
2 6 2 929.63 29.81
-3 -6 -2 111.39 16.98
3 6 2 91.91 11.88
4 -7 -2 84.43 12.56
-4 7 2 95 11.21
-4 7 2 87.31 11.13
3 -7 -2 38.54 7.82
3 -7 -2 40.84 4.1
-3 7 2 39.71 7.18
2 -7 -2 1046.47 29.09
2 -7 -2 1065.03 32.42
-2 7 2 993.39 37.12
-2 7 2 1040.69 28.21
1 -7 -2 276.21 10.77
1 -7 -2 296.68 10.38
-1 7 2 286.04 10.41
-1 7 2 286.41 9.09
0 -7 -2 682.7 20.12
0 -7 -2 717.17 22.2
0 7 2 707.04 21.47
0 7 2 697.48 20.66
-1 -7 -2 237.42 12.73
1 7 2 239.38 14.44
1 7 2 230.38 12.78
-2 -7 -2 13.17 7.26
-2 -7 -2 7.29 7.73
2 7 2 4.95 7.58
4 -8 -2 287.65 20.38
-4 8 2 280.83 18.16
-4 8 2 265.52 15.83
3 -8 -2 1047.75 29.21
3 -8 -2 1042.88 36.48
-3 8 2 1063.31 29.53
-3 8 2 1016.95 34.53
2 -8 -2 144.94 11.36
2 -8 -2 135.86 6.23
-2 8 2 142.92 10.21
-2 8 2 137.41 5.85
1 -8 -2 289.23 10.77
1 -8 -2 266.32 10.21
-1 8 2 261.69 8.98
0 -8 -2 679.88 19.22
0 -8 -2 634.36 22.62
0 8 2 631.76 19.73
0 8 2 666.23 23.46
-1 -8 -2 6.76 5.39
1 8 2 3.9 6.07
1 8 2 4.54 6.78
-2 -8 -2 245.35 16.86
2 8 2 266.46 17.14
2 8 2 241 18.18
4 -9 -2 322.22 22.29
-4 9 2 294.01 19.16
-4 9 2 317.19 19.3
3 -9 -2 169.31 7.48
3 -9 -2 163.97 14.9
-3 9 2 179.06 13.37
-3 9 2 178.97 8.01
2 -9 -2 1438.75 40.07
-2 9 2 1428.46 38.38
-2 9 2 1400.9 43.59
1 -9 -2 7.46 3.65
1 -9 -2 13.47 5.08
-1 9 2 11.19 6.84
-1 9 2 9.83 3.17
0 -9 -2 913.85 30.77
0 -9 -2 971.15 26.88
0 9 2 966.88 27.97
0 9 2 947.2 30.61
-1 -9 -2 379.54 18.48
1 9 2 406.78 18.69
1 9 2 406.92 18.83
-2 -9 -2 6.07 9.77
2 9 2 -16.26 10.29
2 9 2 12.47 10.28
-4 10 2 66.63 12.11
3 -10 -2 1209.65 41.52
3 -10 -2 1172.65 33.84
-3 10 2 1203.6 40.2
-3 10 2 1176.94 33.11
2 -10 -2 0.76 5.94
2 -10 -2 7.94 6.76
-2 10 2 14.83 4.03
-2 10 2 7.71 6.55
1 -10 -2 226.95 9.88
1 -10 -2 198.15 12.03
-1 10 2 211.05 13.19
-1 10 2 209.64 8.58
0 -10 -2 145.98 6.97
0 -10 -2 117.59 11.19
0 10 2 140.96 11.84
0 10 2 115.44 11.31
-1 -10 -2 113.14 13.05
1 10 2 110.5 14.21
1 10 2 146.15 13.92
4 -11 -2 -14.84 12.08
-4 11 2 0.82 11.78
3 -11 -2 62.33 8.79
3 -11 -2 72.89 12.12
-3 11 2 80.84 11.1
2 -11 -2 168.75 14.28
2 -11 -2 178.5 12.19
-2 11 2 180.31 14.71
-2 11 2 169.7 8.6
1 -11 -2 7.53 7.31
1 -11 -2 1.8 6.88
-1 11 2 -2.26 7.41
-1 11 2 -3.27 4.78
0 -11 -2 235.07 14.98
0 11 2 202.91 15.44
0 11 2 248.97 14.73
-1 -11 -2 241.32 17.58
1 11 2 285.04 17.97
1 11 2 273.09 19.15
3 -12 -2 99.3 13.71
3 -12 -2 127.15 12.11
-3 12 2 114.76 16.51
2 -12 -2 185.58 15.56
2 -12 -2 127.71 13.14
-2 12 2 153.98 15.55
-2 12 2 156.67 9.53
1 -12 -2 208.77 14.72
-1 12 2 268.56 15.59
-1 12 2 238.81 17.42
0 -12 -2 4.8 8.19
0 12 2 28.84 9.01
0 12 2 16.05 9.69
3 -13 -2 245.5 21.89
3 -13 -2 190.09 15.51
-3 13 2 245.85 21.35
2 -13 -2 33.11 10.81
2 -13 -2 26.68 9.01
-2 13 2 35.11 11.43
1 -13 -2 98.74 14.78
1 -13 -2 57.3 10.32
-1 13 2 69.93 11.1
-1 13 2 75.37 12.89
-1 14 -3 104.88 12.5
-1 14 -3 75.45 12.37
1 -14 3 82.94 12.02
1 -14 3 79.47 12.91
-2 14 -3 143.72 17.99
-2 14 -3 110.26 16.55
2 -14 3 156.55 17.93
2 -14 3 125.5 14.44
-3 14 -3 12.77 11.57
-3 14 -3 1.59 11.96
3 -14 3 7.68 12.26
0 13 -3 219.84 16.29
0 13 -3 223.89 17.44
0 -13 3 198.41 17
0 -13 3 224.52 21.26
-1 13 -3 103.81 13.62
-1 13 -3 100.57 11.59
1 -13 3 106.23 14.22
1 -13 3 83.43 12.77
-2 13 -3 103.25 14.93
-2 13 -3 93.78 11.79
2 -13 3 91.51 14.63
2 -13 3 81.34 12.65
-3 13 -3 170.24 17.5
-3 13 -3 165.08 18.07
3 -13 3 157.48 17.61
1 12 -3 144.49 16.37
1 12 -3 157.27 14.17
-1 -12 3 114.9 15.87
0 12 -3 4.85 7.84
0 12 -3 11.72 7.58
0 -12 3 14.77 8
0 -12 3 2.23 5.37
-1 12 -3 848.53 29.52
-1 12 -3 812.45 29.13
1 -12 3 853.26 29.63
1 -12 3 887.63 29.88
-2 12 -3 284.69 16.37
-2 12 -3 288.16 16.93
2 -12 3 270.53 16.1
2 -12 3 281.14 17.14
-3 12 -3 18.83 9.47
-3 12 -3 27.54 9.64
3 -12 3 15.49 9.38
1 11 -3 72.74 10.23
1 11 -3 90.12 12.31
-1 -11 3 68.54 10.7
0 11 -3 228.79 13.52
0 11 -3 243.87 14.13
0 -11 3 226.96 14.56
0 -11 3 239.6 9.95
-1 11 -3 148.36 12.05
-1 11 -3 131.04 17.45
1 -11 3 144.77 11.72
1 -11 3 149.44 12.32
-2 11 -3 344.16 16.45
-2 11 -3 334.15 16.55
2 -11 3 323.16 12.01
2 -11 3 328.2 17.3
-3 11 -3 407.27 20.23
-3 11 -3 389.32 18.69
3 -11 3 365.24 20.69
-4 11 -3 4.39 10.29
-4 11 -3 3.67 10.25
2 10 -3 77.74 11.8
2 10 -3 51.28 11.01
-2 -10 3 71.59 11.85
1 10 -3 234.11 14.9
1 10 -3 234.92 14
-1 -10 3 207.86 15.24
-1 -10 3 266.36 10.5
0 10 -3 8.58 4.01
0 10 -3 18.51 5.68
0 -10 3 13.31 6.12
0 -10 3 11.93 3.9
-1 10 -3 591.93 18.86
-1 10 -3 551.28 23.36
1 -10 3 593.39 19.24
-2 10 -3 347.47 16.05
-2 10 -3 335.17 23.73
2 -10 3 341.25 16.89
2 -10 3 346.03 11.99
-3 10 -3 3.79 6.98
-3 10 -3 0.76 6.88
3 -10 3 3.2 7.5
-4 10 -3 3.86 9
-4 10 -3 14.45 9.71
4 -10 3 -4.41 10.65
2 9 -3 300.46 17.3
2 9 -3 295.46 17.41
-2 -9 3 262.23 18.18
1 9 -3 82.62 9.46
1 9 -3 91.52 6.51
-1 -9 3 70.98 5.89
-1 -9 3 82.62 10.68
0 9 -3 278.5 13.11
0 9 -3 290.05 10.32
0 -9 3 278.82 10.25
0 -9 3 272.32 15.56
-1 9 -3 4.38 3.15
1 -9 3 2.32 3.31
1 -9 3 6.54 2.94
-2 9 -3 424 14.77
2 -9 3 440.96 19.42
2 -9 3 437.99 13.63
-3 9 -3 974.03 32.33
-3 9 -3 940.41 32.15
3 -9 3 958.24 33.7
-4 9 -3 1.11 8.49
-4 9 -3 -1.54 8.47
4 -9 3 -7.61 9.04
2 8 -3 1440.91 44.52
2 8 -3 1401.96 48.96
-2 -8 3 1368.77 45.37
1 8 -3 127.56 6.17
1 8 -3 121.17 9.63
-1 -8 3 107.58 10.19
0 8 -3 87.82 5.1
0 8 -3 77.92 5.04
0 -8 3 81.19 5.31
0 -8 3 83.25 5.06
-1 8 -3 1865.49 51.03
-1 8 -3 1916.88 51.56
1 -8 3 1855.36 52.01
1 -8 3 1876.92 50.88
-2 8 -3 52.44 4.62
-2 8 -3 46.87 4.89
2 -8 3 37.7 6.84
-3 8 -3 162.34 12.12
-3 8 -3 156.28 11.78
3 -8 3 163.48 12.99
-4 8 -3 187.95 15.55
-4 8 -3 197.78 15.56
4 -8 3 176.81 16.74
3 7 -3 179.55 15.35
3 7 -3 178.36 17.54
-3 -7 3 185.22 16.92
2 7 -3 1016.43 30.51
2 7 -3 978.59 33.28
-2 -7 3 993.28 34.13
1 7 -3 650.37 22.58
1 7 -3 679.19 19.69
-1 -7 3 655.78 23.44
0 7 -3 549.23 16.3
0 7 -3 523.21 16.96
0 -7 3 525.39 16.57
0 -7 3 578.82 17.7
-1 7 -3 19.15 2.35
-1 7 -3 17.04 2.3
1 -7 3 18 2.14
1 -7 3 11.62 2.39
-2 7 -3 2159.75 58.87
-2 7 -3 2124.03 58.24
2 -7 3 2174.63 60.15
-3 7 -3 495.14 19.91
-3 7 -3 506.91 19.15
3 -7 3 481.13 20.84
-4 7 -3 33.01 9.68
-4 7 -3 22.66 8.75
4 -7 3 25.13 9.34
3 6 -3 27.13 9.1
3 6 -3 38.07 8.42
-3 -6 3 18.79 9.03
2 6 -3 675.89 19.56
2 6 -3 615.3 23.73
-2 -6 3 625.21 23.92
-2 -6 3 650.66 18.45
1 6 -3 156.54 6.99
1 6 -3 158.83 6
-1 -6 3 145.35 5.9
-1 -6 3 155.15 7.27
0 6 -3 27.42 2.96
0 6 -3 32.09 2.97
0 -6 3 22.58 2.81
0 -6 3 31.38 2.85
-1 6 -3 1671.35 45.19
-1 6 -3 1638.7 44.83
1 -6 3 1605.71 45.88
1 -6 3 1764.91 44.27
-2 6 -3 842.71 25.69
-2 6 -3 884.79 25.55
2 -6 3 851.27 26.63
-3 6 -3 331.32 15.29
-3 6 -3 330.18 15.66
3 -6 3 343.25 17.13
-4 6 -3 286.76 17.51
-4 6 -3 285.37 16.3
4 -6 3 264.22 17.75
3 5 -3 284.88 14.95
-3 -5 3 256.07 16.05
-3 -5 3 238.92 16.4
2 5 -3 30.1 7.8
2 5 -3 33.75 4.3
-2 -5 3 36.95 6.04
-2 -5 3 28.58 4.23
1 5 -3 2090.76 55.49
1 5 -3 1976.62 53
-1 -5 3 2044.84 53.41
-1 -5 3 2020.3 55.65
0 5 -3 1159.64 29.75
0 5 -3 1073.42 30.76
0 -5 3 1092.52 30.52
0 -5 3 1125.08 30.92
-1 5 -3 214.06 7.44
-1 5 -3 193.16 6.37
-1 5 -3 207.74 7.48
1 -5 3 211.26 8.12
1 -5 3 213.37 6.67
-2 5 -3 2011.51 54.62
-2 5 -3 2026.67 54.93
2 -5 3 1996.11 55.49
-3 5 -3 263.55 13.5
-3 5 -3 251.96 14.09
3 -5 3 270.84 14.36
-4 5 -3 75.07 10.4
-4 5 -3 88.43 11.68
4 -5 3 78.98 10.54
3 4 -3 186.62 7.77
3 4 -3 175.93 12.4
-3 -4 3 169.77 13.42
-3 -4 3 162.24 12.83
2 4 -3 774.18 21.27
-2 -4 3 604.68 25.26
-2 -4 3 729.18 20.84
-2 -4 3 743.16 24.6
1 4 -3 4.3 2
1 4 -3 -0.07 1.3
-1 -4 3 2.75 1.81
-1 -4 3 2.8 1.69
0 4 -3 1258.15 31.86
0 4 -3 1211.06 33.12
0 -4 3 1170.64 31.75
0 -4 3 1250.75 33.15
0 -4 3 1219.1 32.92
-1 4 -3 2406.99 64.37
-1 4 -3 2468.17 64.24
1 -4 3 2509.99 65.12
-2 4 -3 17.61 2.38
-2 4 -3 19.73 3.07
2 -4 3 26.4 3.37
-3 4 -3 512.53 21.02
-3 4 -3 463.64 22.55
3 -4 3 506.98 17.62
-4 4 -3 180.36 14.73
4 -4 3 209.07 16.12
4 -4 3 183.77 13.95
4 3 -3 193.82 18.15
-4 -3 3 200.19 17.65
-4 -3 3 151.69 18.47
3 3 -3 220.46 12.86
3 3 -3 214.76 9.04
-3 -3 3 224.81 13.68
-3 -3 3 223.49 13.27
2 3 -3 288.45 10.11
-2 -3 3 307.9 10.38
-2 -3 3 300.9 11.36
-2 -3 3 326.04 11.58
1 3 -3 1345.6 36.87
1 3 -3 1320.33 35.01
-1 -3 3 1322.24 36.74
-1 -3 3 1334.92 35.76
0 3 -3 1547.87 40.88
0 3 -3 1629.82 41.67
0 -3 3 1492.59 40.71
0 -3 3 1526.72 40.78
-1 3 -3 307.84 10
-1 3 -3 316.38 9.94
1 -3 3 307.87 10.27
-2 3 -3 1982.8 54.04
-2 3 -3 1954.91 53.74
2 -3 3 1996.77 53.76
-3 3 -3 119.63 9.65
3 -3 3 115.07 6.88
-4 3 -3 179.89 13.84
4 -3 3 162.98 13.65
4 -3 3 161.39 14.33
4 2 -3 11.86 9.06
-4 -2 3 12.74 8.44
-4 -2 3 -2.74 9.12
3 2 -3 1540.43 44.87
-3 -2 3 1532.04 45.71
-3 -2 3 1536.06 45.67
2 2 -3 715.23 21.05
-2 -2 3 719.15 21.26
-2 -2 3 699.93 21.96
-2 -2 3 735.11 22.01
1 2 -3 30.06 2.1
1 2 -3 31.67 2.51
1 2 -3 31.55 1.93
-1 -2 3 30.96 2.4
-1 -2 3 33.97 2.47
0 2 -3 1452.81 37.51
0 2 -3 1457.32 37.53
0 2 -3 1351.38 37.45
0 -2 3 1527.81 37.74
0 -2 3 1355.04 37.29
0 -2 3 1453.32 37.72
-1 2 -3 72.3 3.4
-1 2 -3 73.2 3.54
1 -2 3 76.8 3.51
-2 2 -3 2377.37 64.22
2 -2 3 2401.33 63.43
-3 2 -3 418.86 17.62
3 -2 3 439.71 14.74
3 -2 3 430.74 17.95
-4 2 -3 594.79 24.7
4 -2 3 602.24 25.23
4 -2 3 559.24 22.09
4 1 -3 152.43 14.34
4 1 -3 136.65 13.85
-4 -1 3 126.86 14.15
-4 -1 3 148.76 14.06
3 1 -3 324.88 15.52
-3 -1 3 377.93 13.56
-3 -1 3 353.58 20.81
-2 -1 3 1941.67 52.08
-2 -1 3 1916.89 52.48
-2 -1 3 1947.52 52.12
-2 -1 3 1895.81 51.63
1 1 -3 3555.39 90.92
-1 -1 3 3601.74 92.25
-1 -1 3 3490.56 91.84
-1 -1 3 3632.73 90.94
0 1 -3 219.53 6.69
0 1 -3 216.95 6.86
0 1 -3 209.55 6.78
0 -1 3 226.95 7.06
0 -1 3 211.09 6.58
0 -1 3 217.06 6.9
-1 1 -3 9067.46 224.41
-1 1 -3 8563.41 224.56
-1 1 -3 8967.85 225.09
1 -1 3 8957.51 225.61
1 -1 3 8624.03 223.33
1 -1 3 9157.34 225
-2 1 -3 300.25 9.16
-2 1 -3 295.41 10.71
2 -1 3 286.84 10.57
2 -1 3 283.5 9.74
-3 1 -3 275.82 9.61
-3 1 -3 247.14 13.58
3 -1 3 274.22 9.99
3 -1 3 278.53 13.91
-4 1 -3 299.83 13.56
-4 1 -3 273.65 18.42
4 -1 3 294.35 11.7
4 -1 3 300.76 18.89
4 0 -3 5.06 7.71
4 0 -3 5.3 8.61
-4 0 3 7.75 8.33
-4 0 3 2.12 6.93
3 0 -3 552.32 19.4
-3 0 3 589.08 20.83
-3 0 3 597.93 19.09
-3 0 3 566.31 27.61
-2 0 3 643.41 19.86
-2 0 3 648.64 19.51
-2 0 3 670.27 20.2
-2 0 3 644.83 19.44
1 0 -3 762.64 20.97
1 0 -3 738.47 20.85
-1 0 3 799.93 21.21
-1 0 3 784.83 21.16
-1 0 3 769.29 21.85
-1 0 3 803.58 22.14
0 0 -3 111.46 4.08
0 0 -3 108.37 3.74
0 0 -3 103.65 4.03
0 0 -3 104.67 3.54
0 0 3 107.04 4
0 0 3 106.5 3.98
0 0 3 110.89 3.65
0 0 3 99.58 3.91
-1 0 -3 878.8 24.15
-1 0 -3 932.16 24.35
-1 0 -3 916.54 25.26
1 0 3 914.02 24
1 0 3 904.32 25.04
1 0 3 845.12 23.97
-2 0 -3 3360.59 90.41
-2 0 -3 3531.62 88.61
2 0 3 3391.2 90.38
2 0 3 3396.29 88.01
-3 0 -3 748.18 26.99
-3 0 -3 799.21 23.52
3 0 3 806.88 27.53
3 0 3 793.24 22.74
-4 0 -3 218.54 16.59
-4 0 -3 234.75 14.89
4 0 3 252.28 18.31
4 -1 -3 227.71 16.48
4 -1 -3 238.15 16.22
-4 1 3 216.59 14.85
-4 1 3 233.42 14.89
3 -1 -3 20.04 3.8
-3 1 3 23.58 3.13
-3 1 3 17.1 3.25
-2 1 3 1458.42 40.82
-2 1 3 1439.36 39.98
-2 1 3 1468.45 39.33
-2 1 3 1453.68 39.88
1 -1 -3 7687.26 188
1 -1 -3 7572.58 189.41
-1 1 3 7682.38 190.03
-1 1 3 6816.35 188.6
-1 1 3 7615.56 188.98
0 -1 -3 61.05 2.47
0 -1 -3 66.41 2.71
0 -1 -3 67.8 2.93
0 1 3 58.23 2.76
0 1 3 67.08 2.55
0 1 3 65.39 2.85
0 1 3 67.65 2.84
-1 -1 -3 553.59 15.78
-1 -1 -3 607.61 17.03
-1 -1 -3 579.57 17.29
1 1 3 571.06 17
1 1 3 598.22 17.31
-2 -1 -3 647.64 18.67
-2 -1 -3 614.36 19.42
2 1 3 559.58 17.27
2 1 3 607.95 16.82
2 1 3 597.9 18.91
-3 -1 -3 1.4 3.73
-3 -1 -3 1.07 6
3 1 3 6.86 2.81
3 1 3 11.22 6.28
-4 -1 -3 255.83 16.56
-4 -1 -3 270.12 18.66
4 1 3 256.41 19.9
4 -2 -3 14.3 8.25
-4 2 3 8.01 6.77
-4 2 3 6.18 7.16
3 -2 -3 1167.26 35.17
-3 2 3 1165.12 32.92
-3 2 3 1181.92 33.11
-3 2 3 1066.64 38.21
2 -2 -3 5.07 1.75
-2 2 3 6.5 1.91
-2 2 3 5.71 2.03
1 -2 -3 384.57 11.55
-1 2 3 368.97 12.08
-1 2 3 370.97 11.41
0 -2 -3 3940.12 100.88
0 -2 -3 3992.87 101.3
0 -2 -3 3946.06 100.38
0 2 3 3949.85 101.4
0 2 3 3900.03 100.37
0 2 3 4035.39 100.98
-1 -2 -3 200.79 7.32
-1 -2 -3 183.72 7.06
1 2 3 192.79 7.02
-2 -2 -3 542.49 17.46
-3 -2 -3 324.74 16.64
-3 -2 -3 331.79 15.78
3 2 3 319.89 16.55
-4 -2 -3 23 9.92
4 -3 -3 279.65 10.88
4 -3 -3 282.51 18.21
-4 3 3 279.24 15.04
-4 3 3 284.51 16.15
3 -3 -3 70.87 4.83
-3 3 3 81.61 8.35
-3 3 3 70.23 4.91
2 -3 -3 3065.1 80.23
-2 3 3 3138.33 79.26
-2 3 3 3064.05 82.18
-2 3 3 3041.84 81.22
1 -3 -3 1631.61 43.04
-1 3 3 1619.88 43.29
-1 3 3 1595.71 43.85
0 -3 -3 89.28 3.44
0 -3 -3 86.81 3.7
0 -3 -3 83.56 3.88
0 3 3 90.61 3.52
0 3 3 90.95 4.17
0 3 3 91.13 3.69
-1 -3 -3 584.85 17.75
-1 -3 -3 606.11 18.1
1 3 3 558.5 17.42
-2 -3 -3 264.7 10.49
-2 -3 -3 265.64 12.93
2 3 3 266.02 12.71
-3 -3 -3 45.59 8.48
-3 -3 -3 48.21 8.41
3 3 3 51.25 8.47
4 -4 -3 15.25 8.76
4 -4 -3 18.26 4.57
-4 4 3 8.46 6.73
-4 4 3 5.96 6.89
3 -4 -3 1246.65 39.4
3 -4 -3 1233.83 34.34
-3 4 3 1241.89 34.46
-3 4 3 1190.09 37.34
2 -4 -3 999.67 28.13
-2 4 3 1015.17 29.39
-2 4 3 1032.9 27.12
-2 4 3 979.46 30.08
1 -4 -3 675.91 19.61
-1 4 3 688.58 20.5
-1 4 3 674.96 20.13
0 -4 -3 1758.31 46.74
0 -4 -3 1638.95 45.65
0 -4 -3 1757.29 45.55
0 4 3 1747.31 46.8
0 4 3 1771.96 45.72
-1 -4 -3 170.86 7.06
-1 -4 -3 197.39 7.72
1 4 3 173.33 7.04
-2 -4 -3 11.74 5.55
-2 -4 -3 16.26 5.53
2 4 3 14.74 5.43
-3 -4 -3 488.29 22.36
-3 -4 -3 474.33 21.93
3 4 3 486.99 21.64
4 -5 -3 232.51 18
4 -5 -3 229.81 9.43
-4 5 3 234.8 15.65
-4 5 3 260.61 13.74
3 -5 -3 14.77 6.65
3 -5 -3 19.13 2.77
-3 5 3 26.48 2.96
-3 5 3 25.59 6.14
2 -5 -3 1711.28 48.62
2 -5 -3 1760.24 45.83
-2 5 3 1630.85 47.14
-2 5 3 1692.73 44.2
1 -5 -3 591.04 17.4
1 -5 -3 568.33 18.24
-1 5 3 573.31 17.85
0 -5 -3 247.27 8.21
0 -5 -3 252.09 9.18
0 -5 -3 237.61 8.11
0 5 3 232.44 8.79
-1 -5 -3 535.59 17.18
-1 -5 -3 569.63 18.16
1 5 3 525.74 16.92
-2 -5 -3 5.44 5.73
-2 -5 -3 5.31 5.55
2 5 3 15.14 6.28
-3 -5 -3 81.14 11.67
-3 -5 -3 64.54 10.8
3 5 3 69.05 10.97
4 -6 -3 179.49 8.33
4 -6 -3 203.65 17.09
-4 6 3 182.73 14.77
-4 6 3 176.19 13.33
3 -6 -3 409.72 13.06
3 -6 -3 393.38 18.89
-3 6 3 424.81 13.12
-3 6 3 378.09 17.25
2 -6 -3 5.03 3.1
2 -6 -3 -3.84 2.01
-2 6 3 5.58 1.82
-2 6 3 1.74 2.57
1 -6 -3 806.5 24.87
1 -6 -3 832.47 23.98
-1 6 3 840.81 22.11
-1 6 3 807 24.49
0 -6 -3 1073.84 31.36
0 -6 -3 1053.62 29.56
0 6 3 1084.84 30.83
0 6 3 1074.36 29.93
-1 -6 -3 32.18 5.63
-1 -6 -3 33.59 3.31
1 6 3 34.98 6.68
-2 -6 -3 277.38 15.24
-2 -6 -3 298.01 16.02
2 6 3 286.92 15.13
-3 -6 -3 77.59 13.81
-3 -6 -3 86.34 13.07
3 6 3 107.96 12.61
4 -7 -3 222.56 8.9
4 -7 -3 220.85 17.74
-4 7 3 234.28 16.29
3 -7 -3 104.97 5.44
3 -7 -3 94.75 11.36
-3 7 3 84.81 9.79
-3 7 3 111.32 5.67
2 -7 -3 878.31 25.13
-2 7 3 850.94 28.22
1 -7 -3 64.75 3.98
1 -7 -3 57.61 4.5
-1 7 3 59.35 3.46
-1 7 3 63.6 4.68
0 -7 -3 174.07 6.79
0 -7 -3 176.49 9.99
0 7 3 158.73 15.08
0 7 3 188.76 7.28
-1 -7 -3 245.55 13.46
-1 -7 -3 261.96 13.65
1 7 3 240.39 13.5
-2 -7 -3 30.49 7.81
-2 -7 -3 4.89 8.49
2 7 3 21.49 8.14
4 -8 -3 152.83 16.41
-4 8 3 165.93 14.92
-4 8 3 160.69 8.98
3 -8 -3 9.27 7.08
3 -8 -3 21.83 3.23
-3 8 3 25.26 3.58
-3 8 3 6.56 6.46
2 -8 -3 268.13 14.91
2 -8 -3 273.22 10.01
1 -8 -3 742.9 22.5
-1 8 3 647.39 23.66
-1 8 3 701.35 19.86
0 -8 -3 1405.46 37.41
0 -8 -3 1316.06 40.68
0 8 3 1372.76 37.92
-1 -8 -3 26.2 6.27
1 8 3 30.94 7.44
1 8 3 32.56 8.24
-2 -8 -3 107.5 15.36
-2 -8 -3 109.17 13.7
2 8 3 121.8 15.63
4 -9 -3 48 12.34
-4 9 3 44.26 9.97
3 -9 -3 686.76 20.93
3 -9 -3 669.32 28.16
-3 9 3 713.16 20.09
-3 9 3 690.89 26.78
2 -9 -3 26.97 7.26
-2 9 3 32.15 7.24
1 -9 -3 193.25 19.01
1 -9 -3 188.07 8.99
-1 9 3 207.95 7.65
-1 9 3 179.36 12.39
0 -9 -3 366.94 17.01
0 -9 -3 427.66 12.98
0 9 3 398.01 17.6
0 9 3 400.01 13.58
-1 -9 -3 74.14 10.27
1 9 3 89.1 12.47
1 9 3 98.44 12.22
-2 -9 -3 4.41 9.72
2 9 3 -11.64 11.23
2 9 3 -1.48 10.8
4 -10 -3 109.51 15.56
-4 10 3 132.73 17.07
3 -10 -3 117.24 10.77
3 -10 -3 105.03 14.39
-3 10 3 112.97 13.11
2 -10 -3 582.45 24.25
2 -10 -3 659.86 29.09
-2 10 3 593.26 17.49
-2 10 3 589.16 23.86
1 -10 -3 411.44 17.52
1 -10 -3 393.52 16.63
-1 10 3 423.01 18.87
-1 10 3 427.33 13.59
0 -10 -3 295.46 15.74
0 -10 -3 337.22 11.27
0 10 3 327.62 15.55
0 10 3 322.46 16.84
-1 -10 -3 207.65 15.56
1 10 3 230.26 16.5
1 10 3 220.76 17.24
4 -11 -3 16.8 12.58
-4 11 3 3.41 12.14
3 -11 -3 45.11 8.51
3 -11 -3 47.53 11.41
-3 11 3 44.21 10.5
2 -11 -3 296.56 17.85
2 -11 -3 246.9 14.8
-2 11 3 274.78 16.99
-2 11 3 268.87 10.14
1 -11 -3 -12.52 6.45
1 -11 -3 6.37 7.81
-1 11 3 3.65 7.81
-1 11 3 -3.75 4.88
0 -11 -3 240.18 15.87
0 11 3 275.79 16.13
0 11 3 278.8 17.07
-1 -11 -3 92.33 12.84
1 11 3 133.4 16.76
1 11 3 122.02 17.64
3 -12 -3 14.38 11.13
3 -12 -3 2.97 8.72
-3 12 3 32.45 11.66
2 -12 -3 20.1 9.99
2 -12 -3 35.05 8.35
-2 12 3 34.1 9.58
1 -12 -3 173.69 17.39
1 -12 -3 126.75 12.94
-1 12 3 172.82 16.24
0 -12 -3 15.29 8.88
0 12 3 9.86 9.04
0 12 3 2.06 10.04
3 -13 -3 40.33 13.57
3 -13 -3 55.03 9.89
-3 13 3 43.26 13.72
2 -13 -3 85.56 12.95
2 -13 -3 53.99 10.06
-2 13 3 84.66 14.07
1 -13 -3 7.38 9.16
1 -13 -3 20.44 9.54
-1 13 3 19.61 11.41
-1 14 -4 67.82 12.91
-1 14 -4 21.31 10.2
1 -14 4 31.82 11.09
1 -14 4 36.38 11.36
-2 14 -4 102.91 13.44
-2 14 -4 79.71 12.17
2 -14 4 75.77 11.66
2 -14 4 117.05 17.59
-3 14 -4 25.8 12.34
-3 14 -4 31.64 12.57
3 -14 4 32 13.37
0 13 -4 238.34 17.63
0 13 -4 223.79 16.48
0 -13 4 239.63 15.96
0 -13 4 194.85 17.42
-1 13 -4 101.17 11.77
-1 13 -4 149.52 14.58
1 -13 4 117.51 14.82
1 -13 4 121.01 14
-2 13 -4 -4.36 9.25
-2 13 -4 14.63 9.65
2 -13 4 23.74 10.2
2 -13 4 2.24 8.48
-3 13 -4 133.42 16.62
-3 13 -4 95.12 13.52
3 -13 4 69.95 12.87
1 12 -4 164.4 14.91
1 12 -4 220 17
-1 -12 4 169.78 17.17
0 12 -4 1.04 7.9
0 12 -4 0.9 14.45
0 -12 4 -0.02 8.01
0 -12 4 8.15 8.85
-1 12 -4 166.85 20.95
-1 12 -4 184.1 13.54
1 -12 4 192.26 14.84
1 -12 4 186.05 13.7
-2 12 -4 12.71 8.39
-2 12 -4 23.47 8.19
2 -12 4 14.62 5.06
2 -12 4 10.75 8.18
-3 12 -4 32.58 10.06
-3 12 -4 10.56 8.4
3 -12 4 13.73 10.27
1 11 -4 74.57 15.04
1 11 -4 96.39 13.05
-1 -11 4 67.53 10.73
0 11 -4 241.03 14.29
0 -11 4 226.54 14.92
0 -11 4 258.97 10.35
-1 11 -4 211.87 13.03
1 -11 4 228.06 13.49
1 -11 4 236.53 22.52
-2 11 -4 211.19 13.55
-2 11 -4 224.84 13.7
2 -11 4 238.28 15.37
2 -11 4 222.23 9.23
-3 11 -4 60.02 9.34
-3 11 -4 60.53 9.81
3 -11 4 51.99 9.48
-4 11 -4 4.77 10.69
-4 11 -4 26.22 11.15
4 -11 4 18.05 11.44
2 10 -4 67.05 10.94
2 10 -4 74.83 11.71
-2 -10 4 59.75 11.72
1 10 -4 269.88 15.86
1 10 -4 253.46 19.98
-1 -10 4 249.76 16.43
-1 -10 4 301.68 10.7
0 10 -4 62.98 7.98
0 10 -4 44.85 5.68
0 -10 4 47.25 7.61
0 -10 4 64.71 5.81
-1 10 -4 605.96 21.88
-1 10 -4 606.44 19.17
1 -10 4 576.63 19.4
1 -10 4 613.31 22.54
-2 10 -4 375.5 16.58
-2 10 -4 374.25 16.85
2 -10 4 377.5 18.07
2 -10 4 395.81 12.73
-3 10 -4 12.77 7.13
-3 10 -4 13.12 7.93
3 -10 4 -4.84 6.68
-4 10 -4 202.82 17.47
-4 10 -4 192.9 17.93
4 -10 4 201.52 18.62
2 9 -4 18.46 8.58
2 9 -4 20.92 8.33
-2 -9 4 23.51 9.2
1 9 -4 124.77 10.86
1 9 -4 144.57 7.07
-1 -9 4 100.7 6.91
-1 -9 4 122.86 11.26
0 9 -4 623.12 19.36
0 9 -4 653.53 22.55
0 -9 4 682.6 23.47
0 -9 4 632.64 19.96
-1 9 -4 134.05 6.87
-1 9 -4 141.64 6.77
1 -9 4 132.01 7.1
1 -9 4 142.39 6.68
-2 9 -4 646.8 22.26
2 -9 4 631.44 28.71
2 -9 4 672.94 19.01
-3 9 -4 463.6 20.1
-3 9 -4 464.03 19.81
-4 9 -4 20.93 9.86
-4 9 -4 28.84 9.27
4 -9 4 18.21 10.05
2 8 -4 424.59 17.73
2 8 -4 407.88 18.96
-2 -8 4 387.56 19.8
1 8 -4 17.72 5.32
1 8 -4 12.12 3.35
-1 -8 4 14.02 5.7
0 8 -4 30.02 2.94
0 8 -4 27.64 4.08
0 -8 4 29.87 4.18
0 -8 4 24.58 3.06
-1 8 -4 764.33 22.77
-1 8 -4 795.73 23.58
1 -8 4 802.21 22.94
1 -8 4 725.32 23.71
-2 8 -4 8.47 3.13
-2 8 -4 9.84 3.05
2 -8 4 15.68 5.31
-3 8 -4 16.1 6.43
-3 8 -4 3.6 5.76
3 -8 4 16.08 6.42
-4 8 -4 314.98 18.9
-4 8 -4 303.3 18.73
4 -8 4 307.58 19.41
3 7 -4 734.79 30.09
3 7 -4 751.1 26.68
-3 -7 4 701.88 30.55
2 7 -4 6.43 3.84
2 7 -4 0.48 6.35
-2 -7 4 7.93 6.27
-2 -7 4 14.78 3.96
1 7 -4 1144.77 34.79
1 7 -4 1144.29 31.59
-1 -7 4 1153.29 35.73
0 7 -4 446.12 13.27
0 7 -4 422.72 14.32
0 -7 4 427.74 14.09
0 -7 4 458.77 14.86
-1 7 -4 41.65 3.56
-1 7 -4 36.2 3.52
1 -7 4 47.74 3.32
1 -7 4 38.47 4.04
-2 7 -4 1191.9 34.28
-2 7 -4 1186.21 34.18
2 -7 4 1172.47 35.74
-3 7 -4 53.43 7.88
3 -7 4 59.36 9.45
-4 7 -4 28.51 8.81
-4 7 -4 29.09 8.97
4 -7 4 23.41 9.36
3 6 -4 189.36 14.42
3 6 -4 176.64 15.88
-3 -6 4 173.37 15.45
2 6 -4 852.16 23.93
2 6 -4 825.34 28.36
-2 -6 4 814.95 28.68
-2 -6 4 824.12 23.96
1 6 -4 667.1 19.1
1 6 -4 677.29 21.17
-1 -6 4 674.84 21.7
-1 -6 4 683.01 19.97
0 6 -4 12.39 1.76
0 6 -4 11.76 1.97
0 -6 4 11.67 2.02
-1 6 -4 1941.89 53.23
-1 6 -4 1980.77 52.61
1 -6 4 2027.44 51.98
1 -6 4 1970.13 53.95
-2 6 -4 12.66 2.63
-2 6 -4 15.57 2.58
2 -6 4 10.57 2.66
-3 6 -4 548.56 21.63
3 -6 4 599.2 30.62
-4 6 -4 318.88 17.98
-4 6 -4 314.2 19.35
4 -6 4 316.92 18.25
3 5 -4 196.56 15.11
3 5 -4 195.71 13.43
-3 -5 4 190.7 14.42
2 5 -4 34.45 4.17
2 5 -4 35.98 8.8
-2 -5 4 31.67 3.48
-2 -5 4 33.99 6.47
1 5 -4 953.28 27.77
1 5 -4 942.02 25.44
-1 -5 4 940.31 28.09
-1 -5 4 948.11 26.56
0 5 -4 382.16 12.38
0 -5 4 375.36 12.07
0 -5 4 382.45 12.32
-1 5 -4 250.16 8.43
-1 5 -4 230.37 8.56
-1 5 -4 241.48 7.4
1 -5 4 252.93 9.23
1 -5 4 254.09 7.76
-2 5 -4 1004.5 29.1
-2 5 -4 971.48 28.84
2 -5 4 974.77 29.29
-3 5 -4 85.83 9.53
3 -5 4 92.58 9.41
-4 5 -4 83.4 10.8
4 -5 4 96.04 13.05
4 -5 4 108.56 14.54
3 4 -4 75.51 9.12
-3 -4 4 73.31 10.13
-3 -4 4 88.67 6.76
-3 -4 4 82.6 10.6
2 4 -4 556.32 16.03
2 4 -4 507.67 19.57
-2 -4 4 518.01 16.36
-2 -4 4 499.38 26.26
1 4 -4 231.44 7.27
1 4 -4 251.31 9.12
-1 -4 4 242.1 9.18
-1 -4 4 254.75 8.56
0 4 -4 825.29 23.16
0 -4 4 811.95 23.04
0 -4 4 808.05 22.99
-1 4 -4 1136.64 31.99
-1 4 -4 1183.35 31.59
1 -4 4 1154.62 32.34
-2 4 -4 37.73 3.6
-2 4 -4 42.27 3.53
2 -4 4 33.92 3.72
-3 4 -4 161.58 12.66
-3 4 -4 173.47 11.8
3 -4 4 194.05 8.76
-4 4 -4 157.64 14.2
4 -4 4 163.79 15.53
4 -4 4 173.06 13.91
4 3 -4 244.91 18.37
-4 -3 4 223.76 19
-4 -3 4 235.44 17.81
3 3 -4 318.92 14.89
-3 -3 4 315.53 16
-3 -3 4 307.81 11.84
-3 -3 4 292.7 15.44
2 3 -4 65.62 3.93
-2 -3 4 62.69 4.57
-2 -3 4 68.8 4.75
-2 -3 4 57.9 4.53
1 3 -4 1145.97 29.38
1 3 -4 1111.66 31.23
1 3 -4 1073.1 29.45
-1 -3 4 1130.02 31.74
-1 -3 4 1131.82 30.94
0 3 -4 1181.21 32.5
0 -3 4 1211.13 32.73
0 -3 4 1234.22 32.73
-1 3 -4 1560.01 41.06
-1 3 -4 1491.88 41.39
1 -3 4 1558.53 41.49
-2 3 -4 2711.05 71.96
-2 3 -4 2627.41 71.79
2 -3 4 2707.44 71.34
-3 3 -4 317.98 15.11
3 -3 4 315.42 15.51
3 -3 4 316.57 12.01
-4 3 -4 37.16 9.3
4 -3 4 32.54 8.82
4 -3 4 37.33 9.65
4 2 -4 15.24 14.45
4 2 -4 2.62 8.7
-4 -2 4 -11.51 9.61
-4 -2 4 -0.91 9.36
3 2 -4 206.22 12.53
-3 -2 4 203.18 12.31
-3 -2 4 215.18 9.41
-3 -2 4 213.89 12.8
2 2 -4 97.49 4.81
-2 -2 4 96.4 5.37
-2 -2 4 94.75 5.18
-2 -2 4 94.71 5.26
1 2 -4 504.04 15.47
-1 -2 4 515.95 15.67
-1 -2 4 530.57 16.19
0 2 -4 3511.6 94.33
0 2 -4 3763.73 94.36
0 -2 4 3752.55 94.62
0 -2 4 3732.02 94.73
-1 2 -4 289.16 9.77
1 -2 4 292.17 9.57
1 -2 4 297.28 9.58
-2 2 -4 1840.74 51.53
2 -2 4 1866.71 51.48
2 -2 4 1907.57 50.46
-3 2 -4 483.5 19.78
3 -2 4 505.13 16.17
3 -2 4 481.99 19.7
-4 2 -4 279.21 18.24
4 -2 4 298.94 16.04
4 -2 4 309.05 19.25
4 1 -4 277.06 16.65
4 1 -4 283.61 17.25
-4 -1 4 263.69 17.94
-4 -1 4 269.87 17.35
3 1 -4 276.94 15.61
-3 -1 4 279.54 11.42
-3 -1 4 292.51 14.04
-3 -1 4 283.76 16.09
-2 -1 4 733.97 21.8
-2 -1 4 729.62 22.29
-2 -1 4 700.07 21.07
-2 -1 4 731.75 22.1
1 1 -4 88.37 3.5
1 1 -4 88.58 3.95
-1 -1 4 92.81 4.5
-1 -1 4 91.65 3.45
-1 -1 4 87.17 4.15
0 1 -4 273.28 7.54
0 1 -4 270.79 8.11
0 1 -4 259.51 8.36
0 1 -4 249.88 8.25
0 -1 4 264.69 8.54
0 -1 4 272.41 7.5
0 -1 4 249.19 7.88
-1 1 -4 1430.43 37.05
-1 1 -4 1424.21 38.63
1 -1 4 1342.54 37.11
1 -1 4 1456.7 38.39
1 -1 4 1460.29 37.84
-2 1 -4 12.24 1.57
-2 1 -4 9.23 2.36
2 -1 4 12.73 2.43
2 -1 4 14.95 1.95
-3 1 -4 465.07 14.32
-3 1 -4 430.05 18.77
3 -1 4 448.38 19.09
3 -1 4 448.99 14.58
-4 1 -4 19.59 8.58
4 -1 4 20.03 10.57
4 0 -4 10 8.64
4 0 -4 14.5 8.36
-4 0 4 41.47 8.97
-4 0 4 16.29 7.75
-3 0 4 333.54 18.21
-3 0 4 384.79 13.49
-3 0 4 333.25 13.46
-3 0 4 353.45 13.63
-2 0 4 2126.65 58.11
-2 0 4 2128.64 58.33
-2 0 4 2204.27 57.27
-2 0 4 2135.67 57.27
1 0 -4 190.44 6.3
1 0 -4 213.98 6.64
-1 0 4 207.57 6.61
-1 0 4 197.19 7.47
-1 0 4 205.92 7.37
0 0 -4 4417.91 110.29
0 0 -4 4109.32 110.01
0 0 -4 4481.74 109.58
0 0 -4 4146.12 109.32
0 0 4 4446.14 109.47
0 0 4 4448.65 109.5
0 0 4 4170.41 110.07
-1 0 -4 971.46 27.29
-1 0 -4 965.02 26.39
-1 0 -4 982.92 26.31
1 0 4 985.46 27.08
1 0 4 948.83 26.06
-2 0 -4 50.53 3.26
-2 0 -4 51.14 3.97
2 0 4 40.98 3.77
2 0 4 46.66 3.01
-3 0 -4 291.9 10.53
-3 0 -4 269.84 14.51
3 0 4 288.95 14.89
3 0 4 272.67 9.71
-4 0 -4 119.48 14.3
4 0 4 143.16 16.45
4 -1 -4 415.49 20.91
-4 1 4 429.33 19.04
-4 1 4 407.95 21.35
-3 1 4 52.82 5.7
-3 1 4 47.79 5.36
-3 1 4 50.16 5.26
-3 1 4 54.17 4.78
-2 1 4 1893.37 52.64
-2 1 4 1967.95 54.01
-2 1 4 1945.78 53.04
-2 1 4 2047.93 52.09
1 -1 -4 2421.95 63.77
1 -1 -4 2493.03 63.39
1 -1 -4 2531.84 65.41
-1 1 4 2538.54 65.92
-1 1 4 2483.19 64.48
0 -1 -4 71.61 3.36
0 -1 -4 61.37 3.01
0 -1 -4 70.14 2.89
0 1 4 71.57 3.33
0 1 4 63.89 2.91
0 1 4 64.19 3.11
-1 -1 -4 373.46 11.5
-1 -1 -4 358.9 10.55
-1 -1 -4 353.72 11.7
1 1 4 362.97 10.5
1 1 4 364.92 11.77
-2 -1 -4 1095.31 31.67
-2 -1 -4 1083.09 30.4
2 1 4 1009.7 28.35
2 1 4 1079.94 33.3
-3 -1 -4 23.71 4.08
-3 -1 -4 31.24 7.57
3 1 4 22.05 3.1
3 1 4 23.81 6.9
-4 -1 -4 296.63 20.66
-4 -1 -4 329.87 17.67
4 1 4 289.25 21.52
4 -2 -4 4.97 6.78
4 -2 -4 2.98 8.18
-4 2 4 -2.36 6.79
-4 2 4 -4.73 6.93
3 -2 -4 252.41 9.97
-3 2 4 258.48 9.75
-2 2 4 11.67 1.6
-2 2 4 11.14 2.08
-2 2 4 9.13 2.06
1 -2 -4 13.8 1.45
-1 2 4 14.83 1.54
-1 2 4 13.51 1.6
0 -2 -4 3756.88 95.68
0 -2 -4 3731.63 94.57
0 -2 -4 3609.76 95.95
0 2 4 3757.62 95.74
0 2 4 3785.4 95.39
0 2 4 3658.04 94.5
-1 -2 -4 57.35 3.54
-1 -2 -4 50.87 3.18
-1 -2 -4 45.94 2.58
1 2 4 55.56 2.45
1 2 4 55.23 3.34
-2 -2 -4 390.89 15.91
-2 -2 -4 384.56 13.36
2 2 4 393.41 15.82
-3 -2 -4 570.28 23.19
-3 -2 -4 587.98 22.06
3 2 4 569.23 23.04
4 -3 -4 297.33 18.26
-4 3 4 274.01 14.98
-4 3 4 267.02 16.03
3 -3 -4 11.81 3.01
-3 3 4 8.65 5.29
-3 3 4 7.95 2.64
-3 3 4 16.47 5.02
2 -3 -4 962.54 27.38
-2 3 4 959.96 28.99
-2 3 4 975.14 25.88
-2 3 4 936.2 27.85
1 -3 -4 51.91 2.95
-1 3 4 46.04 3.24
-1 3 4 49.8 3.06
0 -3 -4 6.97 1.28
0 -3 -4 4.01 1.1
0 3 4 6.11 1.35
0 3 4 7.95 1.66
0 3 4 7.32 1.77
-1 -3 -4 802.84 23.58
-1 -3 -4 813.72 23.89
1 3 4 786.53 23.33
-2 -3 -4 620.93 22.45
-2 -3 -4 571.75 21
2 3 4 608.43 21.51
-3 -3 -4 126.33 13.29
-3 -3 -4 117.69 12.57
3 3 4 122.04 13.2
4 -4 -4 6.68 8.34
4 -4 -4 8.58 4.79
-4 4 4 19.35 6.92
-4 4 4 5.41 7.93
3 -4 -4 776.29 28.18
3 -4 -4 752.91 23.02
-3 4 4 791.64 22.78
-3 4 4 778.5 28.14
-2 4 4 12.64 2.32
-2 4 4 11.3 2.17
1 -4 -4 1091.07 30.16
-1 4 4 1066.91 30.31
-1 4 4 1063.83 30.81
0 -4 -4 1942.94 51.75
0 -4 -4 2014.05 53.32
0 4 4 2026.53 52.39
0 4 4 1954.48 53.39
-1 -4 -4 108.68 5.38
-1 -4 -4 112.76 5.76
1 4 4 111.12 5.4
-2 -4 -4 839.25 32.21
-2 -4 -4 878.97 28.85
2 4 4 892.77 28.47
-3 -4 -4 865.19 31.58
-3 -4 -4 797.57 30.43
3 4 4 858.97 30.66
4 -5 -4 185.8 15.85
4 -5 -4 149.1 7.97
-4 5 4 151.44 13.77
-4 5 4 156.82 12.15
3 -5 -4 39.63 7.58
3 -5 -4 42.31 4.37
-3 5 4 43.6 4.16
2 -5 -4 747.39 21.87
-2 5 4 737.25 22.8
-2 5 4 725.11 23.56
1 -5 -4 454.98 14.59
-1 5 4 457.48 15.22
-1 5 4 472.2 15.1
0 -5 -4 211.94 7.37
0 -5 -4 215.73 8.35
0 5 4 213.57 7.51
0 5 4 215.91 8.23
-1 -5 -4 745.12 24.19
-1 -5 -4 713.63 21.94
1 5 4 709.21 23.53
-2 -5 -4 277.15 14.72
-2 -5 -4 274.1 14.93
2 5 4 277 14.66
-3 -5 -4 57.03 11.03
-3 -5 -4 59.34 10.42
3 5 4 49.01 10.42
4 -6 -4 97.53 14.95
4 -6 -4 86.14 7.08
-4 6 4 82.37 11.47
-4 6 4 69.14 6.82
3 -6 -4 323.96 17.27
3 -6 -4 325.94 11.32
-3 6 4 335.71 10.71
-3 6 4 329.79 15.96
2 -6 -4 192.93 9.05
2 -6 -4 189.33 7.64
-2 6 4 214.31 9.57
1 -6 -4 354.99 12.09
1 -6 -4 353.61 12.61
-1 6 4 347.79 12.42
0 -6 -4 465.43 14.75
0 -6 -4 495.21 16.49
0 6 4 481.86 14.98
0 6 4 511.08 16.1
-1 -6 -4 35.97 6.5
-1 -6 -4 56.16 7.35
1 6 4 44.29 7.26
-2 -6 -4 378 18.94
-2 -6 -4 412.36 18.68
2 6 4 393.01 18.15
4 -7 -4 141.84 16.72
4 -7 -4 125.56 7.65
-4 7 4 136.5 8.06
-4 7 4 159.73 14.27
3 -7 -4 183.96 7.71
3 -7 -4 172.99 13.69
-3 7 4 185.85 12.41
2 -7 -4 1089.78 31.13
2 -7 -4 1083.7 35.19
-2 7 4 1077.28 33.92
1 -7 -4 652.72 20.2
1 -7 -4 641.12 19.6
-1 7 4 530.98 23.33
-1 7 4 621.33 17.1
0 -7 -4 12.62 2.89
0 -7 -4 8.94 4.92
0 7 4 7.91 5.48
0 7 4 11.36 2.98
-1 -7 -4 445.54 18.2
-1 -7 -4 434.88 17.99
1 7 4 430.28 18.33
-2 -7 -4 15.02 8.7
-2 -7 -4 4.57 7.73
2 7 4 -0.26 8.21
4 -8 -4 171.38 18.01
4 -8 -4 150.3 7.96
-4 8 4 132.93 15.55
3 -8 -4 218.46 15.7
3 -8 -4 209.09 8.49
-3 8 4 190.84 13.88
2 -8 -4 782.2 23.75
2 -8 -4 757.31 27.72
-2 8 4 765.8 26.7
1 -8 -4 1121.85 34.67
1 -8 -4 1214.31 34.08
-1 8 4 1056.5 30.39
0 -8 -4 307.85 14.76
0 -8 -4 354.86 11.29
0 8 4 312.55 15.33
0 8 4 324.82 11.36
-1 -8 -4 74.42 10.09
1 8 4 98.41 12.08
1 8 4 84.21 11.98
-2 -8 -4 278.89 19.97
-2 -8 -4 277.66 18.05
2 8 4 305.84 20.29
4 -9 -4 50.95 12.28
-4 9 4 68.98 11.75
3 -9 -4 53.59 7.11
3 -9 -4 46.55 9.27
-3 9 4 52.42 9.23
2 -9 -4 4.08 6.2
2 -9 -4 15.07 5.4
-2 9 4 23.05 6.85
1 -9 -4 531.69 20.51
1 -9 -4 577.72 18.54
-1 9 4 533.25 21.34
-1 9 4 517.16 15.98
0 -9 -4 21.74 6.68
0 9 4 21.06 4.09
0 9 4 36.71 8.41
-1 -9 -4 202.04 14.26
1 9 4 188.04 15.69
1 9 4 210.3 15.35
4 -10 -4 248.6 22
-4 10 4 266.96 20.69
3 -10 -4 142.3 16.23
-3 10 4 194.05 15.44
2 -10 -4 14.97 6.16
2 -10 -4 7.16 7.64
-2 10 4 4.9 7.32
1 -10 -4 267.49 14.98
1 -10 -4 295.03 18.32
-1 10 4 290.4 16.28
-1 10 4 309.91 10.5
0 -10 -4 142.3 8.7
0 -10 -4 112.73 11.76
0 10 4 136.62 13.15
0 10 4 138.09 12.03
-1 -10 -4 29.64 8.83
1 10 4 28.15 10.36
1 10 4 31.97 10.62
3 -11 -4 37.18 11.13
3 -11 -4 59.47 8.67
-3 11 4 43.3 11.04
2 -11 -4 291.4 15.93
2 -11 -4 295.24 17.95
-2 11 4 275.02 17.99
1 -11 -4 44.68 8.16
1 -11 -4 31.59 9.14
-1 11 4 51.1 5.21
-1 11 4 33.13 9.03
0 -11 -4 291.99 17.51
0 11 4 347.74 18.98
0 11 4 326.57 17.24
3 -12 -4 44.59 12.62
3 -12 -4 28.05 8.97
-3 12 4 19.76 11.99
2 -12 -4 30.71 9.17
2 -12 -4 26.07 11.22
-2 12 4 33.54 11.43
1 -12 -4 342.32 18.58
1 -12 -4 294.3 17.96
-1 12 4 369.06 20.33
0 -12 -4 1.69 9.79
0 12 4 -14.04 10.61
2 -13 -4 116.96 14.39
2 -13 -4 140.79 19.03
-2 13 4 130.96 18.89
1 -13 -4 38.08 9.9
-1 14 -5 62.51 11.25
-1 14 -5 51.5 12.32
1 -14 5 58.61 11.58
1 -14 5 68.23 12.83
-2 14 -5 294.39 20.88
-2 14 -5 279.56 19.28
2 -14 5 277.45 17.93
2 -14 5 311.87 21.06
0 13 -5 280.35 17.99
0 13 -5 230.51 16.07
0 -13 5 222.33 17.07
0 -13 5 196.98 17.3
-1 13 -5 143.47 13.79
-1 13 -5 144.16 15.67
1 -13 5 167.38 15.83
1 -13 5 155.28 15.1
-2 13 -5 31.28 9.36
-2 13 -5 35.27 9.58
2 -13 5 34.61 9.41
2 -13 5 20.29 9.46
-3 13 -5 576.35 26.84
-3 13 -5 547.77 25.96
3 -13 5 539.1 27.74
1 12 -5 87.15 10
1 12 -5 100.6 14.93
-1 -12 5 75.47 12.4
0 12 -5 20.58 8.67
0 12 -5 19.05 8.09
0 -12 5 7.34 8.58
0 -12 5 24.17 8.41
-1 12 -5 119.98 13.44
-1 12 -5 125.03 12.5
1 -12 5 135.85 13.19
1 -12 5 136.41 13.16
-2 12 -5 352.49 18.48
-2 12 -5 323.46 17.63
2 -12 5 352.22 19.09
2 -12 5 354.35 12.97
-3 12 -5 30.97 9.1
-3 12 -5 36.51 10.45
3 -12 5 30.25 10.81
1 11 -5 -0.54 7.74
1 11 -5 2.43 7.81
-1 -11 5 -5.47 8.21
-1 -11 5 0.55 8.59
0 11 -5 390.5 17.83
0 11 -5 395.17 13.56
0 -11 5 358.36 18.57
0 -11 5 407.44 20.62
-1 11 -5 175.5 8.86
-1 11 -5 175.03 12.99
1 -11 5 184.53 13.93
1 -11 5 178.23 12.86
-2 11 -5 65.28 8.98
-2 11 -5 82.92 12.42
2 -11 5 85.2 12.49
2 -11 5 62.63 6.23
-3 11 -5 86.99 11.05
-3 11 -5 102.18 13.25
3 -11 5 73.06 11.02
-4 11 -5 37.3 11.29
-4 11 -5 31.74 11.08
4 -11 5 38.25 13.23
2 10 -5 115.61 13.96
2 10 -5 109.26 14.92
-2 -10 5 102.62 14.79
1 10 -5 266.36 10.57
1 10 -5 305.25 16.05
-1 -10 5 284.42 11.45
-1 -10 5 294.63 16.99
0 10 -5 20.96 3.92
0 10 -5 26.57 6.44
0 -10 5 28.87 6.89
0 -10 5 21.33 4.19
-1 10 -5 435.6 18.81
-1 10 -5 451.38 15.03
1 -10 5 453.13 15.45
1 -10 5 431.22 18.62
-2 10 -5 660.1 23.79
-2 10 -5 640.37 32.32
2 -10 5 662.09 25.42
2 -10 5 665.57 19.59
-3 10 -5 -7.58 6.68
-3 10 -5 11.64 7.45
3 -10 5 11.29 8.01
-4 10 -5 193.67 18.81
-4 10 -5 235.72 18.51
4 -10 5 231.03 20.01
2 9 -5 235.54 15.82
2 9 -5 215.78 15.03
-2 -9 5 214.72 16.15
1 9 -5 35.59 4.04
1 9 -5 40.72 7.19
-1 -9 5 40.57 4.74
-1 -9 5 46.1 8.5
0 9 -5 1028.14 32.54
0 9 -5 1047.27 29.4
0 -9 5 1013.03 30.47
0 -9 5 1093.68 33.48
-1 9 -5 5.78 6.22
-1 9 -5 2.43 3.02
1 -9 5 6.12 3.18
-2 9 -5 654.48 20.71
-2 9 -5 630.84 22.4
2 -9 5 622.36 23.87
-3 9 -5 215.85 13.9
-3 9 -5 228.41 14.42
3 -9 5 225.65 15.53
-4 9 -5 -4.25 9.65
-4 9 -5 0.18 9.48
4 -9 5 -0.28 10.37
2 8 -5 94.28 7.28
2 8 -5 90.67 11.49
-2 -8 5 112.56 7.38
-2 -8 5 103.12 12.18
1 8 -5 455.33 18.69
1 8 -5 474.93 14.44
-1 -8 5 476.68 19.42
-1 -8 5 462.17 15.38
0 8 -5 10.53 2.61
0 -8 5 6.37 3.08
0 -8 5 -2.77 2.97
-1 8 -5 815.62 23.63
-1 8 -5 820.68 24.77
1 -8 5 783.82 25.07
1 -8 5 815.05 23.68
-2 8 -5 1083.1 31.33
2 -8 5 1031.47 33.96
-3 8 -5 8 5.85
-3 8 -5 12.06 6.71
3 -8 5 22.92 7.91
-4 8 -5 360.58 19.96
-4 8 -5 362.12 20.36
4 -8 5 345.86 21.57
3 7 -5 725.56 26.13
3 7 -5 718.29 29.68
-3 -7 5 726.65 30.43
2 7 -5 8.56 3.8
2 7 -5 11.96 6.43
-2 -7 5 5.2 4.36
-2 -7 5 3.19 6.11
1 7 -5 34.75 5.94
-1 -7 5 22.38 3.29
-1 -7 5 17.84 5
0 7 -5 474.72 15.73
0 7 -5 495.36 14.21
0 -7 5 477.88 15.47
0 -7 5 478.21 15.93
-1 7 -5 106.37 4.96
-1 7 -5 91.1 5.01
1 -7 5 95.21 5.38
1 -7 5 98.12 4.73
-2 7 -5 361.67 12.74
-2 7 -5 361.06 12.96
2 -7 5 336.58 17.8
-3 7 -5 594.31 22.26
-3 7 -5 587.15 22.53
3 -7 5 574.09 23.31
-4 7 -5 61.61 11.25
-4 7 -5 56.55 10.03
4 -7 5 41.35 10.4
3 6 -5 7.95 7.88
3 6 -5 7.68 8.83
-3 -6 5 7.08 8.12
2 6 -5 538.99 16.01
2 6 -5 502.21 20.61
-2 -6 5 550.95 17.02
-2 -6 5 519.23 21.14
1 6 -5 578.23 16.31
1 6 -5 571.59 18.65
-1 -6 5 586.47 17.81
-1 -6 5 558.41 19.02
0 6 -5 805.36 23.86
0 -6 5 793.11 23.69
0 -6 5 805.28 23.63
-1 6 -5 1903.48 52.46
-1 6 -5 1914.15 51.39
1 -6 5 1951.95 53.14
1 -6 5 1971.82 51.06
-2 6 -5 142.69 6.84
-2 6 -5 148.27 6.92
2 -6 5 150.42 7.31
-3 6 -5 119.93 10.58
-3 6 -5 108.37 10.63
3 -6 5 121.9 11.23
-4 6 -5 287.91 17.93
4 -6 5 279.33 18.98
4 -6 5 277.64 18.26
3 5 -5 255.51 14.54
3 5 -5 249.94 16.38
-3 -5 5 265.76 10.83
-3 -5 5 254.83 16.21
2 5 -5 2.7 2.74
2 5 -5 -3.9 5.39
-2 -5 5 1.36 3.54
-2 -5 5 3.28 8.81
1 5 -5 665.25 20.74
-1 -5 5 678.85 21.36
-1 -5 5 674.97 20.08
0 5 -5 1120.39 31.49
0 -5 5 1130.63 31.47
0 -5 5 1106.28 31.34
-1 5 -5 2.77 1.37
-1 5 -5 1.74 1.72
-1 5 -5 2.08 1.66
1 -5 5 4.65 1.55
1 -5 5 5.76 1.84
-2 5 -5 522.04 16.99
-2 5 -5 510.46 17
2 -5 5 524.54 17.38
-3 5 -5 339.32 16.45
-3 5 -5 343.27 16.26
3 -5 5 361.45 16.3
-4 5 -5 63.31 10.82
4 -5 5 73.1 11.38
4 -5 5 69.28 10.28
3 4 -5 105.46 11.1
3 4 -5 117.72 12.54
-3 -4 5 117.6 11.62
-3 -4 5 127.56 7.93
2 4 -5 1440.51 38.64
2 4 -5 1419.08 42.25
-2 -4 5 1461.78 40.23
-2 -4 5 1379.51 42.39
1 4 -5 360.18 12.52
-1 -4 5 391.03 13.22
-1 -4 5 382.19 12.54
0 4 -5 931.75 26.6
0 -4 5 930.7 26.79
0 -4 5 975.85 26.83
-1 4 -5 1896.85 53.41
-1 4 -5 2049.79 52.88
1 -4 5 2054.44 53.95
-2 4 -5 251.09 9.61
-2 4 -5 229.07 9.35
2 -4 5 245.17 9.75
-3 4 -5 468.94 19.46
3 -4 5 470.57 19.85
-4 4 -5 266.75 18.02
4 -4 5 278.14 17.22
4 -4 5 291.71 17.84
4 3 -5 228.15 17.74
-4 -3 5 213.83 18.42
3 3 -5 291.7 20.35
-3 -3 5 307.32 16.11
-3 -3 5 294.94 15.69
-3 -3 5 311.69 12.19
2 3 -5 82.25 5.35
2 3 -5 67.8 3.98
-2 -3 5 81.34 5.07
-2 -3 5 74.07 5.11
1 3 -5 5596.38 148.88
-1 -3 5 5874.02 149.27
-1 -3 5 5977.89 150.08
0 3 -5 297.35 9.7
0 -3 5 307.8 9.97
0 -3 5 287.99 9.86
-1 3 -5 907.44 26.28
-1 3 -5 901.63 24.53
1 -3 5 958.12 26.3
-2 3 -5 1922.67 53.42
2 -3 5 1917.21 52.39
2 -3 5 1960.27 53.26
-3 3 -5 5.63 5.66
3 -3 5 7.93 3.56
3 -3 5 -0.3 5.18
-4 3 -5 154.56 15.57
4 -3 5 156.7 15.62
4 -3 5 176.34 14
4 2 -5 31.08 10.67
4 2 -5 18.93 9.25
-4 -2 5 15.82 10.72
-4 -2 5 16.76 9.59
3 2 -5 195.01 8.75
-3 -2 5 202.38 9.43
-3 -2 5 195.59 13.44
-3 -2 5 206.73 13.27
2 2 -5 1841.17 51.11
2 2 -5 1850.02 49.55
-2 -2 5 1859.26 51.78
-2 -2 5 1866.77 51.21
1 2 -5 336.16 11.02
-1 -2 5 356.83 12.05
-1 -2 5 343.11 11.6
0 2 -5 2346.52 60.32
0 -2 5 2315.52 60.69
0 -2 5 2299.43 60.85
-1 2 -5 1006.88 26.92
-1 2 -5 1030.31 28.67
1 -2 5 1035.6 28.21
1 -2 5 1014.22 28.06
1 -2 5 983.16 27.05
-2 2 -5 3.87 2.39
2 -2 5 4.74 2.42
2 -2 5 8.33 2.08
-3 2 -5 3906.67 105.9
3 -2 5 3924.32 102.35
3 -2 5 3898.36 105.81
-4 2 -5 30.08 8.92
4 -2 5 12.22 8.17
4 -2 5 20.53 9.42
4 1 -5 372.87 19.25
4 1 -5 336.87 19.51
-4 -1 5 388.05 20.23
-4 -1 5 364.05 19.98
-3 -1 5 172.3 8.97
-3 -1 5 151.11 11.8
-3 -1 5 170.12 11.59
-2 -1 5 32.43 3.14
-2 -1 5 35.49 3.79
-2 -1 5 37.48 3.91
1 1 -5 692.25 19.24
-1 -1 5 681.37 20.39
-1 -1 5 670.64 18.44
-1 -1 5 671.44 20.32
0 1 -5 595.88 16.83
0 1 -5 593.03 16.19
0 1 -5 594.75 17.38
0 -1 5 604.73 16.16
0 -1 5 597.35 17.53
-1 1 -5 915.85 25.94
-1 1 -5 906.69 24.56
1 -1 5 922.38 25.2
1 -1 5 882.88 25.32
-2 1 -5 1839.11 50.97
-2 1 -5 1852.03 48.5
2 -1 5 1823.29 50.67
2 -1 5 1809.61 48.85
-3 1 -5 528.46 16
-3 1 -5 488.67 20.31
3 -1 5 496.55 16.02
3 -1 5 516.34 21.21
-4 1 -5 302.26 19.59
4 -1 5 335.67 20.33
4 0 -5 0.95 8.74
4 0 -5 -5.55 8.26
-4 0 5 18.71 8.49
-4 0 5 2.16 8.28
-3 0 5 524.86 22.38
-3 0 5 621.96 20.67
-3 0 5 606.75 22.58
-3 0 5 611.6 19.42
-2 0 5 2871.71 76.98
-2 0 5 2994.11 78.59
-2 0 5 2940.47 78.79
-2 0 5 2965.54 77.27
1 0 -5 56.62 2.67
1 0 -5 50.99 2.61
1 0 -5 46.7 3.1
-1 0 5 51.83 3.3
-1 0 5 49.6 2.69
0 0 -5 922.14 25.33
0 0 -5 933.95 24.55
0 0 5 874.88 24.31
0 0 5 932.4 24.46
0 0 5 863.27 25.13
-1 0 -5 250.66 8.3
-1 0 -5 248.53 8.91
1 0 5 251.91 8.23
1 0 5 258.45 8.82
-2 0 -5 402.48 14.01
-2 0 -5 393.67 12.64
2 0 5 380.04 13.77
2 0 5 382.06 11.92
-3 0 -5 1468.27 39.72
-3 0 -5 1377.51 43.47
3 0 5 1405.94 38.28
3 0 5 1371.85 43.16
-4 0 -5 84.8 12.64
4 0 5 95.06 13.5
4 -1 -5 368.92 20.01
-4 1 5 384.4 19.16
-4 1 5 415.93 19.28
-4 1 5 370.36 18.93
-3 1 5 45.9 4.71
-3 1 5 34.78 3.75
-3 1 5 42.69 4.18
2 -1 -5 908.43 26.55
-2 1 5 898.36 25.26
-2 1 5 893.94 27.24
-2 1 5 892.87 25.86
1 -1 -5 2134.13 55.93
1 -1 -5 2067.14 53.45
-1 1 5 2047.67 56.14
-1 1 5 2115.92 54.68
0 -1 -5 284.61 8.54
0 -1 -5 280.64 9.35
0 1 5 262.49 8.37
0 1 5 278.3 8.99
0 1 5 278.26 9.25
-1 -1 -5 1337.42 37
-1 -1 -5 1364.38 36.5
1 1 5 1336.02 35.62
1 1 5 1321.75 36.72
-2 -1 -5 862.36 25.61
-2 -1 -5 883.96 28.26
2 1 5 852.74 23.83
2 1 5 894.4 27.88
-3 -1 -5 18.64 6.85
3 1 5 10.54 7.42
4 -2 -5 4.32 8.26
4 -2 -5 27.08 13.38
-4 2 5 23.05 7.82
-4 2 5 1.17 6.85
3 -2 -5 444.27 15.4
-3 2 5 463.45 14.93
-3 2 5 442.93 19
2 -2 -5 2797.82 73.31
-2 2 5 2698.88 71.14
-2 2 5 2776.62 72.99
-2 2 5 2739.5 74.44
1 -2 -5 2.64 1.41
-1 2 5 -0.09 1.55
-1 2 5 2.69 1.47
0 -2 -5 1786.78 46.35
0 -2 -5 1832.66 47.73
0 2 5 1702.96 46.22
0 2 5 1787.3 47.35
0 2 5 1786.95 47.61
-1 -2 -5 67.75 3.96
-1 -2 -5 63.73 3.45
-1 -2 -5 70.36 4
1 2 5 73.59 3.22
1 2 5 70.03 3.95
-2 -2 -5 217.68 8.96
-2 -2 -5 227.87 11.96
2 2 5 185.36 18.24
-3 -2 -5 310.17 15.98
-3 -2 -5 320.35 17.94
3 2 5 341.27 17.64
4 -3 -5 264.57 15.12
4 -3 -5 258.93 18.55
-4 3 5 232.17 14.43
-4 3 5 268.37 15.84
3 -3 -5 35.44 4.72
-3 3 5 23.77 5.39
-3 3 5 21.03 2.92
-3 3 5 30.72 9.33
2 -3 -5 243.62 9.19
-2 3 5 252.41 9.47
-2 3 5 262.88 10.45
1 -3 -5 3516.75 90.77
-1 3 5 3402.8 91.18
-1 3 5 3502.29 90.36
0 -3 -5 655.86 18.2
0 -3 -5 659.67 19.56
0 3 5 645.29 19.03
0 3 5 644.38 19.58
-1 -3 -5 782.28 22.97
-1 -3 -5 749.78 22.41
-1 -3 -5 702.04 20.14
1 3 5 758.2 20.47
1 3 5 771.37 22.54
-2 -3 -5 220.26 11.99
-2 -3 -5 210.33 12.32
2 3 5 202.9 12.13
-3 -3 -5 6.36 7.46
-3 -3 -5 25.96 8.46
3 3 5 19.5 8.16
4 -4 -5 114.75 11.58
4 -4 -5 104.51 15.56
-4 4 5 124.47 11.66
-4 4 5 116.45 12.9
3 -4 -5 762.95 22.63
-3 4 5 740.97 21.4
-3 4 5 696.92 27.4
-3 4 5 730.77 25.26
2 -4 -5 258.69 9.39
-2 4 5 256.63 10.57
-2 4 5 260.36 9.8
1 -4 -5 227.2 8.57
-1 4 5 237.33 8.68
-1 4 5 230.09 9.02
0 -4 -5 1446.02 40.58
0 -4 -5 1455.09 38.96
0 4 5 1481.7 40.87
0 4 5 1495.1 39.88
-1 -4 -5 55.1 4.16
-1 -4 -5 51.02 4.01
1 4 5 51.27 7.18
-2 -4 -5 621.18 22.54
-2 -4 -5 621.41 22.3
2 4 5 574.2 21.95
-3 -4 -5 31.35 9.14
-3 -4 -5 45.2 9.87
3 4 5 48.31 10.48
4 -5 -5 232.72 18.47
4 -5 -5 250.51 13.71
-4 5 5 215.69 10.85
-4 5 5 241.59 16.32
3 -5 -5 1.72 3
3 -5 -5 11.32 6.33
-3 5 5 3.86 2.57
-3 5 5 2.93 4.71
2 -5 -5 585.99 18.29
-2 5 5 569.49 19.64
-2 5 5 604.89 19.1
1 -5 -5 642.3 19.51
-1 5 5 631.24 19.96
-1 5 5 619.33 19.56
0 -5 -5 160.44 5.99
0 -5 -5 161.87 6.97
0 5 5 159.82 7.01
0 5 5 170.97 6.57
-1 -5 -5 603.47 21.42
-1 -5 -5 609.81 19.06
1 5 5 601.91 24.73
-2 -5 -5 186.54 12.49
-2 -5 -5 204.93 13.86
2 5 5 201.37 13.44
-3 -5 -5 85.18 12.08
-3 -5 -5 85.19 12.78
3 5 5 79.23 12.79
4 -6 -5 72.3 11.61
4 -6 -5 75 10.64
-4 6 5 98.71 13.03
-4 6 5 46.06 6.87
3 -6 -5 692.77 27.04
3 -6 -5 719.73 21.64
-3 6 5 696.22 25.66
2 -6 -5 119.61 5.75
-2 6 5 103.68 10.6
-2 6 5 132.95 10.01
1 -6 -5 708.61 21.11
-1 6 5 679.27 21.32
-1 6 5 643.03 21.1
0 -6 -5 794.14 25.93
0 -6 -5 807 23.15
0 -6 -5 807.52 23.42
0 6 5 822.98 26.29
-1 -6 -5 -3.81 4.98
-1 -6 -5 -2.6 5.47
1 6 5 0.83 5.87
-2 -6 -5 347.47 17.9
-2 -6 -5 371.37 18.59
2 6 5 360.99 18.57
4 -7 -5 41 7.47
4 -7 -5 46 10.85
-4 7 5 27.35 9.15
3 -7 -5 101.56 5.96
3 -7 -5 96.57 12.36
-3 7 5 89.94 10.65
2 -7 -5 1054.19 30.82
2 -7 -5 1046.18 39.01
1 -7 -5 87.45 5.68
1 -7 -5 82.52 7.44
-1 7 5 68.23 8.6
0 -7 -5 223.07 8.61
0 -7 -5 212.18 11.79
0 7 5 223.94 8.53
0 7 5 218.06 12.63
-1 -7 -5 658.25 28.89
-1 -7 -5 622.01 23.56
1 7 5 580.83 23.47
-2 -7 -5 17.13 8.21
-2 -7 -5 13.27 9.36
2 7 5 15.85 9.82
4 -8 -5 93.12 10.88
4 -8 -5 81.19 14.16
-4 8 5 109.01 14.99
3 -8 -5 345.27 15.41
3 -8 -5 365.36 19.67
-3 8 5 366.24 18.13
2 -8 -5 160.44 10.01
2 -8 -5 137.76 12.49
-2 8 5 164.17 11.93
1 -8 -5 2997.14 82.37
1 -8 -5 3135.23 82.18
-1 8 5 2965.74 83.1
0 -8 -5 18.23 3.78
0 -8 -5 12.04 5.59
0 8 5 17.23 6.42
0 8 5 21.49 3.87
-1 -8 -5 -10.23 6.93
-1 -8 -5 -1 5.95
1 8 5 -2.55 7.61
-2 -8 -5 299.21 20.5
-2 -8 -5 290.22 19.19
2 8 5 283.3 21
4 -9 -5 64.7 13.6
4 -9 -5 37.39 8.4
-4 9 5 53.44 11.98
3 -9 -5 54.63 9.99
3 -9 -5 33.46 7.96
-3 9 5 35.26 8.83
2 -9 -5 787.13 29
2 -9 -5 794.98 26.32
-2 9 5 763.38 28.52
1 -9 -5 457.66 18.89
1 -9 -5 447.66 16.94
-1 9 5 452.04 19.82
-1 9 5 449.33 13.68
0 -9 -5 493.47 15.26
0 -9 -5 426.23 19.5
0 9 5 452.25 15.26
0 9 5 490.42 20.69
-1 -9 -5 263.56 16.84
1 9 5 293.75 17.97
1 9 5 242.72 17.26
4 -10 -5 59.82 14.68
-4 10 5 58.23 13.63
3 -10 -5 70.15 11.32
3 -10 -5 36.58 7.29
-3 10 5 38.1 10.04
2 -10 -5 198.62 15.18
2 -10 -5 193.11 12.57
-2 10 5 147.38 14.55
1 -10 -5 858.93 30.75
1 -10 -5 902.86 30.91
-1 10 5 921.29 25.13
-1 10 5 863.38 31.07
0 -10 -5 163.03 13.44
0 10 5 207.48 13.46
0 10 5 210.67 15.54
-1 -10 -5 9.44 8.97
1 10 5 1.88 11.17
1 10 5 7.05 10.29
3 -11 -5 135.52 13.14
3 -11 -5 134.99 17.62
-3 11 5 134.17 17.37
2 -11 -5 145.36 15.79
2 -11 -5 99.39 12.31
-2 11 5 92.11 12.42
1 -11 -5 -11.47 12.79
1 -11 -5 15.06 7.23
-1 11 5 1.71 8.88
0 -11 -5 114.18 13.18
0 11 5 96.47 13.96
0 11 5 126.74 15.1
3 -12 -5 57.25 10.44
3 -12 -5 68.24 14.16
-3 12 5 62.55 13.56
2 -12 -5 47.47 11.85
2 -12 -5 21.86 9.52
-2 12 5 4.81 10.43
1 -12 -5 110.51 15.73
1 -12 -5 64.19 10.75
-1 12 5 95.68 12.66
-1 14 -6 37.99 10.52
-1 14 -6 23.03 12.69
1 -14 6 52.68 12.09
1 -14 6 44.8 11.96
-2 14 -6 205.08 19.11
-2 14 -6 169.43 17.07
2 -14 6 202.7 19.23
2 -14 6 178.1 15.46
0 13 -6 79.08 10.98
0 13 -6 93.83 12.69
0 -13 6 107.23 15.42
0 -13 6 78.95 12.46
-1 13 -6 57.08 11.58
-1 13 -6 71.58 13.01
1 -13 6 78.2 10.73
1 -13 6 78.92 11.62
-2 13 -6 70.29 11.82
-2 13 -6 69.88 10.2
2 -13 6 55.66 11.2
2 -13 6 44.89 10.61
-3 13 -6 167.45 16.48
-3 13 -6 181.47 19.04
3 -13 6 178.15 18.61
1 12 -6 177.15 16.23
-1 -12 6 155.23 17.15
0 12 -6 98.39 13.33
0 12 -6 115.67 8.44
0 -12 6 92.42 13.26
0 -12 6 92.25 14.02
-1 12 -6 94.36 12.69
1 -12 6 133.72 14
1 -12 6 108.07 12.33
-2 12 -6 200.37 14.38
-2 12 -6 225.37 15.87
2 -12 6 194.39 16.46
2 -12 6 203.88 9.57
-3 12 -6 49.89 11.11
-3 12 -6 39.44 9.99
3 -12 6 54.43 11.74
1 11 -6 34.65 5.59
1 11 -6 28.44 8.7
-1 -11 6 38.79 6.45
-1 -11 6 36.29 9.63
0 11 -6 779.05 23.27
0 11 -6 785.95 27.93
0 -11 6 757.49 28.42
0 -11 6 779.09 27.15
-1 11 -6 189.3 8.88
-1 11 -6 185.97 12.97
1 -11 6 193.63 13.22
1 -11 6 194.16 13.57
-2 11 -6 0.21 6.93
-2 11 -6 1.9 6.45
2 -11 6 -2.56 7.12
2 -11 6 -1.45 4.47
-3 11 -6 257.22 16.31
-3 11 -6 262.82 17.36
3 -11 6 271.11 18.79
-4 11 -6 30.9 11.88
-4 11 -6 22.03 11.43
4 -11 6 7.17 13.02
2 10 -6 177.57 16.55
-2 -10 6 193.36 17.9
1 10 -6 168.05 12.97
1 10 -6 172.91 7.65
-1 -10 6 145.72 8.88
-1 -10 6 138.58 13.01
0 10 -6 20.2 3.84
0 10 -6 16.53 6.11
0 -10 6 11.89 6.23
-1 10 -6 483.65 15.96
-1 10 -6 464.33 19.43
1 -10 6 503.28 16.54
1 -10 6 488.17 28.05
-2 10 -6 482.86 19.44
-2 10 -6 480.38 19.68
2 -10 6 464.03 20.44
-3 10 -6 86.63 11.19
-3 10 -6 100.04 13.02
3 -10 6 100.44 13.57
-4 10 -6 220.75 20.16
-4 10 -6 252.34 18.85
4 -10 6 199.31 20.32
2 9 -6 175.51 14.57
2 9 -6 188.27 9.35
-2 -9 6 160.43 15.29
1 9 -6 1318.54 35.7
1 9 -6 1355.64 40.72
-1 -9 6 1314.07 41.91
-1 -9 6 1257.37 37.47
0 9 -6 1156.6 38.67
0 9 -6 1263.75 33
0 -9 6 1142.51 34.67
0 -9 6 1211.15 36.92
-1 9 -6 11.16 3.15
-1 9 -6 2.45 4.9
1 -9 6 5.44 3.3
1 -9 6 8.19 5.9
-2 9 -6 23.16 3.69
2 -9 6 25.6 7.09
-3 9 -6 79.09 10.99
-3 9 -6 107.14 12.01
3 -9 6 97.31 12.15
-4 9 -6 25.69 10.53
-4 9 -6 -0.59 9.02
4 -9 6 0.52 10.44
2 8 -6 262.96 15.82
2 8 -6 249.97 10.04
-2 -8 6 225.48 16.17
-2 -8 6 274.83 10.9
1 8 -6 1507.47 44.61
1 8 -6 1538.63 40.2
-1 -8 6 1458.09 45.46
-1 -8 6 1505.27 42.5
0 8 -6 427.05 16.67
0 -8 6 387.85 14.13
0 -8 6 439.85 14.91
-1 8 -6 1273.93 37.28
-1 8 -6 1284.05 35.39
1 -8 6 1310.38 35.83
1 -8 6 1236.77 37.23
-2 8 -6 992.85 32.39
-2 8 -6 960.82 28.89
2 -8 6 937.56 40.62
-3 8 -6 505.5 21.12
-3 8 -6 506.19 21.08
3 -8 6 505.54 21.94
-4 8 -6 227.85 18.32
-4 8 -6 230.63 18.63
4 -8 6 236.26 18.72
3 7 -6 225.46 16.85
3 7 -6 190.84 14.82
-3 -7 6 215.07 17.88
2 7 -6 36.45 3.89
2 7 -6 40.96 7.56
-2 -7 6 26.14 7.62
-2 -7 6 22.97 4.94
1 7 -6 231.74 12.02
-1 -7 6 230.64 12.47
-1 -7 6 221.38 9.36
0 7 -6 1821.73 49.69
0 -7 6 1781.1 49.54
0 -7 6 1758.27 49.2
-1 7 -6 0.24 2.36
-1 7 -6 -2.51 2.21
1 -7 6 5.42 2.72
1 -7 6 6.02 2.39
-2 7 -6 333.05 12.35
-2 7 -6 329.94 14.8
2 -7 6 353.23 15.7
-3 7 -6 760.14 27.49
-3 7 -6 801.13 27.7
3 -7 6 789.2 28.58
-4 7 -6 42.22 10.06
4 -7 6 63.26 11.63
3 6 -6 3.53 7.51
3 6 -6 -4.12 8.07
-3 -6 6 -0.58 8.5
2 6 -6 997.46 27.15
2 6 -6 951.12 31.77
-2 -6 6 961.68 32.9
-2 -6 6 1010.44 29.35
1 6 -6 123.7 7.84
-1 -6 6 130.07 7.17
-1 -6 6 133.09 6.25
0 6 -6 382.17 13.01
0 -6 6 389.1 13.08
0 -6 6 372.59 13.02
-1 6 -6 688.64 20.07
-1 6 -6 674.31 21.2
1 -6 6 699.78 19.98
1 -6 6 710.7 21.73
-2 6 -6 59.45 5.63
-2 6 -6 52.17 4.69
2 -6 6 51.63 4.78
-3 6 -6 467.71 20.28
-3 6 -6 488.37 20.13
3 -6 6 498.95 20.6
-4 6 -6 257.02 18.12
4 -6 6 296.4 18.05
4 -6 6 270.32 18.9
3 5 -6 281.85 16.94
3 5 -6 275.95 15.11
-3 -5 6 276.17 17.03
-3 -5 6 294.71 12.02
2 5 -6 52.91 4.15
2 5 -6 61.12 8.37
-2 -5 6 60.3 5.5
-2 -5 6 54.77 8.39
1 5 -6 315.36 11.4
-1 -5 6 324.31 12.04
-1 -5 6 304.76 11.03
0 5 -6 634.35 19.49
0 -5 6 645.34 19.74
0 -5 6 657.74 19.76
-1 5 -6 24.64 2.77
-1 5 -6 19.3 2.83
1 -5 6 22.15 3.07
1 -5 6 19.99 2.55
-2 5 -6 1051.87 31.88
-2 5 -6 1109.04 31.7
2 -5 6 1065.14 31.73
-3 5 -6 318.46 15.98
3 -5 6 304.6 15.9
3 -5 6 316.33 15.65
-4 5 -6 50.91 10.14
4 -5 6 61.26 10.59
3 4 -6 102.39 12.52
-3 -4 6 103.01 11.12
-3 -4 6 79.5 8.18
2 4 -6 890.22 24.68
2 4 -6 894.12 28.66
-2 -4 6 849.98 29.11
-2 -4 6 908.8 27.04
1 4 -6 16.12 2.28
-1 -4 6 26.28 3.3
-1 -4 6 16.59 2.37
0 4 -6 388.41 12.6
0 -4 6 379.96 12.74
0 -4 6 397.77 12.82
-1 4 -6 3297.56 81.35
-1 4 -6 3095.35 80.48
-1 4 -6 2975 80.3
-1 4 -6 3074.71 82.3
1 -4 6 3218.41 82.53
-2 4 -6 68.37 4.75
2 -4 6 57.02 4.7
2 -4 6 68.13 4.91
-3 4 -6 209.33 13.34
3 -4 6 185.31 12.77
3 -4 6 190.5 12.47
-4 4 -6 168.61 16.41
4 -4 6 175.19 15.28
4 -4 6 211.26 16.64
4 3 -6 113.75 17.25
-4 -3 6 93.72 13.47
3 3 -6 289.59 10.56
3 3 -6 281.79 15.58
-3 -3 6 260.26 11.86
-3 -3 6 287.43 15.54
2 3 -6 128.36 5.45
2 3 -6 125.41 6.75
-2 -3 6 134.1 6.69
-2 -3 6 128.34 7.22
1 3 -6 543.15 16.64
-1 -3 6 551.08 17.63
-1 -3 6 522.82 17.06
0 3 -6 229.95 8.33
0 -3 6 238.92 8.75
0 -3 6 256.07 8.69
-1 3 -6 19.88 2.39
-1 3 -6 24.24 1.99
-1 3 -6 17.06 2.44
1 -3 6 18.17 2.49
1 -3 6 18.96 2.67
-2 3 -6 842.49 26.06
2 -3 6 828.38 25.53
2 -3 6 869.46 25.33
-3 3 -6 20.46 6.62
3 -3 6 35.54 3.83
3 -3 6 38.29 7.13
-4 3 -6 -2.01 7.97
4 -3 6 13.94 8.25
4 -3 6 3.09 9.24
4 2 -6 86.23 10.85
4 2 -6 96.28 13.35
-4 -2 6 80.47 11.89
3 2 -6 159.64 12.22
3 2 -6 165.1 7.9
-3 -2 6 153.37 8.76
-3 -2 6 148.19 11.94
2 2 -6 697.36 22.21
-2 -2 6 723.35 22.94
-2 -2 6 767.49 23.63
1 2 -6 191.67 7.06
-1 -2 6 184.66 7.55
-1 -2 6 188.96 7.9
0 2 -6 2121.83 55.07
0 2 -6 2100.96 55.6
0 -2 6 2066.72 55.74
-1 2 -6 2836.16 74.71
-1 2 -6 2779.27 72.92
1 -2 6 2882.45 74.21
1 -2 6 2829.5 73.83
-2 2 -6 43.52 4.27
-2 2 -6 44.17 2.87
2 -2 6 40.41 3.69
2 -2 6 47.87 4.2
-3 2 -6 16.23 6.03
3 -2 6 13.49 6.24
3 -2 6 15.15 3.88
-4 2 -6 185.59 16.56
4 -2 6 196.21 17.23
4 1 -6 436.65 20.51
-4 -1 6 454.7 21.79
-4 -1 6 399.64 21.72
-3 -1 6 336.42 12.54
-3 -1 6 364.33 17.15
-3 -1 6 358.66 16.21
2 1 -6 30.49 3.85
-2 -1 6 37.09 3.22
-2 -1 6 36.81 3.98
-2 -1 6 40.07 3.95
1 1 -6 1873.21 47.93
-1 -1 6 1794.14 49.74
-1 -1 6 1813.99 49.66
-1 -1 6 1799.72 47.15
0 1 -6 134.23 5.51
0 1 -6 130.7 5.08
0 1 -6 122.39 4.5
0 -1 6 131.51 5.72
0 -1 6 136.91 4.65
-1 1 -6 538.55 16.08
-1 1 -6 563.98 17.37
1 -1 6 558.18 16.74
1 -1 6 583.2 17
-2 1 -6 1739.5 47.22
2 -1 6 1791.77 47.63
2 -1 6 1783.03 49.87
-3 1 -6 50.93 5.11
-3 1 -6 43.71 7.81
3 -1 6 45.11 7.95
3 -1 6 46.89 5.57
-4 1 -6 169.92 16.88
4 -1 6 123.94 17.3
4 0 -6 8.45 9.34
-4 0 6 4.44 8.42
-4 0 6 -7.63 8.46
-3 0 6 1035.57 30.6
-3 0 6 1001.16 33.5
-3 0 6 1010.72 30.05
-3 0 6 1021.96 33.14
2 0 -6 1002.31 28.87
-2 0 6 1018.85 28.74
-2 0 6 1055.77 30.44
-2 0 6 1009.22 30.55
1 0 -6 45.87 3.08
1 0 -6 45.94 2.44
-1 0 6 49.85 3.61
-1 0 6 46.33 3.39
-1 0 6 42.98 2.65
0 0 -6 1437.54 39.03
0 0 -6 1494.02 38.2
0 0 6 1416.29 38.01
0 0 6 1388.3 39
-1 0 -6 1223.51 33.74
-1 0 -6 1201.8 32.7
1 0 6 1193.92 32.65
1 0 6 1171.9 33.15
-2 0 -6 100.69 5.03
-2 0 -6 91.78 8.78
2 0 6 103 4.83
2 0 6 95.57 8.84
-3 0 -6 320.89 11.53
-3 0 -6 318.77 16.39
3 0 6 299.61 16.56
3 0 6 295.22 10.62
4 -1 -6 242.69 17.48
-4 1 6 218.89 15.74
-4 1 6 212.16 15.55
-3 1 6 76.96 5.79
-3 1 6 87.06 5.63
-3 1 6 66.16 9.45
2 -1 -6 9.36 2.19
2 -1 -6 13.53 2.22
-2 1 6 7.05 2.43
-2 1 6 8.72 2.07
1 -1 -6 819.72 21.15
1 -1 -6 794.51 23.58
-1 1 6 802.67 22.4
-1 1 6 788.27 23.92
-1 1 6 774.51 21.3
0 -1 -6 31.8 2.22
0 -1 -6 37.53 2.76
0 1 6 32.93 2.62
0 1 6 40.3 2.89
-1 -1 -6 1224.07 34.29
-1 -1 -6 1247.92 33.83
1 1 6 1218.13 33.1
1 1 6 1195.59 33.93
-2 -1 -6 610.86 18.89
-2 -1 -6 579.82 21.38
2 1 6 613.99 24.99
2 1 6 592.38 17.15
-3 -1 -6 44.43 8.78
-3 -1 -6 27.45 7.48
3 1 6 24.31 8.26
4 -2 -6 113.52 14.59
4 -2 -6 130.06 12.35
-4 2 6 127.88 12.95
-4 2 6 92.33 10.94
3 -2 -6 1089.24 31.97
-3 2 6 1011.3 37.54
-3 2 6 1067.93 35.31
-3 2 6 1082.69 30.65
2 -2 -6 1399.06 36.41
2 -2 -6 1400.63 38.95
-2 2 6 1318.53 39.61
-2 2 6 1347.8 38.13
1 -2 -6 1758.24 47.97
-1 2 6 1757.45 48.5
-1 2 6 1753.02 46.98
0 -2 -6 722.06 20.97
0 -2 -6 692.3 19.5
0 2 6 699.72 20.76
0 2 6 688.18 20.58
-1 -2 -6 269.97 9.88
-1 -2 -6 273.83 9.9
1 2 6 282.4 8.94
1 2 6 274.3 9.74
-2 -2 -6 213.71 14.36
-2 -2 -6 227.9 9.14
2 2 6 223.68 12.21
2 2 6 199.8 6.95
-3 -2 -6 507.9 21.03
-3 -2 -6 494.29 23.13
3 2 6 518.97 22.09
4 -3 -6 397.71 18.75
4 -3 -6 421.98 22.48
-4 3 6 370.79 18.11
-4 3 6 405.06 19.78
-3 3 6 20.41 6.07
-3 3 6 19.27 6.18
-3 3 6 19.15 2.92
2 -3 -6 602.67 18.83
-2 3 6 594.74 20.12
-2 3 6 594.32 18.81
1 -3 -6 3326.03 86.29
-1 3 6 3294.54 85.65
-1 3 6 3199.54 86.59
0 -3 -6 180.69 6.32
0 -3 -6 193.27 7.47
0 3 6 190.79 7.44
0 3 6 181.67 7.2
-1 -3 -6 1443.69 40.26
-1 -3 -6 1465.04 40.83
1 3 6 1430.92 41.86
1 3 6 1437.35 38.4
-2 -3 -6 487.76 19.95
-2 -3 -6 513.22 19.02
2 3 6 492.01 19.34
-3 -3 -6 22.73 9.24
-3 -3 -6 18.47 8.27
3 3 6 22.61 9.69
4 -4 -6 14.97 7.76
4 -4 -6 0.67 8.22
-4 4 6 10.29 8.11
-4 4 6 20.61 10.01
3 -4 -6 311 11.34
-3 4 6 289.5 15.35
-3 4 6 324.82 16.22
-3 4 6 289.36 10.06
2 -4 -6 49.54 3.84
-2 4 6 61.7 4.62
-2 4 6 62.9 4.45
1 -4 -6 807.82 23.91
-1 4 6 793.38 23.64
-1 4 6 773.96 24.19
0 -4 -6 922.83 25.85
0 -4 -6 948.87 27.79
0 4 6 961.71 27.77
0 4 6 944.03 27
-1 -4 -6 51.23 4.26
-1 -4 -6 46.72 3.85
-1 -4 -6 54.21 7.17
1 4 6 57.13 8.29
1 4 6 58.11 3.16
-2 -4 -6 299.76 15.45
-2 -4 -6 305.4 14.89
2 4 6 288.73 15.33
-3 -4 -6 117.67 15.84
-3 -4 -6 109.6 15.3
3 4 6 106.31 15.75
4 -5 -6 158.92 16.71
-4 5 6 112.21 7.76
-4 5 6 118.56 14.21
3 -5 -6 3.63 3.32
-3 5 6 2.95 5.16
-3 5 6 2.2 5.31
2 -5 -6 760.82 22.79
-2 5 6 695.96 28.13
-2 5 6 756.67 24.42
1 -5 -6 492.22 16.16
-1 5 6 500.31 16.35
-1 5 6 481.82 16.45
0 -5 -6 28.41 3.04
0 5 6 23.93 3.47
-1 -5 -6 506.05 16.29
-1 -5 -6 475.65 18.7
1 5 6 476.29 18.87
-2 -5 -6 343.88 17.4
-2 -5 -6 351.68 17.53
2 5 6 362.52 17.2
4 -6 -6 72.2 12.43
4 -6 -6 63.42 10.33
-4 6 6 90 12.89
3 -6 -6 856.76 31.42
3 -6 -6 861.92 27.59
-3 6 6 850.31 29.59
2 -6 -6 87.32 5.1
-2 6 6 88.4 9.35
-2 6 6 85.22 8.55
1 -6 -6 88.63 9.99
-1 6 6 79.19 9.18
-1 6 6 111.73 5.88
0 -6 -6 519.1 20.14
0 -6 -6 543.48 16.32
0 6 6 543.62 16.79
0 6 6 559.51 21.21
-1 -6 -6 24.24 6.5
-1 -6 -6 27.46 6.21
1 6 6 25.98 7.17
-2 -6 -6 364.33 18.6
-2 -6 -6 330.35 17.5
2 6 6 347.14 18.76
4 -7 -6 17.72 10.88
4 -7 -6 21.21 7.07
-4 7 6 10.22 8.71
3 -7 -6 -5.78 7.08
3 -7 -6 3.76 5.66
-3 7 6 8.16 6.61
2 -7 -6 556.27 19.96
-2 7 6 561.45 21.63
1 -7 -6 173.56 10.82
1 -7 -6 158.95 8.13
-1 7 6 156.74 7.7
-1 7 6 157.12 11.25
0 -7 -6 14.45 5.33
0 7 6 28.66 6.96
0 7 6 19.63 3.65
-1 -7 -6 473.83 19.2
-1 -7 -6 415.61 19.36
1 7 6 442.58 20.19
-2 -7 -6 35.08 10.62
-2 -7 -6 20.8 9
2 7 6 28.57 10.74
4 -8 -6 140.84 12.53
4 -8 -6 217.42 19.1
-4 8 6 173.2 16.84
3 -8 -6 424.84 17.62
3 -8 -6 409.53 21.73
-3 8 6 443.2 20.52
2 -8 -6 29.03 7.78
2 -8 -6 24.19 5.88
-2 8 6 22.53 7.31
1 -8 -6 122.41 7.6
1 -8 -6 127.45 9.92
-1 8 6 110.35 10.99
0 -8 -6 19.11 4.37
0 -8 -6 21.48 6.96
0 8 6 29.91 4.19
0 8 6 34.12 7.5
-1 -8 -6 -4.36 6.33
-1 -8 -6 -6.1 7.91
1 8 6 6.89 8.19
4 -9 -6 37.19 13.42
4 -9 -6 21.29 8.24
-4 9 6 38.4 11.88
3 -9 -6 31.59 6.91
3 -9 -6 38.81 10.06
-3 9 6 50.46 10.17
2 -9 -6 984.1 33.89
2 -9 -6 947.57 30.71
-2 9 6 913.33 32.97
1 -9 -6 66.15 9.49
1 -9 -6 81.79 11.79
-1 9 6 46.7 8.37
0 -9 -6 97.91 10.76
0 -9 -6 102.45 7.41
0 9 6 99.89 12.76
0 9 6 85.32 7.37
-1 -9 -6 53.2 9.61
1 9 6 58.81 11.36
1 9 6 69.89 11.67
3 -10 -6 134.07 12.3
3 -10 -6 134.54 16.76
-3 10 6 146.29 15.9
2 -10 -6 20.72 9.39
2 -10 -6 25 7.25
-2 10 6 36.12 9.5
1 -10 -6 161.82 14.16
1 -10 -6 152.21 13.1
-1 10 6 142.5 14.3
0 -10 -6 135.18 13.29
0 10 6 194.32 15.95
0 10 6 167.55 13.13
3 -11 -6 93.98 12.96
3 -11 -6 78.88 13.67
-3 11 6 91.03 12.87
2 -11 -6 154.71 17.05
2 -11 -6 125.64 13.3
-2 11 6 129.61 16.71
1 -11 -6 36.77 8.9
1 -11 -6 53.17 11.03
-1 11 6 34.43 10.6
0 -11 -6 158.55 15.91
0 11 6 166.9 17.79
0 11 6 149.97 16.41
2 -12 -6 50.4 13.26
2 -12 -6 42.38 10.62
-2 12 6 63.09 13.45
1 -12 -6 214.83 17.1
1 -12 -6 238.79 20.3
-1 12 6 263.54 21.39
-1 14 -7 159.38 19.13
-1 14 -7 167.4 15.97
1 -14 7 194.48 17.38
1 -14 7 201.1 18.99
-2 14 -7 236.74 21.07
-2 14 -7 218.16 17.92
2 -14 7 229.2 20.08
0 13 -7 224.62 17.43
0 -13 7 208.36 18.5
0 -13 7 214.42 18.37
-1 13 -7 101.84 15.1
-1 13 -7 142.37 14.36
1 -13 7 172.76 16.29
1 -13 7 155.47 14.12
-2 13 -7 9.86 8.23
-2 13 -7 4.61 9.78
2 -13 7 14.94 10.62
2 -13 7 0.37 9.46
-3 13 -7 60.29 11.04
-3 13 -7 127.26 18.69
3 -13 7 77.32 14.73
1 12 -7 379.22 20.43
-1 -12 7 322.95 21.51
0 12 -7 34.92 5.31
0 12 -7 24.69 8.89
0 -12 7 46.42 10.11
0 -12 7 42.04 10.02
-1 12 -7 93.69 11.88
-1 12 -7 102.42 8.14
1 -12 7 92.21 13.06
1 -12 7 100.92 11.97
-2 12 -7 230.59 15.9
-2 12 -7 215.8 14.34
2 -12 7 219.32 15.86
2 -12 7 204.12 9.69
-3 12 -7 10.03 8.34
-3 12 -7 14.6 10.75
3 -12 7 7.4 10.01
1 11 -7 42.21 9.41
-1 -11 7 41.61 10.6
-1 -11 7 40.8 9.94
0 11 -7 235.04 9.41
0 11 -7 212.42 14.55
0 -11 7 222.84 17.81
0 -11 7 246.65 15.31
-1 11 -7 108.75 7.19
-1 11 -7 88.77 11.45
1 -11 7 97.51 11.97
1 -11 7 109.13 11.36
-2 11 -7 76.93 9.92
-2 11 -7 61.84 8.68
2 -11 7 64.86 6.52
2 -11 7 57.08 9.96
-3 11 -7 462.78 21.31
-3 11 -7 481.61 22.57
3 -11 7 462.37 23.57
2 10 -7 57.73 11.44
-2 -10 7 52.55 12.32
1 10 -7 61.79 9.27
-1 -10 7 55.59 9.95
0 10 -7 151.69 11.98
0 -10 7 158.67 13.28
0 -10 7 189.59 12.58
-1 10 -7 365.76 16.65
-1 10 -7 361.6 12.42
1 -10 7 362.11 13.1
1 -10 7 311.6 16.76
-2 10 -7 141.04 11.44
2 -10 7 130.61 12.54
-3 10 -7 30.22 8.15
-3 10 -7 41.87 8.84
3 -10 7 47.85 9.88
-4 10 -7 184.84 18.68
-4 10 -7 209.55 20.41
4 -10 7 230.84 20.42
2 9 -7 107.27 13.6
-2 -9 7 155.16 12.02
-2 -9 7 109.11 14.16
1 9 -7 274.26 14.62
-1 -9 7 251.86 15.06
-1 -9 7 231.25 10.69
0 9 -7 145.58 10.87
0 -9 7 164.83 10.95
-1 9 -7 466.16 14.58
1 -9 7 465.46 15.31
1 -9 7 423.21 20.59
-2 9 -7 22.23 3.64
-2 9 -7 28.2 6.7
2 -9 7 18.42 6.91
-3 9 -7 299.25 17.24
-3 9 -7 296.61 16.26
3 -9 7 312.15 18.03
-4 9 -7 51.24 11.96
-4 9 -7 36.14 11.22
4 -9 7 57.95 11.98
2 8 -7 249.09 9.83
2 8 -7 257.92 15.5
-2 -8 7 243.85 15.96
-2 -8 7 264.82 11.32
1 8 -7 80.01 9.29
-1 -8 7 73.98 6.3
-1 -8 7 75.01 9.84
0 8 -7 399.5 16.14
0 -8 7 405.35 14.66
0 -8 7 411.72 14.62
-1 8 -7 809.76 26.68
-1 8 -7 805.13 23.43
1 -8 7 813.41 27.23
1 -8 7 826.2 24.15
-2 8 -7 301.36 17.01
-2 8 -7 320.52 11.93
-3 8 -7 105.78 10.84
-3 8 -7 105.09 11.97
3 -8 7 100.28 12.74
-4 8 -7 10.29 10.38
4 -8 7 32.26 11.37
3 7 -7 168.19 16.42
-3 -7 7 116.81 16.04
2 7 -7 165.25 12.43
-2 -7 7 171.11 12.99
-2 -7 7 161.63 8.82
-1 -7 7 246.26 13.39
-1 -7 7 250.69 10.11
0 7 -7 506.67 16.77
0 -7 7 493.91 16.65
0 -7 7 490.32 16.72
-1 7 -7 19.94 2.3
-1 7 -7 20.55 2.82
1 -7 7 22.24 2.97
1 -7 7 19.03 2.54
-2 7 -7 565.31 21.16
-2 7 -7 590.18 18.95
-3 7 -7 388.14 18.32
-3 7 -7 383.02 18.09
3 -7 7 368.07 18.29
-4 7 -7 36.33 10.1
4 -7 7 9.52 10.16
4 -7 7 11.77 9.8
3 6 -7 13.94 8.38
3 6 -7 0.95 7.77
-3 -6 7 -8.5 8.5
-3 -6 7 1.77 6.55
2 6 -7 322.92 15.8
-2 -6 7 350.63 13.02
-2 -6 7 312.53 16.24
1 6 -7 48.05 7.24
-1 -6 7 62.97 8
0 6 -7 41.52 3.79
0 -6 7 42.19 3.87
0 -6 7 42.73 3.98
-1 6 -7 1329.03 38.8
-1 6 -7 1394.42 37.26
1 -6 7 1393.49 39.27
1 -6 7 1363.84 37.33
-2 6 -7 346.14 12.47
-2 6 -7 316.81 14.8
2 -6 7 349.12 15.56
-3 6 -7 63.78 8.77
3 -6 7 58.42 8.5
3 -6 7 53.42 8.84
-4 6 -7 113.91 15.96
4 -6 7 108.09 15.72
4 -6 7 120.56 15.69
3 5 -7 295.25 17.84
3 5 -7 311.26 12.01
-3 -5 7 281.36 17.58
2 5 -7 140.85 10.37
-2 -5 7 104.87 10.32
-2 -5 7 150.16 7.69
1 5 -7 658.8 20.72
-1 -5 7 668.85 21.76
-1 -5 7 676.16 21.03
0 5 -7 1880.34 50.92
0 -5 7 1852.21 51.09
0 -5 7 1866.54 51.09
-1 5 -7 29.48 3.45
-1 5 -7 39.79 3.09
-1 5 -7 27.12 2.74
1 -5 7 38.55 3.73
-2 5 -7 608.43 22.22
2 -5 7 655.15 20.61
2 -5 7 658.09 20.94
-3 5 -7 203.84 13.73
3 -5 7 201.51 13.08
3 -5 7 192.74 13.01
-4 5 -7 34 9.1
4 -5 7 19.15 9.52
4 -5 7 28.25 9.91
3 4 -7 240.72 15.46
3 4 -7 224.93 9.71
-3 -4 7 235.91 19.07
-3 -4 7 225.76 15.23
2 4 -7 916.65 25
2 4 -7 908.84 29.71
-2 -4 7 871.02 30.16
-2 -4 7 937.43 28.12
1 4 -7 758.39 22.38
-1 -4 7 739.65 23.4
-1 -4 7 730.8 22.91
0 4 -7 555.68 16.97
0 -4 7 541.57 17.26
0 -4 7 537.6 17.08
-1 4 -7 2339.02 64.92
-1 4 -7 2474.92 63.45
1 -4 7 2441.3 63.66
1 -4 7 2453.19 65.01
-2 4 -7 7.7 5.12
2 -4 7 11.88 3
2 -4 7 6.55 2.76
-3 4 -7 390.82 18.39
3 -4 7 409.18 18.2
3 -4 7 415.61 17.94
-4 4 -7 628.34 27.96
4 -4 7 618.52 27.4
4 -4 7 561.01 24.36
4 3 -7 194.5 16.55
4 3 -7 177.28 18.25
-4 -3 7 124.23 17.74
-4 -3 7 155.06 16.94
3 3 -7 331.99 16.37
3 3 -7 322 11.54
-3 -3 7 286.53 16.46
-3 -3 7 326.65 17.3
2 3 -7 14.82 2.49
2 3 -7 11.62 2.96
-2 -3 7 17.81 5.48
-2 -3 7 17.07 3.31
1 3 -7 388.51 12.53
-1 -3 7 373.4 13.53
-1 -3 7 368.98 13.1
0 3 -7 3438.64 89.42
0 -3 7 3433.14 90.2
0 -3 7 3454.46 89.94
-1 3 -7 113.76 5.57
-1 3 -7 119.33 4.67
1 -3 7 112.31 5.41
1 -3 7 117.55 5.16
-2 3 -7 864.21 29.25
2 -3 7 922.02 27.35
2 -3 7 925.84 26.88
-3 3 -7 328.76 17.1
3 -3 7 350.28 17.27
-4 3 -7 123.05 16.32
4 -3 7 145.43 17.35
4 -3 7 127.76 14.17
4 2 -7 67.6 10.24
4 2 -7 49.2 11.4
-4 -2 7 66.31 11.36
3 2 -7 121.77 11.4
3 2 -7 125.69 7.21
-3 -2 7 127.46 11.96
-3 -2 7 115.87 11.7
2 2 -7 829.35 25.38
-2 -2 7 869.33 27.06
-2 -2 7 873.84 26.78
-2 -2 7 850.65 23.99
1 2 -7 89.5 4.39
-1 -2 7 88.93 4.74
-1 -2 7 82.77 4.89
0 2 -7 947.08 27.44
0 2 -7 929.01 25.5
0 2 -7 991.94 26.99
0 -2 7 975.59 27.93
0 -2 7 962.45 25.46
-1 2 -7 1463.68 39.95
-1 2 -7 1498.01 41.52
1 -2 7 1519.88 40.57
1 -2 7 1500.95 41.12
-2 2 -7 11.51 1.98
-2 2 -7 10.15 4.8
2 -2 7 11.64 3.35
2 -2 7 14.46 2.59
-3 2 -7 24.8 7.08
3 -2 7 34.47 7.87
3 -2 7 31.57 4.06
-4 2 -7 877.32 34.11
4 -2 7 864.41 34.01
4 1 -7 126.34 15.29
4 1 -7 187.67 16.37
-4 -1 7 144.96 15.95
-4 -1 7 148.96 15.95
3 1 -7 350.08 16.6
-3 -1 7 360.58 13.07
-3 -1 7 382.31 17.77
-3 -1 7 374.62 17.01
2 1 -7 89.74 5.08
-2 -1 7 99.05 5.86
-2 -1 7 88.83 4.54
-2 -1 7 86.05 5.73
1 1 -7 2062.34 52.23
1 1 -7 1971.48 54.24
-1 -1 7 1955.11 54.38
-1 -1 7 1944.19 51.34
0 1 -7 177.37 6.53
0 1 -7 170.18 6.96
0 -1 7 173.27 6.04
0 -1 7 174.5 7.13
-1 1 -7 396.97 12.56
-1 1 -7 420.12 13.63
1 -1 7 410.06 13.1
1 -1 7 401.06 13.09
-2 1 -7 1899.55 54.07
-2 1 -7 1874.98 50.63
2 -1 7 1925.31 50.95
2 -1 7 1858.36 53.07
-3 1 -7 32.04 7.23
-3 1 -7 38.83 5.54
3 -1 7 30.32 4.22
3 -1 7 37.62 7.91
4 0 -7 98.67 14.24
-4 0 7 119.34 14.99
-4 0 7 111.99 14.23
3 0 -7 490.78 16.98
-3 0 7 488.8 20.68
-3 0 7 482.9 16.51
-3 0 7 512.52 23.74
2 0 -7 246.33 8.68
2 0 -7 242.78 9.69
-2 0 7 232.59 10.05
-2 0 7 230.37 8.53
1 0 -7 12.9 1.9
1 0 -7 18.38 2.19
-1 0 7 17.14 2.23
-1 0 7 19.97 2.91
0 0 -7 2021.37 54.36
0 0 -7 2076.4 53.41
0 0 7 1998.37 53.32
0 0 7 2010.76 54.56
-1 0 -7 551.45 16.22
-1 0 -7 522.16 16.83
1 0 7 514.88 16.26
1 0 7 529.07 16.14
-2 0 -7 48.11 6.94
-2 0 -7 46.49 4.23
2 0 7 48.93 7.31
2 0 7 58.05 4.3
-3 0 -7 301.49 16.91
-3 0 -7 309.16 11.57
3 0 7 297.03 16.69
3 0 7 294.09 10.76
4 -1 -7 49 9.1
-4 1 7 58.88 11.12
-4 1 7 53.23 9.62
3 -1 -7 880.96 26.65
3 -1 -7 900.29 29.93
-3 1 7 865.85 34.54
-3 1 7 904.44 27.23
2 -1 -7 144.1 5.63
2 -1 -7 135.85 6.62
-2 1 7 141.8 7.11
-2 1 7 149.11 6.3
1 -1 -7 850.61 25.05
1 -1 -7 869.47 22.41
-1 1 7 776.1 22.37
-1 1 7 839.12 25.45
-1 1 7 847.26 23.65
0 -1 -7 652.01 18.83
0 -1 -7 665.44 20.03
0 1 7 659.52 19.6
0 1 7 670.26 20.16
-1 -1 -7 431.24 13.87
-1 -1 -7 427.45 13.5
1 1 7 401.1 13.4
1 1 7 397.44 12.88
-2 -1 -7 834.56 33.13
-2 -1 -7 907.65 26.31
2 1 7 872.36 28.35
2 1 7 880.01 24.65
-3 -1 -7 16.99 8.1
-3 -1 -7 30.7 7.51
3 1 7 29.97 8.79
4 -2 -7 135.95 13.12
-4 2 7 101.44 12.9
-4 2 7 140.02 14.07
-4 2 7 129.89 14.59
3 -2 -7 647.32 23.17
3 -2 -7 618.06 19.7
-3 2 7 661.4 23.5
-3 2 7 630.54 24.54
2 -2 -7 580.26 18.76
2 -2 -7 579.01 16.15
-2 2 7 563.85 19.52
-2 2 7 580.71 18.13
1 -2 -7 27.46 2.8
-1 2 7 27.42 2.86
-1 2 7 22.46 2.99
0 -2 -7 30.93 2.99
0 -2 -7 34.32 2.45
0 2 7 34.68 3.28
0 2 7 40.07 3.39
-1 -2 -7 675.57 20.82
-1 -2 -7 673.14 20.85
1 2 7 697.27 19.83
1 2 7 669.67 20.66
-2 -2 -7 148.58 10.49
-2 -2 -7 158.43 11.1
2 2 7 148.79 6.01
2 2 7 161.15 11.45
-3 -2 -7 362.45 20.18
-3 -2 -7 343.2 17.7
3 2 7 376.45 19.42
4 -3 -7 107.53 13.16
-4 3 7 138.86 14.54
-4 3 7 126.75 13.14
-4 3 7 128.61 13.56
3 -3 -7 40.45 4.87
3 -3 -7 30.88 6.2
-3 3 7 32.55 6.3
-3 3 7 31.28 7.16
2 -3 -7 951.61 28.3
-2 3 7 935.5 27.84
-2 3 7 942.35 30.64
1 -3 -7 1051.16 30.19
-1 3 7 1043.85 29.54
-1 3 7 985.54 30.29
0 -3 -7 15.6 1.84
0 -3 -7 18.54 2.09
0 3 7 21.67 3.16
0 3 7 17.41 2.39
-1 -3 -7 387.94 14.14
-1 -3 -7 386.87 13.35
1 3 7 407.53 15.49
1 3 7 391.4 12.27
-2 -3 -7 315.94 15.87
-2 -3 -7 315.45 14.84
2 3 7 294.2 15.09
-3 -3 -7 39.12 9.76
-3 -3 -7 40.79 9.38
3 3 7 58.19 10.65
4 -4 -7 4.41 9.51
4 -4 -7 7.86 6.94
-4 4 7 3.32 8.4
-4 4 7 10 5.12
3 -4 -7 618.4 22.26
3 -4 -7 665.01 18.44
-3 4 7 620 24.58
-3 4 7 598.59 23.83
2 -4 -7 423.08 14.59
-2 4 7 424.28 14.66
-2 4 7 410.36 17.45
1 -4 -7 17.06 2.17
-1 4 7 19.45 2.87
-1 4 7 11.31 2.48
0 -4 -7 586.04 18.92
0 -4 -7 585.93 17.08
0 4 7 589.83 18.72
0 4 7 592.3 18.29
-1 -4 -7 133.14 9.76
-1 -4 -7 149.64 7.02
1 4 7 135.31 10.41
1 4 7 152.42 5.8
-2 -4 -7 104.68 11.71
-2 -4 -7 121.03 10.6
2 4 7 112.13 11.76
-3 -4 -7 186.46 17.1
-3 -4 -7 199.74 18.82
4 -5 -7 369.03 18.03
4 -5 -7 397.71 23.06
-4 5 7 411.12 20.68
3 -5 -7 28.9 5.9
-3 5 7 24.55 7.24
-3 5 7 27.62 6.77
-2 5 7 399.41 16.25
-2 5 7 379.89 16.95
-1 5 7 663.11 21.41
-1 5 7 661.74 22.53
0 -5 -7 8.4 2.28
0 -5 -7 13.92 4.07
0 5 7 13.87 5.32
0 5 7 10.11 2.57
-1 -5 -7 951.46 31.29
1 5 7 931.61 31.06
1 5 7 987.29 26.21
-2 -5 -7 339.93 17.93
-2 -5 -7 346.93 17.21
2 5 7 340.12 17.82
4 -6 -7 127.64 12.49
4 -6 -7 108.04 17.16
-4 6 7 131.05 14.95
3 -6 -7 527.23 26.88
-3 6 7 474.72 21.55
-3 6 7 509.75 21
2 -6 -7 27.36 5.56
-2 6 7 32.55 8.87
1 -6 -7 478.89 17.83
-1 6 7 484.94 16.75
-1 6 7 473.98 19.24
0 -6 -7 1330.82 36.64
0 -6 -7 1315.05 40.12
0 6 7 1341.96 40.41
0 6 7 1368.55 37.72
-1 -6 -7 0.93 5.83
-1 -6 -7 7.62 5.52
1 6 7 -0.75 6.15
-2 -6 -7 92.95 14.07
-2 -6 -7 74.76 10.77
2 6 7 79.05 11.5
4 -7 -7 428.65 25.94
4 -7 -7 436.3 19.59
-4 7 7 480.64 23.07
3 -7 -7 9.78 7.86
3 -7 -7 5.92 5.52
-3 7 7 4.93 7.09
2 -7 -7 497.71 18.81
-2 7 7 480.85 20.23
-2 7 7 479.35 19.98
1 -7 -7 493.45 19.03
-1 7 7 469.3 20.55
-1 7 7 531.21 17.54
0 -7 -7 304.22 15.33
0 -7 -7 323.69 11.53
0 7 7 318.87 15.99
-1 -7 -7 1267.03 40.42
-1 -7 -7 1277.75 38.92
1 7 7 1226.12 40.7
-2 -7 -7 32.81 9.85
-2 -7 -7 46.62 11.21
2 7 7 40.68 11.49
4 -8 -7 91.13 14.43
4 -8 -7 57.43 9.27
-4 8 7 70.07 12.56
3 -8 -7 199.05 12.24
3 -8 -7 189.86 16.43
-3 8 7 179.71 14.9
2 -8 -7 38.09 6.86
2 -8 -7 37.05 8.98
-2 8 7 45.17 8.32
1 -8 -7 28.83 8.3
1 -8 -7 26.31 5.69
-1 8 7 30.55 7.65
0 -8 -7 1665.47 52.61
0 -8 -7 1816.66 48.65
0 8 7 1793.06 52.61
0 8 7 1768.98 48.01
-1 -8 -7 7.4 8.63
-1 -8 -7 3.61 7.48
1 8 7 -3.02 8.8
4 -9 -7 31.8 8.95
4 -9 -7 68.23 15.34
-4 9 7 53.49 12.39
3 -9 -7 106.75 11.84
3 -9 -7 114.49 15.42
-3 9 7 126.95 14.77
2 -9 -7 838.16 28.45
2 -9 -7 838.34 31.43
-2 9 7 810.62 30.75
1 -9 -7 40.63 8.84
1 -9 -7 32.64 7
-1 9 7 45.61 9.32
0 -9 -7 23.25 7.68
0 9 7 18.37 5.11
0 9 7 23.47 8.46
-1 -9 -7 248.39 16.91
1 9 7 230.95 19.15
1 9 7 243.25 20.09
3 -10 -7 30.4 8.52
3 -10 -7 60.53 12.43
-3 10 7 46.09 10.74
2 -10 -7 11.35 7.53
-2 10 7 2.14 9.4
1 -10 -7 321.63 18.09
1 -10 -7 364.84 22.38
-1 10 7 350.36 19.22
0 -10 -7 177.81 15.03
0 10 7 193.04 14.24
0 10 7 194.15 17.03
3 -11 -7 51.14 13.77
3 -11 -7 36.69 8.9
-3 11 7 53.7 12.83
2 -11 -7 273.97 17.23
2 -11 -7 281.12 21.04
-2 11 7 262.19 20.23
1 -11 -7 19.97 9.31
1 -11 -7 18 11.15
-1 11 7 11.39 10.45
-1 14 -8 6.1 11.51
1 -14 8 -13.36 10.79
1 -14 8 18.48 11.82
-2 14 -8 88.01 13.49
-2 14 -8 64.91 10.64
2 -14 8 81.77 14.34
0 13 -8 40.25 10.38
0 -13 8 48.75 11.44
0 -13 8 48.46 12.1
-1 13 -8 183.62 16.89
-1 13 -8 175.98 11.81
1 -13 8 208.38 17.97
1 -13 8 175.89 15.9
-2 13 -8 7.15 7.53
-2 13 -8 12.18 10.23
2 -13 8 1.51 10.03
-3 13 -8 109.95 15.83
-3 13 -8 157.58 20.61
3 -13 8 139.97 19.2
1 12 -8 141.99 16.61
-1 -12 8 189.61 15.52
-1 -12 8 125.35 17.53
0 12 -8 44.68 9.13
0 -12 8 31.51 10.37
0 -12 8 31.38 10.16
-1 12 -8 61.67 10.22
-1 12 -8 59.92 7.59
1 -12 8 75.56 11.16
1 -12 8 85.24 13
-2 12 -8 389.13 20.42
2 -12 8 337.01 20.47
2 -12 8 352.18 12.95
-3 12 -8 14.16 10.86
-3 12 -8 -2.94 8.71
3 -12 8 1.79 10.68
1 11 -8 22.83 8.49
-1 -11 8 29.08 11.36
-1 -11 8 18.61 9.44
0 11 -8 474.43 20.83
0 -11 8 487.93 21.99
0 -11 8 493.51 22.06
-1 11 -8 302.95 11.38
-1 11 -8 308.56 16.72
1 -11 8 312.36 17.04
1 -11 8 318.38 15.97
-2 11 -8 78.66 10.39
-2 11 -8 75.03 10.56
2 -11 8 64.47 10.28
2 -11 8 82.73 6.89
-3 11 -8 216.16 16.96
-3 11 -8 199.62 15.54
3 -11 8 191.9 18.16
2 10 -8 166.77 16.4
-2 -10 8 147.7 16.97
1 10 -8 588.74 23.65
-1 -10 8 577.19 24.82
-1 -10 8 594.26 23.81
0 10 -8 272.76 14.86
0 -10 8 275.32 18.35
0 -10 8 298.16 15.37
-1 10 -8 840.74 28.66
-1 10 -8 826.65 24.18
1 -10 8 781.56 28.59
1 -10 8 835.41 25.44
-2 10 -8 71.13 8.83
2 -10 8 68.63 9.68
-3 10 -8 -1.52 7.13
-3 10 -8 -5.08 7.82
3 -10 8 -1.39 8.73
2 9 -8 23.83 8.97
-2 -9 8 28.57 9.67
-2 -9 8 12.9 10.86
1 9 -8 20.33 6.82
-1 -9 8 25.36 6.61
-1 -9 8 10.16 7.84
0 9 -8 1307.08 39.98
0 -9 8 1334.36 40.3
0 -9 8 1278.82 40.02
-1 9 -8 2846.36 78.6
-1 9 -8 2869.61 74.8
1 -9 8 2950.66 76.4
1 -9 8 2716.28 78.56
-2 9 -8 316.92 15.86
-2 9 -8 342.02 12.64
2 -9 8 318.78 16.69
-3 9 -8 282.54 17.23
-3 9 -8 308.29 16.35
3 -9 8 269.6 17.99
-4 9 -8 33.9 12.39
4 -9 8 31.43 12.53
2 8 -8 267.35 16.77
-2 -8 8 287.29 17.45
1 8 -8 339.87 15.85
-1 -8 8 336.2 14.88
-1 -8 8 350.09 16.96
0 -8 8 21.52 10.44
0 -8 8 18.64 3.7
-1 8 -8 535.19 20.29
-1 8 -8 562.38 16.95
1 -8 8 571.74 17.83
1 -8 8 570.18 21.26
-2 8 -8 165.24 7.94
-2 8 -8 170.95 11.73
2 -8 8 158.46 12.16
-3 8 -8 1.2 6.83
-3 8 -8 20.25 7.8
3 -8 8 8.32 8.05
-4 8 -8 409.68 23.99
4 -8 8 441.54 23.97
4 -8 8 403.38 24.2
3 7 -8 199.11 17.39
-3 -7 8 162.03 16.98
2 7 -8 64.89 9.14
-2 -7 8 56.02 7.29
-2 -7 8 61.46 9.1
1 7 -8 384.32 16.38
-1 -7 8 396.97 17.97
-1 -7 8 405.15 14.59
0 7 -8 1168.99 35.54
0 -7 8 1195.08 34.84
0 -7 8 1175.45 34.64
-1 7 -8 231.51 11.72
-1 7 -8 236.04 8.36
1 -7 8 226.58 12.46
1 -7 8 230.83 8.83
-2 7 -8 487.65 16.11
-2 7 -8 456.95 18.95
2 -7 8 456.3 19.07
-3 7 -8 187.68 13.76
3 -7 8 176.16 13.79
3 -7 8 200.61 14.57
-4 7 -8 8.41 10.73
4 -7 8 15.95 11.01
4 -7 8 -4.42 9.87
3 6 -8 12.87 9.19
-3 -6 8 4.94 8.63
-3 -6 8 10.63 9.26
2 6 -8 181.03 12.23
-2 -6 8 176.76 9.23
-2 -6 8 145.17 12.01
1 6 -8 473.15 17.66
-1 -6 8 456.31 18.39
-1 -6 8 448.55 15.77
0 6 -8 162.08 7.35
0 -6 8 155.39 7.25
0 -6 8 161.95 7.55
-1 6 -8 1263.98 37.37
-1 6 -8 1319.9 35.51
1 -6 8 1310.23 35.99
1 -6 8 1316.03 37.71
2 -6 8 198.46 8.88
2 -6 8 201.31 12.1
-3 6 -8 115.8 11.82
3 -6 8 111.37 11.91
3 -6 8 112.6 11.35
-4 6 -8 411.47 23.33
4 -6 8 377 21.17
4 -6 8 435.54 23.09
3 5 -8 451.64 14.56
3 5 -8 448.53 20.68
-3 -5 8 413.43 21.56
-3 -5 8 437.84 20.72
2 5 -8 87.62 8.85
-2 -5 8 88.06 9.52
-2 -5 8 97.77 7.14
1 5 -8 742.07 22.82
-1 -5 8 756.22 24.14
-1 -5 8 731.22 23.4
0 5 -8 651.97 20.57
0 -5 8 677.96 21.08
0 -5 8 674.65 21.02
-1 5 -8 130.63 5.43
-1 5 -8 135.41 6.4
1 -5 8 128.66 5.53
1 -5 8 144.18 6.69
-2 5 -8 709.99 25.07
2 -5 8 764.35 25.71
2 -5 8 753.83 23.11
-3 5 -8 493.82 21.51
3 -5 8 505.15 20.68
3 -5 8 488.83 20.63
-4 5 -8 10.73 9.67
4 -5 8 13.91 10.64
4 -5 8 12.65 9.77
3 4 -8 20.82 7.55
3 4 -8 5.17 4.47
-3 -4 8 0.91 7.14
-3 -4 8 10.52 8.34
2 4 -8 297.38 13.98
-2 -4 8 302.59 15.3
-2 -4 8 338.78 13.05
1 4 -8 137.9 6.46
-1 -4 8 144.21 6.64
-1 -4 8 142.87 7.3
0 4 -8 2047.23 55.14
0 -4 8 2073.42 55.69
0 -4 8 2009.12 55.8
-1 4 -8 409.64 14.03
-1 4 -8 410.33 12.81
1 -4 8 407.65 12.85
1 -4 8 413.95 14.14
-2 4 -8 23.24 5.59
2 -4 8 26.02 3.18
2 -4 8 28.17 3.21
-3 4 -8 269.02 15.37
3 -4 8 245.95 15.05
3 -4 8 275.01 21.48
-4 4 -8 63.28 12.84
4 -4 8 61.24 10.61
4 -4 8 83.19 12.93
4 3 -8 91.44 11.94
4 3 -8 78.58 13.4
-4 -3 8 88.29 13.69
-4 -3 8 114.73 16.59
3 3 -8 376.46 12.73
3 3 -8 358.81 17.35
-3 -3 8 358.9 18.73
2 3 -8 3.68 2.94
-2 -3 8 0.16 4.73
-2 -3 8 5.05 3.42
1 3 -8 905.42 25.52
-1 -3 8 857.79 26.59
-1 -3 8 859.33 26.8
0 3 -8 2541.15 68.13
0 3 -8 2563.11 67.53
0 -3 8 2553.04 68.56
-1 3 -8 654.54 20.55
-1 3 -8 643.58 19.11
1 -3 8 664.04 20.52
1 -3 8 673.89 19.41
-2 3 -8 641 18.34
-2 3 -8 662.5 23.01
2 -3 8 638.22 20.27
-3 3 -8 136.35 12.93
3 -3 8 155.52 11.82
3 -3 8 136.23 12.73
-4 3 -8 371.4 23.61
4 -3 8 403.31 29.29
4 -3 8 416.9 22.98
4 2 -8 94.39 13.63
4 2 -8 64.68 11.59
-4 -2 8 78.21 12.24
-4 -2 8 42.84 11.68
3 2 -8 80.38 10.46
3 2 -8 96.62 7.1
-3 -2 8 91.06 12.95
-3 -2 8 113.02 11.49
2 2 -8 1007.52 29.48
-2 -2 8 1012.38 32.6
-2 -2 8 1014.15 27.87
-2 -2 8 1019.78 31.36
1 2 -8 2.44 1.69
-1 -2 8 2.68 2.21
-1 -2 8 1.76 2.27
0 2 -8 1319.28 36.57
0 2 -8 1278.77 35.58
0 -2 8 1329.14 36.98
0 -2 8 1257.83 34.16
-1 2 -8 1885.19 51.36
-1 2 -8 1844.48 49.8
1 -2 8 1853.19 50.86
1 -2 8 1891.92 50.17
-2 2 -8 201.5 7.61
-2 2 -8 203.15 11.81
2 -2 8 207.06 11.3
2 -2 8 215.05 8.59
-3 2 -8 224.84 8.58
-3 2 -8 214.89 14.3
3 -2 8 197.76 9.45
3 -2 8 232.36 14.6
4 1 -8 502.23 23.7
4 1 -8 507.66 23.02
-4 -1 8 458.24 24.2
-4 -1 8 515 24.75
3 1 -8 379.07 17.37
-3 -1 8 411.67 14.11
-3 -1 8 433.88 19.42
-3 -1 8 408.95 18.88
2 1 -8 53.48 4.04
-2 -1 8 54.23 3.73
-2 -1 8 42.28 4.71
1 1 -8 833.67 25.55
1 1 -8 846.03 23.56
-1 -1 8 847.95 26
-1 -1 8 829.16 22.86
0 1 -8 367.78 12.72
0 1 -8 384.2 12.19
0 -1 8 373.17 12.85
0 -1 8 380.88 11.67
-1 1 -8 378.8 13.17
-1 1 -8 383.74 12.39
1 -1 8 385.4 12.84
1 -1 8 383.86 12.58
-2 1 -8 935.64 35.93
-2 1 -8 905.04 26.36
2 -1 8 912.73 29.93
2 -1 8 906.67 26.61
-3 1 -8 4.45 4.17
-3 1 -8 9.87 7
3 -1 8 1.96 7.45
3 -1 8 3.15 4.65
4 0 -8 67.55 11.1
-4 0 8 68.4 12.43
-4 0 8 82.05 11.02
3 0 -8 507.9 17.14
3 0 -8 516.28 20.93
-3 0 8 494.58 21.33
-3 0 8 511.78 16.92
2 0 -8 336.12 10.95
2 0 -8 316.72 12.38
-2 0 8 325.58 11.06
-2 0 8 329.86 13
1 0 -8 5.43 1.42
1 0 -8 8.24 2.05
-1 0 8 0.82 2.21
-1 0 8 11.05 1.8
0 0 -8 2097.88 55.7
0 0 -8 2134.45 57.11
0 0 8 2112.38 57.31
0 0 8 2098.96 55.91
-1 0 -8 557.85 17.28
-1 0 -8 566.53 17.97
1 0 8 553.17 17.34
1 0 8 562.79 17.42
-2 0 -8 88.45 8.56
-2 0 -8 77.24 5.08
2 0 8 71.45 5.25
2 0 8 85.72 9.21
-3 0 -8 273.35 17.28
-3 0 -8 278.91 16.66
3 0 8 282.07 17.27
4 -1 -8 1094.48 37.79
4 -1 -8 1205.84 39.59
-4 1 8 1224.91 38.39
-4 1 8 1150.25 41.07
3 -1 -8 1852.07 50.35
3 -1 -8 1837.56 53.97
-3 1 8 1833.7 55.06
-3 1 8 1811.16 51.69
2 -1 -8 370.73 11.41
2 -1 -8 371.29 13.5
-2 1 8 370.52 12.51
1 -1 -8 723.91 19.26
1 -1 -8 702.81 21.9
-1 1 8 647.32 19.15
-1 1 8 728.66 22.58
-1 1 8 709.29 20.45
0 -1 -8 291.82 9.49
0 -1 -8 288.14 10.49
0 1 8 281.38 10.21
0 1 8 280.46 10.6
-1 -1 -8 2086.52 56.57
-1 -1 -8 2073.93 56.16
1 1 8 2103.57 56.34
1 1 8 2055.63 55.73
-2 -1 -8 971.57 31.8
-2 -1 -8 984.02 29.31
2 1 8 973.74 31.28
2 1 8 983.9 27.65
-3 -1 -8 18.63 7.93
-3 -1 -8 16.63 8.62
3 1 8 18.41 8.73
4 -2 -8 -0.3 7.34
4 -2 -8 2.56 12.65
-4 2 8 0.15 8.78
-4 2 8 7.95 8.18
3 -2 -8 336.62 11.36
3 -2 -8 290.3 19.06
-3 2 8 335.69 15.07
-3 2 8 307.53 16.84
2 -2 -8 627.41 20.22
-2 2 8 619.32 19.29
-2 2 8 601.52 22.59
1 -2 -8 9.41 1.92
-1 2 8 16.15 2.49
-1 2 8 10.14 2.2
0 -2 -8 3024.86 78.49
0 -2 -8 2876.89 76.38
0 2 8 2950.6 78.07
0 2 8 2923.63 78.27
-1 -2 -8 943.92 28.2
-1 -2 -8 960.23 28.34
1 2 8 991.68 27.49
1 2 8 933.57 29.14
-2 -2 -8 146.5 10.36
-2 -2 -8 161.66 11.42
2 2 8 148.75 11.51
2 2 8 152.96 6.51
-3 -2 -8 360.5 20.88
-3 -2 -8 338.9 18.36
3 2 8 353.02 20.11
4 -3 -8 252.28 18.76
4 -3 -8 307.76 17.69
-4 3 8 308.83 17.65
-4 3 8 335.61 19.21
3 -3 -8 80.48 12.05
3 -3 -8 80.06 4.98
-3 3 8 77.81 9.22
-3 3 8 81.29 10.49
-2 3 8 457.64 15.19
-2 3 8 436.31 18.24
1 -3 -8 344.61 12.33
-1 3 8 342.62 11.97
-1 3 8 319.81 12.44
0 -3 -8 15.31 2.02
0 -3 -8 12.74 2.22
0 3 8 17.12 2.63
0 3 8 11.31 2.55
-1 -3 -8 726.9 24.03
-1 -3 -8 741.27 22.51
1 3 8 718.3 21.3
1 3 8 732.17 24.94
-2 -3 -8 414.63 18.07
-2 -3 -8 430.81 18.96
2 3 8 416.29 18.6
-3 -3 -8 6.73 8.9
-3 -3 -8 17.99 10.43
3 3 8 -6.19 9.93
4 -4 -8 34.24 7.66
-4 4 8 33.7 10.1
-4 4 8 42.73 10.27
3 -4 -8 446.13 18.04
-3 4 8 417.59 19.48
-3 4 8 457.87 18.76
2 -4 -8 345.98 15.09
-2 4 8 394.65 16.9
-2 4 8 332.46 15.58
1 -4 -8 125.85 11.31
-1 4 8 129.51 6.68
-1 4 8 117.41 6.43
0 -4 -8 1224.03 36.28
0 -4 -8 1234.16 33.29
0 4 8 1213.99 36.28
0 4 8 1193.08 34.65
-1 -4 -8 147.46 10.44
-1 -4 -8 155.46 7.51
1 4 8 144.6 11.47
1 4 8 151.78 6.33
-2 -4 -8 84.53 10.94
-2 -4 -8 97.83 11.97
2 4 8 111 12.14
4 -5 -8 145.18 13.24
4 -5 -8 150.35 17.71
-4 5 8 157.85 15.05
3 -5 -8 12.16 5.69
-3 5 8 -1.83 5.45
-3 5 8 4.63 6.38
2 -5 -8 537.28 19.63
-2 5 8 562.44 20.46
-2 5 8 495.17 23.26
1 -5 -8 917.47 28.57
-1 5 8 918.14 27.99
-1 5 8 858.1 29.02
0 -5 -8 26.61 5.24
0 -5 -8 30.84 3.73
0 5 8 25.31 3.07
0 5 8 26.52 6.4
-1 -5 -8 515.63 20.58
-1 -5 -8 531.83 19.71
1 5 8 537.26 15.72
1 5 8 504.25 20.98
-2 -5 -8 92.05 13.37
-2 -5 -8 81.52 11.42
2 5 8 82.31 10.26
4 -6 -8 149.26 13.96
4 -6 -8 139.03 18.43
-4 6 8 160.35 15.5
3 -6 -8 134.46 10.54
-3 6 8 141.51 12.24
-3 6 8 133.55 11.72
2 -6 -8 109.47 9.08
-2 6 8 109.45 10.13
-2 6 8 109.78 10.82
1 -6 -8 219.71 11.65
-1 6 8 234.32 10.18
-1 6 8 209.41 13.37
0 -6 -8 76.73 8.43
0 -6 -8 79.94 5.02
0 6 8 83.88 5.75
0 6 8 71.61 10.32
-1 -6 -8 7.36 10.66
-1 -6 -8 3.08 6.41
1 6 8 5.87 7.21
-2 -6 -8 104.67 13.9
-2 -6 -8 95.54 12.53
2 6 8 101.36 12.99
4 -7 -8 268.75 16.25
4 -7 -8 306.93 23.34
-4 7 8 260.72 19.43
3 -7 -8 120.29 10.78
-3 7 8 115.68 11.98
-3 7 8 109.08 12.78
2 -7 -8 228.71 12.5
-2 7 8 228.28 14.51
-2 7 8 231.34 13.9
1 -7 -8 180.89 11.46
-1 7 8 194.51 12.25
-1 7 8 158.2 13.1
0 -7 -8 604.67 18.44
0 -7 -8 600.82 23.12
0 7 8 620.34 23.66
0 7 8 614.53 19.26
-1 -7 -8 51.1 9.73
-1 -7 -8 61.76 9.27
1 7 8 46.83 9.77
4 -8 -8 59.48 9.77
4 -8 -8 64.67 14.96
-4 8 8 86.26 13.51
3 -8 -8 542.98 26.46
3 -8 -8 542.85 21.51
-3 8 8 576.37 24.99
2 -8 -8 282.73 14.98
2 -8 -8 300.6 18.12
-2 8 8 307.28 17.24
-2 8 8 312.57 16.38
1 -8 -8 212.66 13.1
1 -8 -8 233.1 14.59
-1 8 8 208.61 15.13
0 -8 -8 197.68 9.53
0 -8 -8 180.32 13.65
0 8 8 199.84 9.21
0 8 8 187.37 14.62
-1 -8 -8 327.41 19.06
-1 -8 -8 352.16 19.09
1 8 8 359.75 20.15
3 -9 -8 125.91 17.17
3 -9 -8 139.09 13.16
-3 9 8 148.81 15.83
2 -9 -8 268.24 17.95
2 -9 -8 235.73 14.38
-2 9 8 219.29 16.73
1 -9 -8 23.45 7.78
1 -9 -8 10.2 10.52
-1 9 8 32.7 9.14
0 -9 -8 49.57 9.74
0 9 8 39.38 6.31
0 9 8 63.26 10.84
3 -10 -8 111.85 13.37
3 -10 -8 106.81 14.54
-3 10 8 146.09 17.6
2 -10 -8 71.68 11.67
2 -10 -8 83.9 11.61
-2 10 8 51.69 10.86
1 -10 -8 228.83 17.75
1 -10 -8 192.09 15.4
-1 10 8 236.03 17.3
0 -10 -8 17.34 8.84
0 10 8 15.33 10.98
2 -11 -8 277.71 21.71
2 -11 -8 281.89 18.04
-2 11 8 294.71 22.02
1 -11 -8 52.33 11.78
1 -11 -8 40.03 10.69
-1 11 8 57.83 12.13
-1 14 -9 -6.88 10.94
1 -14 9 11.92 10.84
1 -14 9 6.65 12.92
-2 14 -9 135.67 18.36
-2 14 -9 153.87 20.78
2 -14 9 145.22 21.24
0 13 -9 185.61 18.01
0 -13 9 207.89 19.02
0 -13 9 234.87 18.59
-1 13 -9 347.1 20.82
1 -13 9 345.68 19.29
1 -13 9 343.59 21.25
-2 13 -9 1.37 7.7
-2 13 -9 -1.47 9.96
2 -13 9 -2.45 11.05
1 12 -9 204.68 17.46
-1 -12 9 204.46 19.29
-1 -12 9 273.49 18.94
0 12 -9 77.24 11.15
0 -12 9 99.59 13.79
0 -12 9 84.91 12.23
-1 12 -9 121.32 7.63
-1 12 -9 125.36 14.74
1 -12 9 112.56 13.07
1 -12 9 143.41 14.92
-2 12 -9 305.06 18.89
-2 12 -9 275.02 15.12
2 -12 9 291.27 19.87
-3 12 -9 4.24 11.01
-3 12 -9 8.55 9.41
3 -12 9 8.67 11.21
1 11 -9 60.09 10.36
-1 -11 9 72.14 11.48
-1 -11 9 45.2 10.42
0 11 -9 145.68 13.48
0 -11 9 153.73 13.55
0 -11 9 135.1 14.05
-1 11 -9 13.36 7.09
-1 11 -9 15.2 4.18
1 -11 9 23.03 8.02
1 -11 9 17.92 7.4
-2 11 -9 71.7 9.66
-2 11 -9 53.41 7.86
2 -11 9 64.53 10.43
-3 11 -9 337.65 18.35
-3 11 -9 348.16 20.64
3 -11 9 311 21.77
2 10 -9 174.1 17.43
-2 -10 9 187.71 19.09
1 10 -9 343.46 18.15
-1 -10 9 351.62 19.5
-1 -10 9 341.81 18.19
0 10 -9 35.38 6.76
0 -10 9 37.15 7.93
0 -10 9 43.61 9.41
-1 10 -9 130.28 11.89
-1 10 -9 146.27 6.61
1 -10 9 108.98 11.84
1 -10 9 133.24 7.64
-2 10 -9 7.85 7.17
-2 10 -9 8.56 9.07
2 -10 9 19.27 7.52
-3 10 -9 13.02 8.12
-3 10 -9 7.14 8.81
3 -10 9 5.8 9.63
2 9 -9 75.71 10.63
-2 -9 9 64.87 11.37
-2 -9 9 79.78 14.39
1 9 -9 1.01 6.56
-1 -9 9 6.66 7.65
0 9 -9 1778.86 51.3
0 -9 9 1642.7 51.43
0 -9 9 1754.18 54.36
-1 9 -9 66.75 8.42
-1 9 -9 65.71 4.94
1 -9 9 67 9.44
1 -9 9 60.28 5.81
-2 9 -9 787.76 28.23
-2 9 -9 782.17 24.37
2 -9 9 787.06 28.81
-3 9 -9 280.69 17.88
-3 9 -9 263.96 16.38
3 -9 9 287.89 18.28
2 8 -9 233.62 15.47
-2 -8 9 235.05 19.64
-2 -8 9 194.61 15.64
1 8 -9 176.29 11.87
-1 -8 9 165.81 12.51
-1 -8 9 185.44 13.26
0 8 -9 5.34 4.89
0 -8 9 9.1 5.81
0 -8 9 10.62 5.83
-1 8 -9 407.06 17.32
-1 8 -9 422.24 13.36
1 -8 9 442.67 14.59
1 -8 9 419.69 17.7
-2 8 -9 263.17 10.7
-2 8 -9 244.4 14.33
2 -8 9 262.98 15.19
-3 8 -9 7.48 8.47
3 -8 9 14.07 9.24
3 -8 9 5.47 7.47
3 7 -9 184.66 17.36
-3 -7 9 173.85 17.47
-3 -7 9 167.93 22.96
2 7 -9 64.71 9.6
-2 -7 9 53.4 10.19
-2 -7 9 47.32 8.86
1 7 -9 216.28 12.66
-1 -7 9 223.3 13.04
-1 -7 9 248.15 13.82
0 7 -9 1049.42 32.56
0 -7 9 1040.18 33.08
0 -7 9 1037.33 31.48
-1 7 -9 73.12 7.75
1 -7 9 82.33 9.04
1 -7 9 80.55 5.19
-2 7 -9 195.25 12.65
2 -7 9 202.61 9.04
2 -7 9 189.28 12.46
-3 7 -9 176.7 14.41
3 -7 9 183.76 13.76
3 -7 9 183.01 14.9
-4 7 -9 11.73 10.58
4 -7 9 13.06 10.35
4 -7 9 -3.59 10.8
3 6 -9 11.85 8.88
-3 -6 9 3.42 9.32
-3 -6 9 14.9 10.39
2 6 -9 293.49 15.67
-2 -6 9 315.72 17.01
-2 -6 9 299.21 16.12
1 6 -9 463.57 18.01
-1 -6 9 463.05 19.01
0 6 -9 131.23 7.96
0 -6 9 150.58 7.18
0 -6 9 154.95 7.2
-1 6 -9 779.72 22.97
-1 6 -9 771.56 25.52
1 -6 9 779.4 22.18
1 -6 9 787.94 26.07
-2 6 -9 396 16.86
2 -6 9 408.38 14.13
2 -6 9 368.6 17.69
-3 6 -9 98.98 12.21
3 -6 9 98.48 11.88
3 -6 9 97.01 11.77
-4 6 -9 245.61 20.84
4 -6 9 239.23 20.04
4 -6 9 235.12 19.32
3 5 -9 836.92 30.12
-3 -5 9 802.79 30.84
-3 -5 9 776.45 31.47
2 5 -9 -6.5 5.45
-2 -5 9 -1.15 5.7
-2 -5 9 -2.25 6.37
1 5 -9 573.24 20.41
-1 -5 9 615.14 22.68
-1 -5 9 621.81 20.37
0 5 -9 762.01 23.3
0 -5 9 761.75 23.64
0 -5 9 756.49 23.84
-1 5 -9 196.16 7.45
-1 5 -9 174.08 7.88
1 -5 9 192.48 7.12
1 -5 9 188.99 8.3
-2 5 -9 411.77 17.6
2 -5 9 431.81 14.94
2 -5 9 422.13 17.37
-3 5 -9 288.03 17.17
3 -5 9 278.98 15.85
3 -5 9 275.47 15.83
-4 5 -9 21.85 15.4
3 4 -9 14.67 7.31
3 4 -9 -5.77 4.53
-3 -4 9 -15.05 6.63
-3 -4 9 -5.53 8.3
2 4 -9 533.01 20.38
-2 -4 9 587.66 22.61
-2 -4 9 551.98 22.19
1 4 -9 473.85 15.75
-1 -4 9 483.69 16.77
-1 -4 9 465.28 16.82
0 4 -9 6.19 2.22
0 4 -9 8.07 2.02
0 -4 9 0.85 2.33
-1 4 -9 98.75 4.75
-1 4 -9 96.29 5.54
1 -4 9 105.45 4.93
1 -4 9 101.52 5.79
-2 4 -9 385.52 16.6
2 -4 9 388.82 16.15
2 -4 9 328.33 20.57
-3 4 -9 294.58 17.03
3 -4 9 306.35 16.96
3 -4 9 308.65 15.78
3 3 -9 439.31 14.45
3 3 -9 434.91 19.12
-3 -3 9 436.54 21.26
-3 -3 9 448.61 20.71
2 3 -9 1.86 3.29
-2 -3 9 0.85 5.52
-2 -3 9 5.33 5.31
1 3 -9 1466.17 40.23
-1 -3 9 1432.77 41.96
-1 -3 9 1447.45 42.1
0 3 -9 1373.35 38.25
0 3 -9 1364.92 38.88
0 -3 9 1379.74 39.48
-1 3 -9 45.3 4.12
-1 3 -9 40.4 3.33
1 -3 9 48.67 3.46
1 -3 9 44.88 4.35
-2 3 -9 139.6 10.54
-2 3 -9 151.7 5.91
2 -3 9 152.72 10
2 -3 9 144.9 7.55
-3 3 -9 231.24 15.39
3 -3 9 211.6 14.4
3 -3 9 237.19 14.79
4 2 -9 81.01 12.09
4 2 -9 107.82 14.53
-4 -2 9 77.95 13.52
-4 -2 9 58.9 12.8
3 2 -9 115.35 10.78
-3 -2 9 88.24 12.08
-3 -2 9 111.31 12.59
2 2 -9 660.36 20.33
-2 -2 9 636.87 23.92
-2 -2 9 651.6 24
1 2 -9 12.42 2.37
1 2 -9 12.48 2.04
-1 -2 9 10.44 2.75
0 2 -9 356.23 11.97
0 2 -9 358.75 12.55
0 -2 9 332.64 10.76
0 -2 9 361.14 12.9
-1 2 -9 1400.21 39.55
-1 2 -9 1383.85 38.19
1 -2 9 1393.21 39.26
1 -2 9 1374.07 38.11
-2 2 -9 0.44 3.22
-2 2 -9 -0.68 4.58
2 -2 9 0.01 5.26
2 -2 9 1.25 3.45
-3 2 -9 748.61 28.31
3 -2 9 717.14 26.04
3 -2 9 757.9 28.05
4 1 -9 115.8 15.82
4 1 -9 101.6 15.13
-4 -1 9 123.66 16.39
-4 -1 9 113 14.76
3 1 -9 7.24 5.84
-3 -1 9 10.16 7.28
-3 -1 9 12.52 6.9
-3 -1 9 -0.06 3.84
2 1 -9 22.54 2.74
2 1 -9 27.94 5.63
-2 -1 9 26.7 6.02
-2 -1 9 24.42 3.58
1 1 -9 1946.41 54.13
1 1 -9 1987.55 51.53
-1 -1 9 1898.46 50.66
-1 -1 9 1920.62 54.46
0 1 -9 817.25 24.68
0 1 -9 840.89 23.9
0 -1 9 803.54 23.28
0 -1 9 823.97 25.11
-1 1 -9 89.93 4.83
-1 1 -9 93.47 5.29
1 -1 9 97.33 5.06
1 -1 9 96.52 5.38
-2 1 -9 227.63 13.14
-2 1 -9 236.51 9.17
2 -1 9 235.72 12.83
2 -1 9 242.84 9.5
-3 1 -9 38.21 8.71
-3 1 -9 28.93 4.6
3 -1 9 24.06 8.82
3 -1 9 31.38 5.28
4 0 -9 -2.14 8.57
4 0 -9 6.36 9.11
-4 0 9 0.32 9.08
-4 0 9 6.33 9.26
3 0 -9 38.85 7.13
3 0 -9 25.84 4.06
-3 0 9 29.9 7.28
-3 0 9 21.11 4.06
2 0 -9 146.66 9.84
2 0 -9 137.04 5.99
-2 0 9 148.73 10.79
-2 0 9 143.95 6.35
1 0 -9 10.68 1.65
1 0 -9 7.45 2.15
-1 0 9 8.06 2.54
-1 0 9 9.99 1.8
0 0 -9 795.75 23.12
0 0 -9 815.57 24.52
0 0 9 797.52 23.52
0 0 9 805.63 24.72
-1 0 -9 843.12 25.5
-1 0 -9 841.69 24.93
1 0 9 854.51 24.93
1 0 9 829.12 25.02
-2 0 -9 87.74 5.88
-2 0 -9 97.25 9.59
2 0 9 92.78 5.87
2 0 9 86.42 9.73
-3 0 -9 358.2 17.48
-3 0 -9 403.28 20.95
3 0 9 428.18 20.73
4 -1 -9 871.62 31.67
4 -1 -9 763.26 28.88
-4 1 9 828.62 33.49
-4 1 9 848.75 30.17
3 -1 -9 67.08 9.57
3 -1 -9 61.96 5.6
-3 1 9 69.96 10.22
2 -1 -9 342.84 10.48
2 -1 -9 313.92 14.84
-2 1 9 336.95 11.72
-2 1 9 341.49 15.55
1 -1 -9 1119.05 29.14
1 -1 -9 1078.49 32.13
-1 1 9 1068.24 32.65
-1 1 9 1069.68 30.36
0 -1 -9 36.21 3.54
0 -1 -9 40.83 3.07
0 1 9 46.96 4.11
0 1 9 47.76 3.96
-1 -1 -9 385.83 13.49
-1 -1 -9 394.86 13.46
1 1 9 393.9 15.26
1 1 9 375.01 13.05
-2 -1 -9 113.24 10.08
-2 -1 -9 134.21 10.85
2 1 9 129.98 11.15
2 1 9 100.65 6.4
-3 -1 -9 31.78 8.6
-3 -1 -9 27.59 9.07
3 1 9 19.14 9.61
4 -2 -9 9.71 8.17
4 -2 -9 3.47 8.54
-4 2 9 10.69 9.55
-4 2 9 7.3 8.43
3 -2 -9 393.82 12.68
3 -2 -9 381.47 17.9
-3 2 9 398.97 19.08
-3 2 9 380.04 16.84
2 -2 -9 722.25 24.57
-2 2 9 710.98 25.59
-2 2 9 728.08 22.1
1 -2 -9 26.95 3.32
-1 2 9 27.13 3.06
-1 2 9 28.37 2.82
0 -2 -9 1327.63 36.49
0 -2 -9 1357.41 38.52
0 2 9 1333.71 38.48
0 2 9 1345.21 38.09
-1 -2 -9 59.44 4.61
-1 -2 -9 43.48 6.71
1 2 9 51.74 4.66
1 2 9 52.97 10.13
-2 -2 -9 87.2 9.64
-2 -2 -9 89 10.37
2 2 9 80.02 10.59
2 2 9 91.16 6.1
-3 -2 -9 211.89 18.94
-3 -2 -9 244.46 16.36
3 2 9 276.75 18.8
4 -3 -9 262.75 16.62
-4 3 9 213.24 18.34
-4 3 9 253.78 16.71
3 -3 -9 140.08 10.66
-3 3 9 118.26 12.22
2 -3 -9 56.1 7.42
-2 3 9 74.88 5.29
1 -3 -9 433.57 16.76
-1 3 9 449.99 16.2
-1 3 9 453.08 15.22
0 -3 -9 71.67 4.01
0 -3 -9 75.15 7.16
0 3 9 68.19 4.98
-1 -3 -9 366.8 13.64
-1 -3 -9 396.65 16.29
1 3 9 385.31 16.74
1 3 9 389.27 12.95
-2 -3 -9 257.55 15.45
-2 -3 -9 259.09 14.2
2 3 9 251.25 15.41
4 -4 -9 19.64 7.64
-4 4 9 23.71 9.41
-4 4 9 32.13 9.51
3 -4 -9 365.73 16.44
-3 4 9 350.56 18.18
-3 4 9 349.24 16.85
2 -4 -9 602.69 24.87
-2 4 9 646.62 22.24
-2 4 9 621.01 23.79
1 -4 -9 83.92 7.56
-1 4 9 70.8 9.43
-1 4 9 78.88 5.65
0 -4 -9 609.1 22.11
0 -4 -9 645.89 18.59
0 4 9 683.33 27.13
0 4 9 588.71 19.84
-1 -4 -9 181.44 12.1
-1 -4 -9 204.99 11.89
1 4 9 189.99 7.88
1 4 9 200.79 13.41
-2 -4 -9 92.79 12.69
-2 -4 -9 68.33 9.64
2 4 9 86.28 12.78
4 -5 -9 197.38 15.15
-4 5 9 206.69 17.78
-4 5 9 225.03 16.87
3 -5 -9 74.09 9.64
-3 5 9 60.77 9.76
-3 5 9 69.93 9
2 -5 -9 412.72 16.88
-2 5 9 397.67 17.33
-2 5 9 393.41 18.14
1 -5 -9 371.19 15.42
-1 5 9 348.31 18.19
0 -5 -9 23.13 3.04
0 -5 -9 30.59 5.8
0 5 9 24.4 6.79
0 5 9 23.62 3.45
-1 -5 -9 436.59 18.15
-1 -5 -9 447.06 19.44
1 5 9 434.94 19.85
-2 -5 -9 229.42 16.89
-2 -5 -9 207.88 15.26
2 5 9 225.99 17.33
4 -6 -9 18.75 11.94
4 -6 -9 2.35 7.62
-4 6 9 19.13 9.72
3 -6 -9 124.51 10.76
-3 6 9 134.69 12.47
-3 6 9 127.83 12.89
2 -6 -9 270.41 13.58
-2 6 9 268.89 14.78
-2 6 9 253.43 14.78
1 -6 -9 248.83 12.89
-1 6 9 248.07 15.1
-1 6 9 253.76 14.12
0 -6 -9 604.91 22.97
0 -6 -9 607 18.42
0 6 9 611.64 24
0 6 9 653.72 19.95
-1 -6 -9 861.37 30.75
-1 -6 -9 872.95 29.02
1 6 9 830.5 31.19
4 -7 -9 136.99 19.68
4 -7 -9 139.86 14.37
-4 7 9 161.67 17.95
3 -7 -9 16.45 6.39
-3 7 9 -8.24 7.32
-3 7 9 10.48 7.03
2 -7 -9 88.42 9.75
-2 7 9 82.92 12.01
-2 7 9 80.7 11.43
1 -7 -9 166.44 11.53
-1 7 9 188.8 12.86
-1 7 9 187.82 14.41
0 -7 -9 23.34 6.3
0 -7 -9 27.16 4.31
0 7 9 28.12 4.55
0 7 9 30.44 8.49
-1 -7 -9 95.58 13.39
-1 -7 -9 97.25 12.46
1 7 9 85.37 11.88
3 -8 -9 450.54 20.42
3 -8 -9 500.48 24.78
-3 8 9 492.88 23.25
2 -8 -9 -0.41 5.73
-2 8 9 6.7 6.75
-2 8 9 0.56 7.87
1 -8 -9 470.17 20.32
-1 8 9 477.08 21.91
-1 8 9 484.66 20.38
0 -8 -9 232.47 15.62
0 -8 -9 275.89 13.08
0 8 9 245.68 16.67
0 8 9 253.39 10.81
-1 -8 -9 46.26 10.74
-1 -8 -9 33.77 9.73
1 8 9 43.91 11.95
3 -9 -9 -1.65 7.5
3 -9 -9 14.11 11.38
-3 9 9 18.44 9.79
2 -9 -9 70.6 10
2 -9 -9 74.64 12.38
-2 9 9 59.83 11.56
1 -9 -9 80.82 11.57
1 -9 -9 110 15.46
-1 9 9 101.95 14.18
0 -9 -9 57.66 10.45
3 -10 -9 266.74 17.41
3 -10 -9 275.73 23.69
2 -10 -9 36 8.33
2 -10 -9 11.35 11.4
-2 10 9 29.31 11.98
1 -10 -9 120.01 14.52
-1 10 9 148.46 16.57
0 13 -10 166.22 18.44
0 -13 10 170.87 19.4
0 -13 10 159.3 18.23
-1 13 -10 80.49 12.43
1 -13 10 102.81 16.36
1 -13 10 67.2 11.67
-2 13 -10 -24.12 10.08
-2 13 -10 -3.77 11.8
2 -13 10 12.73 10.89
1 12 -10 172.7 19.39
-1 -12 10 142.99 17.74
-1 -12 10 220.95 20.25
0 12 -10 21.66 9.32
0 -12 10 29.8 11.28
0 -12 10 29.27 10.42
-1 12 -10 126.56 15.2
1 -12 10 128.79 13.27
1 -12 10 138.91 15.21
-2 12 -10 266.63 14.95
-2 12 -10 278.07 18.88
2 -12 10 261.54 19.19
-3 12 -10 50.69 13.42
-3 12 -10 52.36 10.13
3 -12 10 35.34 12.92
1 11 -10 19.23 9.25
-1 -11 10 12.83 10.51
-1 -11 10 38.32 10.64
0 11 -10 209.27 15.7
0 -11 10 197.48 15.16
0 -11 10 205.22 16.85
-1 11 -10 411.77 19.95
1 -11 10 406.82 18.69
1 -11 10 400.04 20.52
-2 11 -10 82.81 10.2
-2 11 -10 66.6 8.55
2 -11 10 83.84 12.14
-3 11 -10 398.07 20.87
-3 11 -10 422.83 23.4
3 -11 10 429.98 24.19
2 10 -10 16.1 10.69
-2 -10 10 0.56 13.01
-2 -10 10 16.51 13.53
1 10 -10 339.13 18.3
-1 -10 10 333.39 18.84
-1 -10 10 332.12 19.15
0 10 -10 101.83 11.94
0 -10 10 91.11 11.42
0 -10 10 101.44 11.42
-1 10 -10 72.2 10.49
1 -10 10 77.08 7.38
1 -10 10 83.26 11.88
-2 10 -10 752.29 28.01
2 -10 10 725.58 28.77
-3 10 -10 61.96 9.91
-3 10 -10 65.99 11.45
3 -10 10 88.37 13.17
2 9 -10 94.11 12.52
-2 -9 10 108.84 14.56
-2 -9 10 114.1 14.48
1 9 -10 84.94 11.09
-1 -9 10 104.39 12.07
-1 -9 10 100.09 12.33
0 9 -10 824.09 28.82
0 -9 10 809.05 29.11
0 -9 10 816.83 28.51
-1 9 -10 -7.85 5.87
1 -9 10 13.15 4.46
1 -9 10 6.93 6.81
-2 9 -10 84.74 11.71
-2 9 -10 80.51 6.3
2 -9 10 89.47 11.95
-3 9 -10 302.04 19.12
3 -9 10 292.64 17.72
3 -9 10 285.28 18.82
2 8 -10 249.73 16.46
-2 -8 10 243.71 16.94
-2 -8 10 250 18.09
1 8 -10 353.38 16.91
-1 -8 10 369.86 17.69
-1 -8 10 378.79 18.1
0 8 -10 342.26 15.18
0 -8 10 299.7 15.89
0 -8 10 308.34 15.57
-1 8 -10 193.77 12.03
1 -8 10 183.65 12.91
1 -8 10 193.1 8.52
-2 8 -10 291.12 16.11
2 -8 10 319.24 16.45
2 -8 10 285.5 11.62
-3 8 -10 78.08 11.19
3 -8 10 63.78 10.2
3 -8 10 78.16 11.72
3 7 -10 33.89 12.06
-3 -7 10 64.47 12.13
-3 -7 10 47.4 12.96
2 7 -10 112.82 12.43
-2 -7 10 121.23 14.43
-2 -7 10 111.47 12.98
1 7 -10 308.92 15.23
-1 -7 10 321.55 16.2
0 7 -10 1006.82 38.99
0 -7 10 1017.49 33.11
0 -7 10 954.36 33.16
-1 7 -10 183.04 7.6
-1 7 -10 181.99 11.09
1 -7 10 183.51 11.93
1 -7 10 170.1 6.72
-2 7 -10 165.01 12.29
2 -7 10 169.12 8.29
2 -7 10 178.41 12.88
-3 7 -10 416.89 21.17
3 -7 10 420.86 20.94
3 -7 10 441.1 19.81
3 6 -10 -5.65 9.34
-3 -6 10 10.38 9.55
-3 -6 10 -7.75 10.3
2 6 -10 137.62 11.89
-2 -6 10 113.99 11.76
-2 -6 10 145.07 13.33
-1 -6 10 276.5 15.05
-1 -6 10 293.99 14.78
0 6 -10 33.07 6.17
0 -6 10 33.47 3.68
0 -6 10 36.02 6.5
-1 6 -10 1087.5 30.89
-1 6 -10 1067.34 33.4
1 -6 10 1078.69 34.34
1 -6 10 1067.82 29.65
-2 6 -10 237.13 13.93
2 -6 10 233.11 11.99
2 -6 10 268.35 13.89
-3 6 -10 173.14 14.7
3 -6 10 147.2 13.47
3 -6 10 174.51 13.82
3 5 -10 66.23 10.86
-3 -5 10 52.96 11.44
-3 -5 10 73.02 11.69
2 5 -10 5.1 6.06
-2 -5 10 8.96 7.16
-2 -5 10 -2.8 6.49
1 5 -10 307.3 13.85
-1 -5 10 291.94 14.27
-1 -5 10 302.43 14.87
0 5 -10 684.39 21.56
0 -5 10 673.5 21.71
0 -5 10 681.55 24.08
-1 5 -10 8.02 4.37
1 -5 10 4.45 2.16
1 -5 10 8.94 5.35
-2 5 -10 1283.3 39.88
2 -5 10 1277.06 39.42
2 -5 10 1279.68 38.44
-3 5 -10 218.87 15.74
3 -5 10 175.8 14.47
3 -5 10 200.44 14.27
3 4 -10 11.85 7.82
-3 -4 10 9.38 8.98
-3 -4 10 18.64 7.93
2 4 -10 498.56 20.93
-2 -4 10 473.08 20.42
-2 -4 10 451.97 27.9
1 4 -10 421.81 14.34
-1 -4 10 394.24 17.34
-1 -4 10 405.65 17.41
0 4 -10 90.54 5.39
0 4 -10 85.65 5.25
0 -4 10 87.84 5.86
-1 4 -10 1888.19 52.01
1 -4 10 1964.97 51.51
-2 4 -10 332.73 16.3
2 -4 10 357.44 15.74
2 -4 10 335.13 14.81
-3 4 -10 328.01 18.3
3 -4 10 306.29 16.97
3 -4 10 315.05 16.84
3 3 -10 264.85 10.42
3 3 -10 257.62 14.79
-3 -3 10 270.74 16.7
-3 -3 10 256.93 16.54
-2 -3 10 5.3 5.67
1 3 -10 1057.9 29.41
1 3 -10 944.67 39.43
0 3 -10 481.27 16.15
0 3 -10 519.76 17.07
0 -3 10 509.64 17.56
-1 3 -10 1.1 2.15
-1 3 -10 -2.12 2.64
1 -3 10 0.62 2.12
1 -3 10 6.63 2.94
-2 3 -10 737.52 21.82
-2 3 -10 748.48 26.65
2 -3 10 760.92 25.86
2 -3 10 792.84 29.27
-3 3 -10 310.78 18.02
3 -3 10 313.42 16.83
3 -3 10 295.78 17.69
-4 -2 10 60.07 11.91
3 2 -10 105.74 10.41
-3 -2 10 90 12.55
-3 -2 10 96.72 12.19
2 2 -10 601.9 18.78
-2 -2 10 588.9 22.88
1 2 -10 380.97 12.46
1 2 -10 355.94 15.46
0 2 -10 273.02 10.61
0 2 -10 275.98 9.93
0 -2 10 254.68 10.56
0 -2 10 260.56 8.99
-1 2 -10 950.25 27.36
-1 2 -10 930.95 28.32
1 -2 10 940.29 28.35
1 -2 10 936.75 27.06
-2 2 -10 16.35 2.75
-2 2 -10 9.16 5.52
2 -2 10 15.35 4.4
2 -2 10 2.91 5.17
-3 2 -10 264.01 16.92
3 -2 10 248.04 15.96
3 -2 10 271.54 17.14
4 1 -10 95.54 12.64
4 1 -10 92.43 11.77
4 1 -10 105.91 12.7
-4 -1 10 97.41 14.27
3 1 -10 775.23 26.59
3 1 -10 850.45 30.62
-3 -1 10 812.9 24.17
-3 -1 10 800.43 30.22
2 1 -10 24.2 5.27
2 1 -10 24.39 3
-2 -1 10 28.76 2.84
1 1 -10 1619.46 42.36
1 1 -10 1574.39 45.78
-1 -1 10 1505.46 47.86
-1 -1 10 1540.2 41.51
0 1 -10 269.4 9.97
0 1 -10 278.25 10.79
0 -1 10 281.29 11.18
0 -1 10 287.45 9.93
-1 1 -10 5.57 2.66
-1 1 -10 9.76 2.22
1 -1 10 6.91 3.07
-2 1 -10 392.98 17.71
-2 1 -10 408.02 13.76
2 -1 10 406.94 17.03
2 -1 10 395.56 14.21
-3 1 -10 120.1 14.76
-3 1 -10 127.88 15.71
3 -1 10 131.28 14.72
4 0 -10 187.13 16.88
4 0 -10 161.46 14.81
-4 0 10 164.72 18.23
-4 0 10 168.1 16.22
3 0 -10 37.75 7.29
3 0 -10 48.51 5.69
-3 0 10 40.14 8.17
-3 0 10 41.87 4.46
2 0 -10 1501.25 39.51
2 0 -10 1350.13 47.01
-2 0 10 1416.31 47.88
-2 0 10 1530.66 40.28
1 0 -10 124.75 5.17
-1 0 10 116.39 5.31
-1 0 10 111.21 8.04
0 0 -10 963.27 28.61
0 0 -10 934.1 27.09
0 0 10 931.95 28.82
0 0 10 955.02 27.53
-1 0 -10 2218.45 59.64
-1 0 -10 2204.51 59.08
1 0 10 2085.72 58.96
-2 0 -10 9.8 5.83
-2 0 -10 -4.2 5.66
2 0 10 -4.75 4.3
2 0 10 -0.51 6.22
-3 0 -10 291.43 16.08
-3 0 -10 318.15 19.76
3 0 10 326.22 19.21
4 -1 -10 270.94 16.17
4 -1 -10 276.42 18.88
-4 1 10 268.97 19.86
-4 1 10 254.19 17.46
3 -1 -10 83.68 5.59
3 -1 -10 66.72 9.43
-3 1 10 76.03 10.51
-3 1 10 79.99 11.08
2 -1 -10 167.76 12.23
2 -1 -10 176.45 6.45
-2 1 10 166.42 11.76
-2 1 10 178.37 7.63
1 -1 -10 945.16 30.04
1 -1 -10 947.93 26.06
-1 1 10 967.27 27.41
0 -1 -10 51.46 4.79
0 -1 -10 39 3.54
0 1 10 53.3 4.87
0 1 10 47.69 4.34
-1 -1 -10 15.92 3.08
-1 -1 -10 19.26 4.72
1 1 10 21.25 3.38
1 1 10 22.53 5.55
-2 -1 -10 806.1 29.41
-2 -1 -10 814.65 28.45
2 1 10 790.47 23.75
2 1 10 794.77 27.75
-3 -1 -10 121.14 16.35
-3 -1 -10 96.46 13.59
3 1 10 112.91 15.8
4 -2 -10 145.55 15.9
-4 2 10 177.78 17.61
-4 2 10 166.64 15.74
3 -2 -10 250.13 9.13
3 -2 -10 269.36 15.07
-3 2 10 264.31 13.75
-3 2 10 268.7 15.62
2 -2 -10 209.15 11.99
-2 2 10 210.26 12.38
-2 2 10 219.52 8.81
1 -2 -10 138.59 9.04
-1 2 10 131.69 11.5
-1 2 10 137.4 6.54
0 -2 -10 913.16 28.94
0 -2 -10 914.15 26.01
0 2 10 900.48 28.07
0 2 10 936.6 27.72
1 2 10 621.47 22.4
1 2 10 656.06 20.3
-2 -2 -10 17.63 7.04
-2 -2 -10 -0.77 6.03
2 2 10 2.32 6.87
4 -3 -10 290.13 17.79
-4 3 10 289.36 18.64
-4 3 10 274.97 20.36
3 -3 -10 254.27 14.7
-3 3 10 276.26 16.46
-3 3 10 279.89 14.54
2 -3 -10 124.1 9.35
-2 3 10 138.56 11.02
-1 3 10 954.09 31.74
-1 3 10 997.12 29.51
0 -3 -10 91.26 8.18
0 -3 -10 92.29 4.96
0 3 10 88.09 5.9
0 3 10 94.14 9.34
-1 -3 -10 348.39 15.62
-1 -3 -10 350.59 15.1
1 3 10 334.87 16.18
1 3 10 336.33 12.1
-2 -3 -10 463.26 20.08
-2 -3 -10 438.89 20.41
2 3 10 461.33 20.81
4 -4 -10 16.68 8.17
-4 4 10 13.95 9.83
-4 4 10 30.44 9.61
3 -4 -10 520.07 21.04
-3 4 10 503.76 23
-3 4 10 518.96 21.1
2 -4 -10 291.85 14.11
-2 4 10 302.43 14.53
-2 4 10 296.09 15.42
1 -4 -10 130.24 9.42
-1 4 10 128.29 10.55
-1 4 10 127.34 10.4
0 -4 -10 739.76 21.53
0 -4 -10 736.86 25.37
0 4 10 732.73 23.53
0 4 10 754.95 25.71
-1 -4 -10 200.08 12.55
-1 -4 -10 191.7 12.36
1 4 10 178.24 8.39
1 4 10 217.02 14.28
-2 -4 -10 146.9 14.43
-2 -4 -10 178.06 15.11
2 4 10 162.24 16
4 -5 -10 202.01 15.07
-4 5 10 140.64 16.72
-4 5 10 174.04 17.64
3 -5 -10 -0.94 5.91
-3 5 10 -0.42 6.59
-3 5 10 0.2 6.96
2 -5 -10 540.42 20.88
-2 5 10 552.76 22.48
-2 5 10 534.37 21.29
1 -5 -10 238.72 12.27
-1 5 10 244.37 13.49
-1 5 10 225.53 13.84
0 -5 -10 18.81 3.28
0 -5 -10 22.59 5.89
0 5 10 20.72 3.94
0 5 10 18.71 6.88
-1 -5 -10 258.93 14.11
-1 -5 -10 262.97 15.49
1 5 10 254.34 16.42
-2 -5 -10 26.08 9.71
-2 -5 -10 20.17 9.35
4 -6 -10 1.59 8.86
-4 6 10 10.08 9.98
-4 6 10 6.92 9.76
3 -6 -10 535.01 22.01
-3 6 10 562.62 24
-3 6 10 548.56 25.06
2 -6 -10 185.97 12.07
-2 6 10 194.67 13.47
-2 6 10 173.06 13.61
1 -6 -10 208.68 12.27
-1 6 10 206.39 14.33
-1 6 10 180.57 19.47
0 -6 -10 668.67 20.07
0 -6 -10 647.36 24.95
0 6 10 715.77 22.19
0 6 10 697.64 26.02
-1 -6 -10 -0.25 7.42
-1 -6 -10 8.56 7.73
1 6 10 -0.96 9.05
3 -7 -10 25.48 7.64
-3 7 10 28.97 8.29
-3 7 10 24.14 9.41
2 -7 -10 353.42 16.81
-2 7 10 363.79 18.88
-2 7 10 329.03 18.12
1 -7 -10 253.89 14.08
-1 7 10 260.2 14.94
-1 7 10 257.93 16.78
0 -7 -10 5.77 6.46
0 -7 -10 0.81 8.16
0 7 10 5.37 5.08
0 7 10 12.92 8.74
-1 -7 -10 548.55 25.12
-1 -7 -10 600.8 24.13
1 7 10 606.82 26.64
3 -8 -10 207.21 15.11
3 -8 -10 220.29 20.39
-3 8 10 256.78 18.2
-3 8 10 204.59 16.56
2 -8 -10 -1.85 5.85
-2 8 10 7.86 9.13
-2 8 10 14.48 7.96
1 -8 -10 99.08 11.18
-1 8 10 96.3 12.12
-1 8 10 87.62 11.89
0 -8 -10 164.28 14.62
0 8 10 174.06 16.7
3 -9 -10 5.21 8.64
3 -9 -10 -7.32 12.35
-3 9 10 19.95 12.06
2 -9 -10 214.69 18.47
2 -9 -10 191.63 14.97
-2 9 10 169.5 17.53
1 -9 -10 88.43 12.48
1 -9 -10 85.37 12.53
-1 9 10 122.54 15.96
0 -9 -10 98.77 20.13
2 -10 -10 6.07 12.86
2 -10 -10 10.8 9.46
-2 10 10 3.65 11.7
0 13 -11 75.65 13.34
0 -13 11 77.96 13.78
0 -13 11 89.7 14.86
-1 13 -11 161.1 17.6
1 -13 11 149.36 16.35
1 -13 11 122.12 16.45
-2 13 -11 -1.86 10.41
2 -13 11 16.24 12.3
0 12 -11 53.56 9.98
0 -12 11 56.3 12.12
0 -12 11 64.91 11.43
-1 12 -11 73.96 10.75
1 -12 11 73.38 13
1 -12 11 72.27 10.38
-2 12 -11 185.29 17
-2 12 -11 185.1 16.1
2 -12 11 197.38 18.99
1 11 -11 23.1 10.6
-1 -11 11 44 12.48
-1 -11 11 19.91 10.52
0 11 -11 86.4 12.01
0 -11 11 65.78 11.67
0 -11 11 88.82 12.88
-1 11 -11 332.52 18.8
1 -11 11 344.41 24.38
1 -11 11 357.04 20.5
-2 11 -11 555.59 25.03
-2 11 -11 557.2 21.44
2 -11 11 548.05 25.16
-3 11 -11 392.63 23.59
3 -11 11 339.19 20.45
3 -11 11 356.59 24.26
1 10 -11 440.39 21.6
-1 -10 11 431.7 22.15
-1 -10 11 415.84 21.77
0 10 -11 55.32 8.51
0 -10 11 40.61 9.22
0 -10 11 46.71 9.55
-1 10 -11 451.83 20.72
1 -10 11 416.92 21.44
1 -10 11 434.5 19.71
-2 10 -11 1277.52 42.35
2 -10 11 1290.67 42.96
-3 10 -11 62.03 11.84
3 -10 11 51.95 10.33
3 -10 11 54.95 12.52
2 9 -11 161.76 16.27
-2 -9 11 135.28 16.33
-2 -9 11 153.03 19.83
1 9 -11 8.17 7.41
-1 -9 11 22.73 9.15
-1 -9 11 15.64 7.75
0 9 -11 34.26 7.39
0 -9 11 16.41 7.28
0 -9 11 36.99 8.77
-1 9 -11 48.1 8.28
1 -9 11 50.59 9.47
1 -9 11 56.23 6.62
-2 9 -11 138.53 13.51
2 -9 11 144.54 10.85
2 -9 11 152.94 13.63
-3 9 -11 798.38 30.95
3 -9 11 728.47 28.26
3 -9 11 786.57 31.23
2 8 -11 174.51 14.9
-2 -8 11 172.74 18.99
-2 -8 11 166.67 15.42
1 8 -11 603.72 23.89
-1 -8 11 638.45 25.1
-1 -8 11 602.96 25.06
0 8 -11 129.7 11.26
0 -8 11 144.12 12.13
0 -8 11 119.83 14.5
-1 8 -11 739.18 26.48
1 -8 11 756.71 28.06
-2 8 -11 237.69 14.77
2 -8 11 239.82 15.2
-3 8 -11 -1.22 8.49
3 -8 11 46.11 10.5
3 -8 11 17.35 8.02
2 7 -11 227.8 15.07
-2 -7 11 230.7 16.57
-2 -7 11 244.83 18.39
1 7 -11 328.64 16.19
-1 -7 11 359.47 17.83
-1 -7 11 321.08 17.22
0 7 -11 502.22 19.54
0 -7 11 489.77 19.66
0 -7 11 491.04 20.49
-1 7 -11 133.54 10.5
-1 7 -11 150.06 6.81
1 -7 11 143.69 11.7
-2 7 -11 213.76 14.27
2 -7 11 200.78 14.22
2 -7 11 220.75 14.87
-3 7 -11 359.24 20.02
3 -7 11 355.75 18.43
3 -7 11 352.77 19.67
3 6 -11 23.36 10.79
-3 -6 11 1.3 10.33
-3 -6 11 24.07 12.07
2 6 -11 346.54 16.94
-2 -6 11 342.9 19.24
-2 -6 11 311.07 17.99
1 6 -11 780.06 26.35
-1 -6 11 772.13 27.85
-1 -6 11 774.94 27.69
0 6 -11 -3.45 4
0 -6 11 -5.44 4.82
-1 6 -11 531.68 16.91
-1 6 -11 501.74 19.66
1 -6 11 520.83 15.63
1 -6 11 516.73 20.61
-2 6 -11 64.31 9.86
2 -6 11 69.41 9.63
2 -6 11 78.07 10.49
-3 6 -11 12.04 7.73
3 -6 11 24.83 9.02
3 -6 11 22.36 8.49
3 5 -11 91.12 11.81
-3 -5 11 104.31 15.57
-3 -5 11 99.53 14.24
2 5 -11 249.51 13.75
-2 -5 11 253.61 15.39
-2 -5 11 263.63 15.98
1 5 -11 169.47 10.48
-1 -5 11 149.62 11.42
-1 -5 11 151.87 11.56
0 5 -11 840.51 26.71
0 5 -11 839.81 26.31
0 -5 11 812.71 28.39
-1 5 -11 17.42 2.69
-1 5 -11 22.98 6.16
1 -5 11 17.54 2.29
1 -5 11 5.5 6.85
-2 5 -11 103.02 10.46
2 -5 11 111.43 11.99
2 -5 11 124.72 10.09
-3 5 -11 64.81 10.92
3 -5 11 78.42 10.85
3 -5 11 72.15 10.29
3 4 -11 -4.35 7.57
-3 -4 11 24.69 9.72
-3 -4 11 12.31 9.05
2 4 -11 578.99 21.73
-2 -4 11 598.31 24.4
-2 -4 11 616.89 24.94
1 4 -11 546.18 18.12
-1 -4 11 514.2 25.39
-1 -4 11 514.93 22.68
0 4 -11 113.67 6.05
0 4 -11 99.86 6.2
0 -4 11 108.24 9.42
-1 4 -11 897.4 26.35
-1 4 -11 877.02 29.34
1 -4 11 915.57 25.52
1 -4 11 874 29.12
-2 4 -11 11.95 2.61
-2 4 -11 5.65 5.44
2 -4 11 29.43 6.93
-3 4 -11 155.23 15.19
3 -4 11 131.83 14.09
3 -4 11 147.15 14.87
3 3 -11 263.34 16.13
-3 -3 11 294.88 18.27
-3 -3 11 284.71 18.2
2 3 -11 7.32 5.03
-2 -3 11 -6.24 6.03
-2 -3 11 5.06 5.7
1 3 -11 652.39 20.03
1 3 -11 632.69 23.24
-1 -3 11 620 23.66
0 3 -11 507.88 16.75
0 3 -11 514.8 17.47
0 -3 11 494.28 19.33
-1 3 -11 11.44 2.44
-1 3 -11 7.27 4.86
1 -3 11 11.55 5.3
1 -3 11 11.59 2.45
-2 3 -11 771.5 22.64
-2 3 -11 788.54 27.78
2 -3 11 796.11 31.35
2 -3 11 759.45 26.08
-3 3 -11 148.23 15.78
3 -3 11 132.18 14.26
3 -3 11 132.67 14.51
3 2 -11 74.38 8.86
3 2 -11 60.9 9.47
-3 -2 11 71.23 11.02
2 2 -11 508.31 16.18
2 2 -11 477.6 20.54
-2 -2 11 472.27 20.68
1 2 -11 370.38 16.1
1 2 -11 386.9 12.79
-1 -2 11 349.81 16.47
0 2 -11 363.9 12.63
0 2 -11 376.04 13.44
0 -2 11 351.13 15.63
0 -2 11 349.86 11.7
-1 2 -11 420.96 16.4
-1 2 -11 398.18 13.75
1 -2 11 418.36 13.63
1 -2 11 365.21 19.07
-2 2 -11 2.91 5.94
-2 2 -11 3.13 3.11
2 -2 11 10.69 6.15
2 -2 11 -5.9 6.18
-3 2 -11 200.58 16.42
3 -2 11 210.72 15.47
3 -2 11 208.26 16.4
3 1 -11 298.08 14.65
3 1 -11 298.96 17.26
-3 -1 11 316.91 11.52
-3 -1 11 306.04 18.96
2 1 -11 1213.69 38.93
2 1 -11 1226.36 34.14
-2 -1 11 1225.87 33.63
-2 -1 11 1190.93 39.44
1 1 -11 865.57 24.38
1 1 -11 834.77 28.09
-1 -1 11 837.21 28.72
-1 -1 11 820.08 23.61
0 1 -11 890.06 26.29
0 1 -11 917.38 27.55
0 -1 11 872.32 25.8
-1 1 -11 22.95 5.7
-1 1 -11 22.88 2.87
1 -1 11 24.02 3.73
-2 1 -11 423.82 19.07
2 -1 11 413.36 17.86
2 -1 11 400.45 20.86
-3 1 -11 57.24 10.79
3 -1 11 68.46 11.17
4 0 -11 62.13 10.08
4 0 -11 59.18 11.42
-4 0 11 83.45 11.07
3 0 -11 348.17 18.01
3 0 -11 320.49 12.01
-3 0 11 329.37 12.42
-3 0 11 331.49 18.7
2 0 -11 1613.71 43.77
2 0 -11 1643.78 49.43
-2 0 11 1659.78 44.64
-2 0 11 1579.64 49.72
1 0 -11 125.83 5.46
1 0 -11 121.73 9.04
-1 0 11 130.24 5.77
-1 0 11 121.54 9.61
0 0 -11 939.06 27.13
0 0 -11 935.76 29.6
0 0 11 934 27.46
0 0 11 933.12 31.54
-1 0 -11 573.86 20.08
-1 0 -11 553.93 20.88
1 0 11 575.44 19.07
1 0 11 582.44 20.02
-2 0 -11 260.57 14.64
-2 0 -11 239.29 13.48
2 0 11 244.62 10.17
2 0 11 259.58 14.71
-3 0 -11 141.73 15.16
-3 0 -11 174.4 17.66
3 0 11 149.85 16.66
4 -1 -11 3.35 9.93
-4 1 11 2.47 10.85
-4 1 11 12.38 9.96
3 -1 -11 116.04 12.71
3 -1 -11 146.46 6.67
-3 1 11 139.87 13.44
-3 1 11 156.67 11.97
2 -1 -11 218.31 7.47
2 -1 -11 212.17 12.18
-2 1 11 213.92 8.79
-2 1 11 193.61 13.15
1 -1 -11 1696.3 56.95
1 -1 -11 1627.03 43.56
-1 1 11 1567.78 48.55
-1 1 11 1668.38 45.02
0 -1 -11 454.04 14.62
0 -1 -11 461.76 17.82
0 1 11 461.61 15.73
0 1 11 462.87 17.55
-1 -1 -11 21.34 5.91
1 1 11 28.28 5.66
1 1 11 34.73 3.98
-2 -1 -11 612.84 23.13
-2 -1 -11 620.26 24.22
2 1 11 615.75 24.02
2 1 11 626.07 19.74
4 -2 -11 30.12 10.16
-4 2 11 27.74 10.15
-4 2 11 33.2 11.21
3 -2 -11 253.95 15.05
-3 2 11 271.21 16.81
2 -2 -11 162.14 10.97
-2 2 11 166.09 12.09
-2 2 11 169.21 7.84
1 -2 -11 12.9 4.29
-1 2 11 13.65 5.57
-1 2 11 17.88 3.14
0 -2 -11 479.8 18.52
0 -2 -11 482.81 15.24
0 2 11 491.03 17.82
0 2 11 498.45 18.49
-1 -2 -11 368.9 16.09
-1 -2 -11 387.13 16.21
1 2 11 381.37 13.87
1 2 11 390.57 17.05
-2 -2 -11 46.32 8.65
-2 -2 -11 35.46 7.95
2 2 11 51.75 9.02
4 -3 -11 178.46 16.18
-4 3 11 177.35 18.49
-4 3 11 159.4 16.98
3 -3 -11 217.25 14.33
-3 3 11 222.69 15.19
-3 3 11 202.85 13.77
2 -3 -11 182.94 10.94
-2 3 11 155.68 10.93
-2 3 11 177.21 12.44
1 -3 -11 552.07 20.75
-1 3 11 553.15 20.3
0 -3 -11 28.23 4.3
0 -3 -11 26.67 5.6
0 3 11 34.35 4.54
0 3 11 37.08 6.83
-1 -3 -11 337.68 15.36
-1 -3 -11 329.54 15.89
1 3 11 343.23 17.05
1 3 11 341.67 12.52
-2 -3 -11 364.91 18.68
-2 -3 -11 356.03 18.85
2 3 11 329.37 19.6
4 -4 -11 -0.35 8.33
-4 4 11 9.1 9.79
-4 4 11 -2.67 10.14
3 -4 -11 197.45 13.19
-3 4 11 192.94 15.89
-3 4 11 186.61 13.76
2 -4 -11 86.34 9.64
-2 4 11 108.08 10.66
-2 4 11 112.09 10.3
1 -4 -11 9.67 4.58
-1 4 11 8.62 6.3
-1 4 11 10.97 5.28
0 -4 -11 620.32 23.15
0 -4 -11 638.36 18.74
0 4 11 654.85 23.66
0 4 11 585.08 28.03
-1 -4 -11 76.48 9.14
-1 -4 -11 84.25 10.36
1 4 11 66.88 9.73
1 4 11 68.69 6.97
-2 -4 -11 43.29 10.36
-2 -4 -11 18.35 8.86
2 4 11 17.63 10.54
3 -5 -11 32.5 7.69
-3 5 11 38.99 8.83
-3 5 11 43.51 9.2
2 -5 -11 18.03 5.47
-2 5 11 12.97 7.09
-2 5 11 22.09 6.57
1 -5 -11 249.98 13.02
-1 5 11 243.97 13.93
-1 5 11 213.33 14.35
0 -5 -11 94.94 9.7
0 -5 -11 75.04 5.88
0 5 11 88.48 11.45
-1 -5 -11 182.91 13.17
-1 -5 -11 154.63 13.81
1 5 11 173.94 15.43
3 -6 -11 265.84 15.72
-3 6 11 240.08 17.36
-3 6 11 265.66 18.02
2 -6 -11 13.84 5.75
-2 6 11 11.69 7.32
-2 6 11 6.78 7.38
1 -6 -11 141.13 11.25
-1 6 11 149.76 12.3
-1 6 11 149.35 14.22
0 -6 -11 533.84 22.13
0 -6 -11 535.84 18.59
0 6 11 527.23 21.54
0 6 11 517.87 22.92
-1 -6 -11 2.08 8.07
-1 -6 -11 18.58 8.91
1 6 11 -2.61 9.37
3 -7 -11 22.67 8.12
-3 7 11 28.22 9.55
-3 7 11 15.37 9.18
2 -7 -11 294.05 15.88
-2 7 11 299.21 18.03
-2 7 11 301.64 17.85
1 -7 -11 153.94 12.08
-1 7 11 169.08 15.08
-1 7 11 165.45 13.89
0 -7 -11 5.27 7.1
0 7 11 7.24 8.99
0 7 11 15.15 8.46
3 -8 -11 41.1 8.63
-3 8 11 34.25 10.38
-3 8 11 34.16 11.12
2 -8 -11 16.59 6.65
-2 8 11 25.83 10.87
-2 8 11 27.18 8.72
1 -8 -11 181.61 14.31
-1 8 11 191.81 16.47
-1 8 11 181.35 14.71
0 -8 -11 319 19.85
0 8 11 378.45 21.78
2 -9 -11 74.55 11.02
2 -9 -11 125.63 18.91
-2 9 11 77.73 13.75
1 -9 -11 37.82 9.44
1 -9 -11 42.15 12.41
-1 9 11 37.34 11.17
-1 13 -12 209.07 19.5
1 -13 12 156.67 17.64
1 -13 12 197.87 21.67
0 12 -12 168.78 17.81
0 -12 12 204.83 19.4
0 -12 12 140.43 17.07
-1 12 -12 33.73 10.18
1 -12 12 28.97 10.33
1 -12 12 52.66 13.09
-2 12 -12 117.93 17.23
2 -12 12 136.06 19.17
1 11 -12 39.46 10.34
-1 -11 12 26.01 10.53
-1 -11 12 44.2 13.81
0 11 -12 109.81 14.38
0 -11 12 112.23 16.23
0 -11 12 97.43 12.04
-1 11 -12 270.78 18.41
1 -11 12 332.87 17.45
1 -11 12 334.16 20.78
-2 11 -12 26.66 9.78
2 -11 12 4.61 10.64
2 -11 12 17.91 8.4
1 10 -12 263.27 17.49
-1 -10 12 246.23 20.19
-1 -10 12 243.41 18.1
0 10 -12 -9.25 6.98
0 -10 12 9.13 8.8
0 -10 12 2.71 7.97
-1 10 -12 276.41 16.9
1 -10 12 291.32 18.65
1 -10 12 254.36 16.04
-2 10 -12 113.24 14.56
2 -10 12 99.69 15.68
2 -10 12 125.64 15.86
-3 10 -12 1.58 10.38
3 -10 12 28.27 12.5
3 -10 12 25.29 10.29
2 9 -12 120.33 14.23
-2 -9 12 112.95 14.89
-2 -9 12 107.66 16.07
1 9 -12 25.67 8.01
-1 -9 12 30.21 10.59
0 9 -12 122.14 12.21
0 -9 12 143.47 14.16
0 -9 12 132.88 12.7
-1 9 -12 374.27 18.23
1 -9 12 433.83 20.49
-2 9 -12 68.61 10.83
2 -9 12 65.45 11.33
2 -9 12 61.74 10.09
-3 9 -12 127.18 16.76
3 -9 12 133.75 17.46
3 -9 12 107.47 15.01
2 8 -12 96.25 14.52
-2 -8 12 107.58 13.96
-2 -8 12 114.53 18.08
1 8 -12 668.9 24.91
-1 -8 12 651.92 26.74
-1 -8 12 605.01 25.78
0 8 -12 5.95 5.86
0 -8 12 15.29 7.2
0 -8 12 3.31 6.5
-1 8 -12 281.16 11.09
-1 8 -12 272.89 15.17
1 -8 12 290.11 16.12
-2 8 -12 156.9 14.37
2 -8 12 168.08 12.3
2 -8 12 174.9 14.76
-3 8 -12 23.52 10.26
3 -8 12 25.07 10.61
3 -8 12 12.95 9.44
2 7 -12 -3.97 7.67
-2 -7 12 2 8.57
-2 -7 12 5.25 10.36
1 7 -12 87.81 10.42
-1 -7 12 103.9 11.53
-1 -7 12 77.35 10.55
0 7 -12 280.49 14.56
0 -7 12 293.51 17.86
0 -7 12 299.03 16.17
-1 7 -12 137.73 10.8
-1 7 -12 147.52 7.46
1 -7 12 144.48 12.39
-2 7 -12 272.1 15.63
2 -7 12 263.93 16.94
2 -7 12 269.43 13.65
-3 7 -12 458.78 23.15
3 -7 12 430.08 20.93
3 -7 12 430.62 22.81
3 6 -12 8.52 10.16
-3 -6 12 -11.48 12.33
-3 -6 12 20.14 11.74
2 6 -12 574.32 23.02
-2 -6 12 577.09 25.93
-2 -6 12 554.3 24.78
1 6 -12 334.89 15.67
-1 -6 12 336.92 17.44
-1 -6 12 340.94 17.28
0 6 -12 53.75 8.1
0 6 -12 64.4 8.28
0 -6 12 57.99 8.48
-1 6 -12 410.7 17.74
-1 6 -12 423.83 14.65
1 -6 12 424.72 13.21
1 -6 12 437.39 18.7
-2 6 -12 370.36 18.17
2 -6 12 386.31 19.39
2 -6 12 382.77 16.29
-3 6 -12 17.76 9.16
3 -6 12 6.2 7.62
3 -6 12 23.61 9.61
3 5 -12 156.28 15.8
-3 -5 12 164.46 16.63
-3 -5 12 154.58 18.85
2 5 -12 87.38 10.3
-2 -5 12 65.77 9.82
-2 -5 12 81.15 12.55
-1 -5 12 365.48 17.92
-1 -5 12 363.25 17.19
0 5 -12 892.27 29.51
0 5 -12 930.05 29.13
0 -5 12 899.54 30.67
-1 5 -12 52.81 8.1
-1 5 -12 53.89 4.74
1 -5 12 57.94 8.34
1 -5 12 51.06 4.1
-2 5 -12 156.99 12.41
-2 5 -12 167.13 6.9
2 -5 12 174.81 13.44
2 -5 12 154.32 13.52
-3 5 -12 826.17 32.01
3 -5 12 780.33 29.86
3 -5 12 790.41 30.47
3 4 -12 48.1 9.33
-3 -4 12 62.31 12.02
-3 -4 12 44.03 10.7
2 4 -12 512.2 19.62
-2 -4 12 495.81 22.55
-2 -4 12 513.24 22.16
1 4 -12 194.15 12.26
1 4 -12 203.83 11.01
-1 -4 12 193.56 12.82
0 4 -12 103.98 8.35
0 4 -12 91.22 9.04
0 -4 12 96.37 9.7
-1 4 -12 833.13 27.81
-1 4 -12 840.5 25.09
1 -4 12 797.54 27.97
1 -4 12 829.77 23.98
-2 4 -12 161.92 6.86
-2 4 -12 144.86 11.9
2 -4 12 142.67 11.24
2 -4 12 159.24 13.21
-3 4 -12 22.46 9.53
3 -4 12 11.97 9.7
3 -4 12 17.94 9.36
3 3 -12 233.2 15.05
-3 -3 12 262.06 18.12
-3 -3 12 226.88 17.63
2 3 -12 63.65 8.26
2 3 -12 61.25 9.43
-2 -3 12 55.88 9.52
1 3 -12 131.12 10.04
1 3 -12 129.15 6.8
-1 -3 12 123.58 11.41
0 3 -12 420.98 16.91
0 3 -12 419.11 14.74
-1 3 -12 15.15 2.68
1 -3 12 3.54 6.8
-2 3 -12 633.89 19.29
-2 3 -12 641.9 24.87
2 -3 12 635.79 24.01
2 -3 12 625.06 22.64
-3 3 -12 216.49 18.25
3 -3 12 214.39 16.55
3 -3 12 235.21 17.39
3 2 -12 56.17 9.77
3 2 -12 56.31 8.77
-3 -2 12 52.1 10.43
2 2 -12 561.34 17.85
2 2 -12 547.77 22.52
-2 -2 12 549.67 23.51
1 2 -12 851.33 25.02
1 2 -12 845.27 28.86
-1 -2 12 812.89 29.21
0 2 -12 111.33 8.31
0 2 -12 101.15 5.93
0 -2 12 115.89 10.01
0 -2 12 99.13 5.28
-1 2 -12 281.52 12.46
-1 2 -12 289.61 13.97
1 -2 12 299.33 11.47
1 -2 12 304.87 15.26
-2 2 -12 107.06 7.29
-2 2 -12 101.75 11.87
2 -2 12 84.45 11.68
2 -2 12 102.62 10.97
-3 2 -12 203.68 17.9
3 -2 12 214.11 17.1
3 -2 12 219.63 16.52
3 1 -12 198.59 14.81
3 1 -12 198.57 12.12
-3 -1 12 211.89 9.4
-3 -1 12 204.5 16.52
2 1 -12 19.13 5.61
2 1 -12 25.38 3.05
-2 -1 12 32.83 7.12
-2 -1 12 21.33 3.27
1 1 -12 36.01 3.9
1 1 -12 44.01 6.47
-1 -1 12 47.29 7.96
-1 -1 12 47.19 3.84
0 1 -12 1375.68 40.53
0 1 -12 1384.55 38.39
0 -1 12 1312.31 37.68
0 -1 12 1354.95 41.62
-1 1 -12 168.17 10.04
-1 1 -12 174.55 10.85
1 -1 12 170.56 10.17
1 -1 12 169.45 12.09
-2 1 -12 614.56 24.06
-2 1 -12 595.51 21.28
2 -1 12 598.68 23.58
2 -1 12 576.73 22.32
3 0 -12 166.98 8.14
3 0 -12 159.94 14.17
-3 0 12 175.58 14.4
-3 0 12 177.8 8.93
2 0 -12 161.71 12.09
2 0 -12 172.91 7.21
-2 0 12 164.57 12.46
-2 0 12 174.44 7.71
1 0 -12 2.75 3.94
1 0 -12 1 2.33
-1 0 12 -4.62 4.7
-1 0 12 1.03 2.62
0 0 -12 58.61 4.24
0 0 12 63.24 4.75
0 0 12 56.44 8.15
-1 0 -12 132.28 10.42
1 0 12 144.96 10.66
1 0 12 138.13 11.45
-2 0 -12 18.09 6.54
-2 0 -12 12.54 7.33
2 0 12 14.51 7.48
2 0 12 8.8 7.64
3 -1 -12 316.69 18.27
3 -1 -12 319.61 11.34
-3 1 12 327.77 19.26
-3 1 12 334.77 16.22
2 -1 -12 44.37 7.21
2 -1 -12 54.01 3.96
-2 1 12 47.97 5.45
-2 1 12 53.53 8.69
1 -1 -12 454.78 18.54
1 -1 -12 459.13 14.19
-1 1 12 467.44 19.85
-1 1 12 504.17 15.79
0 -1 -12 482.42 15.36
0 -1 -12 472.39 18.37
0 1 12 477.74 18.13
0 1 12 466.19 19.71
-1 -1 -12 157.74 10.53
-1 -1 -12 155.98 10.92
1 1 12 158.89 11.85
1 1 12 147.88 12.76
-2 -1 -12 227.78 15.4
-2 -1 -12 232.06 14.77
2 1 12 216.12 15.46
2 1 12 234.54 15
3 -2 -12 34.36 8.03
-3 2 12 31.55 9.22
-3 2 12 40.08 7.97
2 -2 -12 362.06 16.36
-2 2 12 261.51 17.91
-2 2 12 356.1 17.57
1 -2 -12 10.18 4.92
-1 2 12 16.46 7.12
-1 2 12 12.01 5.64
0 -2 -12 811.54 23.89
0 -2 -12 833.29 27.57
0 2 12 825.33 27.97
0 2 12 799.18 28.07
-1 -2 -12 440.88 23.14
-1 -2 -12 497.29 19.35
1 2 12 507.82 20.53
-2 -2 -12 19.28 8.32
-2 -2 -12 -4.87 7.95
2 2 12 -7.87 8.09
3 -3 -12 109.3 11.73
-3 3 12 96.66 12.25
-3 3 12 121.13 13.33
2 -3 -12 193.49 12.23
-2 3 12 208.13 14.27
1 -3 -12 700.77 24.91
-1 3 12 698.62 26.21
0 -3 -12 137.3 6.39
0 -3 -12 121.71 10.13
0 3 12 126.07 11.24
0 3 12 135.37 11.02
-1 -3 -12 162.28 11.68
-1 -3 -12 148.11 11.67
1 3 12 154.21 8.38
1 3 12 142.94 13.5
-2 -3 -12 234.12 16.39
-2 -3 -12 222.26 17.03
2 3 12 242.18 17.96
3 -4 -12 141.31 12.4
-3 4 12 121.38 13.98
-3 4 12 134.08 13.7
2 -4 -12 344.09 16.72
-2 4 12 358.73 18.29
-2 4 12 350 16.8
1 -4 -12 20.11 5.52
-1 4 12 16.58 6.78
-1 4 12 25.24 6.58
0 -4 -12 452.54 19.4
0 -4 -12 469 14.77
0 4 12 475.59 20.2
0 4 12 465.66 19.56
-1 -4 -12 96.79 11.14
-1 -4 -12 82.81 11.72
1 4 12 70.49 10.87
3 -5 -12 59.44 9.88
-3 5 12 45.87 10.61
-3 5 12 69.82 9.97
2 -5 -12 122.86 10.97
-2 5 12 99.86 12.36
-2 5 12 127.26 12.42
1 -5 -12 1146.79 36.99
-1 5 12 1163.87 37.74
-1 5 12 1119.07 37.38
0 -5 -12 39.28 5.38
0 -5 -12 41.49 6.84
0 5 12 43.03 8.99
0 5 12 33.02 7.95
-1 -5 -12 228.85 14.93
-1 -5 -12 207.41 15.95
1 5 12 190.87 17.3
3 -6 -12 259.35 16.09
-3 6 12 254.77 18.32
-3 6 12 219.34 17.85
2 -6 -12 94.63 11.18
-2 6 12 90.46 13.09
-2 6 12 113.61 13.89
1 -6 -12 11.97 6.15
-1 6 12 10.15 8.78
-1 6 12 15.56 7.77
0 -6 -12 231.78 15.44
0 6 12 268.33 17.07
3 -7 -12 -2.41 7.59
-3 7 12 6.29 10.44
-3 7 12 13.09 10.11
2 -7 -12 257.08 15.94
-2 7 12 269.77 18.35
-2 7 12 269.5 18.23
1 -7 -12 276 15.99
-1 7 12 259.95 17.37
-1 7 12 259.83 17.95
0 -7 -12 6.41 8.27
0 7 12 10.34 11.1
2 -8 -12 62.44 9.85
-2 8 12 74.15 11.91
-2 8 12 78.66 13.8
1 -8 -12 177.28 15.21
-1 8 12 186.62 15.91
-1 8 12 226.51 18.1
0 12 -13 314.29 21.51
0 -12 13 275.29 22.25
0 -12 13 256.47 20.8
-1 12 -13 93.33 13.35
1 -12 13 96.46 15.49
1 -12 13 98.72 14.06
0 11 -13 212.28 17.49
0 -11 13 175.95 16.54
0 -11 13 195.38 18.96
-1 11 -13 102.82 14.51
1 -11 13 102.04 13.86
1 -11 13 112.86 17.8
-2 11 -13 67.84 12.3
2 -11 13 43.76 12.33
1 10 -13 72.6 11.37
-1 -10 13 50.97 13.42
-1 -10 13 67.61 11.78
0 10 -13 23.09 8.79
0 -10 13 36.91 10.52
0 -10 13 29.65 8.8
-1 10 -13 176.96 14.75
1 -10 13 201.15 18.25
-2 10 -13 290.63 19.05
2 -10 13 290.94 19.86
2 -10 13 252.47 15.38
1 9 -13 55.09 9.53
-1 -9 13 52.19 12.08
-1 -9 13 57.47 11.64
0 9 -13 331.15 17.6
0 -9 13 326.86 17.72
0 -9 13 342.22 19.68
-1 9 -13 181.64 12.53
-1 9 -13 201.1 14.49
1 -9 13 211.99 16.49
-2 9 -13 88.34 11.86
2 -9 13 74.93 11.14
2 -9 13 66.12 11.91
2 8 -13 181.56 16.49
-2 -8 13 178.24 17.4
-2 -8 13 157.26 19.14
1 8 -13 391.26 19.39
-1 -8 13 396.8 20.21
-1 -8 13 390.43 21.39
0 8 -13 1.05 6.16
0 -8 13 0.58 7.05
0 -8 13 -5.84 7.09
-1 8 -13 186.09 13.32
-1 8 -13 185.95 12.38
1 -8 13 197.17 14.98
-2 8 -13 520.96 23.61
2 -8 13 495.04 19.49
2 -8 13 521.74 24.82
-3 8 -13 16.28 10.31
3 -8 13 19.11 11.62
3 -8 13 13.77 9.21
2 7 -13 105.45 13.5
-2 -7 13 105.66 17.03
-2 -7 13 139.05 15.35
1 7 -13 177.31 13.36
-1 -7 13 189.23 15.09
-1 -7 13 186.72 14.34
0 7 -13 448.73 19.15
0 7 -13 437.19 19.12
0 -7 13 459.98 21.02
-1 7 -13 109.45 7.99
-1 7 -13 91.62 10.51
1 -7 13 99.78 12.27
-2 7 -13 200.77 14.81
2 -7 13 222.29 16.44
2 -7 13 162.63 12.37
-3 7 -13 153 17.21
3 -7 13 151.35 17.88
3 -7 13 180.69 15.9
2 6 -13 322.01 17.18
-2 -6 13 305.32 19.51
-2 -6 13 286.17 18.43
1 6 -13 284.5 14.71
-1 -6 13 250.25 15.58
-1 -6 13 267.38 16.98
0 6 -13 61.43 8.18
0 6 -13 62.62 8.48
0 -6 13 74.13 10.54
-1 6 -13 180.16 12.51
-1 6 -13 185.33 8.46
1 -6 13 182.77 13.4
1 -6 13 177.66 7.11
-2 6 -13 270.11 16.23
-2 6 -13 245.77 9.08
2 -6 13 238.56 14.06
2 -6 13 275.95 17.4
-3 6 -13 90.75 13.58
3 -6 13 133.76 17.32
3 -6 13 88.44 12.24
3 5 -13 348.26 19.61
-3 -5 13 327.8 22.32
-3 -5 13 328.12 24.54
2 5 -13 122.77 11.53
-2 -5 13 117.47 15.21
-2 -5 13 116.13 13.1
1 5 -13 108.67 9.94
1 5 -13 98.36 10.24
-1 -5 13 98.36 11.96
0 5 -13 678.35 23.53
0 -5 13 670.89 25.43
-1 5 -13 51.58 4.97
-1 5 -13 60.43 8.84
1 -5 13 70.62 10.26
1 -5 13 49.41 4.48
-2 5 -13 278.44 16.43
-2 5 -13 279.08 9.82
2 -5 13 252.13 16.68
2 -5 13 253.48 14.1
-3 5 -13 381.51 22.62
3 -5 13 356.69 20.25
3 -5 13 363.38 21.97
3 4 -13 -1.64 8.15
-3 -4 13 6.59 11.36
-3 -4 13 22.94 10.13
2 4 -13 194.36 14.12
2 4 -13 176.01 12.31
-2 -4 13 192.62 15.77
1 4 -13 208.7 12.07
1 4 -13 226.35 13.27
-1 -4 13 215.09 14.36
0 4 -13 34.81 7.46
0 4 -13 38.98 6.48
0 -4 13 42.06 7.44
-1 4 -13 656.94 24.09
1 -4 13 664.95 25.12
1 -4 13 685.94 20.38
-2 4 -13 131.66 6.54
-2 4 -13 120.09 12.18
2 -4 13 114.51 13.27
2 -4 13 120.71 10.86
-3 4 -13 35.73 11.29
3 -4 13 20.64 10.45
3 -4 13 38.17 10.68
3 3 -13 158.17 15.59
3 3 -13 150.92 13.52
-3 -3 13 170.26 16.93
2 3 -13 133.15 11.02
2 3 -13 115.61 11.82
-2 -3 13 115.87 13.07
1 3 -13 478.33 20.14
-1 -3 13 465.57 20.99
0 3 -13 639.8 30.3
0 3 -13 612.03 21.38
0 -3 13 606.48 23.4
0 -3 13 601.43 18
-1 3 -13 6.52 5.32
-1 3 -13 7.56 4.65
1 -3 13 10.97 6.65
1 -3 13 12.09 3.13
-2 3 -13 296.37 16.95
2 -3 13 317.28 17.32
2 -3 13 288.12 15.36
3 2 -13 118.36 13.55
3 2 -13 80.12 11.29
-3 -2 13 123.94 15.08
2 2 -13 776.25 30.04
2 2 -13 795.49 29.47
-2 -2 13 808.28 30.65
1 2 -13 310.48 15.6
1 2 -13 325.9 11.73
-1 -2 13 310.56 16.53
0 2 -13 498.14 19.7
0 2 -13 525.99 17.37
0 -2 13 472.95 15.77
0 -2 13 513.76 21.24
-1 2 -13 545.1 21.29
-1 2 -13 569.95 20.4
1 -2 13 587.68 20.19
1 -2 13 584.99 22.46
-2 2 -13 126.53 13.3
-2 2 -13 126.53 10.14
2 -2 13 149.18 13.59
2 -2 13 142.73 12.16
3 1 -13 122.38 14.27
3 1 -13 91.63 10.62
-3 -1 13 100.96 14.56
2 1 -13 87.81 11
2 1 -13 99.74 6.07
-2 -1 13 104.64 11.76
1 1 -13 2080.47 55.02
1 1 -13 1999.21 58.93
-1 -1 13 2023.01 60.38
-1 -1 13 2016.6 54.17
0 1 -13 1398.94 39.32
0 1 -13 1427.13 42.03
0 -1 13 1399.32 43.15
0 -1 13 1308.53 38.58
-1 1 -13 308.5 14.76
-1 1 -13 320.12 13.95
1 -1 13 313.22 14.27
1 -1 13 298.1 16.02
-2 1 -13 330.99 15.78
-2 1 -13 334.99 18.16
2 -1 13 338.43 17.16
2 -1 13 356.74 17.67
3 0 -13 134.06 14.89
3 0 -13 165.97 7.82
-3 0 13 165.43 16.54
2 0 -13 414.12 19.31
2 0 -13 423.58 13.65
-2 0 13 418.23 20.42
-2 0 13 433.58 14.25
1 0 -13 586.19 17.62
1 0 -13 561.94 21.8
-1 0 13 573.65 17.85
-1 0 13 558.52 23.2
0 0 -13 65.14 7.62
0 0 -13 64.37 4.94
0 0 13 64.12 9.32
-1 0 -13 404.7 17.56
-1 0 -13 420.13 17.19
1 0 13 408.91 18.94
1 0 13 403.91 17.46
-2 0 -13 25.6 8.63
-2 0 -13 35.37 7.72
2 0 13 32.45 8.92
2 0 13 30.75 10.31
3 -1 -13 111.66 12.79
-3 1 13 111.59 14.27
-3 1 13 114.93 11.96
2 -1 -13 101.36 10.17
-2 1 13 104.32 6.79
-2 1 13 97.52 11.69
1 -1 -13 988.02 27.61
1 -1 -13 959.8 32.36
-1 1 13 985.76 33.76
-1 1 13 997.5 29.14
0 -1 -13 504.6 19.73
0 -1 -13 498.93 16.18
0 1 13 504.96 20.7
0 1 13 497.24 20.09
-1 -1 -13 76 9.33
-1 -1 -13 70.19 9.55
1 1 13 85.81 17.42
1 1 13 91.35 11.38
-2 -1 -13 154.41 14.6
-2 -1 -13 123.31 13.4
2 1 13 137.88 14.2
3 -2 -13 76.83 10.81
-3 2 13 80.34 12.91
-3 2 13 79.86 10.19
2 -2 -13 597.76 23.8
-2 2 13 605.43 22.39
-2 2 13 642.71 25.54
1 -2 -13 -2.77 4.2
-1 2 13 5.59 4.93
-1 2 13 -0.1 5.56
0 -2 -13 285.37 10.32
0 -2 -13 306.02 14.62
0 2 13 268 15.07
0 2 13 285.26 14.88
-1 -2 -13 248.17 13.99
-1 -2 -13 221.95 13.79
1 2 13 221.79 14.42
1 2 13 241.37 15.46
3 -3 -13 42.7 9.07
-3 3 13 42.9 9.97
-3 3 13 37.29 8.61
2 -3 -13 76.6 9.54
-2 3 13 71.29 10.72
-2 3 13 79.92 10.49
1 -3 -13 369.7 16.86
-1 3 13 359.38 16.73
-1 3 13 364.38 18.31
0 -3 -13 32.33 6.86
0 -3 -13 57.25 5.72
0 3 13 47.51 8.01
0 3 13 47.42 8.45
-1 -3 -13 179.79 13.08
-1 -3 -13 152.55 12.66
1 3 13 132.35 12.25
1 3 13 146.5 14.77
3 -4 -13 73.55 10.4
-3 4 13 64.19 11.36
-3 4 13 60.7 9.67
2 -4 -13 195.95 12.72
-2 4 13 185.24 14.67
-2 4 13 192.49 13.8
1 -4 -13 52.83 7.68
-1 4 13 56.62 8.79
-1 4 13 49.16 8.48
0 -4 -13 120.54 11.67
0 -4 -13 149.78 7.58
0 4 13 138.54 12.77
0 4 13 152.45 13.46
-1 -4 -13 191.26 14.81
-1 -4 -13 205.46 14.99
1 4 13 190.44 16.82
3 -5 -13 45.35 8.97
-3 5 13 72.18 11.8
-3 5 13 49.41 10.94
2 -5 -13 187.56 13.27
-2 5 13 178.46 15.35
-2 5 13 180.23 15.09
1 -5 -13 392.33 18.57
-1 5 13 359.1 18.95
-1 5 13 395.04 19.5
0 -5 -13 46.42 7.97
0 5 13 61.69 9.22
0 5 13 76.52 10.68
3 -6 -13 162.39 14.72
-3 6 13 140.43 17.23
-3 6 13 162 17.39
2 -6 -13 85.4 11.2
-2 6 13 65.98 11.46
-2 6 13 79.56 11.5
1 -6 -13 2.25 6.2
-1 6 13 3.3 8.59
-1 6 13 12.45 8.03
0 -6 -13 325.57 18.34
0 6 13 324.2 20.05
0 6 13 335.27 18.33
2 -7 -13 151.97 14.62
-2 7 13 146.2 16.57
-2 7 13 164.2 17.41
1 -7 -13 180.91 14.53
-1 7 13 217.61 17.79
-1 7 13 179.24 16.22
0 11 -14 345.78 20.71
0 -11 14 296.89 23.63
0 -11 14 356.65 20.97
-1 11 -14 181.88 17.24
-1 11 -14 206.85 14.13
1 -11 14 182.42 20.02
1 10 -14 58.15 12.81
-1 -10 14 45.98 13.86
-1 -10 14 68.93 11.97
0 10 -14 134 14.69
0 -10 14 143.41 18.4
0 -10 14 149.04 15.35
-1 10 -14 117.33 12.29
-1 10 -14 122.2 14.18
1 -10 14 128.29 16.7
-2 10 -14 169.18 18.17
2 -10 14 172.85 19.97
1 9 -14 19.74 9.17
-1 -9 14 11.89 10.28
-1 -9 14 18.64 10.24
0 9 -14 388.46 19.76
0 -9 14 403.28 22.18
0 -9 14 382.2 19.77
-1 9 -14 219.9 15.69
-1 9 -14 244.85 14.07
1 -9 14 210.52 17.12
-2 9 -14 17.01 9.18
2 -9 14 17.79 11.15
2 -9 14 16.01 7.2
2 8 -14 19.96 10.63
-2 -8 14 35.26 11.07
-2 -8 14 11.54 13.42
1 8 -14 122.13 12.52
-1 -8 14 134.17 15.34
-1 -8 14 104.71 14.46
0 8 -14 3.38 6.48
0 8 -14 21.68 6.68
0 -8 14 12.16 8.53
-1 8 -14 235.28 14.22
-1 8 -14 273.69 15.88
1 -8 14 263.94 17.47
-2 8 -14 385.01 20.68
2 -8 14 368.04 22.06
2 -8 14 339.37 17.34
2 7 -14 322.71 19.21
-2 -7 14 327.8 23.09
-2 -7 14 334.85 21.35
1 7 -14 21.21 7.36
-1 -7 14 9.31 9.31
-1 -7 14 15.82 7.55
0 7 -14 937.64 32.34
0 7 -14 935.77 32.36
0 -7 14 980.63 34.84
-1 7 -14 45.35 7
-1 7 -14 43.41 8
1 -7 14 40.07 8.66
-2 7 -14 78.88 11
2 -7 14 77.14 12.28
2 -7 14 61.35 8.49
2 6 -14 119.14 13.38
-2 -6 14 154.89 16.76
-2 -6 14 139.54 15.27
1 6 -14 468.71 19.93
1 6 -14 442.78 20.83
-1 -6 14 468.77 22.84
0 6 -14 29.53 6.62
0 6 -14 30.06 6.65
0 -6 14 36.3 8.51
-1 6 -14 578.7 21.13
-1 6 -14 564.79 22.99
1 -6 14 585.29 23.8
1 -6 14 577.68 17.29
-2 6 -14 387.19 19.91
2 -6 14 386.75 17.26
2 -6 14 397.67 20.88
2 5 -14 70.25 10.59
2 5 -14 66.23 9.74
-2 -5 14 57.26 11.28
1 5 -14 202.62 12.53
1 5 -14 213.26 13.91
-1 -5 14 222.5 14.89
0 5 -14 610.84 23.38
0 5 -14 602.72 22.2
0 -5 14 599.39 24.29
-1 5 -14 37.46 6.05
-1 5 -14 31.29 7.44
1 -5 14 39.48 3.66
1 -5 14 42.67 8.73
-2 5 -14 219 8.94
-2 5 -14 184.27 15.62
2 -5 14 207.64 15.79
2 -5 14 197.67 12.89
3 4 -14 4.6 9.44
3 4 -14 5.14 8.85
-3 -4 14 -7.48 11.28
2 4 -14 326.07 18.55
2 4 -14 289.4 15.14
-2 -4 14 315.35 19.29
1 4 -14 383.74 18.38
1 4 -14 378.03 16.39
-1 -4 14 363.98 19.7
0 4 -14 21.58 5.89
0 4 -14 18.57 5.62
0 -4 14 19.24 7.21
-1 4 -14 363.71 15.8
-1 4 -14 381.11 17.21
1 -4 14 382.06 18.75
1 -4 14 380.12 13.05
-2 4 -14 180.84 14.09
-2 4 -14 145.93 11.26
2 -4 14 180.18 13.14
2 -4 14 183.17 15.43
3 3 -14 233.38 15.33
3 3 -14 257.32 19.12
-3 -3 14 287.84 21.07
2 3 -14 163.38 11.49
2 3 -14 179.14 13.78
-2 -3 14 166.13 14.4
1 3 -14 151.82 12.03
1 3 -14 153.58 9.98
-1 -3 14 150.11 13.07
0 3 -14 157.18 10.7
0 3 -14 145.03 10.28
0 -3 14 141.77 6.53
0 -3 14 146.8 12.17
-1 3 -14 24.8 6.27
-1 3 -14 24.79 5.65
1 -3 14 22 6.17
1 -3 14 30.87 7.85
-2 3 -14 404.34 16.95
-2 3 -14 407.75 20.69
2 -3 14 411.32 20.81
2 -3 14 413.71 18.33
3 2 -14 35.1 9.63
3 2 -14 37.93 7.68
-3 -2 14 44.61 11.73
2 2 -14 285.29 13.99
2 2 -14 303.63 17.32
-2 -2 14 291.12 18.49
1 2 -14 12.67 5.35
1 2 -14 9.68 3.16
-1 -2 14 9.09 6.89
0 2 -14 27.02 5.96
0 2 -14 46.98 7.17
0 -2 14 31.09 7.78
0 -2 14 28.74 3.3
-1 2 -14 248.8 13.58
-1 2 -14 250.5 12.96
1 -2 14 254.32 15.19
1 -2 14 244.88 13.49
-2 2 -14 114.03 10.9
-2 2 -14 107.2 13.75
2 -2 14 124.97 14.53
2 -2 14 110.95 12.65
3 1 -14 349.73 21.01
3 1 -14 341.85 23.47
-3 -1 14 353.59 21.89
2 1 -14 100.86 6.11
2 1 -14 106.91 11.59
-2 -1 14 84.29 12.45
1 1 -14 606.63 23.6
1 1 -14 621.93 19.21
-1 -1 14 597.29 24.64
-1 -1 14 607.16 18.57
0 1 -14 251.44 13.38
0 -1 14 232.38 9.96
0 -1 14 247.9 15.1
-1 1 -14 97.93 9.39
-1 1 -14 108.09 10.63
1 -1 14 106.02 12.25
1 -1 14 106.57 10.56
-2 1 -14 351.95 16.67
-2 1 -14 339.51 19.07
2 -1 14 321.32 18.71
2 -1 14 337.71 18.07
3 0 -14 75.18 11.62
-3 0 14 79.94 12.68
2 0 -14 310.7 17.05
2 0 -14 326.55 11.14
-2 0 14 320.8 18.16
-2 0 14 313.67 11.88
1 0 -14 369.39 16.99
1 0 -14 365.63 12.44
-1 0 14 371.29 18.92
-1 0 14 352.96 12.62
0 0 -14 256.07 13.58
0 0 -14 269.06 10.12
0 0 14 255.63 15.48
0 0 14 240.94 13.03
-1 0 -14 435.94 18.32
-1 0 -14 436.53 18.72
1 0 14 444.21 19.2
1 0 14 417.72 20.15
-2 0 -14 -15.71 7.83
-2 0 -14 12.25 7.58
2 0 14 23.66 9.07
2 0 14 -11.19 8.57
3 -1 -14 208.72 16.15
-3 1 14 195.9 15.48
-3 1 14 243.97 19.17
2 -1 -14 22.62 6.43
-2 1 14 17.82 7.49
-2 1 14 25.12 7.36
1 -1 -14 352.09 11.76
1 -1 -14 363.31 17.09
-1 1 14 369.57 19.05
-1 1 14 369.78 15.7
0 -1 -14 128.89 10.48
0 -1 -14 118.27 6.73
0 1 14 109.49 11.46
0 1 14 110.36 10.87
-1 -1 -14 26.42 7.05
-1 -1 -14 29.34 7.27
1 1 14 39.84 8.84
1 1 14 28.54 8.23
3 -2 -14 162.15 14.68
-3 2 14 164.09 14.44
-3 2 14 167.28 15.86
2 -2 -14 388.72 17.89
-2 2 14 326.72 17.32
-2 2 14 389.9 20.02
1 -2 -14 16.81 5.76
-1 2 14 25.89 6.65
-1 2 14 20.32 7.92
0 -2 -14 129.6 7.06
0 -2 -14 132.51 11.02
0 2 14 133.56 11.72
0 2 14 133.54 12.14
-1 -2 -14 325.47 16.62
-1 -2 -14 332.51 16.99
1 2 14 309.33 17.13
1 2 14 327 18.6
3 -3 -14 27.92 8.24
-3 3 14 22.05 8.69
-3 3 14 25.62 10.08
2 -3 -14 32.31 7.28
-2 3 14 38.83 9.7
-2 3 14 47.17 8.27
1 -3 -14 490.65 21.01
-1 3 14 518.04 20.84
-1 3 14 513.74 22.97
0 -3 -14 295.74 10.8
0 -3 -14 268.48 15.4
0 3 14 276.14 16.1
0 3 14 268.21 16.04
-1 -3 -14 50.28 8.99
-1 -3 -14 44.74 8.7
1 3 14 34.81 11.13
1 3 14 41.59 10.51
3 -4 -14 249.36 17.18
-3 4 14 273.94 19.46
-3 4 14 258.72 18.07
2 -4 -14 292.05 16.36
-2 4 14 297.62 16.92
-2 4 14 284.26 18.33
1 -4 -14 22.34 6.48
-1 4 14 23.44 8.35
-1 4 14 23.41 8.1
0 -4 -14 159.04 13.16
0 4 14 193.08 14.78
0 4 14 197.49 14.98
2 -5 -14 161.61 13.42
-2 5 14 147.77 15.51
-2 5 14 166.12 15.69
1 -5 -14 178.48 13.6
-1 5 14 184.56 15.52
-1 5 14 189.32 15.36
0 -5 -14 38.85 8.42
0 5 14 25.58 8.86
0 5 14 27.09 9.92
2 -6 -14 185.9 14.98
-2 6 14 167.43 17.22
-2 6 14 180.28 17.19
1 -6 -14 -6.37 7.02
-1 6 14 14.9 9.44
-1 6 14 11.29 8.58
-1 11 -15 190.33 15.26
-1 11 -15 187.21 20.7
1 -11 15 181.7 22.26
0 10 -15 155.32 16.23
0 -10 15 166.8 18.95
0 -10 15 149.65 15.74
-1 10 -15 61.96 8.93
-1 10 -15 82.14 12.39
1 -10 15 97.6 14.51
1 9 -15 52.71 10.89
-1 -9 15 54.86 13.63
-1 -9 15 39.25 11.97
0 9 -15 131.32 13.99
0 9 -15 125.2 12.85
0 -9 15 134.58 17.41
-1 9 -15 263.25 16.36
-1 9 -15 314.54 18.44
1 -9 15 310.62 20.18
-2 9 -15 22.27 10.38
2 -9 15 21.11 12.68
1 8 -15 132.42 14.74
-1 -8 15 158.95 18.23
-1 -8 15 157.91 15.48
0 8 -15 22.57 7.02
0 8 -15 21.18 8.08
0 -8 15 38.31 11.28
-1 8 -15 82.48 10.89
-1 8 -15 61.21 10.01
1 -8 15 65.91 11.6
-2 8 -15 239.64 18.57
2 -8 15 221.61 16.2
2 -8 15 243.87 19.71
2 7 -15 309.09 18.97
-2 -7 15 302.22 22.89
-2 -7 15 293.49 20.37
1 7 -15 83.84 11.72
1 7 -15 86.76 11.08
-1 -7 15 81.07 13
0 7 -15 94.43 11.78
0 7 -15 101.2 11.24
0 -7 15 101.5 14.3
-1 7 -15 46.93 7.09
-1 7 -15 46.55 9.66
1 -7 15 50.84 10.18
-2 7 -15 13.85 8.24
2 -7 15 12.8 10.56
2 -7 15 14.11 6.8
2 6 -15 68.64 10.16
2 6 -15 68.72 10.62
-2 -6 15 69 13.6
1 6 -15 393.36 18.33
1 6 -15 374.2 19.36
-1 -6 15 393.25 21.74
0 6 -15 -5.55 5.82
0 6 -15 4.27 5.92
0 -6 15 19.52 7.3
-1 6 -15 321.75 15.49
-1 6 -15 358.99 17.96
1 -6 15 320.03 18.86
-2 6 -15 169.77 15.52
2 -6 15 172.65 16.66
2 -6 15 180.06 13.29
2 5 -15 140.05 13.36
2 5 -15 154.86 14.83
-2 -5 15 124.27 16.65
1 5 -15 32.57 7.73
1 5 -15 38.33 7.33
-1 -5 15 31 9.27
0 5 -15 223.43 13.71
0 5 -15 206.34 12.66
0 -5 15 223.35 15.28
-1 5 -15 83.06 11.3
-1 5 -15 83.7 9.34
1 -5 15 85.5 11.87
1 -5 15 78.87 5.75
-2 5 -15 116.31 13.89
2 -5 15 97.58 12.02
2 -5 15 102.46 12.92
2 4 -15 204.12 14.99
2 4 -15 201.28 13.24
-2 -4 15 196.79 18.08
1 4 -15 243.44 12.91
1 4 -15 245.02 15.54
-1 -4 15 222.78 16.95
0 4 -15 12.18 5.68
0 4 -15 7.32 5.67
0 -4 15 8.62 7.17
-1 4 -15 422.41 17.62
-1 4 -15 434.8 19.32
1 -4 15 447.61 21.37
1 -4 15 423.5 17.46
-2 4 -15 330.62 19.14
2 -4 15 327.59 20.51
2 -4 15 318.29 16.8
2 3 -15 20.61 7.22
2 3 -15 5.63 6.29
-2 -3 15 8.6 8.59
1 3 -15 181.47 13.4
-1 -3 15 200.11 15.82
0 3 -15 1192.37 36.6
0 3 -15 1185.18 37.87
0 -3 15 1169.51 39.85
0 -3 15 1177.96 32.9
-1 3 -15 100.32 9.83
-1 3 -15 106.67 11.55
1 -3 15 108.49 15.95
1 -3 15 129.61 13.57
-2 3 -15 240.13 13.55
-2 3 -15 225.37 17
2 -3 15 269.39 19.25
2 -3 15 227.54 15.83
3 2 -15 61.69 12.58
3 2 -15 67.65 9.69
-3 -2 15 81.87 13.67
2 2 -15 274.75 17.55
2 2 -15 250.79 13.32
-2 -2 15 294.53 19.43
1 2 -15 185.64 10.94
1 2 -15 196.38 13.41
-1 -2 15 180.45 14.25
0 2 -15 13.7 5.76
0 -2 15 9.6 7.26
0 -2 15 10.04 3.38
-1 2 -15 1249.61 38.88
-1 2 -15 1251.63 39.65
1 -2 15 1270.97 38.4
1 -2 15 1275.63 41.55
-2 2 -15 255.12 17.89
-2 2 -15 239.76 14.5
2 -2 15 232.94 16.33
2 -2 15 252.98 18.34
3 1 -15 200.19 18.39
-3 -1 15 219.29 19.44
2 1 -15 1.83 3.84
2 1 -15 0.4 6.48
-2 -1 15 4.76 8.05
1 1 -15 122.57 10.86
1 1 -15 132.65 6.92
-1 -1 15 129.34 13.27
0 1 -15 179.57 12.22
0 1 -15 196.14 11.21
0 -1 15 179.34 12.04
0 -1 15 185.28 15.06
-1 1 -15 391.2 17.37
-1 1 -15 371.87 18.09
1 -1 15 370.35 17.91
1 -1 15 383.34 19.79
3 0 -15 54.95 10.67
-3 0 15 59.27 12.65
2 0 -15 534.54 23.59
-2 0 15 561.59 17.94
-2 0 15 546.83 25.36
1 0 -15 369.27 12.61
1 0 -15 389.75 17.8
-1 0 15 361.03 19.63
-1 0 15 374.23 14.7
0 0 -15 278.77 13.65
0 0 -15 288.77 14.9
0 0 15 260.9 14.16
0 0 15 264.07 17.01
-1 0 -15 264.89 15.76
-1 0 -15 266.04 14.94
1 0 15 301.36 17.13
1 0 15 288.05 17.75
3 -1 -15 216.47 17.5
-3 1 15 243.05 19.91
2 -1 -15 20.07 6.96
-2 1 15 29.93 7.53
-2 1 15 18.22 8.67
1 -1 -15 175.59 12.92
-1 1 15 189.1 14.71
0 -1 -15 214.12 13.32
0 -1 -15 212.99 15.38
0 1 15 215.42 13.75
0 1 15 213.15 15.46
-1 -1 -15 48.66 8.31
-1 -1 -15 30.03 7.61
1 1 15 50.17 10.61
1 1 15 44.58 9.54
3 -2 -15 14.11 8.91
-3 2 15 35.45 17.38
2 -2 -15 315.25 17.53
-2 2 15 297.03 16.59
-2 2 15 330.45 19.6
1 -2 -15 95.95 10.86
-1 2 15 99.27 12.58
-1 2 15 75.36 10.89
0 -2 -15 188.55 12.13
0 -2 -15 205.96 13.24
0 2 15 203.92 14.27
0 2 15 199.28 15.63
-1 -2 -15 133.59 13.02
-1 -2 -15 114.15 13.25
1 2 15 121.35 15.57
1 2 15 120.84 13.95
2 -3 -15 0.4 6.81
-2 3 15 26.43 8.02
-2 3 15 8.76 8.85
1 -3 -15 364.16 18.08
-1 3 15 357.17 19.81
-1 3 15 361.67 17.83
0 -3 -15 57.43 8.79
0 3 15 94.66 12.94
0 3 15 65.83 10.29
2 -4 -15 141.88 13.43
-2 4 15 149.56 16.08
-2 4 15 159.05 15.14
1 -4 -15 3.47 6.6
-1 4 15 2.76 8.58
-1 4 15 1.06 8.04
0 -4 -15 539.16 23.86
0 4 15 557.46 24.85
0 4 15 575.87 24.2
2 -5 -15 44.44 10.95
-2 5 15 47.27 11.25
1 -5 -15 80.71 10.64
-1 5 15 107.72 14.92
-1 5 15 106.47 14.12
0 9 -16 260.02 16.55
0 9 -16 250.48 17.97
0 -9 16 247.08 21.17
-1 9 -16 326.63 18.23
-1 9 -16 349.46 20.45
1 -9 16 372.75 23.33
1 8 -16 254.29 17.2
1 8 -16 263.06 18.28
-1 -8 16 253.32 22.31
0 8 -16 108.98 12.63
0 8 -16 93.84 11.49
0 -8 16 116.83 16.33
-1 8 -16 154.47 15.77
-1 8 -16 167.01 12.81
1 -8 16 146.79 16.69
1 7 -16 32.06 8.54
1 7 -16 36.86 8.75
-1 -7 16 56.09 12.26
0 7 -16 181.25 14.42
0 7 -16 176.05 14.09
0 -7 16 205.44 17
-1 7 -16 538.71 21.67
-1 7 -16 534.62 24.1
1 -7 16 565.83 26.68
1 6 -16 288.53 17.75
1 6 -16 278.25 16.37
-1 -6 16 303.22 20.67
0 6 -16 -5.96 6.09
0 6 -16 -3.31 6.14
0 -6 16 12.02 8.49
-1 6 -16 264.7 14.35
-1 6 -16 249.23 16.54
1 -6 16 268.78 18.53
2 5 -16 100.38 13.99
2 5 -16 107.32 13.13
-2 -5 16 98.75 16.02
1 5 -16 5.94 7.46
1 5 -16 5.91 6.52
-1 -5 16 6.97 9.3
0 5 -16 364.29 17.93
0 5 -16 375.8 17.4
0 -5 16 360.55 20.6
-1 5 -16 149.04 13.17
-1 5 -16 138.43 11.63
1 -5 16 126.43 8.94
1 -5 16 158.16 16.1
2 4 -16 215.31 17.12
2 4 -16 193.83 14.28
-2 -4 16 189.16 18.73
1 4 -16 348.03 16.5
1 4 -16 365.8 19.45
-1 -4 16 359.92 21.03
0 4 -16 4.28 5.85
0 4 -16 -4.65 6.01
0 -4 16 6.24 7.94
-1 4 -16 253.92 14.27
-1 4 -16 274.06 16.17
1 -4 16 274.13 17.58
1 -4 16 252.46 13.59
2 3 -16 -13.17 7.55
2 3 -16 -6.18 6.32
-2 -3 16 11.28 9.3
1 3 -16 59.2 8.83
1 3 -16 69.85 10.18
-1 -3 16 71.01 11.85
0 3 -16 452.09 18.87
0 3 -16 455.79 19.49
0 -3 16 431.54 14.4
0 -3 16 428.37 21.69
-1 3 -16 192.57 14.38
-1 3 -16 178.83 12.43
1 -3 16 177.29 16.36
1 -3 16 187.06 13.46
2 2 -16 350.46 19.63
-2 -2 16 343.81 21.75
1 2 -16 109.64 11.76
1 2 -16 124.28 9.93
-1 -2 16 100.03 13.86
0 2 -16 185.29 12.6
0 2 -16 179.79 12.16
0 -2 16 149.73 15.3
-1 2 -16 874.76 30.5
-1 2 -16 850.22 29.32
1 -2 16 852.45 29.83
1 -2 16 868.82 33.14
2 1 -16 73.73 11.13
-2 -1 16 92.57 12.95
1 1 -16 9.46 6.42
-1 -1 16 -0.16 7.7
-1 -1 16 12.79 4.04
0 1 -16 468.68 19.98
0 1 -16 435.02 18.44
0 -1 16 469.87 22.51
-1 1 -16 36.82 8.41
-1 1 -16 28.24 7.55
1 -1 16 14.49 9.84
1 -1 16 40.03 9.69
2 0 -16 399.72 20.63
-2 0 16 425.83 22.97
1 0 -16 14.5 6.3
-1 0 16 19.34 6.57
-1 0 16 9.57 7.81
0 0 -16 329.69 22.54
0 0 -16 301.85 15.86
0 0 16 294.87 18.16
0 0 16 263.92 15.05
-1 0 -16 262.7 16.27
-1 0 -16 255.23 15.28
1 0 16 264.28 18.54
1 0 16 215.13 17.54
2 -1 -16 10.72 6.91
-2 1 16 14.74 9.28
-2 1 16 18.35 7.85
1 -1 -16 75.39 10.1
-1 1 16 84.39 10.91
-1 1 16 84.03 13.07
0 -1 -16 171.59 13.04
0 -1 -16 170.06 12.64
0 1 16 164.78 15.06
0 1 16 189.02 14.16
2 -2 -16 595.74 25.63
-2 2 16 610.66 28.03
-2 2 16 556.1 23.57
1 -2 -16 69.34 10.26
-1 2 16 79.64 11.49
-1 2 16 79.59 11.9
0 -2 -16 83.49 11.45
0 2 16 90.46 11.36
0 2 16 85.67 11.64
2 -3 -16 6.58 6.96
-2 3 16 5.26 9.78
-2 3 16 15.68 9.13
1 -3 -16 292.18 17.4
-1 3 16 283.94 17.68
-1 3 16 328.22 19.86
0 8 -17 99.19 13.92
0 8 -17 109.4 14.25
0 -8 17 128.65 17.64
1 7 -17 -1.05 8.31
1 7 -17 10.03 8.71
-1 -7 17 -1.42 11.81
0 7 -17 286.51 18.26
0 7 -17 316.18 18.26
0 -7 17 345.6 21.89
-1 7 -17 148.7 15.86
-1 7 -17 161.63 13.32
1 -7 17 169.9 19.58
1 6 -17 96.55 12.82
1 6 -17 102.4 13.85
-1 -6 17 128.34 16.97
0 6 -17 -3.01 6.41
0 6 -17 0.62 6.74
0 -6 17 -2.75 9.06
-1 6 -17 143.34 14.77
-1 6 -17 159.33 12.85
1 -6 17 149.52 18.01
1 5 -17 2.3 7.46
1 5 -17 5.77 7.27
-1 -5 17 4.29 9.61
0 5 -17 367.6 18.44
0 5 -17 375.7 19.01
0 -5 17 390.66 22.37
-1 5 -17 131.01 14.08
-1 5 -17 106.06 11.61
1 -5 17 138.15 16.07
1 4 -17 324.26 18.79
1 4 -17 320.43 15.85
-1 -4 17 334.56 21.66
0 4 -17 13.95 6.84
0 4 -17 6.34 6.51
0 -4 17 -1.1 8.96
-1 4 -17 200.76 13.72
-1 4 -17 224.24 15.21
1 -4 17 209.23 14.64
1 -4 17 238.11 18.7
2 3 -17 31.43 7.62
2 3 -17 21.72 10.49
-2 -3 17 26.9 12.23
1 3 -17 77.81 9.91
1 3 -17 64.14 10.1
-1 -3 17 88.39 13.47
0 3 -17 346.58 17.54
0 3 -17 317.87 16.26
0 -3 17 326.9 20.79
-1 3 -17 193.63 14.75
-1 3 -17 199.63 13.83
1 -3 17 179.62 17.65
1 -3 17 217.58 15.46
2 2 -17 136.34 14.4
-2 -2 17 142.33 17.79
1 2 -17 118.23 10.9
1 2 -17 123.46 12.39
-1 -2 17 126.39 15.45
0 2 -17 46.15 8.37
0 2 -17 65.75 8.95
0 -2 17 45.19 11.16
0 -2 17 62.89 9.3
-1 2 -17 91.6 13.64
-1 2 -17 84.74 11.07
1 -2 17 89.53 12.03
1 -2 17 91.28 12.91
2 1 -17 65.58 10.73
-2 -1 17 78.43 13.33
1 1 -17 318.09 17.33
-1 -1 17 306.22 20.57
0 1 -17 647.51 23.56
0 1 -17 633.76 25.11
0 -1 17 587.27 22.9
0 -1 17 678.33 28.65
2 0 -17 126.09 14.82
-2 0 17 149.2 18.53
1 0 -17 4.5 6.44
-1 0 17 6.27 8.62
-1 0 17 6.34 6.87
0 0 -17 28.73 8.11
0 0 -17 31.83 8.16
0 0 17 28.45 10.09
0 0 17 33.26 9.13
1 -1 -17 157.99 13.17
-1 1 17 167.52 13.89
-1 1 17 142.87 16.1
0 -1 -17 142.31 13.11
0 1 17 135.43 15.71
0 1 17 126.16 14.61
1 -2 -17 15.09 7.6
0 6 -18 94.18 13.13
0 5 -18 233.55 16.11
0 5 -18 264.23 16.44
0 -5 18 253.95 21.02
1 4 -18 315.28 16.22
1 4 -18 286.38 18.92
-1 -4 18 271.92 26.72
0 4 -18 19.99 6.99
0 4 -18 5.18 7.75
0 -4 18 19.29 11.23
1 3 -18 73.93 10.97
1 3 -18 79.81 11.85
-1 -3 18 67.71 13.36
0 3 -18 215.42 14.72
0 3 -18 205.61 14.58
0 -3 18 154.6 18.65
1 2 -18 235.37 16.7
-1 -2 18 239.11 19.98
0 2 -18 17.22 7.81
0 2 -18 9.71 6.73
0 -2 18 2.75 10.6
