#------------------------------------------------------------------------------
#$Date: 2020-01-15 02:24:57 +0200 (Wed, 15 Jan 2020) $
#$Revision: 246844 $
#$URL: file:///home/coder/svn-repositories/cod/cif/4/03/78/4037816.cif $
#------------------------------------------------------------------------------
#
# This file is available in the Crystallography Open Database (COD),
# http://www.crystallography.net/
#
# All data on this site have been placed in the public domain by the
# contributors.
#
data_4037816
loop_
_publ_author_name
'Jiang, Wei'
'Zhuge, Juanping'
'Li, Jianxiao'
'Histand, Gary'
'Lin, Dongen'
_publ_section_title
;
 Direct Sulfenylation of the Purines C8-H Bond with Thiophenols.
;
_journal_name_full               'The Journal of organic chemistry'
_journal_paper_doi               10.1021/acs.joc.9b03115
_journal_year                    2020
_chemical_formula_moiety         'C14 H12 F2 N4 S2'
_chemical_formula_sum            'C14 H12 F2 N4 S2'
_chemical_formula_weight         338.40
_space_group_crystal_system      triclinic
_space_group_IT_number           2
_space_group_name_Hall           '-P 1'
_space_group_name_H-M_alt        'P -1'
_atom_sites_solution_hydrogens   geom
_atom_sites_solution_primary     dual
_audit_creation_date             2019-07-11
_audit_creation_method
;
Olex2 1.2
(compiled 2018.05.29 svn.r3508 for OlexSys, GUI svn.r5506)
;
_cell_angle_alpha                104.662(7)
_cell_angle_beta                 93.314(7)
_cell_angle_gamma                98.017(7)
_cell_formula_units_Z            2
_cell_length_a                   8.0145(7)
_cell_length_b                   8.3149(6)
_cell_length_c                   11.3067(9)
_cell_measurement_reflns_used    4105
_cell_measurement_temperature    100.00(10)
_cell_measurement_theta_max      29.2640
_cell_measurement_theta_min      2.5410
_cell_volume                     718.40(10)
_computing_cell_refinement       'CrysAlisPro 1.171.38.43f (Rigaku OD, 2015)'
_computing_data_collection       'CrysAlisPro 1.171.38.43f (Rigaku OD, 2015)'
_computing_data_reduction        'CrysAlisPro 1.171.38.43f (Rigaku OD, 2015)'
_computing_molecular_graphics    'Olex2 (Dolomanov et al., 2009)'
_computing_publication_material  'Olex2 (Dolomanov et al., 2009)'
_computing_structure_refinement  'ShelXL (Sheldrick, 2015)'
_computing_structure_solution    'ShelXT (Sheldrick, 2015)'
_diffrn_ambient_environment      N~2~
_diffrn_ambient_temperature      100.00(10)
_diffrn_detector                 'CCD plate'
_diffrn_detector_area_resol_mean 5.2684
_diffrn_detector_type            AtlasS2
_diffrn_measured_fraction_theta_full 1.000
_diffrn_measured_fraction_theta_max 1.000
_diffrn_measurement_details
;
List of Runs (angles in degrees, time in seconds):

  # Type    Start    End  Width  t~exp~   \w     \q     \k     \f   Frames
--------------------------------------------------------------------------
  1  \w    -40.00  62.00   1.00    1.00    --  -11.59  57.00  60.00  102
  2  \w    -85.00  17.00   1.00    1.00    --  -11.59 -57.00 -90.00  102
  3  \w    -21.00  88.00   1.00    1.00    --   11.74  77.00-180.00  109
  4  \w    -20.00  53.00   1.00    1.00    --   11.74 -99.00-150.00   73
  5  \w    -16.00  23.00   1.00    1.00    --   11.74  57.00  90.00   39
  6  \w     34.00  99.00   1.00    1.00    --   11.74-178.00  30.00   65
;
_diffrn_measurement_device       'four-circle diffractometer'
_diffrn_measurement_device_type  'SuperNova, Dual, Cu at zero, AtlasS2'
_diffrn_measurement_method       '\w scans'
_diffrn_orient_matrix_type
'CrysAlisPro convention (1999,Acta A55,543-557)'
_diffrn_orient_matrix_UB_11      -0.0086623000
_diffrn_orient_matrix_UB_12      0.0088284000
_diffrn_orient_matrix_UB_13      -0.0607287000
_diffrn_orient_matrix_UB_21      -0.0106418000
_diffrn_orient_matrix_UB_22      -0.0887619000
_diffrn_orient_matrix_UB_23      -0.0234840000
_diffrn_orient_matrix_UB_31      -0.0887461000
_diffrn_orient_matrix_UB_32      -0.0046395000
_diffrn_orient_matrix_UB_33      0.0023353000
_diffrn_radiation_monochromator  mirror
_diffrn_radiation_probe          x-ray
_diffrn_radiation_type           MoK\a
_diffrn_radiation_wavelength     0.71073
_diffrn_reflns_av_R_equivalents  0.0344
_diffrn_reflns_av_unetI/netI     0.0401
_diffrn_reflns_Laue_measured_fraction_full 1.000
_diffrn_reflns_Laue_measured_fraction_max 1.000
_diffrn_reflns_limit_h_max       9
_diffrn_reflns_limit_h_min       -9
_diffrn_reflns_limit_k_max       9
_diffrn_reflns_limit_k_min       -9
_diffrn_reflns_limit_l_max       13
_diffrn_reflns_limit_l_min       -13
_diffrn_reflns_number            8127
_diffrn_reflns_point_group_measured_fraction_full 1.000
_diffrn_reflns_point_group_measured_fraction_max 1.000
_diffrn_reflns_theta_full        25.000
_diffrn_reflns_theta_max         25.000
_diffrn_reflns_theta_min         2.565
_diffrn_source                   'micro-focus sealed X-ray tube'
_diffrn_source_type              'SuperNova (Mo) X-ray Source'
_exptl_absorpt_coefficient_mu    0.394
_exptl_absorpt_correction_T_max  1.00000
_exptl_absorpt_correction_T_min  0.79771
_exptl_absorpt_correction_type   multi-scan
_exptl_absorpt_process_details
;
CrysAlisPro 1.171.38.43f (Rigaku Oxford Diffraction, 2015)
Empirical absorption correction using spherical harmonics,
 implemented in SCALE3 ABSPACK scaling algorithm.
;
_exptl_crystal_colour            colourless
_exptl_crystal_colour_primary    colourless
_exptl_crystal_density_diffrn    1.564
_exptl_crystal_description       block
_exptl_crystal_F_000             348
_exptl_crystal_size_max          0.15
_exptl_crystal_size_mid          0.14
_exptl_crystal_size_min          0.12
_refine_diff_density_max         0.275
_refine_diff_density_min         -0.341
_refine_diff_density_rms         0.067
_refine_ls_extinction_method     none
_refine_ls_goodness_of_fit_ref   1.089
_refine_ls_hydrogen_treatment    constr
_refine_ls_matrix_type           full
_refine_ls_number_parameters     201
_refine_ls_number_reflns         2534
_refine_ls_number_restraints     0
_refine_ls_restrained_S_all      1.089
_refine_ls_R_factor_all          0.0426
_refine_ls_R_factor_gt           0.0358
_refine_ls_shift/su_max          0.000
_refine_ls_shift/su_mean         0.000
_refine_ls_structure_factor_coef Fsqd
_refine_ls_weighting_details
'w=1/[\s^2^(Fo^2^)+(0.0409P)^2^+0.2566P] where P=(Fo^2^+2Fc^2^)/3'
_refine_ls_weighting_scheme      calc
_refine_ls_wR_factor_gt          0.0857
_refine_ls_wR_factor_ref         0.0907
_reflns_Friedel_coverage         0.000
_reflns_number_gt                2207
_reflns_number_total             2534
_reflns_threshold_expression     'I > 2\s(I)'
_iucr_refine_instructions_details
;
TITL jw-19-3_a.res in P-1
    jw-19-3.res
    created by SHELXL-2018/3 at 13:43:19 on 11-Jul-2019
REM Old TITL jw-19-3 in P-1
REM SHELXT solution in P-1: R1 0.091, Rweak 0.005, Alpha 0.033
REM <I/s> 0.000 for 0 systematic absences, Orientation as input
REM Formula found by SHELXT: C14 N4 S2 F2
CELL 0.71073 8.0145 8.3149 11.3067 104.662 93.314 98.017
ZERR 2 0.0007 0.0006 0.0009 0.007 0.007 0.007
LATT 1
SFAC C H F N S
UNIT 28 24 4 8 4

L.S. 10
PLAN  20
BOND $H
list 4
fmap 2
acta
OMIT -3 50
REM <olex2.extras>
REM <HklSrc "%.\\jw-19-3.hkl">
REM </olex2.extras>

WGHT    0.040900    0.256600
FVAR       0.70200
S2    5    0.261330    0.305588    0.101139    11.00000    0.01686    0.01944 =
         0.01703    0.00005    0.00014    0.00262
S1    5    0.784468    0.757833    0.487672    11.00000    0.01408    0.02227 =
         0.01693    0.00036    0.00181    0.00386
F1    3    0.814303    0.071373    0.136056    11.00000    0.02376    0.03209 =
         0.02191    0.00606   -0.00084    0.01054
F2    3    0.894508    0.111506   -0.082592    11.00000    0.02081    0.02575 =
         0.03011    0.00507    0.01026    0.00653
N3    4    0.199068    0.519914    0.309717    11.00000    0.01265    0.01713 =
         0.01510    0.00553    0.00058    0.00135
N1    4    0.503351    0.856599    0.583650    11.00000    0.01876    0.02098 =
         0.01315    0.00457    0.00183    0.00712
N4    4    0.479651    0.522934    0.291088    11.00000    0.01646    0.01493 =
         0.01261    0.00280    0.00201    0.00368
N2    4    0.214625    0.741224    0.499746    11.00000    0.01817    0.02378 =
         0.01332    0.00630    0.00347    0.00679
C3    1    0.454882    0.640656    0.397863    11.00000    0.01671    0.01420 =
         0.01362    0.00694    0.00379    0.00342
C4    1    0.282537    0.640155    0.409421    11.00000    0.01917    0.01819 =
         0.01201    0.00745    0.00344    0.00543
C5    1    0.324655    0.456593    0.241886    11.00000    0.01715    0.01606 =
         0.01425    0.00671    0.00340    0.00337
C10   1    0.708990    0.141240    0.072745    11.00000    0.01826    0.01514 =
         0.01739    0.00211   -0.00340    0.00120
C9    1    0.564244    0.188547    0.119772    11.00000    0.01923    0.01581 =
         0.01007   -0.00078   -0.00019   -0.00018
AFIX  43
H9    2    0.537164    0.174872    0.195885    11.00000   -1.20000
AFIX   0
C8    1    0.459098    0.257288    0.051210    11.00000    0.01812    0.01131 =
         0.01649    0.00063    0.00155   -0.00051
C2    1    0.566328    0.753017    0.491445    11.00000    0.01717    0.01434 =
         0.01439    0.00717    0.00121    0.00412
C7    1   -0.063338    0.561782    0.199377    11.00000    0.01519    0.02341 =
         0.02302    0.00451    0.00119    0.00239
AFIX 137
H7A   2   -0.018077    0.535070    0.121242    11.00000   -1.50000
H7B   2   -0.037419    0.680972    0.235972    11.00000   -1.50000
H7C   2   -0.183906    0.527580    0.188049    11.00000   -1.50000
AFIX   0
C1    1    0.334258    0.844590    0.580787    11.00000    0.01991    0.02206 =
         0.01393    0.00299    0.00206    0.00872
AFIX  43
H1    2    0.295088    0.919580    0.644899    11.00000   -1.20000
AFIX   0
C6    1    0.014978    0.469368    0.283215    11.00000    0.01127    0.02087 =
         0.02178    0.00460    0.00104   -0.00208
AFIX  23
H6A   2   -0.036879    0.490941    0.359925    11.00000   -1.20000
H6B   2   -0.009786    0.349220    0.244864    11.00000   -1.20000
AFIX   0
C13   1    0.497673    0.275123   -0.063385    11.00000    0.02383    0.01539 =
         0.02091    0.00541    0.00031    0.00342
AFIX  43
H13   2    0.426154    0.321381   -0.108592    11.00000   -1.20000
AFIX   0
C11   1    0.749892    0.159386   -0.040580    11.00000    0.01969    0.01295 =
         0.02117   -0.00020    0.00583   -0.00044
C14   1    0.865370    0.918627    0.626158    11.00000    0.01812    0.02152 =
         0.02000   -0.00009   -0.00152    0.00149
AFIX 137
H14A  2    0.832210    1.023489    0.621211    11.00000   -1.50000
H14B  2    0.986660    0.930918    0.635682    11.00000   -1.50000
H14C  2    0.820382    0.887222    0.695431    11.00000   -1.50000
AFIX   0
C12   1    0.643656    0.223515   -0.110170    11.00000    0.02964    0.01920 =
         0.01910    0.00743    0.00943    0.00230
AFIX  43
H12   2    0.669244    0.232247   -0.187714    11.00000   -1.20000
AFIX   0
HKLF 4




REM  jw-19-3_a.res in P-1
REM wR2 = 0.0907, GooF = S = 1.089, Restrained GooF = 1.089 for all data
REM R1 = 0.0358 for 2207 Fo > 4sig(Fo) and 0.0426 for all 2534 data
REM 201 parameters refined using 0 restraints

END  
     
WGHT      0.0403      0.2623 

REM Highest difference peak  0.275,  deepest hole -0.341,  1-sigma level  0.067
Q1    1   0.5195  0.6530  0.4662  11.00000  0.05    0.27
Q2    1   0.4964  0.3194  0.0232  11.00000  0.05    0.27
Q3    1   0.3815  0.2749  0.0838  11.00000  0.05    0.27
Q4    1   0.8199  0.8568  0.4423  11.00000  0.05    0.26
Q5    1   0.2889  0.3832  0.1796  11.00000  0.05    0.26
Q6    1   0.6642  0.7618  0.4890  11.00000  0.05    0.25
Q7    1   0.4821  0.5880  0.3661  11.00000  0.05    0.24
Q8    1   0.7593  0.6212  0.4804  11.00000  0.05    0.21
Q9    1   0.2380  0.1590  0.0934  11.00000  0.05    0.21
Q10   1   0.6133  0.1418  0.0757  11.00000  0.05    0.21
Q11   1   0.7709  0.6452  0.5359  11.00000  0.05    0.21
Q12   1   0.5653 -0.0214  0.0025  11.00000  0.05    0.21
Q13   1   0.1378  0.3187  0.1268  11.00000  0.05    0.21
Q14   1   0.7912  0.8872  0.8103  11.00000  0.05    0.21
Q15   1   0.8000  0.8055  0.5788  11.00000  0.05    0.20
Q16   1   0.6878  0.2243 -0.2157  11.00000  0.05    0.20
Q17   1   0.3789  0.6042  0.4177  11.00000  0.05    0.20
Q18   1   0.5224  0.5198 -0.0344  11.00000  0.05    0.20
Q19   1   0.6983  0.2401  0.2576  11.00000  0.05    0.20
Q20   1   0.6993  0.0920 -0.0052  11.00000  0.05    0.19

  REM The information below was added by Olex2.
  REM
  REM R1 = 0.0358 for 2207 Fo > 4sig(Fo) and 0.0426 for all 9625 data
  REM n/a parameters refined using n/a restraints
  REM Highest difference peak 0.27, deepest hole -0.34
  REM Mean Shift 0, Max Shift 0.000.

  REM +++ Tabular Listing of Refinement Information +++
  REM R1_all = 0.0426
  REM R1_gt = 0.0358
  REM wR_ref = 0.0907
  REM GOOF = 1.089
  REM Shift_max = 0.000
  REM Shift_mean = 0
  REM Reflections_all = 9625
  REM Reflections_gt = 2207
  REM Parameters = n/a
  REM Hole = -0.34
  REM Peak = 0.27
  REM Flack = n/a

  
;
_cod_data_source_file            jo9b03115_si_001.cif
_cod_data_source_block           jw-19-3
_cod_database_code               4037816
_shelx_shelxl_version_number     2018/3
_shelx_space_group_comment
;
The symmetry employed for this shelxl refinement is uniquely defined
by the following loop, which should always be used as a source of
symmetry information in preference to the above space-group names.
They are only intended as comments.
;
_reflns_odcompleteness_completeness 99.97
_reflns_odcompleteness_iscentric 1
_reflns_odcompleteness_theta     26.32
_olex2_refinement_description
;
1. Fixed Uiso
 At 1.2 times of:
  All C(H) groups, All C(H,H) groups
 At 1.5 times of:
  All C(H,H,H) groups
2.a Secondary CH2 refined with riding coordinates:
 C6(H6A,H6B)
2.b Aromatic/amide H refined with riding coordinates:
 C9(H9), C1(H1), C13(H13), C12(H12)
2.c Idealised Me refined as rotating group:
 C7(H7A,H7B,H7C), C14(H14A,H14B,H14C)
;
_olex2_submission_special_instructions 'No special instructions were received'
_oxdiff_exptl_absorpt_empirical_details
;
Empirical correction (ABSPACK) includes:
- Absorption correction using spherical harmonics
- Frame scaling
;
_oxdiff_exptl_absorpt_empirical_full_max 1.313
_oxdiff_exptl_absorpt_empirical_full_min 0.675
loop_
_space_group_symop_operation_xyz
'x, y, z'
'-x, -y, -z'
loop_
_atom_site_label
_atom_site_type_symbol
_atom_site_fract_x
_atom_site_fract_y
_atom_site_fract_z
_atom_site_U_iso_or_equiv
_atom_site_adp_type
_atom_site_occupancy
_atom_site_site_symmetry_order
_atom_site_calc_flag
_atom_site_refinement_flags_posn
S2 S 0.26133(7) 0.30559(7) 0.10114(5) 0.01874(16) Uani 1 1 d .
S1 S 0.78447(6) 0.75783(7) 0.48767(5) 0.01854(17) Uani 1 1 d .
F1 F 0.81430(15) 0.07137(17) 0.13606(11) 0.0256(3) Uani 1 1 d .
F2 F 0.89451(15) 0.11151(16) -0.08259(12) 0.0254(3) Uani 1 1 d .
N3 N 0.1991(2) 0.5199(2) 0.30972(15) 0.0149(4) Uani 1 1 d .
N1 N 0.5034(2) 0.8566(2) 0.58365(15) 0.0172(4) Uani 1 1 d .
N4 N 0.4797(2) 0.5229(2) 0.29109(15) 0.0147(4) Uani 1 1 d .
N2 N 0.2146(2) 0.7412(2) 0.49975(15) 0.0177(4) Uani 1 1 d .
C3 C 0.4549(3) 0.6407(3) 0.39786(18) 0.0141(4) Uani 1 1 d .
C4 C 0.2825(3) 0.6402(3) 0.40942(18) 0.0155(5) Uani 1 1 d .
C5 C 0.3247(3) 0.4566(3) 0.24189(18) 0.0152(5) Uani 1 1 d .
C10 C 0.7090(3) 0.1412(3) 0.07274(19) 0.0177(5) Uani 1 1 d .
C9 C 0.5642(3) 0.1885(3) 0.11977(18) 0.0162(5) Uani 1 1 d .
H9 H 0.537164 0.174872 0.195885 0.019 Uiso 1 1 calc R
C8 C 0.4591(3) 0.2573(3) 0.05121(19) 0.0162(5) Uani 1 1 d .
C2 C 0.5663(3) 0.7530(3) 0.49145(18) 0.0145(5) Uani 1 1 d .
C7 C -0.0633(3) 0.5618(3) 0.1994(2) 0.0209(5) Uani 1 1 d .
H7A H -0.018077 0.535070 0.121242 0.031 Uiso 1 1 calc GR
H7B H -0.037419 0.680972 0.235972 0.031 Uiso 1 1 calc GR
H7C H -0.183906 0.527580 0.188049 0.031 Uiso 1 1 calc GR
C1 C 0.3343(3) 0.8446(3) 0.58079(19) 0.0184(5) Uani 1 1 d .
H1 H 0.295088 0.919580 0.644899 0.022 Uiso 1 1 calc R
C6 C 0.0150(2) 0.4694(3) 0.2832(2) 0.0186(5) Uani 1 1 d .
H6A H -0.036879 0.490941 0.359925 0.022 Uiso 1 1 calc R
H6B H -0.009786 0.349220 0.244864 0.022 Uiso 1 1 calc R
C13 C 0.4977(3) 0.2751(3) -0.0634(2) 0.0200(5) Uani 1 1 d .
H13 H 0.426154 0.321381 -0.108592 0.024 Uiso 1 1 calc R
C11 C 0.7499(3) 0.1594(3) -0.0406(2) 0.0189(5) Uani 1 1 d .
C14 C 0.8654(3) 0.9186(3) 0.62616(19) 0.0212(5) Uani 1 1 d .
H14A H 0.832210 1.023489 0.621211 0.032 Uiso 1 1 calc GR
H14B H 0.986660 0.930918 0.635682 0.032 Uiso 1 1 calc GR
H14C H 0.820382 0.887222 0.695431 0.032 Uiso 1 1 calc GR
C12 C 0.6437(3) 0.2235(3) -0.1102(2) 0.0221(5) Uani 1 1 d .
H12 H 0.669244 0.232247 -0.187714 0.027 Uiso 1 1 calc R
loop_
_atom_site_aniso_label
_atom_site_aniso_U_11
_atom_site_aniso_U_22
_atom_site_aniso_U_33
_atom_site_aniso_U_23
_atom_site_aniso_U_13
_atom_site_aniso_U_12
S2 0.0169(3) 0.0194(3) 0.0170(3) 0.0000(2) 0.0001(2) 0.0026(2)
S1 0.0141(3) 0.0223(3) 0.0169(3) 0.0004(2) 0.0018(2) 0.0039(2)
F1 0.0238(7) 0.0321(8) 0.0219(7) 0.0061(6) -0.0008(6) 0.0105(6)
F2 0.0208(7) 0.0258(7) 0.0301(7) 0.0051(6) 0.0103(6) 0.0065(6)
N3 0.0127(9) 0.0171(10) 0.0151(9) 0.0055(8) 0.0006(7) 0.0014(7)
N1 0.0188(9) 0.0210(10) 0.0132(9) 0.0046(8) 0.0018(8) 0.0071(8)
N4 0.0165(9) 0.0149(9) 0.0126(9) 0.0028(7) 0.0020(7) 0.0037(7)
N2 0.0182(9) 0.0238(11) 0.0133(9) 0.0063(8) 0.0035(8) 0.0068(8)
C3 0.0167(11) 0.0142(11) 0.0136(10) 0.0069(9) 0.0038(9) 0.0034(9)
C4 0.0192(11) 0.0182(12) 0.0120(10) 0.0074(9) 0.0034(9) 0.0054(9)
C5 0.0171(11) 0.0161(11) 0.0142(11) 0.0067(9) 0.0034(9) 0.0034(9)
C10 0.0183(11) 0.0151(11) 0.0174(11) 0.0021(9) -0.0034(9) 0.0012(9)
C9 0.0192(11) 0.0158(11) 0.0101(10) -0.0008(9) -0.0002(9) -0.0002(9)
C8 0.0181(11) 0.0113(11) 0.0165(11) 0.0006(9) 0.0015(9) -0.0005(9)
C2 0.0172(11) 0.0143(11) 0.0144(10) 0.0072(9) 0.0012(9) 0.0041(9)
C7 0.0152(11) 0.0234(12) 0.0230(12) 0.0045(10) 0.0012(9) 0.0024(9)
C1 0.0199(11) 0.0221(12) 0.0139(11) 0.0030(9) 0.0021(9) 0.0087(10)
C6 0.0113(10) 0.0209(12) 0.0218(12) 0.0046(9) 0.0010(9) -0.0021(9)
C13 0.0238(12) 0.0154(12) 0.0209(12) 0.0054(9) 0.0003(10) 0.0034(10)
C11 0.0197(11) 0.0130(11) 0.0212(12) -0.0002(9) 0.0058(9) -0.0004(9)
C14 0.0181(11) 0.0215(12) 0.0200(12) -0.0001(10) -0.0015(9) 0.0015(10)
C12 0.0296(13) 0.0192(12) 0.0191(11) 0.0074(10) 0.0094(10) 0.0023(10)
loop_
_atom_type_symbol
_atom_type_description
_atom_type_scat_dispersion_real
_atom_type_scat_dispersion_imag
_atom_type_scat_source
C C 0.0033 0.0016 'International Tables Vol C Tables 4.2.6.8 and 6.1.1.4'
H H 0.0000 0.0000 'International Tables Vol C Tables 4.2.6.8 and 6.1.1.4'
F F 0.0171 0.0103 'International Tables Vol C Tables 4.2.6.8 and 6.1.1.4'
N N 0.0061 0.0033 'International Tables Vol C Tables 4.2.6.8 and 6.1.1.4'
S S 0.1246 0.1234 'International Tables Vol C Tables 4.2.6.8 and 6.1.1.4'
loop_
_geom_angle_atom_site_label_1
_geom_angle_atom_site_label_2
_geom_angle_atom_site_label_3
_geom_angle
C5 S2 C8 101.75(10)
C2 S1 C14 101.61(10)
C4 N3 C5 105.34(16)
C4 N3 C6 126.54(16)
C5 N3 C6 128.12(18)
C1 N1 C2 117.49(18)
C5 N4 C3 103.38(16)
C1 N2 C4 111.16(17)
N4 C3 C4 110.60(18)
N4 C3 C2 132.82(18)
C4 C3 C2 116.58(18)
N3 C4 C3 106.27(17)
N2 C4 N3 127.65(18)
N2 C4 C3 126.1(2)
N3 C5 S2 117.58(15)
N4 C5 S2 128.00(15)
N4 C5 N3 114.39(18)
F1 C10 C9 120.34(18)
F1 C10 C11 118.26(17)
C9 C10 C11 121.4(2)
C10 C9 H9 120.8
C10 C9 C8 118.41(18)
C8 C9 H9 120.8
C9 C8 S2 120.62(15)
C9 C8 C13 120.92(18)
C13 C8 S2 118.17(16)
N1 C2 S1 120.92(16)
N1 C2 C3 119.17(18)
C3 C2 S1 119.92(15)
H7A C7 H7B 109.5
H7A C7 H7C 109.5
H7B C7 H7C 109.5
C6 C7 H7A 109.5
C6 C7 H7B 109.5
C6 C7 H7C 109.5
N1 C1 H1 115.3
N2 C1 N1 129.49(19)
N2 C1 H1 115.3
N3 C6 C7 113.03(17)
N3 C6 H6A 109.0
N3 C6 H6B 109.0
C7 C6 H6A 109.0
C7 C6 H6B 109.0
H6A C6 H6B 107.8
C8 C13 H13 120.2
C8 C13 C12 119.7(2)
C12 C13 H13 120.2
F2 C11 C10 119.09(19)
F2 C11 C12 120.58(18)
C12 C11 C10 120.32(19)
S1 C14 H14A 109.5
S1 C14 H14B 109.5
S1 C14 H14C 109.5
H14A C14 H14B 109.5
H14A C14 H14C 109.5
H14B C14 H14C 109.5
C13 C12 H12 120.4
C11 C12 C13 119.27(19)
C11 C12 H12 120.4
loop_
_geom_bond_atom_site_label_1
_geom_bond_atom_site_label_2
_geom_bond_distance
S2 C5 1.756(2)
S2 C8 1.777(2)
S1 C2 1.746(2)
S1 C14 1.800(2)
F1 C10 1.356(2)
F2 C11 1.351(2)
N3 C4 1.369(3)
N3 C5 1.382(2)
N3 C6 1.468(3)
N1 C2 1.346(3)
N1 C1 1.343(3)
N4 C3 1.392(3)
N4 C5 1.315(3)
N2 C4 1.343(3)
N2 C1 1.329(3)
C3 C4 1.394(3)
C3 C2 1.396(3)
C10 C9 1.370(3)
C10 C11 1.380(3)
C9 H9 0.9300
C9 C8 1.386(3)
C8 C13 1.388(3)
C7 H7A 0.9600
C7 H7B 0.9600
C7 H7C 0.9600
C7 C6 1.522(3)
C1 H1 0.9300
C6 H6A 0.9700
C6 H6B 0.9700
C13 H13 0.9300
C13 C12 1.389(3)
C11 C12 1.375(3)
C14 H14A 0.9600
C14 H14B 0.9600
C14 H14C 0.9600
C12 H12 0.9300
loop_
_refln_index_h
_refln_index_k
_refln_index_l
_refln_F_squared_meas
_refln_F_squared_sigma
0 0 2 1776.33 19.07
0 0 2 1724.67 18.87
0 0 -2 1711.45 19.78
0 0 -2 1730.8 18.23
0 0 3 595.8 13.44
0 0 3 577.42 13.27
0 0 -3 601.43 13.23
0 0 -3 582.16 14.23
0 0 4 196.34 8.87
0 0 4 201.53 8.99
0 0 -4 201.99 8.9
0 0 -4 192.77 9.66
0 0 -5 1998.32 19.23
0 0 -5 2045.68 35.27
0 0 -5 1907.15 30.67
0 0 5 1928.39 31.38
0 0 5 1965.41 30.9
0 0 -6 327.28 13.95
0 0 6 342.54 14.15
0 0 6 345.43 14.32
0 0 -6 355.73 16.29
0 0 -6 329.47 8.05
0 0 7 198.78 11.63
0 0 7 188.82 12.22
0 0 -7 196.19 13.24
0 0 7 188.09 11.23
0 0 -7 178.53 5.92
0 0 -7 181.99 11.28
0 0 -8 102.53 3.77
0 0 -8 124.33 11.46
0 0 8 127.55 9.9
0 0 8 137.63 10.23
0 0 -8 129.63 10.32
0 0 -9 143.74 11.54
0 0 9 134.24 10.69
0 0 9 132.81 10.55
0 0 -9 134.25 12.8
0 0 -10 598.4 28.83
0 0 10 600.03 23.78
0 0 -10 598.16 25.08
0 0 -11 119.83 13.68
0 0 11 140.17 11.92
0 0 -11 130.62 12.5
0 0 11 122.57 12.31
0 0 12 42.59 7.68
0 0 -12 36.03 8.01
0 0 -12 39.07 7.34
0 0 12 30.42 5.8
0 0 -13 91.91 11.74
0 0 -13 119.11 15.35
0 0 13 110.31 11.24
0 0 13 86.23 11.37
0 0 14 14.34 5.21
0 0 -14 8.26 4.3
0 -1 14 118.28 14.46
0 1 -14 121.28 14
0 1 -14 117.85 15.72
0 -1 13 37.33 8.04
0 1 -13 31.2 7.8
0 1 -13 26.29 6.11
0 -1 13 36.55 6.69
0 1 -12 236.36 20.12
0 1 -12 218.88 16.87
0 -1 12 204.03 15.38
0 -1 12 186.12 16.68
0 1 -11 57.87 8.24
0 -1 11 63.12 8.32
0 1 -11 59.09 9.37
0 -1 10 4.78 2.48
0 -1 10 1.83 1.28
0 1 -10 2.8 1.85
0 1 -10 3.19 1.22
0 1 -10 2.96 1.81
0 -1 9 42.03 6.25
0 1 -9 32.3 5.96
0 1 -9 39.34 6.04
0 -1 9 36.76 5.61
0 -1 8 46.17 6.2
0 -1 8 39.52 5.85
0 1 -8 44.34 6.65
0 1 -8 53 6.44
0 -1 8 34.07 5.1
0 -1 7 482.51 18.84
0 1 -7 459.58 17.7
0 1 -7 445.3 19.27
0 -1 7 493.22 18.36
0 -1 7 506.42 19.6
0 -1 6 42.42 5.19
0 -1 6 40.39 4.95
0 1 -6 38.92 5.21
0 1 -6 50.41 5.35
0 -1 5 35.32 4.24
0 1 -5 29.96 4.09
0 -1 5 30.61 3.96
0 1 -5 31.06 3.87
0 1 -4 436.16 13.79
0 -1 4 425.7 13.24
0 -1 4 441.49 13.42
0 1 -4 443.54 13
0 -1 3 1.83 0.93
0 1 -3 3.37 1.02
0 -1 3 3.68 1.07
0 1 -3 2.17 0.79
0 1 -2 2575.67 22.63
0 -1 2 2630.99 23.09
0 1 -2 2593.55 24.37
0 -1 2 2664.31 24.8
0 -1 2 2702.76 24.71
0 -1 1 646.7 8.66
0 1 -1 653.94 8.69
0 -1 1 645.77 10.16
0 1 0 71.25 3.25
0 1 1 11.18 0.97
0 -1 -1 9.83 0.89
0 1 1 9.85 1.35
0 1 1 10.11 1.23
0 1 2 641.98 10.45
0 1 2 691.76 8.91
0 1 2 688.9 13.21
0 -1 -2 642.5 13.3
0 -1 -2 653.68 12.24
0 1 2 695.7 12.92
0 -1 -2 648.73 13.53
0 1 2 663.24 12.59
0 1 3 370.76 10.9
0 1 3 334.38 6.69
0 -1 -3 340.18 10.43
0 1 3 344.9 10.56
0 1 3 333.75 10.65
0 -1 -3 351.56 11.79
0 -1 -3 327.64 11.28
0 -1 -4 833.7 18.61
0 -1 -4 836.9 20.57
0 1 4 865.83 18.82
0 1 4 852.11 19.63
0 -1 -4 840.62 21.14
0 1 4 850.68 18.9
0 -1 -5 206.89 11.5
0 1 5 225.73 10.53
0 1 5 208.65 10.27
0 -1 -5 209.22 11.85
0 -1 -5 222.12 10.68
0 1 6 39.11 4.89
0 1 6 30.31 4.21
0 -1 -6 32.17 5.19
0 -1 -6 27.41 4.16
0 1 7 152.35 10.09
0 -1 -7 141.66 11.93
0 1 7 147.71 10.03
0 -1 -7 169.62 11.15
0 1 7 142.59 10.89
0 1 8 6.24 2.28
0 -1 -8 14.19 4.29
0 1 8 4.18 1.84
0 1 8 9.7 2.65
0 -1 -8 11.01 3.24
0 1 8 9.42 2.66
0 -1 -9 50.83 8.24
0 -1 -9 36.36 6.01
0 1 9 41.8 5.92
0 1 9 41.34 6.28
0 1 10 361.8 18.21
0 1 10 368.21 19.55
0 -1 -10 352.57 23.27
0 -1 -10 370.29 20.43
0 1 11 15.37 4.27
0 -1 -11 14.81 4.43
0 -1 -11 12.12 4.84
0 1 12 114.69 12.2
0 -1 -12 103.07 14.31
0 -1 -12 109.88 12.54
0 -1 -13 7.19 4.46
0 1 13 5.94 3.25
0 1 14 8.12 4.36
0 -1 -14 5.54 4.46
0 2 -14 48.13 10.23
0 2 -14 37.54 7.78
0 2 -13 65.02 9.79
0 2 -13 80.27 11.83
0 -2 13 87.86 10.86
0 2 -12 385.76 22.03
0 2 -12 376.14 24.17
0 -2 12 360 21.52
0 2 -11 45.55 7.41
0 2 -11 36.35 7.1
0 -2 11 41.17 7.03
0 -2 10 38.51 6.12
0 2 -10 48.53 7.56
0 2 -10 43.5 6.63
0 -2 10 48.89 7.34
0 2 -9 -0.79 1.62
0 -2 9 1.78 1.13
0 2 -9 1.81 2.08
0 2 -8 15.04 3.71
0 -2 8 10.63 3.13
0 2 -8 15.19 3.61
0 -2 8 16.71 3.75
0 2 -7 625.25 22.15
0 2 -7 564.58 19.61
0 -2 7 589.32 20.81
0 -2 7 583.31 20.97
0 -2 6 17.51 3.34
0 2 -6 13.04 2.72
0 -2 6 11.09 2.74
0 2 -6 17.25 3.37
0 2 -5 179.19 9.98
0 -2 5 191.65 9.92
0 2 -5 186.9 9.5
0 -2 5 184.96 10.19
0 -2 4 1237.48 22.66
0 -2 4 1254.55 24.29
0 -2 4 1242.15 23.88
0 2 -4 1234.82 22.1
0 -2 3 3021.67 31.25
0 -2 3 3085.59 34.67
0 2 -3 3039.51 34.24
0 2 -3 3039.6 30.52
0 -2 3 3036.51 33.67
0 2 -2 9957.36 58.67
0 -2 2 9761.29 56.34
0 2 -2 9820.49 48.12
0 -2 2 9999 48.27
0 2 -1 465.28 12.14
0 2 -1 496.91 9.89
0 -2 1 495.54 11.89
0 2 0 1222.88 19.27
0 -2 0 1257.5 18.72
0 2 1 417.34 7.24
0 -2 -1 413.91 6.37
0 2 2 1427.44 20.79
0 2 2 1454.34 15.89
0 2 2 1461.25 23.71
0 2 3 504.69 14.32
0 2 3 523.23 15.41
0 2 3 542.14 11.49
0 -2 -3 516.22 15.86
0 2 3 536.55 11.62
0 -2 -3 518.46 15.68
0 2 4 334.7 13.4
0 -2 -4 331.32 12.46
0 2 4 322.95 12.64
0 2 4 305.97 12.48
0 2 4 329.39 10.58
0 -2 -4 295.06 13.32
0 2 4 323.21 9.03
0 -2 -4 318.59 13.98
0 2 5 1052.03 24.58
0 2 5 995.95 20.76
0 -2 -5 969.64 26.74
0 -2 -5 923.5 26.65
0 2 5 954.51 15.17
0 2 5 1005.14 24.95
0 -2 -5 964.6 23.45
0 2 6 22.04 3.79
0 2 6 22.2 3.46
0 2 6 14.96 3.33
0 -2 -6 17.3 3.96
0 -2 -6 20.04 3.76
0 -2 -6 11.23 3.16
0 2 6 21.34 3.93
0 2 7 616.19 21.51
0 2 7 579.02 21.61
0 -2 -7 563.62 24.02
0 2 7 570.95 19.19
0 -2 -7 543.81 20.85
0 -2 -7 546.86 24.39
0 -2 -8 697.31 25.23
0 2 8 657.67 22.27
0 -2 -8 650.75 28.82
0 2 9 48.24 6.52
0 -2 -9 62.11 8.09
0 -2 -9 53.92 8.97
0 2 10 244.16 15.48
0 -2 -10 233.57 19.96
0 2 11 64.51 8.62
0 -2 -11 70.85 11.64
0 2 12 5.67 2.58
0 -2 -12 6.38 3.29
0 2 13 265.05 19.68
0 -2 -13 280.46 25.81
0 -2 -14 42.83 10.12
0 2 14 53.36 9.24
0 3 -14 143.5 16.16
0 3 -14 149.85 15.18
0 -3 14 142.85 16.13
0 -3 13 6.92 3.39
0 3 -13 7.27 3.67
0 3 -13 0.18 1.25
0 3 -12 45.54 8.36
0 3 -12 38.27 7.03
0 -3 12 44.1 7.98
0 3 -11 30.12 5.85
0 -3 11 35.64 6.37
0 3 -11 38.27 7.08
0 3 -10 8.85 2.89
0 -3 10 6.61 2.97
0 3 -10 9.69 3.34
0 3 -9 531.64 23.48
0 -3 9 538.64 22.83
0 -3 9 539.89 23.97
0 3 -9 491.58 20.96
0 -3 8 93.33 9.16
0 3 -8 109.15 9.94
0 -3 8 98.18 9.4
0 3 -8 100.97 8.93
0 -3 7 8.91 2.7
0 -3 7 9.99 2.93
0 -3 7 11.38 2.93
0 3 -7 13.18 3.08
0 -3 6 88.54 8.04
0 3 -6 94.7 7.61
0 -3 6 97.81 8.29
0 -3 6 120.05 8.82
0 3 -5 26.75 3.72
0 -3 5 30.48 4.13
0 -3 5 32.42 4.55
0 -3 5 20.94 3.59
0 -3 4 787.43 21.28
0 -3 4 748.91 19.8
0 3 -4 819.59 21.34
0 3 -4 804.58 18.39
0 -3 4 760.47 18.33
0 3 -3 95.07 7
0 -3 3 99.45 6.82
0 3 -3 103.55 6.03
0 -3 3 99.32 5.96
0 3 -2 -0.19 0.39
0 3 -2 0.92 0.5
0 -3 2 0.37 0.52
0 3 -1 49.87 4.9
0 -3 1 53.18 4.69
0 -3 0 773.38 18
0 3 0 751.62 19.01
0 -3 -1 0.35 0.26
0 3 1 1.01 1.12
0 3 2 348.33 8.49
0 3 2 327.23 13.39
0 3 2 349.95 11.54
0 3 3 57.37 5.17
0 3 3 48.76 3.63
0 3 3 59.45 5.97
0 3 4 5.88 1.43
0 3 4 2.78 1.24
0 -3 -4 4.57 1.85
0 3 4 2.42 1.06
0 -3 -4 4.95 1.95
0 -3 -5 24.75 4.62
0 3 5 19.31 2.74
0 3 5 18.46 3.77
0 -3 -5 22.58 4.35
0 3 5 21.71 3.91
0 3 5 23.54 3.18
0 3 6 21.83 4.25
0 3 6 18.21 2.58
0 3 6 14.82 2.84
0 -3 -6 18.88 4.34
0 -3 -6 19.66 4.66
0 3 7 86.75 7.47
0 -3 -7 86.4 10.28
0 -3 -7 78.59 9.54
0 3 8 79.54 7.8
0 -3 -8 92.26 11.45
0 -3 -9 92.61 12.24
0 3 9 102.97 9.46
0 3 10 53.62 7.35
0 -3 -10 45.59 9.36
0 -3 -11 15.73 5.47
0 3 11 14.14 3.84
0 -3 -12 94.84 15.23
0 3 12 96.73 11.09
0 -3 -13 4.65 4
0 4 -14 41.7 8.02
0 4 -13 23.71 5.71
0 -4 13 27.97 7.06
0 4 -12 15.26 4.58
0 -4 12 17.6 5.22
0 4 -11 57.44 8.08
0 -4 11 47.62 7.84
0 -4 10 44.38 7.3
0 -4 10 40.32 6.75
0 4 -10 44.34 6.7
0 4 -9 38.5 5.88
0 -4 9 25.17 5.1
0 -4 9 27.85 5.57
0 4 -8 11.08 2.98
0 -4 8 12.28 3.39
0 -4 8 7.95 2.97
0 -4 7 109.51 10.09
0 -4 7 121.67 9.8
0 4 -7 112.12 8.94
0 -4 6 364.6 17.62
0 -4 6 385.64 16
0 -4 6 379.52 16.97
0 4 -6 359.88 15.09
0 4 -5 2432.75 42.52
0 -4 5 2256.06 39.96
0 -4 5 2372.51 36.56
0 -4 5 2401.08 43.26
0 4 -5 2311.25 35.45
0 4 -4 1717.51 28.55
0 -4 4 1702.85 28.67
0 -4 4 1727.99 32.48
0 4 -4 1670.96 34.25
0 -4 3 84.43 6.95
0 4 -3 81.43 7.46
0 4 -3 81.81 5.9
0 4 -2 351.89 15.43
0 -4 2 339.42 13.66
0 4 -2 377.4 12.31
0 4 -1 2.16 1.51
0 -4 1 1.19 0.77
0 4 0 282.2 13.75
0 -4 0 260.35 7.79
0 4 1 491.14 18.42
0 -4 -1 494.42 8.7
0 4 2 152.02 10.5
0 4 2 156.59 8.46
0 4 3 402.85 17.88
0 -4 -3 431.42 17.68
0 4 3 388.21 10.47
0 4 4 363.5 11.55
0 4 4 377.59 18.01
0 -4 -4 383.37 18.06
0 4 4 370.78 13.85
0 -4 -4 363.44 17.67
0 4 4 380.3 15.93
0 -4 -5 341.52 18.48
0 4 5 312.95 12.78
0 4 5 317.38 11.97
0 4 5 346.72 16.48
0 -4 -5 353.4 18.71
0 4 6 612.1 18.44
0 4 6 654.7 18.58
0 -4 -6 643.75 27.75
0 4 7 94.92 7.92
0 -4 -7 82.99 10.71
0 4 7 94.38 6.56
0 4 8 298.86 15.07
0 -4 -8 322.79 22.72
0 -4 -9 65.32 10.94
0 4 9 63.02 7.48
0 -4 -10 51.84 10.43
0 4 10 49.59 7.12
0 -4 -11 178.57 20.45
0 -4 -12 38.88 10.17
0 5 -14 13.88 4.14
0 -5 13 118.48 13.61
0 5 -13 106.08 12.17
0 5 -12 0.92 1.25
0 -5 12 1.54 1.59
0 5 -11 158.27 13.54
0 -5 11 154.96 14.51
0 -5 10 0.58 1.52
0 5 -10 2.81 1.68
0 -5 9 43.4 6.77
0 5 -9 41.29 6.21
0 -5 9 35.86 6.4
0 -5 8 252.12 15.39
0 -5 8 236.9 15.31
0 5 -8 250 14.52
0 -5 8 251.49 16.6
0 -5 7 34.15 5.27
0 5 -7 32.48 4.9
0 -5 7 36.25 6.14
0 5 -6 476.47 17.83
0 -5 6 481.25 21.81
0 5 -6 413.39 19.75
0 -5 6 471.43 18.27
0 -5 5 224.29 11.68
0 5 -5 236.28 11.82
0 5 -5 232.48 14.46
0 5 -4 212.51 13.77
0 5 -4 190.65 10.24
0 5 -3 107.95 7.38
0 5 -3 127.75 10.59
0 5 -2 14.45 3.55
0 5 -2 9.09 2.02
0 5 -1 230.25 14.17
0 5 0 612.38 23.21
0 -5 0 597.65 20.69
0 -5 0 586.29 12.45
0 -5 -1 109.23 4.11
0 5 1 115.89 10.25
0 -5 -1 114.43 9.32
0 -5 -2 1.97 1.57
0 -5 -2 1.39 0.92
0 -5 -3 12.48 3.24
0 5 3 9.11 2.35
0 -5 -3 10.6 3.23
0 -5 -4 24.26 4.91
0 5 4 17.25 2.4
0 5 4 18.95 3.57
0 5 4 22.49 4.18
0 5 5 275.4 13.65
0 -5 -5 278.07 18.28
0 5 5 291.55 11.11
0 5 6 0.45 0.8
0 5 6 0.46 0.53
0 5 7 60.52 6.23
0 5 7 49.91 5.56
0 -5 -7 54.81 9.35
0 5 8 44.46 5.77
0 -5 -8 47.61 9.39
0 -5 -9 56.04 11.04
0 -5 -10 98.07 15.24
0 6 -14 25.83 6.17
0 6 -13 98.02 11.61
0 -6 12 17.99 4.85
0 6 -12 23.93 5.5
0 6 -11 5.47 2.69
0 -6 11 7.66 2.96
0 6 -10 -0.02 0.98
0 -6 10 1.2 1.91
0 -6 9 160.22 13.65
0 -6 9 168.43 14.86
0 6 -9 154.04 12.15
0 -6 8 128.09 11.68
0 6 -8 116.77 10.14
0 -6 8 98.43 9.74
0 -6 8 138.26 13.09
0 6 -7 1018.53 28.5
0 -6 7 1099.58 30.44
0 -6 7 1073.72 36.3
0 -6 7 1045.11 32.04
0 6 -6 266.16 13.83
0 -6 6 285.41 16.19
0 6 -6 268.21 17.25
0 6 -5 16.79 4.18
0 6 -5 14.9 3.02
0 -6 5 15.46 3.81
0 6 -4 43.86 7.11
0 -6 4 58.8 7.18
0 6 -4 56.98 5.94
0 6 -3 69.73 8.86
0 6 -3 63.09 6.22
0 -6 3 70.59 7.86
0 6 -2 87.74 7.33
0 -6 2 98.5 8.88
0 6 -2 90.66 10.15
0 -6 1 8.7 1.9
0 6 -1 11.84 3.74
0 -6 1 15.3 3.61
0 -6 0 30.53 2.82
0 -6 0 36.74 5.48
0 -6 -1 132.75 3.95
0 -6 -1 146.89 11.35
0 -6 -1 156.78 11.99
0 -6 -2 210.89 14.17
0 6 2 207.1 11.48
0 -6 -2 216.69 14.54
0 -6 -3 611.02 25.74
0 6 3 721.61 23.13
0 -6 -4 221.87 16.41
0 6 4 196.93 12.79
0 6 5 119.91 9.99
0 -6 -5 162.25 15.12
0 6 6 288.27 15.53
0 -6 -6 267.92 20.68
0 -6 -7 16.92 5.84
0 -6 -8 159.65 18.21
0 -6 -9 44.02 10.13
0 7 -14 5.1 3.18
0 7 -13 47.17 8.08
0 7 -12 43.76 7.45
0 7 -11 63.37 8.72
0 -7 11 60.44 9.06
0 7 -10 38.14 6.3
0 -7 10 37.83 6.96
0 -7 9 20.06 5.1
0 7 -9 26.5 5.21
0 -7 8 531.59 24.21
0 7 -8 495.93 21.29
0 7 -7 365.4 17.5
0 7 -7 396.58 22.98
0 -7 6 412.29 20.33
0 7 -6 407.08 17.69
0 7 -6 420.58 23.52
0 -7 5 31.25 5.45
0 7 -5 38.41 7.07
0 7 -5 35.46 5.11
0 -7 4 23.26 5.05
0 7 -4 3.55 1.69
0 -7 3 197.8 13.69
0 7 -3 149.78 10.32
0 -7 2 260.08 15.93
0 7 -2 254.62 13.6
0 -7 1 294.39 17.02
0 -7 1 302.91 11
0 -7 0 1.36 1.35
0 -7 0 1.75 0.61
0 -7 -1 21.5 4.8
0 -7 -1 26.69 5.36
0 7 1 28.19 4.23
0 -7 -2 8.49 3.13
0 7 2 10.82 2.67
0 -7 -2 11.26 3.8
0 -7 -3 89.87 10.79
0 7 4 4.59 2.31
0 -7 -4 7.1 3.59
0 -7 -5 6.89 3.63
0 7 5 6.72 2.65
0 -7 -6 2.19 2.45
0 -7 -7 7.87 4.3
0 8 -11 38.76 6.92
0 8 -10 32.27 5.95
0 -8 10 31.75 6.38
0 -8 9 723.3 29.94
0 8 -9 745.57 27.61
0 -8 8 22.21 5.09
0 8 -8 26.93 5.08
0 -8 7 99.51 10.58
0 8 -7 119.01 10.23
0 -8 6 -0.4 0.89
0 8 -6 1.68 1.34
0 8 -5 2.17 1.57
0 -8 5 12.65 4.14
0 -8 4 189.03 14.25
0 8 -4 165.64 11.45
0 8 -3 94.36 8.73
0 -8 3 89.76 10.02
0 -8 2 148.94 12.89
0 8 -2 135.98 10.71
0 -8 1 120.18 11.75
0 8 -1 133.65 10.9
0 8 0 44.83 5.5
0 -8 0 52.53 8.02
0 -8 0 43.48 7.27
0 -8 -1 379.8 22.02
0 -8 -1 424.59 23.13
0 -8 -2 177.9 15.51
0 -8 -2 175.69 15.64
0 -8 -3 89.03 11.79
0 8 3 63.02 8.87
0 8 4 152.27 13.75
0 -8 -4 180.67 17.62
0 -8 -5 16.17 5.18
0 -9 9 1.13 2.14
0 -9 8 85.84 10.42
0 -9 7 3.14 2.3
0 -9 6 71.03 9.34
0 9 -6 64.27 7.56
0 -9 5 10.62 3.36
0 9 -5 7.68 2.58
0 -9 4 2.83 2.62
0 9 -4 -0.21 0.74
0 -9 3 207.78 16.19
0 9 -3 201.47 13.4
0 -9 2 14.64 4.21
0 9 -2 10.52 3.2
0 9 -1 84.34 9.26
0 -9 1 77.68 10.17
0 -9 1 80.48 10.43
0 -9 0 -1.12 1.38
0 -9 0 -1.25 1.72
0 -9 -1 23.97 5.96
0 -9 -1 30.08 6.83
0 -9 -2 -0.06 0.96
0 -9 -3 16.82 5.56
0 9 3 13.8 4.63
0 -10 8 7.51 3.64
0 -10 7 25.84 5.93
0 -10 6 5.49 2.39
0 -10 5 6.75 2.97
0 -10 4 43.6 7.66
0 -10 3 20.64 5.73
0 -10 2 112.82 12.97
0 -10 2 94.35 12.01
0 -10 1 123.96 13.95
0 -10 1 115.52 13.37
0 -10 0 87.36 11.77
0 -10 0 75.01 11.2
0 10 2 21.45 6.1
0 -11 6 5.41 2.63
0 -11 5 51.11 8.79
0 -11 4 2.05 2.62
0 -11 3 12.78 4.55
1 -11 4 5.57 3.43
1 -11 5 -0.54 2.09
1 -11 6 61.3 10.11
1 -11 7 18.58 5.55
1 -11 8 4.33 2.99
-1 10 3 21.11 6.14
-1 10 2 46.89 9.28
-1 10 1 4.74 2.9
1 -10 -1 4.08 2.41
-1 10 0 109.52 14.32
1 -10 0 109.38 13.6
1 -10 0 103.85 13.04
1 -10 1 138.25 14.75
1 -10 2 6.41 3.24
1 -10 3 62.53 9.88
1 -10 4 7.65 3.6
1 -10 5 9.52 3.76
1 -10 6 28.89 6.44
1 -10 7 1.87 1.81
1 -10 8 26.31 6.58
1 -10 9 2.34 3.2
-1 9 4 52.55 9.01
-1 9 3 1.59 2.03
1 -9 -3 0.86 1.3
1 -9 -2 14.8 4.81
-1 9 2 26.79 6.38
1 -9 -2 26.48 6.53
-1 9 1 24.43 6.47
1 -9 -1 18.69 5.1
1 -9 -1 10.24 3.83
1 -9 0 0.23 1.89
1 -9 1 16.8 4.86
1 -9 2 -1.33 1.85
1 -9 3 114.26 12.47
1 -9 4 157.34 14.63
1 -9 5 1.58 2.48
1 -9 6 28.17 6.21
1 -9 7 5.34 2.87
1 -9 8 2.97 2.08
1 -9 9 42.8 8.17
1 -9 10 102.06 12.93
1 -9 11 19.86 5.75
1 -8 -6 1.05 2.56
1 -8 -5 134.07 15.41
-1 8 5 110.15 12.18
-1 8 4 97.63 11.47
1 -8 -4 121.47 13.88
-1 8 3 15.85 4.61
1 -8 -3 16.75 4.96
1 -8 -3 12.85 4.51
-1 8 2 173.18 15.29
1 -8 -2 172.84 15
1 -8 -2 165.94 14.96
1 -8 -1 109.51 11.76
1 -8 -1 118.59 12.31
1 -8 0 35.11 6.61
1 -8 1 7.01 2.28
-1 8 -1 9.99 2.53
1 -8 1 9.76 3.79
1 -8 2 23 5.24
-1 8 -2 14.18 2.93
1 -8 3 5.26 2.51
-1 8 -3 5.55 1.78
1 -8 4 26.16 5.5
-1 8 -4 22.57 3.58
1 -8 5 10.76 3.9
-1 8 -5 10.92 2.45
-1 8 -6 4.52 1.86
1 -8 6 5.6 2.75
1 -8 7 37.79 7.14
-1 8 -7 47.44 5.59
1 -8 8 238.42 18.23
-1 8 -8 244.71 13.45
-1 8 -9 244.31 14.16
1 -8 9 259.18 19.66
-1 8 -10 14.45 3.93
1 -8 10 3.06 2.87
1 -8 11 17.77 5.65
1 -8 12 -0.16 2.43
1 -7 -8 29.53 8.11
1 -7 -7 1.75 1.47
-1 7 6 137.13 12.57
1 -7 -6 194.08 18.07
-1 7 5 17.44 4.45
1 -7 -5 22.52 5.75
-1 7 4 124.5 11.85
1 -7 -4 118.63 12.54
1 -7 -3 5.67 2.82
-1 7 3 0.92 1.07
1 -7 -3 4.82 2.22
-1 7 3 0.76 1.05
1 -7 -2 5.28 2.41
1 -7 -2 5.86 2.42
-1 7 2 3.81 2.07
-1 7 2 4.98 1.78
1 -7 -2 3.89 1.14
1 -7 -1 155.74 7.66
1 -7 -1 152.45 12.95
1 -7 0 12.04 3.6
-1 7 0 11.3 2.23
1 -7 0 8.58 2.02
1 -7 1 172.72 13.41
1 -7 1 186 10.69
-1 7 -2 458.32 15.39
1 -7 2 482.08 22.28
1 -7 3 103.2 10.63
-1 7 -3 37.18 4.57
-1 7 -4 24.44 3.45
1 -7 4 25.67 5.28
1 -7 5 13.25 3.74
-1 7 -5 18.16 3.06
-1 7 -6 43.15 4.96
1 -7 6 35.6 6.49
1 -7 7 10.68 3.55
-1 7 -7 13.08 3.01
-1 7 -8 123.53 9.55
1 -7 8 131.26 10.63
1 -7 8 129.48 13.28
1 -7 9 0.86 1.74
-1 7 -9 -0.67 0.54
1 -7 10 1.29 1.31
-1 7 -10 2.27 1.29
1 -7 11 44.85 8.48
-1 7 -11 61.18 7.87
-1 7 -12 2.58 1.88
1 -7 12 1.08 3
-1 7 -13 11.03 3.72
1 -6 -9 9.07 5.01
1 -6 -8 81.83 12.37
1 -6 -7 4.46 2.83
-1 6 6 1.06 1.6
-1 6 6 2.06 1.14
1 -6 -6 1.47 1.37
1 -6 -5 1.74 1.62
-1 6 5 1.54 1.24
1 -6 -4 424.2 21.74
-1 6 4 407.38 19.9
1 -6 -4 455.61 22.59
-1 6 4 416.45 18.49
1 -6 -3 5.2 2.12
1 -6 -3 8.2 1.79
1 -6 -3 8.32 3.22
-1 6 3 5.49 2.05
-1 6 3 5.32 1.98
1 -6 -2 53.25 4.31
1 -6 -2 51.65 7.02
-1 6 2 52.71 6.99
1 -6 -1 2.52 1.09
-1 6 1 6.02 1.78
1 -6 -1 6.46 2.44
1 -6 0 224.2 14.32
1 -6 0 213.84 10.4
-1 6 0 234.62 9.63
1 -6 1 26.67 4.02
-1 6 -1 30.81 6.21
1 -6 1 32.5 5.51
1 -6 2 15.87 4.02
-1 6 -2 17.41 4.64
-1 6 -2 19.13 2.86
-1 6 -3 226.27 16.57
-1 6 -3 224.83 9.56
1 -6 3 206.03 13.89
-1 6 -4 164.32 8.38
-1 6 -4 186.61 15.16
1 -6 4 174.94 13.14
1 -6 5 18.43 4.65
-1 6 -5 13.29 4.1
-1 6 -5 14.71 2.72
1 -6 6 697.68 20.81
1 -6 6 737.37 31.21
1 -6 6 700.02 27.67
-1 6 -6 735.76 30.54
-1 6 -6 706.74 19.82
-1 6 -7 350.45 14.91
1 -6 7 345.46 20.28
1 -6 7 330.5 15.33
-1 6 -8 83.64 7.77
1 -6 8 81.12 10.28
1 -6 8 87.98 8.59
1 -6 9 349.76 18.38
1 -6 9 352.24 22.03
-1 6 -9 319.15 16.11
1 -6 10 14.24 4.61
-1 6 -10 21.46 4.41
1 -6 11 144.09 15.19
-1 6 -11 148.73 12.44
-1 6 -12 15.54 4.34
1 -6 12 16.55 4.82
1 -6 13 12.46 5.3
-1 6 -13 12.38 4.09
-1 6 -14 81.07 10.81
1 -5 -11 107.2 16.01
1 -5 -10 2.96 2.09
1 -5 -9 25.76 8.38
-1 5 9 24.77 5.58
-1 5 8 14.51 3.63
1 -5 -8 14.14 4.86
-1 5 7 1.14 0.92
-1 5 7 1.43 1.14
1 -5 -7 0.38 0.99
1 -5 -6 120.71 12.05
-1 5 6 125.37 10.27
-1 5 6 126.13 9.47
-1 5 5 9.39 2.23
-1 5 5 9.69 2.66
-1 5 5 13.64 3.29
1 -5 -5 13.88 3.88
-1 5 4 35.41 4.36
-1 5 4 34.95 5.05
1 -5 -4 31.75 5.42
-1 5 4 31.87 5.01
1 -5 -4 31.27 5.4
-1 5 3 177.81 11.69
1 -5 -3 168.43 11.8
1 -5 -3 180.47 12.57
1 -5 -3 171.11 8.06
1 -5 -2 56.67 6.79
-1 5 2 80.99 7.83
-1 5 2 60.17 7.83
-1 5 2 60.71 5.5
1 -5 -2 68.11 4.95
1 -5 -1 630.54 22.25
1 -5 -1 620.41 15.66
-1 5 1 645.16 15.93
-1 5 0 86.67 9.23
-1 5 0 88.98 5.27
1 -5 0 91.56 6.51
1 -5 0 96.38 8.59
1 -5 1 9.86 2.74
-1 5 -1 5.37 2.44
-1 5 -2 349.82 18.62
-1 5 -2 324.96 10.25
-1 5 -3 227.17 15.12
-1 5 -3 220.06 8.51
-1 5 -4 1308.32 36.32
-1 5 -4 1259.23 21.87
1 -5 5 145.91 12.59
1 -5 5 128.82 11.07
1 -5 5 147.95 8.48
-1 5 -5 137.72 11.99
-1 5 -5 162.63 8.54
1 -5 6 378.19 14.96
1 -5 6 349.43 20.01
-1 5 -6 377.29 14.09
1 -5 6 356.78 19.28
-1 5 -7 419.5 16.11
1 -5 7 408.7 17.05
1 -5 7 423.5 22.77
1 -5 7 425.64 21.63
-1 5 -8 196.64 11.83
1 -5 8 175.85 12.14
1 -5 8 175.8 14.64
1 -5 8 186.48 15.42
-1 5 -9 494.11 19.99
1 -5 9 463.12 24.82
1 -5 9 480.33 21.66
-1 5 -10 12.27 3.59
1 -5 10 8.22 3.49
-1 5 -11 -0.17 0.74
1 -5 11 -0.36 1.55
-1 5 -12 171.44 14.12
1 -5 12 162.45 16.46
1 -5 13 -5.29 2.58
-1 5 -13 1.94 1.69
1 -5 14 48.64 9.79
-1 5 -14 41.4 7.78
1 -4 -12 64.62 12.45
1 -4 -11 4 3.05
-1 4 11 -2 2.39
1 -4 -10 187.5 18.68
-1 4 10 154.31 13.27
1 -4 -9 0.98 1.18
-1 4 9 0.17 1.25
-1 4 8 1.7 1.02
-1 4 8 1.09 1
1 -4 -8 4.03 1.74
-1 4 7 5.33 1.87
-1 4 7 3.85 1.65
1 -4 -7 4.81 2.45
1 -4 -7 3.93 2.76
1 -4 -6 229.39 14.94
1 -4 -6 210.04 14.72
-1 4 6 214.72 12.21
-1 4 6 240.93 12.84
1 -4 -5 0.66 1.06
-1 4 5 -0.19 0.52
-1 4 5 0.68 0.92
-1 4 5 0.7 0.85
1 -4 -5 0.79 0.79
-1 4 4 7.3 2.02
-1 4 4 8.64 2.33
1 -4 -4 4.62 1.93
-1 4 4 7.51 2.63
1 -4 -3 55.84 4.53
1 -4 -3 49.63 5.75
-1 4 3 44.98 4.78
-1 4 3 45.27 6.09
-1 4 3 44.72 5.26
-1 4 3 36.87 4.09
1 -4 -3 49.06 5.94
1 -4 -2 83.64 5.3
-1 4 2 78 6.94
-1 4 2 80.41 7.99
-1 4 2 71.6 5.41
1 -4 -1 93.03 5.82
-1 4 1 96.77 5.51
-1 4 1 92.01 8.42
-1 4 0 17.32 1.98
1 -4 0 19.43 2.83
-1 4 0 14.48 3.21
-1 4 -1 27.92 4.78
1 -4 1 36.75 4.79
1 -4 2 0.43 0.6
-1 4 -2 0.39 0.31
-1 4 -2 0.08 0.96
1 -4 3 583.32 20.44
-1 4 -3 606.78 12.78
-1 4 -4 1306.38 33.26
1 -4 4 1294.14 31.78
1 -4 4 1284.3 21.67
-1 4 -4 1302.21 21.24
1 -4 5 42.07 4.42
-1 4 -5 39.2 4.08
1 -4 5 28.91 5.23
-1 4 -6 1.36 0.82
1 -4 6 1.03 1.11
1 -4 6 -0.79 0.8
-1 4 -7 71.6 6.64
1 -4 7 67.8 8.62
1 -4 7 81.65 9.19
1 -4 7 74.98 7.26
-1 4 -8 9.66 2.73
1 -4 8 10.92 3.45
1 -4 8 13.9 3.89
1 -4 8 14.67 3.6
-1 4 -9 273.59 14.84
1 -4 9 244.86 15.28
1 -4 9 228.83 16.79
1 -4 9 212.7 16.49
1 -4 10 81.07 10.55
-1 4 -10 87.4 8.99
-1 4 -11 82.68 9.29
1 -4 11 83.75 11.37
-1 4 -12 30.69 6.09
1 -4 12 45.8 8.62
-1 4 -13 0.38 1.15
1 -4 13 0.66 1.72
-1 4 -14 279.11 20.31
1 -4 14 279.36 23.38
1 -4 14 284.19 24.03
1 -3 -13 47.58 10.86
-1 3 13 43.88 8.17
1 -3 -12 0.1 1.81
-1 3 12 -0.26 1.81
-1 3 11 0.41 2.73
1 -3 -11 -0.14 2.26
-1 3 10 59.14 8.25
1 -3 -10 59.17 9.91
1 -3 -9 37.99 6.32
-1 3 9 45.71 6.64
1 -3 -9 39.93 7.57
-1 3 8 168.88 11.98
1 -3 -8 178.55 13.04
1 -3 -8 152.07 13.17
1 -3 -8 169.03 14.43
1 -3 -7 1.26 0.87
-1 3 7 3.69 1.85
1 -3 -7 2.72 1.61
-1 3 7 1.55 1.09
1 -3 -7 1.59 1.69
1 -3 -6 6.62 2.51
-1 3 6 9.48 2.39
-1 3 6 10.01 2.83
1 -3 -6 7.45 2.38
1 -3 -6 8.38 3.03
-1 3 6 6.18 1.96
-1 3 6 11.4 3.25
-1 3 5 572.67 20.07
1 -3 -5 524.35 18.98
-1 3 5 549.11 17.38
1 -3 -5 535.26 17.93
-1 3 5 538.64 17.37
1 -3 -5 527.93 19.79
-1 3 5 514.69 19.67
1 -3 -4 27.96 3.97
-1 3 4 29.85 4.55
-1 3 4 30.99 3.89
1 -3 -4 25.72 3.88
-1 3 4 21.87 3.37
1 -3 -4 27.34 4.19
1 -3 -4 25.03 3.45
-1 3 3 854.07 19.08
1 -3 -3 946.9 22.24
1 -3 -3 878.25 22.29
-1 3 3 855.99 23.4
-1 3 3 918.84 21.29
-1 3 3 868.17 19.76
1 -3 -3 901.6 17.66
-1 3 2 46.84 4.72
-1 3 2 56.92 5.8
-1 3 2 51.73 4.19
-1 3 2 53 4.44
1 -3 -2 45.93 4.9
1 -3 -2 51.88 4.01
-1 3 1 21.78 3.55
-1 3 1 21.15 2.24
1 -3 -1 19.66 2.54
-1 3 0 579.31 18.36
-1 3 0 598.56 9.47
1 -3 0 589.41 14.42
-1 3 -1 99.73 3.72
1 -3 1 100.7 7.24
-1 3 -1 94.24 7.56
1 -3 2 1508.64 29.61
-1 3 -2 1554.21 15.56
1 -3 3 496.5 17.47
-1 3 -3 501.36 10.68
-1 3 -3 510.59 18.07
1 -3 3 508.42 11.18
1 -3 4 266.64 9.74
1 -3 4 259.67 13.77
1 -3 4 278.65 13.8
-1 3 -4 248.25 8.96
-1 3 -5 200.92 9.1
1 -3 5 200.06 12.46
1 -3 5 186.55 12.22
1 -3 5 203.9 9.7
1 -3 6 25.79 4.83
1 -3 6 26.52 3.91
-1 3 -6 19.26 3.14
-1 3 -7 547.5 18.29
1 -3 7 529.94 19.26
1 -3 7 551.53 23.27
-1 3 -7 564.24 23.42
-1 3 -8 210.02 12.23
-1 3 -8 180.34 14.08
1 -3 8 196.32 12.76
1 -3 8 187.68 14.5
1 -3 8 207.04 14.97
1 -3 9 546.29 25.15
-1 3 -9 533.67 21.15
-1 3 -9 538.44 25.66
-1 3 -10 37.19 7.1
-1 3 -10 48.08 6.76
-1 3 -11 12.24 4.05
-1 3 -11 19.34 5.49
1 -3 12 129.26 14.46
-1 3 -12 122.23 14.35
-1 3 -12 101.66 11.04
1 -3 13 115.36 14.08
-1 3 -13 111.93 12.28
-1 3 -13 139.19 16.17
-1 3 -14 53.57 11.03
1 -3 14 34.2 9.1
1 -3 14 39.96 8.77
1 -3 15 47.08 10.29
-1 2 14 19.76 6.08
-1 2 13 12.02 4.07
1 -2 -13 14.19 5.42
1 -2 -12 308.82 21.36
-1 2 12 246.57 18.61
1 -2 -12 262.39 22.51
1 -2 -11 19.55 4.96
-1 2 11 19.95 4.8
1 -2 -11 24.25 6.19
-1 2 10 41.56 6.7
1 -2 -10 34.76 6.45
1 -2 -10 45.83 8.42
1 -2 -9 91.83 9.75
1 -2 -9 89.43 10.9
-1 2 9 107.52 10.03
-1 2 8 7.78 2.65
1 -2 -8 8 2.59
1 -2 -8 6.21 2.69
1 -2 -7 29.38 5.04
1 -2 -7 25.92 5.05
-1 2 7 39.01 6
1 -2 -7 33.36 5.05
-1 2 7 35.95 5.14
-1 2 7 37.57 5.4
-1 2 6 14.41 3.11
-1 2 6 11.86 2.69
-1 2 6 11.15 2.14
1 -2 -6 10.62 2.9
1 -2 -6 6.4 2.2
1 -2 -6 6.67 2.06
-1 2 6 9.21 2.67
1 -2 -5 955.45 23.27
-1 2 5 936.3 19.96
1 -2 -5 934.44 23.97
-1 2 5 938.84 22.14
1 -2 -5 960.94 23.07
-1 2 5 939.03 23.5
-1 2 4 9.09 2.2
-1 2 4 15.95 2.66
-1 2 4 11.17 2.21
-1 2 4 14.76 2.78
1 -2 -4 11.49 2.28
1 -2 -4 19.35 3.1
1 -2 -4 16.2 2.75
-1 2 3 150.21 7.48
1 -2 -3 143.3 7.1
1 -2 -3 157.99 8.12
-1 2 3 166.51 8.68
-1 2 3 159.72 7.88
-1 2 3 149.12 7.64
1 -2 -3 168.08 7.49
1 -2 -3 171.83 8.14
1 -2 -2 1234.41 18.58
-1 2 2 1220.02 22.5
1 -2 -2 1198.93 17.48
-1 2 2 1246.83 18.91
-1 2 2 1245.72 20.04
-1 2 2 1218.11 21.13
-1 2 1 287.51 9.84
-1 2 1 254.14 6.77
1 -2 -1 270.66 8.56
-1 2 1 277.52 10.54
1 -2 -1 262.5 6.47
-1 2 1 269.63 8.9
1 -2 0 8.56 1.6
-1 2 0 10.43 0.92
-1 2 0 9.57 2
-1 2 -1 1254.85 23.42
1 -2 2 1932 29.96
1 -2 2 1920.47 16.7
-1 2 -2 1898.64 29.86
-1 2 -2 1933.39 15.64
1 -2 3 16.25 2.97
-1 2 -3 18.5 2.03
1 -2 3 14.25 1.89
1 -2 4 3.37 1.4
1 -2 4 3.16 1.12
-1 2 -4 2.64 0.93
-1 2 -4 5 1.72
1 -2 4 5.62 1.99
1 -2 5 50.59 4.86
-1 2 -5 50.83 6.09
-1 2 -5 52.76 4.7
1 -2 5 51.41 6.12
1 -2 6 124.42 8.52
1 -2 6 117.43 9.85
-1 2 -6 113.52 7.69
-1 2 -6 117.99 10.05
1 -2 7 45.65 5.69
-1 2 -7 42.77 5.18
-1 2 -7 38.61 6.23
1 -2 7 37.54 5.78
1 -2 8 56 6.81
1 -2 8 50.25 7.17
-1 2 -8 52.11 6.26
-1 2 -8 57.37 8.06
-1 2 -9 37.86 5.75
1 -2 9 25.76 5.33
-1 2 -9 32.55 6.33
1 -2 10 84.77 10.36
-1 2 -10 64.53 5.14
-1 2 -10 62.29 9.69
-1 2 -10 79.02 8.78
-1 2 -11 15.34 2.42
1 -2 11 19.81 5.52
-1 2 -11 21.62 4.86
-1 2 -11 18.85 5.37
-1 2 -12 123.9 12.38
-1 2 -12 122.89 14.68
1 -2 12 105.96 12.82
1 -2 13 56.07 9.62
-1 2 -13 46.05 8.05
1 -2 14 52.55 9.3
-1 2 -14 41.91 9.62
-1 2 -14 50.47 8.89
-1 2 -15 2.82 3.07
-1 1 14 31.15 7.22
1 -1 -13 3.26 2.72
-1 1 13 -0.14 1.58
1 -1 -13 -0.23 1.4
1 -1 -12 51.81 9.52
1 -1 -12 50.41 8.47
-1 1 12 44.69 7.73
-1 1 11 20.4 4.95
1 -1 -11 26.14 6.63
1 -1 -11 22.99 5.53
1 -1 -10 17.1 5.03
1 -1 -10 22.59 4.89
-1 1 10 24.7 4.99
-1 1 9 6.3 2.32
1 -1 -9 7.29 2.39
1 -1 -9 2.85 1.69
1 -1 -9 7.92 1.39
-1 1 9 6.94 2.4
-1 1 8 112.75 9.03
-1 1 8 114.11 9.61
-1 1 8 110.06 8.49
1 -1 -8 108.86 5.71
1 -1 -8 107.07 9.74
1 -1 -8 122.2 11.04
-1 1 7 72.97 6.79
1 -1 -7 68.57 7.2
1 -1 -7 59.98 4.4
-1 1 7 67.26 7.61
-1 1 7 73.08 6.41
-1 1 7 71.95 7.05
1 -1 -7 73.09 7.81
-1 1 6 345.76 14.36
1 -1 -6 342.89 10.66
-1 1 6 336.41 15.66
1 -1 -6 375.83 15.46
1 -1 -6 328.89 14.94
-1 1 6 368.67 13.31
-1 1 6 364.65 13.97
1 -1 -5 207.53 8.23
-1 1 5 190.38 8.76
-1 1 5 204.37 10.22
1 -1 -5 213.79 10.76
-1 1 5 183.57 9.14
1 -1 -5 196.9 9.64
1 -1 -5 198.77 10.23
-1 1 4 8.52 1.74
-1 1 4 9.91 2.18
-1 1 4 10.04 2.02
1 -1 -4 10.29 1.81
1 -1 -4 10.48 2.06
1 -1 -4 7.26 1.63
1 -1 -4 9.8 1.95
-1 1 4 10.9 2.02
1 -1 -3 7.92 1.61
1 -1 -3 9.8 1.82
1 -1 -3 11.14 1.75
-1 1 3 8.63 1.61
1 -1 -3 9.89 1.49
-1 1 3 9.5 1.89
1 -1 -3 9.11 1.64
-1 1 3 6.27 1.45
1 -1 -3 9.07 1.58
-1 1 3 11.37 1.9
1 -1 -2 202.98 6.86
-1 1 2 180.51 7.22
-1 1 2 192.78 7.09
-1 1 2 185.15 6.87
-1 1 2 188 7.18
1 -1 -2 183.8 6.93
1 -1 -2 189.39 6.9
1 -1 -2 190.55 6.82
-1 1 1 653.06 12.58
1 -1 -1 667.74 12.21
1 -1 -1 649.75 9.81
1 -1 -1 678.17 12.7
-1 1 1 655.61 10.17
1 -1 -1 642.71 11.84
-1 1 1 654.57 12.49
-1 1 1 660.45 13.13
-1 1 0 2.55 0.8
-1 1 0 1.97 0.72
1 -1 1 106.01 5.66
-1 1 -1 116.86 5.04
-1 1 -1 96.87 5.44
1 -1 1 124.69 5.04
-1 1 -2 0.67 0.32
1 -1 2 0.4 0.35
1 -1 2 1.24 0.68
-1 1 -2 1.36 0.64
-1 1 -3 86.62 6.51
-1 1 -3 87.67 4.65
1 -1 3 83.5 6.32
1 -1 3 82.6 4.64
-1 1 -4 100.02 5.84
-1 1 -4 89.34 7.37
1 -1 4 98.44 7.55
1 -1 4 81.51 5.51
1 -1 5 1018.6 26.47
1 -1 5 959.64 21.47
-1 1 -5 974.57 20.9
-1 1 -5 1017.54 27.23
1 -1 6 103.06 7.86
-1 1 -6 105.13 7.55
-1 1 -6 111.05 9.78
1 -1 6 111.06 9.3
-1 1 -7 469.95 21.83
1 -1 7 494.53 18.95
-1 1 -7 509.34 18.31
-1 1 -7 512.89 10.99
1 -1 7 499.25 21.06
1 -1 7 496.89 20.91
1 -1 8 400.1 18.62
-1 1 -8 377.99 16.91
1 -1 8 350.61 18.87
-1 1 -8 386.38 21.17
-1 1 -8 373.13 9.22
1 -1 8 389.69 19.35
1 -1 9 3.83 2.23
-1 1 -9 4.2 2.82
1 -1 9 0.59 1
-1 1 -9 3.71 1.46
-1 1 -10 87.65 9.41
-1 1 -10 78.64 10.79
1 -1 10 91.8 10.46
-1 1 -11 60.45 8.33
-1 1 -11 60 10.19
1 -1 11 60.96 8.82
1 -1 12 9.1 3.69
-1 1 -12 18.16 6.09
-1 1 -12 11.81 4.25
-1 1 -13 30.44 6.52
-1 1 -13 38.79 9.16
1 -1 13 40.67 7.83
1 -1 14 1.28 2.1
-1 1 -14 2.28 2.61
1 -1 14 4.7 2.96
-1 1 -15 35.66 10.02
-1 0 14 159.76 16.44
1 0 -13 61.5 9.64
1 0 -13 69.18 11.06
-1 0 13 79.56 11
-1 0 12 78.33 10.37
1 0 -12 77.29 11.1
-1 0 12 71.57 7.9
1 0 -12 90.67 11.12
1 0 -11 100.93 11.83
-1 0 11 103.9 11.33
1 0 -11 109.42 11.5
-1 0 11 92.76 8.62
1 0 -10 13.88 2.35
1 0 -10 8.9 3.38
-1 0 10 16.54 3.5
1 0 -10 22.14 5.11
-1 0 10 7.93 2.29
-1 0 10 19.7 4.63
1 0 -9 116.27 11
1 0 -9 126.85 7.49
-1 0 9 133.87 9.37
1 0 -9 144.88 11.85
-1 0 9 120.26 10.76
-1 0 9 129.09 9.52
-1 0 9 134.49 9.4
1 0 -8 2.36 1.67
1 0 -8 1.69 0.83
1 0 -8 0.73 0.69
-1 0 8 0.2 0.45
-1 0 8 1.1 0.87
-1 0 8 -0.4 0.93
-1 0 8 -0.59 1.39
1 0 -7 636.94 21.76
-1 0 7 583.17 17.22
1 0 -7 566.14 20.49
-1 0 7 593.83 21.04
1 0 -7 592.19 16.23
-1 0 7 567.01 21.73
-1 0 7 577.89 16.9
-1 0 6 424.43 16.29
1 0 -6 430.03 15.84
1 0 -6 436.47 13.52
-1 0 6 443.86 13.44
1 0 -6 422.51 16.35
-1 0 6 413.42 13.07
-1 0 5 1.32 0.64
1 0 -5 1.64 0.85
1 0 -5 2.73 1.22
1 0 -5 3.76 1.35
-1 0 5 2.61 0.89
-1 0 5 1 0.84
1 0 -4 1294.61 20.65
1 0 -4 1345.79 24.37
-1 0 4 1306.35 17.47
1 0 -4 1301.97 21.5
-1 0 4 1336.93 17.79
-1 0 4 1327.55 23.4
-1 0 3 72.47 3.32
1 0 -3 73.5 5.1
-1 0 3 69.49 3.53
1 0 -3 71.26 4.75
1 0 -3 71.78 3.79
-1 0 3 72.96 4.86
-1 0 3 71.13 3.16
1 0 -2 404.76 10.21
-1 0 2 396.39 6.59
1 0 -2 409.5 10.67
1 0 -2 396.4 5.98
-1 0 2 412.18 9.98
1 0 -1 732.01 11.47
-1 0 1 774.01 12.35
-1 0 0 672.48 10.69
-1 0 0 685.62 10.52
1 0 0 660.74 10.31
1 0 0 694.31 10.4
-1 0 0 668.53 11.62
1 0 1 672.9 10.52
1 0 1 651.2 12.92
1 0 1 657.69 12.94
1 0 2 591.87 11.38
1 0 2 560.54 14.12
-1 0 -2 589.15 8.87
1 0 2 567.69 14.34
1 0 2 569.96 8.45
1 0 3 256.19 10.9
-1 0 -3 243.14 8.62
-1 0 -3 251.1 11.3
1 0 3 244.14 8.64
1 0 3 238.27 10.53
1 0 4 578.04 15.41
1 0 4 574.45 17.98
1 0 4 573.54 17.85
-1 0 -4 534.8 14.45
-1 0 -4 558.32 18.91
-1 0 -5 50.58 6.33
1 0 5 55.14 6.09
-1 0 -5 56.07 5.23
1 0 5 51.66 5.74
1 0 5 56.67 5.39
-1 0 -6 82.61 6.96
1 0 6 96.1 7.82
1 0 6 83.5 7.89
1 0 6 82.32 7.9
-1 0 -6 92.21 9.24
1 0 7 92.17 8.43
-1 0 -7 102.01 8.43
-1 0 -7 96.84 10.12
1 0 7 88.43 8.67
1 0 7 93.1 8.82
-1 0 -8 25.64 4.61
1 0 8 23.76 4.91
1 0 8 27.87 5.1
-1 0 -8 18.85 4.84
-1 0 -9 208.07 17.15
1 0 9 208.03 14.72
-1 0 -9 219.15 14.37
1 0 10 43.54 7.06
-1 0 -10 38.83 6.67
-1 0 -10 29.34 6.73
-1 0 -11 23.63 5.38
-1 0 -11 34.22 7.77
1 0 11 29.54 6.08
-1 0 -12 157.1 14.7
1 0 12 148.08 14.15
-1 0 -12 157.03 17.84
1 0 13 -0.36 1.27
-1 0 -13 -0.38 2.13
1 0 13 -0.15 0.89
1 0 14 69.52 10.47
-1 0 -14 65.91 12.82
-1 -1 14 25.58 6.67
1 1 -14 26.56 6.56
1 1 -13 10.12 3.92
-1 -1 13 15.92 5.35
1 1 -13 7.63 3.42
-1 -1 12 13.33 5.23
-1 -1 12 7.42 3.53
1 1 -12 5.16 3.39
-1 -1 11 11.35 2.94
1 1 -11 9.43 3.39
-1 -1 11 7.74 2.68
-1 -1 11 10.6 3.75
1 1 -11 6.19 3.37
1 1 -10 384.82 15.59
-1 -1 10 396.57 16.91
-1 -1 10 363.68 20.1
-1 -1 10 385.33 17.63
1 1 -10 368.09 19.84
1 1 -10 401.41 20.9
-1 -1 9 1.18 0.87
1 1 -9 1.48 1.26
1 1 -9 0.26 1.8
1 1 -9 -2.78 1.67
-1 -1 9 0.23 0.87
-1 -1 9 0.26 0.56
1 1 -8 34.03 5.21
1 1 -8 42.24 5.96
-1 -1 8 40.48 4.82
-1 -1 8 34.93 4.84
-1 -1 8 42.75 6.42
1 1 -7 238.94 13.24
-1 -1 7 227.25 10.47
-1 -1 7 219.03 13.36
1 1 -7 220.29 12.01
-1 -1 7 225.71 11.24
-1 -1 6 10.5 2.01
1 1 -6 6.59 1.81
1 1 -6 9.06 2.48
1 1 -5 32.22 4.25
1 1 -5 19.6 2.74
-1 -1 5 26.32 3.93
-1 -1 5 24.77 2.8
1 1 -4 306.53 11.95
-1 -1 4 296.91 11.92
-1 -1 4 308.79 8.51
1 1 -4 299.3 8.97
1 1 -3 116.31 6.57
1 1 -3 107.26 4.05
-1 -1 3 108.97 4.04
1 1 -2 53.06 3.98
-1 -1 2 53.58 3.62
-1 -1 1 105.28 3.13
-1 -1 1 102.78 4.05
1 1 -1 101.01 3.95
1 1 -1 102.95 5.15
1 1 -1 99.05 2.82
-1 -1 0 39.1 2.71
1 1 0 37.42 1.95
1 1 0 37.04 2.49
-1 -1 0 40.1 2.18
1 1 1 1570.94 21.18
1 1 1 1472.89 19.85
1 1 2 135.16 7.03
1 1 2 143.23 7.3
-1 -1 -2 137.2 7.74
1 1 3 896.46 20.35
-1 -1 -3 908.92 22.47
1 1 3 882.03 20.36
1 1 4 317.85 13.23
-1 -1 -4 275.01 13.85
-1 -1 -4 284.78 14.14
1 1 4 299.34 12.93
1 1 5 239.82 12.45
-1 -1 -5 243.91 14.04
-1 -1 -5 248.87 14.53
1 1 5 247.23 12.64
-1 -1 -6 543.79 23.36
1 1 6 540.27 19.99
1 1 6 513.16 18.97
1 1 6 549.29 20.18
1 1 7 17.87 4.08
-1 -1 -7 20.89 5.02
1 1 7 25.01 4.54
1 1 7 21.5 4.22
-1 -1 -8 36.93 7.06
1 1 8 40.82 6.17
1 1 9 112.92 10.82
-1 -1 -9 91.37 11.81
-1 -1 -10 3.88 3.02
1 1 10 4.1 2.62
1 1 11 43.41 7.22
-1 -1 -11 43.05 9.52
1 1 11 38.37 6.92
1 1 12 18.73 4.99
-1 -1 -12 12.27 5.63
1 1 13 88.62 11.26
-1 -1 -13 103.5 15.9
1 1 14 0.34 1.53
-1 -1 -14 -0.89 2.13
-1 -2 14 -0.79 2.75
1 2 -14 -2.68 2.13
1 2 -13 33.27 6.93
-1 -2 13 25.76 6.87
1 2 -13 16.27 5.04
1 2 -12 181.04 15.48
-1 -2 12 155.66 15.21
-1 -2 12 153.79 12.9
1 2 -12 166 14.73
1 2 -11 13.61 3.91
1 2 -11 15.83 4.08
-1 -2 11 11.31 3
-1 -2 11 18.09 4.22
-1 -2 11 11.77 4.3
-1 -2 10 38.9 5.97
1 2 -10 35.3 6.24
-1 -2 10 36.85 5.27
1 2 -10 39.05 6.29
1 2 -9 515.76 20.92
1 2 -9 501.23 22.07
-1 -2 9 499.94 18.38
1 2 -8 71.74 7.25
-1 -2 8 67.38 7.95
1 2 -8 72.51 7.91
-1 -2 8 67.65 6.35
-1 -2 7 169.71 9.58
1 2 -7 174.44 11.52
1 2 -7 180.85 10.31
-1 -2 7 163.7 11.67
-1 -2 6 334.53 15.36
1 2 -6 298.32 12.05
1 2 -6 334.54 14.91
-1 -2 6 318.33 11.96
-1 -2 5 429.52 16.1
-1 -2 5 393.74 12.27
1 2 -5 435.84 15.84
-1 -2 5 412.4 12.72
1 2 -4 1118.65 23.43
-1 -2 4 1143.83 18.83
-1 -2 4 1134.6 18.02
-1 -2 4 1163.29 24.33
-1 -2 3 2730.65 34.03
1 2 -3 2817.86 26.13
1 2 -3 2833.38 34.26
-1 -2 3 2771.14 24.38
-1 -2 2 51.89 4.4
-1 -2 2 54.01 3.14
1 2 -2 47.97 4.19
1 2 -2 45.58 3.26
1 2 -1 2077.3 21.89
-1 -2 1 2075.13 20.59
-1 -2 1 2113.63 18.22
-1 -2 0 4344.35 34.36
-1 -2 0 4344.63 33.62
-1 -2 -1 3843.81 37.85
1 2 1 3921.91 36.51
1 2 2 1590.78 25.58
1 2 2 1536.95 25.35
-1 -2 -2 1559.23 28.28
1 2 3 501.93 14.89
1 2 3 525.54 16.08
1 2 3 534.21 16.22
-1 -2 -3 512.69 18.14
1 2 4 255.62 12.13
1 2 4 280.06 12.76
-1 -2 -4 276.69 14.57
1 2 5 218.62 12.1
-1 -2 -5 227.94 14.48
1 2 5 215 11.88
-1 -2 -5 208.64 13.91
1 2 5 232.76 12.54
1 2 5 193.92 4.88
-1 -2 -6 287.74 17.86
1 2 6 313.56 15.39
1 2 6 317.91 15.72
-1 -2 -6 296.99 17.87
1 2 6 298.28 15.22
-1 -2 -7 556.07 26.66
-1 -2 -7 488.35 24.29
1 2 8 6.08 2.13
-1 -2 -8 1.34 1.2
1 2 9 62.33 7.32
-1 -2 -9 76.68 11.33
-1 -2 -10 48.3 9.64
1 2 10 53.58 7.18
-1 -2 -11 -0.04 2.65
1 2 11 3.84 2.45
-1 -2 -12 36.95 9.32
1 2 12 56.4 8.33
1 2 13 24.95 5.8
-1 -2 -13 13.48 5.3
1 3 -14 5.47 3.24
-1 -3 14 6.42 4.02
-1 -3 13 4.83 2.72
-1 -3 13 1.77 1.57
-1 -3 13 3.04 2.06
1 3 -13 3.83 2.61
-1 -3 12 89.12 10.6
1 3 -12 82.68 10.39
-1 -3 12 55.95 9.17
-1 -3 12 87.16 10.2
-1 -3 11 4.73 2.1
-1 -3 11 0.58 1.49
1 3 -11 2.07 2.27
-1 -3 10 17 3.79
1 3 -10 14.77 4.07
1 3 -9 -0.75 1.11
-1 -3 9 -0.38 1.24
-1 -3 8 71.58 6.93
-1 -3 8 59.74 7.62
-1 -3 8 48.48 6.02
1 3 -8 59.88 7.37
1 3 -7 68.67 7.38
-1 -3 7 60.77 6.13
-1 -3 7 58.35 6.02
-1 -3 7 68.49 7.68
-1 -3 6 44.71 5.82
-1 -3 6 50.6 5.12
1 3 -6 46.87 5.75
-1 -3 6 41.49 4.75
-1 -3 5 601.99 16.15
1 3 -5 606.84 19.32
-1 -3 5 641.89 20.35
-1 -3 5 590.83 17.22
-1 -3 4 126.32 6.74
1 3 -4 135.83 7.53
1 3 -4 146.79 8.95
-1 -3 4 130.99 8.46
1 3 -3 7.54 2.05
-1 -3 3 9.39 2.17
1 3 -3 9.96 2
-1 -3 3 9.1 1.68
1 3 -2 126.23 7.06
1 3 -2 130.97 7.78
-1 -3 2 134.2 6.56
1 3 -1 1.26 0.79
-1 -3 1 1.22 0.81
1 3 0 838.29 18.96
-1 -3 0 815.73 17.98
-1 -3 -1 32.63 3.96
1 3 1 21.2 3.2
-1 -3 -2 439.21 16.77
1 3 2 451.35 15.69
1 3 3 997.11 12.97
1 3 3 1032.17 25.41
-1 -3 -3 971.7 26.85
1 3 4 0.21 0.56
1 3 4 0.45 0.68
1 3 4 2.21 1.54
1 3 4 0.76 0.37
-1 -3 -4 0.8 0.86
-1 -3 -4 1.32 1.41
-1 -3 -5 132.67 11.69
1 3 5 155.73 11.17
1 3 5 142.73 7.17
1 3 5 175.55 11.57
1 3 5 135.87 9.99
-1 -3 -5 147.75 12.37
1 3 5 150.03 6.47
-1 -3 -6 33.87 6.5
1 3 6 41.89 4.39
1 3 6 34.24 2.78
-1 -3 -6 30.54 5.94
-1 -3 -7 153.11 14.68
1 3 7 168.58 9.8
-1 -3 -8 28.84 6.67
1 3 8 31.3 4.61
1 3 9 1.74 1.25
-1 -3 -9 2.29 2.26
1 3 10 66.38 7.9
-1 -3 -10 69.81 11.94
-1 -3 -11 144.34 18.21
1 3 11 135.29 11.89
-1 -3 -12 9.5 5.13
-1 -4 14 47.12 9.4
1 4 -14 47.84 8.87
-1 -4 13 11.67 4.47
1 4 -13 12.73 4.16
1 4 -12 52.28 8.42
-1 -4 12 56.57 8.15
1 4 -11 238.44 17.14
-1 -4 11 260.55 16.61
1 4 -10 67.94 8.61
-1 -4 10 71.56 8.02
-1 -4 9 140.01 10.74
1 4 -9 144.25 12.1
-1 -4 8 49.06 7.02
-1 -4 8 51.36 6.26
-1 -4 8 48.71 6.18
1 4 -8 46.76 6.61
-1 -4 7 11.5 3.39
-1 -4 7 15.54 3.38
1 4 -7 18.17 3.98
-1 -4 7 11.45 2.76
-1 -4 6 182.03 10.18
1 4 -6 163.99 11.05
-1 -4 6 175.76 11.7
-1 -4 6 164.11 10.59
1 4 -5 210.19 11.19
-1 -4 5 213.84 10.37
1 4 -5 209.31 11.84
-1 -4 5 231.8 12.63
-1 -4 4 52.69 4.97
1 4 -4 48 5.43
1 4 -4 57.75 5.84
-1 -4 4 51.68 5.63
1 4 -3 60.23 5.91
1 4 -3 52.21 5.5
-1 -4 3 59.9 5.14
1 4 -2 1.04 0.65
1 4 -2 0.46 0.5
-1 -4 2 -0.29 0.36
-1 -4 1 310.3 12.26
1 4 -1 311 13.44
1 4 0 223.33 11.57
1 4 1 1728.2 33.48
1 4 2 206.36 12.15
-1 -4 -2 217.93 12.53
-1 -4 -3 109.62 9.75
1 4 3 108.41 8.15
-1 -4 -3 116.58 10.17
1 4 3 128.54 10
1 4 4 100.16 8.34
-1 -4 -4 88.54 9.6
-1 -4 -4 103.79 10.24
1 4 4 94.74 4.62
1 4 5 526.29 13.12
-1 -4 -5 512.89 24.55
1 4 6 53.94 4.61
1 4 6 57.08 4.95
-1 -4 -6 68.26 9.71
-1 -4 -7 213.76 18.3
1 4 7 198.17 7.59
1 4 7 244.69 11.47
1 4 8 2.3 1.5
-1 -4 -8 5.6 3.15
1 4 9 -0.78 0.98
-1 -4 -9 8.91 4.84
-1 -4 -10 132.6 17.75
-1 -4 -11 6.6 3.34
1 5 -14 15.01 5.19
1 5 -13 33.28 6.93
-1 -5 13 30.75 7.64
1 5 -12 37.46 7.09
-1 -5 12 47.36 7.43
-1 -5 11 -0.44 1.1
1 5 -11 2.95 2.22
1 5 -10 2.2 1.51
-1 -5 10 0.72 1.2
1 5 -9 83.92 9.44
-1 -5 9 90.83 9.42
1 5 -8 42.72 6.43
-1 -5 8 59.35 7.36
1 5 -7 128.75 10.66
-1 -5 7 129.07 11.03
-1 -5 7 125.49 9.42
-1 -5 7 123.84 10.45
-1 -5 6 8.79 2.67
-1 -5 6 8.13 2.32
-1 -5 6 5.96 2.14
1 5 -6 2.36 1.33
1 5 -6 5.85 2.22
-1 -5 5 10.05 2.44
1 5 -5 14.55 3.27
1 5 -5 8.29 2.53
1 5 -4 61.46 6.6
1 5 -4 70.66 7.42
-1 -5 4 58.69 5.78
1 5 -3 9.12 2.82
1 5 -3 8.59 2.44
1 5 -2 337.82 16.25
1 5 -2 346.66 15.47
1 5 -1 17 4.07
1 5 0 553.83 21.1
-1 -5 0 574.4 19.82
-1 -5 0 519.31 18.87
1 5 1 124.19 10.31
-1 -5 -1 137.32 10.09
-1 -5 -1 130.77 9.99
1 5 2 65.04 7.68
-1 -5 -2 55.72 6.96
1 5 3 44.3 5.57
-1 -5 -3 51.08 7.23
-1 -5 -4 0.73 1.71
1 5 5 2.23 0.72
-1 -5 -5 -0.24 1.27
-1 -5 -6 8.73 3.55
1 5 6 10.18 1.92
1 5 6 9.95 2.52
1 5 7 25.18 3.45
-1 -5 -7 18.89 5.85
-1 -5 -8 269.81 23.44
-1 -5 -9 27.92 8.43
-1 -5 -10 7.06 4.06
1 6 -14 114.47 13.55
1 6 -13 60.04 9.62
1 6 -12 45.29 8.08
-1 -6 11 79.14 9.1
1 6 -11 74.54 9.88
-1 -6 10 1.99 1.95
1 6 -10 1.47 1.07
-1 -6 9 65.07 8.6
-1 -6 9 66.65 7.64
1 6 -9 69.73 8.79
1 6 -8 0.89 0.86
-1 -6 8 -0.01 1.26
-1 -6 7 0.09 1.49
1 6 -7 -0.38 0.54
-1 -6 7 1.84 1.64
1 6 -6 87.97 8.8
1 6 -6 89.81 9.36
1 6 -5 2.36 1.54
1 6 -5 0.44 0.92
1 6 -4 99.02 9.98
1 6 -4 101.66 8.95
-1 -6 4 97.64 8.34
1 6 -3 97.4 8.76
1 6 -3 98.66 10.03
-1 -6 3 93.55 8.11
1 6 -2 6.58 4.17
-1 -6 2 10.9 3.96
-1 -6 1 427.82 8.61
-1 -6 1 438.95 18.49
1 6 -1 400.95 20.12
-1 -6 0 2.54 1.58
-1 -6 0 1.43 1.08
-1 -6 -1 14.62 3.77
-1 -6 -1 19.96 4.27
-1 -6 -2 46.76 7.01
-1 -6 -3 101.29 11.11
-1 -6 -4 -0.62 2.17
1 6 5 33.39 4.97
-1 -6 -5 33.78 7.47
-1 -6 -6 12.88 5.39
1 6 6 15.82 3.25
-1 -6 -7 -0.32 1.38
-1 -6 -8 49.29 10.81
1 7 -14 8.78 3.71
1 7 -13 12.8 4.48
1 7 -12 5.31 3.59
1 7 -11 14.44 3.94
1 7 -10 1.93 1.07
-1 -7 10 -2.41 1.62
1 7 -9 6.18 2.88
-1 -7 9 2.15 1.76
1 7 -8 -2.17 1.61
-1 -7 8 -0.49 0.71
1 7 -7 6.14 2.44
1 7 -7 6.24 2.56
-1 -7 6 65.64 7.32
1 7 -6 62.94 8.72
1 7 -6 63.77 7.82
1 7 -5 25.12 5.46
1 7 -5 19.33 4.38
1 7 -4 336.53 20.38
1 7 -4 328.16 17.13
-1 -7 4 339.84 16.73
1 7 -3 4.47 2.18
-1 -7 3 25.31 4.86
-1 -7 2 163.2 12.25
-1 -7 2 150.46 6.81
1 7 -2 160.23 12.36
-1 -7 1 151.33 12.08
-1 -7 1 142.59 11.53
-1 -7 0 2.81 2.24
-1 -7 0 4.48 2.22
-1 -7 -1 160.03 13.44
-1 -7 -2 55.09 8.4
-1 -7 -3 7.3 3.31
-1 -7 -4 1.62 1.72
1 7 5 6.44 2.39
-1 -7 -5 6.87 3.65
-1 -7 -6 350.18 26.74
-1 -7 -7 8.31 4.85
1 8 -13 28.36 6.74
1 8 -12 -0.71 1.4
1 8 -11 59.23 9.17
1 8 -10 -0.33 0.9
-1 -8 9 5.43 2.54
1 8 -9 -0.86 1.94
1 8 -8 63.45 8.5
-1 -8 8 81.42 8.85
1 8 -7 0.11 0.62
-1 -8 7 -0.11 1.56
-1 -8 6 81.58 8.75
1 8 -6 83.32 9.37
1 8 -5 26.97 5.22
-1 -8 5 35.25 5.88
-1 -8 4 75.75 8.72
1 8 -4 68.57 8.39
-1 -8 3 77.37 8.88
-1 -8 3 68.64 5.43
1 8 -3 73.02 8.59
1 8 -2 26.28 5.25
-1 -8 2 29.8 5.78
-1 -8 2 27.27 5.46
-1 -8 1 74.74 9.41
-1 -8 1 68.89 8.7
-1 -8 0 9.55 3.27
-1 -8 0 9.75 3.76
-1 -8 -1 11.86 4.31
-1 -8 -2 -0.3 0.98
-1 -8 -3 14.08 5.24
-1 -8 -4 51.73 9.97
-1 -8 -5 2.69 2.77
1 9 -9 1.59 1.96
-1 -9 8 107.92 10.73
1 9 -8 72.85 9.41
1 9 -7 78.25 9.44
-1 -9 7 97.38 10.04
-1 -9 6 345.88 19.34
1 9 -6 303.18 18.41
-1 -9 5 8.08 2.99
1 9 -5 13.67 4.18
1 9 -4 104.88 10.81
-1 -9 4 83.95 9.88
-1 -9 3 35.17 6.49
-1 -9 3 25.02 5.54
1 9 -3 36.22 6.35
-1 -9 2 13.82 4.17
-1 -9 2 14.92 4.42
1 9 -2 17.97 4.74
1 9 -1 157.96 14.13
-1 -9 1 164.4 14.64
-1 -9 1 152.42 14.55
-1 -9 0 91.83 11.84
-1 -9 -1 28.06 7.07
-1 -9 -2 1.19 0.97
-1 -9 -3 41.28 9.06
-1 -10 7 15.72 4.81
-1 -10 6 202.55 15.75
-1 -10 5 11.44 3.83
-1 -10 4 1.18 2.19
-1 -10 4 2.22 1.13
-1 -10 3 111.04 12.69
-1 -10 3 117.14 12.72
-1 -10 2 54.1 8.88
-1 -10 2 50.6 8.85
-1 -10 1 -1.61 3.01
-1 -10 0 6.63 3.22
-1 -11 6 113.59 13.1
-1 -11 5 16.75 4.67
-1 -11 5 18.45 5.48
-1 -11 4 12.33 4.55
-1 -11 3 18.21 5.53
2 -11 6 6.07 3.92
-2 10 3 9.88 4.76
-2 10 2 16.99 5.79
-2 10 1 2.98 2.92
-2 10 0 -0.79 2.33
2 -10 0 3.11 2.8
-2 10 -1 62.87 11.13
2 -10 1 52.64 9.37
2 -10 2 -0.2 1.81
-2 10 -2 -1.32 2.41
-2 10 -3 39.53 8.86
2 -10 3 39.19 7.96
2 -10 4 33.8 7.35
2 -10 5 21.05 6.04
2 -10 6 43.39 8.62
2 -10 7 1.32 1.7
2 -10 8 16.01 5.11
2 -10 9 8.17 3.66
2 -10 10 17.43 5.88
-2 9 4 4.27 3.68
2 -9 -3 55.71 9.42
2 -9 -3 46.34 8.65
-2 9 3 41.25 8.57
-2 9 2 -0.09 2.15
2 -9 -2 1.96 1.86
2 -9 -2 2.4 2.33
2 -9 -1 39.47 7.74
-2 9 1 34.51 7.66
2 -9 0 0.33 1.18
-2 9 0 -4.13 2.76
2 -9 1 58 9.16
-2 9 -1 51.81 9.21
-2 9 -2 1.49 2.32
2 -9 2 7.14 3.5
2 -9 3 26.19 6.46
2 -9 4 29.09 6.78
2 -9 5 15.11 4.88
2 -9 6 33.36 7.25
2 -9 7 10.65 4.5
2 -9 8 31.65 7.2
2 -9 9 0.5 2.26
2 -9 10 36.67 8.07
2 -9 11 41.55 9.13
2 -9 12 12.27 5.43
2 -8 -6 249.26 21.43
-2 8 5 -2.47 2.45
2 -8 -5 -0.1 0.9
-2 8 4 19.17 5.47
2 -8 -4 17.22 5.28
2 -8 -4 21.95 5.73
2 -8 -3 51.44 8.59
2 -8 -3 44.48 7.98
-2 8 3 36.79 7.36
2 -8 -2 6.68 2.81
-2 8 2 7.75 3.51
2 -8 -1 278.59 19.29
-2 8 1 278.54 20.18
-2 8 0 8.04 3.46
2 -8 0 4.47 2.4
2 -8 1 100.73 9.28
-2 8 -1 101.77 6.46
2 -8 1 106.87 11.75
-2 8 -1 114.97 13.01
2 -8 2 134.67 11.46
2 -8 2 118.96 12.36
-2 8 -2 128.25 6.32
2 -8 3 33.92 7.21
-2 8 -3 17.19 2.05
2 -8 4 186.95 15.89
-2 8 -4 185.09 6.4
-2 8 -5 2.07 0.86
2 -8 5 13.26 4.71
-2 8 -6 81.12 5.25
2 -8 6 61.27 9.46
2 -8 7 30.35 6.93
2 -8 8 5.42 3.45
2 -8 9 162.51 16.66
2 -8 10 7.07 4.17
2 -8 11 21.71 6.77
2 -8 12 1.55 2.87
2 -8 13 5.61 4.21
-2 8 -13 6.23 3.51
2 -7 -8 78.76 12.67
2 -7 -7 11.82 5.02
2 -7 -6 18.19 5.54
-2 7 6 12.56 4.15
2 -7 -5 73.15 10.11
-2 7 5 68.51 9.54
2 -7 -5 56.02 8.85
2 -7 -4 6.02 2.84
2 -7 -4 7.34 3.21
-2 7 4 -0.33 1.11
2 -7 -3 55.52 5.52
-2 7 3 37.57 7.03
2 -7 -3 64.39 8.98
-2 7 3 51.87 6.22
2 -7 -3 52.32 7.92
-2 7 2 63.17 8.98
2 -7 -2 64.32 6.05
2 -7 -2 56.7 8.24
2 -7 -1 6.91 2.11
-2 7 1 4.26 1.38
-2 7 1 7.91 2.93
2 -7 -1 7.15 2.68
2 -7 0 1.99 1.94
-2 7 0 2.13 1.1
-2 7 0 2.47 1.45
2 -7 1 39 6.63
-2 7 -1 39.55 3.29
-2 7 -1 42.2 3.78
2 -7 2 13.41 4.4
-2 7 -2 7.75 1.43
-2 7 -2 7.72 1.23
2 -7 2 10.91 3.51
-2 7 -3 228.14 6.7
2 -7 3 245.67 17.11
-2 7 -4 12.32 1.69
2 -7 4 43.85 7.73
-2 7 -5 2 0.79
2 -7 5 2.08 1.48
2 -7 6 132.64 13.45
-2 7 -6 109.92 6.37
2 -7 7 58.66 9.19
-2 7 -7 72.05 5.8
2 -7 8 1.11 1.59
-2 7 -8 3.05 1.42
-2 7 -9 12.17 2.85
2 -7 9 15.82 5.62
2 -7 10 6.35 4.11
-2 7 -10 -0.16 0.83
-2 7 -11 72.67 8.04
2 -7 11 75.82 12.19
2 -7 12 3.17 1.48
-2 7 -13 85.14 11.84
2 -7 13 85.39 13.51
2 -6 -10 120.41 16.22
2 -6 -9 31.14 8.25
2 -6 -8 524.39 30.3
2 -6 -7 91.48 11.74
-2 6 7 65.42 8.66
-2 6 7 74.48 8.45
-2 6 6 27.12 5.59
2 -6 -6 23.75 5.6
-2 6 6 19.46 4.24
-2 6 5 130.89 12.34
2 -6 -5 145.59 13.13
2 -6 -5 153.82 13.24
-2 6 5 133.73 10.39
2 -6 -4 5.74 2.65
2 -6 -4 3.93 1.62
-2 6 4 9.55 3.25
-2 6 4 7.15 2.54
-2 6 3 337.75 19.18
2 -6 -3 319.71 13.48
2 -6 -3 373.62 19.96
2 -6 -2 15.04 2.99
-2 6 2 15.67 2.96
2 -6 -2 19.63 4.53
-2 6 2 22.08 4.98
2 -6 -1 306.67 13.96
2 -6 -1 322.92 17.91
-2 6 1 341.73 11.79
-2 6 1 353.65 19.28
2 -6 0 148.38 12.12
-2 6 0 150.85 6.6
-2 6 0 157.52 12.89
2 -6 0 138.79 9.94
-2 6 -1 136.46 5.82
2 -6 1 124.93 11.26
-2 6 -1 138.06 5.19
2 -6 2 131.92 11.66
-2 6 -2 126.51 4.03
-2 6 -2 122.21 4.42
-2 6 -3 23.7 1.88
2 -6 3 29.02 5.75
-2 6 -3 26.62 6.16
-2 6 -4 139.48 5.38
-2 6 -4 127.54 13.22
2 -6 4 156.59 13.32
2 -6 5 38.77 6.89
-2 6 -5 41.61 3.48
-2 6 -6 70.3 5.2
2 -6 6 60.5 8.82
2 -6 6 65.54 5.63
2 -6 7 119.99 12.81
-2 6 -7 121.21 7.66
2 -6 7 113.65 8.29
2 -6 8 17.43 3.63
2 -6 8 17.21 4.95
-2 6 -8 18.56 3.34
-2 6 -9 62.23 6.65
2 -6 9 67.42 10.25
2 -6 9 56.42 7.14
-2 6 -10 -0.41 0.68
2 -6 10 2.96 3.45
2 -6 11 19.36 6.09
-2 6 -11 18.16 4.16
-2 6 -12 42.87 7.58
2 -6 12 65.28 11.11
-2 6 -12 66.57 8.34
-2 6 -13 17.4 4.57
2 -6 13 13.87 5.58
2 -6 14 38.48 9.13
-2 6 -14 38.97 7.38
2 -5 -11 15.5 5.85
2 -5 -10 354.41 26.54
2 -5 -9 184.94 17.7
-2 5 9 152.96 13.88
-2 5 8 185.67 14.31
-2 5 8 218.26 14.35
2 -5 -8 200.21 17.22
2 -5 -7 65.79 9.22
-2 5 7 54.69 7.27
-2 5 7 61.58 8
2 -5 -6 0.81 1.07
-2 5 6 2.97 1.42
-2 5 6 -0.21 0.94
-2 5 5 149.76 10.93
-2 5 5 181.01 12.48
2 -5 -5 177.91 13.12
-2 5 5 166.14 12.88
2 -5 -5 175.83 13.31
-2 5 4 334.11 18.12
-2 5 4 358.99 16.24
-2 5 4 352.6 15.84
2 -5 -4 332.57 17.68
2 -5 -4 371.84 18.12
2 -5 -3 184.76 10.09
-2 5 3 149.72 11.84
2 -5 -3 188.27 12.94
-2 5 3 174.69 10.04
2 -5 -2 6.94 2
-2 5 2 4.83 1.63
-2 5 2 4.24 2.31
-2 5 2 7.12 2.74
2 -5 -2 10.85 3.25
-2 5 1 125.38 6.42
2 -5 -1 132.68 8.92
2 -5 -1 119.79 10.02
-2 5 1 115.71 10.17
-2 5 1 114.33 11.25
2 -5 0 0.27 0.93
-2 5 0 0.83 1.36
-2 5 0 0.18 0.31
2 -5 0 0.8 0.82
-2 5 0 0.37 1.04
2 -5 1 129.08 9.36
-2 5 -1 127.9 11.98
-2 5 -1 131.89 3.98
-2 5 -1 132.85 4.48
2 -5 1 142.8 11.23
-2 5 -2 42.36 6.96
2 -5 2 42.18 6.24
-2 5 -3 6.32 2.62
2 -5 3 0.62 1.25
-2 5 -3 4.02 0.68
2 -5 4 0.37 1.13
-2 5 -4 2.48 0.73
-2 5 -4 0.91 1.34
-2 5 -5 39.37 6.89
-2 5 -5 38.62 3.41
2 -5 5 35.92 6.78
2 -5 5 34.3 6.28
2 -5 5 34.49 3.62
2 -5 6 2.57 1.37
2 -5 6 2.01 1.85
-2 5 -6 2.21 1.09
2 -5 6 2.15 2.58
2 -5 7 5.4 2.05
-2 5 -7 5.13 1.65
2 -5 7 2.87 2.34
-2 5 -8 21.61 3.66
2 -5 8 20.88 5.4
2 -5 8 23.04 4.29
-2 5 -9 73.41 7.33
2 -5 9 65.01 9.74
2 -5 9 74.91 8.18
2 -5 10 15.55 5.17
-2 5 -10 22.28 4.39
-2 5 -11 209.92 14.78
-2 5 -11 262.16 15.93
2 -5 11 238.06 20.65
2 -5 12 48.39 9.69
-2 5 -12 46.62 7.1
-2 5 -12 38.29 6.52
2 -5 13 11.51 4.39
-2 5 -13 18.22 4.9
2 -5 14 17.45 5.71
-2 5 -14 22.48 5.62
2 -4 -12 17.29 6.67
2 -4 -11 99.32 14.13
-2 4 11 117.81 13.03
2 -4 -10 52.98 9.53
-2 4 10 46.67 7.78
2 -4 -9 14.66 5.07
2 -4 -9 21.93 5.32
-2 4 9 25.47 5.67
2 -4 -8 89.25 10.67
-2 4 8 108.53 9.4
2 -4 -8 92.28 10.19
-2 4 8 82.41 9.38
2 -4 -8 92.8 9.62
2 -4 -7 3.23 1.97
2 -4 -7 4.6 2.51
-2 4 7 2.23 1.3
2 -4 -7 1.77 1.48
-2 4 7 2.36 1.3
2 -4 -6 304.43 16.81
2 -4 -6 303.32 15.03
-2 4 6 269.47 15.75
-2 4 6 306.93 16.32
-2 4 6 330.89 17.03
2 -4 -6 296.93 15.69
2 -4 -5 30.48 4.68
-2 4 5 19.53 4.16
2 -4 -5 27.19 4.73
2 -4 -5 22.36 3.73
-2 4 5 17.16 3.72
2 -4 -5 24.74 4.49
-2 4 5 19.87 3.98
-2 4 4 34.72 4.98
2 -4 -4 38.26 4.47
2 -4 -4 42.44 4.89
-2 4 4 43.68 6.45
2 -4 -4 39.47 5.27
2 -4 -4 36.12 5.37
-2 4 4 45.93 6.16
2 -4 -3 1324.23 26.55
-2 4 3 1422.97 26.88
-2 4 3 1350.13 32.82
2 -4 -3 1384.07 31.77
-2 4 3 1349.12 35.07
-2 4 3 1399.03 29.84
-2 4 2 34.38 3.64
2 -4 -2 34.11 4.2
2 -4 -2 34.84 4.97
-2 4 2 39.77 4.86
-2 4 2 27.94 4.96
-2 4 2 38.35 5.38
-2 4 1 228.96 12.91
-2 4 1 208.94 7.51
-2 4 1 228.11 14.27
2 -4 -1 216.47 11.09
2 -4 0 356.44 14.45
-2 4 0 340.53 7.2
-2 4 0 357.58 15.94
-2 4 -1 9.54 2.94
-2 4 -1 10.83 2.76
-2 4 -2 332.11 17.53
-2 4 -3 459.34 7.46
2 -4 3 457.79 8.66
-2 4 -3 470.1 21.13
-2 4 -4 0.83 0.74
-2 4 -4 0.81 0.51
2 -4 4 0.72 0.68
2 -4 4 1.42 0.81
-2 4 -5 677.76 14.99
2 -4 5 675.94 16.61
2 -4 5 677.89 27.39
2 -4 5 678.05 26.49
2 -4 6 6.26 2.6
2 -4 6 13.85 2.75
-2 4 -6 12.9 2.4
2 -4 6 12.42 3.85
-2 4 -7 91.36 6.99
2 -4 7 97.53 11.01
2 -4 7 91.44 7.68
2 -4 7 93.79 10.65
-2 4 -8 180.83 10.83
2 -4 8 164.75 14.79
2 -4 8 181.98 11.82
2 -4 9 43.03 6.05
2 -4 9 30.09 6.46
-2 4 -9 36.4 5.27
-2 4 -10 357.64 17.16
-2 4 -10 399.47 18.81
2 -4 10 423.27 26.15
-2 4 -11 11.44 3.48
2 -4 11 4.99 3.21
-2 4 -11 9.24 2.98
-2 4 -12 73.61 11.77
-2 4 -12 68.33 8.93
2 -4 12 75.94 12.43
2 -4 13 15.7 6.13
2 -4 13 11.61 5.4
-2 4 -13 11.19 3.93
2 -4 14 2.84 2.89
-2 4 -14 1.22 1.74
2 -4 14 -1.56 3.85
2 -4 15 26.17 8.09
2 -4 15 7.62 4.51
-2 3 13 7.19 4.23
2 -3 -13 9.21 5.55
2 -3 -12 54.26 10.34
2 -3 -12 54.11 9.2
-2 3 12 39.74 7.89
-2 3 11 5.09 3.01
2 -3 -11 2.46 1.9
2 -3 -11 3.73 3.11
2 -3 -10 202.87 15.79
2 -3 -10 191.14 16.85
-2 3 10 182.71 15.01
-2 3 9 6.96 2.46
2 -3 -9 13.92 4.14
2 -3 -9 9.57 3.04
2 -3 -8 146.31 11.84
-2 3 8 115.08 10.68
2 -3 -8 142.05 12.61
2 -3 -8 129.79 11.14
2 -3 -7 -0.47 0.83
-2 3 7 -2.38 1.52
-2 3 7 -0.23 0.65
2 -3 -7 -0.98 0.66
2 -3 -7 -3.41 1.82
-2 3 6 112.79 9.16
-2 3 6 125.14 10.38
2 -3 -6 113.06 8.9
-2 3 6 118.58 10.04
-2 3 6 123.37 10.02
2 -3 -6 114.65 8.84
2 -3 -6 123.81 9.79
-2 3 5 413.9 17.48
-2 3 5 454.95 18.14
-2 3 5 454.76 19.03
2 -3 -5 446.44 16.29
2 -3 -5 425.16 15.41
-2 3 5 461.67 18.15
2 -3 -5 424.87 16.48
2 -3 -5 444.26 17.43
2 -3 -4 41.36 4.48
2 -3 -4 42.54 5.15
-2 3 4 50.88 5.49
2 -3 -4 47.35 4.99
-2 3 4 44.18 5.67
-2 3 4 40.64 5.5
-2 3 4 54.3 5.94
2 -3 -4 51.26 5.42
2 -3 -3 3.46 1.54
-2 3 3 4.61 1.71
-2 3 3 2.8 1.46
2 -3 -3 3.21 1.05
2 -3 -3 1.4 0.9
-2 3 3 3.44 1.37
-2 3 3 3.31 1.72
2 -3 -2 126.32 8.45
-2 3 2 118.3 6.43
2 -3 -2 121.52 7.63
-2 3 2 131.9 9.55
-2 3 2 115.81 8.59
2 -3 -2 144.83 6.37
-2 3 2 134.68 8.54
-2 3 1 259.14 13.53
2 -3 -1 267.5 12.36
-2 3 1 251.06 7.54
-2 3 1 255.93 12.49
2 -3 -1 241.01 11.17
2 -3 -1 241.43 6.58
-2 3 0 331.8 6.06
2 -3 0 349.88 13.49
-2 3 0 327.53 13.86
-2 3 0 358.08 15.96
-2 3 -1 231.28 11.41
-2 3 -1 222.26 12.63
-2 3 -2 0.6 0.99
-2 3 -2 1.18 0.59
-2 3 -3 1300.65 32.04
2 -3 3 1297.78 31.73
2 -3 3 1317.66 16.22
2 -3 3 1328.93 32.71
-2 3 -3 1305.06 14.64
-2 3 -4 933.44 15.64
2 -3 4 893.38 28.11
2 -3 4 937.35 17.17
-2 3 -5 646.37 15.39
2 -3 5 633.66 16.44
2 -3 5 622.78 24.81
-2 3 -6 85.97 9.45
2 -3 6 77.36 9.18
2 -3 6 80.32 6.57
-2 3 -6 79.86 6.12
2 -3 6 74.58 8.96
-2 3 -7 516.52 17.77
2 -3 7 521.36 24.9
-2 3 -7 530.14 24.89
-2 3 -7 503.22 16.95
2 -3 7 500.03 18.11
2 -3 7 507.84 24.33
2 -3 8 28.68 5.93
2 -3 8 32.88 6.69
-2 3 -8 23.56 5.54
-2 3 -8 31.88 4.68
-2 3 -8 28.69 4.26
2 -3 8 38.39 5.45
-2 3 -9 823.16 34.62
-2 3 -9 833.6 25.75
-2 3 -9 793.15 22.55
-2 3 -10 22.44 6.16
-2 3 -10 16.34 3.38
-2 3 -10 21.2 4.48
-2 3 -11 81.99 12.08
-2 3 -11 92.78 9.82
-2 3 -11 81.09 7.27
2 -3 11 86.98 12.03
2 -3 12 16.05 6.01
-2 3 -12 22.13 5.32
-2 3 -12 29.17 7.73
-2 3 -13 51.89 10.75
-2 3 -13 52.96 8.56
2 -3 13 45.8 9.45
-2 3 -14 24.16 7.45
2 -3 14 12.13 5.37
2 -3 14 20.56 6.79
2 -3 15 2.57 2.57
2 -3 15 8.11 4.71
-2 3 -15 9.45 5.23
-2 2 14 6.08 3.16
-2 2 13 113.24 13.78
2 -2 -13 128.53 15.9
-2 2 12 4.08 2.52
2 -2 -12 6.55 4.06
2 -2 -12 4.08 2.29
2 -2 -11 11.83 4.43
-2 2 11 6.42 3.22
2 -2 -11 5.22 2.19
2 -2 -10 77.92 10.2
-2 2 10 70.75 9.18
2 -2 -10 71.19 9.23
2 -2 -9 2.97 2.06
2 -2 -9 3.41 2.22
-2 2 9 -0.92 1.45
-2 2 8 171.13 11.99
2 -2 -8 159.44 9.06
-2 2 8 143.47 11.64
2 -2 -8 174.54 12.64
2 -2 -8 142.16 11.7
2 -2 -7 -0.53 1.01
-2 2 7 1.38 0.95
2 -2 -7 0.66 0.66
2 -2 -7 0.27 0.98
2 -2 -7 0.16 0.56
-2 2 7 0.08 0.49
-2 2 7 0.22 1.13
2 -2 -6 16.78 3
2 -2 -6 15.23 3.08
-2 2 6 15.65 3.48
2 -2 -6 18.31 3.16
-2 2 6 17.52 3.43
2 -2 -6 10.23 2.87
-2 2 6 15.48 3.56
-2 2 6 16.88 3.24
-2 2 5 473.02 16.92
2 -2 -5 493.04 17.01
2 -2 -5 481.49 14.14
-2 2 5 493.3 17.63
-2 2 5 470.09 17.6
2 -2 -5 502.87 16.27
2 -2 -5 486.7 15.84
-2 2 4 534.92 17.08
2 -2 -4 563.86 17.09
2 -2 -4 554.18 15.36
2 -2 -4 548.41 16.16
2 -2 -4 554.2 16.38
-2 2 4 546.14 17.49
-2 2 4 528.52 17.68
2 -2 -4 541.66 16.55
-2 2 4 545.33 18.27
2 -2 -3 136.06 7.63
2 -2 -3 146.42 8.47
2 -2 -3 137.18 7.9
-2 2 3 129.14 8.35
-2 2 3 126.91 8.51
2 -2 -3 130.3 7.09
-2 2 3 138.45 7.74
-2 2 3 135.68 8.4
-2 2 2 1.15 0.78
2 -2 -2 0.5 0.57
2 -2 -2 1.37 0.82
-2 2 2 0.22 0.51
2 -2 -2 0.28 0.4
-2 2 2 1.18 0.87
-2 2 2 1.46 1.1
2 -2 -2 0.38 0.49
2 -2 -1 1137.24 22.88
-2 2 1 1177.91 24.48
2 -2 -1 1168.73 15.15
-2 2 1 1138.08 23.15
2 -2 -1 1196.55 23.02
-2 2 1 1122.33 24.34
2 -2 -1 1146.18 22.66
-2 2 1 1133.38 15.75
2 -2 0 514.87 15.41
-2 2 0 527.77 16.93
2 -2 0 518.51 7.58
-2 2 0 475.59 7.84
-2 2 0 485.51 15.47
2 -2 0 507.86 15.83
-2 2 -1 318.18 12.17
-2 2 -1 285.26 12.62
2 -2 2 535.68 8.47
2 -2 2 538.25 18.23
-2 2 -2 571.35 18.75
2 -2 3 142.75 5.69
2 -2 3 138.06 9.86
-2 2 -3 146.09 8.08
-2 2 -4 10.22 2.19
2 -2 4 6.84 2.45
2 -2 4 6.81 1.52
2 -2 4 7.44 2.39
-2 2 -4 4.52 1.9
-2 2 -4 9.71 1.76
2 -2 5 310.97 16.69
-2 2 -5 294.66 11.1
2 -2 5 303.25 11.59
-2 2 -5 286.71 16.18
-2 2 -5 316.37 11.97
-2 2 -6 52.13 7.22
-2 2 -6 49.61 5.06
2 -2 6 46.95 6.9
2 -2 6 49.28 5.27
-2 2 -6 42.74 4.47
-2 2 -7 210.65 9.93
-2 2 -7 231.93 11.99
2 -2 7 223.05 15.79
2 -2 7 216.31 12.18
-2 2 -7 219.68 16
-2 2 -8 122.29 9.46
2 -2 8 133.46 12.68
2 -2 8 122.27 9.98
-2 2 -8 122.26 7.62
-2 2 -8 125.47 12.75
-2 2 -9 2.16 1.12
-2 2 -9 1.32 1.49
2 -2 9 4.19 2.8
-2 2 -9 6.13 2.42
2 -2 10 465.53 26.25
-2 2 -10 504.65 28.98
-2 2 -10 501.32 22.11
-2 2 -10 507.15 14.86
-2 2 -11 77.39 11.87
-2 2 -11 77.17 9.38
2 -2 11 70.62 10.79
2 -2 12 64.16 10.46
-2 2 -12 76.76 9.85
-2 2 -12 62.44 11.17
-2 2 -13 55.5 11.14
2 -2 13 49.61 9.76
-2 2 -14 -3.11 3.27
2 -2 14 4.13 3.35
-2 2 -15 156.01 20.44
-2 1 14 13.7 4.95
2 -1 -13 -5.64 3.21
2 -1 -13 1.5 2.27
-2 1 13 -1.58 2.26
2 -1 -12 211.96 17.38
2 -1 -12 188.13 17.03
2 -1 -11 36.72 7.08
-2 1 11 29.64 6.05
2 -1 -11 32.89 6.64
2 -1 -10 3.73 2.15
2 -1 -10 1.67 1.78
-2 1 10 3.86 2.48
2 -1 -10 4.99 1.73
2 -1 -9 33.54 5.94
-2 1 9 27.17 5.27
2 -1 -9 23.68 5.09
2 -1 -9 24.04 3.77
-2 1 9 30.22 4.82
2 -1 -8 82.63 7.07
-2 1 8 94.08 8.01
2 -1 -8 83.14 8.7
2 -1 -8 89.71 8.78
-2 1 8 77.37 8.39
2 -1 -7 466.6 17.97
-2 1 7 484.87 16.89
-2 1 7 472.66 19.36
2 -1 -7 472.05 19.45
-2 1 7 478.55 20.78
2 -1 -7 448.93 16.42
2 -1 -6 4.19 1.46
2 -1 -6 4.45 1.49
-2 1 6 8.2 2.34
2 -1 -6 4.28 1.59
-2 1 6 6.26 1.75
-2 1 6 6.21 2.33
2 -1 -5 134.82 8.72
2 -1 -5 131.78 6.19
2 -1 -5 142.58 7.59
-2 1 5 128.78 8.9
-2 1 5 139.92 7.82
2 -1 -5 141.64 9.14
2 -1 -4 1.55 0.95
2 -1 -4 0.3 0.17
2 -1 -4 0.56 0.35
-2 1 4 0.54 0.63
2 -1 -4 0.87 0.78
-2 1 4 0.5 0.84
-2 1 4 2.59 1.26
2 -1 -4 0.6 0.53
2 -1 -4 1.24 0.6
-2 1 4 1.28 0.76
-2 1 3 170.74 7.81
2 -1 -3 172.18 7.1
2 -1 -3 183.69 8.87
-2 1 3 159.29 8.74
2 -1 -3 179.76 8.53
-2 1 3 176.81 8.71
-2 1 3 180.51 9.62
2 -1 -3 187.3 9.69
2 -1 -2 511.46 12.62
-2 1 2 516.55 13.22
-2 1 2 529.62 15.91
2 -1 -2 542.02 14.59
2 -1 -2 529.6 15.6
2 -1 -2 542.54 12.48
-2 1 2 526.46 15.13
-2 1 2 563.63 14.16
-2 1 1 46.22 4.51
-2 1 1 50.12 4.51
-2 1 1 48.69 4.33
2 -1 -1 40.55 3.7
2 -1 -1 44.8 4.42
2 -1 -1 49.87 3.46
-2 1 1 45.78 3.43
-2 1 0 11.92 2.33
-2 1 0 8.26 1.82
2 -1 0 8.62 1.84
2 -1 0 11.1 1.53
2 -1 0 10.93 2.13
2 -1 1 1684.34 27.84
-2 1 -1 1828.77 27.06
2 -1 1 1747.44 28.24
2 -1 1 1909.64 26.5
-2 1 -1 1775.45 28.36
2 -1 2 183.31 7.8
-2 1 -2 185.9 8.41
2 -1 2 183.22 10
-2 1 -3 460.86 13.04
2 -1 3 473.82 11.71
2 -1 3 495.77 12.2
2 -1 3 453.71 17.09
2 -1 4 568.26 20.59
-2 1 -4 582.14 14.7
-2 1 -4 580.08 21.34
2 -1 4 576.39 14.85
-2 1 -5 47.65 6.58
2 -1 5 45.38 6.19
2 -1 5 51.32 5.01
-2 1 -5 58.13 4.54
2 -1 6 264.4 12.62
2 -1 6 233.53 15.06
-2 1 -6 264.65 12.31
2 -1 6 258.65 15.65
-2 1 -6 258.52 16.46
-2 1 -6 267.49 9.59
2 -1 7 527.58 23.71
-2 1 -7 538.03 19.07
2 -1 7 512.46 23.15
2 -1 7 535.48 19.71
-2 1 -7 532 25.46
-2 1 -7 505.33 12.66
2 -1 8 243.14 16.94
-2 1 -8 215.81 12.99
-2 1 -8 239.71 18.18
2 -1 8 234.17 16.42
-2 1 -8 212.15 7.33
-2 1 -9 529.71 21.89
2 -1 9 547.07 26.65
-2 1 -9 590.04 30.22
2 -1 10 130.98 13.51
-2 1 -10 138.97 15.52
2 -1 11 2.02 1.48
-2 1 -11 1.04 1.97
-2 1 -12 8.22 4.3
2 -1 12 9.81 4.35
2 -1 13 10.25 4.09
-2 1 -13 11.48 4.91
2 -1 14 204.19 19.03
-2 1 -14 231.47 24.5
-2 0 14 78.92 12.03
2 0 -13 1.14 1.47
-2 0 13 -0.38 1.63
-2 0 12 60.35 9.3
2 0 -12 70.1 9.77
2 0 -12 70.43 9.93
2 0 -11 -0.27 1.55
-2 0 11 1.16 1.71
2 0 -11 -0.46 0.82
2 0 -10 157.1 12.66
2 0 -10 162.56 13.61
-2 0 10 162.46 13.54
2 0 -10 153.77 10.52
-2 0 10 157.74 10.84
-2 0 9 152.84 12.5
2 0 -9 154.96 10.62
-2 0 9 174.15 10.58
2 0 -9 158.84 12.75
2 0 -9 161.75 11.81
-2 0 8 283.11 15.92
2 0 -8 279.07 14.16
2 0 -8 285.98 14.3
-2 0 8 299.05 10.33
-2 0 8 276.6 12.21
2 0 -8 264.16 15.57
-2 0 7 158.44 8.42
2 0 -7 149.12 9.37
2 0 -7 146.03 10.89
-2 0 7 157.74 11.92
2 0 -7 157.11 10.35
-2 0 7 155.89 6.67
-2 0 7 143.82 10.63
-2 0 6 59.67 6.4
-2 0 6 75.99 5.33
2 0 -6 79.93 5.97
2 0 -6 77.86 7.37
2 0 -6 68.44 6.63
-2 0 6 65.3 7.05
-2 0 6 74.69 3.94
2 0 -5 624.25 14.19
2 0 -5 617.08 19.36
-2 0 5 635.84 19.46
-2 0 5 650.25 13.79
2 0 -5 645.79 19.77
-2 0 4 262.68 11.62
2 0 -4 259.8 12.06
2 0 -4 245.2 11.26
2 0 -4 255.31 7.17
-2 0 4 245.61 7.65
-2 0 4 256.48 11.91
-2 0 3 1367.35 24.55
-2 0 3 1326.92 16.36
2 0 -3 1304.03 14.04
2 0 -3 1341.52 11.95
2 0 -3 1332.33 23.84
2 0 -3 1325.2 26.27
-2 0 3 1368.94 24.94
2 0 -2 1661.94 24.44
-2 0 2 1660.07 17.75
2 0 -2 1642.5 15.84
-2 0 2 1592.23 24.36
2 0 -2 1668.57 28.5
2 0 -1 5.07 0.98
-2 0 1 3.42 1.16
2 0 -1 5.73 1.11
2 0 -1 3.96 1.08
2 0 -1 3.6 1.13
2 0 -1 5.23 1.36
-2 0 1 3.83 0.86
-2 0 1 4.2 1.21
-2 0 0 607.29 14.51
2 0 0 652.31 14.14
-2 0 0 668.41 16.35
2 0 0 603.21 14.99
2 0 0 648.24 14.84
-2 0 0 642.54 15.2
2 0 0 660.54 16.34
2 0 1 47.37 4.37
2 0 1 54.8 4.73
-2 0 -1 47.49 4.57
2 0 1 49.01 4.31
-2 0 -1 55.74 4.53
2 0 2 209.58 10.32
-2 0 -2 210.6 8.4
2 0 2 204.82 8.22
2 0 2 202.4 10.22
-2 0 -3 202.56 7.84
2 0 3 203.15 8.61
2 0 3 216.08 11.6
2 0 3 218.34 11.53
2 0 3 200.16 7.46
2 0 4 193.65 11.7
2 0 4 179.28 8.95
2 0 4 174.64 6.04
-2 0 -4 197.35 7.18
2 0 4 186.28 11.58
2 0 5 504.64 20.3
2 0 5 566.92 17.75
-2 0 -5 523.82 22.3
2 0 5 538.59 21.07
2 0 6 131.09 10.89
2 0 6 129.59 9.29
2 0 6 133.6 11.09
-2 0 -6 144.11 12.65
2 0 7 110.47 10.51
2 0 7 112.88 9.46
-2 0 -7 117.41 12.23
2 0 7 119.03 11.04
2 0 8 181.51 14.29
-2 0 -8 170.28 15.78
2 0 9 2.16 2.59
-2 0 -9 2.7 2.57
-2 0 -10 26.77 6.94
2 0 10 29.86 6.37
-2 0 -11 31.1 7.96
2 0 11 39.63 7.52
-2 0 -12 134.36 17.49
2 0 12 118.44 13.43
2 0 13 29.47 6.83
-2 0 -13 19.66 7.53
2 0 14 -0.57 1.29
-2 0 -14 5.1 3.8
2 0 14 5.04 3.73
-2 -1 14 139.7 15.9
-2 -1 13 19.74 5.72
2 1 -13 23.59 5.83
2 1 -12 23.42 5.41
-2 -1 12 13.69 4.83
2 1 -12 11.52 4.37
-2 -1 11 15.14 5.17
2 1 -11 8.95 3.15
2 1 -11 19.97 5.73
-2 -1 11 4.62 2.99
2 1 -11 26.84 6.34
2 1 -10 34.46 6.93
2 1 -10 28.63 5.2
-2 -1 10 19.34 3.33
-2 -1 10 26.83 5.62
-2 -1 10 28.25 3.86
2 1 -10 22.14 4.74
-2 -1 10 28.83 4.41
-2 -1 9 196.5 14.28
2 1 -9 187.59 11.78
-2 -1 9 181.78 9.72
2 1 -9 175.47 13.54
2 1 -9 176.36 12.3
-2 -1 9 173.11 9.33
-2 -1 9 192.43 9.2
-2 -1 8 4.01 1.17
-2 -1 8 5.2 1.59
2 1 -8 8.31 2.72
2 1 -8 4.74 1.89
-2 -1 8 4.77 1.51
2 1 -8 6.95 2.61
-2 -1 8 4.66 2.1
-2 -1 7 0.87 0.59
-2 -1 7 1.11 0.95
2 1 -7 0.62 0.53
2 1 -7 0.45 0.96
-2 -1 7 0.95 0.69
-2 -1 7 2.2 2.13
-2 -1 7 -0.1 0.22
-2 -1 6 142.6 5.33
2 1 -6 143.34 6.91
-2 -1 6 138.91 9.66
2 1 -6 130.83 9.69
-2 -1 6 139.62 5.98
-2 -1 5 104.13 3.53
2 1 -5 95.43 7.78
2 1 -5 92.96 4.39
-2 -1 5 95.78 7.43
-2 -1 5 101.24 4.2
-2 -1 4 158.79 8.78
-2 -1 4 143.51 3.65
2 1 -4 142.6 8.87
2 1 -3 1.7 0.8
2 1 -3 -0.12 0.4
-2 -1 3 0.63 0.67
2 1 -2 253.43 9
2 1 -2 259.73 10.53
-2 -1 2 249.28 9.3
2 1 -1 140.93 5.12
-2 -1 1 141.08 6.64
-2 -1 1 130.15 5.54
-2 -1 1 136.27 6.24
2 1 -1 128.56 5.94
2 1 0 505.16 11.7
-2 -1 0 494.18 11.95
2 1 0 481.41 11.88
2 1 0 495.18 12.62
-2 -1 0 471.56 13.48
-2 -1 0 502.83 13.46
-2 -1 -1 1.54 1.04
2 1 1 1.13 0.71
2 1 1 1.23 0.75
2 1 1 0.32 0.23
-2 -1 -1 0.56 0.65
2 1 2 991.92 22.3
-2 -1 -2 965.23 24.06
2 1 2 1005.33 22.69
2 1 3 5.64 1.87
2 1 3 7.39 1.51
2 1 3 6.79 2.1
-2 -1 -4 205.03 13.43
2 1 4 206.66 12.02
2 1 4 205.74 7.08
2 1 4 202.33 11.93
2 1 5 358.72 16.83
-2 -1 -5 371.98 19.67
2 1 5 352.72 16.84
2 1 6 241.3 14.69
2 1 6 267.86 15.45
2 1 6 233.15 13.12
-2 -1 -6 235.53 16.85
-2 -1 -7 174.51 15.49
2 1 7 170.56 12.97
-2 -1 -8 41.64 8.2
2 1 8 45.86 6.99
2 1 9 1.78 1.92
-2 -1 -9 1.36 2.32
2 1 10 -0.23 1.71
-2 -1 -10 3.67 2.38
-2 -1 -11 5.93 3.54
2 1 11 -0.81 2.09
-2 -1 -12 156.4 19.63
2 1 12 151.13 14.9
-2 -1 -13 -1.16 1.36
2 1 13 4.21 2.77
2 1 14 16.53 5.19
-2 -2 14 17.68 5.5
2 2 -14 4.53 3.17
2 2 -13 3.04 3.01
-2 -2 13 10.19 4.94
2 2 -12 86.01 11.27
-2 -2 12 97.08 12.4
2 2 -12 93.65 9.99
-2 -2 12 75.53 8.03
2 2 -11 262.08 15.47
-2 -2 11 264.74 18.81
-2 -2 11 276.6 13.13
-2 -2 11 253.66 13.83
2 2 -11 294.31 19.45
2 2 -11 263.77 16.96
-2 -2 10 300.86 14.63
-2 -2 10 299.95 12.01
2 2 -10 288.19 18.33
2 2 -10 297.58 14.87
-2 -2 10 312.31 19.24
-2 -2 9 85.9 5.99
-2 -2 9 96.29 10.09
2 2 -9 99.65 10.27
2 2 -9 90.1 7.52
2 2 -8 0.34 0.57
-2 -2 8 0.35 0.39
2 2 -8 1.31 0.87
-2 -2 7 105.72 5.45
-2 -2 7 102.73 9.18
2 2 -7 97.94 9.05
-2 -2 7 109.89 10.11
-2 -2 6 37.61 3.43
2 2 -6 43.63 5.74
-2 -2 6 35.59 2.78
-2 -2 6 36.73 4.94
-2 -2 6 33.06 5.21
-2 -2 5 262.83 6.9
-2 -2 5 266.79 12.48
2 2 -5 268.96 13.37
-2 -2 5 258.85 13.7
-2 -2 5 242.74 6.4
2 2 -4 383.42 15.21
-2 -2 4 368.64 15.24
-2 -2 4 345.5 7.48
-2 -2 3 10.86 2.46
-2 -2 3 11.43 1.19
-2 -2 3 13.35 2.3
2 2 -3 13.89 2.8
-2 -2 2 127.96 6.53
2 2 -2 130.72 4.68
2 2 -2 133.69 8.39
-2 -2 2 133.25 5.19
-2 -2 1 -0.14 0.24
2 2 -1 0.23 0.23
-2 -2 1 -0.11 0.32
2 2 -1 0.08 0.21
-2 -2 0 474.46 14.84
2 2 0 471.19 12.25
-2 -2 0 454.89 13.6
2 2 0 454.42 9.28
2 2 0 450.6 11.68
-2 -2 0 436.7 10.07
-2 -2 -1 185.46 9.99
2 2 1 189.79 8.83
2 2 1 186.8 6.17
2 2 2 155.72 8.99
-2 -2 -2 129.09 9.2
2 2 3 1061.16 25.61
-2 -2 -4 0.91 1.47
2 2 4 -0.21 1
2 2 4 0.56 0.82
-2 -2 -5 484.96 23.3
2 2 5 497.74 20.16
2 2 5 493.36 18.5
-2 -2 -5 446.1 22.48
2 2 5 470.14 10.76
2 2 5 506.92 20.51
2 2 6 6.61 2.42
-2 -2 -6 7.45 2.87
-2 -2 -6 9.4 3.74
2 2 7 10 3.2
-2 -2 -7 7.41 3.77
-2 -2 -8 180.89 17.51
-2 -2 -9 -0.66 2.83
-2 -2 -10 334.84 26.47
2 2 11 26.67 5.37
-2 -2 -11 23.23 8.1
-2 -2 -12 -5.06 3.7
2 2 12 0.24 1.64
-2 -3 14 29.4 7.41
2 3 -14 21.19 5.92
-2 -3 13 57.32 9.81
2 3 -13 59.68 9.7
-2 -3 12 137.56 11.76
-2 -3 12 127.15 14.02
-2 -3 12 144.58 11.96
2 3 -12 132.5 13.68
-2 -3 11 144.21 13.94
2 3 -11 130.9 13.06
-2 -3 10 114.8 7.55
2 3 -10 104.13 11.14
-2 -3 10 116.62 9.42
-2 -3 10 112.1 11.61
-2 -3 9 9.69 3.13
-2 -3 9 12.18 2.3
-2 -3 9 17.17 3.32
2 3 -9 14.85 4.16
2 3 -8 3.11 1.64
-2 -3 8 3.3 1.95
-2 -3 8 1.53 0.88
-2 -3 8 3.18 0.95
-2 -3 7 93.97 6
-2 -3 7 83.23 8.36
-2 -3 7 88.58 5.82
2 3 -7 99.13 9.39
-2 -3 7 79.86 8.76
-2 -3 6 77.79 7.51
2 3 -6 69.61 7.51
-2 -3 6 86.67 5.51
-2 -3 6 74.49 8.06
-2 -3 6 88.96 4.99
-2 -3 5 23.36 2.23
-2 -3 5 26.68 3.94
2 3 -5 17.19 3.58
-2 -3 5 23.86 2.82
-2 -3 5 21.77 4.09
2 3 -4 112.34 8.79
-2 -3 4 107.37 7.31
-2 -3 4 115.41 4.63
2 3 -4 112.55 5.64
-2 -3 4 115.35 8.87
-2 -3 3 182.35 8.62
-2 -3 3 202.08 6.64
2 3 -3 182.77 10.77
2 3 -3 192.8 7.79
-2 -3 2 0.11 0.36
2 3 -2 0.13 0.9
-2 -3 2 0.95 0.52
-2 -3 2 0.54 0.72
2 3 -2 0.46 0.64
-2 -3 1 0.84 0.86
2 3 -1 1.09 0.69
-2 -3 1 0.34 0.57
-2 -3 0 36.28 4.28
2 3 0 34.18 3.82
-2 -3 0 35.24 2.52
2 3 1 483.87 15.64
2 3 1 496.84 15.83
2 3 2 73.53 6.58
2 3 2 74.19 3.01
2 3 2 69.06 6.36
-2 -3 -3 89.71 9.02
2 3 3 110.56 8.6
2 3 3 116.32 8.78
-2 -3 -3 113.29 10.36
-2 -3 -4 39.18 6.57
2 3 4 39.45 5.45
2 3 4 48.01 5.95
2 3 4 38.02 5.11
-2 -3 -4 49.74 7.17
-2 -3 -5 0.58 2.29
2 3 6 8.37 1.29
-2 -3 -6 4.73 2.86
2 3 6 5.03 1.2
2 3 7 0.27 0.86
-2 -3 -7 2.37 2.65
-2 -3 -8 -0.88 1.38
2 3 8 -1.25 0.96
-2 -3 -9 3.46 2.71
2 3 9 4.49 2.54
2 3 10 149.65 11.49
-2 -3 -10 164.41 19.54
-2 -3 -11 20.15 7.5
2 4 -14 23.37 6.46
2 4 -13 46.42 8.7
-2 -4 13 28.72 7.37
2 4 -12 185.23 16.48
-2 -4 12 201.62 17.84
2 4 -11 2.67 2.46
-2 -4 11 2.04 2.11
-2 -4 10 19.25 3.71
-2 -4 10 18.32 5.05
-2 -4 10 14.1 2.94
2 4 -10 18.08 4.79
-2 -4 9 6.62 1.99
-2 -4 9 2.76 1.18
-2 -4 9 3.21 1.97
2 4 -9 6.49 2.86
-2 -4 8 1.47 0.86
2 4 -8 2 1.46
-2 -4 8 0.39 0.37
-2 -4 8 1.89 1.26
-2 -4 7 386.95 12.38
2 4 -7 402.25 19.52
-2 -4 7 436.39 20.98
-2 -4 7 367.61 17.94
-2 -4 7 394.14 14.49
-2 -4 6 1.42 0.69
-2 -4 6 -0.33 0.72
-2 -4 6 1.89 1.26
-2 -4 6 1.14 0.6
2 4 -6 0.76 0.58
-2 -4 5 52.78 5.78
-2 -4 5 46.65 3.84
2 4 -5 51.45 4.87
2 4 -5 51.91 6.53
-2 -4 5 51.14 6.4
-2 -4 4 781.5 20.16
-2 -4 4 783.27 15.89
2 4 -4 845.48 25.39
2 4 -4 787.73 19.5
2 4 -3 594 17.28
-2 -4 3 608.79 15.94
2 4 -3 586.14 20.75
-2 -4 3 600.31 14.58
-2 -4 2 807.68 18.77
-2 -4 2 786.75 15.85
2 4 -2 817.59 20.39
2 4 -2 817.73 24.67
-2 -4 2 798.05 18.09
2 4 -1 189.05 10.09
-2 -4 1 189.72 6.63
2 4 0 57.32 5.84
-2 -4 -1 1945.03 38.07
2 4 1 1968.52 35.85
-2 -4 -2 333.99 17.08
2 4 2 385.63 16.8
-2 -4 -2 364.71 18.71
-2 -4 -3 827.94 29.04
2 4 3 908.83 27.2
-2 -4 -3 819.2 29.85
2 4 4 6.7 0.97
-2 -4 -4 3.16 1.45
2 4 5 5.91 1.26
-2 -4 -5 5.55 2.78
-2 -4 -6 299.26 21.64
2 4 6 314.53 10.61
-2 -4 -7 1.37 2.58
2 4 7 0.29 0.55
2 4 8 404.92 15.24
-2 -4 -8 405.91 28.67
-2 -4 -9 10.92 5.53
-2 -4 -10 54.4 11.66
2 5 -14 55.99 10.01
2 5 -13 4.29 2.73
-2 -5 13 16.5 5.14
-2 -5 12 -0.16 1.7
2 5 -12 7.56 3.45
-2 -5 11 1.88 1.99
2 5 -11 2.56 2.3
2 5 -10 0.36 1.48
-2 -5 10 0.82 0.94
-2 -5 9 223.61 11.14
-2 -5 9 214.7 12.44
-2 -5 9 191.52 14.95
2 5 -9 192.38 15.22
2 5 -8 1.84 0.88
-2 -5 8 2.49 1.29
-2 -5 8 3.95 1.44
-2 -5 8 4.13 1.32
-2 -5 7 49.44 6.67
-2 -5 7 47.9 4.67
2 5 -7 43.98 6.6
-2 -5 7 52.49 6.06
2 5 -6 200.81 11.37
-2 -5 6 171.19 11.54
-2 -5 6 182.33 8.85
2 5 -6 185.6 13.31
2 5 -5 19.65 4.38
2 5 -5 25.36 4.15
-2 -5 5 20.76 2.99
-2 -5 5 20.52 3.63
2 5 -4 169.29 10.75
-2 -5 4 170.64 9.59
-2 -5 4 173.65 8.99
2 5 -4 182.01 12.58
-2 -5 3 51.22 4.67
2 5 -3 51.32 6.01
2 5 -3 55.42 6.88
-2 -5 3 53.37 5.14
2 5 -2 0.52 0.95
-2 -5 2 2.11 0.84
2 5 -2 1.63 1.16
-2 -5 1 1.69 1.22
2 5 -1 2.93 2.08
-2 -5 1 1.32 0.55
2 5 0 127.99 9.98
-2 -5 0 128.15 9.95
2 5 1 160.49 11.64
-2 -5 -1 161.89 12.06
-2 -5 -2 -0.43 0.88
-2 -5 -3 16.65 4.47
-2 -5 -4 183.01 15.88
-2 -5 -5 21.87 5.93
-2 -5 -6 -1.06 1.26
-2 -5 -7 6.56 5.17
-2 -5 -8 60.07 11.5
-2 -5 -9 27.94 8.66
-2 -6 13 0.69 1.8
2 6 -13 1.93 2.44
-2 -6 12 2.06 1.43
2 6 -12 -0.2 1.93
-2 -6 11 -0.15 1.39
2 6 -11 1.62 2.37
-2 -6 10 7.14 3.31
-2 -6 10 8.28 2.29
2 6 -10 12.97 4.31
-2 -6 9 83.44 10.18
-2 -6 9 89.75 7.28
2 6 -9 92.22 10.64
-2 -6 8 4.6 2.4
-2 -6 8 5.17 2.15
-2 -6 8 5.89 2.04
2 6 -8 4.51 2.42
-2 -6 7 1.95 1.73
-2 -6 7 2.76 1.3
2 6 -7 1.4 1.06
-2 -6 7 2.08 1.28
2 6 -6 47.7 6.51
-2 -6 6 59.25 6.91
2 6 -6 54.78 7.57
-2 -6 5 33.9 4.89
2 6 -5 29.28 5.54
2 6 -5 27.98 5.15
2 6 -4 167.85 12.52
-2 -6 4 185.07 10.05
2 6 -4 172.08 12.98
-2 -6 3 18.98 3.53
2 6 -3 24.5 4.9
-2 -6 3 18.66 4.72
-2 -6 3 10.44 3.93
2 6 -3 3.82 3.23
-2 -6 2 228.45 13.13
-2 -6 2 230.53 8.25
-2 -6 2 254.78 13.39
2 6 -2 227.97 15.17
2 6 -2 231.83 14.71
2 6 -1 72.58 8.4
-2 -6 1 67.71 7.53
-2 -6 0 42.3 6.4
-2 -6 -1 737.24 28.19
-2 -6 -2 335.05 20.28
-2 -6 -3 307.03 20.54
-2 -6 -4 27.81 6.61
-2 -6 -5 15.24 5.12
-2 -6 -6 389.66 27.95
-2 -6 -7 38.01 9.01
-2 -6 -8 208.24 22.92
2 7 -13 5.62 3.34
2 7 -12 1.16 1.3
-2 -7 12 -1.16 1.3
-2 -7 11 113.72 13.48
2 7 -11 99.79 12.32
-2 -7 10 0.68 1.93
2 7 -10 0.19 1.69
-2 -7 9 -0.18 0.98
2 7 -9 2.64 1.96
-2 -7 8 80.48 9.34
2 7 -8 93.5 10.84
-2 -7 7 3.79 1.54
2 7 -7 2.05 1.73
2 7 -7 3.33 1.8
-2 -7 7 4.97 1.65
2 7 -6 39.63 6.68
-2 -7 6 41.78 5.84
-2 -7 6 49.87 5.82
2 7 -6 50.35 7.55
2 7 -5 11.53 3.73
2 7 -5 13.88 4.35
-2 -7 5 22.12 3.95
-2 -7 5 9.28 2.63
-2 -7 4 11.49 2.48
2 7 -4 12.59 3.78
-2 -7 4 13.94 3.28
2 7 -4 10.65 3.4
-2 -7 4 10.06 2.87
-2 -7 3 1.93 1.77
2 7 -3 0.61 1.17
-2 -7 3 4.15 1.54
2 7 -3 1.55 0.99
-2 -7 3 1.48 1.63
-2 -7 2 25.05 5
-2 -7 2 30.41 5.6
2 7 -2 27.18 5.85
-2 -7 2 23.45 2.44
-2 -7 1 139.85 12.06
-2 -7 0 3.6 1.67
-2 -7 -1 56.29 8.59
-2 -7 -2 0.98 1.78
-2 -7 -3 0.67 1.1
-2 -7 -4 12.52 5.16
-2 -7 -5 45.06 9.69
-2 -7 -6 20.87 7.11
2 8 -13 7.91 4.35
2 8 -12 23.3 6.65
-2 -8 12 26.96 7
-2 -8 11 4.17 2.76
2 8 -11 2.06 2.14
-2 -8 10 14.2 4.1
2 8 -10 18.31 5.18
2 8 -9 13.86 4.73
-2 -8 9 10.17 3.62
-2 -8 8 28.42 5.78
-2 -8 8 20.92 4.05
2 8 -8 17.05 4.85
-2 -8 7 8.09 2.57
-2 -8 7 8.91 2.66
2 8 -7 10.12 3.76
-2 -8 6 23.46 4.41
-2 -8 6 22.77 4.36
2 8 -6 22.27 5.2
-2 -8 5 1.02 1.62
2 8 -5 -0.58 0.77
-2 -8 4 147.35 12.01
-2 -8 4 142.32 8.69
2 8 -4 126.8 12.45
-2 -8 4 140.31 11.29
-2 -8 3 2.78 1.84
2 8 -3 -0.79 1.76
-2 -8 3 1.23 0.55
2 8 -2 1.1 1.71
-2 -8 2 7.77 3.54
-2 -8 1 85.17 10.22
-2 -8 0 10.11 3.88
-2 -8 -1 58.74 9.42
-2 -8 -2 3.37 2.43
-2 -8 -3 65.03 11.12
-2 -8 -4 84.71 13.53
-2 -9 11 5.67 4.16
-2 -9 10 5.49 3.14
2 9 -10 7.22 4.54
-2 -9 9 0.47 1.37
2 9 -9 -0.23 2.02
2 9 -8 10.02 3.87
2 9 -7 0.1 1.81
-2 -9 6 1.08 1.07
-2 -9 6 0.45 0.86
2 9 -6 0.5 1.4
2 9 -5 11.28 3.79
-2 -9 5 16.33 4.3
-2 -9 5 16.24 4.12
2 9 -4 19.61 5.25
-2 -9 4 15.82 4.47
-2 -9 4 21.19 4.65
-2 -9 3 85.46 10.47
-2 -9 3 120.29 11.83
2 9 -3 111.64 12.3
-2 -9 2 2 1.69
2 9 -2 -1.82 2.52
-2 -9 1 29.39 6.84
2 9 -1 12.88 4.14
-2 -9 0 2.17 2.49
-2 -9 -1 -0.02 2.01
-2 -9 -2 45.74 9.44
-2 -10 6 21.55 5.28
-2 -10 5 7.42 3.59
-2 -10 5 6.79 3.21
-2 -10 4 3.25 2.34
-2 -10 3 1.28 0.94
-2 -10 2 0.41 0.92
-2 -10 1 18.15 5.93
-3 10 3 124.49 16.63
-3 10 2 21.14 6.52
-3 10 1 11.62 4.65
-3 10 0 8.45 4.59
3 -10 0 13.58 5.39
3 -10 1 11 4.35
-3 10 -1 9.79 4.27
3 -10 2 87.64 12.36
-3 10 -2 80.34 13.01
-3 10 -3 42.86 9.59
3 -10 3 30.18 7.3
-3 10 -4 0.17 1.05
3 -10 4 6.13 3.42
-3 10 -5 -0.62 1.27
3 -10 5 1.28 1.92
-3 10 -6 7.36 3.45
3 -10 6 0.65 1.4
3 -10 7 22.82 6.75
3 -10 8 39.22 9.13
3 -10 9 1.88 1.99
-3 9 4 21.18 6.63
3 -9 -3 51.12 9.04
-3 9 3 43.95 9.01
3 -9 -3 46.17 8.84
-3 9 2 7.08 3.26
3 -9 -2 12.06 4.16
3 -9 -1 57.35 9.51
-3 9 1 43.76 9.37
3 -9 0 131.73 14.31
-3 9 0 125.16 15.55
-3 9 -1 339.74 25.25
3 -9 1 362.56 23.72
-3 9 -2 20.57 6.37
3 -9 2 27.57 6.99
3 -9 3 30.83 7.1
-3 9 -3 26.13 7.35
-3 9 -4 51.93 9.85
3 -9 4 75.72 11.19
3 -9 5 103.13 13.18
-3 9 -5 80.64 12.33
3 -9 6 113.37 14.21
-3 9 -6 120.09 14.92
3 -9 7 3.44 2.74
-3 9 -7 1.46 2.17
-3 9 -8 -2.28 2.35
3 -9 8 -0.14 2.6
3 -9 9 38.23 8.59
-3 9 -9 30.65 7.77
3 -9 10 5.16 3.57
-3 9 -10 6.82 3.95
3 -9 11 10.42 5.2
-3 9 -11 1.82 1.89
3 -8 -6 35.46 7.71
3 -8 -5 85.93 11.39
3 -8 -5 87.61 11.71
-3 8 5 80.43 11.82
-3 8 4 5.51 2.88
3 -8 -4 5.93 3.56
3 -8 -4 2.88 2.23
-3 8 3 8.56 3.85
3 -8 -3 10.79 4.06
3 -8 -2 41.43 7.59
-3 8 2 34.6 7.58
3 -8 -1 239.37 18.28
-3 8 1 235.35 19.76
3 -8 0 32.52 5.72
3 -8 0 24.13 5.88
-3 8 0 29.3 6.95
3 -8 1 10.28 3.81
3 -8 1 16.31 4.19
-3 8 -1 16.97 5.46
3 -8 2 29.23 6.03
-3 8 -2 16.81 5.28
3 -8 2 24.32 5.85
3 -8 3 4.48 3.11
-3 8 -3 0.7 1.29
3 -8 4 104.89 12.56
-3 8 -4 86.03 11.71
3 -8 5 13.95 5.24
-3 8 -5 8.73 3.87
3 -8 6 27.44 6.84
-3 8 -6 31.86 7.34
3 -8 7 10.37 4.41
-3 8 -7 19.3 5.54
3 -8 8 37.47 8.19
-3 8 -8 26.48 6.79
3 -8 9 8.21 4.34
-3 8 -9 12.73 4.75
3 -8 10 10.69 4.59
-3 8 -10 9.03 4.09
3 -8 11 63.11 11.98
-3 8 -11 29.91 7.79
-3 8 -12 10.71 4.63
3 -8 12 17.82 6.58
3 -8 13 10.05 4.59
3 -7 -8 4.88 3.17
3 -7 -7 14.78 4.97
-3 7 6 79.9 10.99
3 -7 -6 94.84 11.74
-3 7 5 5.66 2.95
3 -7 -5 -0.38 1.34
3 -7 -5 2.81 1.84
-3 7 4 3.1 2.38
3 -7 -4 3.56 2.35
3 -7 -4 1.7 0.77
-3 7 3 3.51 2.46
3 -7 -3 3.87 2.58
3 -7 -3 1.23 0.96
3 -7 -2 3.87 1.95
3 -7 -2 10.63 3.81
-3 7 2 9.51 3.97
-3 7 2 6.38 1.77
3 -7 -1 327.13 19.96
-3 7 1 339.44 11.04
-3 7 1 334.13 21.75
3 -7 -1 328.46 17.06
3 -7 0 24.63 4.98
-3 7 0 21.24 1.95
-3 7 0 20.41 2.06
-3 7 0 12.53 4.2
3 -7 0 17.58 4.85
3 -7 1 42.45 7.22
-3 7 -1 40.11 7.49
3 -7 1 25.74 5.17
3 -7 2 3.49 3.31
3 -7 2 2.71 2.41
-3 7 -2 0.53 1.69
3 -7 3 5.08 2.92
-3 7 -3 2.61 1.14
3 -7 4 92.01 11.29
-3 7 -4 100.97 11.83
-3 7 -5 0.62 1.82
3 -7 5 -0.22 1.13
3 -7 6 27.93 6.93
-3 7 -6 24 5.89
3 -7 7 34.34 7.62
-3 7 -7 32.89 6.93
3 -7 8 1.2 1.3
-3 7 -8 2.15 1.09
-3 7 -8 2.86 2.54
-3 7 -9 39.47 4.77
3 -7 9 35.32 8.22
3 -7 10 6.68 3.16
-3 7 -10 2.21 2.65
3 -7 11 18.32 6.27
-3 7 -11 16.98 5.87
-3 7 -12 9.03 3.72
3 -7 12 13.97 5.57
3 -7 13 15.93 6.43
3 -6 -10 3.89 3.29
3 -6 -9 32.4 7.63
-3 6 8 66.37 9.16
3 -6 -8 54.14 9.26
-3 6 7 90.8 10.35
-3 6 7 109.95 12.29
3 -6 -7 95.11 11.5
3 -6 -6 52.67 7.99
-3 6 6 44.83 7.8
-3 6 6 46.99 7.19
3 -6 -6 48.74 7.87
3 -6 -5 114.65 11.27
-3 6 5 93.69 11.25
-3 6 5 96.72 10.03
-3 6 5 97.49 9.45
3 -6 -5 95.92 8.9
3 -6 -5 110.55 11.43
-3 6 4 2.05 1.39
3 -6 -4 0.46 0.69
-3 6 4 3.61 1.8
3 -6 -3 295.69 15.03
3 -6 -3 316.84 18.52
-3 6 3 309.01 20.22
-3 6 2 144.88 13.63
3 -6 -2 177.69 13.83
3 -6 -2 153.01 10.98
-3 6 2 137.93 8.08
3 -6 -1 93.46 8.93
3 -6 -1 92.25 10
-3 6 1 84.94 5.19
-3 6 1 85.5 10.33
3 -6 0 220.59 15.43
3 -6 0 213.31 14.02
-3 6 0 220.67 16.37
3 -6 1 1.6 1.19
3 -6 1 1.79 1.85
-3 6 -1 1.97 1.73
3 -6 2 162.15 13.74
-3 6 -2 167.2 14.03
3 -6 2 150.25 12.06
3 -6 3 20.37 5.46
-3 6 -3 16.25 4.52
3 -6 4 103.98 11.55
-3 6 -4 103.77 10.98
3 -6 5 176.68 15.73
-3 6 -5 147.8 13.35
-3 6 -6 16.71 4.34
3 -6 6 21.28 5.7
3 -6 6 18.58 2.64
3 -6 7 29.46 6.94
3 -6 7 32.68 4.2
-3 6 -7 34.04 3.71
-3 6 -7 28.75 5.88
-3 6 -8 13.56 2.67
3 -6 8 12.97 3.1
3 -6 8 7.84 3.54
-3 6 -8 6.94 2.87
3 -6 9 21.7 6.55
-3 6 -9 23.22 3.94
-3 6 -9 19.35 5.01
3 -6 9 28.45 5.14
3 -6 10 9.8 4.52
-3 6 -10 8.64 2.68
-3 6 -10 7.39 2.73
-3 6 -11 47.9 6.59
3 -6 11 49 10.09
-3 6 -11 27.53 6.06
3 -6 12 37.9 9.56
-3 6 -12 24.27 5.98
3 -6 13 20.46 7.16
3 -6 14 6.39 4.47
3 -5 -11 14.29 5.81
-3 5 10 25.33 6.21
3 -5 -10 31.34 7.55
-3 5 9 6.88 3.8
3 -5 -9 14.48 5.76
-3 5 8 94.88 11.11
3 -5 -8 104.34 12.03
-3 5 8 86.36 10.29
3 -5 -7 33.86 6.43
-3 5 7 24.42 5.64
-3 5 7 22.44 5.24
3 -5 -6 12.62 3.79
3 -5 -6 9.43 2.99
-3 5 6 10.46 3.5
3 -5 -6 8.38 3.13
3 -5 -6 12.02 3.45
-3 5 6 11.55 3.88
3 -5 -5 54.05 7.07
3 -5 -5 52.21 6.42
3 -5 -5 53.28 7.38
-3 5 5 45.04 7.23
-3 5 5 51.6 6.6
-3 5 5 44.86 6.72
3 -5 -4 82.4 7.88
-3 5 4 78.3 8.55
3 -5 -4 89.2 9.29
-3 5 4 69.79 9.02
3 -5 -3 195.58 13.44
-3 5 3 174.74 12.31
3 -5 -3 191.12 11.96
-3 5 3 202.68 10.66
-3 5 3 184.64 14.44
-3 5 2 30.19 3.61
3 -5 -2 39.24 6.03
-3 5 2 45.26 6.97
3 -5 -1 11.21 3.21
-3 5 1 19.97 5.11
-3 5 1 13.56 1.93
-3 5 1 13.67 3.9
-3 5 0 164.37 14.3
3 -5 0 181.56 13.14
-3 5 0 178.55 13.6
3 -5 1 88.88 9.38
-3 5 -1 92.84 10.77
-3 5 -1 89.61 9.58
-3 5 -2 421.22 22.82
3 -5 2 407.2 20.75
-3 5 -2 405.07 20.09
3 -5 3 114.36 11.44
-3 5 -3 111.6 11.82
-3 5 -3 110.58 10.44
-3 5 -4 167.95 14.94
3 -5 4 150.87 13.67
3 -5 4 138.37 13.54
3 -5 4 128.58 4.07
-3 5 -4 143.98 11.93
3 -5 5 62.69 8.93
3 -5 5 58.95 4.23
-3 5 -5 62.4 7.83
-3 5 -6 3.14 1.53
3 -5 6 2.43 1.1
3 -5 7 109.24 12.83
-3 5 -7 132.41 7.9
3 -5 7 120.37 8.36
-3 5 -7 101.38 10.35
3 -5 8 10.6 4.21
-3 5 -8 8.66 2.25
3 -5 8 5.73 1.98
-3 5 -8 7.74 2.65
3 -5 9 4.88 2.64
-3 5 -9 4.6 1.79
3 -5 9 4.81 2.29
-3 5 -9 2.04 1.36
-3 5 -10 1.88 1.19
-3 5 -10 4.23 2.27
3 -5 11 9.43 4.88
-3 5 -11 8.4 3
-3 5 -11 7.22 2.89
3 -5 12 121 16.3
3 -5 13 0.83 2.68
3 -5 14 4.79 4.03
3 -5 14 0.46 1.59
3 -4 -12 79.9 12.81
-3 4 12 56.79 10.02
-3 4 11 7.4 4.56
3 -4 -11 6.15 3.29
3 -4 -11 7.92 3.42
-3 4 10 77.16 10.9
3 -4 -10 73.41 9.69
3 -4 -10 77.87 11.03
-3 4 9 189.15 16.03
3 -4 -9 204.15 16.74
3 -4 -9 226.15 16.02
3 -4 -8 247.38 15.48
-3 4 8 261.25 18.21
3 -4 -8 262.18 17.39
3 -4 -8 273.18 16.47
-3 4 8 264.2 16.86
3 -4 -7 382.01 18.22
-3 4 7 377.8 20.79
-3 4 7 362.97 19.85
3 -4 -7 392.58 19.82
3 -4 -7 394.41 17.98
3 -4 -6 23.73 4.11
3 -4 -6 18.41 3.99
-3 4 6 16.79 3.98
3 -4 -6 15.64 3.73
3 -4 -6 22.04 4.04
-3 4 6 22.27 5.03
-3 4 6 27.58 5.18
3 -4 -6 30.02 5.32
3 -4 -5 347.57 16.3
3 -4 -5 334.93 14.47
3 -4 -5 360.05 16.7
-3 4 5 317.19 15.81
3 -4 -5 340.81 16.94
-3 4 5 334.24 17.87
-3 4 5 344.43 19.03
-3 4 4 247.04 14.83
3 -4 -4 213.21 12.48
3 -4 -4 229.49 10.86
3 -4 -4 221.32 13.33
-3 4 4 224.87 15.12
-3 4 4 251.87 16.34
3 -4 -3 96.89 8.66
3 -4 -3 100.25 6.35
-3 4 3 91.06 6.93
-3 4 3 99.06 9
-3 4 3 82.1 8.95
-3 4 3 77.37 9.01
-3 4 2 524.66 23.18
-3 4 2 473.64 21.31
3 -4 -2 539.12 20.39
3 -4 -2 493.64 12.25
-3 4 2 525.54 14.37
-3 4 2 516.02 20.02
-3 4 1 0.49 0.53
-3 4 1 1.46 1.56
3 -4 -1 0.01 0.16
3 -4 -1 0.49 1.06
-3 4 1 0.1 0.71
3 -4 0 327.52 16.6
-3 4 0 327.98 17.25
-3 4 0 344.87 18.9
-3 4 -1 91.19 9.73
-3 4 -1 94.2 9.07
-3 4 -2 10.3 3.15
-3 4 -2 10.75 2.99
-3 4 -3 146.34 12.65
-3 4 -3 138.93 10.82
3 -4 3 132.17 3.64
3 -4 3 158.76 13.21
3 -4 4 36.77 6.54
-3 4 -4 34.83 5.45
3 -4 4 35.9 6.46
3 -4 4 39.32 3.14
3 -4 5 156.85 13.71
3 -4 5 154.25 7.67
3 -4 5 162.62 14.39
-3 4 -5 145.55 11.16
3 -4 6 25.61 5.87
3 -4 6 15.42 4.42
3 -4 6 22.83 3.33
-3 4 -6 24.03 4.59
3 -4 7 25.15 5.85
3 -4 7 31.11 4.42
-3 4 -7 29.84 5.13
3 -4 8 -0.41 0.88
3 -4 8 -0.37 1.28
-3 4 -8 0.15 1.15
3 -4 9 57.41 9.72
3 -4 9 53.1 6.85
-3 4 -9 46.47 6.57
3 -4 10 116.75 14.64
-3 4 -10 100.27 9.75
-3 4 -10 136.22 15.6
-3 4 -11 6.83 4.28
3 -4 11 12.43 4.73
-3 4 -11 3.98 1.63
3 -4 12 0.64 1.74
-3 4 -12 -1.11 1.39
3 -4 13 16.69 6.43
3 -4 13 18.64 6.6
-3 4 -13 17.12 6.82
3 -4 14 16.2 6.39
3 -4 14 16.21 6.78
-3 4 -14 7.16 4.97
-3 3 13 40.09 8.85
-3 3 12 101.37 13.23
3 -3 -12 112.33 14.22
3 -3 -12 111.43 13.05
-3 3 11 15.78 5.06
3 -3 -11 6.37 3.42
3 -3 -11 5.01 3
3 -3 -10 182.97 15.03
-3 3 10 147.83 14.47
3 -3 -10 152.8 14.5
3 -3 -9 309.08 18.96
3 -3 -9 340.22 19.38
-3 3 9 320.99 20.49
3 -3 -8 124.78 9.58
3 -3 -8 119.99 9.43
-3 3 8 105.53 11.27
3 -3 -8 126.33 11.11
3 -3 -8 114.51 10.56
3 -3 -7 214.17 12.65
-3 3 7 238.04 16.02
3 -3 -7 219.95 13.45
3 -3 -7 217.69 13.61
-3 3 7 237.47 15.23
3 -3 -7 230.88 12.19
3 -3 -6 144.75 10.06
-3 3 6 125.53 10.79
3 -3 -6 147.86 11.1
3 -3 -6 141.93 10.23
3 -3 -6 142.23 10.29
-3 3 6 136.4 11
-3 3 6 123.54 11.03
-3 3 6 152.18 12.03
3 -3 -6 119.97 8.05
3 -3 -6 155.34 10.71
-3 3 5 278.99 16.08
-3 3 5 281.36 16.01
-3 3 5 298.89 16.27
3 -3 -5 286.63 14.55
3 -3 -5 276.34 13.78
3 -3 -5 280.28 14.29
3 -3 -5 261.75 12.88
-3 3 5 267.92 14.16
3 -3 -5 286.03 13.18
-3 3 4 502.05 21.3
-3 3 4 499.96 20.6
3 -3 -4 487.99 17.76
3 -3 -4 500 16.19
-3 3 4 497.52 17.48
3 -3 -4 500.17 18.83
-3 3 4 461.73 19.74
-3 3 3 74.94 7.59
3 -3 -3 71.22 6.68
3 -3 -3 68.44 5.39
-3 3 3 71.05 5.97
-3 3 3 62.68 7.33
3 -3 -3 79.21 7.39
-3 3 3 64.33 7.34
-3 3 2 201.03 12.86
3 -3 -2 188.78 11.29
3 -3 -2 182.97 10.8
3 -3 -2 186.6 7.83
-3 3 2 185.15 8.46
-3 3 2 195.13 12.75
-3 3 2 180.49 11.49
3 -3 -2 180.06 11.04
3 -3 -1 189.22 11.29
-3 3 1 205.1 13.1
3 -3 -1 204.99 6.82
-3 3 1 192.01 7.36
-3 3 1 184.71 12.15
3 -3 -1 190.66 11.12
3 -3 -1 182.15 11.41
-3 3 0 215.44 13.48
3 -3 0 201.1 5.41
3 -3 0 215.44 12.54
-3 3 0 208 12.66
3 -3 0 200.74 11.9
3 -3 1 0.83 1.04
-3 3 -1 -0.69 0.55
3 -3 1 0.41 0.89
3 -3 1 1.03 0.34
-3 3 -1 1.65 0.66
-3 3 -2 17.2 3.54
3 -3 2 16.97 3.88
-3 3 -2 16.3 3.82
3 -3 2 17.34 1.4
3 -3 3 18.03 1.88
3 -3 3 18.02 4.16
-3 3 -3 19.86 3.89
3 -3 4 105.59 5.68
3 -3 4 103.02 10.46
-3 3 -4 113.05 9.03
-3 3 -5 2.97 2.27
3 -3 5 5.7 2.62
3 -3 5 4.72 2.32
-3 3 -5 0.22 1.05
3 -3 5 3 1.07
-3 3 -6 -0.35 0.73
3 -3 6 -0.01 1.52
3 -3 6 3.14 2.09
-3 3 -6 -0.63 1.13
3 -3 6 1.51 0.75
3 -3 7 68.93 9.9
-3 3 -7 61 9.19
-3 3 -7 64.8 7.05
3 -3 7 67.94 6.61
3 -3 8 21.18 5.6
-3 3 -8 14.87 4.83
-3 3 -8 14.26 3.28
3 -3 8 16.66 3.64
-3 3 -9 40.2 5.64
-3 3 -9 31.6 7.07
3 -3 9 36.91 7.83
-3 3 -10 76.15 11.74
-3 3 -10 81.5 7.94
3 -3 11 0.02 2.16
-3 3 -11 1.53 1.11
-3 3 -11 1.55 0.87
-3 3 -12 36.61 9.21
3 -3 12 30.73 7.92
3 -3 13 1.03 1.6
-3 3 -13 0.62 2.23
3 -3 14 17.07 5.95
3 -3 14 16.21 7.12
-3 3 -14 15.51 5.92
-3 2 13 17.6 5.69
3 -2 -12 142.64 14.74
3 -2 -12 135.48 14.6
-3 2 12 130.6 14.91
3 -2 -11 -0.8 1.74
-3 2 11 -1.73 2.61
3 -2 -11 1.97 1.46
3 -2 -10 14.43 4.15
3 -2 -10 12.24 3.99
-3 2 10 14.11 4.35
-3 2 9 81.09 10.02
3 -2 -9 73.05 8.54
3 -2 -9 77.71 9.39
3 -2 -9 66.81 7.17
-3 2 8 118.38 11.46
3 -2 -8 108.8 9.64
-3 2 8 104.2 9.53
3 -2 -8 114.11 10.59
3 -2 -8 108.2 9.17
3 -2 -7 948.29 25.62
-3 2 7 973.64 27.77
-3 2 7 976.93 31.43
3 -2 -7 1025.75 29.65
3 -2 -7 925.39 26.87
3 -2 -6 79.82 5.41
3 -2 -6 81.26 6.67
-3 2 6 71.68 8.07
3 -2 -6 75.71 7.93
-3 2 6 82.88 7.82
-3 2 6 72.96 8.03
3 -2 -6 77.06 7.56
-3 2 6 80.52 8.29
3 -2 -6 82.2 7.96
3 -2 -5 157.86 10.57
3 -2 -5 148.73 8.28
-3 2 5 153.64 10.32
3 -2 -5 146.96 8.81
3 -2 -5 144.6 6.44
3 -2 -5 157.84 10.06
-3 2 5 141.82 10.95
3 -2 -5 136.4 10.06
-3 2 5 148.01 11.14
-3 2 4 498.43 19.6
3 -2 -4 530.85 19.65
3 -2 -4 507.61 15.82
-3 2 4 504.23 18.27
3 -2 -4 504.77 16.66
-3 2 4 508.59 17.57
-3 2 4 505.25 20.17
3 -2 -3 31.09 3.9
-3 2 3 30.21 4.64
-3 2 3 32.8 5.14
3 -2 -3 28.91 4.16
3 -2 -3 29.6 3.78
-3 2 3 27.52 3.7
-3 2 3 28.66 4.35
3 -2 -3 22.68 3.97
-3 2 2 1022.65 25.72
-3 2 2 1008.74 26.26
3 -2 -2 981.96 24.4
3 -2 -2 1003.92 22.74
-3 2 2 1021.23 27.52
3 -2 -2 1024.79 19.5
-3 2 2 1034.97 20.43
3 -2 -2 980.48 25.48
3 -2 -1 199.15 10.56
-3 2 1 205.01 11.54
3 -2 -1 197.3 11.2
-3 2 1 217.34 11.91
3 -2 -1 212.72 7.82
-3 2 1 193.61 11.72
-3 2 1 197.48 8.11
3 -2 -1 197.03 11.32
-3 2 0 105.49 8.36
3 -2 0 117.23 8.64
-3 2 0 116.68 8.91
3 -2 0 108.45 5.16
3 -2 0 113.49 8.44
-3 2 -1 766.28 23.32
3 -2 1 766.42 23.1
-3 2 -1 761.05 22.36
3 -2 1 734.56 20.43
3 -2 1 753.67 22.92
3 -2 2 126.74 8.23
3 -2 2 114.98 9.48
3 -2 2 121.59 9.69
-3 2 -2 115.37 8.64
3 -2 3 188.58 7.28
3 -2 3 195.87 13.14
3 -2 3 195.24 10.03
-3 2 -3 202.07 11.34
3 -2 4 115.61 6.52
-3 2 -4 119.5 8.71
3 -2 4 127.37 11.1
-3 2 -5 87.38 9.75
3 -2 5 89.46 6.41
3 -2 5 79.18 9.21
-3 2 -5 89.78 7.6
3 -2 6 176.82 10.06
3 -2 6 160.92 13.72
-3 2 -6 184.2 15.01
-3 2 -6 171.7 10.43
-3 2 -7 18.63 5.03
-3 2 -7 16.75 3.32
3 -2 7 16.15 3.37
3 -2 8 25.69 5.8
-3 2 -8 24.49 6.14
3 -2 8 29.83 4.97
-3 2 -8 26.42 4.09
3 -2 9 113.32 13.13
-3 2 -9 111.23 13.81
-3 2 -9 128.67 8.55
3 -2 10 54.14 9.71
-3 2 -10 54.17 10.1
-3 2 -10 61.99 5.42
3 -2 11 54.7 10.08
-3 2 -11 54.56 10.9
3 -2 12 16.7 6.24
-3 2 -12 12.53 6.35
-3 2 -13 1.39 2.16
3 -2 13 3.66 3.06
3 -2 14 46.16 10.18
-3 2 -14 28.96 9.61
-3 1 13 3.28 3.59
3 -1 -13 0.55 1.88
-3 1 12 -0.76 1.5
3 -1 -12 -0.34 1.5
3 -1 -12 0.85 1.67
-3 1 11 50.17 8.49
3 -1 -11 53.43 8
3 -1 -11 43.96 7.65
-3 1 10 4.73 2.58
3 -1 -10 2.39 2.54
-3 1 10 2.09 0.76
3 -1 -10 2.99 0.97
3 -1 -10 3.73 2.44
3 -1 -9 229.62 14.19
-3 1 9 250.09 17.06
-3 1 9 225.84 13.25
3 -1 -9 228.05 14.11
3 -1 -9 215.72 15.4
-3 1 8 419.6 20.92
-3 1 8 426.05 17.07
3 -1 -8 449.82 17.85
3 -1 -8 412.06 20
3 -1 -8 426.2 19.21
-3 1 7 24.23 3.77
3 -1 -7 21.05 4.26
-3 1 7 29.89 5.35
3 -1 -7 22.2 3.59
-3 1 7 18.53 4.31
3 -1 -7 18.11 3.91
-3 1 6 183.54 12.54
3 -1 -6 159.79 11.36
-3 1 6 184.91 10.03
3 -1 -6 181.42 11.7
-3 1 6 171.69 12.04
3 -1 -6 192.17 12.57
3 -1 -6 182.23 8.95
3 -1 -5 10.91 2.76
-3 1 5 7.26 2.61
3 -1 -5 11.34 2.82
3 -1 -5 12.56 2.2
-3 1 5 10.43 2.3
3 -1 -5 13.22 2.05
3 -1 -5 14.26 3.45
-3 1 4 264.35 13.7
-3 1 4 280.69 11.74
3 -1 -4 288.52 10.08
3 -1 -4 287.11 12.91
-3 1 4 278.62 13.22
3 -1 -4 281.14 14.51
-3 1 3 1251.45 29.96
-3 1 3 1321.66 24.96
-3 1 3 1276.27 29.04
3 -1 -3 1277.23 20.97
3 -1 -3 1237.2 24.41
-3 1 3 1263.4 26.01
3 -1 -3 1291.93 30.49
-3 1 2 146.15 8.33
-3 1 2 166.19 10.21
3 -1 -2 176.13 8.34
3 -1 -2 164.41 8.26
-3 1 2 156.61 8.36
-3 1 2 171.11 10.78
3 -1 -2 162.87 10.5
-3 1 1 9.43 2.37
-3 1 1 11.78 2.48
3 -1 -1 7.16 1.88
-3 1 1 8.77 2.46
3 -1 -1 9.51 1.86
3 -1 -1 9.23 2.09
3 -1 0 796.35 21.33
3 -1 0 734.82 16.28
-3 1 0 786.04 22.08
3 -1 0 816.81 21.16
3 -1 1 882.08 23.39
3 -1 1 928.99 22.9
-3 1 -1 798.08 22.2
3 -1 1 915.68 24.22
3 -1 1 884.18 22.37
-3 1 -1 830.81 23.77
-3 1 -2 178.82 10.17
3 -1 2 178.35 9.78
-3 1 -2 171.01 11.14
3 -1 3 204 12.81
-3 1 -3 203.99 10.71
3 -1 3 214.76 10.14
3 -1 4 510.7 15.03
3 -1 4 513.07 21.6
-3 1 -4 498.49 16.61
3 -1 4 530.24 15.15
3 -1 5 707.5 26.81
3 -1 5 733.42 19.71
3 -1 5 726.61 26.96
-3 1 -5 754.89 19.89
3 -1 6 105.86 10.92
-3 1 -6 107.95 7.28
3 -1 6 119.34 11.64
3 -1 6 124.64 8.96
-3 1 -6 110.66 11.78
3 -1 7 101.11 11.47
3 -1 7 91.35 8.32
-3 1 -7 88.25 11.25
-3 1 -7 86.64 6.22
-3 1 -8 280.42 21.16
-3 1 -8 286.27 10.19
3 -1 8 298.46 20.1
3 -1 9 54.95 9.04
-3 1 -9 50.39 9.64
-3 1 -10 234.91 21.69
3 -1 10 195.14 17.63
3 -1 11 31.13 7.13
-3 1 -11 42.49 9.75
3 -1 12 48.55 9.26
-3 1 -12 40.58 10.56
3 -1 13 21.78 6.72
-3 1 -13 41.13 10.34
3 -1 14 3.36 1.92
-3 0 13 13.72 4.48
3 0 -13 17.92 5.62
-3 0 12 79.24 11.17
3 0 -12 67.78 9.86
-3 0 11 37.48 7.36
3 0 -11 28.88 5.35
3 0 -11 29.03 6.2
3 0 -10 253.75 15.92
-3 0 10 260.16 18.17
-3 0 10 258.76 13.47
3 0 -10 252.09 17.44
3 0 -10 257.31 14.67
-3 0 9 361.18 20.32
-3 0 9 352.58 14.61
3 0 -9 356.68 19.82
3 0 -9 368.54 15.84
3 0 -9 353.93 18.72
-3 0 8 0.61 0.71
-3 0 8 -0.41 0.95
3 0 -8 0.67 0.97
3 0 -8 0.02 1.1
3 0 -8 1.33 1.1
-3 0 7 89.52 9.06
-3 0 7 96.8 6.55
3 0 -7 102.52 6.65
3 0 -7 97.96 9.3
-3 0 7 102.8 10.1
3 0 -7 109.24 10.03
-3 0 6 172.84 8.08
-3 0 6 158.98 11.41
3 0 -6 167.27 7.33
3 0 -6 185.73 12.14
-3 0 6 178.15 12.48
3 0 -6 170.53 12.17
-3 0 5 380.01 16.6
3 0 -5 375.91 8.91
3 0 -5 411.49 18.39
-3 0 5 361.39 10.86
3 0 -5 380.15 16.21
3 0 -4 0.4 0.59
3 0 -4 0.58 0.32
-3 0 4 1.62 0.69
3 0 -4 2.63 1.75
-3 0 4 0.26 0.45
3 0 -4 1.81 0.63
-3 0 3 49.4 5.45
3 0 -3 49.75 3.15
3 0 -3 50.28 5.2
-3 0 3 47.16 5.2
3 0 -3 57.83 6.59
3 0 -3 49.43 3.34
-3 0 3 49.62 3.72
3 0 -2 957.56 16.58
-3 0 2 1094.33 25.16
3 0 -2 1058 22.91
3 0 -2 1032.71 22.51
-3 0 2 1051.74 23.16
3 0 -2 999.49 17.08
3 0 -2 1083.33 27.3
3 0 -2 1056.2 14.83
3 0 -1 52.09 4.46
-3 0 1 58.29 5.85
3 0 -1 52.75 5.17
3 0 -1 48.82 4.25
-3 0 1 52.11 4.44
3 0 -1 51.74 4.93
3 0 -1 53.67 4.25
3 0 0 1028.38 21.39
-3 0 0 996.09 22.51
3 0 0 980.76 22.61
-3 0 0 1020.15 22.62
3 0 1 403.17 15.11
3 0 1 389.93 14.17
3 0 1 401.13 14.95
3 0 1 381.82 14.95
-3 0 -1 397.08 15.65
3 0 2 48.78 5.65
3 0 2 50.99 5.89
-3 0 -2 53.29 6.26
3 0 2 54.52 5.42
3 0 3 8.97 2.76
3 0 3 4.01 1.9
3 0 3 6.15 1.75
3 0 4 4.63 1.57
3 0 4 1.59 0.87
3 0 4 3.4 1.84
3 0 4 2.52 1.18
3 0 5 67.24 8.13
3 0 5 63.04 7.79
3 0 5 75.42 6.76
-3 0 -5 66.55 8.74
3 0 5 62.3 4.57
3 0 6 334.94 19
3 0 6 343.09 15.64
-3 0 -6 345.92 21.36
3 0 6 338.64 19.09
3 0 7 10.91 3.45
-3 0 -7 12.38 4.31
3 0 8 40.18 7.25
-3 0 -8 41.36 8.32
3 0 9 27.81 6.25
-3 0 -9 25.51 6.88
-3 0 -10 68.76 12.18
3 0 10 82.13 11.1
-3 0 -11 198.09 21.38
3 0 11 158.4 16.03
-3 0 -12 149.28 19.4
3 0 12 157.63 16.57
3 0 13 8.44 4.22
-3 0 -13 4.55 2.74
-3 -1 13 54.64 9.92
3 1 -13 53.76 9.13
-3 -1 12 41.95 9.09
3 1 -12 34.7 7.58
-3 -1 11 44.82 8.1
3 1 -11 60.72 9.31
3 1 -11 59.21 6.88
3 1 -11 50.14 7.76
3 1 -10 34.54 6.62
-3 -1 10 35.48 4.26
-3 -1 10 31.18 6.18
3 1 -10 36.66 4.8
3 1 -10 30.05 5.88
3 1 -9 0.97 1.53
3 1 -9 2.65 1.21
-3 -1 9 2.41 2.21
-3 -1 9 1.61 0.63
-3 -1 9 1.88 1.11
-3 -1 8 242.35 15.52
-3 -1 8 249.95 9.43
3 1 -8 257.9 16.35
3 1 -8 219.14 14.98
-3 -1 8 247.19 6.45
3 1 -8 247.97 9.61
-3 -1 7 17.6 2.21
-3 -1 7 9.13 2.94
3 1 -7 15.7 1.93
-3 -1 7 14.3 3.76
3 1 -7 12.83 3.49
3 1 -7 16.14 4.22
-3 -1 7 14.03 1.32
-3 -1 6 17.02 1.87
-3 -1 6 12.22 3.36
-3 -1 6 19.7 4
3 1 -6 18.01 3.9
-3 -1 5 239.58 12.93
-3 -1 5 228.12 5.05
-3 -1 4 0.96 0.46
3 1 -4 -0.24 0.49
-3 -1 4 1.01 1.47
3 1 -4 0.55 0.41
3 1 -3 129.92 8.02
3 1 -3 118.48 8.48
-3 -1 3 128.12 8.52
-3 -1 3 119.61 5.54
-3 -1 2 120.88 7.97
3 1 -2 131.08 5.51
3 1 -2 134.68 8.82
-3 -1 2 124.92 5.78
3 1 -2 121.58 7.41
-3 -1 2 120.27 6.48
3 1 -2 131.76 5.12
-3 -1 1 287.91 11.97
3 1 -1 281.36 11.02
3 1 -1 271.74 9.38
-3 -1 1 280.69 10.49
3 1 -1 298.94 13.02
-3 -1 1 293.5 11.59
-3 -1 0 4.87 1.76
3 1 0 2.4 1.02
-3 -1 0 5.06 1.49
-3 -1 0 6.07 1.64
3 1 0 4.29 1.43
3 1 0 5.96 1.58
-3 -1 -1 130.94 9.55
3 1 1 129.96 7.74
3 1 1 126.43 8.15
-3 -1 -1 117.29 8.71
3 1 1 126.34 8.58
3 1 1 130.99 8.51
-3 -1 -2 0.23 0.68
3 1 2 2.07 1.2
-3 -1 -2 0.77 0.86
3 1 2 2.17 1.1
3 1 2 1.55 0.88
3 1 3 161.52 11.02
3 1 3 172.79 9.42
3 1 3 158.48 10.88
3 1 4 191.27 12.75
3 1 4 197.73 9.63
-3 -1 -4 161.52 13.1
3 1 4 194.12 12.87
3 1 5 850.04 28.48
3 1 5 856.18 24.19
-3 -1 -5 856.27 32.32
3 1 5 856.04 17.65
3 1 5 865.49 28.7
3 1 6 1.28 1.27
-3 -1 -6 -0.27 0.8
3 1 6 0.26 0.29
-3 -1 -7 4.21 2.95
3 1 7 0.75 1.33
-3 -1 -8 188.65 18.23
3 1 8 210.39 16.23
-3 -1 -9 161.47 17.96
3 1 9 165.58 15.02
-3 -1 -10 554.92 34.94
3 1 10 525.54 27.63
3 1 11 23.41 6.21
-3 -1 -11 30.48 8.48
3 1 12 35.79 7.66
-3 -1 -12 17.19 6.21
-3 -2 13 6.89 3.82
3 2 -13 11.73 4.65
3 2 -12 256.21 19.5
-3 -2 12 276.56 20.9
-3 -2 11 91.87 11.26
3 2 -11 106.69 12.12
-3 -2 10 0.01 1.89
-3 -2 10 -1.69 0.9
-3 -2 10 1.11 0.97
3 2 -10 -0.98 1.65
-3 -2 9 336.82 19.45
-3 -2 9 355.08 10.27
3 2 -9 328.65 19.53
-3 -2 8 13.51 1.67
-3 -2 8 13.82 2.13
3 2 -8 8.2 3.04
-3 -2 8 13.34 3.65
-3 -2 7 546.44 21.92
3 2 -7 539.72 22.79
-3 -2 7 525.57 23.47
-3 -2 7 511.03 7.27
-3 -2 6 18.4 3.84
3 2 -6 26.18 4.84
-3 -2 6 20.28 4.45
-3 -2 5 0.41 0.48
3 2 -5 0.81 0.62
-3 -2 4 1153.04 26.65
3 2 -4 1294.81 30.87
3 2 -3 30.23 3.91
-3 -2 3 27.07 2.5
3 2 -3 28.05 1.69
-3 -2 3 30.23 4.03
3 2 -3 24.82 4.11
-3 -2 2 626.69 17.63
3 2 -2 650.85 12.11
3 2 -2 626.81 16.14
3 2 -2 630.07 11
-3 -2 2 613.77 14.78
3 2 -2 646.62 21.05
-3 -2 2 635.7 16.83
3 2 -1 458.59 12.11
-3 -2 1 461.73 14.55
3 2 -1 427.95 12.46
-3 -2 1 457.83 14.52
-3 -2 1 434.36 15.4
-3 -2 0 6.33 2.05
-3 -2 0 6.16 1.6
3 2 0 4.63 1.31
3 2 0 8.08 1.86
3 2 1 55.38 4.55
3 2 1 50 5.14
-3 -2 -1 54.65 6.2
3 2 2 1.42 1.15
3 2 2 0.4 0.59
3 2 3 545.17 20.14
-3 -2 -3 490.68 22.24
3 2 3 517.68 20.1
-3 -2 -4 268.9 18.01
3 2 4 240.01 10.99
-3 -2 -4 235.63 16.47
3 2 4 270.96 15.28
3 2 4 258.4 14.79
3 2 5 0.22 0.8
3 2 5 0.37 0.51
-3 -2 -6 50.61 8.65
3 2 6 46.19 3.62
3 2 6 55.47 7.77
3 2 7 7.54 3.06
-3 -2 -7 12.39 4.78
3 2 8 23.27 5.54
-3 -2 -8 22.08 6.57
-3 -2 -9 4.8 2.31
-3 -2 -10 5.03 3.91
-3 -2 -11 24.52 7.76
3 3 -13 13.91 4.96
-3 -3 13 9.87 3.92
-3 -3 12 -0.1 1.06
3 3 -12 -0.11 1.33
-3 -3 11 17.86 5.11
3 3 -11 15.99 5.07
3 3 -10 43.16 7.45
-3 -3 10 50.37 4.57
-3 -3 10 54.96 8.43
-3 -3 9 0.46 0.24
-3 -3 9 1.15 0.64
-3 -3 9 1.45 1.42
3 3 -9 2.49 1.43
-3 -3 8 0.79 1.2
3 3 -8 0.1 0.73
-3 -3 7 99.87 9.43
3 3 -7 93.76 9.72
-3 -3 6 97.77 8.66
3 3 -6 114.21 10.31
-3 -3 6 105.05 10.24
-3 -3 5 -0.56 1.35
3 3 -5 0.28 0.74
-3 -3 5 0.29 0.23
-3 -3 5 0.64 0.73
-3 -3 5 0.41 0.31
3 3 -4 104.32 4.37
-3 -3 4 104.17 7.97
-3 -3 4 110.9 5.17
3 3 -4 121.73 10.05
-3 -3 3 69.22 4.82
-3 -3 3 63.83 5.83
3 3 -3 65.79 4.15
3 3 -3 67.65 7.34
-3 -3 2 91.52 6.61
-3 -3 2 91.9 6.41
3 3 -2 93.27 5.45
3 3 -2 92.96 8.54
3 3 -1 22.03 2.64
-3 -3 1 17.71 3.1
3 3 -1 14.28 2.33
-3 -3 1 14.97 2.46
3 3 0 135.68 8.09
3 3 0 126.05 5.7
-3 -3 0 120.05 8.89
3 3 0 124.64 7.64
-3 -3 -1 0.23 1.04
3 3 1 1.05 0.53
3 3 1 2.37 1.25
3 3 1 1.91 1.06
3 3 2 58.14 6.18
3 3 2 51.82 3.78
-3 -3 -2 46.32 6.62
3 3 2 60.78 6.2
-3 -3 -2 57.48 7.6
3 3 3 672.57 22.81
3 3 3 676.02 15.17
-3 -3 -3 667.22 26.98
3 3 3 692.02 22.53
-3 -3 -3 658.55 27.69
-3 -3 -4 1.49 1.99
3 3 5 -0.22 0.98
-3 -3 -5 1.24 1.51
-3 -3 -6 44.93 8.47
3 3 6 52.63 4.66
-3 -3 -7 3.91 2.92
-3 -3 -8 299.22 24.86
-3 -3 -9 8.61 4.78
-3 -3 -10 63.54 12.88
-3 -4 13 12.16 4.68
3 4 -13 6.68 3.55
-3 -4 12 2.32 2.98
3 4 -12 1.68 2.41
-3 -4 11 293.34 20.65
3 4 -11 275.72 20.18
3 4 -10 16.01 4.83
-3 -4 10 22.5 5.63
-3 -4 9 237.74 16.49
-3 -4 9 227.18 6.13
3 4 -9 241.7 17.47
-3 -4 9 235.22 4.73
-3 -4 8 18.28 2.06
-3 -4 8 20.47 4.64
3 4 -8 16.04 4.27
-3 -4 7 73.07 3.64
-3 -4 7 77.44 8.42
3 4 -7 66.61 8.58
-3 -4 7 71.67 4.63
-3 -4 6 213.73 6.93
3 4 -6 212.1 14.72
-3 -4 6 208.77 8.73
-3 -4 6 221.16 13.17
3 4 -5 113.53 5.96
-3 -4 5 114.74 5.74
-3 -4 5 105.29 8.56
3 4 -5 117.78 10.66
-3 -4 4 458.06 13.13
3 4 -4 475.41 13.86
-3 -4 4 449.49 16.51
3 4 -4 451.38 20.63
-3 -4 3 46.47 4.6
-3 -4 3 45.3 4.9
3 4 -3 51.4 4.74
3 4 -3 48.88 6.69
3 4 -2 35.51 5.75
-3 -4 2 34.34 3.93
-3 -4 2 31.64 4.12
3 4 -2 36.03 4.12
-3 -4 1 69.91 5
3 4 -1 66.86 5.99
-3 -4 0 2.46 1.51
-3 -4 0 2.72 1.62
3 4 0 2.15 1.13
-3 -4 -1 755.3 26.32
3 4 1 752.05 22.74
-3 -4 -1 754.13 27.87
-3 -4 -2 110.45 10.81
3 4 2 100.47 8.83
-3 -4 -3 1.23 1.2
3 4 4 93.19 3.78
-3 -4 -4 103.11 12.07
3 4 4 87.46 4.18
3 4 5 0.39 0.32
3 4 5 0.47 0.38
3 4 6 230.51 8.86
-3 -4 -6 216.78 19.94
3 4 7 11.12 2.24
-3 -4 -7 9.98 5.03
-3 -4 -8 1.16 2.77
-3 -4 -9 88.05 15.69
-3 -5 13 114.01 14.52
3 5 -13 126.81 14.91
3 5 -12 -0.65 1.45
-3 -5 12 -1.4 1.81
-3 -5 11 5.75 3.11
3 5 -11 -0.18 1.6
3 5 -10 12.73 4.37
-3 -5 10 12.53 4.1
-3 -5 9 19.54 1.69
-3 -5 9 23.45 5.15
3 5 -9 19.45 5.19
-3 -5 8 95.86 9.98
-3 -5 8 94.31 4.1
3 5 -8 87.23 10.42
-3 -5 8 96.66 6.81
-3 -5 7 5.11 1.63
-3 -5 7 3.98 1.94
3 5 -7 2.83 1.55
-3 -5 7 3.28 1.11
-3 -5 7 6.3 1.19
3 5 -6 122.35 7.5
-3 -5 6 121.28 6.73
-3 -5 6 115.45 5.64
-3 -5 6 111.83 9.5
3 5 -6 124.87 11.86
-3 -5 5 10.29 2.14
3 5 -5 9.34 3.13
-3 -5 5 10.55 2.79
3 5 -5 11.69 2.51
-3 -5 4 17.18 3.26
-3 -5 4 13.84 2.71
3 5 -4 12.8 2.88
3 5 -4 17.2 4.38
3 5 -3 13.32 2.92
-3 -5 3 14.3 2.72
3 5 -3 9.9 3.08
3 5 -2 3.54 1.92
-3 -5 2 6.4 2.08
-3 -5 2 6.65 1.71
3 5 -2 3.78 1.76
-3 -5 1 3.91 1.87
-3 -5 1 0.66 0.56
3 5 -1 2.45 1.87
3 5 0 28.91 4.81
-3 -5 0 29.87 5.27
-3 -5 -1 20.25 4.57
3 5 1 34.14 5.51
-3 -5 -2 80.13 9.95
-3 -5 -3 48.92 8.3
-3 -5 -4 4.35 3.19
-3 -5 -5 36.17 8.19
-3 -5 -6 124.53 15.71
-3 -5 -7 4.35 2.84
-3 -5 -8 14.51 7.3
3 6 -13 15.94 5.26
3 6 -12 1.38 2.37
-3 -6 12 4.03 3.6
-3 -6 11 160.63 15.51
3 6 -11 157.53 15.92
-3 -6 10 17.13 5.08
3 6 -10 23.22 5.84
-3 -6 9 164.87 14.08
3 6 -9 159.13 15.01
-3 -6 8 106.62 10.65
-3 -6 8 95.97 5.46
3 6 -8 96.58 11.32
3 6 -7 6.18 2.78
-3 -6 7 8.57 2.93
-3 -6 7 8.07 1.67
-3 -6 7 7.47 2.08
3 6 -6 394.97 16.62
-3 -6 6 420.89 18.68
-3 -6 6 420.12 13.33
3 6 -6 393.8 21.92
-3 -6 5 40.17 5.39
3 6 -5 31.75 5.07
3 6 -5 38.31 6.66
3 6 -4 43.71 6.32
-3 -6 4 53.22 6.57
-3 -6 4 67.52 6.92
3 6 -4 29.78 6.05
-3 -6 3 381.66 17.03
-3 -6 3 383.35 13.89
3 6 -3 362.95 17.72
3 6 -3 376.94 21.08
3 6 -2 32.99 7.09
-3 -6 2 29.63 5.71
3 6 -2 46.99 8.54
-3 -6 1 535.3 22.97
3 6 -1 535.23 22.45
-3 -6 0 82.15 9.54
-3 -6 -1 33.22 6.37
-3 -6 -2 352.82 22.32
-3 -6 -3 33.2 7.37
-3 -6 -4 361.6 25.64
-3 -6 -5 24.91 7.31
-3 -6 -6 4.51 2.61
-3 -6 -7 119.52 17.38
-3 -7 12 13.26 4.87
3 7 -12 10.49 4.78
-3 -7 11 23.61 6.29
3 7 -11 12.94 4.68
-3 -7 10 39.63 7.53
3 7 -10 32.32 7.08
-3 -7 9 2.31 2.26
3 7 -9 -1.68 2.04
-3 -7 8 210.24 15.18
3 7 -8 182.44 16.25
-3 -7 7 5.24 1.8
3 7 -7 2.32 0.89
-3 -7 7 6.82 2.74
-3 -7 6 5.67 1.85
-3 -7 6 6.75 2.29
3 7 -6 8.97 3.39
-3 -7 5 5.93 2.83
-3 -7 5 9.87 2.63
3 7 -5 6.66 2.84
3 7 -5 4.54 2.48
-3 -7 4 15.57 3.76
3 7 -4 10.61 3.57
-3 -7 3 94.03 9.57
-3 -7 3 110.39 7.26
3 7 -3 88.26 9.95
3 7 -3 86.11 10.8
-3 -7 2 89.23 3.86
-3 -7 2 95.31 10.13
3 7 -2 106.79 12.19
-3 -7 1 22.95 5.31
-3 -7 0 43.13 7.56
-3 -7 -1 2.21 1.38
-3 -7 -2 8.65 3.73
-3 -7 -3 26.27 6.69
-3 -7 -4 133.14 16.75
-3 -7 -5 38.02 9.34
-3 -8 12 -0.49 2.62
3 8 -12 1.68 2.12
-3 -8 11 64.72 10.28
3 8 -11 48.34 9.35
-3 -8 10 16.42 4.77
3 8 -10 11.45 4.61
-3 -8 9 31 6.41
3 8 -9 31.69 6.96
3 8 -8 91.1 11.8
-3 -8 8 91.39 10.14
-3 -8 7 6.12 2.21
-3 -8 7 7.1 2.84
3 8 -7 5.06 2.62
-3 -8 6 2.39 1.61
3 8 -6 -0.32 1.7
-3 -8 6 2.46 1.58
-3 -8 5 50.14 6.95
3 8 -5 35.71 7.1
-3 -8 4 64.35 8.6
3 8 -4 61.91 9.48
-3 -8 3 351.69 20.17
3 8 -3 343.17 22.59
-3 -8 2 28.58 6.14
3 8 -2 31.55 6.86
3 8 -1 47.6 8.75
-3 -8 1 52.56 8.54
-3 -8 0 92.13 11.99
-3 -8 -1 -1.55 2.12
-3 -8 -2 346.01 26.22
-3 -8 -3 142.46 17.46
3 9 -10 47.97 9.16
3 9 -9 -1.89 1.35
3 9 -8 0.46 1.89
3 9 -7 3.6 2.63
-3 -9 6 4.76 2.4
3 9 -6 1.2 1.29
-3 -9 5 48.84 7.5
3 9 -5 44.58 8.44
-3 -9 4 86.28 10.61
3 9 -4 87.72 11.92
-3 -9 3 1.62 1.14
3 9 -3 0.59 2.06
-3 -9 2 26.33 6.45
3 9 -2 22.97 6.37
-3 -9 1 2.33 1.24
3 9 -1 -1.45 2.87
-3 -9 0 3.68 2.49
-3 -9 -1 116.67 15.41
3 10 -5 49.73 9.33
-3 -10 4 18.49 5.58
3 10 -4 27.72 7.12
-3 -10 3 33.26 7.68
3 10 -3 32.17 7.57
-3 -10 2 49.88 9.84
3 10 -2 34.05 7.99
3 10 -1 61.36 10.67
-4 10 1 4.16 3.99
-4 10 0 109.65 16.4
-4 10 -1 103.06 15.79
4 -10 2 44.21 9.15
-4 10 -2 49.59 10.77
-4 10 -3 10.48 5.28
4 -10 3 10.05 4.47
-4 10 -4 10.58 4.87
4 -10 4 17.05 5.35
4 -10 5 50.17 10
4 -10 6 52.94 10.17
4 -10 7 -0.33 1.61
-4 9 5 99.32 14.64
-4 9 4 28.28 7.9
4 -9 -3 117.17 14.26
-4 9 3 108.3 15.53
-4 9 2 68.49 12.17
4 -9 -2 80.52 11.63
-4 9 1 6.78 3.81
4 -9 -1 10.85 4.26
4 -9 0 158.6 16.19
-4 9 0 145.5 17.64
4 -9 1 160.04 16.37
-4 9 -1 144.82 17.69
4 -9 2 155.95 16.29
-4 9 -2 166.18 18.47
-4 9 -3 -0.84 2.29
4 -9 3 3.59 4.11
4 -9 4 2.95 1.12
-4 9 -4 4.49 3.59
-4 9 -5 5.93 3.89
4 -9 5 2.87 3.16
-4 9 -6 54.28 10.96
4 -9 6 62.82 10.97
4 -9 7 85.94 13.24
-4 9 -7 50.47 10.33
4 -9 8 30.85 7.78
-4 9 -8 14.04 5.52
4 -9 9 11.78 5.8
-4 9 -9 9.35 4.42
-4 9 -10 3.44 3.24
4 -9 10 6.49 3.75
4 -8 -6 128.75 14.58
-4 8 6 113.34 14.77
4 -8 -5 30.27 6.68
-4 8 5 24.47 6.73
4 -8 -5 21.61 6.21
-4 8 4 40.29 8.75
4 -8 -4 35.95 7
4 -8 -4 38.18 7.6
-4 8 3 69.83 11.78
4 -8 -3 73.07 10.44
4 -8 -2 43.38 7.96
-4 8 2 50.18 9.81
4 -8 -1 396.86 24.09
-4 8 1 366.28 26.36
4 -8 0 3.16 3.36
-4 8 0 2.95 3.67
4 -8 1 56.88 9.37
-4 8 -1 43.45 8.86
4 -8 2 64.75 10.25
-4 8 -2 64.39 11
4 -8 3 10.37 4.53
-4 8 -3 5.07 3.37
4 -8 4 117 14.04
-4 8 -4 115.9 14.35
4 -8 5 4.35 3.58
-4 8 -5 3.23 2.72
4 -8 6 28.23 7.01
-4 8 -6 26.33 6.72
4 -8 7 187.36 19.21
-4 8 -7 158.97 16.96
4 -8 8 67.33 11.79
-4 8 -8 44.74 9.02
4 -8 9 120.41 16.28
-4 8 -9 82.53 12.61
-4 8 -10 30.72 7.78
4 -8 10 32.36 8.62
4 -8 11 37.73 9.68
-4 8 -11 26.14 7.26
-4 8 -12 3.84 2.58
4 -7 -8 66.93 11.25
4 -7 -7 37.97 7.82
-4 7 7 48.46 9.37
4 -7 -6 0.88 1.27
-4 7 6 3.29 1.5
4 -7 -5 173.95 15.08
4 -7 -5 166.71 15.21
-4 7 5 135.27 15.35
4 -7 -4 11.6 3.75
-4 7 4 24.02 6.41
4 -7 -3 136.75 13.48
-4 7 3 118.9 14.27
-4 7 2 -0.64 2.17
4 -7 -2 -0.58 2.24
4 -7 -1 39.7 7.08
-4 7 1 26.73 6.38
4 -7 0 648.57 29.4
-4 7 0 529.01 29.42
4 -7 1 175.66 15.81
-4 7 -1 156.08 15.95
4 -7 2 200.68 17.16
-4 7 -2 207.72 18.25
4 -7 3 44.11 8.17
-4 7 -3 21.15 5.87
4 -7 4 81.62 11.3
-4 7 -4 61.97 9.84
4 -7 5 245.7 20.42
-4 7 -5 191.51 17.23
4 -7 6 90.69 12.92
-4 7 -6 72.29 10.82
4 -7 7 122.06 15.27
-4 7 -7 112.89 13.48
4 -7 8 0.04 1.79
-4 7 -8 0.42 2.11
4 -7 9 4.9 2.11
-4 7 -9 9.82 3.73
4 -7 10 2.38 2
-4 7 -10 3.5 2.14
4 -7 11 9.08 4.23
-4 7 -11 6.35 3.02
4 -7 12 -2.7 2.87
-4 7 -12 2.07 2.01
4 -6 -10 0.75 1.42
-4 6 9 21.9 6.73
4 -6 -9 17.84 5.82
4 -6 -8 54.46 9
-4 6 8 55.28 8.98
4 -6 -7 8.7 3.56
-4 6 7 12.07 4.19
-4 6 7 9.4 3.72
4 -6 -6 73.18 9.35
-4 6 6 55.49 8.61
4 -6 -6 74.11 9.8
-4 6 6 67.39 10.32
-4 6 5 12.8 3.98
-4 6 5 10.21 4.15
4 -6 -5 13.69 4.1
4 -6 -5 13.38 3.78
-4 6 4 216.68 18.25
4 -6 -4 239.23 16.84
4 -6 -3 269 16.11
4 -6 -3 296.93 18.47
-4 6 3 308.62 13.39
-4 6 3 304.35 21.59
-4 6 2 32.4 6.91
4 -6 -2 33.22 5.75
4 -6 -2 42.83 7.03
-4 6 2 38.87 4.04
4 -6 -1 203.19 14.84
4 -6 -1 234.7 16.44
-4 6 1 213.6 7.04
-4 6 1 219.05 17.87
4 -6 0 8.6 3.45
4 -6 0 14 3.99
-4 6 0 9.89 4.03
4 -6 1 167.28 13.85
4 -6 1 165.11 14.55
-4 6 -1 174.18 15.74
4 -6 2 56.79 8.81
-4 6 -2 67.63 9.63
-4 6 -3 1.91 1.4
4 -6 3 1.87 1.62
4 -6 4 491.89 26.93
-4 6 -4 492.25 25.89
4 -6 5 16.3 5.89
-4 6 -5 17.24 5.06
4 -6 6 315.71 22.9
4 -6 6 326.82 9.47
-4 6 -6 280.93 19.67
4 -6 7 320.13 24.04
4 -6 7 315.19 11.97
-4 6 -7 275.69 19.53
4 -6 8 -8.3 4.05
-4 6 -8 0.6 1.94
4 -6 9 140.5 16.91
-4 6 -9 107.12 12.55
-4 6 -10 6.7 3.46
4 -6 10 10.06 5.15
4 -6 11 28.52 8.46
-4 6 -11 13.36 4.84
4 -6 12 198.22 22.29
4 -6 13 0.05 1.86
-4 5 11 -0.33 3.05
4 -5 -11 0.89 3.63
-4 5 10 134.72 15.51
4 -5 -10 143.9 15.62
4 -5 -10 165.11 14.76
-4 5 9 -1.94 2.84
4 -5 -9 -0.86 2.09
4 -5 -9 -0.63 1.39
4 -5 -8 130.12 12.85
4 -5 -8 135.37 11.76
-4 5 8 136.92 14.37
-4 5 8 131.32 13.78
4 -5 -7 66.06 8.52
-4 5 7 71.03 10.13
-4 5 7 50.67 8.35
4 -5 -7 64.74 8.58
4 -5 -7 71.17 8.05
4 -5 -6 50.16 6.87
-4 5 6 48.32 7.92
4 -5 -6 50.99 6.25
-4 5 6 49.45 8.3
4 -5 -6 48.22 7.18
-4 5 5 264.93 19.45
-4 5 5 264.87 17.89
4 -5 -5 275.9 16.83
4 -5 -5 266.66 13.16
-4 5 5 253.93 14.77
4 -5 -4 2.41 1.78
4 -5 -4 1.61 1.59
4 -5 -4 1.5 0.68
-4 5 4 0.85 1.21
4 -5 -3 18.02 4.04
4 -5 -3 12.98 3.66
4 -5 -3 19.68 2.9
-4 5 3 20.74 3.42
-4 5 3 25.78 5.81
-4 5 2 241.47 17.7
4 -5 -2 231.34 15.03
4 -5 -2 246.64 15.7
4 -5 -2 247.82 8.63
-4 5 2 244.07 10.26
4 -5 -1 1.43 1.34
-4 5 1 3.64 2.19
-4 5 1 3.97 1.11
4 -5 0 26.14 5.3
-4 5 0 43.36 7.37
4 -5 0 31.45 6.12
4 -5 1 11.66 3.59
4 -5 1 17.24 4.57
-4 5 -1 9.69 3.61
4 -5 2 30.38 5.62
-4 5 -2 33.03 6.33
4 -5 2 27.96 5.82
4 -5 3 37.31 6.89
-4 5 -3 28.49 5.8
4 -5 4 27.25 6.29
-4 5 -4 24.19 5.34
4 -5 5 170.97 15.94
4 -5 5 163.71 6.77
-4 5 -5 162.54 13.88
-4 5 -6 8.4 3.44
4 -5 6 10.66 4.16
4 -5 6 9.82 2.08
4 -5 7 3.11 2.76
-4 5 -7 1.8 1.75
4 -5 7 0.87 0.93
4 -5 8 0.69 1.74
4 -5 8 -0.69 1.18
-4 5 -8 0.12 0.7
-4 5 -9 -0.13 1.02
4 -5 9 1.5 1.21
4 -5 9 0.42 2.66
4 -5 10 18.29 6.33
-4 5 -10 18.75 5
4 -5 11 26.5 7.72
-4 5 -11 18.01 4.81
4 -5 12 39.79 9.56
4 -5 13 12.93 6.3
-4 4 12 12.96 4.7
-4 4 11 -1.28 1.72
4 -4 -11 -0.54 1.97
4 -4 -11 2.27 1.85
-4 4 10 2.23 2.26
4 -4 -10 4.37 3.06
4 -4 -10 -1.74 1.96
-4 4 9 -1.77 2.64
4 -4 -9 1.35 1.87
4 -4 -9 2.27 2.21
4 -4 -8 42.24 6.8
-4 4 8 47.93 8.36
4 -4 -8 47.82 7
-4 4 8 51.27 8.15
4 -4 -7 25.97 4.29
-4 4 7 31.77 6.54
4 -4 -7 27.83 5
-4 4 7 24.61 5.84
4 -4 -7 31.16 5.25
4 -4 -6 115.26 9.67
-4 4 6 110.81 11.86
4 -4 -6 95.28 9.37
4 -4 -6 108.29 9.11
-4 4 6 98.32 9.7
-4 4 6 108.99 11.91
4 -4 -6 85.11 7.05
4 -4 -6 112.69 10.44
-4 4 5 341.66 20.71
4 -4 -5 340.09 18
-4 4 5 316.76 19.11
4 -4 -5 321.75 16.67
4 -4 -5 329.06 14.74
-4 4 5 314.68 16.23
-4 4 4 147.67 12.73
-4 4 4 150.34 13.35
4 -4 -4 146.59 11.41
4 -4 -4 148.81 11.27
4 -4 -4 149.84 9.06
-4 4 4 135 12.89
4 -4 -4 148.24 11.71
-4 4 3 145.56 12.23
-4 4 3 171.16 14.24
4 -4 -3 139.98 11.14
4 -4 -3 154.58 11.47
4 -4 -3 147.75 8.1
-4 4 3 163.88 9.62
-4 4 3 162.68 13.87
4 -4 -3 158.51 12.02
4 -4 -2 3.38 1.66
-4 4 2 1 0.93
4 -4 -2 -0.13 0.43
4 -4 -2 0.13 0.6
-4 4 2 1.75 0.94
4 -4 -2 4.11 1.84
-4 4 2 1.89 1.45
4 -4 -1 53.43 7.29
4 -4 -1 48.75 3.4
-4 4 1 50.42 7.66
-4 4 1 45.9 3.81
4 -4 -1 42.68 6.23
4 -4 -1 53.26 6.81
-4 4 1 46.26 7.24
-4 4 0 240.49 16.79
4 -4 0 223.41 14.75
4 -4 0 249.18 15.64
4 -4 0 226.99 5.64
-4 4 0 246.33 16.53
4 -4 1 8.46 2.86
-4 4 -1 6.34 2.89
4 -4 1 7.21 2.61
-4 4 -1 8.01 3.05
-4 4 -2 879.21 32.6
4 -4 2 884.3 31.68
4 -4 2 965.55 33.97
-4 4 -2 904.05 31.08
-4 4 -3 81.13 10.09
4 -4 3 65.25 8.9
4 -4 3 67.03 3.27
-4 4 -3 83.36 9.38
4 -4 3 55.31 8.43
4 -4 4 354.24 9.69
4 -4 4 367.84 21.79
4 -4 4 369.7 22.32
-4 4 -4 370.36 19.74
4 -4 5 558.95 27.99
4 -4 5 569.65 14.7
-4 4 -5 572.77 24.71
4 -4 6 1.19 1.19
4 -4 6 4.33 1.49
-4 4 -6 1.36 1.25
4 -4 7 80.21 11.35
4 -4 7 77.43 6.91
-4 4 -7 59.82 8.03
4 -4 8 17.64 5.52
-4 4 -8 19.07 4.51
4 -4 8 13.84 3.16
4 -4 9 201.22 19.55
-4 4 -9 217.73 15.58
-4 4 -9 214.05 20.04
4 -4 10 130.33 16.67
-4 4 -10 119.44 11.59
-4 4 -10 136.12 16.7
-4 4 -11 6.71 4.36
4 -4 11 4.86 4.04
-4 4 -11 0.23 1.15
4 -4 12 115.15 16.24
4 -4 12 101.93 15.99
-4 4 -12 94.39 15.02
4 -4 13 -0.4 3.38
-4 4 -13 1.76 2.98
4 -4 13 5.04 5.36
-4 3 12 81 12.56
4 -3 -12 86.94 11.68
-4 3 11 3.25 3.67
4 -3 -11 3.77 1.76
4 -3 -11 -0.58 2.08
-4 3 10 166.22 16.53
4 -3 -10 174.49 14.7
4 -3 -10 173.81 14.8
-4 3 9 36.94 7.87
4 -3 -9 28.83 5.53
4 -3 -9 38.6 6.62
-4 3 8 179.85 15.8
4 -3 -8 174.79 12.47
4 -3 -8 168.29 13.18
4 -3 -8 151.52 12.14
4 -3 -7 166.73 8.76
-4 3 7 141.55 13.4
-4 3 7 156.11 13.11
4 -3 -7 169.16 12.36
-4 3 7 159.74 13.88
4 -3 -7 149.58 12.13
4 -3 -7 158.7 10.96
4 -3 -6 2.83 1.44
4 -3 -6 5.19 1.37
-4 3 6 2.76 1.51
-4 3 6 2.62 2.07
-4 3 6 3.65 1.89
4 -3 -6 4.84 1.95
-4 3 6 2.23 1.96
4 -3 -6 6.78 2.56
4 -3 -6 5.27 2.07
-4 3 5 297.33 18.17
-4 3 5 267.96 16.46
4 -3 -5 293.01 16.14
4 -3 -5 290.61 14.31
4 -3 -5 312.2 14.7
-4 3 5 279.84 15.18
-4 3 5 292.28 18.24
4 -3 -5 276.75 16.15
-4 3 4 3.1 2.05
4 -3 -4 0.79 0.67
-4 3 4 2.3 1.53
4 -3 -4 -0.29 0.88
-4 3 4 4.1 2.22
4 -3 -4 0.31 0.96
4 -3 -4 0.53 1.14
-4 3 3 264.13 15.9
-4 3 3 268.74 16.12
4 -3 -3 264.9 14.87
4 -3 -3 251.44 13.26
4 -3 -3 257.58 11.29
-4 3 3 233.26 11.82
-4 3 3 256.58 16.6
4 -3 -3 255.95 15.11
-4 3 2 21.17 4.74
-4 3 2 12.9 3.5
4 -3 -2 11.54 3.11
-4 3 2 11.89 3.35
4 -3 -2 14.86 2.53
4 -3 -2 12.47 3.17
4 -3 -2 13.54 3.47
-4 3 2 13.33 2.53
-4 3 1 168.08 12.75
4 -3 -1 180.04 12.71
4 -3 -1 157.61 11.27
4 -3 -1 173.64 7.6
-4 3 1 162.04 7.99
-4 3 1 194.92 14.02
4 -3 -1 179.87 12.2
-4 3 0 578.64 23.64
-4 3 0 572.25 23.46
4 -3 0 569.58 22.57
4 -3 0 572.94 22.5
4 -3 0 562.73 12.43
4 -3 1 9.18 2.8
-4 3 -1 17.89 4.24
-4 3 -1 11.49 3.25
4 -3 1 16.9 3.95
4 -3 1 16.6 2.09
4 -3 1 17.27 4.11
4 -3 1 6.56 2.29
4 -3 2 84.51 9.42
-4 3 -2 99.34 9.64
4 -3 2 96.78 10.18
4 -3 2 87.44 8.07
4 -3 3 651.17 27.03
4 -3 3 686.96 13.64
4 -3 3 696.41 28.14
-4 3 -3 643.35 24.7
4 -3 4 59.48 4.58
4 -3 4 46.82 7.49
4 -3 4 67.21 9.21
-4 3 -4 72.96 8.33
4 -3 5 2.99 2.29
4 -3 5 4.8 2.21
-4 3 -5 10.43 3.94
4 -3 5 4.11 1.39
-4 3 -5 3.13 1.84
-4 3 -6 12.53 3.34
4 -3 6 8.71 4.21
-4 3 -6 12.45 4.31
4 -3 6 17.31 3.05
4 -3 7 11.89 4.17
4 -3 7 11.81 2.85
-4 3 -7 7.31 2.82
-4 3 -7 15.86 5
4 -3 8 64.45 10.67
4 -3 8 69.12 7.43
-4 3 -8 77.27 11.5
-4 3 -8 63.54 7.75
4 -3 9 143.68 16.6
-4 3 -9 153.69 11.95
-4 3 -9 142.17 16.22
4 -3 10 0.6 1.47
4 -3 10 0.81 2.13
-4 3 -10 5.41 3.85
-4 3 -10 0.16 1.24
4 -3 11 34.98 8.41
-4 3 -11 32.5 8.46
4 -3 11 37.55 9.34
4 -3 12 14.3 6.92
4 -3 12 18.4 8.23
-4 3 -12 23.67 8.04
4 -3 13 5.59 3.75
4 -3 13 1.27 3.64
-4 3 -13 9.03 5
-4 2 13 10.93 4.67
-4 2 12 14.15 5.15
4 -2 -12 8.98 3.27
4 -2 -11 31.56 6.27
-4 2 11 27.1 6.59
4 -2 -11 27.11 6.37
-4 2 10 19.98 5.55
4 -2 -10 21.17 4.73
4 -2 -10 22.11 5.38
-4 2 9 147.06 14.4
-4 2 9 150.5 12.49
4 -2 -9 135.46 11.06
4 -2 -9 142.76 12.26
4 -2 -9 152.86 13.14
-4 2 8 15.93 4.47
-4 2 8 14.54 3.58
4 -2 -8 19.58 4.62
4 -2 -8 16.27 3.52
4 -2 -8 9.94 3.4
-4 2 7 361.34 20.8
4 -2 -7 381.07 15.26
-4 2 7 373.87 18.14
4 -2 -7 368.3 18.35
4 -2 -7 389.58 20.1
4 -2 -6 210.05 5.8
4 -2 -6 263.82 11.45
-4 2 6 217.02 15.53
-4 2 6 243.81 14.32
4 -2 -6 234.4 11.8
4 -2 -6 237.83 14
-4 2 6 233.08 14.79
4 -2 -6 239.4 15.51
-4 2 5 31.03 5.7
4 -2 -5 39.23 4.69
4 -2 -5 32.35 5.23
4 -2 -5 35.22 5.05
-4 2 5 35.64 5.29
-4 2 5 27.38 5.55
4 -2 -5 37.2 5.99
4 -2 -5 32.78 2.43
-4 2 5 31.35 5.1
-4 2 4 8.07 2.87
4 -2 -4 6 2.31
4 -2 -4 10.13 2.5
-4 2 4 5.69 2.2
-4 2 4 6.39 2.47
4 -2 -4 6.74 1.96
4 -2 -4 8.37 3.01
-4 2 3 5.01 2.1
4 -2 -3 5.86 2.11
-4 2 3 5.13 2
4 -2 -3 4.84 1.59
4 -2 -3 5.57 1.85
-4 2 3 5.39 2.13
4 -2 -3 2.39 1.55
-4 2 3 6.32 1.99
-4 2 2 293.08 14.92
-4 2 2 331.08 16.95
4 -2 -2 291.14 13.62
4 -2 -2 274.95 11.36
-4 2 2 299.75 12.52
-4 2 2 311.2 17.09
4 -2 -2 283.98 15.79
-4 2 1 39.89 5.57
4 -2 -1 43.69 5.57
-4 2 1 39.75 5.7
4 -2 -1 40.84 4.14
-4 2 1 50.38 6.78
4 -2 -1 39.11 5.31
-4 2 0 1155.59 30.86
4 -2 0 1175.39 30.42
4 -2 0 1149.84 21.3
-4 2 0 1093 31.29
4 -2 0 1164.36 30.5
4 -2 1 79.53 8.27
-4 2 -1 90.07 8.87
4 -2 1 74.43 8.03
4 -2 2 1124.07 33.13
-4 2 -2 1200.95 32.18
4 -2 2 1156.68 33.05
4 -2 3 128.84 11.74
4 -2 3 149.93 12.55
-4 2 -3 143.75 12.14
-4 2 -3 142.62 10.97
4 -2 4 58.79 8.3
4 -2 4 50.78 7.56
4 -2 4 63.82 5.36
-4 2 -4 65.69 8.66
-4 2 -4 55.14 6.85
4 -2 5 84.48 6.69
4 -2 5 76.15 9.75
-4 2 -5 87.03 8.54
-4 2 -5 80.59 10.26
-4 2 -6 7.24 2.58
4 -2 6 7.27 2.29
-4 2 -6 8.66 3.78
4 -2 7 875.18 35.6
4 -2 7 848.55 25.12
-4 2 -7 851.59 26.44
-4 2 -7 847.68 36.66
4 -2 8 35.03 7.61
-4 2 -8 47.31 9.22
-4 2 -8 38.58 5.57
4 -2 9 14.87 5.35
-4 2 -9 10.17 4.4
-4 2 -9 9.09 2.71
4 -2 10 179.92 18.41
-4 2 -10 167.5 18.91
4 -2 11 32.96 8.21
-4 2 -11 32.57 8.68
4 -2 12 254.48 23.19
-4 2 -12 319.09 28.65
4 -2 13 25.68 7.59
-4 2 -13 32.13 9.55
-4 1 13 21.33 6.62
-4 1 12 288.76 22.66
4 -1 -12 263.99 20.08
-4 1 11 10.59 4.26
4 -1 -11 16.61 5.41
-4 1 10 105.42 12.33
4 -1 -10 113.29 9.9
4 -1 -10 120.22 12.34
-4 1 9 333.39 21.15
-4 1 9 302.46 15.69
4 -1 -9 359.52 16.12
4 -1 -9 325.71 19.28
4 -1 -9 308.97 18.81
-4 1 8 101.19 11.18
-4 1 8 122.75 9.54
4 -1 -8 134.72 8.95
4 -1 -8 119.81 11.18
4 -1 -8 118.35 11.59
-4 1 7 680.74 21.54
4 -1 -7 697.89 18.24
-4 1 7 663.58 27.45
4 -1 -7 632.15 24.59
4 -1 -7 717.7 27.96
-4 1 6 20.5 4.64
4 -1 -6 26.59 5.04
4 -1 -6 26.5 3.09
-4 1 6 27.53 4.21
4 -1 -6 26.07 4.73
4 -1 -6 33.34 5.9
-4 1 6 31.14 5.45
-4 1 5 116.46 8.43
-4 1 5 99.09 9.92
4 -1 -5 121 9.95
4 -1 -5 106.76 6.47
4 -1 -5 107.67 9.05
-4 1 5 119.43 10
4 -1 -5 89.54 9.51
4 -1 -4 102.63 9.99
-4 1 4 119.04 8.35
-4 1 4 118.38 10.41
4 -1 -4 100.15 8.69
4 -1 -4 111.14 6.61
4 -1 -4 115.85 8.78
4 -1 -3 163.42 6.54
-4 1 3 161.57 9.53
4 -1 -3 177.41 8.84
4 -1 -3 169.51 10.07
-4 1 3 180.03 10.84
-4 1 3 180.3 12.95
4 -1 -3 170.92 12.71
-4 1 3 163.26 11.86
4 -1 -3 174.01 9.28
-4 1 2 662.24 19.98
-4 1 2 639.42 22.74
4 -1 -2 669.04 18.74
4 -1 -2 650.84 18.93
-4 1 2 620.71 19.26
-4 1 2 634.26 23.81
4 -1 -2 618.04 18.6
4 -1 -1 126.7 9.02
-4 1 1 122.72 9.67
4 -1 -1 133.54 8.37
4 -1 -1 130.6 9.13
-4 1 1 109.91 9.65
4 -1 0 1069.4 29.72
-4 1 0 1054.27 29.5
4 -1 0 1051.88 23.34
4 -1 0 1127.96 29.02
4 -1 1 80.85 8.07
4 -1 1 96.24 8.52
4 -1 1 76.09 7.95
-4 1 -1 83.18 8.07
4 -1 1 69.39 7.53
-4 1 -1 76.89 7.78
4 -1 2 2.59 1.22
4 -1 2 4.59 2.21
-4 1 -2 2.2 1.28
4 -1 2 2.05 1.52
4 -1 3 27.38 4.99
4 -1 3 25.79 4.94
4 -1 3 28.7 4.48
-4 1 -3 39.56 5.46
4 -1 4 4.56 2.35
4 -1 4 2.1 1.33
-4 1 -4 0.23 0.65
-4 1 -4 1.01 0.8
4 -1 4 4.2 1.48
4 -1 5 417.47 22.42
4 -1 5 434.19 16.31
4 -1 5 433.49 22.62
-4 1 -5 412.98 17.19
-4 1 -5 417.66 23.38
4 -1 5 389.98 14.93
-4 1 -6 0.83 1.5
4 -1 6 1.73 2.23
4 -1 6 0.86 1.02
-4 1 -6 1.49 1.21
4 -1 7 108.67 12.32
-4 1 -7 100.03 12.88
-4 1 -7 104.79 8.13
4 -1 8 50.29 8.91
-4 1 -8 44.73 9.01
-4 1 -9 1.22 1.34
4 -1 9 3.42 1.76
4 -1 10 25.91 6.95
-4 1 -10 36.61 9.4
4 -1 11 33.4 8.11
-4 1 -11 37.03 9.79
4 -1 12 70.26 12.07
-4 1 -12 83.49 15.44
4 -1 13 26.26 7.64
-4 0 13 0.22 2.07
4 0 -13 1.32 1.36
-4 0 12 8.43 4.33
4 0 -12 2.59 2.6
-4 0 11 3.9 2.44
4 0 -11 2.48 2.83
-4 0 10 87.53 11.06
4 0 -10 118.02 12.37
4 0 -10 106.56 7.98
4 0 -9 22.94 3.45
-4 0 9 26.82 5.86
-4 0 9 23.33 3.78
4 0 -9 23.65 5.43
4 0 -9 20.32 4.92
4 0 -8 105.45 11.34
-4 0 8 103.97 11.03
-4 0 8 110.3 7.65
4 0 -8 113.39 6.68
4 0 -8 94.7 10.17
-4 0 7 82.33 6.22
-4 0 7 83.54 9.46
4 0 -7 87.27 10.09
4 0 -7 89.48 5.18
4 0 -7 86.94 9.26
-4 0 6 287.82 10.92
-4 0 6 280.76 16.66
4 0 -6 292.15 16.1
4 0 -6 289.31 7.88
4 0 -6 278.49 15.77
-4 0 6 296.59 16.98
4 0 -6 314.99 18.61
-4 0 5 315.42 10.94
4 0 -5 310.93 6.83
-4 0 5 316.9 17.09
4 0 -5 318.98 15.88
4 0 -5 318.07 8.52
4 0 -5 324.72 16.01
-4 0 5 318.96 16.76
4 0 -5 353.06 19.29
4 0 -5 315.82 8.81
4 0 -4 13.65 1.92
4 0 -4 14.07 1.84
-4 0 4 14.76 3.57
4 0 -4 12.36 2.92
-4 0 4 14.26 2.25
4 0 -4 12.85 3.68
4 0 -4 14.74 3.33
4 0 -3 40.71 3.64
-4 0 3 32.86 5.24
4 0 -3 42.86 5.42
4 0 -3 40.89 5.27
4 0 -3 36.83 3.55
4 0 -3 35.18 5.84
4 0 -2 1282.52 23.58
-4 0 2 1392.91 32.61
4 0 -2 1341.43 30.05
4 0 -2 1259.87 23.15
4 0 -2 1353.87 29.56
4 0 -2 1328.61 21.25
4 0 -1 9.42 2.12
4 0 -1 9.96 2.37
-4 0 1 8.89 2.46
4 0 -1 10.82 2.87
4 0 -1 6.63 1.95
-4 0 1 8.18 2.2
4 0 -1 5.42 1.71
4 0 0 1592.65 32.94
4 0 0 1714.97 38.11
4 0 0 1612.83 31.89
-4 0 0 1632.09 33.71
4 0 0 1601.04 31.41
4 0 1 56.77 6.28
4 0 1 67.12 6.89
4 0 1 57.59 6.44
-4 0 -1 58.92 6.86
4 0 1 47.46 6.2
4 0 2 52.18 6.48
4 0 2 47.03 5.7
4 0 2 46.86 6.24
4 0 2 45.04 5.78
4 0 3 101.39 9.68
4 0 3 100.57 9.7
-4 0 -3 95.68 10.07
4 0 3 110.53 8.76
4 0 4 213.48 14.75
4 0 4 196.69 14.31
-4 0 -4 202.05 15.62
4 0 4 192.15 11.17
4 0 5 206.93 15.44
4 0 5 197.95 11.71
-4 0 -5 208.61 16.85
4 0 5 195.48 10.52
4 0 5 181.5 14.36
-4 0 -6 147.74 15.24
4 0 6 155.31 8.36
4 0 6 165.99 14.56
4 0 7 28.68 6.17
-4 0 -7 28.14 7.09
-4 0 -8 50.4 9.82
4 0 8 76.91 10.7
-4 0 -9 348.27 27.31
4 0 9 339.67 23.21
-4 0 -10 119.24 16.68
4 0 10 143.47 15.74
4 0 11 63.24 10.77
-4 0 -11 64.25 13.08
4 0 12 11.08 4.82
-4 0 -12 18.08 7.2
-4 -1 13 22.83 6.36
4 1 -13 22.41 6.2
-4 -1 12 273.37 21.68
4 1 -12 288.58 21.12
-4 -1 11 9.41 4.34
4 1 -11 21.33 6.4
-4 -1 10 1.2 2.06
4 1 -10 3.13 2.4
-4 -1 9 345.52 20.92
-4 -1 9 343.93 11.36
4 1 -9 311 19.54
-4 -1 8 125.01 6.02
-4 -1 8 132.78 12.34
4 1 -8 116.74 11.47
4 1 -8 124.41 12.59
4 1 -7 391.61 21.76
-4 -1 7 349.34 8.03
-4 -1 7 403.39 20.44
4 1 -7 350.15 18.88
4 1 -6 37.07 6.43
4 1 -6 29.13 5.28
-4 -1 6 29.99 5.3
-4 -1 6 32.38 5.6
4 1 -5 33.82 6.17
4 1 -5 35.12 5.23
4 1 -5 32.37 5.34
-4 -1 5 27.87 5.05
-4 -1 5 28.22 5.02
-4 -1 4 878.13 16.2
4 1 -4 904.78 30.49
4 1 -4 946.31 25.51
4 1 -4 862.94 26.62
-4 -1 4 947.53 28.34
-4 -1 4 926.89 27.48
-4 -1 3 12.22 2.31
4 1 -3 13.95 1.84
4 1 -3 15.49 1.8
-4 -1 3 14.76 3.37
4 1 -3 16 3.2
4 1 -3 14.96 3.27
-4 -1 2 2276.63 35.08
4 1 -2 2263.75 30.34
-4 -1 2 2360.21 41.09
4 1 -2 2410.41 37.89
4 1 -2 2330.46 28.13
-4 -1 2 2392.15 31.89
4 1 -2 2333.49 41.65
4 1 -1 17.2 3.44
-4 -1 1 20.93 3.73
-4 -1 1 22.73 3.87
4 1 -1 20.02 3.55
4 1 -1 17.84 2.88
-4 -1 1 21.58 3.56
4 1 -1 25.95 3.5
-4 -1 0 87.52 8.19
4 1 0 111.27 8.34
4 1 0 101.37 7.57
-4 -1 0 97.04 8.16
4 1 0 91.88 7.26
4 1 1 676.65 20.96
4 1 1 712.17 21.83
-4 -1 -1 707.44 24.18
4 1 1 703.75 23.61
4 1 1 716.7 22.27
4 1 2 2.1 1.61
-4 -1 -2 0.85 0.67
4 1 2 1.78 1.39
4 1 2 2.2 1.59
4 1 2 2.22 1.45
4 1 3 267.95 15.34
-4 -1 -3 272.5 17.39
4 1 3 256.15 13.64
4 1 3 276.35 15.69
4 1 4 37.96 6.21
4 1 4 45.88 6.74
4 1 4 33.2 4.8
-4 -1 -4 44.3 7.48
-4 -1 -5 254.95 19.29
4 1 5 260.15 12.49
4 1 5 253.94 16.8
4 1 6 334.23 12.48
-4 -1 -6 357.43 23.96
4 1 6 373.98 21.37
4 1 7 6.01 2.69
-4 -1 -7 0.94 1.73
4 1 8 10.7 3.84
-4 -1 -8 10.57 4.68
4 1 9 5.32 2.84
-4 -1 -9 6.78 4.59
-4 -1 -10 111.24 16.6
4 1 10 93.68 12.5
-4 -1 -11 182.89 22.37
4 1 11 178.88 17.71
4 1 12 1.69 2.1
-4 -2 13 6.44 3.76
4 2 -13 0.94 1.3
-4 -2 12 40.71 8.41
4 2 -12 60.79 9.96
-4 -2 11 134.36 14.45
4 2 -11 126.82 13.72
-4 -2 10 19 5.43
4 2 -10 25.98 5.9
-4 -2 9 18.3 4.69
4 2 -9 19.99 5
-4 -2 8 3.3 2.3
4 2 -8 -0.15 0.82
-4 -2 7 7.46 1.28
-4 -2 7 10.94 3.38
4 2 -7 10.21 3.33
-4 -2 6 15.49 3.79
4 2 -6 18.54 4.35
-4 -2 6 21.81 2.5
-4 -2 5 145.99 11.11
4 2 -5 153.17 12.17
-4 -2 5 161.11 7.58
-4 -2 4 0.56 0.46
-4 -2 4 1.41 0.43
4 2 -4 4.06 1.72
4 2 -4 3.38 1.69
4 2 -3 320.41 9.1
-4 -2 3 341.33 15.83
4 2 -3 323.8 13.89
4 2 -3 329.94 7.11
-4 -2 3 325.07 10.76
4 2 -3 351.12 17.33
-4 -2 3 325.01 13.1
4 2 -2 476.93 12.17
-4 -2 2 489.32 18.31
4 2 -2 496.97 16.45
-4 -2 2 461.56 15.29
4 2 -2 501.51 20.55
-4 -2 2 482.23 17.46
-4 -2 1 74.61 6.87
4 2 -1 75.31 5.78
4 2 -1 73.49 6.19
-4 -2 1 74.73 6.98
-4 -2 1 77.27 7.51
4 2 0 32.86 4.17
4 2 0 30.01 4.03
-4 -2 0 29.94 4.79
-4 -2 -1 0.23 1.06
4 2 1 -2.43 1.28
4 2 1 1.07 1.06
4 2 2 357.78 14.48
4 2 2 346.95 16.24
-4 -2 -2 335.3 18.78
-4 -2 -2 349.45 19.94
4 2 2 361.79 17.26
-4 -2 -3 186.39 15.37
4 2 3 191.63 10.74
4 2 3 191.21 12.87
-4 -2 -3 202.38 15.71
4 2 3 181.75 11.68
4 2 3 211.71 14.08
-4 -2 -4 37.44 7.23
4 2 4 34.24 5.86
4 2 4 31.48 4.77
-4 -2 -5 1.1 1.01
4 2 5 3.76 2.52
4 2 5 3.58 1.54
-4 -2 -6 184.02 17.9
4 2 6 201.29 10.19
4 2 6 198.1 15.69
4 2 7 105.15 5.12
4 2 7 99.65 11.51
-4 -2 -8 395.21 29.08
4 2 8 403.86 24.13
4 2 9 12.82 4.66
-4 -2 -9 7.95 4.7
-4 -2 -10 7.43 4.31
-4 -3 13 4.71 3.86
4 3 -13 2.17 2.64
-4 -3 12 2.09 1.89
4 3 -12 2.03 1.01
-4 -3 11 36.38 7.56
4 3 -11 57.01 9.52
4 3 -10 -0.21 1.83
-4 -3 10 -1.33 1.99
-4 -3 9 31.52 6.26
4 3 -9 36.63 7.04
-4 -3 8 3.2 2.04
4 3 -8 -2.82 1.92
-4 -3 7 57.76 7.75
4 3 -7 51.19 7.71
-4 -3 6 501.08 21.5
4 3 -6 493.31 23.2
-4 -3 5 61.97 7.24
4 3 -5 54.06 7.53
-4 -3 4 389.69 17.43
-4 -3 4 392.15 11.48
4 3 -4 415.21 20.42
-4 -3 4 410.55 15.39
4 3 -3 17.86 2.13
-4 -3 3 16.24 3.48
4 3 -3 20.15 3.39
-4 -3 3 15.59 2.69
4 3 -3 18.8 4.29
4 3 -2 -0.26 0.48
4 3 -2 1.66 0.85
-4 -3 2 2.92 1.47
4 3 -2 1.93 1.16
-4 -3 2 -0.15 0.34
4 3 -1 197.23 9.72
-4 -3 1 186.57 10.42
4 3 -1 191.17 9.26
4 3 -1 180.8 8.92
-4 -3 1 174.9 11.41
-4 -3 1 167.34 11.97
4 3 0 153.04 9.34
4 3 0 144.58 7.77
4 3 0 141.91 8.68
-4 -3 0 138.12 11.63
4 3 1 196.3 11.46
4 3 1 181.65 8.63
-4 -3 -1 195.23 14.05
-4 -3 -1 183.52 14.37
4 3 2 51.81 6.32
4 3 2 47.1 4.52
-4 -3 -2 37.42 6.56
4 3 3 2.24 1.19
-4 -3 -3 3.66 2.71
4 3 4 426.34 15.28
-4 -3 -4 398.47 24.46
4 3 4 359.36 16.45
4 3 5 36.71 4.76
4 3 5 34.17 4.84
-4 -3 -5 31.64 7.63
-4 -3 -6 180.81 18.54
4 3 6 172.39 10.12
-4 -3 -7 125.27 16.21
-4 -3 -8 0.23 2.95
-4 -3 -9 352.98 30.31
-4 -3 -10 66.19 14.31
-4 -4 13 141.45 16.49
4 4 -13 163.36 17.29
-4 -4 12 -0.89 1.34
4 4 -12 0.19 1.42
-4 -4 11 84.65 11.56
4 4 -11 65.96 10.16
-4 -4 10 0.25 1.24
4 4 -10 3.66 2.64
4 4 -9 10.17 3.46
-4 -4 9 2.58 2.07
-4 -4 8 179.68 14.3
4 4 -8 181.12 15.32
-4 -4 7 186.81 13.91
4 4 -7 199.03 15.69
-4 -4 6 2.75 0.73
-4 -4 6 0.51 0.95
-4 -4 6 2.67 0.77
4 4 -6 4.45 2.4
-4 -4 5 59.39 7.02
-4 -4 5 57.92 4.65
4 4 -5 68.09 8.87
4 4 -4 150.05 7.26
-4 -4 4 146.54 10.6
-4 -4 4 161.48 8.9
4 4 -4 175.38 13.97
-4 -4 3 99.57 8.34
4 4 -3 99.61 6.58
-4 -4 3 107.06 8.05
4 4 -3 91.6 10.15
-4 -4 3 110.37 9.45
4 4 -2 20.07 4.64
-4 -4 2 14.97 3.7
-4 -4 2 16.16 3.19
4 4 -2 10.89 2.3
-4 -4 1 0.51 1.16
-4 -4 1 1.1 1.02
4 4 -1 1.95 0.96
4 4 0 146.79 6.82
-4 -4 0 130.34 11.36
4 4 0 154.02 9.98
4 4 1 40.8 5.59
4 4 1 35.93 3.01
-4 -4 -1 22.44 5.18
4 4 1 29.27 4.59
4 4 2 139.64 5.63
-4 -4 -2 134.09 13.21
4 4 3 47.59 3.4
-4 -4 -3 42.87 7.93
4 4 4 132.8 6.38
-4 -4 -4 128.25 14.53
-4 -4 -5 201.67 19.28
-4 -4 -6 106.8 14.8
-4 -4 -7 -5.27 3.59
-4 -4 -8 100.26 16.89
-4 -4 -9 36.05 10.63
-4 -5 12 1.84 0.84
4 5 -12 4.71 2.91
-4 -5 11 2 2.07
4 5 -11 2.72 1.88
-4 -5 10 1.39 2.26
4 5 -10 0.7 2.06
-4 -5 9 82.98 10.34
4 5 -9 78.25 10.81
-4 -5 8 209.61 15.6
4 5 -8 232.74 18.2
-4 -5 7 53.1 7.52
-4 -5 7 54.15 4
-4 -5 7 49.95 4.08
4 5 -7 43.5 7.75
-4 -5 6 198.76 13.63
-4 -5 6 211.32 9.39
4 5 -6 192.56 15.86
-4 -5 5 20.83 4.3
-4 -5 5 20.77 3.35
4 5 -5 15.19 2.61
4 5 -5 15.42 4.37
-4 -5 4 118.22 9.44
4 5 -4 102.99 7.63
-4 -5 4 105.18 8.14
4 5 -4 103.14 11.38
-4 -5 3 57.96 6.22
4 5 -3 48.6 5.46
4 5 -3 50.78 8.09
-4 -5 2 72.46 6.34
4 5 -2 66.33 6.79
-4 -5 2 67.99 7.84
4 5 -2 78.19 10.06
-4 -5 1 207.94 14.38
4 5 -1 208.61 12.4
-4 -5 0 108.94 11.09
4 5 0 110.62 9.47
-4 -5 -1 98.03 11.22
-4 -5 -2 230.64 18.27
-4 -5 -3 0.13 1.8
-4 -5 -4 49.43 9.51
-4 -5 -5 25.54 7.3
-4 -5 -6 89.46 14.2
-4 -5 -7 139.79 18.79
-4 -6 12 3.09 1.86
4 6 -12 4.39 2.01
-4 -6 11 -0.9 1.62
4 6 -11 6.07 3.98
-4 -6 10 117.96 13.17
4 6 -10 107.29 13.3
-4 -6 9 79.61 10.22
4 6 -9 90.55 11.97
-4 -6 8 10.76 3.5
4 6 -8 19.09 5.39
-4 -6 7 67.94 8.45
-4 -6 7 80.67 6.26
4 6 -7 69.99 9.91
-4 -6 6 5.58 1.75
-4 -6 6 7.16 2.57
4 6 -6 3.26 2.32
-4 -6 5 19.05 3.92
4 6 -5 21.05 3.91
4 6 -5 26.41 5.91
-4 -6 4 11.26 3.17
-4 -6 4 5.38 2.03
4 6 -4 9.38 2.94
4 6 -4 6.49 3.21
-4 -6 3 41.54 5.44
4 6 -3 45.54 6.45
-4 -6 3 54.37 7.14
4 6 -3 40.07 7.73
-4 -6 2 97.76 6.6
4 6 -2 89.46 8.92
-4 -6 2 75.53 8.9
4 6 -2 95.32 11.74
-4 -6 1 13.13 4.12
-4 -6 0 104.93 11.73
-4 -6 -1 90.8 11.5
-4 -6 -2 47.23 8.81
-4 -6 -3 201.69 19.29
-4 -6 -4 2.73 2.71
-4 -6 -5 -0.54 2.65
-4 -6 -6 191.19 22.11
-4 -7 12 -0.13 3.17
-4 -7 11 97.67 12.65
4 7 -11 85.61 12.52
-4 -7 10 55.7 9.06
4 7 -10 62.19 10.51
-4 -7 9 32.76 6.57
4 7 -9 21.2 5.95
-4 -7 8 45.25 7.46
4 7 -8 53.73 9.3
-4 -7 7 17.5 4.46
4 7 -7 10.72 4.26
-4 -7 6 85.71 9.07
-4 -7 6 88.6 8.34
4 7 -6 78.57 10.81
-4 -7 5 26.72 4.83
-4 -7 5 25.96 4.69
4 7 -5 12.88 4.32
-4 -7 4 72.13 7.19
-4 -7 4 72.96 8.5
4 7 -4 74.76 10.65
-4 -7 3 6.27 2.57
4 7 -3 2.24 2.21
4 7 -2 2.47 2.61
-4 -7 2 5.48 3.16
-4 -7 1 69.93 9.76
-4 -7 0 70.29 10.38
-4 -7 -1 66.09 10.49
-4 -7 -2 13.37 4.96
-4 -7 -3 20.35 7.31
-4 -7 -4 124.83 16.95
-4 -8 11 15.74 5.19
-4 -8 10 51.48 8.91
4 8 -10 45.43 9.19
-4 -8 9 90.77 11.35
4 8 -9 66.38 10.81
-4 -8 8 50.41 7.88
4 8 -8 33.01 7.63
4 8 -7 22.39 6.09
4 8 -6 -1.73 2.56
-4 -8 5 16.97 4.23
4 8 -5 23.72 6.31
-4 -8 4 4.68 2.48
4 8 -4 1.14 2.5
-4 -8 3 3.33 2.43
4 8 -3 0.6 2.08
-4 -8 2 93.07 11.71
4 8 -2 98.52 13.27
-4 -8 1 112.38 13.39
4 8 -1 97.46 13.51
-4 -8 0 21.35 6.3
-4 -8 -1 50.88 10.01
-4 -8 -2 20.47 6.73
-4 -8 -3 15.38 6.64
4 9 -9 1.28 1.02
4 9 -8 44.1 9.29
4 9 -7 -0.19 2.77
4 9 -6 51.47 9.52
4 9 -5 -1.99 2.96
-4 -9 4 1.62 2.23
4 9 -4 -0.32 1.49
-4 -9 3 129.51 14.37
4 9 -3 139.24 16.32
-4 -9 2 1.85 1.11
4 9 -2 -0.23 1.74
4 9 -1 25.72 7.11
-4 -9 1 22.59 6.16
4 9 0 5.54 3.64
-4 -9 0 9.58 4.22
-5 9 5 -4.03 3.51
-5 9 4 22.95 7.84
-5 9 3 0.15 1.89
5 -9 -2 19.3 5.74
-5 9 2 19.14 6.48
5 -9 -1 150.8 16.17
-5 9 1 143.15 18.4
5 -9 0 10.25 4.56
-5 9 0 6.48 3.93
-5 9 -1 42.03 9.53
5 -9 1 42.09 8.84
5 -9 2 46.44 9.22
-5 9 -2 59.11 11.54
5 -9 3 4.93 4.11
-5 9 -3 0.08 1.34
5 -9 4 111.33 14.78
-5 9 -4 94.33 14.83
5 -9 5 3.28 3.4
-5 9 -5 -0.15 1.45
5 -9 6 91.08 14.17
-5 9 -6 54.73 11.12
5 -9 7 38.15 9.37
-5 9 -7 29.26 8.47
5 -9 8 -7.58 4.34
-5 9 -8 2.05 2.33
5 -8 -6 57.87 9.82
-5 8 6 69.42 12.25
-5 8 5 5.9 4.59
5 -8 -5 2.95 1.18
5 -8 -5 4.54 2.81
-5 8 4 3.69 2.41
5 -8 -4 6.18 3.36
5 -8 -3 13.95 4.32
-5 8 3 14.57 5.39
5 -8 -2 14.94 4.89
-5 8 2 13.69 5.04
5 -8 -1 63.84 10.06
-5 8 1 63.58 11.58
5 -8 0 33.85 7.39
-5 8 0 26.46 7.37
5 -8 1 239.68 19.91
-5 8 -1 204.03 20.66
5 -8 2 58.7 10.31
-5 8 -2 72.86 12.67
5 -8 3 6.1 3.97
-5 8 -3 11.26 5.03
5 -8 4 79.13 12.17
-5 8 -4 80.95 12.8
5 -8 5 16.06 5.78
-5 8 -5 6.5 3.61
5 -8 6 10.68 4.94
-5 8 -6 7.09 4.26
5 -8 7 15.42 5.81
-5 8 -7 9.25 4.2
5 -8 8 29.05 8.37
-5 8 -8 26.64 7.8
5 -8 9 8.9 4.45
-5 8 -9 11.1 4.99
-5 8 -10 8.35 4.23
5 -8 10 11.78 5.29
-5 8 -11 1.05 3.56
5 -7 -8 34.76 7.87
5 -7 -7 13.36 4.42
5 -7 -7 8.53 3.67
-5 7 7 4.53 3.77
5 -7 -6 4.91 2.98
-5 7 6 6.39 3.55
5 -7 -6 5.08 2.61
-5 7 5 38.32 8.53
5 -7 -5 54.53 8.9
-5 7 4 -2.95 2.57
5 -7 -4 -1.07 1.87
5 -7 -3 235.73 18.07
-5 7 3 218.81 20.64
5 -7 -2 4.45 2.51
-5 7 2 5.18 3.93
5 -7 -1 2.81 2.08
-5 7 1 0.75 1.27
5 -7 0 230.42 18.33
-5 7 0 225.14 20.48
-5 7 -1 34.26 8.35
5 -7 1 16.3 5.25
5 -7 2 294.04 21.57
-5 7 -2 267.52 22.2
5 -7 3 34.4 9.52
-5 7 -3 24.25 7.76
5 -7 4 212.63 19.53
-5 7 -4 216 19.77
5 -7 5 71.77 11.77
-5 7 -5 63.83 10.73
5 -7 6 9.86 5.07
-5 7 -6 12.22 4.45
5 -7 7 115.27 15.62
-5 7 -7 88.39 12.73
5 -7 8 32.78 8.53
-5 7 -8 35.68 7.93
5 -7 9 77.93 13.73
-5 7 -9 55.83 10.07
5 -7 10 4.03 4.39
-5 7 -10 10.17 4.54
5 -7 11 167.92 21.3
-5 7 -11 152.83 17.25
5 -6 -9 -1.59 2.14
-5 6 9 -1.56 2.01
5 -6 -8 99.37 12.08
-5 6 8 79.9 11.96
-5 6 8 79.41 12.01
5 -6 -7 12.85 4.12
5 -6 -7 19.65 5.33
-5 6 7 14.07 5.53
5 -6 -7 17.48 3.91
-5 6 7 6.89 2.33
-5 6 6 3.47 3.26
5 -6 -6 1.79 1.48
-5 6 6 0.81 1.17
5 -6 -6 3.02 2.32
5 -6 -6 0.27 0.68
5 -6 -5 126.54 12.64
5 -6 -5 138.7 9.43
-5 6 5 124.23 15.12
5 -6 -4 34.86 6.66
-5 6 4 43.47 8.69
5 -6 -3 220.41 16.4
-5 6 3 213.95 19.21
5 -6 -2 201.94 15.85
-5 6 2 212.41 19.11
-5 6 2 212.15 9.24
5 -6 -1 102.22 11.56
-5 6 1 109.23 13.49
5 -6 0 338.2 21.32
-5 6 0 343.32 23.81
5 -6 1 15 5.06
-5 6 -1 17.97 5.89
-5 6 -2 116.37 13.71
5 -6 2 134.6 14.18
5 -6 3 163.87 16.19
-5 6 -3 120.25 14.01
5 -6 4 3.36 3.33
-5 6 -4 7 3.63
5 -6 5 10.7 4.32
-5 6 -5 -0.12 1
5 -6 6 4.1 1.46
-5 6 -6 9.51 4.41
5 -6 7 4.32 3.29
-5 6 -7 5.29 2.67
5 -6 8 17.8 6.44
-5 6 -8 8.17 3.44
5 -6 9 10.43 5.01
-5 6 -9 11.15 3.91
5 -6 10 9.21 4.55
-5 6 -10 6.24 3.57
5 -6 11 12.67 6.31
-5 6 -11 23.89 6.57
-5 5 11 32.54 8.75
5 -5 -11 9.14 4.19
-5 5 10 -6.94 3.83
5 -5 -10 -2.53 2.87
5 -5 -9 7.39 3.46
-5 5 9 8.9 4.29
5 -5 -9 5.28 2.83
5 -5 -8 6.84 2.84
-5 5 8 8.31 4.28
-5 5 8 4.95 3.14
5 -5 -8 3.35 2.24
5 -5 -7 7.44 2.84
-5 5 7 4.99 2.71
5 -5 -7 4.42 2.03
-5 5 7 0.95 1.46
5 -5 -7 2.27 1.93
-5 5 6 68.25 10.17
5 -5 -6 62.68 7.06
-5 5 6 48.65 8.9
5 -5 -6 49.87 7.46
5 -5 -6 40.69 6.25
-5 5 5 19.84 5.73
5 -5 -5 25.87 4.17
-5 5 5 28.78 6.83
-5 5 5 26.42 4.94
5 -5 -5 22.66 4.98
-5 5 4 38.27 7.08
5 -5 -4 31.36 4.25
-5 5 4 25.55 6.43
5 -5 -4 32.33 5.88
5 -5 -3 160.1 13.18
5 -5 -3 157.72 8.36
-5 5 3 151.7 9.69
-5 5 3 161.72 15.97
5 -5 -2 4.95 1.28
-5 5 2 1.67 2.3
-5 5 2 5.36 1.58
5 -5 -1 11.66 1.55
5 -5 -1 10.77 3.71
-5 5 1 9.87 4.01
5 -5 0 371.47 21.36
-5 5 0 338.9 22.48
5 -5 1 319.72 20.6
-5 5 -1 291.92 20.61
5 -5 2 1050.69 38.64
-5 5 -2 1066.13 39.09
5 -5 3 5.72 3.38
-5 5 -3 2.94 1.42
5 -5 4 51.54 2.84
5 -5 4 44.02 2.89
-5 5 -4 51.45 8.53
5 -5 5 116.37 14.03
5 -5 5 130.41 6.34
-5 5 -5 116.46 12.9
5 -5 6 147.07 16.47
5 -5 6 145.49 7.99
-5 5 -6 154.64 14.92
5 -5 7 354.18 26.01
5 -5 7 342.75 13.97
-5 5 -7 361.18 22.9
-5 5 -8 10.03 3.75
5 -5 8 6.95 3.38
5 -5 9 216.99 21.69
-5 5 -9 209.34 17.67
5 -5 10 72.53 13.09
-5 5 -10 78.72 10.79
5 -5 11 -1.42 3.51
5 -5 12 64.55 13.3
-5 4 11 7.27 4.44
5 -4 -11 -1.17 2.75
-5 4 10 54.29 10.41
5 -4 -10 59.43 9.2
5 -4 -10 49.03 8.14
-5 4 9 22.87 6.88
5 -4 -9 13.16 4.03
5 -4 -9 14.17 4.15
5 -4 -8 26.21 5.25
-5 4 8 18.42 5.61
5 -4 -8 31.09 5.74
5 -4 -7 59.64 7.18
-5 4 7 58.66 9.65
5 -4 -7 68.98 8.21
5 -4 -7 60.58 7.54
-5 4 7 60.25 9.69
-5 4 6 1.49 1
5 -4 -6 5.61 2.27
-5 4 6 10.3 3.92
5 -4 -6 7.06 2.72
5 -4 -6 6.25 2.23
-5 4 5 591.94 28.48
5 -4 -5 616.18 23.69
5 -4 -5 607.84 20.87
-5 4 5 575.89 22.87
-5 4 5 591.67 29.69
-5 4 4 109.16 11.89
5 -4 -4 122.72 10.52
5 -4 -4 102.42 7.96
-5 4 4 103.88 12.18
-5 4 3 358.7 20.95
-5 4 3 415.67 23.38
5 -4 -3 391.7 19.16
5 -4 -3 380.2 14.08
-5 4 3 348.4 15.04
-5 4 3 393.45 23.69
-5 4 2 415.35 23.41
5 -4 -2 433.75 20.6
5 -4 -2 402.81 13.13
-5 4 2 414.96 14.97
-5 4 2 419.92 24.15
5 -4 -1 12.37 3.85
-5 4 1 16.12 4.51
5 -4 -1 9.55 3.44
5 -4 -1 10.86 1.99
-5 4 1 11.28 3.73
-5 4 0 951.85 35.19
5 -4 0 955.46 33.16
5 -4 0 1004.27 33.82
5 -4 0 940.28 16.23
-5 4 0 958.75 35.6
5 -4 0 999.17 35.59
-5 4 -1 17 4.91
5 -4 1 20.51 2.24
5 -4 1 10.81 3.49
5 -4 1 16.16 4.6
-5 4 -1 15.06 4.5
5 -4 2 153.56 14.16
5 -4 2 184.65 5.99
-5 4 -2 165.54 14.56
5 -4 2 172.45 6.74
5 -4 3 0.79 0.7
-5 4 -3 2.16 1.89
5 -4 3 -0.5 1.74
5 -4 3 0.33 0.52
5 -4 4 155.98 15.35
5 -4 4 153.32 7.02
-5 4 -4 155.25 14.02
5 -4 5 345.55 23.63
5 -4 5 343.15 11.99
-5 4 -5 357.11 21.4
5 -4 6 5.86 2.51
5 -4 6 10.1 2.46
-5 4 -6 13.88 4.31
5 -4 7 43.65 9.07
5 -4 7 43.18 5.31
-5 4 -7 43.79 7.53
5 -4 8 96.81 13.9
5 -4 8 95.5 8.58
-5 4 -8 85.74 10.5
-5 4 -9 13.47 5.49
5 -4 9 9.27 4.76
-5 4 -9 12.27 3.9
5 -4 10 228.74 23.13
-5 4 -10 243.79 17.68
-5 4 -10 251.47 24.27
5 -4 11 61.53 11.99
-5 4 -11 60.1 12.37
5 -4 11 52.77 11.49
5 -4 12 5.19 3.12
-5 4 -12 4.94 3.42
5 -4 12 1.99 2.85
-5 3 12 18.94 6.59
-5 3 11 4.98 4.08
5 -3 -11 4.84 2.86
-5 3 10 5.61 3.5
5 -3 -10 4.94 1.81
-5 3 9 10.75 4.66
5 -3 -9 9.25 3.18
5 -3 -9 14.75 4.31
-5 3 8 187.59 17.33
5 -3 -8 165.62 11.8
5 -3 -8 178.59 13.81
5 -3 -7 41.33 5.8
5 -3 -7 34.64 4.94
-5 3 7 35.63 7.3
5 -3 -7 32.24 5.57
5 -3 -6 13.25 1.88
5 -3 -6 4.55 2.01
-5 3 6 3.82 2.31
-5 3 6 5.53 2.32
-5 3 6 8.46 3.38
5 -3 -6 5.33 2.09
5 -3 -6 8.27 2.39
-5 3 5 63.26 8.47
-5 3 5 58.77 8.62
5 -3 -5 58.25 6.64
5 -3 -5 60.47 6.8
-5 3 5 54.53 7.2
-5 3 5 47.09 7.99
-5 3 4 3.46 1.8
-5 3 4 3.69 2.08
5 -3 -4 3.44 1.56
5 -3 -4 2.46 1.59
-5 3 4 1.03 1.28
-5 3 4 3.06 1.8
-5 3 3 19.76 4.89
-5 3 3 17.64 4.52
5 -3 -3 10.79 2.61
-5 3 3 14.04 4.28
5 -3 -3 11.01 2.92
5 -3 -3 23.85 5.21
-5 3 2 16.41 3.34
-5 3 2 15.66 4.12
5 -3 -2 17.61 4.36
-5 3 2 16.93 4.32
5 -3 -2 14.47 3.61
5 -3 -2 17.65 3.03
-5 3 2 16.38 4.48
5 -3 -2 23.22 5
5 -3 -1 42.45 6.67
5 -3 -1 37.12 6.35
-5 3 1 32.52 5.85
5 -3 -1 46.87 4.59
5 -3 -1 35.49 5.85
-5 3 1 35.01 6.56
5 -3 -1 35.79 6.13
-5 3 0 232.38 16.17
5 -3 0 213.71 15.28
5 -3 0 218.18 15.05
5 -3 0 202.71 9.25
-5 3 0 186.21 14.93
5 -3 0 195.37 13.96
5 -3 0 206.45 15.02
5 -3 1 2.25 1.67
5 -3 1 7.33 2.96
5 -3 1 7.45 3.02
-5 3 -1 3.36 1.97
5 -3 1 9.56 3.18
5 -3 1 6.48 1.67
5 -3 2 167.95 14.27
5 -3 2 151.06 12.6
5 -3 2 176.41 9.11
5 -3 2 177.1 14.81
-5 3 -2 172.38 14.17
5 -3 2 174.17 12.7
5 -3 3 44.37 7.55
5 -3 3 39.88 7.29
-5 3 -3 42.19 7.03
5 -3 3 37.6 5.8
-5 3 -4 10.79 3.98
5 -3 4 7.58 3.49
5 -3 4 8.01 2
5 -3 4 8.31 2.6
5 -3 5 255.05 19.9
5 -3 5 269.16 11.86
-5 3 -5 276.85 17.9
-5 3 -5 298.65 21.19
-5 3 -6 46.1 8.73
5 -3 6 58.36 9.85
5 -3 6 58.1 5.99
-5 3 -6 58.69 8.25
5 -3 7 380.13 26.36
5 -3 7 404.49 17.19
-5 3 -7 363.09 25.58
-5 3 -7 364.08 20.46
5 -3 8 1.32 1.3
-5 3 -8 1.35 0.75
5 -3 9 48.43 9.83
5 -3 9 69.14 12.3
-5 3 -9 59.02 11.05
-5 3 -9 65.43 8.39
5 -3 10 168.45 19
-5 3 -10 166.9 19.8
5 -3 10 120.4 16.95
5 -3 11 18.01 6.39
5 -3 11 11.13 5.41
-5 3 -11 12.84 6.33
5 -3 12 19.48 7.2
5 -3 12 11.34 5.83
-5 3 -12 12.52 5.65
-5 2 12 19.86 6.67
5 -2 -12 21.66 5.98
-5 2 11 3.14 3.97
5 -2 -11 0.51 1.66
-5 2 10 90.47 12.5
5 -2 -10 76.6 9.99
-5 2 9 6.83 2.77
5 -2 -9 12.88 3.32
5 -2 -9 15.11 4.44
5 -2 -8 12.64 3.05
-5 2 8 17.23 5.38
5 -2 -8 16.63 4.32
-5 2 8 13.62 3.59
5 -2 -7 585.32 17.96
-5 2 7 575.68 23.85
-5 2 7 578.53 28.66
5 -2 -7 598.31 19.58
5 -2 -7 594.42 24.48
5 -2 -6 274.45 11.43
-5 2 6 251.19 15.34
-5 2 6 264.77 18.77
5 -2 -6 264.34 12.58
5 -2 -6 250.7 15.09
5 -2 -5 212.93 5.46
-5 2 5 250.17 15.1
-5 2 5 248.42 17.71
5 -2 -5 248.76 12.15
5 -2 -5 254.15 14.45
-5 2 5 236.82 15.04
-5 2 5 253.48 18.05
5 -2 -5 248.28 17.32
-5 2 4 680.49 24.83
-5 2 4 695.13 28.59
5 -2 -4 701.75 20.8
5 -2 -4 677.81 22.19
-5 2 4 684.87 23.91
5 -2 -4 660.44 27.99
-5 2 4 652.49 28.6
-5 2 3 68.5 7.73
-5 2 3 77.25 9.21
5 -2 -3 66.63 8.04
5 -2 -3 63.43 6.58
5 -2 -3 60.46 6.26
-5 2 3 74.43 9.4
5 -2 -3 60.7 8.35
5 -2 -3 82.26 8.11
-5 2 2 981.76 29.59
-5 2 2 934.16 31.42
5 -2 -2 978.17 31.56
5 -2 -2 923.49 26.63
5 -2 -2 996.4 24.58
-5 2 2 916.84 32.55
5 -2 -2 986.07 33.04
5 -2 -2 982.3 29.03
5 -2 -1 -0.25 1.38
-5 2 1 0.95 1.07
5 -2 -1 0.42 1.11
5 -2 -1 -0.56 0.72
-5 2 1 2.21 2.06
5 -2 -1 0.87 1.02
5 -2 -1 0.21 0.69
5 -2 0 57.29 7.4
5 -2 0 59.33 7.8
5 -2 0 42.21 4.89
5 -2 0 61.28 7.69
-5 2 0 61.8 8.26
5 -2 0 42.53 6.53
5 -2 1 75.97 8.91
5 -2 1 70.45 8.72
-5 2 -1 72.86 8.92
5 -2 1 76.18 6.6
5 -2 1 85.84 9.57
5 -2 1 88.59 9.42
5 -2 2 92.82 10.32
5 -2 2 79.08 8.95
5 -2 2 87.21 9.93
5 -2 2 108.4 10.04
-5 2 -2 95.49 10.06
5 -2 3 361.17 21.4
5 -2 3 419.41 22.72
-5 2 -3 395.63 20.5
5 -2 3 388.93 18.58
-5 2 -3 382.64 21.73
5 -2 4 35.64 4.47
5 -2 4 36.18 7.01
-5 2 -4 34.75 6.79
-5 2 -4 32.53 5.9
5 -2 4 31.33 5.03
5 -2 5 96.55 11.98
5 -2 5 104.9 8.02
5 -2 5 76.3 7.81
-5 2 -5 83.69 11.21
-5 2 -5 87.16 9.64
5 -2 6 55.68 9.29
5 -2 6 77.02 7.36
-5 2 -6 62.24 8.05
-5 2 -6 58.62 9.9
5 -2 7 122.32 14.23
-5 2 -7 97.37 9.77
-5 2 -7 123.86 14.95
5 -2 8 406.86 26.9
-5 2 -8 387.84 19.27
-5 2 -8 366.64 27.35
-5 2 -9 4.65 2.02
5 -2 9 7.38 4.13
-5 2 -9 0.63 1.82
5 -2 10 6.7 4.41
-5 2 -10 3.75 3.48
5 -2 11 22.25 6.88
-5 2 -11 10.41 5.22
5 -2 12 32.28 8.41
-5 2 -12 48.26 12.28
-5 1 12 -2.7 2.41
5 -1 -12 2.7 1.78
-5 1 11 4.78 3.34
5 -1 -11 -0.27 1.19
-5 1 10 48.87 9.05
5 -1 -10 63.42 9.31
-5 1 9 143.28 15.02
5 -1 -9 171.29 10.01
5 -1 -9 146.99 13.64
-5 1 8 23.73 5.8
5 -1 -8 14.46 2.73
-5 1 8 15.42 3.65
5 -1 -8 24.89 5.36
5 -1 -7 31.61 3.53
-5 1 7 33.64 6.72
-5 1 7 31.97 4.97
5 -1 -7 25.83 5.25
5 -1 -6 1.35 0.87
-5 1 6 -0.06 1.51
-5 1 6 2.74 1.24
5 -1 -6 0.28 0.64
-5 1 5 42.07 5.34
-5 1 5 38.23 6.81
5 -1 -5 40.7 4.27
5 -1 -5 46.47 6.33
5 -1 -5 43.07 7.29
5 -1 -5 44.65 4.91
-5 1 5 43.48 6.58
-5 1 4 165.36 10.59
-5 1 4 159.47 13.46
5 -1 -4 151.22 11.85
5 -1 -4 160.92 8.79
5 -1 -4 150.25 10.92
-5 1 4 170.97 12.24
5 -1 -4 158.19 13.87
5 -1 -4 168.56 9.83
5 -1 -4 169.07 5.47
-5 1 3 559.99 19.69
-5 1 3 570.91 24.57
5 -1 -3 587.04 23.15
5 -1 -3 539.12 17.61
5 -1 -3 591.72 20.98
5 -1 -3 543.7 18.77
5 -1 -3 627.76 27.14
5 -1 -3 581.58 14.63
5 -1 -2 11.15 2.74
5 -1 -2 9.3 2.16
-5 1 2 12.36 3.56
5 -1 -2 11.06 3.36
-5 1 2 13.41 3.84
5 -1 -2 8.45 2.56
5 -1 -2 11.98 3.78
5 -1 -2 11.51 2.78
5 -1 -1 17.85 3.42
-5 1 1 27.35 5.23
5 -1 -1 18.28 4.28
5 -1 -1 18.12 3.79
5 -1 -1 17.78 4.42
5 -1 -1 19.63 4
5 -1 -1 22.16 3.88
-5 1 1 15.9 4.23
5 -1 0 210.96 12.91
5 -1 0 241.37 14.52
5 -1 0 220.03 14.55
5 -1 0 202.71 13.83
5 -1 0 195.07 11.73
-5 1 0 202.54 14.57
5 -1 0 202.29 14.44
5 -1 1 126.54 10.71
5 -1 1 123.6 11.39
5 -1 1 142.34 11.58
5 -1 1 121.94 10.88
-5 1 -1 123.63 11.24
5 -1 1 107.71 10.41
5 -1 2 49.83 7.09
5 -1 2 66.34 8.54
5 -1 2 59.06 7.49
5 -1 2 52 7.41
-5 1 -2 68.16 8.32
5 -1 2 54.8 7.36
-5 1 -2 55.46 8.03
5 -1 3 317.45 19.16
5 -1 3 288.35 16.23
5 -1 3 308.06 18.87
-5 1 -3 333.93 18
-5 1 -3 292.7 19.04
5 -1 3 336.77 17.46
5 -1 4 101.21 11.37
5 -1 4 80.9 10.11
-5 1 -4 104.68 10.05
-5 1 -4 89.52 11.05
5 -1 5 357.87 22.08
5 -1 5 380.55 16.52
-5 1 -5 366.26 23.62
-5 1 -5 385.76 19
5 -1 6 -0.16 1.2
-5 1 -6 1.42 1.46
5 -1 7 91.64 12.15
-5 1 -7 106.57 14.21
5 -1 8 219.56 19.52
-5 1 -8 183.47 19.65
5 -1 9 -0.15 1.22
-5 1 -9 0.25 2.23
5 -1 10 22.84 6.83
-5 1 -10 27.12 8.61
5 -1 11 -0.06 1.8
-5 1 -11 -2.25 3.22
-5 0 12 -1.96 1.99
5 0 -12 8.5 4.74
-5 0 11 73.54 11.58
5 0 -11 84.12 11.31
-5 0 10 49.36 9.07
5 0 -10 51.99 8.51
-5 0 9 187.31 16.8
5 0 -9 188.42 15.65
-5 0 8 653.9 18.1
-5 0 8 618.17 29.31
5 0 -8 640.45 27.7
-5 0 7 34.18 6.65
-5 0 7 26.48 3.42
5 0 -7 24.88 5.23
-5 0 6 787.51 18.17
-5 0 6 752.35 30.29
5 0 -6 734.27 27.27
-5 0 5 156.4 13.34
5 0 -5 152.31 6.32
5 0 -5 149.76 6.4
5 0 -5 144.66 11.65
-5 0 5 158.95 12.93
5 0 -5 135.59 13.24
-5 0 4 570.25 24.77
5 0 -4 650.04 23.85
5 0 -4 623.93 14.29
5 0 -4 631.66 15.25
5 0 -4 598.34 23.17
-5 0 4 638 24.7
5 0 -4 620.83 27.77
5 0 -3 14.62 2.57
-5 0 3 14.67 3.97
5 0 -3 15.79 3.8
5 0 -3 10.01 2.28
5 0 -3 10.03 3.41
5 0 -3 13.93 3.49
5 0 -2 5.05 1.66
5 0 -2 8.19 2.22
-5 0 2 10.67 3.21
5 0 -2 8.73 2.82
5 0 -2 4.44 1.61
5 0 -2 9.84 3.32
5 0 -2 8.19 2.41
5 0 -1 205.3 12.14
-5 0 1 234.02 14.79
5 0 -1 214.08 13.95
5 0 -1 202.94 11.9
5 0 -1 182.55 12.02
5 0 -1 187.41 14.43
-5 0 1 180.11 11.43
5 0 -1 213.63 11.42
5 0 0 3.92 1.83
5 0 0 6.26 2.35
5 0 0 5.74 2.28
-5 0 0 0.97 0.95
5 0 0 2.89 1.71
5 0 0 5.66 1.95
5 0 1 456.47 20.35
5 0 1 445.7 20.12
5 0 1 450.87 21.32
5 0 1 467.77 19.77
5 0 2 0.29 0.88
-5 0 -2 0.75 0.67
5 0 2 0.51 1.18
5 0 2 -0.85 1
5 0 2 -0.36 1.05
5 0 3 719.7 25.38
5 0 3 745.77 28.73
-5 0 -3 762.13 31.29
5 0 3 755.04 28.81
5 0 4 42.43 7.23
-5 0 -4 42.62 7.85
-5 0 -5 321.96 22.66
5 0 5 331.57 20.93
-5 0 -6 783.31 37.19
5 0 6 720.85 22.21
5 0 6 779.95 33.35
5 0 7 24.2 6.03
-5 0 -7 35.85 8.44
5 0 8 37.33 8.07
-5 0 -8 23.67 7.53
5 0 9 12.31 4.75
-5 0 -9 21.92 7.66
5 0 10 0.61 2.5
-5 0 -10 2.1 1.52
5 0 11 50.86 10.02
-5 0 -11 36.56 10.52
-5 -1 12 65.86 11.45
5 1 -12 54.31 9.73
-5 -1 11 210.95 19.24
5 1 -11 236.61 19.44
-5 -1 10 7.75 4.13
5 1 -10 15.01 5.36
-5 -1 9 18.2 5.28
5 1 -9 31.03 7.26
-5 -1 8 109.21 12.11
5 1 -8 108.39 11.72
-5 -1 7 169.06 14.46
5 1 -7 150.71 13.2
-5 -1 6 186.73 14.8
5 1 -6 181.98 14.14
-5 -1 5 265.3 17.13
5 1 -5 303.5 17.66
5 1 -4 -0.29 0.19
-5 -1 4 -0.22 1.16
5 1 -4 1.32 1.22
5 1 -4 -0.73 0.9
5 1 -4 0.1 0.2
5 1 -4 1.47 0.73
5 1 -3 38.89 3.85
5 1 -3 34.56 3.38
-5 -1 3 32.79 5.64
5 1 -3 36.78 5.42
5 1 -3 34.92 6.41
5 1 -3 42.14 6.29
-5 -1 2 11.05 3.21
5 1 -2 7.38 2.43
5 1 -2 7.08 2.18
5 1 -2 4.86 1.49
5 1 -2 8.37 3.13
-5 -1 2 7.47 2.07
5 1 -2 6.79 2.66
5 1 -1 35.51 5.7
-5 -1 1 28.14 4.73
-5 -1 1 35.78 5.54
5 1 -1 36.56 4.7
5 1 -1 34.17 5.14
5 1 -1 38.51 6.52
5 1 -1 33.69 4.5
5 1 0 318.63 16.1
5 1 0 311.13 14.87
5 1 0 297.12 17.65
5 1 0 301.48 14.58
5 1 1 1.77 1.54
5 1 1 1.45 1.11
5 1 1 0.09 0.56
5 1 1 -1.09 1.15
5 1 2 339.82 16.91
5 1 2 336.63 17.77
-5 -1 -2 346.03 20.23
5 1 2 330.03 17.97
5 1 2 351.11 18.25
5 1 3 143.44 11.05
5 1 3 158.36 12.83
-5 -1 -3 151.45 14.17
5 1 3 157.22 12.92
5 1 4 6.98 2.85
5 1 4 13.13 3.34
-5 -1 -4 8.28 3.89
-5 -1 -5 315.76 22.92
5 1 5 324.5 20.42
5 1 6 8.22 3.6
-5 -1 -6 8.61 4.38
5 1 6 12.28 2.86
5 1 7 16.85 5.1
-5 -1 -7 19.07 6.33
5 1 8 8.35 3.62
-5 -1 -8 13.15 5.75
5 1 9 6.26 3.99
-5 -1 -9 4.21 3.33
-5 -1 -10 250.34 26.67
5 1 10 247.24 21.44
-5 -2 12 128.76 15.55
5 2 -12 129.19 14.98
-5 -2 11 211.1 19.23
5 2 -11 215.05 18.86
-5 -2 10 51.3 9.01
5 2 -10 51.16 8.8
-5 -2 9 335.12 22
5 2 -9 335.52 21.9
-5 -2 8 305.41 20.04
5 2 -8 341.48 21.26
-5 -2 7 71.43 9.3
5 2 -7 73.84 9.62
-5 -2 6 666.79 15.98
-5 -2 6 663.16 27.54
5 2 -6 654.98 27.82
-5 -2 5 67.53 5.88
-5 -2 5 71.63 8.8
5 2 -5 70.57 7.93
5 2 -5 54.64 7.8
-5 -2 4 185.81 10.75
-5 -2 4 171.48 13.12
5 2 -4 187.07 12.21
5 2 -4 169.95 13.58
-5 -2 3 53.07 6.2
5 2 -3 48.26 4.37
5 2 -3 55.45 3.96
-5 -2 3 54.45 7.23
5 2 -3 64.48 6.9
-5 -2 3 48.5 4.91
5 2 -3 42.71 6.69
5 2 -2 2.5 1
-5 -2 2 2.96 1.58
5 2 -2 2.06 0.86
-5 -2 2 0.86 0.91
5 2 -2 3.59 2.37
-5 -2 1 632.12 24.83
-5 -2 1 651.31 23.06
5 2 -1 639.58 18.73
5 2 -1 608.69 20.37
-5 -2 1 652.72 23.12
5 2 -1 654.53 25.97
5 2 -1 583.2 25.47
-5 -2 0 -0.03 0.66
5 2 0 -0.09 0.99
5 2 0 -0.08 0.6
5 2 0 0.4 0.95
-5 -2 -1 883.72 33.01
5 2 1 842.44 24.55
5 2 1 852.66 25.78
-5 -2 -1 881 31.11
5 2 1 782.77 28.33
5 2 2 314.49 15.36
5 2 2 302.4 16.38
-5 -2 -2 306.86 19.65
5 2 2 253.94 15.88
5 2 2 312.83 17.34
5 2 3 335.48 16.05
-5 -2 -3 349.92 22.25
5 2 3 336.71 17.91
5 2 3 383.47 20.22
5 2 4 290.83 15.33
-5 -2 -4 322.19 22.76
5 2 4 324.99 19.4
5 2 5 29.04 6.16
-5 -2 -5 28.41 7
5 2 5 29.74 4.92
5 2 6 4.67 2.45
5 2 6 6.8 2.05
5 2 7 3.81 2.67
-5 -2 -7 -1.53 1.97
5 2 8 29.25 6.79
-5 -2 -8 44.13 10.42
-5 -2 -9 0.65 3.31
-5 -3 12 25.29 6.65
5 3 -12 21.79 6.28
-5 -3 11 98.64 13.09
5 3 -11 106.02 13.38
-5 -3 10 10.89 4.13
5 3 -10 10.2 3.97
-5 -3 9 12.12 4.31
5 3 -9 10.27 4.07
-5 -3 8 80.78 10.23
5 3 -8 90.52 11.21
-5 -3 8 95.21 6.06
-5 -3 7 320.46 19.74
5 3 -7 357.4 21.83
-5 -3 7 337.52 12.73
-5 -3 6 371.14 20.44
5 3 -6 376.34 21.92
-5 -3 6 422.46 15.52
-5 -3 5 30.09 5.61
5 3 -5 31 6.05
-5 -3 5 34.19 4.82
-5 -3 4 1.67 1.24
5 3 -4 3.44 1.77
5 3 -4 1.01 0.54
-5 -3 4 1.67 1.1
5 3 -4 1.72 0.47
5 3 -4 1.83 0.67
-5 -3 3 193.91 13.36
5 3 -3 198.33 11.87
5 3 -3 181.2 7.38
-5 -3 3 185.39 10.77
5 3 -3 190.41 14.98
5 3 -2 691.19 17.89
-5 -3 2 667.36 23.64
5 3 -2 673.58 20.66
5 3 -2 657.24 16.35
-5 -3 2 617.68 21.95
5 3 -2 728.18 29.35
-5 -3 2 672.17 25.76
5 3 -1 94.74 7.25
-5 -3 1 93.66 8.42
5 3 -1 82.73 6.98
5 3 -1 96.97 6.98
-5 -3 1 95.12 10.16
-5 -3 0 176.21 14.66
5 3 0 159.2 10.28
5 3 0 154.1 9.39
-5 -3 0 150.93 12.78
5 3 1 161.57 11.14
5 3 1 164.67 9.68
-5 -3 -1 147.13 13.4
5 3 2 33.29 4.42
5 3 2 25.4 5.23
-5 -3 -2 30.84 6.44
5 3 3 217.77 11.8
-5 -3 -3 176.83 16.51
5 3 3 188.28 13.78
-5 -3 -4 8.43 3.63
5 3 4 5.94 2.02
5 3 4 6.85 2.54
-5 -3 -5 0.17 2.13
5 3 5 2.25 1.3
-5 -3 -6 32.88 8.59
-5 -3 -7 -1.27 2.98
-5 -3 -8 214.66 23.54
-5 -3 -9 30.81 9.87
-5 -4 12 45.75 9.44
5 4 -12 41.32 8.86
-5 -4 11 219.36 19.48
5 4 -11 230.75 20.21
-5 -4 10 124.25 14.15
5 4 -10 139.84 15.23
-5 -4 9 178.04 16.07
5 4 -9 216.75 18.45
-5 -4 8 7.66 3.44
5 4 -8 4.57 2.77
-5 -4 7 17.08 4.61
5 4 -7 16.15 5.29
-5 -4 6 93.93 10.23
5 4 -6 98.92 11.75
-5 -4 5 8.6 2.67
-5 -4 5 11.4 2.15
-5 -4 5 12.13 3.66
5 4 -5 5.19 1.67
-5 -4 4 231.72 14.97
5 4 -4 236.15 8.78
-5 -4 4 225.94 11.71
5 4 -4 202.9 16.28
-5 -4 4 216.49 14.03
-5 -4 3 44.68 6.35
5 4 -3 43.76 4.36
-5 -4 3 45.06 5.94
-5 -4 3 51.27 7.27
5 4 -3 46.08 7.74
-5 -4 2 226.94 13.26
5 4 -2 199.26 11.06
5 4 -2 223.9 10.82
-5 -4 2 230.38 16.07
5 4 -1 653.21 18.38
5 4 -1 656.25 20.09
-5 -4 1 655.47 26.33
5 4 0 119.99 9.52
5 4 0 111.75 7.11
5 4 0 115.36 9.03
-5 -4 0 116.88 11.86
5 4 1 656.8 16.31
-5 -4 -1 653.75 29.79
5 4 2 35.6 3.63
-5 -4 -2 48.8 8.63
5 4 3 18.93 2.7
-5 -4 -3 10.27 4.18
5 4 4 9.29 3.14
-5 -4 -4 15.89 4.96
-5 -4 -5 0.68 1.55
-5 -4 -6 51.56 11.24
-5 -4 -7 63.74 12.99
-5 -4 -8 4.11 4.69
-5 -5 12 14.55 5.7
-5 -5 11 2.59 2.47
5 5 -11 1.5 1.36
-5 -5 10 -0.5 0.98
5 5 -10 4.3 3.11
-5 -5 9 5.81 3.51
5 5 -9 2.97 2.25
-5 -5 8 130.83 13.29
5 5 -8 136 14.69
-5 -5 7 -0.82 1.47
5 5 -7 0.43 2.02
-5 -5 6 1.09 0.98
-5 -5 6 0.98 0.63
5 5 -6 -0.66 1.52
-5 -5 6 1.49 0.9
-5 -5 5 12.42 3.81
5 5 -5 16.71 2.36
-5 -5 5 12.92 2.93
5 5 -5 7.64 3.37
5 5 -4 39.14 4.53
-5 -5 4 40.43 6.15
5 5 -4 43.54 8
-5 -5 3 4.11 2.04
-5 -5 3 10.37 3.45
5 5 -3 6.74 2.37
5 5 -3 0.72 2.6
-5 -5 2 79.82 7.51
5 5 -2 67.86 6.83
-5 -5 2 72.95 8.83
5 5 -2 82.06 10.97
-5 -5 1 0.91 0.82
5 5 -1 0.25 0.95
-5 -5 0 7.26 3.07
-5 -5 -1 56.52 9.2
-5 -5 -2 28.55 7.11
-5 -5 -3 43.35 9.02
-5 -5 -4 4.96 3.42
-5 -5 -5 4.63 1.43
-5 -5 -6 199 22.45
-5 -6 11 151.99 16.48
5 6 -11 115.47 15.03
-5 -6 10 21.05 5.66
5 6 -10 28.48 7.1
5 6 -9 18.68 5.98
-5 -6 9 20.12 5.62
-5 -6 8 84.69 10.75
5 6 -8 94.56 12.96
-5 -6 7 14.7 4.38
5 6 -7 14.2 4.77
-5 -6 6 119.15 11.69
5 6 -6 112.61 13.54
-5 -6 5 70.55 8.8
5 6 -5 34.62 7.52
-5 -6 4 372.69 18.65
-5 -6 4 336.83 18.1
5 6 -4 308.86 22.34
-5 -6 3 368.76 16.61
-5 -6 3 368.88 20.35
5 6 -3 339.17 23.34
-5 -6 2 142.18 13.66
5 6 -2 144.36 15.7
-5 -6 1 383.73 23.06
5 6 -1 380.91 25.25
-5 -6 0 5.05 2.76
-5 -6 -1 17.47 5.62
-5 -6 -2 23.2 6.67
-5 -6 -3 0.38 2.45
-5 -6 -4 69.98 12.72
-5 -6 -5 6.53 3.69
-5 -7 11 21.73 6.15
-5 -7 10 45.19 8.69
5 7 -10 30.39 8.08
-5 -7 9 3.15 2.29
5 7 -9 9.55 4.28
-5 -7 8 3.76 2.6
5 7 -8 -0.3 1.29
5 7 -7 4.93 3.19
-5 -7 7 3.87 2.35
-5 -7 6 -0.15 1.05
5 7 -6 1.28 2.1
5 7 -5 19.46 6.31
-5 -7 4 102.75 10.98
5 7 -4 104.89 13.82
-5 -7 3 27.11 6
5 7 -3 30.43 7.45
-5 -7 2 2.46 2.25
5 7 -2 3.12 2.64
5 7 -1 25.23 6.69
-5 -7 1 25.84 6.5
-5 -7 0 36.87 8.04
-5 -7 -1 36.42 8.64
-5 -7 -2 3.67 3.22
-5 -7 -3 4.71 3.74
5 8 -8 77.81 12.52
5 8 -7 6.91 3.89
5 8 -6 349.85 26.18
5 8 -5 86.84 13.04
5 8 -4 65.78 11.31
-5 -8 3 174.15 16.37
5 8 -3 183.69 19.16
-5 -8 2 -1.29 2.59
5 8 -2 -5.51 3.45
5 8 -1 36.2 8.79
-5 -8 1 41.19 8.73
-5 -8 0 4.1 3.26
-5 -8 -1 14.09 5.06
-5 -8 -2 80.76 14.25
-5 -9 2 -1.53 3.14
-5 -9 1 -1.19 2.59
-6 9 1 46.75 11.47
6 -9 0 18.24 6.1
-6 9 0 16.51 6.42
-6 9 -1 -0.19 2.02
6 -9 1 10.78 5.13
6 -9 2 14.18 4.93
-6 9 -2 19.26 7.76
6 -9 3 42.9 9.56
-6 9 -3 28.28 8.3
6 -9 4 5.19 4.31
-6 9 -4 0.37 1.53
-6 9 -5 25.7 8.51
-6 8 6 24.52 7.73
-6 8 5 15.98 6.18
-6 8 4 27.92 8.46
6 -8 -4 19.33 5.38
6 -8 -3 -7.36 3.53
-6 8 3 3.55 2.08
6 -8 -2 12.38 4.94
-6 8 2 5.02 3.6
6 -8 -1 151.01 16.18
-6 8 1 175.28 20.51
6 -8 0 5.89 2.38
-6 8 0 8.65 6.06
6 -8 1 49.81 9.6
-6 8 -1 39.61 9.91
6 -8 2 200.24 19.62
-6 8 -2 221.18 22.66
6 -8 3 54.61 11.05
-6 8 -3 39.77 9.81
6 -8 4 216.79 21.3
-6 8 -4 163.55 19.31
6 -8 5 27.88 8.24
-6 8 -5 4.43 2.86
6 -8 6 16.52 6.34
-6 8 -6 12.49 5.53
6 -8 7 33.84 8.97
-6 8 -7 44.2 10.06
6 -8 8 10.08 6.06
-6 8 -8 2.07 1.33
-6 8 -9 60.92 11.79
-6 8 -10 -1.54 1.39
6 -7 -7 -0.63 2
-6 7 7 -5.42 4.18
6 -7 -7 -0.9 1.16
-6 7 6 44.06 9.9
6 -7 -6 28.98 6.87
6 -7 -6 37.86 7.32
6 -7 -5 92.12 11.88
-6 7 5 57.34 11.26
-6 7 4 3.3 2.67
6 -7 -4 4.3 2.58
6 -7 -3 215.06 17.85
-6 7 3 214.44 21.77
6 -7 -2 9.28 4.25
-6 7 2 1.32 2.47
-6 7 1 8.15 4.39
6 -7 -1 10.71 4.18
6 -7 0 55.78 9.54
-6 7 0 47.13 10.17
6 -7 1 86.96 12.09
-6 7 -1 86.17 13.49
6 -7 2 0.61 1.89
-6 7 -2 1.28 2.3
6 -7 3 26.66 7.18
-6 7 -3 30.49 7.98
6 -7 4 1.06 1.46
-6 7 -4 -0.24 1.3
6 -7 5 208.84 20.82
-6 7 -5 182.72 19.35
6 -7 6 0.16 2.42
-6 7 -6 4.98 3.12
6 -7 7 70.39 12.65
-6 7 -7 67.02 11.88
6 -7 8 7.71 5.07
-6 7 -8 7.56 3.77
6 -7 9 25.16 8.32
-6 7 -9 30.06 8.15
-6 7 -10 2.11 1.5
-6 6 9 1.12 4.07
6 -6 -8 1.78 2.52
-6 6 8 0.04 1.98
-6 6 8 -2.06 2.87
6 -6 -7 28.19 6
-6 6 7 37.33 8.53
-6 6 7 19.74 6.52
6 -6 -7 30.35 6.4
-6 6 6 39.82 8.65
-6 6 6 24.69 6.91
6 -6 -6 51.89 8.27
6 -6 -6 33.9 6.21
6 -6 -5 35.92 4.95
-6 6 5 37.94 8.82
6 -6 -5 28.38 6.14
6 -6 -4 17.05 3.03
6 -6 -4 16.88 4.9
-6 6 4 17.17 5.78
6 -6 -3 23.66 3.15
6 -6 -3 35.87 7.03
-6 6 3 37.06 8.62
6 -6 -2 3.95 1.01
6 -6 -2 9.45 3.95
-6 6 2 6.33 3.14
6 -6 -1 202.67 17.01
-6 6 1 210.27 20.06
6 -6 0 20.25 5.63
-6 6 0 15.06 6
6 -6 1 513.18 28.62
-6 6 -1 523.32 31.34
6 -6 2 56.86 9.99
-6 6 -2 38.2 8.48
6 -6 3 0.56 1.42
-6 6 -3 -0.48 1.97
6 -6 4 133.57 16.01
-6 6 -4 143.27 16.31
6 -6 5 2.68 2.31
-6 6 -5 -3.11 2.5
6 -6 6 -1.07 2.76
-6 6 -6 0.42 2.23
6 -6 7 50.62 11
-6 6 -7 48.5 9.31
6 -6 8 -0.22 3.27
-6 6 -8 0.19 1.44
6 -6 9 99.17 15.92
-6 6 -9 111.69 14.64
6 -6 10 57.69 12.68
-6 6 -10 65.52 11.33
-6 5 10 97.74 15.17
6 -5 -10 92.98 11.19
-6 5 9 0.53 1.41
6 -5 -9 -0.02 1.99
6 -5 -8 46.86 7.42
-6 5 8 51.81 10.11
6 -5 -8 38.97 6.77
-6 5 8 46.86 9.72
6 -5 -7 119.73 11.22
-6 5 7 99.66 13.73
6 -5 -7 134.6 12.74
6 -5 -7 125.92 10.96
-6 5 7 131.21 16.03
-6 5 6 2.25 2.04
6 -5 -6 4.37 1.77
-6 5 6 4.51 2.34
6 -5 -6 2.27 1.82
-6 5 5 51.03 9.28
6 -5 -5 71.97 7.22
-6 5 5 56.47 10.38
6 -5 -5 50.98 7.7
6 -5 -4 78.37 9.56
6 -5 -4 82.72 7.15
-6 5 4 79.1 12.08
6 -5 -3 22.96 3.44
6 -5 -3 16.43 4.53
-6 5 3 24.61 6.88
6 -5 -2 52.19 4.55
6 -5 -2 46.8 7.64
6 -5 -1 10.3 3.98
6 -5 -1 6.47 1.39
-6 5 1 14.07 4.76
6 -5 0 32.37 2.57
6 -5 0 30.56 6.57
-6 5 0 26.26 6.67
-6 5 -1 3.35 2.03
6 -5 1 9.3 1
6 -5 1 8.03 1
6 -5 1 8.85 3.47
6 -5 2 1.35 2.47
-6 5 -2 2.97 2.32
6 -5 3 532.2 30.2
6 -5 3 486.44 9.32
-6 5 -3 499.33 28.82
6 -5 4 1.35 2.3
6 -5 4 1.72 0.73
-6 5 -4 2.41 1.42
6 -5 4 2.71 0.99
6 -5 5 110.39 14.49
6 -5 5 107.33 6.22
-6 5 -5 83.99 11.65
6 -5 6 -2.43 3.63
-6 5 -6 1.78 1.84
6 -5 7 3.11 2.65
-6 5 -7 0.96 1.18
6 -5 8 0.19 2.63
-6 5 -8 3.41 2.6
6 -5 9 147.69 18.97
-6 5 -9 170.31 17
6 -5 10 18.32 7.26
-6 5 -10 0.61 1.77
6 -4 -11 -1.46 1.72
-6 4 10 -3.76 2.94
6 -4 -10 -2.31 2.1
-6 4 9 97.75 14.11
6 -4 -9 107.88 11.53
6 -4 -8 53.6 7.12
-6 4 8 58.82 10.71
6 -4 -8 48.02 7.25
6 -4 -7 76.69 8.04
-6 4 7 62.73 10.61
6 -4 -7 63.32 7.95
6 -4 -7 71.63 8.49
-6 4 7 69.19 11.21
-6 4 6 7.64 3.61
-6 4 6 0.78 1.96
6 -4 -6 5.84 2.33
6 -4 -6 5.97 2.54
-6 4 5 43.7 8.53
6 -4 -5 37.77 5.49
-6 4 5 42.61 8.6
6 -4 -5 37.24 6.06
-6 4 5 28.8 5.43
-6 4 4 17.24 5.23
6 -4 -4 7.19 2.38
6 -4 -4 14.28 3.9
-6 4 4 6.7 3.44
-6 4 4 8.87 2.91
-6 4 3 449.78 25.59
6 -4 -3 392.96 20.24
6 -4 -3 404.02 15.72
-6 4 3 366.91 24.64
6 -4 -2 59.55 8.17
6 -4 -2 66.86 5.96
-6 4 2 67.24 10.45
6 -4 -1 238.96 17.03
6 -4 -1 222.88 10.19
-6 4 1 224.97 18.89
6 -4 0 78.39 5.68
6 -4 0 62.44 8.93
-6 4 0 75.26 10.88
6 -4 1 0.15 0.97
-6 4 -1 4.94 2.39
6 -4 1 2.91 1.11
6 -4 2 49.94 8.7
6 -4 2 44.64 4.37
-6 4 -2 53.43 9.03
6 -4 3 63.53 4.73
6 -4 3 51.82 9.13
6 -4 3 57.53 5.43
-6 4 -3 54.35 9.1
6 -4 4 2.14 1.68
6 -4 4 3.64 1.42
-6 4 -4 -0.05 0.73
6 -4 5 0.64 1.73
6 -4 5 1.71 0.85
-6 4 -5 1.21 1.49
6 -4 6 78.03 6.82
6 -4 6 77.13 12.18
-6 4 -6 63.93 10.24
6 -4 7 173.59 18.85
6 -4 7 171.86 11.06
-6 4 -7 188.28 16.92
6 -4 8 81.41 13.46
-6 4 -8 80.62 10.95
6 -4 9 122.86 17.24
-6 4 -9 101.94 12.38
6 -4 10 104.54 15.93
6 -4 10 93.71 15.54
-6 3 11 11.17 5.56
6 -3 -11 1.68 1.71
-6 3 10 124.6 16.27
6 -3 -10 134.78 13.72
-6 3 9 15.94 5.18
6 -3 -9 17.55 5.15
6 -3 -8 58.86 6.75
-6 3 8 67.13 11.23
6 -3 -8 56.84 8.18
6 -3 -7 55.26 6.16
-6 3 7 58.2 10.12
6 -3 -7 59.62 7.04
6 -3 -7 57.05 7.72
-6 3 6 -0.57 1.81
-6 3 6 -0.37 1.93
6 -3 -6 -0.07 1.76
-6 3 6 -0.39 1.31
6 -3 -6 1.47 1.19
-6 3 5 45.22 8.29
6 -3 -5 49.02 6.21
-6 3 5 43.68 7.37
6 -3 -5 35.36 5.57
-6 3 5 34.05 7.51
-6 3 5 36.73 6.39
-6 3 4 31.17 6.79
-6 3 4 25.35 5.64
6 -3 -4 22.59 4.46
6 -3 -4 19.63 3.9
-6 3 4 24.85 6.46
-6 3 4 28.41 5.06
-6 3 3 146.9 13.44
-6 3 3 124.41 13.16
6 -3 -3 127.14 10.77
6 -3 -3 143.35 10.06
-6 3 3 140.35 14.6
6 -3 -3 143 12.63
-6 3 2 90.88 10.63
6 -3 -2 88.68 9.43
6 -3 -2 80.02 7.2
-6 3 2 79.39 10.9
6 -3 -2 99.52 10.76
-6 3 1 9.08 3.4
6 -3 -1 7.64 2.61
-6 3 1 1.77 1.3
6 -3 -1 5.9 1.89
6 -3 -1 6.23 2.8
6 -3 0 91.83 10.53
6 -3 0 84.66 7.03
6 -3 0 78.32 9.94
-6 3 0 72.46 10.39
6 -3 1 1107.14 38.14
6 -3 1 1135.34 26.11
6 -3 1 1188.87 40.25
-6 3 -1 1050.71 38.76
6 -3 2 229.18 18.05
6 -3 2 240.03 12.24
-6 3 -2 213.46 17.31
6 -3 3 553.31 28.97
-6 3 -3 504.24 26.56
6 -3 4 54.89 5.5
6 -3 4 44.96 8.57
-6 3 -4 39.44 7.32
6 -3 5 9.56 4
6 -3 5 16.78 3.26
-6 3 -5 11.74 4.18
-6 3 -5 11.32 4.73
-6 3 -6 5.93 3.54
6 -3 6 7.71 2.43
-6 3 -6 7.49 3.42
6 -3 7 376.66 26.89
6 -3 7 449.04 30.31
-6 3 -7 413.08 23.82
-6 3 -7 379.17 28.1
6 -3 8 70.52 12.16
6 -3 8 71.73 12.76
-6 3 -8 78.75 13.33
-6 3 -8 57.22 8.69
6 -3 9 96.53 14.68
-6 3 -9 106.33 15.91
6 -3 9 88.5 14.49
-6 3 -9 103.31 11.45
-6 3 -10 -0.19 3.38
6 -3 10 -1.69 2.47
6 -3 10 -1.6 2.85
-6 3 -11 3.4 2.72
-6 2 11 31.49 8.28
6 -2 -11 43.74 8.22
-6 2 10 1.94 2.44
6 -2 -10 3.22 1.32
-6 2 9 73.3 11.74
6 -2 -9 62.36 9.19
6 -2 -8 12.63 2.78
-6 2 8 6.63 3.72
6 -2 -8 9.15 3.59
6 -2 -7 7.81 2.1
-6 2 7 2.22 2.5
-6 2 7 10.31 3.44
6 -2 -7 3.75 2.09
6 -2 -7 6.87 2.1
-6 2 6 2.51 2.49
-6 2 6 0.41 0.96
6 -2 -6 0.14 1.35
6 -2 -6 -0.15 0.84
-6 2 5 505.62 22.41
-6 2 5 512.05 27.39
6 -2 -5 482.6 17.8
6 -2 -5 457.34 20.67
6 -2 -5 482.57 20.31
-6 2 4 6.83 2.81
6 -2 -4 5.48 1.54
6 -2 -4 3.31 1.37
-6 2 4 5.87 3.03
-6 2 4 6.29 2.39
6 -2 -4 1.63 0.67
-6 2 4 5.09 2.64
6 -2 -4 3.13 1.34
6 -2 -3 358.42 14.44
-6 2 3 330.14 18.33
-6 2 3 339.99 21.14
6 -2 -3 336.11 16.49
6 -2 -3 341.22 16.6
-6 2 3 354.37 22.59
6 -2 -3 314.99 17.3
6 -2 -2 19.14 3.69
-6 2 2 33.25 6.49
6 -2 -2 27.24 5.14
6 -2 -2 24.44 4.96
-6 2 2 19.02 5.16
6 -2 -2 24.82 4.4
6 -2 -1 2.59 2.21
6 -2 -1 4.08 2.12
-6 2 1 2.01 1.95
6 -2 -1 1.63 0.94
6 -2 0 338.74 19.93
6 -2 0 313.39 15.21
6 -2 0 337.19 20.04
-6 2 0 333.32 21.19
6 -2 1 306.45 20.06
6 -2 1 275.15 18.69
6 -2 1 294.16 14.79
-6 2 -1 288.08 19.62
6 -2 2 188.28 15.26
6 -2 2 183.86 15.69
6 -2 2 200.37 16.76
-6 2 -2 153.76 14.15
6 -2 3 57.07 8.83
-6 2 -3 41.65 7.82
6 -2 3 55.92 9.04
-6 2 -3 50.55 7.98
6 -2 3 42.48 6.82
-6 2 -4 47.69 8.87
6 -2 4 32.42 6.74
6 -2 4 22.8 5.82
-6 2 -4 29 6
6 -2 4 36.66 6.27
6 -2 5 920.37 38.58
6 -2 5 838.99 38.18
6 -2 5 878.49 25.37
-6 2 -5 850.97 32.84
6 -2 5 851.51 29.14
-6 2 -5 921.09 40.01
6 -2 6 1.14 1.5
-6 2 -6 -0.77 1.84
6 -2 6 0.22 2.25
-6 2 -6 0.4 1.32
6 -2 6 0.02 0.83
6 -2 7 208.78 19.71
6 -2 7 236.73 21.94
-6 2 -7 214.5 16.03
-6 2 -7 211.67 20.94
-6 2 -8 97.32 14.8
6 -2 8 72.13 12.06
-6 2 -8 80.43 9.52
6 -2 9 -0.02 2.13
-6 2 -9 0.65 1.28
6 -2 10 94.73 14.62
-6 2 -10 73.76 14.28
-6 1 11 0.11 2.31
6 -1 -11 1.59 1.97
-6 1 10 57.85 10.47
6 -1 -10 45.29 8.17
-6 1 9 47.61 9.34
6 -1 -9 54.09 8.53
6 -1 -8 31.72 3.45
-6 1 8 35 7.78
6 -1 -8 19.4 4.88
-6 1 7 127.67 9.83
-6 1 7 140.89 14.97
6 -1 -7 143.95 6.99
6 -1 -7 119.8 11.89
6 -1 -7 135.67 8.38
-6 1 6 0.72 2.15
6 -1 -6 1.46 0.82
-6 1 6 0.45 1.17
6 -1 -6 -2.46 1.7
6 -1 -6 0.8 0.91
6 -1 -5 18.41 3.53
-6 1 5 19.72 5.2
-6 1 5 18.07 3.73
6 -1 -5 20.24 3.11
6 -1 -5 17.12 4.24
6 -1 -4 1 0.68
-6 1 4 1.51 1.71
6 -1 -4 -0.25 0.77
6 -1 -4 -0.34 0.75
6 -1 -4 -0.22 0.6
-6 1 3 74.15 9.74
6 -1 -3 78.65 7.36
6 -1 -3 70.42 8.07
6 -1 -3 84.08 8.03
6 -1 -3 81.48 6.24
-6 1 2 531.02 25.53
6 -1 -2 476.77 20.03
6 -1 -2 490 20.58
6 -1 -2 453.18 19.95
6 -1 -2 485.09 17.88
6 -1 -1 134.8 10.44
6 -1 -1 128.27 11.21
6 -1 -1 137.81 11.56
6 -1 -1 135.48 10.78
6 -1 0 31.13 5.43
6 -1 0 24.35 5.22
6 -1 0 35.96 6.52
6 -1 0 32.22 6.1
6 -1 0 30.13 5.02
6 -1 1 157.97 12.93
6 -1 1 176.44 14.49
6 -1 1 167.8 14
6 -1 1 158.2 13.4
-6 1 -1 160.37 14.26
6 -1 1 144.93 13.33
-6 1 -1 168.42 14.56
6 -1 2 14.55 4.27
6 -1 2 12.73 3.83
-6 1 -2 15.02 4.72
6 -1 2 18.43 4.93
-6 1 -2 17.92 4.75
6 -1 2 14.49 4.27
6 -1 3 186.69 15.46
6 -1 3 213.33 17.37
6 -1 3 174.18 14.05
-6 1 -3 206.22 17.4
6 -1 4 116.37 12.92
-6 1 -4 119 13.74
6 -1 4 114.72 11.04
6 -1 5 40.69 7.89
-6 1 -5 39.57 8.19
6 -1 5 46.74 6.76
6 -1 6 13.25 4.52
-6 1 -6 15.32 5.57
6 -1 6 7.63 2.73
6 -1 7 59.03 10.3
-6 1 -7 60.88 11.36
-6 1 -8 100.24 15.45
6 -1 8 101.63 14.05
6 -1 9 25.74 7.06
-6 1 -9 14.58 6.54
6 -1 10 28.08 7.94
-6 1 -10 28.59 9.03
-6 0 11 82.97 12.93
6 0 -11 89.21 12.24
-6 0 10 8.04 3.75
6 0 -10 11.35 4.39
-6 0 9 33.53 8.06
6 0 -9 36.07 7.32
-6 0 8 9.18 4.35
6 0 -8 14.94 4.68
-6 0 7 318.89 22.12
6 0 -7 255.46 17.75
-6 0 6 26.06 6.18
6 0 -6 22.15 2.42
6 0 -6 27.93 5.61
-6 0 5 31.11 6.59
6 0 -5 32.47 3.2
6 0 -5 33.68 3.3
6 0 -5 35.16 6.16
6 0 -4 50.61 4.78
-6 0 4 50.7 8.06
6 0 -4 56.15 5.15
6 0 -4 46.41 7.04
-6 0 3 6.52 3.21
6 0 -3 7.67 2.29
6 0 -3 10.31 3.23
6 0 -3 9.94 2.49
6 0 -2 204 12.48
-6 0 2 212.05 15.74
6 0 -2 204.09 12.1
6 0 -2 211.18 14.55
6 0 -2 203.12 11.06
6 0 -1 352.05 17.75
6 0 -1 346.27 19.4
6 0 -1 362.96 17.61
6 0 -1 324.38 17.9
6 0 -1 345.33 16.01
6 0 0 0.54 1.3
6 0 0 6.87 2.6
-6 0 0 3.02 1.87
6 0 0 1.76 0.6
6 0 0 1.58 1.31
6 0 0 4.17 1.9
6 0 0 2.78 1.76
6 0 1 1.25 0.95
6 0 1 1.69 1.78
6 0 1 -0.66 1.43
-6 0 -1 0.65 1.27
6 0 1 -1.33 0.9
6 0 1 2.35 0.89
6 0 2 159.47 13.07
6 0 2 151.14 13.27
-6 0 -2 156.64 14.57
6 0 2 143.21 13.1
6 0 2 161.63 13.53
6 0 3 385.83 20.43
-6 0 -3 411.03 24.92
6 0 3 411.98 21.67
6 0 3 416.04 22.72
6 0 4 24.65 5.98
-6 0 -4 12.51 4.6
6 0 4 19.31 4.62
-6 0 -5 183.44 18.38
6 0 5 161.87 12.86
6 0 5 181.19 16.35
6 0 6 -1.24 2.09
6 0 6 -6.23 2.41
-6 0 -6 1.41 2.98
-6 0 -7 96.3 14.67
6 0 7 92.75 12.69
6 0 8 29.58 7.25
-6 0 -8 54.63 11.57
-6 0 -9 0.41 1.66
6 0 9 2.08 1.45
-6 0 -10 139.93 20.49
6 0 10 118.43 15.72
-6 -1 11 2.56 2.91
6 1 -11 -0.37 1.22
-6 -1 10 0.51 2.38
6 1 -10 -1.01 2.22
-6 -1 9 88.18 12.45
6 1 -9 83.47 11.3
-6 -1 8 86.68 11.84
6 1 -8 90.48 11.21
-6 -1 7 70.7 10.35
6 1 -7 60.93 9.01
-6 -1 6 50.33 8.37
6 1 -6 55.01 8.41
-6 -1 5 194.29 16.02
6 1 -5 194.7 15.42
-6 -1 4 802.87 31.75
6 1 -4 826.18 16.38
6 1 -4 798.74 14.91
6 1 -4 801.24 30.45
6 1 -3 34.03 4.36
6 1 -3 27.85 3.57
-6 -1 3 32.07 6.2
6 1 -3 28.27 5.63
6 1 -2 145.1 10.25
-6 -1 2 126.81 12.02
6 1 -2 136.92 11.44
6 1 -2 120.52 8.48
6 1 -2 130.07 11.99
-6 -1 2 130.34 9.91
6 1 -1 43.95 6.88
6 1 -1 53.89 6.92
-6 -1 1 56.55 7.75
6 1 -1 47.43 6.74
6 1 -1 49.09 6.06
6 1 -1 53.69 6.28
6 1 0 26.99 4.77
-6 -1 0 18.79 4.68
6 1 0 25.78 5.02
6 1 0 20.09 4.28
6 1 1 75.07 8.71
6 1 1 67.92 8.22
-6 -1 -1 63.97 8.93
6 1 1 62.71 8.95
6 1 1 63.34 7.86
6 1 2 127.2 11.54
-6 -1 -2 128.47 13.42
6 1 2 121.72 12.14
6 1 2 125.66 11.69
6 1 3 1.17 1.18
6 1 3 -0.17 0.73
-6 -1 -3 0.7 1.52
6 1 3 0.03 0.59
6 1 4 8.12 3.55
6 1 4 6.87 2.91
-6 -1 -4 4.01 2.55
6 1 4 8.11 3
6 1 5 5.29 2.88
-6 -1 -5 2.64 1.98
6 1 5 4.71 2.07
-6 -1 -6 149.03 17.99
6 1 6 105.12 12.94
6 1 7 1.47 1.59
-6 -1 -7 5.57 4.37
6 1 8 44.02 8.97
-6 -1 -8 44.97 11.03
6 1 9 64.64 11.08
-6 -1 -9 60.11 13.05
-6 -2 11 1.65 1.29
6 2 -11 4.39 3.09
-6 -2 10 12.53 4.41
6 2 -10 16.09 5.39
-6 -2 9 58.85 10
6 2 -9 43.29 8.2
-6 -2 8 75.84 10.92
6 2 -8 90.47 11.61
-6 -2 7 105.09 12.38
6 2 -7 97.62 11.66
-6 -2 6 -0.52 1.32
6 2 -6 2.26 1.78
-6 -2 5 25.66 5.73
6 2 -5 33.75 6.64
-6 -2 4 36.18 5.31
6 2 -4 39.81 3.13
-6 -2 4 35.91 6.73
6 2 -4 39.52 2.52
6 2 -4 34.38 6.7
6 2 -3 229.01 10.99
6 2 -3 211.93 8.94
-6 -2 3 223.16 16.06
6 2 -3 216.2 13.87
6 2 -3 219.13 16.44
-6 -2 3 215.76 11.81
-6 -2 2 13.68 3.97
-6 -2 2 12.29 3.21
6 2 -2 11.74 2.55
-6 -2 2 8.77 3.02
6 2 -2 15.78 3.87
6 2 -2 10.44 2.82
6 2 -2 14.94 4.21
6 2 -1 19.43 4.79
-6 -2 1 22.55 5.19
6 2 -1 21.43 3.77
6 2 -1 19.51 4.03
-6 -2 0 208.72 16.67
6 2 0 226.85 13.92
6 2 0 202.2 12.63
-6 -2 0 223.78 16.21
6 2 1 194.68 13.16
6 2 1 190.28 13.14
-6 -2 -1 189.07 15.8
6 2 2 16.32 3.93
-6 -2 -2 14.86 4.83
6 2 2 13.69 4.19
6 2 3 300.14 16.87
-6 -2 -3 306.2 22.71
6 2 3 259.97 17.56
6 2 3 310.69 19.39
6 2 4 48.32 7.97
6 2 4 45.65 6.54
-6 -2 -4 53.76 9.95
6 2 4 44.83 7.2
6 2 5 85.65 9.38
-6 -2 -5 86.72 13.44
6 2 5 81.86 9.43
6 2 5 78.66 10.71
6 2 6 46.43 8.44
-6 -2 -6 43.74 10.03
6 2 7 5.72 3.16
-6 -2 -7 5.61 3.32
-6 -2 -8 115.79 18
6 2 8 128.2 15.25
-6 -3 11 63.72 11.01
6 3 -11 60.62 10.67
-6 -3 10 121.35 14.87
6 3 -10 139.11 15.62
-6 -3 9 18.75 5.59
6 3 -9 15.86 5
-6 -3 8 10.45 4.01
6 3 -8 9.84 4.15
-6 -3 7 81.38 10.79
6 3 -7 66.12 10.02
-6 -3 6 427.07 17.66
-6 -3 6 422.82 24.06
6 3 -6 456.51 26.02
-6 -3 5 27.15 5.82
6 3 -5 27.06 6.06
-6 -3 4 73.17 8.47
6 3 -4 74.32 4.54
-6 -3 4 69.69 9.28
6 3 -4 71.98 3.78
6 3 -4 70.33 10.03
-6 -3 4 74.79 6.2
-6 -3 3 16.51 4.45
-6 -3 3 15.86 4.21
6 3 -3 19.07 4.04
-6 -3 3 17.01 3.68
6 3 -3 18.18 2.51
6 3 -3 16.42 4.76
-6 -3 2 134.68 12.83
6 3 -2 131.15 8.42
-6 -3 2 127.23 11.46
6 3 -2 128.86 10
6 3 -2 131.13 7.95
6 3 -2 133.52 13.51
6 3 -1 5.44 2.91
6 3 -1 2.74 1.43
-6 -3 1 4.36 2.37
6 3 -1 4.12 1.87
6 3 0 142.26 10.5
6 3 0 138.95 10.05
-6 -3 0 132.25 12.97
6 3 1 116.01 9.13
-6 -3 -1 111.51 12.73
-6 -3 -2 12.13 4.41
6 3 2 9.15 2.77
-6 -3 -3 17.67 5.64
6 3 3 21.7 4.3
-6 -3 -4 63.99 11.39
-6 -3 -5 2.14 2.76
-6 -3 -6 190.05 21.36
-6 -3 -7 2.83 2.82
-6 -4 11 31.56 7.94
6 4 -11 22.62 6.97
-6 -4 10 14.08 5.01
6 4 -10 12.63 4.65
-6 -4 9 11.78 4.49
6 4 -9 12.33 4.74
-6 -4 8 34.87 7.34
6 4 -8 41.42 8.32
-6 -4 7 26.13 6.05
6 4 -7 16.32 5.52
-6 -4 6 25.19 6.05
6 4 -6 25 6.36
-6 -4 5 379.8 21.96
6 4 -5 379.35 24.17
-6 -4 5 396.4 12.89
-6 -4 5 375.45 19.63
-6 -4 4 25.1 5.48
6 4 -4 22.69 2.76
-6 -4 4 20.07 4.81
-6 -4 4 18.94 3.71
6 4 -4 20.98 5.47
-6 -4 3 1.13 1.49
6 4 -3 3.11 1.77
6 4 -3 1.13 1.02
6 4 -3 1.7 1.69
-6 -4 2 129.3 11.16
6 4 -2 130.11 9.68
6 4 -2 127.05 8.61
-6 -4 2 127.57 11.75
6 4 -2 139 14.73
6 4 -1 97.81 7.98
6 4 -1 101.6 8.35
-6 -4 1 102.05 11.21
6 4 -1 103.44 12.47
6 4 0 95.37 7.49
6 4 0 92.16 8.52
-6 -4 0 68.67 9.92
-6 -4 -1 153.3 15.65
-6 -4 -2 10.02 4.2
-6 -4 -3 23.33 6.95
-6 -4 -4 -1.14 2.74
-6 -4 -5 30.25 8.8
-6 -4 -6 9.19 5.47
-6 -5 11 19.24 6.17
-6 -5 10 -1.48 2.22
6 5 -10 -4.91 3.11
-6 -5 9 128.04 14.69
6 5 -9 166.56 17.63
-6 -5 8 67.04 10.24
6 5 -8 92.67 12.91
-6 -5 7 92.68 11.9
6 5 -7 110.81 14.16
-6 -5 6 298.38 20.3
6 5 -6 288.23 22.21
-6 -5 5 27.52 5.88
6 5 -5 31.41 7.24
-6 -5 4 168.47 13.83
6 5 -4 180.69 17.38
-6 -5 3 10.57 4.13
6 5 -3 6.41 4.1
-6 -5 2 237.83 17.49
6 5 -2 231.82 19.87
-6 -5 1 200.91 16.92
6 5 -1 226.66 19.57
-6 -5 0 12.88 4.53
-6 -5 -1 31.12 7.55
-6 -5 -2 29.85 7.81
-6 -5 -3 8.5 4.67
-6 -5 -4 178.72 20.61
-6 -5 -5 17 6.59
-6 -6 11 37.25 8.67
-6 -6 10 14.75 5.16
-6 -6 9 1.96 1.09
6 6 -9 6.44 3.72
-6 -6 8 93.09 12.05
6 6 -8 108.67 14.56
-6 -6 7 27.2 6.25
6 6 -7 40.77 8.84
-6 -6 6 -0.05 1.69
6 6 -6 -7.66 3.82
-6 -6 5 13.85 4.32
6 6 -5 -0.65 1.8
-6 -6 4 162.68 13.07
6 6 -4 157.1 17.21
-6 -6 3 23.64 5.49
6 6 -3 33.95 7.56
-6 -6 2 -0.44 2.29
6 6 -2 -3 2.54
6 6 -1 6.33 3.6
-6 -6 1 15.88 5.25
-6 -6 0 12.34 4.75
-6 -6 -1 49.85 10.33
-6 -6 -2 62.68 12.02
-6 -6 -3 40.34 9.83
-6 -6 -4 6.39 3.97
-6 -7 10 3.88 2.71
6 7 -7 2.86 2.48
6 7 -6 46.36 9.68
6 7 -5 24.91 7.15
6 7 -4 3.88 3.66
6 7 -3 15.18 5.18
-6 -7 2 6.41 3.88
6 7 -2 8.16 4.46
6 7 -1 86.13 13.66
-6 -7 1 89.88 12.97
6 7 0 -0.12 2.26
-6 -7 0 -6.46 3.73
-6 -7 -1 50.02 10.54
-6 -7 -2 134.59 18.18
-6 -8 1 1.63 3.06
-6 -8 0 30.43 8.42
7 -8 -3 118.08 14.48
7 -8 -2 28.01 7.44
-7 8 2 15.74 6.55
7 -8 -1 120.27 14.89
-7 8 1 129.6 18.58
7 -8 0 68.87 11.46
-7 8 0 61.17 12.66
7 -8 1 22.02 7.06
-7 8 -1 16.72 6.6
7 -8 2 19.64 6.22
-7 8 -2 20.15 7.42
7 -8 3 11.92 5.2
-7 8 -3 18.31 6.84
7 -8 4 6.81 4.63
-7 8 -4 7.36 4.72
7 -8 5 177.1 20.8
-7 8 -5 194.89 22.48
-7 8 -6 88.02 14.89
-7 8 -7 21.97 7.46
7 -7 -6 95.78 11.71
7 -7 -6 98.18 12.6
-7 7 6 97.15 15.73
-7 7 5 9.42 4.26
7 -7 -5 12.51 4.72
-7 7 4 0.82 1.74
7 -7 -4 -0.74 1.82
7 -7 -3 11.35 4.42
-7 7 3 9.19 4.66
7 -7 -2 26.48 6.49
-7 7 2 19.6 6.82
7 -7 -1 32.39 7.5
-7 7 1 36.31 9.14
7 -7 0 58.02 10.38
-7 7 0 49.16 10.84
7 -7 1 58.11 10.5
-7 7 -1 42.91 9.64
7 -7 2 3.91 4.06
-7 7 -2 1.59 1.96
7 -7 3 -0.89 2.22
-7 7 -3 1.39 3.96
7 -7 4 199.35 21.04
-7 7 -4 208.3 22.18
7 -7 5 20.11 7.28
-7 7 -5 15.15 6.12
7 -7 6 4.2 3.54
-7 7 -6 6.27 3.4
7 -7 7 20.18 6.99
-7 7 -7 29.36 8.6
-7 7 -8 21.87 7.18
-7 7 -9 76.02 13.54
-7 7 -10 1.04 2.22
7 -6 -8 44.37 7.85
-7 6 8 51.63 11.21
7 -6 -7 32.66 6.79
-7 6 7 24.91 7.39
-7 6 7 28.33 8.61
7 -6 -7 33.77 7.37
-7 6 6 3.97 3.84
7 -6 -6 1.31 1.35
7 -6 -5 221.06 17.6
-7 6 5 210.07 22.15
7 -6 -4 23.79 5.71
-7 6 4 30.29 8.28
7 -6 -3 179.56 16.19
-7 6 3 193.83 20.86
7 -6 -2 49.8 8.66
-7 6 2 64.63 12.2
7 -6 -1 56.7 9.38
-7 6 1 49.12 10.4
7 -6 0 69.02 10.69
-7 6 0 59.16 11.3
7 -6 1 39.29 8.91
-7 6 -1 27.94 7.98
7 -6 2 106.06 14.22
-7 6 -2 83.64 13.47
7 -6 3 66.29 11.53
-7 6 -3 50.62 10.55
7 -6 4 18.66 6.51
-7 6 -4 15.48 6.22
7 -6 5 110.35 15.84
-7 6 -5 111.07 15.35
7 -6 6 25.12 7.73
-7 6 -6 17.06 6.47
7 -6 7 31.66 9.18
-7 6 -7 43.4 9.79
7 -6 8 3.08 3.32
-7 6 -8 4.31 2.37
-7 6 -9 51.79 10.24
-7 5 8 132.75 17.38
7 -5 -8 152.35 14.08
-7 5 7 30.17 7.89
7 -5 -7 38.83 6.21
-7 5 7 49.1 10.43
7 -5 -7 42.89 7.42
7 -5 -7 39.83 6.55
-7 5 6 16.84 5.89
7 -5 -6 18.37 4.16
-7 5 6 29.66 8.17
7 -5 -6 16.73 4.53
-7 5 5 -2 2.33
7 -5 -5 -2.33 1.41
-7 5 5 1.63 3.52
7 -5 -5 -0.76 1.43
7 -5 -4 74.66 9.59
7 -5 -4 89.11 7.81
-7 5 4 83.72 13.19
7 -5 -3 78.32 10.23
7 -5 -3 83.61 7.04
-7 5 3 75.52 12.48
7 -5 -2 235.31 17.92
7 -5 -2 241.55 10.95
-7 5 2 246.41 22.35
7 -5 -1 44.73 4.32
7 -5 -1 42.82 7.86
-7 5 1 34.03 8.21
7 -5 0 0.23 1.46
7 -5 0 0.12 0.37
-7 5 0 1.75 2.53
7 -5 1 -0.2 2.32
7 -5 1 1.59 0.83
-7 5 -1 -1.8 2.13
7 -5 2 376.86 26.06
7 -5 2 366.79 10.54
-7 5 -2 354.28 26.26
7 -5 3 19.22 6.22
-7 5 -3 30.15 7.7
7 -5 3 17.34 2.42
7 -5 4 20.43 6.41
-7 5 -4 9.47 4.31
7 -5 4 13.05 2.56
7 -5 5 108.2 15.33
-7 5 -5 119.05 15.04
7 -5 6 7.42 4.04
-7 5 -6 7.88 4.11
7 -5 7 148.35 19.12
-7 5 -7 113.33 14.88
7 -5 8 46.45 10.73
-7 5 -8 43.88 9.05
7 -5 9 16.43 6.64
-7 5 -9 11.5 4.9
7 -4 -10 36.08 7.21
-7 4 9 7.07 4.67
7 -4 -9 6.48 3.21
7 -4 -8 37.27 6.34
-7 4 8 36.85 8.98
7 -4 -8 40.09 7.02
7 -4 -7 248.08 14.65
-7 4 7 224.6 21.5
7 -4 -7 235.83 15.72
7 -4 -7 220.09 15.43
-7 4 6 34.56 8.28
7 -4 -6 32.67 5.66
-7 4 6 33.99 8.5
7 -4 -6 34 5.9
-7 4 5 263.41 22
7 -4 -5 274.41 16.95
7 -4 -5 272.76 15.66
-7 4 5 255.69 22.56
-7 4 4 11.76 4.56
7 -4 -4 16.62 3.63
7 -4 -4 17.07 4.49
-7 4 4 13.1 5.11
7 -4 -3 24.51 5.26
7 -4 -3 29.44 4.56
-7 4 3 24.23 6.95
7 -4 -2 7.67 3.31
7 -4 -2 18.11 3.62
-7 4 2 19.54 5.7
7 -4 -1 60.03 6.02
7 -4 -1 66.47 9.59
-7 4 1 53.39 9.88
7 -4 0 534.61 28.32
7 -4 0 535.32 17.44
-7 4 0 510.24 30.45
7 -4 1 96.81 12.36
7 -4 1 84.02 6.92
-7 4 -1 95.03 13.19
7 -4 2 114.47 13.91
7 -4 2 108.32 8.05
-7 4 -2 109.4 14.02
7 -4 3 157.58 17.17
7 -4 3 163.67 10.36
-7 4 -3 171.87 17.51
7 -4 4 24.2 7.08
7 -4 4 28.14 3.88
-7 4 -4 18.87 5.97
7 -4 5 92.53 14.04
-7 4 -5 65.77 10.85
7 -4 6 2.28 1.78
-7 4 -6 1.7 1.46
7 -4 7 4.68 4.13
-7 4 -7 7.5 4.06
7 -4 8 214.6 22.57
7 -4 8 173.49 20.76
-7 4 -8 159.41 16.62
7 -4 9 5.81 4.61
7 -4 9 9.58 6.19
-7 4 -9 11.09 4.51
7 -3 -10 114.38 13.05
-7 3 9 112.79 15.98
7 -3 -9 99.79 11.79
-7 3 8 1.56 3.47
7 -3 -8 5.19 2.72
-7 3 7 0.95 2.62
7 -3 -7 3.54 2.31
7 -3 -7 4.09 2.23
7 -3 -7 2.21 1.42
-7 3 6 48.64 9.52
7 -3 -6 30.92 5.77
7 -3 -6 34.48 5.41
-7 3 5 11.04 4.3
7 -3 -5 7.31 2.71
7 -3 -5 8.24 2.85
7 -3 -5 4.78 2.46
7 -3 -4 96.69 7.63
-7 3 4 94.32 12.66
7 -3 -4 87.14 9.04
7 -3 -4 91.86 9.13
7 -3 -4 111.47 11.71
-7 3 4 81.7 12.2
-7 3 3 104.53 13.03
7 -3 -3 117.21 11.08
7 -3 -3 108.77 9.6
-7 3 3 111.25 14.15
7 -3 -3 114.5 12.22
7 -3 -2 -0.32 1.25
7 -3 -2 -0.52 1.35
-7 3 2 -1.48 1.72
7 -3 -2 1.34 1.51
7 -3 -1 47.47 5.95
7 -3 -1 50.56 8.14
-7 3 1 60.65 10.33
7 -3 0 117.47 12.88
7 -3 0 97.78 8.6
-7 3 0 109.7 13.55
7 -3 1 11.74 4.52
-7 3 -1 11.9 4.66
7 -3 1 8.95 2.69
7 -3 2 2.23 2.59
-7 3 -2 -0.13 2.44
7 -3 2 0.38 0.88
7 -3 3 206.82 18.93
-7 3 -3 213.13 18.75
7 -3 4 19.72 6.03
7 -3 4 26.54 4.22
-7 3 -4 18.26 5.29
7 -3 5 43.38 8.93
7 -3 5 49.99 6.08
7 -3 5 39.24 8.64
-7 3 -5 40.31 8.14
7 -3 6 128.35 15.91
7 -3 6 126.01 16.41
-7 3 -6 123.04 14.12
-7 3 -6 110.12 15.42
7 -3 7 17.15 6.39
7 -3 7 21.13 7.05
-7 3 -7 10.92 4.71
-7 3 -7 15.78 5.05
7 -3 8 11.26 4.62
-7 3 -8 12.15 5.33
7 -3 8 2.86 2.77
-7 3 -8 10.41 4.06
7 -3 9 2.8 3.21
7 -3 9 1.95 3.61
-7 3 -9 1.7 3.4
7 -2 -11 6.45 3.81
-7 2 10 90.68 14.6
7 -2 -10 87.85 11.63
-7 2 9 238.93 22.68
7 -2 -9 189.94 16.59
-7 2 8 5.32 3.2
7 -2 -8 7.74 3.41
-7 2 7 220.58 20.74
7 -2 -7 214.73 12.05
7 -2 -7 210.79 16.13
-7 2 6 54.8 9.84
7 -2 -6 60.43 6.4
7 -2 -6 53.27 7.77
-7 2 5 38.59 8.22
7 -2 -5 43.79 5.74
7 -2 -5 52.51 7.15
-7 2 5 36.99 6.48
7 -2 -5 31.18 5.84
-7 2 4 94.88 12.51
7 -2 -4 122.43 9.93
7 -2 -4 111.09 10.52
7 -2 -4 105.34 10.43
7 -2 -4 106.94 6.98
7 -2 -3 50.93 5.84
-7 2 3 49.26 8.81
7 -2 -3 45.78 6.59
7 -2 -3 42.43 6.33
7 -2 -3 47.78 7.31
7 -2 -2 356.4 17.41
7 -2 -2 394.77 20.63
7 -2 -2 356.73 18.32
7 -2 -2 373.48 20.84
-7 2 2 366.61 24.71
7 -2 -1 1.62 0.62
7 -2 -1 6.31 2.98
7 -2 -1 0.77 1.61
-7 2 1 4.29 2.98
7 -2 -1 5.12 2.07
7 -2 0 108.78 11.23
7 -2 0 104.05 11.94
7 -2 0 84.54 10.77
7 -2 0 84.6 8.82
-7 2 0 75.71 11.11
7 -2 1 226.38 17.17
7 -2 1 233.94 18.58
7 -2 1 226.54 14.49
-7 2 -1 204.66 18.06
7 -2 2 204.9 17.48
7 -2 2 234.57 19.06
7 -2 2 205.48 14.03
-7 2 -2 259.56 20.12
7 -2 3 1.87 2.08
-7 2 -3 0.68 1.69
7 -2 3 0.32 1.62
-7 2 -3 0.38 1.03
7 -2 4 3.21 2.05
7 -2 4 5.36 2.62
-7 2 -4 6.91 3.57
-7 2 -4 10.3 4.09
7 -2 5 160.17 16.97
7 -2 5 140.32 16.54
-7 2 -5 151.85 15.2
-7 2 -5 136.91 16.48
7 -2 6 105.14 14.2
7 -2 6 112.05 15.48
-7 2 -6 96.37 12.01
-7 2 -6 119.78 16.15
7 -2 7 55.65 10.74
-7 2 -7 56.25 11.44
7 -2 7 56.11 11.18
7 -2 8 29.83 8.23
-7 2 -8 32.92 9.1
7 -2 8 36.15 9.33
7 -2 9 -1.51 2.84
-7 2 -9 2.51 3.55
7 -2 9 0.62 3.89
7 -1 -11 49.13 9.3
-7 1 10 8.37 4.43
7 -1 -10 2.76 2.25
-7 1 9 102.27 14.55
7 -1 -9 93.12 11.76
-7 1 8 2 3.1
7 -1 -8 4 2.53
-7 1 7 83.93 12.37
7 -1 -7 75.75 5.9
7 -1 -7 68.07 9.43
-7 1 6 241.79 20.68
7 -1 -6 246.58 11
7 -1 -6 243.7 17.39
-7 1 5 6.46 3.75
7 -1 -5 1.59 0.62
7 -1 -5 4.09 1.69
7 -1 -5 4.06 2.27
-7 1 4 3.49 2.02
7 -1 -4 -0.09 0.92
7 -1 -4 1.43 1.43
7 -1 -4 -1.73 1.45
7 -1 -3 3.69 1.6
-7 1 3 2.17 2.01
7 -1 -3 2.82 1.74
7 -1 -3 0.36 1.16
7 -1 -3 3.54 2.19
-7 1 2 169.33 15.9
7 -1 -2 182.45 13.45
7 -1 -2 177.35 13.46
7 -1 -2 175.24 13.61
7 -1 -2 209.19 12.7
7 -1 -1 161.38 13.89
7 -1 -1 185.66 14.66
7 -1 -1 175.98 13.59
7 -1 -1 206.58 13.76
7 -1 0 9.17 3.18
7 -1 0 15.37 4.34
7 -1 0 25.62 5.76
7 -1 0 21.05 4.69
7 -1 1 330.05 21.45
7 -1 1 277.06 17.15
-7 1 -1 294.56 20.26
7 -1 1 291.22 18.67
7 -1 2 45.15 8.21
-7 1 -2 52.86 9.17
7 -1 2 55.05 9.22
7 -1 3 186.94 16.61
7 -1 3 182.84 17.45
-7 1 -3 179.7 17.47
7 -1 4 537.52 31.1
-7 1 -4 503.84 30.66
7 -1 4 550.61 29.64
7 -1 5 61.89 10.2
7 -1 5 55.98 10.17
-7 1 -5 51.6 10.14
7 -1 6 0.18 1.42
-7 1 -6 0.82 1.38
7 -1 7 44.8 9.45
-7 1 -7 42.59 9.98
-7 1 -8 131.38 18.66
7 -1 8 133.02 16.79
7 -1 9 -0.32 1.52
-7 1 -9 -3.24 3.22
7 0 -11 49.72 9.65
-7 0 10 27.31 7.6
7 0 -10 26.62 6.81
-7 0 9 42.71 9.62
7 0 -9 56.8 9.53
-7 0 8 82.85 12.81
7 0 -8 73.07 10.52
-7 0 7 117.4 14.73
7 0 -7 124.35 13.37
-7 0 6 61.39 10.21
7 0 -6 69.53 4.33
7 0 -6 68.63 9.49
7 0 -5 74.99 5.39
-7 0 5 65.93 10.39
7 0 -5 64.63 4.99
7 0 -5 56.29 8.55
-7 0 4 257.17 19.86
7 0 -4 249.53 11.75
7 0 -4 252.67 11.98
7 0 -4 233.13 17.11
7 0 -3 62.28 6.82
-7 0 3 49.69 8.61
7 0 -3 59.32 6.59
7 0 -3 54.54 8.06
-7 0 2 464.52 25.62
7 0 -2 458.32 20.61
7 0 -2 489.07 20.64
7 0 -2 460.67 23.26
7 0 -2 501.43 19.12
7 0 -1 63.14 7.85
7 0 -1 53.55 7.49
7 0 -1 59.35 7.19
7 0 -1 46.02 7.3
7 0 0 41.03 6.94
7 0 0 47.59 6.84
-7 0 0 47.25 7.68
7 0 0 44.97 7.3
7 0 0 52.48 7.63
7 0 1 216.44 17.31
-7 0 -1 212.05 17.18
7 0 1 223.78 15.88
7 0 2 102.75 12.3
-7 0 -2 112.34 13.28
7 0 2 98.67 11.14
-7 0 -3 615.65 32.59
7 0 3 611.01 29.3
-7 0 -4 120.49 15.21
7 0 4 131.52 14.12
7 0 5 1.38 2.2
-7 0 -5 1.36 1.78
-7 0 -6 191.69 20.87
7 0 6 173.53 17.65
7 0 7 9.05 4.23
-7 0 -7 9.81 4.57
7 0 8 42.03 9.28
-7 0 -8 39.27 10.48
-7 -1 10 2.07 2.48
7 1 -10 5.61 3.48
-7 -1 9 75.33 12.24
7 1 -9 95.3 12.66
-7 -1 8 137.57 16.04
7 1 -8 139.13 14.97
-7 -1 7 -0.38 2.15
7 1 -7 1.58 1.28
-7 -1 6 2.88 1.57
7 1 -6 5.47 3.52
7 1 -5 25.09 1.69
-7 -1 5 26.26 6.39
7 1 -5 29.51 2.24
7 1 -5 22.65 5.71
-7 -1 4 26.96 6.31
7 1 -4 21.08 2.73
7 1 -4 19.4 2.92
7 1 -4 15.3 4.71
-7 -1 3 12.92 4.78
7 1 -3 15.36 2.98
7 1 -3 13.83 3.11
7 1 -3 15.71 4.67
7 1 -2 55.25 6.95
-7 -1 2 50.07 8.29
7 1 -2 46.88 5.76
7 1 -2 44.34 7.41
-7 -1 1 3.33 2.37
7 1 -1 2.49 1.88
7 1 -1 1.59 1.32
7 1 -1 -0.2 1.36
7 1 0 31.48 6.21
7 1 0 27.32 5.18
7 1 0 42.03 7.16
7 1 0 32.94 5.76
-7 -1 0 33.51 6.57
7 1 1 12.92 3.84
-7 -1 -1 19.08 5.3
-7 -1 -2 258.18 20.51
7 1 2 246.5 17.52
-7 -1 -3 51.48 9.67
7 1 3 58.56 8.92
-7 -1 -4 101.05 14.16
7 1 4 124.04 13.79
7 1 5 32.41 7.53
-7 -1 -5 34.01 8.83
7 1 6 14.92 5.07
-7 -1 -6 7.59 4.48
7 1 7 14.03 5.45
-7 -1 -7 0.98 2.29
-7 -1 -8 290.85 29.18
7 1 8 298.05 24.53
-7 -2 10 34.63 8.26
7 2 -10 22.74 6.34
-7 -2 9 68.08 11.62
7 2 -9 57.72 10.04
-7 -2 8 18.7 5.66
7 2 -8 26.39 6.56
-7 -2 7 66.47 10.79
7 2 -7 68.38 10.44
-7 -2 6 39.94 8.03
7 2 -6 39.13 7.78
-7 -2 5 7.54 3.58
7 2 -5 7.87 3.16
7 2 -4 341.95 10.14
-7 -2 4 311.76 21.42
7 2 -4 333.04 10.97
7 2 -4 329.38 8.79
7 2 -4 306.88 21.22
7 2 -3 50.11 5.77
7 2 -3 48.46 4.81
-7 -2 3 55.29 8.78
-7 -2 3 52.37 6.42
7 2 -3 50.61 8.52
7 2 -2 21.65 3.73
-7 -2 2 19.03 5.08
7 2 -2 23.06 4.6
7 2 -2 20.46 5.23
7 2 -1 108.89 9.24
7 2 -1 110.05 12.61
-7 -2 1 128.61 12.51
7 2 0 0.3 1.21
-7 -2 0 0.34 1.46
-7 -2 -1 357.92 23.7
-7 -2 -2 36.61 7.82
-7 -2 -3 104.55 14.23
-7 -2 -4 15.97 5.75
-7 -2 -5 -1.45 1.64
-7 -2 -6 137.07 18.85
-7 -2 -7 9.59 6.75
-7 -3 10 4.35 3.62
7 3 -10 11.67 5.4
-7 -3 9 20.95 6.48
7 3 -9 18.57 5.91
-7 -3 8 26.94 7.43
7 3 -8 22.69 6.09
-7 -3 7 125.39 14.77
7 3 -7 142.63 15.8
-7 -3 6 244.54 19.99
7 3 -6 235.58 19.94
-7 -3 5 13.39 4.74
7 3 -5 8.72 4.18
-7 -3 4 30.58 6.05
-7 -3 4 35.99 7.29
-7 -3 4 38.25 4.79
7 3 -4 32.8 7.32
-7 -3 3 14.98 4.68
7 3 -3 11.8 2.87
7 3 -3 10.65 4.23
7 3 -2 30.81 4.49
-7 -3 2 17.92 4.66
-7 -3 2 23.75 5.27
7 3 -2 27.82 6.53
7 3 -2 19.72 3.3
7 3 -1 161.28 10.92
-7 -3 1 173.17 15.01
7 3 -1 151.84 15.4
-7 -3 0 35.17 7.45
-7 -3 -1 5.56 3.36
-7 -3 -2 65 11.03
-7 -3 -3 44.32 9.68
-7 -3 -4 -2.71 2.99
-7 -3 -5 32.56 9.39
-7 -3 -6 114.38 17.74
-7 -4 10 40.64 9.11
-7 -4 9 34.67 8.26
7 4 -9 48.35 9.81
-7 -4 8 1.41 2.18
7 4 -8 8.93 4.33
-7 -4 7 17.67 5.71
7 4 -7 46.11 9.17
-7 -4 6 22.74 6.19
7 4 -6 31.91 7.72
-7 -4 5 128.87 13.91
7 4 -5 131.25 15.14
-7 -4 4 -1.77 2.27
7 4 -4 2.2 1.82
-7 -4 3 38.66 7.04
-7 -4 3 36.17 6.25
7 4 -3 24.73 6.63
-7 -4 2 35.14 6.81
7 4 -2 32.23 7.59
-7 -4 1 189.08 16.55
7 4 -1 171.25 17.49
-7 -4 0 3.97 2.65
-7 -4 -1 76.72 11.89
-7 -4 -2 35.99 8.47
-7 -4 -3 11.15 5.21
-7 -4 -4 193.46 21.85
-7 -4 -5 -8.14 4.69
-7 -5 10 22.72 6.76
-7 -5 9 22.67 7.14
-7 -5 8 62.04 10.65
7 5 -8 67.68 11.76
-7 -5 7 -0.2 1.27
7 5 -7 -0.93 1.82
-7 -5 6 7.46 3.58
7 5 -6 14.73 5.72
-7 -5 5 0.08 1.92
7 5 -5 1.03 1.69
-7 -5 4 11.47 6.69
7 5 -4 0.52 1.87
-7 -5 3 210.46 15.77
7 5 -3 213.59 20.22
-7 -5 2 10.72 4.21
7 5 -2 -1.34 1.75
7 5 -1 49.82 9.6
-7 -5 1 68.01 10.59
7 5 0 18.19 5.88
-7 -5 0 20.94 6.23
-7 -5 -1 54.29 10.53
-7 -5 -2 7.87 3.75
-7 -5 -3 67.11 12.75
-7 -5 -4 7.85 5.38
-7 -6 10 0.85 2.87
-7 -6 9 -1.33 1.42
-7 -6 8 21.18 6.36
-7 -6 7 38.64 8.03
7 6 -6 -0.54 1.11
7 6 -5 58.49 11.03
7 6 -4 5.64 3.4
7 6 -3 181.77 19.53
7 6 -2 -0.48 3.17
7 6 -1 30.14 8.07
-7 -6 1 12.02 4.68
7 6 0 47.34 10.14
-7 -6 0 40.54 9.11
-7 -6 -1 4.68 3.55
-7 -6 -2 74.17 13.54
-7 -6 -3 15.37 6.75
-7 -7 0 17.31 7.09
-7 -7 -1 47.11 11.4
8 -7 -5 124.43 14.45
8 -7 -4 27.33 6.8
8 -7 -3 15.81 4.84
8 -7 -2 13.49 4.68
-8 7 2 22.21 8.53
8 -7 -1 2.27 1.3
-8 7 1 -0.52 2.47
8 -7 0 190.24 19.28
-8 7 0 169.65 21.34
8 -7 1 1.09 2.38
-8 7 -1 2.93 2.69
8 -7 2 90.16 14.08
-8 7 -2 84.58 15.11
8 -7 3 5.64 5.71
-8 7 -3 -0.05 1.78
8 -7 4 7.36 3.25
-8 7 -4 1.82 2.72
-8 7 -5 42.23 10.35
-8 7 -6 -2.48 2.84
-8 7 -7 10.25 5.77
8 -6 -6 6.88 3.2
-8 6 5 -5.61 3.89
8 -6 -5 3.41 1.34
8 -6 -4 10.53 4.03
-8 6 4 18.12 6.96
8 -6 -3 3.95 2.58
-8 6 3 21.84 7.51
8 -6 -2 87.6 11.98
-8 6 2 94.36 15.34
8 -6 -1 54.09 9.81
-8 6 1 62.45 12.34
8 -6 0 -1.14 2.82
-8 6 0 0.33 2.28
8 -6 1 6.97 3.96
-8 6 -1 -3.26 2.97
8 -6 2 51.57 10.67
-8 6 -2 51.1 11.7
8 -6 3 96.33 14.5
-8 6 -3 84.86 14.55
8 -6 4 1.9 1.95
-8 6 -4 8.15 3.76
8 -6 5 63.41 12.77
-8 6 -5 51.48 11.07
8 -6 6 71.24 13.51
-8 6 -6 27.69 8.56
-8 6 -7 8.81 4.53
-8 6 -8 3.6 3.91
-8 6 -9 19.67 6.7
-8 5 6 21.94 7.27
8 -5 -6 13.26 4.03
-8 5 5 51.38 11.1
8 -5 -5 44.95 7.59
8 -5 -4 1.27 1.1
-8 5 4 0.76 1.29
8 -5 -3 53.98 8.86
-8 5 3 53.71 11.17
8 -5 -2 96.39 12.25
-8 5 2 94.83 14.7
8 -5 -1 -0.67 2.79
-8 5 1 1.7 3.46
8 -5 0 180.23 17.95
-8 5 0 175.01 19.89
8 -5 1 0.6 2.04
-8 5 -1 2.52 3.39
8 -5 2 67.42 11.56
-8 5 -2 42.08 9.57
8 -5 3 34.92 8.79
-8 5 -3 33.35 8.76
8 -5 4 2.38 2.85
-8 5 -4 0.36 1.91
8 -5 5 6.23 4.19
-8 5 -5 8.03 3.87
8 -5 6 21.66 7.66
-8 5 -6 15.71 5.85
8 -5 7 79.45 14.75
-8 5 -7 74.87 12.63
-8 5 -8 76.9 12.87
8 -4 -8 1.19 2.5
-8 4 7 48.41 10.69
8 -4 -7 37.56 6.68
-8 4 6 26.82 8.13
8 -4 -6 15.96 4.3
8 -4 -6 30.86 5.75
-8 4 5 2.17 2.46
8 -4 -5 0.55 1.21
-8 4 5 0.04 2.04
8 -4 -5 -1.91 2.66
8 -4 -4 108.33 11.33
8 -4 -4 105.14 9.77
-8 4 4 112.98 15.92
8 -4 -3 19.16 4.97
8 -4 -3 25.71 4.65
-8 4 3 15.9 5.74
8 -4 -2 -0.69 1.4
8 -4 -2 1.06 1.25
-8 4 2 -0.06 1.45
8 -4 -1 7.1 3.66
8 -4 -1 8.36 2.43
-8 4 1 7.12 3.89
8 -4 0 2.71 1.38
8 -4 0 0.75 1.01
8 -4 1 103.35 13.58
8 -4 1 91.32 8.19
-8 4 -1 93.7 13.94
8 -4 2 -0.47 2.02
-8 4 -2 1.03 2.99
8 -4 2 -1.27 1.07
-8 4 -3 -0.28 1.75
8 -4 3 0.6 0.91
8 -4 4 2.79 3.71
-8 4 -4 -0.48 1.98
8 -4 4 -2.63 1.56
8 -4 5 14.97 5.7
8 -4 5 11.19 4.75
-8 4 -5 17.05 5.83
8 -4 6 36.72 9.19
8 -4 6 22.64 7.29
-8 4 -6 27.91 7.77
8 -4 7 125.48 17.48
8 -4 7 138.3 18.95
-8 4 -7 131.19 16.43
-8 4 -8 19.64 6.99
8 -3 -10 10.07 4.36
8 -3 -9 -0.56 2.03
-8 3 8 40 9.51
8 -3 -8 30.91 6.73
-8 3 7 160.57 18.9
8 -3 -7 162.37 14.44
-8 3 6 33.15 8.83
8 -3 -6 29.7 6.03
8 -3 -6 41.17 6.21
-8 3 5 100.26 14.34
8 -3 -5 110.83 10.37
8 -3 -5 83.22 9.68
-8 3 4 73.97 12.06
8 -3 -4 94.74 9.94
8 -3 -4 87.55 9.59
8 -3 -3 -0.15 1.27
8 -3 -3 -1.03 1.83
-8 3 3 3.42 3.41
8 -3 -3 0.16 0.74
8 -3 -2 245.84 16.07
8 -3 -2 251.22 18.23
8 -3 -2 263.93 15.85
-8 3 2 280.54 23.7
8 -3 -1 21.94 5.07
8 -3 -1 17.46 5.12
-8 3 1 13.57 5.16
8 -3 -1 10.6 3.15
8 -3 0 111.96 12.33
8 -3 0 110.02 13.31
8 -3 0 113.3 10.26
-8 3 0 115.53 15.08
8 -3 1 41.31 7.77
8 -3 1 54.28 9.46
-8 3 -1 33.09 8.23
8 -3 1 35.93 5.85
8 -3 2 25.84 6.59
8 -3 2 43.64 9.08
-8 3 -2 49.2 9.72
8 -3 2 47.73 6.89
8 -3 3 87.74 12.45
8 -3 3 97.72 13.86
8 -3 3 101.24 10.1
-8 3 -3 93.12 13.46
8 -3 4 17.07 6.01
8 -3 4 21.57 6.72
-8 3 -4 16.21 6.02
8 -3 5 103.1 14.47
8 -3 5 105.21 15.41
-8 3 -5 125.62 15.61
8 -3 6 122.71 16.41
8 -3 6 107.93 15.94
-8 3 -6 133.58 15.88
8 -3 7 4.09 2.99
8 -3 7 0.35 1.5
-8 3 -7 4.65 3.65
8 -3 8 56.58 11.76
8 -3 8 69.09 13.89
-8 3 -8 62.54 13.65
8 -2 -10 8.52 4.08
8 -2 -9 74.85 10.87
-8 2 8 18.83 6.94
8 -2 -8 21.11 5.98
-8 2 7 6.61 4.17
8 -2 -7 11.73 4.17
-8 2 6 43.45 9.35
8 -2 -6 32.47 6.71
-8 2 5 5.07 3.16
8 -2 -5 2.7 2.19
8 -2 -5 1.42 0.84
-8 2 4 116.05 14.86
8 -2 -4 119.11 10.46
8 -2 -4 107.44 11.2
8 -2 -3 44.63 7.24
8 -2 -3 53.01 7.5
8 -2 -3 45.8 7.29
8 -2 -3 39.03 5.53
8 -2 -2 212.93 16.22
8 -2 -2 256.85 18.35
8 -2 -2 229 16.09
8 -2 -2 212.1 14.13
8 -2 -1 71.86 8.88
8 -2 -1 78.4 10.52
8 -2 -1 60.8 8.16
8 -2 0 34.11 6.64
8 -2 0 32.82 7.18
8 -2 0 32.55 5.85
8 -2 1 220.21 17.97
8 -2 1 245.37 20.23
8 -2 1 209.13 15.17
8 -2 2 69.74 10.37
8 -2 2 84.28 12.99
8 -2 2 59 8.27
8 -2 3 14.06 4.74
8 -2 3 24.33 7.18
8 -2 4 0.43 2.59
8 -2 4 0.4 1.37
-8 2 -4 0.82 1.74
8 -2 5 88.78 13.21
-8 2 -5 81.07 13.46
8 -2 5 85.58 13.82
8 -2 6 2.41 1.77
8 -2 6 1.26 2.19
-8 2 -6 6.5 4.83
8 -2 7 12.75 5.2
-8 2 -7 28.37 8.87
8 -2 7 19.46 7.45
8 -2 8 -0.74 2.76
-8 2 -8 6.93 4.76
8 -1 -10 48.54 9.58
8 -1 -9 122.51 14.2
-8 1 8 11.04 4.89
8 -1 -8 21.35 5.91
-8 1 7 32.52 8.56
8 -1 -7 39.03 7.61
-8 1 6 16.55 5.91
8 -1 -6 20.05 5.34
-8 1 5 56.74 10.4
8 -1 -5 52.67 5.83
8 -1 -5 64.73 9.3
8 -1 -4 45.2 6
-8 1 4 28.76 7.34
8 -1 -4 34.32 6.58
8 -1 -3 -0.48 0.54
-8 1 3 -1.11 2.09
8 -1 -3 0.56 1.26
8 -1 -3 0.07 0.68
8 -1 -2 80.8 9.71
8 -1 -2 74.46 9.43
8 -1 -2 87.57 10.57
8 -1 -2 76.24 8.1
8 -1 -1 9.56 3.35
8 -1 -1 5.78 2.47
8 -1 -1 11.13 3.95
8 -1 -1 11.01 4.06
8 -1 0 0.27 1.64
8 -1 0 -0.04 0.64
8 -1 1 12.95 4.06
8 -1 1 8.49 3.53
8 -1 1 18.36 4.76
8 -1 2 12.88 3.91
8 -1 2 12.49 4.32
-8 1 -2 13.71 5.14
8 -1 2 8.86 3.72
8 -1 3 109.85 14.35
-8 1 -3 140.36 16.58
8 -1 3 162.84 16.23
8 -1 4 86.28 13.44
-8 1 -4 81.63 13.12
8 -1 4 88.52 12.53
8 -1 5 43.14 9.22
-8 1 -5 30.08 8.22
8 -1 5 42.49 9.74
8 -1 6 100.11 14.15
-8 1 -6 78.74 14.22
8 -1 6 79.87 13.74
8 -1 7 35.19 8.71
-8 1 -7 47.73 11.19
8 -1 7 40.21 10.28
-8 0 9 24.06 7.69
8 0 -9 31.12 7.68
-8 0 8 41.47 9.46
8 0 -8 44.72 8.58
-8 0 7 -1.88 2.05
8 0 -7 1.1 1.65
-8 0 6 235.11 21.61
8 0 -6 202.78 17.82
-8 0 5 22.77 6.81
8 0 -5 13.04 4.88
-8 0 4 222.56 19.88
8 0 -4 190.41 11.34
8 0 -4 187.75 16.6
-8 0 3 102.31 13.23
8 0 -3 105.77 9.67
8 0 -3 93.89 11.49
8 0 -2 0.99 1.36
8 0 -2 0.52 1.38
8 0 -2 3.25 1.58
8 0 -2 -1.02 1.23
8 0 -1 35.81 6.04
8 0 -1 31.61 6.43
8 0 -1 32.09 6.1
8 0 -1 25.87 5.96
8 0 0 1.04 1.4
8 0 0 1.31 0.84
-8 0 0 1.48 1.8
8 0 0 1.29 1.94
8 0 1 73.97 10.65
8 0 1 81.75 10.77
-8 0 -1 82.83 11.56
8 0 1 71.37 9.55
8 0 2 36.11 7.18
-8 0 -2 34.4 7.85
8 0 2 32.91 7.32
8 0 3 11.93 4.31
8 0 3 9.62 3.94
-8 0 -3 17.54 5.98
8 0 4 -1.92 2.62
8 0 4 0.9 1.58
-8 0 -4 1.29 1.11
8 0 5 12.21 4.57
-8 0 -5 15.29 6.33
8 0 6 29.46 7.46
-8 0 -6 21.54 7.33
8 0 7 2.91 3.17
-8 0 -7 1.53 3.29
-8 -1 9 54.87 11.22
8 1 -9 61.74 11.01
-8 -1 8 11.2 5.04
8 1 -8 10.81 4.71
-8 -1 7 100.18 14.33
8 1 -7 110.05 13.68
-8 -1 6 15.78 5.62
8 1 -6 11.73 4.63
-8 -1 5 9.38 4.3
8 1 -5 10.8 4.14
-8 -1 4 52.7 9.61
8 1 -4 41.91 8.13
-8 -1 3 8.84 3.8
8 1 -3 14.56 3.18
8 1 -3 14.99 4.74
8 1 -2 15.83 3.96
8 1 -2 14.34 4.56
-8 -1 1 58.49 8.71
8 1 -1 44.28 8.22
8 1 0 1.07 0.92
-8 -1 0 2.23 2.71
8 1 0 2.54 1.46
8 1 1 122.59 13.73
8 1 1 142.62 14.48
-8 -1 -1 147.67 15.76
8 1 1 167.84 14.53
-8 -1 -2 168.59 17.89
8 1 2 171.53 15.48
8 1 3 8.98 4.03
-8 -1 -3 5.46 3.85
-8 -1 -4 233.77 23.06
8 1 4 220.93 19.36
8 1 5 75.21 11.59
-8 -1 -5 77.72 13.74
8 1 6 72.04 11.75
-8 -1 -6 70.19 13.91
-8 -2 9 21.53 6.98
8 2 -9 34.33 8.13
-8 -2 8 106.27 15.01
8 2 -8 107.25 14.19
-8 -2 7 -0.25 1.42
8 2 -7 -0.45 1.82
-8 -2 6 259.06 22.29
8 2 -6 263.99 21.49
-8 -2 5 35.17 8.03
8 2 -5 35.54 7.69
-8 -2 4 7.81 3.85
8 2 -4 3.57 2.66
-8 -2 3 64.86 10.28
8 2 -3 61.83 10.17
8 2 -2 42.83 6.58
-8 -2 2 51.62 7.67
8 2 -2 36.85 7.51
8 2 -1 248.01 17.25
8 2 -1 261.06 20.68
-8 -2 1 270.44 19.27
8 2 0 7.27 3.37
-8 -2 0 10.62 4.23
8 2 0 6.99 3.27
-8 -2 -1 4.56 2.86
-8 -2 -2 96.63 13.76
-8 -2 -3 29.26 8.04
-8 -2 -4 67.1 12.73
-8 -2 -5 5.58 4.21
-8 -2 -6 8.43 4.8
-8 -3 9 40.7 9.65
-8 -3 8 4.36 2.83
8 3 -8 3.35 2.61
-8 -3 7 3.62 3.15
8 3 -7 4.39 3.06
-8 -3 6 7.23 3.71
8 3 -6 14.4 5.24
-8 -3 5 4.3 2.24
8 3 -5 1.46 1.54
-8 -3 4 17.51 5.43
8 3 -4 11.08 4.28
-8 -3 3 0.74 1.83
8 3 -3 -0.68 3.28
-8 -3 2 33.91 6.65
8 3 -2 29.34 6.92
8 3 -1 227.88 19.95
-8 -3 1 204.29 17.57
8 3 0 1.45 1.21
-8 -3 0 4.46 2.86
-8 -3 -1 36.39 8.41
-8 -3 -2 18.29 6.27
-8 -3 -3 23.88 7.91
-8 -3 -4 163.32 20.4
-8 -3 -5 4.55 3.92
-8 -4 9 7.4 4.45
-8 -4 8 177.74 19.59
-8 -4 7 7.11 3.97
8 4 -7 -0.3 2.52
-8 -4 6 17.92 5.81
8 4 -6 27.99 7.72
-8 -4 5 32.47 7.71
8 4 -5 32.17 8.16
-8 -4 4 4.34 4.35
8 4 -4 1.87 1.89
8 4 -3 169.06 17.97
8 4 -2 1.76 1.37
-8 -4 1 13.53 4.8
8 4 -1 11.98 5.04
8 4 0 23.6 7.18
-8 -4 0 30.45 7.77
-8 -4 -1 0.49 2.02
-8 -4 -2 135.54 17.82
-8 -4 -3 18 7.84
-8 -4 -4 31.83 9.2
-8 -5 9 11.85 5.17
-8 -5 8 3.33 3.13
-8 -5 7 34.83 8.39
-8 -5 6 70.88 11.46
8 5 -4 73.03 12.6
8 5 -3 64.98 11.9
8 5 -2 0.44 1.58
-8 -5 0 17.42 6.38
-8 -5 -1 30.94 8.44
-8 -5 -2 42.11 10.04
-8 -5 -3 0.96 3.29
9 -6 -5 320.89 22.28
9 -6 -4 9.54 4.96
9 -6 -3 1.52 2.66
9 -6 -2 177.7 17.83
9 -6 -1 15.88 6.03
9 -6 0 190.46 19.64
9 -6 1 31.26 8.59
9 -6 2 138.28 18.09
-9 6 -2 125.63 18.59
9 -6 3 141.28 18.72
-9 6 -3 115.23 17.74
-9 6 -4 15.34 6.36
9 -5 -4 136.39 13.98
9 -5 -3 0.22 1.24
-9 5 3 3.06 3.92
9 -5 -2 17.55 5.45
-9 5 2 9.23 4.65
9 -5 -1 11.53 4.82
-9 5 1 2.15 2.03
9 -5 0 18.16 5.79
-9 5 0 8.62 4.2
9 -5 1 130.92 16.61
-9 5 -1 131.09 18.1
9 -5 2 44.69 9.98
-9 5 -2 59.16 12.12
9 -5 3 10.34 4.94
-9 5 -3 9.7 4.9
9 -5 4 0.57 2.53
-9 5 -4 -0.95 2.48
9 -5 5 3.72 3.82
9 -5 5 4.61 4.56
-9 5 -5 -1.55 2.2
-9 5 -6 8 4.65
-9 5 -7 12.44 4.92
9 -4 -4 49.07 7.93
9 -4 -3 105.3 12.25
-9 4 3 93.61 15.27
9 -4 -2 333.54 22.77
-9 4 2 290.74 26.69
9 -4 -1 -0.28 1.86
-9 4 1 0.31 1.55
9 -4 0 341.43 23.35
9 -4 0 352.16 25.69
-9 4 0 321.95 27.88
9 -4 1 109.5 13.91
9 -4 1 132.25 16.33
-9 4 -1 126.3 17.2
9 -4 2 1.75 1.94
-9 4 -2 -1.15 2.33
9 -4 3 148.9 17.58
9 -4 3 136.62 17.99
-9 4 -3 141.91 18.18
9 -4 4 15.12 5.58
9 -4 4 15.57 6.27
-9 4 -4 23.05 7.52
9 -4 5 104.21 15.73
9 -4 5 131.43 18.43
-9 4 -5 121.58 16.81
9 -4 6 110.52 16.61
-9 4 -6 127.77 17.16
-9 4 -7 8.77 4.89
9 -3 -8 -0.23 1.33
9 -3 -7 21.49 5.54
9 -3 -6 86.5 10.83
-9 3 5 9.72 5.55
9 -3 -5 0.95 2.23
9 -3 -4 65.68 8.65
9 -3 -4 76.34 9.53
9 -3 -3 38.89 6.97
9 -3 -3 38.64 6.78
9 -3 -2 36.11 6.43
9 -3 -2 36.66 7.29
9 -3 -2 28.5 5.62
9 -3 -1 62.13 9.03
9 -3 -1 53.79 9.54
9 -3 -1 55.74 7.89
9 -3 0 19.16 5.21
9 -3 0 21.74 6.36
9 -3 0 18.31 4.44
9 -3 1 54.51 9.61
9 -3 1 36.63 8.4
-9 3 -1 45.75 10.01
9 -3 1 43.92 7.08
9 -3 2 24.06 6.57
9 -3 2 28.05 7.71
-9 3 -2 19.71 6.59
9 -3 2 28.85 5.63
9 -3 3 37.6 9
9 -3 3 42.4 10.85
-9 3 -3 52.05 10.7
9 -3 3 39.38 6.76
9 -3 4 10.37 3.76
9 -3 4 16.02 5.87
9 -3 4 14.98 6.39
9 -3 5 49.81 10.44
9 -3 5 67.35 13.14
9 -3 6 29.56 8.65
9 -3 6 17.62 7.67
9 -2 -9 -2.24 2.3
9 -2 -8 0.24 0.94
9 -2 -7 64.43 9.99
-9 2 6 39.98 9.57
9 -2 -6 48.16 8.56
-9 2 5 111.48 15.91
9 -2 -5 102.07 11.98
9 -2 -4 156.92 14.63
9 -2 -3 4.49 2.47
9 -2 -3 10.19 3.76
9 -2 -2 242.47 18.32
9 -2 -2 214.48 16.81
9 -2 -2 247.38 16
9 -2 -1 69.04 9.59
9 -2 -1 66.88 10.31
9 -2 -1 65.34 8.9
9 -2 0 39.16 7.16
9 -2 0 33.27 7.58
9 -2 0 37.58 6.9
9 -2 1 66.71 10.34
9 -2 1 63.73 10.98
9 -2 1 49.38 8.09
9 -2 2 43.1 9.06
9 -2 2 41.16 9.67
9 -2 2 34.5 6.72
9 -2 3 266.81 24.16
9 -2 3 255.32 18.77
9 -2 3 276.35 22.78
9 -2 4 48.04 10.03
9 -2 4 36.73 9.1
9 -2 5 37.61 8.91
9 -2 5 51.13 11.38
9 -2 6 191.59 22.31
-9 2 -6 192.19 22.87
9 -2 6 185.82 20.96
9 -1 -8 106.66 13.76
9 -1 -7 1.91 1.9
-9 1 6 112.84 16.31
9 -1 -6 105.21 13.03
-9 1 5 28.08 8.18
9 -1 -5 23.03 6.02
-9 1 4 109.43 15.32
9 -1 -4 109.81 13
9 -1 -3 40.17 6.6
9 -1 -3 43.49 8.19
9 -1 -2 14.76 3.81
9 -1 -2 18.31 4.87
9 -1 -2 12.17 4.21
9 -1 -1 143.56 14.64
9 -1 -1 118.09 13.12
9 -1 -1 137.57 12.74
9 -1 0 35.03 6.76
9 -1 0 31.55 7.63
9 -1 0 24.84 5.91
9 -1 1 32.78 6.81
9 -1 1 47.13 9.58
9 -1 1 56.26 8.98
9 -1 2 2.58 2.17
9 -1 2 1.02 1.92
9 -1 2 2.37 2.67
9 -1 3 47.19 8.19
9 -1 3 49.19 9.37
9 -1 3 61.24 11.04
-9 1 -3 50.37 10.75
9 -1 4 95.9 13.59
9 -1 4 80.26 13.41
-9 1 -4 75.21 13.59
9 -1 5 4.81 3.01
-9 1 -5 9.59 5.54
9 -1 5 12.77 6.21
9 -1 6 1.99 2.58
-9 1 -6 4.1 3.35
9 0 -8 65.85 11.24
-9 0 7 134.13 17.79
9 0 -7 116.23 14.41
-9 0 6 15.1 6.11
9 0 -6 23.03 6.43
-9 0 5 48.06 10.33
9 0 -5 48.09 9.02
-9 0 4 196.5 20.52
9 0 -4 255.61 20.57
9 0 -3 13.11 4.3
9 0 -2 171.98 14.4
9 0 -2 190.6 17.46
9 0 -1 8.46 3.14
9 0 -1 2.85 1.99
9 0 -1 8.11 3.67
9 0 0 56.32 8.47
9 0 0 60.82 9.79
9 0 0 43.03 8.2
9 0 1 369.56 25.28
9 0 1 355.01 23.73
-9 0 -1 414.13 27.79
9 0 1 400.28 23.89
9 0 2 -1.34 2.25
9 0 2 1.06 1.26
-9 0 -2 -1.93 2.22
9 0 2 -0.32 1.39
9 0 3 212.58 20.88
-9 0 -3 220.5 22.49
9 0 3 236.39 20.3
9 0 4 55.06 10.15
-9 0 -4 41.85 10.15
9 0 4 45.46 10.21
9 0 5 49.44 9.9
-9 0 -5 42.3 10.51
9 0 5 31.71 8.86
9 0 6 134.07 18.49
-9 -1 7 0.61 3.1
9 1 -7 -1.22 1.71
-9 -1 6 166.53 19.24
9 1 -6 145.84 16.57
-9 -1 5 0.63 2.78
9 1 -5 -3.11 2.53
-9 -1 4 19.45 6.34
9 1 -4 10.29 3.85
9 1 -3 43.9 8.74
9 1 -2 2.27 1.75
9 1 -1 29.43 6.2
9 1 -1 25.41 6.66
9 1 0 5.07 2.85
-9 -1 0 4.08 3.23
9 1 0 3.02 2.65
9 1 1 13.18 4.33
9 1 1 9.28 4.46
9 1 2 31.97 7.5
-9 -1 -2 30.9 9.02
9 1 2 24.82 6.83
9 1 3 1.74 2.05
9 1 3 4.9 2.4
-9 -1 -3 3.5 3.96
9 1 4 41.78 9
9 1 4 39.22 9.45
-9 -1 -4 22.39 7.49
-9 -1 -5 25.84 8.42
-9 -2 7 22.6 7.25
-9 -2 6 102.4 15.1
9 2 -6 122.59 15.57
-9 -2 5 28.49 8.07
9 2 -5 21.44 6.51
-9 -2 4 83.37 12.85
9 2 -4 68.62 11.29
9 2 -3 10.04 4.07
9 2 -2 111.16 14.3
9 2 -1 42.93 8.82
-9 -2 0 25.1 6.49
9 2 0 29.16 7.12
9 2 0 31.8 7.6
9 2 1 178.32 17.39
9 2 1 208.63 19.38
-9 -2 -1 212.78 20.77
-9 -2 -2 0.2 1.38
-9 -2 -3 163.06 20.1
-9 -2 -4 3.18 3.38
-9 -3 7 13.06 6.03
-9 -3 6 19 6.45
-9 -3 5 27.16 7.18
9 3 -5 32.73 8.23
-9 -3 4 13.26 5.51
9 3 -4 1.15 2.48
9 3 -3 7.15 3.28
9 3 -2 7.64 4.09
9 3 -1 18.51 6.11
9 3 0 57.74 10.33
-9 -3 -1 -0.57 3.07
-9 -3 -2 -1.53 3.38
-9 -3 -3 9.02 5.15
-9 -4 7 18.12 6.85
-9 -4 6 58.16 11.11
-9 -4 5 2.52 3.21
-9 -4 -2 44.17 10.94
10 -5 -2 3.88 3.43
10 -5 -1 25.31 6.97
10 -5 0 18.75 7.24
10 -5 1 14.12 4.73
10 -5 1 22.23 6.69
10 -5 2 13.61 5.77
10 -5 2 26.52 7.83
10 -5 3 77.58 13.54
10 -4 -2 6.21 3.19
10 -4 -1 41.55 8.71
10 -4 0 -2.91 3.24
10 -4 1 122.78 15.13
10 -4 1 115.66 15.85
10 -4 2 0.53 2.28
10 -4 2 -0.84 2.38
10 -4 3 12.01 5.06
10 -4 3 12.27 5.58
10 -4 4 3.21 3.41
10 -3 -2 120.69 13.69
10 -3 -1 6.17 2.33
10 -3 0 25.62 6.48
10 -3 0 11.7 5.2
10 -3 1 122.34 16.49
10 -3 1 146.44 16.13
10 -3 2 3.27 2.63
10 -3 2 6.16 2.43
10 -3 3 75.28 12.45
10 -3 3 93.51 15.11
10 -3 4 2.8 3.58
10 -3 4 7.08 4.43
10 -2 -7 -0.43 1.53
10 -2 -6 3.31 2.33
10 -2 -5 50.26 9.14
10 -2 -4 127.38 14.05
10 -2 -3 15.41 5.15
10 -2 -2 5.54 2.82
10 -2 -1 293.06 22.31
10 -2 -1 261.62 19.85
10 -2 0 23.18 6
10 -2 0 31.74 8.04
10 -2 0 27.01 6.81
10 -2 1 53.63 9.73
10 -2 1 47.26 9.89
10 -2 1 31.02 6.64
10 -2 2 11.93 5.05
10 -2 2 9.55 5.89
10 -2 2 6.3 2.48
10 -2 3 -0.09 2.3
10 -2 3 2.81 3.39
10 -2 3 2.56 2.67
10 -2 4 6.13 3.12
10 -2 4 4.36 3.42
10 -2 4 1.97 2.11
10 -1 -7 48.02 9.52
10 -1 -6 -1.67 2.02
10 -1 -5 2.77 3.17
10 -1 -4 89.74 12.39
10 -1 -3 -0.06 1.82
10 -1 -2 113.93 13.97
10 -1 -1 6.98 3.29
10 -1 0 5.48 2.81
10 -1 0 8.26 3.97
10 -1 0 5.26 2.8
10 -1 1 83.22 13.02
10 -1 1 82.14 11.84
10 -1 1 93.72 12.15
10 -1 2 -2.17 2.72
10 -1 2 0.03 2.43
10 -1 3 202.26 18.45
10 -1 3 232.75 21.25
10 -1 4 7.48 3.58
10 -1 4 8.79 4.06
10 -1 4 11.56 5.34
10 0 -6 91.79 13.22
10 0 -5 41.63 8.92
10 0 -4 47.72 9.14
10 0 -3 83.41 12.54
10 0 -2 3.68 3.32
10 0 -1 63.72 10.81
10 0 0 4.35 1.37
10 0 1 41.23 7.97
10 0 1 26.07 7.12
10 0 1 31.86 7.55
-10 0 -2 3.14 3.85
10 0 2 3.15 2.82
10 0 2 0.4 2.03
10 0 3 61.57 10.49
10 0 3 49.37 9.88
-10 0 -3 49.44 10.74
10 0 3 45.51 10.03
-10 0 -4 28.51 8.84
10 0 4 36.33 9.55
10 1 -4 108.55 14.83
10 1 -3 -8.47 4.08
10 1 -2 18.25 5.98
10 1 -1 84.78 12.75
10 1 0 -11.36 4.63
10 1 1 115.3 14.72
10 1 2 15.15 6.12
-10 -1 -2 7.37 3.81
10 1 3 9.72 5.36
-10 -1 -3 2.25 2.79
11 -1 -3 -2.91 4.34
11 -1 -2 26.54 7.68
11 -1 -1 9.57 4.09
11 -1 0 8.41 4.54
