#------------------------------------------------------------------------------
#$Date: 2019-12-19 02:22:05 +0200 (Thu, 19 Dec 2019) $
#$Revision: 245358 $
#$URL: file:///home/coder/svn-repositories/cod/cif/4/03/77/4037706.cif $
#------------------------------------------------------------------------------
#
# This file is available in the Crystallography Open Database (COD),
# http://www.crystallography.net/
#
# All data on this site have been placed in the public domain by the
# contributors.
#
data_4037706
loop_
_publ_author_name
'Tripathi, Krishna N.'
'Belal, Md'
'Singh, Ravi P.'
_publ_section_title
;
 Organo Photoinduced Decarboxylative Alkylation of Coumarins with
 N-(Acyloxy)phthalimide.
;
_journal_name_full               'The Journal of organic chemistry'
_journal_paper_doi               10.1021/acs.joc.9b00977
_journal_year                    2019
_chemical_formula_moiety         'C12 H9 N O2'
_chemical_formula_sum            'C12 H9 N O2'
_chemical_formula_weight         199.20
_space_group_crystal_system      triclinic
_space_group_IT_number           2
_space_group_name_Hall           '-P 1'
_space_group_name_H-M_alt        'P -1'
_atom_sites_solution_hydrogens   geom
_audit_creation_method           SHELXL-2014/7
_cell_angle_alpha                74.721(15)
_cell_angle_beta                 66.617(15)
_cell_angle_gamma                61.920(14)
_cell_formula_units_Z            2
_cell_length_a                   8.020(5)
_cell_length_b                   8.024(5)
_cell_length_c                   9.517(5)
_cell_measurement_reflns_used    2342
_cell_measurement_temperature    161(2)
_cell_measurement_theta_max      27.94
_cell_measurement_theta_min      2.34
_cell_volume                     493.7(5)
_computing_cell_refinement       'Bruker SAINT'
_computing_data_collection       'Bruker APEX2'
_computing_data_reduction        'Bruker SAINT'
_computing_molecular_graphics    'Bruker SHELXTL'
_computing_publication_material  'Bruker SHELXTL'
_computing_structure_refinement  'SHELXL-2014 (Sheldrick 2014)'
_computing_structure_solution    'SHELXS-97 (Sheldrick 2008)'
_diffrn_ambient_temperature      161(2)
_diffrn_measured_fraction_theta_full 0.995
_diffrn_measured_fraction_theta_max 0.990
_diffrn_measurement_device_type  'Bruker APEX-II CCD'
_diffrn_measurement_method       '\f and \w scans'
_diffrn_radiation_type           MoK\a
_diffrn_radiation_wavelength     0.71073
_diffrn_reflns_av_R_equivalents  0.0650
_diffrn_reflns_av_unetI/netI     0.0659
_diffrn_reflns_Laue_measured_fraction_full 0.995
_diffrn_reflns_Laue_measured_fraction_max 0.990
_diffrn_reflns_limit_h_max       10
_diffrn_reflns_limit_h_min       -10
_diffrn_reflns_limit_k_max       10
_diffrn_reflns_limit_k_min       -10
_diffrn_reflns_limit_l_max       12
_diffrn_reflns_limit_l_min       -12
_diffrn_reflns_number            8123
_diffrn_reflns_point_group_measured_fraction_full 0.995
_diffrn_reflns_point_group_measured_fraction_max 0.990
_diffrn_reflns_theta_full        25.242
_diffrn_reflns_theta_max         28.015
_diffrn_reflns_theta_min         2.890
_exptl_absorpt_coefficient_mu    0.092
_exptl_crystal_colour            colourless
_exptl_crystal_density_diffrn    1.340
_exptl_crystal_description       block
_exptl_crystal_F_000             208
_exptl_crystal_size_max          0.20
_exptl_crystal_size_mid          0.18
_exptl_crystal_size_min          0.16
_refine_diff_density_max         0.170
_refine_diff_density_min         -0.312
_refine_diff_density_rms         0.067
_refine_ls_extinction_method     none
_refine_ls_goodness_of_fit_ref   0.697
_refine_ls_hydrogen_treatment    constr
_refine_ls_matrix_type           full
_refine_ls_number_parameters     137
_refine_ls_number_reflns         2372
_refine_ls_number_restraints     0
_refine_ls_restrained_S_all      0.697
_refine_ls_R_factor_all          0.1335
_refine_ls_R_factor_gt           0.0520
_refine_ls_shift/su_max          0.000
_refine_ls_shift/su_mean         0.000
_refine_ls_structure_factor_coef Fsqd
_refine_ls_weighting_details
'w=1/[\s^2^(Fo^2^)+(0.1000P)^2^+0.7499P] where P=(Fo^2^+2Fc^2^)/3'
_refine_ls_weighting_scheme      calc
_refine_ls_wR_factor_gt          0.1270
_refine_ls_wR_factor_ref         0.1938
_reflns_Friedel_coverage         0.000
_reflns_number_gt                1185
_reflns_number_total             2372
_reflns_threshold_expression     'I > 2\s(I)'
_cod_data_source_file            jo9b00977_si_005.cif
_cod_data_source_block           KT09_0ma_a_a
_cod_database_code               4037706
_shelx_shelxl_version_number     2014/7
_shelx_space_group_comment
;
The symmetry employed for this shelxl refinement is uniquely defined
by the following loop, which should always be used as a source of
symmetry information in preference to the above space-group names.
They are only intended as comments.
;
_shelx_res_file
;

    KT09_0ma_a_a.res created by SHELXL-2014/7

TITL KT09_0ma_a_a.res in P-1
CELL  0.71073   8.0197   8.0235   9.5169   74.721   66.617   61.920
ZERR    8.000   0.0046   0.0046   0.0052    0.015    0.015    0.014
LATT 1
SFAC C  H  N  O
UNIT 8  8  8  8
REM Old TITL KT09_0ma_a.res in P-1
REM SHELXT solution in P-1
REM R1 0.213,  Rweak 0.012,  Alpha 0.084,  Orientation as input
REM Formula found by SHELXT:  C12 N O2
L.S. 10
ACTA
BOND $H
FMAP 2
PLAN 20
TEMP -112.280
WGHT    0.100000    0.749860
FVAR       1.02531
O2    4    0.750330    0.537323    0.581563    11.00000    0.03552    0.05916 =
         0.06006    0.00678   -0.01874   -0.01823
O1    4    0.828413    0.312186    0.764660    11.00000    0.05035    0.07809 =
         0.08529    0.01456   -0.04028   -0.01325
C9    1    0.409262    0.711896    0.581026    11.00000    0.03639    0.03645 =
         0.04022   -0.00209   -0.01389   -0.01430
C1    1    0.345719    0.606279    0.723847    11.00000    0.03759    0.03849 =
         0.03956   -0.00262   -0.01449   -0.01521
C4    1    0.611310    0.674961    0.514985    11.00000    0.03953    0.04140 =
         0.04446    0.00004   -0.01621   -0.01663
C2    1    0.486904    0.473773    0.786590    11.00000    0.04395    0.04253 =
         0.04268    0.00372   -0.01914   -0.01925
C8    1    0.281030    0.852601    0.502381    11.00000    0.04093    0.04980 =
         0.04884    0.00453   -0.01873   -0.01626
AFIX  43
H8    2    0.142424    0.881442    0.542885    11.00000   -1.20000
AFIX   0
C10   1    0.129140    0.648111    0.803283    11.00000    0.03818    0.04816 =
         0.04760    0.00146   -0.01169   -0.01762
AFIX  23
H10A  2    0.116076    0.535988    0.873085    11.00000   -1.20000
H10B  2    0.064550    0.673108    0.725779    11.00000   -1.20000
AFIX   0
C5    1    0.684689    0.772073    0.379597    11.00000    0.04496    0.05541 =
         0.04919   -0.00359   -0.00574   -0.02822
AFIX  43
H5    2    0.823025    0.744343    0.337847    11.00000   -1.20000
AFIX   0
N1    3    0.398583    0.280456    1.045740    11.00000    0.10179    0.08215 =
         0.05810    0.02555   -0.03747   -0.04682
C6    1    0.553528    0.909316    0.306824    11.00000    0.06465    0.05093 =
         0.04510    0.00343   -0.01290   -0.02982
AFIX  43
H6    2    0.601507    0.977272    0.213739    11.00000   -1.20000
AFIX   0
C12   1    0.438506    0.364240    0.930280    11.00000    0.05961    0.05275 =
         0.05045    0.00339   -0.02843   -0.02134
C3    1    0.698108    0.431927    0.715257    11.00000    0.04407    0.05137 =
         0.05710    0.00699   -0.02473   -0.01906
C7    1    0.352551    0.949471    0.367679    11.00000    0.06201    0.05108 =
         0.04495    0.01052   -0.02367   -0.02013
AFIX  43
H7    2    0.263258    1.044559    0.316158    11.00000   -1.20000
AFIX   0
C11   1    0.023095    0.819724    0.895725    11.00000    0.05328    0.06646 =
         0.06059   -0.01374   -0.01241   -0.01208
AFIX 137
H11A  2    0.080645    0.791799    0.977248    11.00000   -1.50000
H11B  2   -0.119331    0.847641    0.941727    11.00000   -1.50000
H11C  2    0.039968    0.929785    0.827482    11.00000   -1.50000
AFIX   0
HKLF 4

REM  KT09_0ma_a_a.res in P-1
REM R1 =  0.0520 for    1185 Fo > 4sig(Fo)  and  0.1335 for all    2372 data
REM    137 parameters refined using      0 restraints

END

WGHT      0.0694      0.0184

REM Highest difference peak  0.170,  deepest hole -0.312,  1-sigma level  0.067
Q1    1   0.2488  0.3428  1.2551  11.00000  0.05    0.17
Q2    1   0.1777  1.1639  0.4431  11.00000  0.05    0.17
Q3    1   0.5199  0.6588  0.5277  11.00000  0.05    0.17
Q4    1   1.0314  0.5568  0.2405  11.00000  0.05    0.17
Q5    1   0.3561  0.2802  1.2601  11.00000  0.05    0.17
Q6    1   0.7770  0.7021  0.6257  11.00000  0.05    0.16
Q7    1   0.3730  0.5037  1.0474  11.00000  0.05    0.16
Q8    1   0.0191  0.8224  0.5103  11.00000  0.05    0.16
Q9    1   0.3896  0.9043  0.1544  11.00000  0.05    0.16
Q10   1   0.8385  0.7769  0.4604  11.00000  0.05    0.16
Q11   1  -0.0009  0.7041  0.6145  11.00000  0.05    0.16
Q12   1   0.6380  1.1240  0.2410  11.00000  0.05    0.16
Q13   1   0.1146  1.0810  0.6148  11.00000  0.05    0.16
Q14   1  -0.1681  0.7733  1.1378  11.00000  0.05    0.15
Q15   1   0.7762  0.5516  0.3410  11.00000  0.05    0.15
Q16   1   0.8350  0.6365  0.2356  11.00000  0.05    0.15
Q17   1  -0.0504  0.5118  0.8425  11.00000  0.05    0.15
Q18   1   0.0005  0.5590  0.6260  11.00000  0.05    0.15
Q19   1   0.4704  0.4736  0.5808  11.00000  0.05    0.15
Q20   1   0.5702  0.8364  0.6332  11.00000  0.05    0.15
;
_shelx_res_checksum              13376
_shelx_hkl_file
;
   0   1   0 1182.08   37.30
   0  -1   0 1217.98   37.40
   0   2   0  145.49    4.30
   0   2   0  150.78    4.40
   0   2   0  148.49    4.40
   0   2   0  135.59   11.10
   0  -2   0  153.28    4.40
   0  -2   0  144.69    4.20
   0  -2   0  146.89    4.40
   0  -2   0  152.08   11.30
   0   3   0  109.09    3.60
   0   3   0  108.89    3.60
   0   3   0  111.09    3.50
   0   3   0  100.89   11.50
   0  -3   0  107.49    3.60
   0  -3   0  108.99   12.70
   0  -3   0  109.29    3.60
   0  -3   0  107.19    3.40
   0   4   0    5.60    0.80
   0   4   0    4.40    0.70
   0  -4   0    1.20    7.80
   0  -4   0    5.30    0.70
   0  -4   0    4.40    0.70
   0   5   0   56.19    2.50
   0   5   0   58.79    2.60
   0  -5   0   46.80   13.80
   0  -5   0   56.89    2.60
   0  -5   0   48.40   17.50
   0   6   0    4.80    0.80
   0   6   0    4.30    0.90
   0  -6   0    6.50    1.20
   0  -6   0    3.10   19.00
   0  -6   0    6.00   11.40
   0   7   0    0.60    1.00
   0   7   0    0.00    0.70
   0  -7   0  -15.00   19.70
   0  -7   0    2.00    1.10
   0   8   0    1.30    1.20
   0   8   0    2.70    1.20
   0  -8   0    1.50    1.60
   0   9   0   -1.50    1.80
   0  -9   0   -0.70    2.40
   1  -8   0   19.40    2.90
  -1   8   0   22.20    2.80
  -1   8   0   20.70    2.30
   1  -7   0   -2.10    1.10
  -1   7   0   -0.20    1.20
  -1   7   0   -1.20    1.00
   1  -6   0    6.80    1.20
   1  -6   0   -6.30   16.50
   1  -6   0   52.99   23.00
  -1   6   0    6.50    1.20
  -1   6   0    6.90    1.10
   1  -5   0  118.79   22.60
   1  -5   0  104.59   18.90
   1  -5   0  109.39    4.10
  -1   5   0  107.79    4.00
  -1   5   0  109.19    4.20
   1  -4   0   34.00   13.20
   1  -4   0   35.50    1.70
  -1   4   0   35.70    1.80
  -1   4   0   35.90    1.80
   1  -3   0  293.87   20.70
   1  -3   0  280.07    8.10
   1  -3   0  280.87   22.90
   1  -3   0  280.17    8.00
   1  -3   0  270.77    8.20
  -1   3   0  282.67    8.20
  -1   3   0  281.57    8.10
  -1   3   0  285.07    8.10
  -1   3   0  278.07    8.20
   1  -2   0    8.20    0.60
   1  -2   0    6.90    4.80
   1  -2   0    8.20    0.60
   1  -2   0    8.00    0.60
  -1   2   0    8.00    0.70
  -1   2   0    7.50    0.60
  -1   2   0    7.90    0.60
  -1   2   0    8.20    0.70
   1  -1   0    0.80    0.20
   1  -1   0    0.90    0.20
   1  -1   0    1.50    2.30
   1  -1   0    1.20    0.20
  -1   1   0    0.40    3.00
  -1   1   0    1.10    0.20
  -1   1   0    0.90    0.20
  -1   1   0    0.40    0.20
  -1   1   0    0.40    0.20
  -1   0   0 1913.11   60.99
   1   1   0  693.53   24.30
   1   1   0  651.73   17.60
  -1  -1   0  659.03   17.60
  -1  -1   0  672.93   24.30
  -1  -1   0  645.84   17.60
   1   2   0  194.38    5.60
   1   2   0  181.28   12.50
   1   2   0  191.78    5.60
   1   2   0  194.08    5.50
  -1  -2   0  201.28   12.90
  -1  -2   0  195.38    5.60
  -1  -2   0  198.28    5.50
  -1  -2   0  196.28    5.60
   1   3   0    8.50    0.80
   1   3   0    6.70    0.70
   1   3   0   11.60    5.70
   1   3   0    8.50    0.70
  -1  -3   0    8.50    0.70
  -1  -3   0    8.80    0.70
  -1  -3   0    8.30    0.70
  -1  -3   0    5.70    5.30
   1   4   0    0.20    0.40
   1   4   0   -3.10    7.10
   1   4   0    0.90    0.40
  -1  -4   0   -6.80    7.60
  -1  -4   0    0.20    0.40
  -1  -4   0    0.40    0.40
  -1  -4   0    0.10    0.50
   1   5   0    1.00    0.50
   1   5   0  -10.20   10.40
   1   5   0   -0.50    0.50
  -1  -5   0    0.00    0.60
  -1  -5   0   -0.20    0.50
  -1  -5   0   -5.10   10.10
   1   6   0   31.70    1.80
   1   6   0   34.70    2.10
   1   6   0   49.20   16.60
  -1  -6   0   32.80    2.10
  -1  -6   0   38.30   11.30
   1   7   0    0.40    0.90
   1   7   0   -0.50    0.70
  -1  -7   0  -12.90   19.00
  -1  -7   0   -0.70    1.00
   1   8   0   25.40    2.00
   1   8   0   26.20    2.40
  -1  -8   0    7.20   21.10
  -1  -8   0   26.80    2.50
   1   9   0   -0.30    1.70
  -1  -9   0   -0.20    2.10
  -2   8   0   15.10    2.20
   2  -7   0   15.90    2.50
  -2   7   0   16.60    2.00
  -2   7   0   15.90    2.20
   2  -6   0    9.00   19.20
   2  -6   0    0.60    1.10
  -2   6   0    0.90    1.00
  -2   6   0    2.60    0.90
   2  -5   0    0.10   19.60
   2  -5   0   -2.40   14.50
   2  -4   0   77.09   17.60
   2  -4   0   58.29    2.40
   2  -4   0   68.19   14.60
  -2   4   0   56.59    2.70
  -2   4   0   59.59    2.60
   2  -3   0  109.89    3.50
   2  -3   0  111.89    3.80
   2  -3   0   82.09   15.50
  -2   3   0  107.69    3.80
  -2   3   0  106.69    3.80
  -2   3   0  108.49    3.60
   2  -2   0   21.00    1.20
   2  -2   0    9.70    8.10
   2  -2   0   21.30    1.20
   2  -2   0   22.10    1.00
  -2   2   0   20.90    1.30
  -2   2   0   18.80    8.40
  -2   2   0   22.90    1.30
  -2   2   0   23.00    1.00
  -2   2   0   23.80    1.20
   2  -1   0  241.58    6.80
   2  -1   0  236.88    6.40
   2  -1   0  211.48   20.30
  -2   1   0  235.18   17.80
  -2   1   0  235.18    6.80
  -2   1   0  237.48    6.40
  -2   1   0  242.78    6.90
   2   0   0   59.99    2.00
   2   0   0   58.29    2.10
  -2   0   0   61.19    2.10
  -2   0   0   57.29    2.00
   2   1   0 1386.76   56.19
   2   1   0 1407.76   39.20
  -2  -1   0 1510.65   39.30
  -2  -1   0 1614.34   52.49
  -2  -1   0 1487.45   39.20
   2   2   0  433.86   11.90
   2   2   0  436.76   12.00
   2   2   0  436.46   11.90
   2   2   0  440.06   22.50
  -2  -2   0  435.26   22.90
  -2  -2   0  438.26   12.00
  -2  -2   0  415.86   11.90
  -2  -2   0  437.46   11.90
  -2  -2   0  440.56   11.90
   2   3   0   63.59    2.40
   2   3   0   65.39    2.40
   2   3   0   62.29    2.30
   2   3   0   59.99   10.60
  -2  -3   0   63.39    2.40
  -2  -3   0   69.59    9.70
  -2  -3   0   68.29    2.40
  -2  -3   0   64.59    2.40
   2   4   0  125.19    4.30
   2   4   0  129.49    4.10
   2   4   0  108.59   13.30
  -2  -4   0  127.59    4.30
  -2  -4   0  130.89    4.10
  -2  -4   0  108.39   16.40
   2   5   0  166.98    5.10
   2   5   0  164.78   18.10
   2   5   0  157.98    5.20
  -2  -5   0  158.98    5.40
  -2  -5   0  129.49    4.80
  -2  -5   0  148.49   20.40
   2   6   0   15.90   13.80
  -2  -6   0    6.40   13.10
   2   7   0    2.10    0.90
   2   7   0  -10.60   15.00
  -2  -7   0   -9.00   18.20
   2   8   0   38.40    2.90
   2   8   0   38.80    2.30
   2   8   0   16.60   27.70
  -2  -8   0   40.40    3.00
  -2  -8   0   34.20   27.10
   2   9   0   -2.30    1.50
  -2  -9   0   -2.30    1.70
  -3   7   0   -1.20    1.70
  -3   7   0   -0.90    1.50
  -3   6   0    5.80    1.40
  -3   6   0    7.90    1.30
   3  -5   0    1.80   18.10
  -3   5   0    5.20    1.00
  -3   5   0    5.70    1.10
   3  -4   0    2.30    1.00
   3  -4   0  -14.70   18.80
   3  -4   0    2.90    0.80
   3  -4   0    4.00   14.80
  -3   4   0    1.40    0.80
  -3   4   0    2.20    1.30
  -3   4   0    3.60    0.90
   3  -3   0    4.10    0.80
   3  -3   0    3.30    0.60
   3  -3   0    1.80   13.70
  -3   3   0  -13.20   11.30
  -3   3   0    3.70    0.70
  -3   3   0    2.70    0.70
  -3   3   0    3.40    0.70
   3  -2   0  -13.50    9.60
   3  -2   0    0.00    0.30
   3  -2   0    0.30    0.40
  -3   2   0    3.60    8.60
  -3   2   0   -0.60    0.40
  -3   2   0    0.10    0.30
  -3   2   0    0.00    0.40
   3  -1   0  124.69    4.20
   3  -1   0  123.29   17.70
  -3   1   0  133.19   16.80
  -3   1   0  125.79    4.10
   3   0   0   92.09    3.20
   3   0   0   98.39    3.30
  -3   0   0   91.79    3.30
  -3   0   0   90.89    3.10
   3   1   0   43.80    1.40
   3   1   0   40.90    1.70
   3   1   0   42.00    1.80
  -3  -1   0   40.50    1.80
  -3  -1   0   39.30    1.40
  -3  -1   0   40.90    1.70
  -3  -1   0   67.79   12.30
   3   2   0   49.40    2.00
   3   2   0   42.40    9.60
   3   2   0   50.99    2.10
   3   2   0   50.49    1.80
  -3  -2   0   47.90    2.00
  -3  -2   0   50.29    1.90
  -3  -2   0   44.20   10.30
  -3  -2   0   49.50    1.80
  -3  -2   0   46.70    2.00
   3   3   0   80.49    2.80
   3   3   0   69.79   12.80
   3   3   0   74.89    2.80
  -3  -3   0   83.59   13.60
  -3  -3   0   79.19    2.70
  -3  -3   0   71.99    2.70
  -3  -3   0   79.09    2.80
  -3  -3   0   72.29    2.90
   3   4   0   38.30    1.90
   3   4   0   37.10    1.70
   3   4   0   36.20   11.00
  -3  -4   0   37.80    1.60
  -3  -4   0   26.50    9.40
  -3  -4   0   34.50    1.80
  -3  -4   0   37.40    1.90
   3   5   0  398.56   31.00
   3   5   0  415.66   12.00
  -3  -5   0  421.36   31.00
  -3  -5   0  405.86   12.20
   3   6   0   20.80    1.40
   3   6   0    0.40   13.90
   3   6   0   22.40    1.80
  -3  -6   0   22.60    1.80
  -3  -6   0   19.30   13.70
   3   7   0   24.60    2.00
   3   7   0  -11.50   14.30
   3   7   0   24.00    1.60
  -3  -7   0   46.00   18.30
  -3  -7   0   25.50    2.10
   3   8   0    2.90    0.90
   3   8   0   14.80   25.30
   3   8   0    2.30    1.40
  -3  -8   0   -8.40   24.20
  -3  -8   0    1.90    1.30
   3   9   0    1.20    1.50
  -3  -9   0   -0.30    1.70
   3  10   0   -2.40    1.90
  -3 -10   0   -0.30    2.20
  -4   6   0   -0.20    1.20
  -4   6   0    1.90    1.40
  -4   5   0    3.10    1.20
  -4   5   0    2.20    0.90
   4  -4   0   31.10    2.30
  -4   4   0   32.10    2.30
  -4   4   0   34.80    2.30
   4  -3   0  595.44   17.30
   4  -3   0  553.74   47.40
  -4   3   0  620.54   17.40
  -4   3   0  570.04   42.80
  -4   3   0  600.34   17.20
   4  -2   0   68.89    3.00
   4  -2   0   28.90   17.30
  -4   2   0   58.99   13.30
  -4   2   0   64.79    2.90
   4  -1   0   25.40    1.60
  -4   1   0   23.90   11.00
  -4   1   0   27.50    1.60
   4   0   0   28.70    1.60
  -4   0   0   30.90    1.60
   4   1   0   19.20   11.10
   4   1   0   12.60    1.10
   4   1   0   11.80    0.60
  -4  -1   0   23.60    9.50
  -4  -1   0   11.50    0.90
   4   2   0  347.37    9.50
   4   2   0  318.07   25.10
   4   2   0  348.67   10.10
  -4  -2   0  334.37   26.10
  -4  -2   0  351.76    9.90
  -4  -2   0  332.07    9.60
   4   3   0   57.49   12.80
   4   3   0   79.49    2.90
   4   3   0   84.09    3.20
  -4  -3   0   57.19   12.30
  -4  -3   0   84.79    3.00
  -4  -3   0   81.19    2.90
   4   4   0   -2.90    9.40
   4   4   0    0.70    0.50
   4   4   0    1.40    0.60
  -4  -4   0    2.10    9.90
  -4  -4   0    0.90    0.50
  -4  -4   0    0.50    0.50
   4   5   0   -0.30    0.50
   4   5   0   -6.90   12.60
   4   5   0   -0.70    0.60
  -4  -5   0    0.80    0.50
  -4  -5   0   -6.00   11.80
  -4  -5   0    0.00    0.60
   4   6   0    6.30    1.00
   4   6   0   -6.10   14.80
   4   6   0    7.10    1.10
  -4  -6   0   14.30   14.70
  -4  -6   0    7.10    1.00
  -4  -6   0    7.50    1.30
   4   7   0    0.10    0.70
   4   7   0  -13.80   19.20
   4   7   0   -1.40    0.90
  -4  -7   0    0.50    0.70
  -4  -7   0   -1.50   20.70
  -4  -7   0   -0.30    0.90
   4   8   0    2.10    0.80
   4   8   0    0.70    1.00
  -4  -8   0   -1.40    0.90
  -4  -8   0    2.20    1.40
   4   9   0    3.10    1.40
  -4  -9   0    3.70    1.50
   4  10   0    6.30    1.90
  -4 -10   0    2.60    2.40
  -5   5   0   -0.40    1.50
  -5   5   0    0.10    1.20
   5  -4   0    2.10    1.20
  -5   4   0    3.60    1.20
  -5   4   0    1.80    1.30
   5  -3   0  152.78    6.00
  -5   3   0  166.78    6.20
  -5   3   0  155.58    6.00
   5  -2   0  176.28    6.30
  -5   2   0  162.78   26.60
  -5   2   0  176.58    6.20
   5  -1   0   33.50    2.10
  -5   1   0   16.90   17.10
  -5   1   0   32.50    2.10
   5   0   0    0.00    0.60
  -5   0   0    0.40    0.50
   5   1   0    8.90    1.20
  -5  -1   0    7.60    0.90
  -5  -1   0    4.30   12.00
   5   2   0    0.40    0.40
   5   2   0    0.20    0.50
   5   2   0    0.20   10.60
  -5  -2   0    0.20    0.50
  -5  -2   0  -18.70   10.40
  -5  -2   0    0.50    0.50
   5   3   0   17.10   12.00
   5   3   0    6.30    0.90
   5   3   0    7.40    1.10
  -5  -3   0    6.80    0.90
  -5  -3   0   25.60   11.20
  -5  -3   0    6.70    1.00
   5   4   0    5.60   12.50
   5   4   0    4.10    0.90
  -5  -4   0   15.90   12.50
  -5  -4   0    4.30    0.70
  -5  -4   0    4.20    0.80
   5   5   0  118.49   21.90
   5   5   0  105.79    4.20
  -5  -5   0  107.79   18.10
  -5  -5   0  104.19    4.10
  -5  -5   0  101.29    3.80
   5   6   0    0.50    0.80
   5   6   0   26.90   18.60
   5   6   0    1.50    0.70
  -5  -6   0    0.90    0.70
  -5  -6   0    1.20    0.80
  -5  -6   0   -6.70   17.70
   5   7   0   40.20   22.70
   5   8   0    0.70    1.20
   5   8   0    0.50    0.90
  -5  -8   0    0.20    1.40
  -5  -8   0   -0.70    0.90
   5   9   0   11.00    1.90
  -5  -9   0    9.10    2.30
   5  10   0   16.40    2.40
   6  -4   0    0.80    1.40
  -6   4   0    0.80    1.70
  -6   4   0   -1.40    1.30
   6  -3   0    1.20    1.10
  -6   3   0   -0.60    1.10
  -6   3   0   -1.40    1.40
   6  -2   0    2.70    1.10
  -6   2   0    4.90    1.30
  -6   2   0    6.30    1.30
   6  -1   0    0.20    0.80
  -6   1   0    0.60    0.80
   6   0   0    1.10    0.70
  -6   0   0  -20.00   17.60
  -6   0   0    0.30    0.70
   6   1   0    1.30    0.80
  -6  -1   0    0.70    0.70
   6   2   0   10.00    0.90
   6   2   0   16.30   16.60
   6   2   0   11.40    1.50
  -6  -2   0    9.70    1.10
  -6  -2   0   17.20   14.90
   6   3   0  -16.60   17.20
  -6  -3   0   10.20   15.50
   6   4   0  -17.10   15.50
   6   4   0   -0.80    0.80
  -6  -4   0   18.80   15.10
  -6  -4   0    1.30    0.70
  -6  -4   0    0.30    0.60
   6   5   0  103.59    4.30
   6   5   0   91.29   21.90
  -6  -5   0  100.29    4.00
  -6  -5   0  112.89   23.00
  -6  -5   0   99.19    3.90
   6   6   0    4.20    1.10
  -6  -6   0    7.60    1.30
  -6  -6   0    5.40    1.00
   6   7   0   25.60    2.40
  -6  -7   0   28.70    2.00
  -6  -7   0   25.60    2.40
   6   8   0    0.60    1.00
   6   8   0    2.30    1.40
  -6  -8   0   -0.40    1.40
  -6  -8   0    0.20    1.10
   6   9   0    2.00    1.60
  -6  -9   0   -1.70    1.80
   7  -3   0    0.60    1.40
  -7   3   0    2.50    2.00
  -7   3   0    1.80    1.50
   7  -2   0   -0.80    1.40
  -7   2   0    1.70    1.40
  -7   2   0    0.90    1.40
   7  -1   0    0.70    1.10
  -7   1   0   -2.20    1.00
   7   0   0   13.20    1.90
  -7   0   0   12.40    1.80
  -7  -1   0    3.20    1.10
   7   2   0   53.39    3.10
  -7  -2   0   51.99    2.80
   7   3   0    5.60    1.10
  -7  -3   0    7.40    1.20
   7   4   0   13.40    1.80
  -7  -4   0   16.00    1.60
  -7  -5   0    0.00    1.10
  -7  -5   0    0.30    0.70
   7   6   0    4.00    1.20
  -7  -6   0    3.60    1.10
  -7  -6   0    3.80    1.00
   7   7   0   25.80    2.60
  -7  -7   0   29.10    4.00
  -7  -7   0   25.70    2.20
   7   8   0    1.20    1.50
  -7  -8   0    3.30    1.70
  -7  -8   0    1.40    1.30
   7   9   0   -1.20    1.80
  -7  -9   0    0.20    2.20
   8  -1   0   11.10    2.20
  -8   1   0   20.60    3.00
   8   0   0    2.30    1.60
  -8   0   0    4.60    1.50
   8   1   0   -1.80    1.10
  -8  -1   0    1.50    1.30
   8   2   0   15.80    2.10
  -8  -2   0   14.30    1.90
   8   3   0   -0.80    1.30
  -8  -3   0    0.40    0.90
   8   4   0   -0.40    1.00
  -8  -4   0   -1.20    1.10
   8   5   0    5.30    1.60
  -8  -5   0    2.80    1.20
   8   6   0    0.00    1.30
  -8  -6   0    0.00    1.50
  -8  -6   0    0.40    1.10
   8   7   0    1.90    1.60
  -8  -7   0   -0.70    1.90
  -8  -7   0    0.60    1.30
   8   8   0   -1.30    1.50
  -8  -8   0    1.60    1.50
  -8  -8   0    0.40    1.90
   9   1   0    0.10    1.80
  -9  -1   0    1.30    1.60
   9   2   0    3.20    1.60
  -9  -2   0    2.80    1.60
   9   3   0    3.40    1.70
  -9  -3   0   -1.60    1.40
   9   4   0   -0.60    1.60
  -9  -4   0    2.90    1.20
   9   5   0   -1.60    1.60
  -9  -5   0    2.50    1.50
   9   6   0    6.60    1.80
  -9  -6   0    7.60    1.50
   9   7   0   17.30    2.70
  -9  -6   1   -3.70    1.60
   9   6  -1   -2.50    1.90
   9   5  -1    2.00    2.00
  -9  -4   1    1.20    1.50
   9   4  -1    0.20    1.80
  -9  -3   1    5.00    1.50
   9   3  -1    3.60    1.70
  -9  -2   1   26.20    2.90
   9   2  -1   24.80    3.50
  -8  -8   1    1.10    2.00
   8   8  -1    0.50    1.80
  -8  -7   1    1.40    1.80
  -8  -7   1    0.70    1.30
   8   7  -1   -2.00    1.50
  -8  -6   1   -0.80    1.20
  -8  -6   1    0.40    1.70
   8   6  -1    0.40    1.40
  -8  -5   1    1.70    1.20
   8   5  -1    1.00    1.30
  -8  -4   1    1.80    1.10
   8   4  -1    0.00    1.20
  -8  -3   1   -0.10    1.20
   8   3  -1    0.60    1.50
  -8  -2   1    5.50    1.50
   8   2  -1    7.10    1.60
  -8  -1   1    1.80    1.30
   8   1  -1    4.20    1.60
  -8   0   1    0.70    1.30
   8   0  -1    0.30    1.50
  -8   1   1    5.80    1.80
   8  -1  -1    3.20    1.70
  -7  -9   1   -3.30    2.90
   7   9  -1   -0.50    1.80
  -7  -8   1    1.30    2.10
   7   8  -1    1.60    1.50
  -7  -7   1    0.30    1.70
  -7  -7   1    0.60    1.20
   7   7  -1   -1.20    1.20
  -7  -6   1    1.40    1.40
  -7  -6   1    1.50    1.10
   7   6  -1    2.90    1.20
  -7  -5   1    2.90    0.90
  -7  -5   1   -0.10    1.30
   7   5  -1    1.50    1.00
  -7  -4   1    0.70    0.90
  -7  -4   1    0.40    1.00
   7   4  -1    2.40    1.20
  -7  -3   1    1.30    0.90
   7   3  -1    0.00    1.00
  -7  -2   1   16.00    2.10
   7   2  -1   13.20    1.90
  -7  -1   1    1.40    0.90
   7   1  -1   -1.30    0.90
  -7   0   1    1.90    1.10
   7   0  -1    2.10    1.20
  -7   1   1    3.40    1.30
   7  -1  -1    3.80    1.40
  -7   2   1   13.80    2.10
   7  -2  -1   11.00    1.70
  -7   3   1   38.80    3.90
  -7   3   1   27.00    3.60
   7  -3  -1   32.30    2.90
  -6  -9   1    0.20    2.80
   6   9  -1   -1.00    1.60
  -6  -8   1    0.10    2.20
  -6  -8   1   -1.50    1.50
   6   8  -1    0.90    1.50
  -6  -7   1   15.50    1.70
   6   7  -1   17.60    2.00
  -6  -6   1   55.89    2.70
   6   6  -1   41.60    3.50
  -6  -5   1  292.77    9.00
  -6  -5   1  277.67   34.50
   6   5  -1  253.67   38.40
   6   5  -1  296.97    9.70
  -6  -4   1    4.10    0.90
  -6  -4   1   19.40   19.10
   6   4  -1   13.30   19.10
   6   4  -1    5.90    1.20
  -6  -3   1   14.90    1.40
  -6  -3   1   21.70   18.80
   6   3  -1    3.40   18.80
   6   3  -1   13.20    1.70
  -6  -2   1    8.80    1.20
  -6  -2   1   40.40   19.00
   6   2  -1    6.90    1.10
   6   2  -1    8.80   20.00
  -6  -1   1   10.20    1.30
  -6  -1   1    1.10   19.60
   6   1  -1    8.50    1.30
   6   1  -1    7.00   20.90
  -6   0   1   32.40    2.30
   6   0  -1   31.10    2.30
  -6   1   1    0.80    1.10
   6  -1  -1    0.80    1.00
  -6   2   1    0.00    1.00
   6  -2  -1    1.40    1.10
  -6   3   1    0.80    1.30
  -6   3   1    2.20    1.30
   6  -3  -1    2.00    1.00
  -6   4   1    7.40    1.70
  -6   4   1   -1.90    1.70
   6  -4  -1    2.40    1.40
  -5  -9   1   -2.10    2.70
   5   9  -1    0.90    1.50
  -5  -8   1    8.90    2.00
  -5  -8   1   11.90    1.80
   5   8  -1   10.30    1.70
  -5  -7   1    7.80    2.60
  -5  -7   1   10.40    1.40
  -5  -6   1   39.10    2.70
  -5  -6   1   39.70    2.10
  -5  -6   1   49.90   21.00
   5   6  -1   40.30    2.50
   5   6  -1   42.40   21.70
  -5  -5   1  466.05   39.00
  -5  -5   1  475.85   14.50
  -5  -5   1  477.45   13.60
   5   5  -1  480.25   14.30
   5   5  -1  463.15   42.00
  -5  -4   1   77.19   16.50
  -5  -4   1   98.09    3.60
   5   4  -1  102.09    4.10
   5   4  -1   92.99   22.30
  -5  -3   1   22.80   13.70
  -5  -3   1   11.20    1.10
   5   3  -1   10.40    1.20
   5   3  -1   15.60   15.20
  -5  -2   1   15.50    1.30
  -5  -2   1   33.10   13.00
   5   2  -1   22.00   14.90
   5   2  -1   15.00    1.60
   5   2  -1   15.30    1.00
  -5  -1   1   12.90    1.30
  -5  -1   1    3.70   14.30
   5   1  -1   11.40    1.40
   5   1  -1   11.60    0.70
   5   1  -1    8.70   13.90
  -5   0   1    0.00    0.60
  -5   0   1  -15.10   15.60
   5   0  -1   13.40   16.10
  -5   1   1    2.30    0.80
  -5   1   1  -20.50   16.10
   5  -1  -1    1.60    0.70
   5  -1  -1  -18.90   21.60
  -5   2   1    4.10    1.00
   5  -2  -1    4.30    1.10
  -5   3   1   30.70    2.50
  -5   3   1   35.20    2.70
   5  -3  -1   33.60    2.30
  -5   4   1    5.80    1.40
  -5   4   1    3.30    1.20
   5  -4  -1    4.50    1.20
  -5   5   1    0.80    1.60
  -5   5   1    0.40    1.60
  -4  -9   1    1.70    2.50
   4   9  -1    0.00    1.60
  -4  -8   1    7.20    1.60
  -4  -8   1    5.40    1.70
   4   8  -1    6.90    1.40
  -4  -7   1    0.20    1.00
  -4  -7   1  -35.80   22.40
  -4  -7   1    1.00    0.70
   4   7  -1    1.20    1.00
   4   7  -1   -8.80   20.80
  -4  -6   1    0.70    0.60
  -4  -6   1  -19.20   17.60
  -4  -6   1    0.60    1.00
   4   6  -1   -1.20    0.70
   4   6  -1    6.60   18.10
   4   6  -1    0.40    0.50
  -4  -5   1    0.10   14.10
  -4  -5   1    5.60    0.80
  -4  -5   1    7.20    1.20
   4   5  -1    5.80    1.00
   4   5  -1    4.40   10.30
  -4  -4   1    9.40   12.40
  -4  -4   1    5.20    1.00
  -4  -4   1    3.60    0.60
   4   4  -1    5.10    0.90
   4   4  -1    1.70   11.60
  -4  -3   1   39.70    1.80
  -4  -3   1   42.10    2.40
  -4  -3   1   37.30   12.30
   4   3  -1   37.60    2.00
   4   3  -1   37.00   13.70
  -4  -2   1   81.59   16.30
  -4  -2   1   99.99    3.50
   4   2  -1   96.79    3.20
   4   2  -1   99.49    3.70
   4   2  -1  118.09   19.70
  -4  -1   1   82.39   13.40
  -4  -1   1   71.09    2.80
   4   1  -1   69.79    2.30
   4   1  -1   73.89    3.00
   4   1  -1   73.29   15.10
  -4   0   1   -0.50    0.40
  -4   0   1   -1.90   11.50
   4   0  -1    0.30    0.50
   4   0  -1    9.80   11.00
  -4   1   1  -12.90   12.10
  -4   1   1    8.20    1.00
   4  -1  -1   13.20   14.40
   4  -1  -1    8.90    1.00
  -4   2   1    0.30    0.60
  -4   2   1   -2.80   14.10
   4  -2  -1   -0.90    0.60
   4  -2  -1   22.50   17.10
  -4   3   1   66.39    3.10
  -4   3   1   61.39    3.10
  -4   3   1   62.79   17.80
   4  -3  -1   67.09    3.10
   4  -3  -1   61.89   21.90
  -4   4   1    0.00    0.90
  -4   4   1    1.80    1.00
   4  -4  -1    0.00    0.80
  -4   5   1    7.10    1.50
  -4   6   1   -0.10    1.50
  -4   6   1   -0.20    1.20
  -3  -9   1    8.20    2.40
   3   9  -1    4.80    1.90
  -3  -8   1  -54.09   27.90
  -3  -8   1   -1.50    1.50
   3   8  -1   -1.70    1.20
   3   8  -1  -27.50   26.00
  -3  -7   1    9.10    1.70
  -3  -7   1   37.60   20.60
  -3  -7   1    5.70    0.90
   3   7  -1    8.90    1.00
   3   7  -1    9.80    1.40
   3   7  -1   20.80   18.90
  -3  -6   1   13.20   15.40
  -3  -6   1    5.70    1.30
  -3  -6   1    4.50    0.70
   3   6  -1    7.90    1.20
   3   6  -1    5.70    0.70
  -3  -5   1  118.89    4.50
  -3  -5   1  157.48   21.50
  -3  -5   1  115.79    3.80
  -3  -5   1  108.59    3.90
   3   5  -1  113.89    4.30
   3   5  -1  116.09    3.90
   3   5  -1  115.09   18.40
  -3  -4   1   36.90    1.60
  -3  -4   1   21.30   11.70
  -3  -4   1   38.70    2.00
  -3  -4   1   34.70    1.70
   3   4  -1   37.90    1.90
   3   4  -1   28.40   11.00
   3   4  -1   37.50    1.70
  -3  -3   1    1.40    7.10
  -3  -3   1    1.40    0.40
  -3  -3   1    1.20    0.60
  -3  -3   1    1.30    0.50
   3   3  -1    0.40    0.40
   3   3  -1    0.80    0.50
   3   3  -1   -3.00    6.00
  -3  -2   1    2.10    0.50
  -3  -2   1    1.70    0.40
  -3  -2   1    4.70    8.50
   3   2  -1    1.50    0.40
   3   2  -1   -0.50    7.50
   3   2  -1    1.50    0.40
   3   2  -1    1.30    0.40
  -3  -1   1  258.27    7.40
  -3  -1   1  236.48    7.40
  -3  -1   1  270.97   22.50
   3   1  -1  258.27   22.50
   3   1  -1  247.28    7.30
   3   1  -1  252.17    7.00
   3   1  -1  258.57    7.50
  -3   0   1 1047.50   28.70
  -3   0   1  990.50   28.70
  -3   0   1 1206.98   53.99
   3   0  -1 1024.20   29.20
   3   0  -1 1131.59   51.39
  -3   1   1   72.79   13.90
  -3   1   1   61.69    2.50
   3  -1  -1   59.59    2.50
   3  -1  -1   59.99   14.40
   3  -1  -1   60.79    1.80
  -3   2   1   53.09    2.40
  -3   2   1   47.60   12.50
   3  -2  -1   57.49    1.80
   3  -2  -1   57.09    2.40
   3  -2  -1   58.99   15.40
  -3   3   1   17.80    1.50
  -3   3   1   20.90    1.50
  -3   3   1   19.10    1.30
  -3   3   1   21.00   12.40
   3  -3  -1   -4.00   14.90
   3  -3  -1   18.20    1.00
   3  -3  -1   19.80    1.40
  -3   4   1  -14.80   17.30
   3  -4  -1   -4.40   21.20
  -3   5   1   51.09    2.80
  -3   5   1   50.49    2.90
   3  -5  -1   49.99    2.40
   3  -5  -1   26.30   19.20
  -3   6   1    1.70    1.20
  -3   6   1    1.50    1.00
  -3   7   1    0.40    1.50
  -3   7   1   -3.20    1.60
  -2  -9   1    4.20    2.70
   2   9  -1   -0.50    1.60
  -2  -8   1   83.89    4.60
  -2  -8   1   82.19   29.50
   2   8  -1   83.29    4.20
   2   8  -1   15.50   29.20
  -2  -7   1   -0.70   18.50
  -2  -7   1    1.50    1.30
   2   7  -1    0.70    0.90
   2   7  -1    0.10    0.60
   2   7  -1   -1.90   19.50
  -2  -6   1  -10.10   14.90
  -2  -6   1    0.50    0.80
  -2  -6   1   -0.10    0.80
   2   6  -1   -0.10    0.60
   2   6  -1   -4.70   11.20
   2   6  -1    1.60    0.70
  -2  -5   1   22.80   12.10
  -2  -5   1    7.20    1.00
  -2  -5   1    7.90    1.10
   2   5  -1    8.60    1.10
   2   5  -1    8.40    0.90
   2   5  -1   -2.10   10.30
  -2  -4   1   35.70    9.90
  -2  -4   1   39.90    1.70
  -2  -4   1   38.00    2.00
   2   4  -1   40.10    1.70
   2   4  -1   41.10    2.00
   2   4  -1   38.30   10.80
  -2  -3   1  664.33   18.70
  -2  -3   1  666.63   18.30
  -2  -3   1  683.03   18.80
  -2  -3   1  690.23   18.40
  -2  -3   1  684.33   35.60
   2   3  -1  717.63   34.90
   2   3  -1  679.13   18.40
   2   3  -1  658.03   18.70
   2   3  -1  698.13   18.90
  -2  -2   1  129.99    4.20
  -2  -2   1  131.29    3.90
  -2  -2   1  128.69    4.20
  -2  -2   1  134.79    4.00
  -2  -2   1  127.09   14.30
   2   2  -1  145.99   13.70
   2   2  -1  133.89    3.90
   2   2  -1  129.19    4.10
  -2  -1   1  231.18    6.70
  -2  -1   1  244.78   18.30
  -2  -1   1  229.98    6.60
   2   1  -1  239.08    6.60
   2   1  -1  231.68   17.70
   2   1  -1  228.38    6.70
   2   1  -1  228.88    6.50
  -2   0   1 1407.36   39.40
  -2   0   1 1618.84   59.09
  -2   0   1 1408.66   39.50
   2   0  -1 1481.65   39.50
   2   0  -1 1446.06   39.50
   2   0  -1 1612.94   58.49
  -2   1   1  746.43   20.80
  -2   1   1  819.32   39.10
  -2   1   1  781.92   20.80
   2  -1  -1  763.32   20.80
   2  -1  -1  736.83   20.40
   2  -1  -1  774.32   20.80
   2  -1  -1  778.82   38.80
  -2   2   1   -0.50    0.40
  -2   2   1  -10.90    7.60
  -2   2   1    0.10    0.40
  -2   2   1    0.30    0.40
   2  -2  -1   -4.80    9.50
   2  -2  -1    0.30    0.30
   2  -2  -1   -0.40    0.60
   2  -2  -1   -0.40    0.30
  -2   3   1    0.00    0.40
  -2   3   1    0.60    0.50
  -2   3   1    0.50    0.50
  -2   3   1    1.10    7.50
   2  -3  -1    0.10    0.40
   2  -3  -1   22.50   12.80
   2  -3  -1    0.30    0.30
   2  -4  -1   -5.20   15.40
  -2   5   1    1.40    0.80
  -2   5   1    0.70    0.70
   2  -5  -1    2.40    0.70
   2  -5  -1   14.00   23.00
   2  -5  -1    0.60   14.90
  -2   6   1   -0.20    0.90
  -2   6   1    0.90    0.90
   2  -6  -1    0.40    1.00
  -2   7   1   -1.90    1.20
   2  -7  -1   -2.10    1.30
  -2   8   1    4.40    1.80
  -2   8   1    3.80    1.70
  -1  -9   1   -1.20    2.70
   1   9  -1    2.60    1.90
  -1  -8   1  238.38    8.90
   1   8  -1  224.48    8.30
  -1  -7   1   58.39    3.50
  -1  -7   1   72.09   20.60
   1   7  -1   50.79    2.50
   1   7  -1   56.49    3.00
   1   7  -1   28.20   22.10
  -1  -6   1   20.70    1.90
  -1  -6   1   52.19   15.50
   1   6  -1   18.70    1.70
   1   6  -1   19.00   15.10
  -1  -5   1   -1.50   11.70
  -1  -5   1   -0.80    0.50
  -1  -5   1   -0.40    0.50
   1   5  -1    0.50    0.60
   1   5  -1    0.50    0.50
  -1  -4   1   10.70    1.00
  -1  -4   1   10.70    7.80
  -1  -4   1    9.90    0.80
   1   4  -1   10.00    1.00
   1   4  -1    6.40    8.40
   1   4  -1   10.40    0.80
  -1  -3   1  161.48   15.40
  -1  -3   1  150.88    4.30
  -1  -3   1  148.49    4.80
  -1  -3   1  143.99    4.70
   1   3  -1  156.28   15.30
   1   3  -1  147.59    4.30
   1   3  -1  142.99    4.70
   1   3  -1  146.69    4.70
  -1  -2   1   37.00    7.30
  -1  -2   1   35.80    1.20
  -1  -2   1   34.80    1.20
  -1  -2   1   34.90    1.40
  -1  -2   1   34.70    1.50
   1   2  -1   35.50    6.80
   1   2  -1   33.80    1.20
   1   2  -1   34.70    1.40
   1   2  -1   32.50    1.40
  -1  -1   1  160.38    4.40
  -1  -1   1  158.78    4.60
  -1  -1   1  162.48   12.00
   1   1  -1  147.29    4.60
   1   1  -1  163.88    4.40
   1   1  -1  160.78   12.00
  -1   0   1  617.84   26.40
  -1   0   1  544.35   15.50
  -1   0   1  567.64   15.50
   1   0  -1  566.44   15.50
   1   0  -1  571.74   15.50
   1   0  -1  639.74   26.90
  -1   1   1    3.10    0.40
  -1   1   1    3.40    4.40
  -1   1   1    3.10    0.40
  -1   1   1    3.90    0.40
   1  -1  -1   -1.00    3.40
   1  -1  -1    3.30    0.40
   1  -1  -1    3.00    0.40
   1  -1  -1    3.10    0.30
  -1   2   1    9.50    0.70
  -1   2   1    6.60    6.30
  -1   2   1    8.10    0.70
  -1   2   1    9.20    0.70
  -1   2   1    7.90    0.60
   1  -2  -1    9.00    0.60
   1  -2  -1    7.60    5.00
   1  -2  -1    8.50    0.60
   1  -2  -1    9.20    0.70
  -1   3   1  136.49   17.10
  -1   3   1  147.09    4.50
  -1   3   1  147.99    4.60
  -1   3   1  147.39    4.50
  -1   3   1  130.39    4.90
   1  -3  -1  131.59   16.30
   1  -3  -1  140.89    4.50
   1  -3  -1  147.09    4.50
  -1   4   1  125.69    4.30
  -1   4   1  119.69    4.10
   1  -4  -1   92.59   19.70
   1  -4  -1  117.69    4.00
   1  -4  -1  104.49   18.50
  -1   5   1   82.99    3.50
  -1   5   1   82.79    3.40
   1  -5  -1  119.79   25.00
   1  -5  -1   86.89    3.30
   1  -5  -1   73.59   15.30
  -1   6   1   -1.30    0.80
  -1   6   1   -0.90    0.80
   1  -6  -1   23.70   23.80
   1  -6  -1    0.00    0.80
   1  -6  -1  -16.20   16.00
   1  -7  -1   36.30   22.00
  -1   8   1    0.30    1.40
  -1   8   1    1.80    1.50
   1  -8  -1    5.70    1.80
   0  -9   1    2.00    3.10
   0   9  -1   -1.30    1.80
   0  -8   1   16.50    3.00
   0   8  -1   19.10    2.50
   0  -7   1  -14.80   21.60
   0  -6   1   -9.50   15.00
   0   6  -1    8.40    1.30
   0  -5   1    5.50    1.00
   0  -5   1    1.90   12.00
   0  -5   1    4.90    0.70
   0   5  -1   15.90   11.90
   0   5  -1    5.70    0.90
   0   5  -1    6.00    0.80
   0  -4   1   56.79    2.00
   0  -4   1   51.09   13.30
   0  -4   1   56.59    2.50
   0   4  -1   57.49    2.20
   0   4  -1   48.80   12.20
   0   4  -1   55.89    2.40
   0  -3   1   -3.60    5.70
   0  -3   1    2.10    0.60
   0  -3   1    2.60    0.40
   0  -3   1    2.80    0.60
   0   3  -1    2.20    0.50
   0   3  -1    2.80    0.60
   0   3  -1    3.00    5.60
   0   3  -1    2.60    0.40
   0  -2   1  350.66   19.10
   0  -2   1  341.17    9.20
   0  -2   1  348.37    9.60
   0  -2   1  340.07    9.70
   0   2  -1  335.07    9.30
   0   2  -1  339.47    9.60
   0   2  -1  355.76    9.60
   0   2  -1  336.37   18.40
   0  -1   1   93.29    2.70
   0  -1   1   78.49    6.70
   0  -1   1   80.99    2.50
   0   1  -1   78.39    2.50
   0   1  -1   83.19    2.60
   0   1  -1   77.09    6.50
   0   1   1    0.10    0.20
   0   1   1    0.50    0.10
   0   1   1    0.30    0.10
   0   1   1   -3.10    2.20
   0   1   1    0.40    0.20
   0  -1  -1    0.60    0.20
   0  -1  -1    0.70    2.50
   0  -1  -1    0.30    0.10
   0  -1  -1    0.40    0.20
   0   2   1    0.50    0.20
   0   2   1    0.80    0.30
   0   2   1    0.70    0.20
   0   2   1    0.70    0.30
   0  -2  -1    0.60    4.60
   0  -2  -1    0.40    0.30
   0  -2  -1    0.20    0.20
   0  -2  -1    0.70    0.30
   0   3   1   66.89    2.50
   0   3   1   68.79    2.50
   0   3   1   69.49    2.40
   0   3   1   71.49    2.40
   0  -3  -1   63.79   11.00
   0  -3  -1   68.49    2.40
   0  -3  -1   70.39   12.90
   0  -3  -1   67.39    2.40
   0  -3  -1   68.69    2.50
   0   4   1    1.20    0.50
   0   4   1    1.60    0.50
   0   4   1    1.90    0.50
   0  -4  -1    2.20    0.50
   0  -4  -1    0.80    0.50
   0  -4  -1   -1.20    7.50
   0  -4  -1   23.10    9.10
   0   5   1  181.28    6.10
   0   5   1  184.48    5.90
   0  -5  -1  188.28    6.10
   0  -5  -1  201.58   28.10
   0  -5  -1  171.78   18.90
   0   6   1    1.30    0.70
   0   6   1    2.20    0.80
   0  -6  -1   -6.00   13.90
   0  -6  -1   -7.80   15.40
   0  -6  -1    1.80    0.80
   0   7   1    2.30    1.00
   0   7   1    2.30    0.80
   0  -7  -1  -14.10   19.40
   0  -7  -1    1.70    1.00
   0   8   1   -0.20    1.10
   0   8   1    0.50    1.30
   0  -8  -1    0.20    1.40
   0   9   1    0.20    1.60
   0  -9  -1    0.60    2.10
   1  -8   1    1.50    2.40
  -1   8  -1    1.40    1.50
   1  -7   1    0.00    1.60
  -1   7  -1    0.70    0.90
  -1   7  -1    2.60    1.40
   1  -6   1    2.60    1.20
   1  -6   1   12.30   16.90
   1  -6   1   13.20   36.80
  -1   6  -1    2.50    0.70
  -1   6  -1    4.70    1.10
   1  -5   1    5.40    1.00
   1  -5   1   14.70   17.60
   1  -5   1  -11.20   12.90
  -1   5  -1    4.90    1.00
  -1   5  -1    5.40    0.80
   1  -4   1   24.60    1.60
   1  -4   1   37.30   13.10
   1  -4   1   30.40   11.70
   1  -4   1   21.50    1.20
  -1   4  -1   24.10    1.40
  -1   4  -1   22.30    1.50
   1  -3   1  149.49    4.70
   1  -3   1  139.99    4.30
   1  -3   1  134.09   16.80
   1  -3   1  145.09   15.00
  -1   3  -1  142.19    4.40
  -1   3  -1  140.19    4.50
  -1   3  -1  145.49    4.70
   1  -2   1   25.00    1.20
   1  -2   1   26.40    1.30
   1  -2   1   24.90    1.00
   1  -2   1   23.30    6.10
  -1   2  -1   23.60    1.20
  -1   2  -1   24.20    1.00
  -1   2  -1   24.20    1.30
  -1   2  -1   25.70    1.20
   1  -1   1  813.02   29.30
   1  -1   1  779.02   27.80
   1  -1   1  792.92   20.90
   1  -1   1  751.02   20.90
   1  -1   1  775.52   20.70
  -1   1  -1  782.82   20.90
  -1   1  -1  777.02   20.90
   1   0   1  319.77    8.80
   1   0   1  334.47    8.70
   1   0   1  319.67   10.90
  -1   0  -1  321.57    8.70
  -1   0  -1  319.57    8.80
  -1   0  -1  319.57    8.70
  -1   0  -1  339.77   11.00
   1   1   1    1.00    1.40
   1   1   1    1.70    0.20
   1   1   1    1.50    0.30
   1   1   1    1.70    0.20
  -1  -1  -1    1.80    0.20
  -1  -1  -1    1.70    0.20
  -1  -1  -1    1.30    0.20
  -1  -1  -1    0.80    1.20
   1   2   1 1867.91   59.19
  -1  -2  -1 1883.11   59.49
   1   3   1  434.06   12.10
   1   3   1  424.56   12.00
   1   3   1  430.86   11.80
   1   3   1  441.56   24.00
  -1  -3  -1  437.96   11.80
  -1  -3  -1  412.06   12.00
  -1  -3  -1  426.56   11.90
  -1  -3  -1  441.56   24.10
   1   4   1   79.39    2.80
   1   4   1   80.79    3.00
   1   4   1   82.99   14.50
  -1  -4  -1   78.49    2.90
  -1  -4  -1   65.69   11.50
  -1  -4  -1   79.29    3.00
  -1  -4  -1   79.99    2.80
   1   5   1   28.80    1.70
   1   5   1   28.30    1.50
  -1  -5  -1   25.70   10.60
  -1  -5  -1   30.60    1.70
  -1  -6  -1   21.30   10.00
  -1  -6  -1   11.80   17.30
   1   7   1    8.70    1.20
   1   7   1   10.90    1.50
  -1  -7  -1    4.20   23.30
  -1  -7  -1   21.20   18.80
  -1  -7  -1    8.50    1.50
  -1  -8  -1   16.90   26.10
   1   9   1    4.00    1.40
   1   9   1    5.60    1.60
  -1  -9  -1    2.40    1.60
  -2   8  -1   -1.40    1.80
   2  -7   1   -1.80    2.20
  -2   7  -1    1.10    1.30
  -2   7  -1    0.00    1.10
  -2   6  -1   10.20    1.40
  -2   6  -1   13.90    2.00
   2  -5   1    3.10    1.30
   2  -5   1   -4.30   18.90
   2  -5   1   -0.40   15.10
  -2   5  -1    2.00    0.80
   2  -4   1   24.20   11.80
   2  -4   1    9.30   13.50
   2  -3   1  468.85   14.00
   2  -3   1  508.75   34.70
   2  -3   1  514.85   29.90
  -2   3  -1  512.25   14.20
  -2   3  -1  490.85   13.80
   2  -2   1  213.88   16.60
   2  -2   1  206.48    6.10
  -2   2  -1  205.58    6.10
  -2   2  -1  211.18    6.00
   2  -1   1   49.20    8.40
   2  -1   1   53.59    1.90
   2  -1   1   50.59    2.00
  -2   1  -1   53.49    1.90
  -2   1  -1   54.29    2.10
  -2   1  -1   55.39    1.70
  -2   1  -1   53.69    2.00
  -2   1  -1   47.20    8.30
   2   0   1  815.52   29.30
   2   0   1  727.53   20.60
  -2   0  -1  752.12   20.50
  -2   0  -1  733.83   20.60
  -2   0  -1  829.42   29.40
   2   1   1    1.70    0.30
   2   1   1    1.70    0.30
   2   1   1    1.90    0.30
   2   1   1    1.40    0.30
   2   1   1    0.10    2.40
  -2  -1  -1    2.40    2.90
  -2  -1  -1    2.30    0.30
  -2  -1  -1    1.70    0.30
  -2  -1  -1    1.50    0.30
  -2  -1  -1    1.80    0.30
   2   2   1   37.60    1.50
  -2  -2  -1   36.90    1.40
  -2  -2  -1   35.70    1.50
  -2  -2  -1   35.30    1.40
  -2  -2  -1   24.20    5.20
   2   3   1    8.10    0.70
   2   3   1    8.00    0.70
   2   3   1    3.70    4.50
   2   3   1    8.50    0.80
  -2  -3  -1    9.80    0.80
  -2  -3  -1    7.90    0.70
  -2  -3  -1    6.30    5.10
  -2  -3  -1    8.40    0.70
   2   4   1   15.80    1.10
   2   4   1   14.60    1.10
   2   4   1    3.00    7.20
  -2  -4  -1   15.60    1.20
  -2  -4  -1   16.30    1.10
  -2  -4  -1   14.40    1.00
  -2  -4  -1    9.20    6.40
   2   5   1   92.39    3.40
   2   5   1   86.09    3.30
   2   5   1  115.49   16.70
  -2  -5  -1   63.69   12.70
  -2  -5  -1   90.59    3.50
   2   6   1    4.40    0.80
   2   6   1    7.30    1.10
   2   6   1  -10.90   10.00
  -2  -6  -1   13.60   12.00
  -2  -6  -1    6.30    1.10
   2   7   1   -0.70   19.00
   2   7   1    1.90    0.90
  -2  -7  -1   -5.90   17.00
   2   8   1    0.20    0.90
   2   8   1   -0.10    1.00
  -2  -8  -1   11.50   22.70
  -2  -8  -1   -0.80    1.00
  -2  -8  -1  -37.00   30.70
   2   9   1   11.50    1.90
   2   9   1    9.40    1.50
  -2  -9  -1   11.40    2.10
   2  10   1   51.99    4.30
  -2 -10  -1   60.29    4.40
  -3   6  -1   12.30    1.60
  -3   6  -1    8.40    1.60
  -3   5  -1    5.40    0.90
  -3   5  -1    6.40    1.20
   3  -4   1   -1.20    1.00
   3  -4   1    2.90   18.50
   3  -4   1  -14.50   12.20
  -3   4  -1   -0.30    0.70
  -3   4  -1    0.70    0.60
   3  -3   1   -6.30   11.40
   3  -3   1    8.30    1.10
   3  -2   1   53.89   14.10
   3  -2   1   76.89    3.00
  -3   2  -1   85.99   15.30
  -3   2  -1   76.69    2.50
  -3   2  -1   77.99    3.10
  -3   2  -1   77.69    2.90
   3  -1   1   43.20   10.50
   3  -1   1   55.59    2.30
   3  -1   1   58.39    2.40
  -3   1  -1   56.79    1.70
  -3   1  -1   53.69   10.30
   3   0   1   98.99    3.30
   3   0   1   97.69   12.00
  -3   0  -1  111.29   13.30
  -3   0  -1  101.39    3.50
  -3   0  -1  104.29    3.40
   3   1   1  597.04   16.60
   3   1   1  611.84   28.20
   3   1   1  604.14   16.50
   3   1   1  609.64   16.20
  -3  -1  -1  597.24   16.60
  -3  -1  -1  599.44   16.50
  -3  -1  -1  580.24   16.10
  -3  -1  -1  593.84   16.50
  -3  -1  -1  658.33   30.00
   3   2   1  877.31   35.20
   3   2   1  813.22   22.40
   3   2   1  825.22   22.50
   3   2   1  818.82   22.30
  -3  -2  -1  836.12   22.60
  -3  -2  -1  816.32   22.40
  -3  -2  -1  824.72   22.40
  -3  -2  -1  827.22   22.30
  -3  -2  -1  854.01   35.90
   3   3   1    2.60    0.60
   3   3   1    2.10    0.40
   3   3   1    1.80    0.50
   3   3   1   -1.20    5.10
  -3  -3  -1    5.50    5.80
  -3  -3  -1    3.20    0.60
  -3  -3  -1    2.20    0.50
  -3  -3  -1    2.20    0.50
  -3  -3  -1    2.80    0.50
   3   4   1   51.99   11.30
   3   4   1   59.79    2.40
   3   4   1   57.19    2.60
  -3  -4  -1   59.79    2.40
  -3  -4  -1   56.29    2.40
  -3  -4  -1   55.19    2.40
  -3  -4  -1   80.49   13.20
   3   5   1  112.09    3.90
   3   5   1  111.99    4.00
   3   5   1  101.09   17.10
  -3  -5  -1  107.49    4.10
  -3  -5  -1  108.09   15.00
   3   6   1    9.80   13.60
   3   6   1   30.30    1.80
   3   6   1   32.90    1.90
  -3  -6  -1   35.60   12.90
  -3  -6  -1   32.60    2.00
   3   7   1    3.50    0.90
   3   7   1    3.30    0.80
   3   7   1  -13.00   16.30
  -3  -7  -1    3.90    1.00
  -3  -7  -1   15.20   16.10
   3   8   1   30.40   26.20
  -3  -8  -1   18.00   34.80
   3   9   1    1.30    1.70
   3   9   1    0.40    1.20
  -3  -9  -1   -1.30    1.40
   3  10   1   28.20    3.40
  -3 -10  -1   33.60    3.70
  -4   6  -1    2.10    1.30
  -4   6  -1    1.60    1.50
  -4   5  -1    2.50    1.10
  -4   5  -1    0.30    1.20
   4  -4   1   -0.80    0.80
  -4   4  -1    0.50    0.80
  -4   4  -1   -0.70    0.80
   4  -3   1   37.50   20.40
   4  -3   1   71.39    3.30
  -4   3  -1   71.79    3.10
  -4   3  -1   72.79    3.40
  -4   3  -1   68.09    2.50
   4  -2   1   -1.10   14.20
   4  -2   1    4.20    0.90
  -4   2  -1    5.50    0.90
  -4   2  -1    7.50    0.90
  -4   2  -1    2.50   13.50
  -4   2  -1    5.10    0.60
   4  -1   1   -3.30    9.60
  -4   1  -1   12.90    9.90
   4   0   1    1.90    0.50
   4   0   1    0.90    8.60
  -4   0  -1    2.10    0.50
  -4   0  -1    3.60    7.90
   4   1   1  206.28   19.20
   4   1   1  213.18    6.60
   4   1   1  213.28    6.00
  -4  -1  -1  216.28   20.00
  -4  -1  -1  209.58    5.80
  -4  -1  -1  217.28    6.50
   4   2   1 1356.76   36.40
   4   2   1 1408.96   54.59
   4   2   1 1340.37   36.00
  -4  -2  -1 1413.46   55.89
  -4  -2  -1 1274.37   35.90
  -4  -2  -1 1343.27   36.30
   4   3   1   43.50    2.00
   4   3   1   42.00    2.00
   4   3   1   40.10    1.80
  -4  -3  -1   43.70   12.80
  -4  -3  -1   41.30    1.90
  -4  -3  -1   41.50    1.80
   4   4   1   22.60    8.50
  -4  -4  -1   -5.10    7.90
   4   5   1    9.70    1.10
   4   5   1   10.80    1.10
   4   5   1   12.60    8.60
  -4  -5  -1    8.90    1.00
  -4  -5  -1    9.20    1.10
  -4  -5  -1    2.80   10.20
   4   6   1   17.80    1.60
   4   6   1   31.50   11.50
   4   6   1   19.90    1.50
  -4  -6  -1   16.40   12.80
  -4  -6  -1   19.60    1.60
   4   7   1   32.10    2.00
   4   7   1   30.30    2.10
   4   7   1   28.60   18.40
  -4  -7  -1   45.30   13.90
  -4  -7  -1   32.30    2.30
   4   8   1    4.10    1.10
   4   8   1    4.80    0.90
  -4  -8  -1    6.50    1.50
   4   9   1    0.20    1.20
   4   9   1   -0.70    1.10
  -4  -9  -1    0.90    1.40
   4  10   1    2.70    1.90
  -4 -10  -1   -1.70    2.00
  -5   5  -1    0.90    1.20
  -5   5  -1   -0.90    1.50
   5  -4   1    1.10    1.10
  -5   4  -1    2.70    1.30
  -5   4  -1    0.50    1.00
   5  -3   1   29.60    2.40
  -5   3  -1   29.30    2.10
  -5   3  -1   28.40    2.40
   5  -2   1    8.70    1.30
   5  -2   1  -14.20   17.30
  -5   2  -1    8.10    1.20
  -5   2  -1   24.60   15.80
  -5   2  -1    9.30    1.40
   5  -1   1  118.39   22.70
   5  -1   1  130.19    4.80
  -5   1  -1  127.79    4.60
  -5   1  -1  103.39   20.30
   5   0   1   15.80   12.30
   5   0   1   21.10    1.60
  -5   0  -1   -1.60   12.80
  -5   0  -1   21.10    1.50
   5   1   1   38.70   12.60
   5   1   1   46.60    2.30
  -5  -1  -1   55.39   15.00
  -5  -1  -1   46.40    2.20
   5   2   1    1.00    0.60
   5   2   1   -0.80    9.10
   5   2   1    0.40    0.50
  -5  -2  -1   -4.90   10.00
  -5  -2  -1    0.60    0.30
  -5  -2  -1   -0.20    0.50
   5   3   1    1.80    0.60
   5   3   1    4.40   10.40
   5   3   1    0.50    0.50
  -5  -3  -1    0.90   11.50
  -5  -3  -1    1.20    0.50
  -5  -3  -1    0.90    0.40
   5   4   1   21.00    1.50
   5   4   1   23.10    1.60
   5   4   1   20.00   11.90
  -5  -4  -1   30.70   10.80
  -5  -4  -1   21.70    1.40
  -5  -4  -1   23.10    1.40
   5   5   1    2.70    0.80
   5   5   1  -14.40   11.60
   5   5   1    1.80    0.80
  -5  -5  -1   15.40   11.30
  -5  -5  -1    2.00    0.70
  -5  -5  -1    2.40    0.70
   5   6   1    0.60    0.70
   5   6   1   -2.10   16.50
   5   6   1    0.30    0.80
  -5  -6  -1    0.40    0.70
  -5  -6  -1    0.10    0.70
  -5  -6  -1    9.50   14.10
   5   7   1   -8.30   18.70
   5   7   1    0.40    0.80
   5   7   1   -0.30    0.80
  -5  -7  -1    0.40    0.80
  -5  -7  -1   20.00   18.10
  -5  -7  -1   -1.30    0.80
   5   8   1    1.30    1.20
   5   8   1    0.80    0.90
  -5  -8  -1   -1.10    0.90
  -5  -8  -1    0.40    1.10
   5   9   1    2.10    1.30
   5   9   1    1.90    1.40
  -5  -9  -1   -1.60    1.20
  -5  -9  -1    0.30    1.70
   5  10   1   -0.40    1.80
  -5 -10  -1    1.30    2.10
   6  -4   1    1.20    1.40
  -6   4  -1    1.10    1.70
  -6   4  -1    0.60    1.40
   6  -3   1    5.30    1.50
  -6   3  -1    6.30    1.40
  -6   3  -1    5.30    1.40
   6  -2   1    0.70    0.90
  -6   2  -1    3.10    1.30
   6  -1   1   78.39    3.70
  -6   1  -1   79.19    3.60
   6   0   1    2.00    0.70
   6   0   1   -5.60   17.40
  -6   0  -1    1.70    0.80
  -6   0  -1   -1.20   17.20
   6   1   1    3.80   14.60
   6   1   1    4.90    0.90
  -6  -1  -1  -12.80   16.70
  -6  -1  -1    4.00    0.80
   6   2   1   -3.60   14.20
   6   2   1    0.20    0.70
   6   2   1   -0.20    0.50
  -6  -2  -1    0.20    0.50
  -6  -2  -1  -21.30   15.60
  -6  -2  -1    0.00    0.70
  -6  -2  -1   -0.60    0.50
   6   3   1   52.09    2.70
   6   3   1   46.70    2.20
   6   3   1   51.99   14.50
  -6  -3  -1   49.50    2.10
  -6  -3  -1   49.70    2.40
  -6  -3  -1   35.10   14.60
   6   4   1    0.50    0.70
  -6  -4  -1    0.40    0.50
  -6  -4  -1    0.50    0.70
   6   5   1    2.50   13.80
   6   5   1    0.40    0.70
  -6  -5  -1    0.00    0.70
  -6  -5  -1   -2.90   16.10
  -6  -5  -1   -1.00    0.60
   6   6   1   20.60    1.90
   6   6   1   19.60   19.10
   6   6   1   22.60    1.90
  -6  -6  -1   40.30   18.00
  -6  -6  -1   19.40    1.70
  -6  -6  -1   21.90    1.70
   6   7   1  212.78    7.40
   6   7   1  203.58    7.10
  -6  -7  -1  208.78    7.00
  -6  -7  -1  203.18    7.40
   6   8   1   20.30    2.30
   6   8   1   22.10    1.90
  -6  -8  -1   20.50    2.40
  -6  -8  -1   20.60    2.00
   6   9   1    1.30    1.40
   6   9   1    1.30    1.10
  -6  -9  -1    1.20    1.30
  -6  -9  -1    0.80    1.40
   6  10   1    2.80    1.80
  -6 -10  -1    6.30    2.20
   7  -3   1   -0.20    1.40
  -7   3  -1    1.50    1.80
  -7   3  -1    0.40    1.50
   7  -2   1    0.50    1.20
  -7   2  -1   -1.80    1.10
  -7   2  -1    3.10    1.50
   7  -1   1    4.00    1.20
  -7   1  -1    3.20    1.20
   7   0   1   -1.30    0.90
  -7   0  -1    0.40    0.80
   7   1   1    0.10    0.80
  -7  -1  -1    1.30    0.90
   7   2   1   29.30    2.20
  -7  -2  -1   30.00    2.10
   7   3   1   23.40    2.10
   7   3   1   17.80   20.00
  -7  -3  -1   23.60    1.90
  -7  -3  -1  -15.50   20.40
   7   4   1   -0.60    0.70
  -7  -4  -1   -0.80    0.70
  -7  -4  -1   -0.60    0.60
   7   5   1   16.50    1.80
  -7  -5  -1   18.00    1.80
  -7  -5  -1   13.70    1.20
   7   6   1   -0.40    1.00
  -7  -6  -1    0.70    0.90
  -7  -6  -1    0.40    0.80
   7   7   1  147.59    6.00
  -7  -7  -1  143.59    5.70
  -7  -7  -1  144.99    5.50
   7   8   1   26.60    2.60
  -7  -8  -1   24.20    2.50
   7   9   1    9.20    1.60
   7   9   1    5.80    1.80
  -7  -9  -1    5.90    1.60
  -7  -9  -1    6.30    1.90
   8  -2   1    7.10    2.10
  -8   2  -1    7.70    2.00
  -8   2  -1    4.10    2.10
   8  -1   1   58.79    3.90
  -8   1  -1   57.99    3.90
   8   0   1   10.70    1.70
  -8   0  -1   13.10    1.90
   8   1   1    0.10    1.20
  -8  -1  -1   -0.90    1.10
   8   2   1    2.00    1.10
  -8  -2  -1    2.10    1.00
   8   3   1    3.30    1.10
  -8  -3  -1    0.90    0.90
   8   4   1    5.20    1.30
  -8  -4  -1    2.60    1.00
   8   5   1   -0.30    1.00
  -8  -5  -1    0.50    1.10
  -8  -5  -1    0.40    1.10
   8   6   1    1.20    1.30
  -8  -6  -1    2.10    1.20
  -8  -6  -1   -0.20    1.10
   8   7   1    0.30    1.40
  -8  -7  -1    1.10    1.20
   8   8   1   -1.00    1.50
  -8  -8  -1   -0.70    1.40
  -8  -8  -1   -1.00    1.30
   8   9   1   -0.50    2.10
  -8  -9  -1    2.20    1.80
  -8  -9  -1   -0.30    1.90
   9   0   1   10.70    2.20
  -9   0  -1    7.00    1.80
   9   1   1    1.30    1.80
  -9  -1  -1    1.80    1.50
   9   2   1    1.50    1.60
  -9  -2  -1   -1.10    1.40
   9   3   1    0.80    1.30
  -9  -3  -1    1.40    1.30
   9   4   1   13.60    2.10
  -9  -4  -1   13.80    1.90
   9   5   1    3.30    1.50
  -9  -5  -1    0.10    1.20
   9   6   1    2.20    1.30
  -9  -6  -1    0.20    1.40
   9   7   1    2.00    1.80
  -9  -7  -1    5.90    1.60
  -9  -8  -1   -0.10    2.20
  -9  -8  -1    0.10    1.70
  10   4   1   19.10    2.70
 -10  -4  -1   25.90    2.80
 -10  -5  -1    3.20    1.70
  -8  -7   2    0.70    2.20
   8   7  -2   -0.70    1.70
  -8  -6   2    4.20    1.40
   8   6  -2    3.20    1.80
  -8  -5   2   52.49    3.20
   8   5  -2   54.29    4.10
  -8  -4   2    7.60    1.40
   8   4  -2    8.60    2.00
  -8  -3   2    1.70    1.20
   8   3  -2    0.00    1.60
  -8  -2   2    1.90    1.40
   8   2  -2    0.70    1.30
  -8  -1   2    0.90    1.60
   8   1  -2    1.80    1.50
  -8   0   2    2.90    1.90
   8   0  -2   -0.30    1.40
  -7  -8   2   -4.00    2.40
   7   8  -2    4.50    2.00
  -7  -7   2    0.00    1.10
  -7  -7   2    0.80    1.70
   7   7  -2    0.60    1.30
  -7  -6   2   -0.10    1.10
  -7  -6   2   -0.90    1.50
   7   6  -2   -1.40    1.30
  -7  -5   2    0.60    1.00
  -7  -5   2   -0.20    1.20
   7   5  -2    2.30    1.30
  -7  -4   2   -0.30    1.10
  -7  -4   2    0.10    1.30
   7   4  -2    0.10    1.30
  -7  -3   2    1.20    1.00
   7   3  -2    2.80    1.30
  -7  -2   2    0.70    1.10
   7   2  -2    0.80    1.10
  -7  -1   2    1.20    1.20
   7   1  -2   -0.60    1.20
  -7   0   2    7.30    1.60
   7   0  -2    6.30    1.40
  -7   1   2    1.70    1.40
   7  -1  -2    0.80    1.30
  -7   2   2   -0.60    1.70
   7  -2  -2   -1.40    1.40
  -6  -9   2    2.30    3.30
   6   9  -2    5.60    1.90
  -6  -8   2   -0.10    2.00
   6   8  -2   -2.60    1.30
  -6  -7   2   -0.30    1.60
  -6  -7   2    0.00    1.00
   6   7  -2    2.40    1.20
  -6  -6   2    8.60    1.30
   6   6  -2    8.30    1.60
  -6  -5   2   22.30    1.80
   6   5  -2   23.50    2.10
  -6  -4   2   18.90    1.60
   6   4  -2   18.50    2.00
   6   4  -2   11.90   25.00
  -6  -3   2    0.30    0.70
  -6  -3   2    0.20    0.90
  -6  -3   2  -23.60   22.00
   6   3  -2   -0.90    0.80
   6   3  -2   12.70   23.70
  -6  -2   2    2.80   25.60
  -6  -2   2    0.60    0.90
  -6  -2   2    5.50    1.00
   6   2  -2   -1.20   23.50
   6   2  -2    2.80    1.00
  -6  -1   2   12.50    1.60
   6   1  -2   12.80    1.70
  -6   0   2   48.50    3.40
   6   0  -2   59.39    3.10
  -6   1   2    0.50    1.10
   6  -1  -2    0.70    0.90
  -6   2   2    3.50    1.40
   6  -2  -2    5.20    1.10
  -6   3   2    0.10    1.50
  -6   3   2    4.50    1.70
   6  -3  -2    0.90    1.30
  -6   4   2   -1.70    1.80
  -6   4   2    3.40    1.80
   6  -4  -2    0.60    1.40
  -5  -9   2    2.00    3.20
   5   9  -2    1.70    1.80
  -5  -8   2    1.30    2.00
   5   8  -2    2.30    1.40
  -5  -7   2    0.30    0.80
  -5  -7   2   -0.80    2.10
   5   7  -2    1.30    1.00
  -5  -6   2    3.00    0.80
  -5  -6   2    0.10    1.40
  -5  -6   2    6.10   25.00
   5   6  -2    9.60   23.20
   5   6  -2    1.40    1.30
  -5  -5   2   56.79    2.50
  -5  -5   2   37.60   16.50
   5   5  -2   77.69   23.50
   5   5  -2   58.19    3.10
  -5  -4   2   -0.40    0.90
  -5  -4   2  -23.60   16.60
   5   4  -2    2.70    0.90
   5   4  -2   -6.80   19.40
  -5  -3   2  122.69   19.10
  -5  -3   2  137.99    4.70
   5   3  -2  108.39   26.00
   5   3  -2  145.39    5.30
  -5  -2   2    8.50    1.10
  -5  -2   2   11.70   16.90
   5   2  -2    6.10    1.00
   5   2  -2   10.80    1.30
   5   2  -2    2.50   16.80
  -5  -1   2   -2.20   17.30
  -5  -1   2    0.50    0.70
   5   1  -2  -12.30   19.20
   5   1  -2    2.70    0.90
  -5   0   2    7.00   18.80
  -5   0   2    4.60    0.90
   5   0  -2    4.60    1.00
   5   0  -2  -16.40   19.50
  -5   1   2   -2.70   20.80
   5  -1  -2  -24.40   16.30
   5  -2  -2   -0.20    0.70
  -5   3   2    6.10    1.30
  -5   3   2    2.70    1.20
   5  -3  -2    4.00    1.10
  -5   4   2    0.10    1.30
  -5   4   2    0.30    1.40
   5  -4  -2    0.70    1.10
  -5   5   2    2.30    1.70
  -5   5   2   -0.20    1.60
   5  -5  -2    2.10    1.40
  -4  -9   2   -0.60    2.70
   4   9  -2   -0.80    1.60
  -4  -7   2   20.60   19.80
  -4  -7   2   13.00    1.20
   4   7  -2    4.30   25.70
   4   7  -2   13.50    2.00
  -4  -6   2    3.60    0.70
  -4  -6   2   -9.00   20.40
   4   6  -2   28.80   22.30
   4   6  -2    5.40    1.00
  -4  -5   2   10.20   17.60
  -4  -5   2    0.00    0.50
  -4  -5   2   -1.20    1.10
   4   5  -2  -18.30   15.30
   4   5  -2    0.10    0.70
  -4  -4   2    4.50    0.70
  -4  -4   2   12.30   13.80
   4   4  -2    3.70    0.90
   4   4  -2   22.20   16.00
  -4  -3   2  182.28    5.70
  -4  -3   2  188.68   24.10
   4   3  -2  174.38   26.30
   4   3  -2  186.18    6.30
  -4  -2   2    8.10    0.90
  -4  -2   2    5.70   12.50
   4   2  -2    8.60    1.20
   4   2  -2    8.60    0.90
  -4  -1   2   16.30   13.20
   4   1  -2    9.60   13.80
  -4   0   2   -5.00   10.70
  -4   0   2    2.30    0.60
   4   0  -2    1.60    0.40
   4   0  -2    5.80   15.00
   4   0  -2    1.50    0.60
   4   0  -2    1.80    0.50
  -4   1   2   38.50    2.10
  -4   1   2   28.20   15.70
   4  -1  -2   37.50    1.30
   4  -1  -2   39.70    2.10
   4  -1  -2   51.89   19.80
  -4   2   2  -16.20   17.30
   4  -2  -2  -14.60   20.00
   4  -2  -2   -0.80    0.60
  -4   3   2   26.00    2.10
  -4   3   2   27.40    2.10
  -4   3   2   10.20   16.00
   4  -3  -2   30.70    1.50
   4  -3  -2   27.90    1.90
   4  -3  -2   22.70   24.90
  -4   4   2   28.00    2.10
  -4   4   2   26.30    2.40
   4  -4  -2   24.40    1.80
  -4   5   2   73.59    3.70
  -4   5   2   62.99    3.90
  -4   6   2    0.70    1.80
  -4   6   2    0.10    1.60
  -3  -9   2   -2.90    2.90
   3   9  -2    2.20    1.50
  -3  -8   2    2.30    2.10
   3   8  -2  -46.60   30.80
  -3  -7   2   85.09   24.50
   3   7  -2   29.50    2.50
   3   7  -2    3.10   22.50
   3   7  -2   30.50    1.80
  -3  -6   2   -6.10   13.70
  -3  -6   2    5.90    1.60
  -3  -6   2    3.00    1.20
  -3  -6   2    3.50    0.70
   3   6  -2    5.10    0.70
   3   6  -2   21.20   17.40
   3   6  -2    4.80    1.10
  -3  -5   2   -5.00   13.50
  -3  -5   2    1.80    1.00
   3   5  -2    2.90   14.60
  -3  -4   2   -5.20   11.90
  -3  -4   2    0.60    0.60
  -3  -4   2    0.50    0.80
  -3  -4   2    0.10    0.40
   3   4  -2  -15.30   11.30
   3   4  -2    0.80    0.60
  -3  -3   2   -5.50   10.20
  -3  -3   2    1.10    0.90
  -3  -3   2    0.40    0.30
  -3  -3   2   -0.60    0.50
   3   3  -2   -9.20    9.40
   3   3  -2    0.10    0.50
   3   3  -2   -0.20    0.40
  -3  -2   2   22.30    1.10
  -3  -2   2   25.80   11.70
   3   2  -2   20.30   11.30
   3   2  -2   21.80    1.30
   3   2  -2   23.60    1.50
   3   2  -2   21.60    1.30
  -3  -1   2    7.60   10.20
  -3  -1   2   24.30    1.30
   3   1  -2   23.20   11.60
   3   1  -2   24.60    1.40
   3   1  -2   21.80    1.20
  -3   0   2  244.98    7.50
  -3   0   2  268.47   26.30
   3   0  -2  248.08    7.50
   3   0  -2  268.27   26.90
  -3   1   2   24.70   11.80
  -3   1   2   13.90    1.10
   3  -1  -2   20.60   13.30
   3  -1  -2   14.10    0.80
   3  -1  -2   12.90    1.10
  -3   2   2   80.59    3.20
  -3   2   2   78.19   15.60
   3  -2  -2   75.39    3.00
   3  -2  -2   56.99   19.00
   3  -2  -2   77.39    2.50
  -3   3   2    2.20    0.70
  -3   3   2  -10.40   14.70
   3  -3  -2   -1.50    0.90
   3  -3  -2   -8.10   18.50
  -3   4   2   72.39    3.20
  -3   4   2   27.80   20.80
  -3   4   2   70.59    3.40
   3  -4  -2   72.59   26.20
   3  -4  -2   72.19    2.80
   3  -4  -2   73.89    3.00
  -3   5   2  211.18    7.00
   3  -5  -2  197.38    6.40
  -3   6   2    5.40    1.50
  -3   6   2    6.80    1.50
  -3   7   2    2.00    1.70
  -3   7   2    0.50    1.90
  -2  -9   2   -0.20    2.90
   2   9  -2    1.40    1.90
   2   8  -2    2.20    1.50
  -2  -7   2  -12.10   22.70
  -2  -7   2    1.20    0.80
   2   7  -2  -26.70   21.40
   2   7  -2   -0.60    1.00
  -2  -6   2    0.10    0.60
  -2  -6   2   -4.40   16.60
  -2  -6   2   -0.30    0.50
  -2  -6   2    1.00    1.30
   2   6  -2  -24.10   15.90
   2   6  -2    1.50    0.80
   2   6  -2    0.30    0.50
  -2  -5   2   71.89    3.60
  -2  -5   2   71.49    2.40
  -2  -5   2   83.89   15.90
   2   5  -2   59.29   17.10
   2   5  -2   69.39    2.40
   2   5  -2   68.89    3.20
  -2  -4   2  168.08    4.80
  -2  -4   2  162.08    6.00
  -2  -4   2  155.28   21.20
  -2  -4   2  166.38    4.90
   2   4  -2  152.48   21.00
   2   4  -2  159.98    5.50
  -2  -3   2  684.93   18.60
  -2  -3   2  664.13   18.50
  -2  -3   2  690.73   39.30
   2   3  -2  702.83   19.20
   2   3  -2  725.33   37.70
  -2  -2   2    1.30    0.50
  -2  -2   2    0.50    0.70
  -2  -2   2   -6.80    7.40
   2   2  -2  -12.80    7.30
  -2  -1   2   -2.70    5.40
  -2  -1   2    0.40    0.40
  -2  -1   2    0.90    0.30
  -2  -1   2    0.30    0.50
   2   1  -2   14.50    6.60
   2   1  -2    0.90    0.40
  -2   0   2   92.59   13.80
  -2   0   2   84.49    2.80
  -2   0   2   81.99    2.80
   2   0  -2   78.49    2.80
   2   0  -2   82.89    2.80
   2   0  -2   82.99   15.10
  -2   1   2   -4.10    8.10
  -2   1   2    0.70    0.50
   2  -1  -2   -1.20    8.90
   2  -1  -2   -0.20    0.50
  -2   2   2   -2.80    9.80
  -2   2   2    3.50    0.60
  -2   2   2    4.20    0.70
   2  -2  -2    3.80    0.60
   2  -2  -2    9.50    9.60
   2  -2  -2    4.10    0.60
  -2   3   2   33.90    1.70
  -2   3   2   25.10   12.40
  -2   3   2   35.30    1.90
  -2   3   2   31.90    1.80
   2  -3  -2   34.60    1.50
   2  -3  -2   42.60   17.30
   2  -3  -2   33.50    1.70
  -2   4   2   10.00    1.30
  -2   4   2    9.50    1.10
  -2   4   2   15.10   14.60
   2  -4  -2    8.00   17.80
   2  -4  -2    7.60    1.00
   2  -4  -2   10.00    0.90
   2  -5  -2  -14.20   23.00
   2  -5  -2  -15.30   16.30
  -2   6   2    2.70    1.00
  -2   6   2    1.30    1.10
   2  -6  -2  -31.60   21.10
   2  -6  -2    1.50    1.00
  -2   7   2   -0.90    1.30
  -2   7   2   -3.20    1.40
   2  -7  -2   -0.40    1.30
  -2   8   2   -0.80    1.80
  -1  -9   2    3.30    3.00
   1   9  -2    4.30    2.10
  -1  -8   2   -0.60    2.50
   1   8  -2    6.60    1.50
  -1  -7   2    0.70   22.00
  -1  -7   2    0.50    1.80
   1   7  -2   -0.60    0.90
   1   7  -2    7.10   22.10
  -1  -6   2   43.20    3.10
  -1  -6   2   51.89   17.90
   1   6  -2   50.19   18.60
   1   6  -2   52.29    2.80
   1   6  -2   46.40    2.00
  -1  -5   2   24.10   12.80
  -1  -5   2   15.60    1.80
  -1  -5   2   16.10    1.00
   1   5  -2   17.80    1.50
   1   5  -2   30.60   12.30
   1   5  -2   17.40    1.00
  -1  -4   2   18.10    0.90
  -1  -4   2   15.40   10.90
  -1  -4   2   18.40    1.60
   1   4  -2   17.60    1.30
   1   4  -2   18.60    0.90
   1   4  -2   28.50    9.30
  -1  -3   2  590.24   15.30
  -1  -3   2  577.14   15.20
  -1  -3   2  530.95   16.30
  -1  -3   2  572.04   32.20
   1   3  -2  596.14   32.20
   1   3  -2  558.34   15.20
   1   3  -2  590.74   16.10
  -1  -2   2  529.15   14.80
  -1  -2   2  533.25   14.20
  -1  -2   2  572.74   29.10
  -1  -2   2  531.25   14.30
   1   2  -2  518.05   14.90
   1   2  -2  545.85   27.80
   1   2  -2  544.75   14.90
  -1  -1   2   26.50    1.00
  -1  -1   2   28.70    7.40
  -1  -1   2   27.80    1.20
   1   1  -2   27.20    1.00
   1   1  -2   25.40    1.20
   1   1  -2   16.80    6.60
  -1   0   2  274.07    7.50
  -1   0   2  267.27    7.50
  -1   0   2  258.17   19.10
   1   0  -2  269.07    7.50
   1   0  -2  289.77   19.50
   1   0  -2  264.67    7.50
  -1   1   2  491.75   13.60
  -1   1   2  489.85   13.40
  -1   1   2  518.95   28.80
   1  -1  -2  493.25   13.40
   1  -1  -2  466.65   13.60
   1  -1  -2  507.95   28.40
   1  -1  -2  514.05   13.60
  -1   2   2  395.66   11.30
  -1   2   2  408.36   11.00
  -1   2   2  401.96   11.30
  -1   2   2  373.66   26.20
   1  -2  -2  400.66   10.90
   1  -2  -2  401.06   27.70
   1  -2  -2  395.26   11.10
   1  -2  -2  394.86   11.20
  -1   3   2   78.69    2.70
  -1   3   2   78.59    3.10
  -1   3   2   82.89    3.10
  -1   3   2   75.99    2.70
  -1   3   2   72.69   14.50
   1  -3  -2   78.49    2.80
   1  -3  -2   63.89   14.10
   1  -3  -2   80.39    2.70
  -1   4   2   61.99    2.60
  -1   4   2   57.29    2.70
   1  -4  -2   61.69    2.50
   1  -4  -2   68.99   17.60
  -1   5   2   65.39    2.80
  -1   5   2   70.19    3.20
   1  -5  -2   68.09    2.80
   1  -5  -2   89.09   16.20
   1  -5  -2   71.59   23.00
  -1   6   2   18.00    1.90
  -1   6   2   17.80    1.60
   1  -6  -2   17.40    1.50
   1  -6  -2   24.10   17.40
   1  -6  -2   -8.20   26.30
  -1   7   2    1.90    1.10
  -1   7   2    0.80    1.10
   1  -7  -2    0.10    1.00
   1  -7  -2   10.10   24.20
  -1   8   2   -1.50    1.50
  -1   8   2   -0.70    1.40
   1  -8  -2   -2.40    1.50
   0   9  -2    3.70    1.90
   0  -8   2   -2.60    2.50
   0   8  -2   -0.30    1.50
   0  -7   2   -2.60    2.20
   0   7  -2    1.40    1.10
   0  -6   2  104.09   20.80
   0   6  -2   85.69   22.80
   0   6  -2   92.49    4.10
   0   6  -2   94.69    3.40
   0  -5   2    9.00   13.30
   0   5  -2    6.90   11.50
   0  -4   2   15.70    9.90
   0  -4   2   24.80    1.00
   0  -4   2   21.00    1.80
   0   4  -2   25.10    1.60
   0   4  -2   19.50   10.50
   0   4  -2   25.00    1.10
   0  -3   2   94.89    3.70
   0  -3   2  102.79   13.40
   0  -3   2   91.59    2.70
   0   3  -2   93.29    3.40
   0   3  -2   78.39   12.90
   0   3  -2   94.29    2.80
   0  -2   2   10.30    0.90
   0  -2   2    6.40    5.10
   0  -2   2   10.90    1.10
   0   2  -2   11.20    0.80
   0   2  -2   11.70    0.90
   0   2  -2   12.70    5.10
   0  -1   2  690.03   18.70
   0  -1   2  683.13   28.10
   0  -1   2  655.93   18.40
   0   1  -2  665.63   18.40
   0   1  -2  735.03   18.70
   0   1  -2  664.93   27.40
   0   0   2   40.00    1.30
   0   0   2   40.20    1.30
   0   0   2   28.50    5.40
   0   0  -2   39.90    1.30
   0   0  -2   39.90    6.20
   0   0  -2   40.00    1.30
   0   1   2    0.90    0.30
   0   1   2    0.40    2.70
   0   1   2    1.10    0.20
   0  -1  -2    7.60    4.40
   0  -1  -2    1.30    0.20
   0  -1  -2    1.00    0.30
   0  -1  -2    0.90    0.40
   0   2   2 2060.39   69.99
   0   2   2 1954.00   53.69
   0  -2  -2 2122.99   71.19
   0  -2  -2 1979.10   53.59
   0   3   2   13.90    8.00
   0   3   2    9.50    0.90
   0   3   2    9.00    0.90
   0   3   2    9.40    0.60
   0   3   2    8.90    0.60
   0  -3  -2    4.80    8.50
   0  -3  -2    9.30    0.90
   0  -3  -2    9.10    0.80
   0   4   2    6.70    1.00
   0   4   2    5.50    0.70
   0   4   2    5.50    0.70
   0  -4  -2    4.70    0.70
   0  -4  -2    0.90    8.30
   0  -4  -2    0.50   10.70
   0   5   2   17.70    1.60
   0   5   2   19.10    1.30
   0  -5  -2   16.90    1.30
   0  -5  -2   21.30    8.40
   0  -5  -2   21.30   16.00
   0   6   2    1.40    0.90
   0   6   2    1.10    0.70
   0  -6  -2    2.80    0.80
   0  -6  -2    2.30   20.80
   0  -6  -2   -0.60   14.00
   0  -7  -2  -47.90   28.60
   0  -7  -2    4.10   15.80
   0   8   2   -3.20    1.40
   0   8   2   -0.60    1.10
   0  -8  -2   -2.10    1.10
   0   9   2   -2.00    1.70
   0  -9  -2    0.90    1.90
   1  -8   2   -2.80    2.50
  -1   8  -2    0.60    1.70
   1  -7   2   -0.90    2.40
  -1   7  -2    0.10    1.20
   1  -6   2    1.30    1.60
   1  -6   2   -8.40   19.80
   1  -5   2   -0.30    1.20
   1  -5   2    0.10    0.60
   1  -5   2  -11.90   15.40
   1  -5   2  -10.20   14.00
  -1   5  -2   -0.30    0.50
  -1   5  -2    1.00    0.70
   1  -4   2    0.10    0.40
   1  -4   2   -4.90   10.90
   1  -4   2   -1.40    0.90
  -1   4  -2    1.10    0.40
  -1   4  -2    5.70   10.00
  -1   4  -2    0.60    0.50
   1  -3   2  295.77   21.40
   1  -3   2  293.57    8.10
  -1   3  -2  305.87    8.90
  -1   3  -2  305.27    8.20
  -1   3  -2  212.98   28.50
   1  -2   2    5.90    4.90
   1  -2   2   11.00    1.00
   1  -2   2    8.90    0.80
   1  -2   2   10.60    0.50
  -1   2  -2   11.20    4.60
  -1   2  -2   10.00    0.90
  -1   2  -2   10.10    0.80
  -1   2  -2    9.70    0.50
  -1   2  -2   10.10    0.80
   1  -1   2  899.21   31.10
   1  -1   2  858.91   23.50
   1  -1   2  844.82   23.30
   1  -1   2  849.22   22.90
  -1   1  -2  905.71   23.50
  -1   1  -2  890.81   30.60
  -1   1  -2  837.92   23.30
  -1   1  -2  861.61   23.30
   1   0   2    3.00    0.50
   1   0   2    3.00    0.30
   1   0   2    1.40    1.70
   1   0   2    2.70    0.30
  -1   0  -2    3.20    0.60
  -1   0  -2    2.90    0.40
  -1   0  -2    2.60    1.70
  -1   0  -2    3.20    0.30
  -1   0  -2    3.10    0.30
   1   1   2 1413.66   42.70
   1   1   2 1356.06   36.90
  -1  -1  -2 1411.56   43.10
  -1  -1  -2 1364.16   36.70
  -1  -2  -2 9999.00  275.07
  -1  -2  -2 9996.50  275.27
   1   3   2  955.10   25.50
   1   3   2  923.01   25.00
   1   3   2  924.61   25.60
  -1  -3  -2  970.70   41.80
  -1  -3  -2  925.31   25.00
  -1  -3  -2  984.00   39.60
  -1  -3  -2  939.81   25.40
  -1  -3  -2  920.71   25.40
   1   4   2    0.40    0.50
   1   4   2    0.40    0.30
  -1  -4  -2    0.70    0.40
  -1  -4  -2   -8.60    8.40
  -1  -4  -2   -2.00    7.20
   1   5   2   92.79    3.70
   1   5   2   96.39    3.30
   1   5   2   90.99    3.20
  -1  -5  -2   89.29    3.20
  -1  -5  -2   98.59    3.60
  -1  -5  -2   88.69   18.60
  -1  -5  -2   78.09   13.80
  -1  -6  -2  -12.20   12.70
  -1  -7  -2  -38.60   24.80
  -1  -7  -2   16.10   13.50
   1   8   2    0.90    1.10
   1   8   2    0.50    1.10
  -1  -8  -2    1.90    1.20
   1   9   2   -1.10    1.30
   1   9   2   -0.50    1.50
  -1  -9  -2   -0.20    1.60
   2  -8   2   -4.70    4.00
  -2   8  -2    1.10    1.90
  -2   7  -2    8.10    1.70
  -2   6  -2   19.20    2.50
  -2   6  -2   24.00    1.70
   2  -5   2   24.20   16.70
   2  -5   2    1.20   19.80
   2  -5   2   -0.20    1.40
  -2   5  -2    0.30    0.70
  -2   5  -2    0.00    0.60
   2  -4   2   -6.60   11.30
   2  -4   2    1.50    1.10
  -2   4  -2    0.00    0.70
   2  -3   2  177.08    5.50
   2  -3   2  192.58   18.50
   2  -3   2  192.58   21.90
  -2   3  -2  180.98    6.10
  -2   3  -2  200.18    6.10
  -2   3  -2  186.08    5.60
   2  -2   2  129.19    4.00
   2  -2   2  138.29    4.50
   2  -2   2  131.29   15.30
   2  -2   2  134.99   12.90
  -2   2  -2  131.79    4.40
  -2   2  -2  130.29    4.00
  -2   2  -2  128.89    4.20
   2  -1   2  143.69   11.00
   2  -1   2  139.29    4.40
   2  -1   2  142.09    4.10
   2  -1   2  138.29    9.90
  -2   1  -2  138.79    4.40
  -2   1  -2  138.59    4.10
  -2   1  -2  140.49    4.40
   2   0   2  129.99    7.50
   2   0   2  106.09    3.90
   2   0   2  129.49    3.80
   2   0   2  129.79    3.90
  -2   0  -2  131.39    3.90
  -2   0  -2  129.59    3.70
  -2   0  -2  127.29    3.80
   2   1   2  136.69    4.10
   2   1   2  141.99    4.30
   2   1   2  133.89    4.00
   2   1   2  133.39    4.20
   2   1   2  135.89    6.30
  -2  -1  -2  140.29    4.00
  -2  -1  -2  133.09    4.20
  -2  -1  -2  135.49    4.30
  -2  -1  -2  137.29    4.10
  -2  -1  -2  131.89    6.70
   2   2   2 3360.96   97.79
  -2  -2  -2 3428.16   98.29
   2   3   2  236.38    7.00
   2   3   2  230.78    7.10
   2   3   2  232.98    6.60
  -2  -3  -2  234.98    7.00
  -2  -3  -2  244.88   16.80
  -2  -3  -2  236.98    6.60
  -2  -3  -2  231.68    7.00
   2   4   2    1.60    0.40
   2   4   2    1.50    6.60
  -2  -4  -2    8.60    6.90
  -2  -4  -2    1.50    0.70
  -2  -4  -2    2.30    0.60
  -2  -4  -2    1.60    0.40
   2   5   2   37.00    2.00
   2   5   2   43.20   12.40
   2   5   2   38.20    1.70
  -2  -5  -2   18.60    9.50
  -2  -5  -2   35.50    1.90
  -2  -5  -2   34.30    1.70
   2   6   2    2.60    0.70
   2   6   2    2.30    0.80
  -2  -6  -2    2.60    0.80
  -2  -6  -2    4.40   11.80
   2   7   2    1.50    0.90
   2   7   2    0.80    0.80
  -2  -7  -2   -0.30   21.00
  -2  -7  -2    0.60    0.90
  -2  -7  -2   -5.40   16.90
   2   8   2    1.10    1.10
   2   8   2    0.30    1.00
  -2  -8  -2  -12.40   31.70
  -2  -8  -2    0.80    1.20
   2   9   2   -0.20    1.40
   2   9   2   -1.40    1.40
  -2  -9  -2    1.30    1.30
  -2 -10  -2   10.60    2.50
  -3   7  -2    0.30    1.70
  -3   6  -2   66.19    3.10
  -3   6  -2   65.79    3.80
  -3   5  -2   30.30    2.30
  -3   5  -2   26.10    1.70
   3  -4   2  -14.10   15.90
   3  -4   2   -2.90   12.70
   3  -4   2   -1.10    1.10
  -3   4  -2    0.50    0.50
  -3   4  -2    0.20    0.80
   3  -3   2   -2.70   10.50
   3  -3   2  -15.90   10.50
   3  -3   2    1.30    0.90
   3  -2   2   96.49    3.60
   3  -2   2  138.39   15.70
   3  -2   2   88.59   14.50
  -3   2  -2   94.99    3.30
  -3   2  -2   97.39    3.20
  -3   2  -2   95.39    3.60
   3  -1   2  461.55   13.10
   3  -1   2  446.76   12.80
   3  -1   2  466.65   25.90
  -3   1  -2  439.76   12.80
  -3   1  -2  476.15   25.60
  -3   1  -2  458.15   13.10
  -3   1  -2  497.45   12.70
   3   0   2   93.79   10.70
   3   0   2  104.79    3.40
   3   0   2  105.39    3.60
  -3   0  -2  109.89   10.50
  -3   0  -2  110.39    3.40
  -3   0  -2  107.69    3.50
  -3   0  -2  100.79    3.50
   3   1   2  322.17    9.10
   3   1   2  303.07    9.00
   3   1   2  325.37   15.70
   3   1   2  324.47    9.00
  -3  -1  -2  332.17   16.80
  -3  -1  -2  312.37    8.90
  -3  -1  -2  315.47    9.00
  -3  -1  -2  303.57    8.80
  -3  -1  -2  315.97    9.10
   3   2   2  298.37    8.70
   3   2   2  306.47    8.90
   3   2   2  302.67   15.90
   3   2   2  316.47    8.90
  -3  -2  -2  310.87    8.80
  -3  -2  -2  308.37    8.80
  -3  -2  -2  311.47    9.00
  -3  -2  -2  326.27   17.40
  -3  -2  -2  309.17    8.80
   3   3   2  234.18    7.20
   3   3   2  240.38   16.30
   3   3   2  242.08    7.20
   3   3   2  237.38    6.90
  -3  -3  -2  236.88   16.90
  -3  -3  -2  244.98    7.10
  -3  -3  -2  239.88    7.20
  -3  -3  -2  231.98    6.90
   3   4   2   40.30    1.70
   3   4   2   39.80    2.00
   3   4   2   32.00    8.20
  -3  -4  -2   41.60    1.90
  -3  -4  -2   40.40    1.80
  -3  -4  -2   34.40    9.20
   3   5   2   10.60    9.70
  -3  -5  -2   10.60    8.60
   3   6   2   29.20    1.90
   3   6   2   23.50   12.30
   3   6   2   28.10    1.60
  -3  -6  -2   29.80    1.80
  -3  -6  -2   25.00    8.80
   3   7   2   70.19   21.10
   3   7   2   83.39    3.70
   3   7   2   84.59    3.50
  -3  -7  -2   84.59   18.50
  -3  -7  -2   83.29    3.80
   3   8   2   -1.00    1.00
   3   8   2   -0.70    0.90
  -3  -8  -2   -0.80    0.90
   3   9   2    0.60    1.20
   3   9   2   -1.10    1.20
  -3  -9  -2    1.30    1.50
   3  10   2    9.60    1.90
  -3 -10  -2    9.10    2.40
  -4   6  -2   -3.40    1.50
  -4   5  -2    5.60    1.50
  -4   5  -2    4.50    1.00
  -4   4  -2   35.60    2.00
  -4   4  -2   35.60    2.70
   4  -3   2    0.30   13.20
   4  -3   2   -0.10    1.10
   4  -3   2    2.60   17.10
   4  -3   2   -0.70    0.70
  -4   3  -2   -0.40    0.60
  -4   3  -2   -0.60    0.50
  -4   3  -2    0.40    0.70
   4  -2   2   22.30    1.70
   4  -2   2   32.60   13.70
  -4   2  -2   22.60    1.40
  -4   2  -2   22.90    1.10
  -4   2  -2   21.90    1.80
   4  -1   2    6.30    9.50
   4  -1   2    4.80    0.90
  -4   1  -2    3.90    0.50
  -4   1  -2    5.40    0.80
  -4   1  -2   -0.20    8.70
   4   0   2   52.49    2.30
   4   0   2   43.40    9.50
  -4   0  -2   58.69   10.90
  -4   0  -2   54.39    2.20
  -4   0  -2   53.49    1.80
   4   1   2  162.48   14.60
   4   1   2  169.58    5.40
  -4  -1  -2  172.68    4.90
  -4  -1  -2  170.28    5.30
  -4  -1  -2  173.38   16.90
   4   2   2    1.10    0.50
   4   2   2    1.20    5.10
   4   2   2    2.40    0.50
   4   2   2    2.10    0.60
  -4  -2  -2    2.20    0.50
  -4  -2  -2    2.20    0.50
  -4  -2  -2   10.60    6.30
   4   3   2   15.70    1.20
   4   3   2   20.40    7.10
   4   3   2   15.30    1.20
  -4  -3  -2   14.60    1.10
  -4  -3  -2   20.90    1.80
  -4  -3  -2   22.90    8.50
  -4  -3  -2   16.60    1.00
   4   4   2    2.00    0.50
   4   4   2    1.60    0.60
  -4  -4  -2    5.30    8.10
  -4  -4  -2    1.80    0.60
   4   5   2    1.90    0.60
   4   5   2  -10.00    8.60
   4   5   2    2.90    0.70
  -4  -5  -2   12.70    9.10
  -4  -5  -2    2.50    0.70
   4   6   2    4.70    0.90
   4   6   2  -12.40   12.00
   4   6   2    6.80    1.00
  -4  -6  -2    5.60    1.00
  -4  -6  -2    3.80   11.90
   4   7   2   60.69   18.40
   4   7   2   87.49    3.80
   4   7   2   90.49    3.60
  -4  -7  -2   48.60   18.30
  -4  -7  -2   87.19    3.90
   4   8   2   14.50    1.60
   4   8   2   14.40    1.80
  -4  -8  -2   13.70    1.90
   4   9   2    3.50    1.20
   4   9   2    3.40    1.40
  -4  -9  -2    5.10    1.60
   4  10   2   -1.60    1.50
   4  10   2   -0.50    1.50
  -4 -10  -2    1.60    1.80
  -5   5  -2    2.40    1.20
  -5   5  -2    4.00    1.70
  -5   4  -2    3.90    1.10
  -5   4  -2    6.30    1.50
   5  -3   2    0.40    0.80
  -5   3  -2    2.90    0.80
  -5   3  -2    2.50    1.10
   5  -2   2   39.20    2.50
   5  -2   2   32.00   19.70
  -5   2  -2   29.30   15.10
  -5   2  -2   41.20    2.20
  -5   2  -2   42.30    2.50
   5  -1   2  718.43   43.10
   5  -1   2  643.74   18.90
  -5   1  -2  677.03   40.70
  -5   1  -2  639.54   18.60
   5   0   2  170.98   21.90
   5   0   2  176.38    5.90
  -5   0  -2  178.88    5.70
  -5   0  -2  153.68   20.50
   5   1   2   21.90    1.50
   5   1   2   20.30    9.40
  -5  -1  -2   23.00    1.40
  -5  -1  -2   22.00    0.90
  -5  -1  -2   30.50   11.30
   5   2   2   49.10    2.10
   5   2   2   47.30    2.30
   5   2   2   36.10   10.30
  -5  -2  -2   41.90   11.50
  -5  -2  -2   48.30    1.80
  -5  -2  -2   47.20    2.20
   5   3   2    6.30    0.90
   5   3   2    4.90    0.90
   5   3   2    5.00    0.90
   5   3   2    7.30    8.20
  -5  -3  -2    5.80    0.80
  -5  -3  -2  -18.30    9.00
  -5  -3  -2    6.10    0.70
   5   4   2  136.59   19.80
   5   4   2  148.89    5.10
   5   4   2  154.08    5.30
  -5  -4  -2  164.48   19.50
  -5  -4  -2  149.39    5.10
  -5  -4  -2  147.89    5.00
   5   5   2    1.50    0.60
   5   5   2    3.70   10.50
   5   5   2    3.00    0.90
  -5  -5  -2    3.70    0.80
  -5  -5  -2    3.40    0.70
  -5  -5  -2    5.10   10.60
   5   6   2    5.00    0.90
  -5  -6  -2  -13.00   13.00
   5   7   2  -27.00   16.50
  -5  -7  -2  -18.60   17.10
   5   8   2   -0.30    0.90
   5   8   2    1.20    1.00
  -5  -8  -2    1.00    1.20
   5   9   2    0.30    1.20
   5   9   2   -1.10    1.10
  -5  -9  -2   -0.50    1.50
   5  10   2   -0.90    1.50
   5  10   2   -0.30    1.60
  -5 -10  -2    0.80    1.70
  -6   4  -2    3.40    1.20
  -6   4  -2    4.70    1.80
   6  -3   2    9.90    1.70
  -6   3  -2   11.50    1.70
  -6   3  -2   12.00    2.00
   6  -2   2    3.00    1.10
  -6   2  -2    2.90    1.10
  -6   2  -2    2.70    1.10
   6  -1   2  276.67   35.80
   6  -1   2  312.37   10.10
  -6   1  -2  314.27   28.20
  -6   1  -2  319.97    9.80
   6   0   2  164.78   28.40
   6   0   2  183.98    6.40
  -6   0  -2  185.88   27.90
  -6   0  -2  179.78    6.20
   6   1   2   57.89    2.90
   6   1   2   71.69   16.80
  -6  -1  -2   38.50   15.10
  -6  -1  -2   57.99    2.70
   6   2   2    5.10    1.00
   6   2   2   13.40   11.80
  -6  -2  -2    5.20    0.60
  -6  -2  -2    3.60   13.50
  -6  -2  -2    7.30    1.10
   6   3   2   43.70    2.20
   6   3   2   48.00    2.50
   6   3   2   17.00   11.70
  -6  -3  -2   28.80   13.70
  -6  -3  -2   45.90    2.30
  -6  -3  -2   45.60    1.90
   6   4   2   14.80   10.90
  -6  -4  -2   15.60   12.60
   6   5   2    1.10   12.30
   6   5   2    1.40    0.90
   6   5   2    2.10    0.70
  -6  -5  -2    2.20    0.70
  -6  -5  -2    2.00    0.80
   6   6   2   -1.00   17.50
   6   6   2   -0.40    0.70
   6   6   2    0.60    0.90
  -6  -6  -2    0.80    0.80
  -6  -6  -2    0.60    0.70
  -6  -6  -2  -20.40   14.40
   6   7   2   41.30    2.60
   6   7   2   38.90    2.50
  -6  -7  -2   41.40    2.50
  -6  -7  -2   40.20    2.50
   6   8   2    0.80    0.90
   6   8   2    0.50    1.20
  -6  -8  -2   -0.40    1.00
  -6  -8  -2    0.70    1.20
   6   9   2    1.40    1.30
   6   9   2    2.00    1.20
  -6  -9  -2    2.30    1.70
  -6  -9  -2    2.60    1.30
   6  10   2    1.90    1.80
   6  10   2   -1.40    1.50
  -6 -10  -2    1.30    1.80
  -6 -10  -2   -2.10    1.60
   7  -3   2   -0.70    1.50
  -7   3  -2    0.00    1.10
  -7   3  -2   -2.20    1.70
   7  -2   2    1.90    1.40
  -7   2  -2    1.90    1.20
  -7   2  -2    5.70    1.60
   7  -1   2    9.50    1.50
  -7   1  -2    7.90    1.40
  -7   1  -2    5.70    1.30
   7   0   2   -0.30    1.00
  -7   0  -2    2.10    1.10
   7   1   2  -12.80   18.90
   7   1   2    0.00    0.90
  -7  -1  -2    0.30    0.70
   7   2   2    2.40   16.60
   7   2   2    0.20    0.80
  -7  -2  -2    0.20    0.60
   7   3   2    0.80   13.70
   7   3   2    2.60    0.90
  -7  -3  -2    3.00    0.80
  -7  -3  -2  -32.00   17.20
  -7  -3  -2    2.10    0.60
   7   4   2   -0.20   15.80
  -7  -4  -2  -20.60   18.20
   7   5   2    0.90    0.90
  -7  -5  -2    1.60    0.90
  -7  -5  -2    2.00    0.60
   7   6   2    0.80    1.00
   7   6   2    1.20    0.90
  -7  -6  -2    1.90    0.80
  -7  -6  -2    2.70    1.00
   7   7   2   51.09    3.00
   7   7   2   50.39    3.10
  -7  -7  -2   50.79    2.90
  -7  -7  -2   51.39    2.90
   7   8   2   -0.20    1.20
   7   8   2   -0.10    1.30
  -7  -8  -2   -2.00    1.10
  -7  -8  -2   -1.00    1.30
   7   9   2   18.70    2.30
   7   9   2   21.40    2.70
  -7  -9  -2   16.90    2.60
  -7  -9  -2   17.30    2.50
   7  10   2   -0.60    1.80
   7  10   2    1.60    1.60
  -7 -10  -2    3.40    2.30
  -7 -10  -2    0.60    1.80
   8  -2   2    2.10    2.00
  -8   2  -2   -1.40    1.90
  -8   2  -2    0.60    1.70
   8  -1   2    1.10    1.30
  -8   1  -2    0.40    1.30
   8   0   2    2.30    1.30
  -8   0  -2    2.70    1.10
   8   1   2    0.10    1.00
  -8  -1  -2   -0.70    0.90
   8   2   2    4.50    1.30
  -8  -2  -2    7.90    1.40
   8   3   2   -1.70    0.90
  -8  -3  -2    0.70    1.00
   8   4   2   52.29    3.10
  -8  -4  -2   48.70    2.90
  -8  -4  -2   50.39    2.40
   8   5   2   15.00    2.00
  -8  -5  -2   15.00    1.90
  -8  -5  -2   12.50    1.30
   8   6   2    1.70    1.20
  -8  -6  -2    1.90    0.90
  -8  -6  -2    3.30    1.20
   8   7   2   -1.20    1.30
  -8  -7  -2    2.50    1.00
  -8  -7  -2    1.90    1.20
   8   8   2    1.50    1.60
  -8  -8  -2    2.20    1.40
  -8  -8  -2    2.00    1.40
   8   9   2    3.50    1.30
   8   9   2    7.40    2.00
  -8  -9  -2    4.60    1.50
  -8  -9  -2    9.00    1.80
   9   0   2    0.30    1.80
  -9   0  -2    3.50    1.60
   9   1   2   18.70    2.80
  -9  -1  -2   12.90    2.00
   9   2   2    0.40    1.40
  -9  -2  -2    0.30    1.10
   9   3   2    0.30    1.40
  -9  -3  -2    0.80    1.20
   9   4   2    7.50    1.70
  -9  -4  -2    9.20    1.50
   9   5   2    1.00    1.30
  -9  -5  -2    1.10    1.10
   9   6   2   -0.40    1.30
  -9  -6  -2    0.50    1.40
   9   7   2    2.20    1.50
  -9  -7  -2    3.60    1.60
   9   8   2    1.50    1.90
  -9  -8  -2    1.50    1.70
  -9  -8  -2   -0.60    1.40
  10   3   2   -1.80    1.70
 -10  -3  -2    0.70    1.80
  10   4   2    0.00    1.60
 -10  -4  -2    0.30    1.60
  10   5   2    0.70    1.90
 -10  -5  -2    1.70    1.70
  10   6   2   -2.00    1.90
 -10  -6  -2   -0.80    1.50
  -8  -5   3    8.30    1.70
   8   5  -3    3.20    2.00
  -8  -4   3    1.20    1.30
   8   4  -3   -1.00    1.50
  -8  -3   3    6.00    1.50
   8   3  -3    4.30    1.90
  -8  -2   3    0.40    1.40
   8   2  -3   -0.80    1.60
  -8  -1   3    2.30    1.90
   8   1  -3    0.80    1.40
  -7  -7   3   -0.20    2.20
   7   7  -3   -1.20    1.80
  -7  -6   3   13.10    1.80
   7   6  -3    7.80    2.00
  -7  -5   3    1.60    1.70
   7   5  -3   -1.00    1.30
  -7  -4   3    0.20    1.00
   7   4  -3    2.70    1.30
  -7  -3   3    7.10    1.30
   7   3  -3    6.40    1.60
  -7  -2   3    2.00    1.20
   7   2  -3   -0.20    1.30
  -7  -1   3    2.60    1.40
   7   1  -3    1.50    1.30
  -7   0   3   16.60    2.20
   7   0  -3   13.50    2.00
  -7   1   3   -1.40    1.40
   7  -1  -3   -0.20    1.40
  -6  -8   3   -3.80    2.50
   6   8  -3    5.60    2.00
  -6  -7   3   -0.80    2.00
   6   7  -3    2.90    1.40
  -6  -6   3   -1.00    1.70
  -6  -6   3    0.80    0.90
   6   6  -3   -1.40    1.20
  -6  -5   3    5.80    1.10
   6   5  -3    4.30    1.30
  -6  -4   3    5.90    1.00
   6   4  -3    6.50    1.50
  -6  -2   3    0.80    0.90
  -6  -2   3    1.40    1.10
   6   2  -3    1.60    0.90
   6   1  -3    1.20    1.00
  -6   0   3    1.30    1.10
   6   0  -3    5.60    1.30
  -6   1   3    4.80    1.30
   6  -1  -3    2.60    1.10
  -6   2   3    1.20    1.40
   6  -2  -3    0.50    1.10
  -6   3   3   -1.60    1.70
  -6   3   3   -0.50    1.50
   6  -3  -3    1.10    1.40
  -5  -8   3   -0.90    2.80
   5   8  -3   -0.10    1.40
  -5  -7   3   -0.30    2.00
   5   7  -3    0.10    1.40
  -5  -6   3    0.70    0.70
   5   6  -3   -0.10    1.00
  -5  -5   3   44.10    2.20
  -5  -5   3   33.60   26.50
   5   5  -3   21.10   18.40
   5   5  -3   49.60    4.10
  -5  -4   3   47.10    2.30
  -5  -4   3   48.70   18.40
   5   4  -3   28.90   41.90
   5   4  -3   49.70    2.90
  -5  -3   3  278.17    8.40
  -5  -3   3  253.57   36.70
   5   3  -3  275.47    8.90
   5   3  -3  198.18   35.20
  -5  -2   3   -0.40    0.90
  -5  -2   3  -21.00   21.40
   5   2  -3   -0.20    0.80
   5   2  -3    1.90   22.90
  -5  -1   3    3.10   20.50
   5   1  -3  -22.90   16.80
  -5   0   3    0.50    0.70
  -5   0   3    0.20    0.70
  -5   0   3   -6.40   23.90
   5   0  -3  -14.50   16.60
   5   0  -3    0.10    0.80
   5   0  -3    0.10    0.70
  -5   1   3   15.70    1.70
   5  -1  -3   20.80    1.70
  -5   2   3   24.20    2.20
   5  -2  -3   25.80    1.80
  -5   3   3    3.20    1.20
  -5   3   3    1.20    1.20
   5  -3  -3    3.00    1.00
  -5   4   3    0.60    1.50
  -5   4   3   -2.50    1.40
   5  -4  -3   -0.20    1.20
  -4  -9   3   -0.90    3.80
   4   9  -3    1.90    1.80
  -4  -8   3    0.90    2.60
   4   8  -3    2.10    1.60
   4   7  -3    9.10   29.50
  -4  -6   3   -5.30   25.10
  -4  -6   3   -1.10    1.80
   4   6  -3   26.20   19.50
  -4  -5   3   -1.70   20.50
   4   5  -3    1.60   20.20
  -4  -4   3  104.79    3.60
  -4  -4   3  115.49   20.40
   4   4  -3  107.79    4.40
   4   4  -3  105.39   33.70
  -4  -3   3  726.83   49.10
  -4  -3   3  800.32   22.00
   4   3  -3  837.52   53.19
   4   3  -3  820.92   22.70
  -4  -2   3   53.89   13.20
  -4  -2   3   62.89    2.60
   4   2  -3   48.20   16.70
   4   2  -3   65.39    3.00
  -4  -1   3   16.50    1.20
  -4  -1   3   27.80   16.10
   4   1  -3   12.80    1.30
   4   1  -3  -18.40   16.60
   4   1  -3   15.70    1.50
  -4   0   3    0.10    0.70
  -4   0   3   -0.40    0.50
  -4   0   3   -5.50   17.60
   4   0  -3    5.90   17.40
   4   0  -3   -0.80    0.70
   4   0  -3   -0.30    0.60
   4   0  -3   -0.20    0.70
  -4   1   3   34.50    2.20
  -4   1   3   75.09   18.20
   4  -1  -3   33.20    1.60
   4  -1  -3   11.50   19.80
   4  -1  -3   36.30    2.10
  -4   2   3   21.30   20.40
   4  -2  -3    8.30   24.00
   4  -3  -3    3.90    0.80
  -4   4   3    0.50    1.10
  -4   4   3    0.80    1.30
   4  -4  -3   -0.20    0.90
  -4   5   3    9.80    1.50
  -4   5   3   10.60    1.90
   4  -5  -3    7.10    1.20
  -4   6   3    2.70    2.10
  -3  -9   3    2.70    2.90
   3   9  -3    1.50    2.00
  -3  -8   3    4.10    2.70
   3   8  -3    3.20    1.70
  -3  -7   3   -0.70    1.90
  -3  -7   3    5.20   28.50
   3   7  -3    0.70    1.10
   3   7  -3  -10.00   26.50
  -3  -6   3  -11.10   20.60
   3   6  -3    6.40   19.70
  -3  -5   3    8.90   18.00
  -3  -5   3    8.40    1.20
  -3  -5   3   10.50    0.90
   3   5  -3   14.20   17.30
   3   5  -3    9.10    1.40
  -3  -4   3    7.70   16.20
  -3  -4   3   -0.70    1.20
  -3  -4   3    2.20    0.70
  -3  -4   3    2.70    0.50
   3   4  -3    2.10    0.80
  -3  -3   3   14.80    9.70
  -3  -3   3   12.40    0.90
  -3  -3   3    9.60    1.10
   3   3  -3   11.20    1.00
   3   3  -3   14.50   12.00
   3   3  -3   11.00    1.20
  -3  -2   3    4.00   12.70
   3   2  -3   -8.70   13.20
  -3  -1   3   19.50    1.20
  -3  -1   3   24.60   13.40
   3   1  -3   29.60   11.20
   3   1  -3   17.70    1.30
  -3   0   3   23.20    1.50
  -3   0   3   29.90   13.70
   3   0  -3   25.50    1.60
   3   0  -3   20.10   11.10
  -3   1   3    1.40    0.60
  -3   1   3   -2.20   14.40
  -3   1   3    0.10    0.60
   3  -1  -3  -17.60   14.70
   3  -1  -3   -0.30    0.70
   3  -1  -3    0.40    0.50
   3  -1  -3    0.70    0.50
  -3   2   3    0.50    0.60
  -3   2   3   -0.60   15.00
   3  -2  -3  -15.20   17.20
   3  -2  -3   -0.40    0.50
   3  -2  -3    1.30    0.50
   3  -2  -3    0.60    1.00
  -3   3   3   -8.50   18.30
  -3   3   3   29.90    2.10
   3  -3  -3   50.19   18.20
   3  -3  -3   30.60    1.50
   3  -3  -3   34.20    1.80
  -3   4   3    3.00    1.10
  -3   4   3   -2.60   21.70
  -3   4   3    2.50    0.90
   3  -4  -3    1.90    0.70
   3  -4  -3    3.20    0.70
   3  -4  -3    3.90   28.50
  -3   5   3   25.00    2.10
  -3   5   3   18.60    2.20
  -3   6   3    1.70    1.50
  -3   6   3    1.30    1.30
  -3   7   3   11.00    2.20
  -2  -9   3    2.10    3.60
   2   9  -3   -0.70    1.90
  -2  -8   3    0.30    2.60
   2   8  -3    2.50    1.70
  -2  -7   3   52.19   25.10
   2   7  -3   25.70   25.60
   2   7  -3   16.20    2.10
  -2  -6   3    1.40    1.50
  -2  -6   3  -27.00   19.30
   2   6  -3   -1.40   18.20
   2   6  -3    0.30    0.80
  -2  -5   3   -2.60   15.10
  -2  -5   3    4.50    0.50
   2   5  -3    4.80    1.00
   2   5  -3   15.90   15.40
  -2  -4   3   62.49   16.80
  -2  -4   3   51.19    3.30
  -2  -4   3   64.59    2.20
  -2  -4   3   62.19    2.00
   2   4  -3   73.59   16.70
   2   4  -3   65.89    3.00
  -2  -3   3  239.98    6.80
  -2  -3   3  259.27   25.80
  -2  -3   3  239.78    6.70
   2   3  -3  232.88    7.50
   2   3  -3  245.78   24.50
  -2  -2   3  239.58    6.80
  -2  -2   3  219.18   23.10
   2   2  -3  238.98    6.80
   2   2  -3  244.18    7.30
   2   2  -3  227.58   24.30
  -2  -1   3    9.60    0.80
  -2  -1   3   23.40   10.30
  -2  -1   3    9.50    1.00
   2   1  -3    9.80    0.80
   2   1  -3    4.60   10.10
   2   1  -3   10.40    0.90
  -2   0   3   47.80   12.10
  -2   0   3   49.00    2.10
   2   0  -3   52.09    2.10
   2   0  -3   51.89   14.00
  -2   1   3   -1.50   11.80
  -2   1   3   11.60    1.00
  -2   1   3   11.10    1.00
   2  -1  -3   10.60    0.90
   2  -1  -3   10.20    1.00
   2  -1  -3   13.50   12.10
  -2   2   3  492.45   14.00
  -2   2   3  505.85   14.40
  -2   2   3  505.15   36.70
   2  -2  -3  508.95   14.00
   2  -2  -3  501.35   14.10
   2  -2  -3  499.35   38.60
  -2   3   3   70.89   14.50
  -2   3   3   69.79    3.10
  -2   3   3   70.09    2.70
   2  -3  -3   69.79    2.60
   2  -3  -3   68.19    2.60
   2  -3  -3   55.89   21.20
  -2   4   3   21.40   16.60
   2  -4  -3   23.60   21.20
  -2   5   3    8.70    1.40
  -2   5   3    0.90   17.40
  -2   5   3    8.30    1.30
   2  -5  -3   -1.70   29.40
   2  -5  -3    5.80    1.00
  -2   6   3    0.10    1.10
  -2   6   3    0.80    1.00
   2  -6  -3  -23.90   25.30
   2  -6  -3    0.10    0.90
  -2   7   3    6.20    1.70
  -1  -9   3   -0.20    3.70
   1   9  -3   -0.60    2.10
  -1  -8   3    6.70    2.90
   1   8  -3    2.50    1.60
  -1  -7   3   -2.50    2.10
   1   7  -3    1.00    1.20
  -1  -6   3  182.88   31.50
   1   6  -3  114.69   24.50
   1   6  -3  159.28    6.00
  -1  -5   3   11.30   14.70
   1   5  -3    2.60   13.30
  -1  -4   3   15.80   12.60
   1   4  -3   25.10   11.40
  -1  -3   3    3.70    0.30
  -1  -3   3    2.20   11.40
  -1  -3   3    5.80    1.30
   1   3  -3   10.30    8.50
   1   3  -3    4.50    0.80
  -1  -2   3  178.58    6.10
  -1  -2   3  162.78    4.60
  -1  -2   3  165.18    4.70
  -1  -2   3  152.08   17.90
   1   2  -3  149.88   17.20
   1   2  -3  169.38    4.70
  -1  -1   3  430.66   11.50
  -1  -1   3  444.96   27.60
  -1  -1   3  436.06   11.80
   1   1  -3  372.56   12.10
   1   1  -3  412.76   11.40
   1   1  -3  459.85   28.10
   1   1  -3  431.16   11.80
  -1   0   3  142.29    4.30
  -1   0   3  156.38   17.30
  -1   0   3  139.29    4.30
   1   0  -3  143.49    4.30
   1   0  -3  130.69   16.20
   1   0  -3  141.49    4.30
  -1   1   3   -1.10    8.10
  -1   1   3    3.10    0.50
  -1   1   3    2.90    0.50
   1  -1  -3    7.60    6.10
   1  -1  -3    3.00    0.50
   1  -1  -3    3.70    0.70
   1  -1  -3    3.10    0.50
  -1   2   3  320.57    9.40
  -1   2   3  318.57    8.90
  -1   2   3  337.37   26.20
   1  -2  -3  321.47    8.90
   1  -2  -3  307.87   28.00
   1  -2  -3  320.07    9.40
  -1   3   3  124.79    4.60
  -1   3   3  128.69    4.00
  -1   3   3  117.99   19.40
  -1   3   3  132.09    4.60
  -1   3   3  130.79    4.00
   1  -3  -3  131.39    4.30
   1  -3  -3  131.09    4.00
   1  -3  -3  108.49   20.90
  -1   4   3   25.60    1.40
  -1   4   3   25.40    1.40
  -1   4   3   30.10    1.90
  -1   4   3    1.50   10.00
   1  -4  -3   19.50   16.60
   1  -4  -3   25.90    1.50
  -1   5   3    0.30    0.60
  -1   5   3    1.70    0.90
   1  -5  -3  -20.90   20.70
   1  -5  -3   -0.30    0.60
  -1   6   3    8.80    1.60
  -1   6   3    6.90    1.10
   1  -6  -3   26.20   27.60
   1  -6  -3    7.70    1.20
   1  -6  -3  -14.30   18.40
  -1   7   3   -1.50    1.30
  -1   7   3    1.00    1.10
   1  -7  -3   -1.00    1.00
  -1   8   3   -0.70    1.70
   1  -8  -3    1.20    1.60
   0  -8   3   -0.90    3.00
   0   8  -3   -0.60    1.50
   0  -6   3  541.95   45.70
   0   6  -3  522.55   15.70
   0   6  -3  497.05   42.20
   0  -5   3  103.59   21.00
   0   5  -3   90.69    2.80
   0   5  -3   91.19    3.90
   0   5  -3   95.09   20.20
   0  -4   3   17.70   12.00
   0   4  -3    7.70    9.90
   0   4  -3    8.80    1.10
   0  -3   3    3.70    1.00
   0  -3   3    5.40    7.90
   0   3  -3    4.50    0.70
   0   3  -3   13.10    9.20
   0  -2   3   -1.90    5.70
   0  -2   3   -0.20    0.40
   0   2  -3    0.60    1.00
   0   2  -3   -4.70    4.90
   0   2  -3    0.40    0.30
   0  -1   3  762.82   21.10
   0  -1   3  799.82   21.70
   0  -1   3  756.32   20.70
   0  -1   3  815.32   35.00
   0   1  -3  757.62   20.60
   0   1  -3  768.62   21.10
   0   1  -3  805.12   34.40
   0   1  -3  801.72   21.60
   0   0   3    5.80    0.50
   0   0   3    4.80    4.50
   0   0   3    4.50    0.50
   0   0  -3   -2.90    4.80
   0   0  -3    4.60    0.40
   0   0  -3    5.80    0.50
   0   1   3  109.39   12.50
   0   1   3   86.39    2.50
   0   1   3   84.99    2.90
   0  -1  -3   63.79   11.10
   0  -1  -3   84.99    3.20
   0  -1  -3   86.89    2.80
   0  -1  -3   85.09    2.50
   0   2   3   17.60    1.10
   0   2   3    8.90    6.90
   0   2   3   16.40    0.70
   0   2   3   17.40    1.30
   0  -2  -3   17.10    1.20
   0  -2  -3   14.70    1.00
   0  -2  -3   15.90    0.70
   0  -2  -3   10.30    8.40
   0   3   3   30.90    1.80
   0   3   3   33.20    1.20
   0   3   3   32.60    1.20
   0   3   3   33.90    1.80
   0   3   3   18.30    9.20
   0  -3  -3   30.70    1.60
   0  -3  -3   36.80   10.40
   0   4   3   40.90    1.60
   0   4   3   41.40    1.60
   0   4   3   29.10   10.30
   0   4   3   41.50    2.20
   0  -4  -3   41.50    2.00
   0  -4  -3   64.39   16.10
   0   5   3    5.40    0.80
   0   5   3    5.10    0.80
   0   5   3    6.50    1.10
   0  -5  -3   29.10   16.80
   0  -5  -3   22.30    8.90
   0  -5  -3    7.60    1.00
   0   6   3    7.30    1.40
   0   6   3    9.10    1.20
   0  -6  -3    1.80   23.70
   0  -6  -3    9.30    1.30
   0  -6  -3    1.00   11.60
   0   7   3   40.40    2.90
   0   7   3   39.10    2.30
   0  -7  -3   28.00   21.20
   0  -7  -3   11.10   24.00
   0  -7  -3   39.00    2.40
   0   8   3   -0.80    1.30
   0  -8  -3    1.30    1.30
   0   9   3    1.60    1.60
   0  -9  -3    0.60    1.80
   1  -8   3   -1.50    3.10
  -1   8  -3   -0.20    1.80
   1  -7   3   -1.00    2.20
  -1   7  -3    2.20    1.40
   1  -6   3   13.30    2.50
   1  -5   3   90.19   21.20
  -1   5  -3   93.39   20.00
  -1   5  -3   86.09    3.80
  -1   5  -3   83.39    2.90
   1  -4   3    1.60    1.30
   1  -4   3   26.20   11.60
   1  -4   3    0.70    0.40
  -1   4  -3  -11.70   10.90
  -1   4  -3   -0.10    0.60
   1  -3   3    2.20    8.60
  -1   3  -3   -7.70    6.70
   1  -2   3   16.00    6.70
   1  -2   3   23.50    1.70
  -1   2  -3   23.70    1.40
  -1   2  -3   23.00    0.80
  -1   2  -3   23.70    1.60
  -1   2  -3   23.00    0.80
  -1   2  -3   23.60    6.80
   1  -1   3  131.79    4.50
   1  -1   3  123.29    4.00
   1  -1   3  121.89    3.60
   1  -1   3  118.09   10.90
  -1   1  -3  134.79    4.40
  -1   1  -3  125.69    3.60
  -1   1  -3  131.49    3.60
  -1   1  -3  130.29   10.50
  -1   1  -3  130.79    4.10
   1   0   3  383.96   10.80
   1   0   3  407.46   11.50
   1   0   3  391.66   10.70
   1   0   3  389.26   18.20
  -1   0  -3  379.86   10.70
  -1   0  -3  422.56   11.40
  -1   0  -3  389.56   17.70
  -1   0  -3  393.86   10.80
  -1   0  -3  383.76   10.80
   1   1   3  450.85   20.60
   1   1   3  439.56   11.90
   1   1   3  435.86   12.30
   1   1   3  455.35   12.80
  -1  -1  -3  461.35   21.40
  -1  -1  -3  450.55   12.70
  -1  -1  -3  448.46   11.90
  -1  -1  -3  452.75   12.30
  -1  -1  -3  433.86   11.90
   1   2   3  929.21   25.20
   1   2   3  958.90   38.00
   1   2   3  926.11   25.50
  -1  -2  -3  916.11   38.70
  -1  -2  -3  926.21   25.60
  -1  -2  -3  948.31   25.20
  -1  -2  -3  922.01   25.40
   1   3   3    8.00    0.40
   1   3   3    8.60    1.00
   1   3   3    7.40    0.40
   1   3   3    7.60    0.90
  -1  -3  -3    8.70    1.20
  -1  -3  -3    7.80    0.90
  -1  -3  -3    6.20    7.60
  -1  -3  -3    6.30    0.90
   1   4   3  159.48    5.40
   1   4   3  156.78    4.50
   1   4   3  161.18    4.50
  -1  -4  -3  159.58    5.20
  -1  -4  -3  151.88    4.50
  -1  -4  -3  117.09   20.00
  -1  -4  -3  156.48   16.80
   1   5   3   55.39    2.10
   1   5   3   54.39    2.10
   1   5   3   56.69    2.70
  -1  -5  -3   54.59    2.10
  -1  -5  -3   54.69    2.50
  -1  -5  -3   46.20   10.90
  -1  -5  -3   43.70   21.00
   1   6   3   10.00    1.40
   1   6   3    7.30    1.00
  -1  -6  -3    7.60    1.20
  -1  -6  -3   28.50   20.70
  -1  -6  -3   18.00   13.10
   1   7   3   27.70    2.30
   1   7   3   30.70    1.90
  -1  -7  -3   29.90   28.70
  -1  -7  -3   30.50    2.10
  -1  -7  -3   30.50   19.10
   1   8   3    1.90    1.10
  -1  -8  -3    0.90    1.20
   1   9   3   -0.70    1.30
  -1  -9  -3   -0.60    1.40
   2  -7   3   -1.90    2.80
  -2   7  -3    7.60    1.80
   2  -6   3    2.80    2.10
   2  -5   3    3.10   20.60
   2  -5   3   14.30    2.20
  -2   5  -3   21.50    1.90
  -2   5  -3   17.70    1.30
   2  -4   3   -0.30    1.30
   2  -4   3   -1.50   12.10
   2  -4   3   12.70   13.50
   2  -4   3   -0.20    0.60
  -2   4  -3   -0.10    0.70
  -2   4  -3    0.30    0.50
   2  -3   3   14.20    9.50
   2  -3   3   11.40    0.80
   2  -3   3   13.20    1.50
   2  -3   3   22.60    9.20
  -2   3  -3   10.40    1.20
  -2   3  -3   12.90    0.80
   2  -2   3    3.70    1.00
   2  -2   3    1.50    5.80
   2  -2   3    2.40    0.40
  -2   2  -3    3.20    0.50
  -2   2  -3    1.80    0.60
  -2   2  -3    2.20    0.70
  -2   2  -3    2.80    0.50
   2  -1   3  407.26   11.90
   2  -1   3  423.86   19.30
   2  -1   3  425.46   11.50
   2  -1   3  433.66   12.20
  -2   1  -3  403.56   11.40
  -2   1  -3  425.96   11.50
  -2   1  -3  418.96   11.90
  -2   1  -3  428.76   19.60
  -2   1  -3  422.26   11.90
   2   0   3   53.29    4.80
   2   0   3   61.19    2.50
   2   0   3   57.09    2.00
  -2   0  -3   51.89    4.30
  -2   0  -3   57.59    2.10
  -2   0  -3   57.69    2.10
  -2   0  -3   55.89    2.00
  -2   0  -3   58.79    2.00
   2   1   3   26.40    1.10
   2   1   3   27.00    1.20
   2   1   3   29.10    1.60
  -2  -1  -3   26.60    3.10
  -2  -1  -3   27.20    1.10
  -2  -1  -3   26.50    1.10
  -2  -1  -3   26.20    1.60
  -2  -1  -3   28.50    1.30
  -2  -1  -3   27.10    1.40
  -2  -1  -3   26.20    3.80
   2   2   3   18.20    0.80
   2   2   3   17.80    1.10
   2   2   3   18.20    1.30
  -2  -2  -3   19.30    1.20
  -2  -2  -3   10.20    4.40
  -2  -2  -3   18.60    0.80
  -2  -2  -3   14.70    3.90
  -2  -2  -3   17.70    1.10
  -2  -2  -3   19.20    1.40
   2   3   3   10.20    0.90
   2   3   3   11.00    1.10
   2   3   3   10.50    0.60
  -2  -3  -3    8.90    1.00
  -2  -3  -3   11.00    0.60
  -2  -3  -3   12.50    5.30
  -2  -3  -3   10.70    0.90
  -2  -3  -3   10.00    7.00
   2   4   3  222.88    6.10
   2   4   3  206.18    6.80
  -2  -4  -3  204.48   17.90
  -2  -4  -3  221.58    6.10
  -2  -4  -3  212.98    6.70
  -2  -4  -3  198.98   20.50
   2   5   3   13.20    1.30
   2   5   3   11.90    0.90
  -2  -5  -3   13.70    1.20
  -2  -5  -3   13.30    0.90
  -2  -5  -3    8.40   11.90
  -2  -5  -3   24.30    9.20
   2   6   3   18.50    1.70
   2   6   3   16.40    1.40
  -2  -6  -3    3.80   17.80
  -2  -6  -3   17.60    1.40
  -2  -6  -3   25.00   11.80
  -2  -6  -3   19.10    1.60
  -2  -7  -3    5.20   12.50
  -2  -7  -3  -21.80   23.10
   2   8   3    1.60    1.00
   2   8   3    0.60    1.00
  -2  -8  -3    6.30   30.40
  -2  -8  -3    1.90    1.20
   2   9   3    0.70    1.40
  -2  -9  -3    1.20    1.40
  -2 -10  -3    2.00    2.20
  -3   7  -3   -1.80    1.80
   3  -6   3    2.00    2.30
  -3   6  -3   -1.10    1.40
   3  -5   3    1.20    1.80
  -3   5  -3   -0.10    1.00
  -3   5  -3   -0.70    0.70
   3  -4   3    6.90   14.60
   3  -4   3    7.50   17.80
   3  -3   3    1.40    1.10
   3  -3   3    1.30   12.90
   3  -3   3   13.50   10.70
  -3   3  -3    0.90    0.70
  -3   3  -3    1.10    0.40
   3  -2   3   25.10    9.20
   3  -2   3   20.70    1.50
   3  -2   3   23.40    8.50
  -3   2  -3   21.80    1.30
  -3   2  -3   23.20    1.50
  -3   2  -3   22.50    1.40
  -3   2  -3   23.70    1.20
   3  -1   3  453.05   13.30
   3  -1   3  482.05   24.00
   3  -1   3  474.25   13.00
  -3   1  -3  475.05   13.40
  -3   1  -3  459.95   13.10
  -3   1  -3  475.45   13.00
   3   0   3  190.68    6.80
   3   0   3  238.78    6.70
   3   0   3  229.38   10.70
   3   0   3  232.28   12.40
   3   0   3  236.68    6.90
  -3   0  -3  232.38    6.70
  -3   0  -3  241.18    6.60
  -3   0  -3  218.58    6.80
   3   1   3  231.18    7.00
   3   1   3  254.27    7.30
   3   1   3  235.78    7.00
   3   1   3  237.98    8.10
  -3  -1  -3  232.58    7.20
  -3  -1  -3  242.68    8.50
  -3  -1  -3  240.78    7.00
  -3  -1  -3  242.48    7.10
  -3  -1  -3  237.48    7.00
   3   2   3  124.49    3.80
   3   2   3  123.19    4.20
   3   2   3  120.39    8.60
   3   2   3  120.89    4.10
  -3  -2  -3  122.39    3.80
  -3  -2  -3  120.39    4.10
  -3  -2  -3  121.89    9.10
  -3  -2  -3  125.49    4.40
  -3  -2  -3  120.99    4.10
   3   3   3    4.00    0.80
   3   3   3    3.50    0.50
   3   3   3   -2.80    4.30
  -3  -3  -3   11.00    5.40
  -3  -3  -3    3.50    0.50
  -3  -3  -3    3.10    0.80
  -3  -3  -3    4.00    0.60
   3   4   3  113.19    4.20
   3   4   3  112.89    3.60
  -3  -4  -3  128.49   15.30
  -3  -4  -3  114.09    4.10
  -3  -4  -3  115.99    3.70
   3   5   3   18.00    1.50
   3   5   3   18.30    1.10
   3   5   3   17.30    9.70
  -3  -5  -3   17.40    8.50
  -3  -5  -3   18.00    1.30
  -3  -5  -3   17.70    1.20
   3   6   3    2.60    0.80
   3   6   3    3.20    0.60
  -3  -6  -3    5.50    1.00
  -3  -6  -3    8.90   10.80
  -3  -7  -3   23.90   16.60
  -3  -7  -3   11.40   15.70
   3   8   3    1.90    1.10
   3   8   3    0.70    0.90
  -3  -8  -3  -10.80   25.80
  -3  -8  -3    1.00    1.10
   3   9   3    0.50    1.40
   3   9   3    0.50    1.20
  -3  -9  -3    2.20    1.40
   3  10   3    2.40    1.70
  -3 -10  -3    0.00    2.00
  -4   6  -3    1.20    1.60
  -4   5  -3   -0.10    1.30
  -4   5  -3    2.40    0.90
  -4   4  -3   49.80    2.30
   4  -3   3  -12.90   16.10
   4  -3   3   -0.70    1.30
   4  -3   3   -4.50   11.00
  -4   3  -3    1.20    0.50
  -4   3  -3    1.00    0.80
   4  -2   3    5.90    9.00
   4  -2   3    8.70   11.90
   4  -2   3    9.90    1.20
  -4   2  -3    9.10    0.90
  -4   2  -3    8.90    1.30
  -4   2  -3    8.90    0.90
   4  -1   3    2.10    6.70
   4  -1   3   -0.70    0.80
   4  -1   3   -1.80    8.00
   4  -1   3    0.50    0.50
  -4   1  -3    0.30    0.60
  -4   1  -3    1.00    0.50
  -4   1  -3    1.00    0.50
   4   0   3   57.99    2.50
   4   0   3   58.49    2.40
   4   0   3   56.19    9.30
  -4   0  -3   59.99    2.30
  -4   0  -3   58.39    2.40
  -4   0  -3   54.19    9.10
   4   1   3    2.10    4.30
   4   1   3    9.40    0.90
  -4  -1  -3    9.40    0.90
  -4  -1  -3   11.20    5.20
  -4  -1  -3    8.20    0.80
   4   2   3   11.00    0.90
   4   2   3   10.10    0.90
   4   2   3    9.40    4.20
   4   2   3   10.30    1.10
  -4  -2  -3    9.90    1.00
  -4  -2  -3    9.70    0.90
  -4  -2  -3   10.10    0.90
  -4  -2  -3    8.70    5.60
   4   3   3  202.38    6.30
   4   3   3  184.18    6.30
   4   3   3  195.28    5.90
   4   3   3  195.28   14.90
  -4  -3  -3  196.28    6.10
  -4  -3  -3  185.88    5.90
  -4  -3  -3  188.98   16.30
  -4  -3  -3  201.98    6.10
   4   4   3  444.16   12.30
   4   4   3  444.86   25.10
   4   4   3  442.96   12.80
  -4  -4  -3  423.86   12.30
  -4  -4  -3  440.36   12.60
  -4  -4  -3  419.26   25.90
   4   5   3    0.50    0.50
   4   5   3    0.90    0.60
  -4  -5  -3   -0.10    0.50
  -4  -5  -3   -5.90    9.80
   4   6   3   13.30    1.50
   4   6   3   11.90    1.10
   4   6   3   23.00   11.90
  -4  -6  -3   10.30    1.20
  -4  -6  -3   23.40   11.30
   4   7   3   48.40    2.90
   4   7   3   36.40   18.50
   4   7   3   47.60    2.40
  -4  -7  -3   50.79   17.20
  -4  -7  -3   49.70    2.70
   4   8   3    3.00    1.20
   4   8   3    2.00    0.90
  -4  -8  -3    3.20    1.20
   4   9   3    6.00    1.20
  -4  -9  -3    4.10    1.40
   4  10   3    0.70    1.70
  -4 -10  -3    1.40    1.70
  -5   5  -3    2.80    1.70
  -5   4  -3   -0.30    1.30
  -5   4  -3    1.50    0.90
   5  -3   3   -1.30    2.80
  -5   3  -3    1.10    0.70
   5  -2   3   -7.20   15.40
   5  -2   3   -1.40    1.40
   5  -2   3    3.50    0.90
   5  -2   3    2.10   12.20
  -5   2  -3    3.60    0.80
   5  -1   3  177.98    5.90
   5  -1   3  199.98   24.90
   5  -1   3  192.08    6.70
  -5   1  -3  203.78    6.00
  -5   1  -3  195.28    5.70
  -5   1  -3  204.58    6.80
  -5   1  -3  199.38    6.30
   5   0   3   16.50    9.10
   5   0   3    3.20    0.70
  -5   0  -3    4.40    9.00
  -5   0  -3    3.10    0.60
  -5   0  -3    2.50    0.60
   5   1   3   65.19    2.80
   5   1   3   57.59   10.50
  -5  -1  -3   63.79    2.70
  -5  -1  -3   67.89    2.40
  -5  -1  -3   89.99   14.20
   5   2   3   36.50    1.90
   5   2   3   30.80    7.80
   5   2   3   35.80    1.90
  -5  -2  -3   36.80    1.90
  -5  -2  -3   36.10    1.60
  -5  -2  -3   35.70    9.90
   5   3   3   80.39    3.30
   5   3   3   79.89    3.10
   5   3   3   78.99   12.80
   5   3   3   71.59    3.20
  -5  -3  -3   89.69   15.10
  -5  -3  -3   81.79    3.00
  -5  -3  -3   81.39    3.20
   5   4   3  463.65   13.20
   5   4   3  452.65   27.10
   5   4   3  464.25   13.50
  -5  -4  -3  457.75   13.20
  -5  -4  -3  452.85   13.30
  -5  -4  -3  458.35   29.60
   5   5   3   45.20   13.40
   5   5   3   42.50    2.40
   5   5   3   45.70    2.20
  -5  -5  -3   44.50    2.30
  -5  -5  -3   38.10   12.00
   5   6   3    0.60    0.60
   5   6   3  -22.00   11.40
   5   6   3    1.70    0.70
  -5  -6  -3  -14.20   11.80
  -5  -6  -3    1.00    0.70
   5   7   3    6.90   15.60
   5   7   3   -0.20    0.90
   5   7   3    1.10    0.70
  -5  -7  -3    0.90    0.90
  -5  -7  -3  -13.50   15.80
   5   8   3    0.90    1.00
   5   8   3   -0.10    0.90
  -5  -8  -3    0.70    1.10
   5   9   3    2.10    1.20
  -5  -9  -3    1.20    1.20
   5  10   3   -0.30    1.60
   5  10   3   -0.90    1.70
  -5 -10  -3   -2.20    1.70
  -6   4  -3    3.50    1.80
  -6   4  -3    5.20    1.30
   6  -3   3    0.70    1.20
  -6   3  -3    3.70    1.00
  -6   3  -3    2.40    1.40
   6  -2   3    3.90    1.20
  -6   2  -3    1.30    1.10
  -6   2  -3    1.60    0.80
   6  -1   3    7.00    1.20
   6  -1   3    5.90   16.60
  -6   1  -3   11.50    1.70
  -6   1  -3    7.20    1.10
  -6   1  -3   13.40   15.40
   6   0   3    2.60    0.90
   6   0   3    9.40   13.60
  -6   0  -3    2.20    0.80
  -6   0  -3   -6.40   12.40
   6   1   3  117.39    4.50
   6   1   3  112.39   17.30
  -6  -1  -3  119.19    3.50
  -6  -1  -3  102.69   17.60
  -6  -1  -3  118.89    4.40
   6   2   3    4.50    9.80
  -6  -2  -3    9.40   12.20
   6   3   3    2.60    1.00
   6   3   3   -0.60    8.80
  -6  -3  -3   -9.40   10.80
  -6  -3  -3    0.70    1.30
   6   4   3   14.80    1.40
   6   4   3    1.10   10.60
   6   4   3   14.00    1.50
  -6  -4  -3   21.80   13.10
  -6  -4  -3   15.20    1.20
  -6  -4  -3   13.20    1.30
   6   5   3    1.50    0.70
   6   5   3   -0.10    0.80
   6   5   3    0.40   10.90
  -6  -5  -3   10.20   12.80
  -6  -5  -3    0.50    0.60
  -6  -5  -3    1.00    0.70
   6   6   3   11.20   14.90
   6   6   3    9.30    1.30
   6   6   3    7.60    1.40
  -6  -6  -3   23.80   15.00
  -6  -6  -3    7.70    1.20
  -6  -6  -3    8.20    1.30
   6   7   3    5.20    1.20
   6   7   3    3.70    0.90
  -6  -7  -3    2.00    0.90
  -6  -7  -3    4.00    1.00
   6   8   3    0.50    1.10
   6   8   3   -0.10    1.10
  -6  -8  -3    1.30    1.20
  -6  -8  -3   -0.20    1.10
   6   9   3    0.80    1.20
   6   9   3    1.10    1.30
  -6  -9  -3   -2.20    1.40
   6  10   3    1.30    1.60
   6  10   3    0.00    1.40
  -6 -10  -3   -1.40    1.80
   7  -3   3    1.30    1.70
  -7   3  -3    3.50    1.30
  -7   3  -3    3.10    1.80
   7  -2   3    1.60    1.30
  -7   2  -3   -0.90    1.10
  -7   2  -3   -0.30    1.40
   7  -1   3    1.80    1.20
  -7   1  -3    2.20    1.10
  -7   1  -3    2.90    1.10
   7   0   3   18.40    2.30
  -7   0  -3   18.40    1.80
   7   1   3  101.19    4.30
   7   1   3   73.99   18.00
  -7  -1  -3   88.69    3.90
  -7  -1  -3  159.08   25.50
   7   2   3   -4.50   13.00
   7   2   3    1.00    0.70
  -7  -2  -3   -0.50   16.30
  -7  -2  -3    1.90    0.90
   7   3   3    0.60    1.40
   7   3   3    0.30    0.80
   7   3   3    0.00   13.40
  -7  -3  -3    0.20    0.50
  -7  -3  -3  -10.80   14.90
  -7  -3  -3   -0.20    0.70
   7   4   3    2.80    0.90
   7   4   3    1.70   12.00
  -7  -4  -3    2.00    0.90
  -7  -4  -3    3.60    0.60
  -7  -4  -3    6.40   14.60
   7   5   3    6.80    1.10
   7   5   3   17.10   16.50
   7   5   3    6.50    1.20
  -7  -5  -3    8.70    1.00
  -7  -5  -3   -9.00   17.20
  -7  -5  -3    6.30    1.10
   7   6   3   -0.50    0.90
   7   6   3   -1.40    1.00
  -7  -6  -3    1.70    0.80
  -7  -6  -3   -0.30    0.80
   7   7   3    2.40    1.00
   7   7   3    1.00    1.10
  -7  -7  -3    1.00    1.00
  -7  -7  -3    1.90    1.10
   7   8   3   14.40    2.00
   7   8   3    9.20    1.70
  -7  -8  -3   10.00    1.90
  -7  -8  -3   14.20    2.20
   7   9   3   68.79    3.90
   7   9   3   65.49    3.60
  -7  -9  -3   63.79    4.00
   7  10   3    0.40    1.80
   7  10   3    1.60    1.70
  -7 -10  -3    3.40    1.90
  -7 -10  -3    2.20    2.10
   8  -2   3   -2.30    1.80
  -8   2  -3    0.60    1.80
  -8   2  -3    0.40    1.50
   8  -1   3   -1.10    1.50
  -8   1  -3    2.60    1.60
  -8   1  -3    2.50    1.20
   8   0   3    1.50    1.30
  -8   0  -3    1.20    1.30
   8   1   3    2.50    1.20
  -8  -1  -3    1.90    1.10
   8   2   3    0.00    1.10
  -8  -2  -3    3.00    1.00
   8   3   3   -0.10    0.90
  -8  -3  -3    0.50    1.00
   8   4   3   26.90    3.40
  -8  -4  -3   26.60    2.10
  -8  -4  -3   26.80    1.50
   8   5   3   -0.10    1.10
  -8  -5  -3    0.80    0.70
  -8  -5  -3    0.40    1.00
   8   6   3    0.90    1.20
  -8  -6  -3    1.60    0.80
  -8  -6  -3    2.30    1.20
   8   7   3    4.60    1.30
   8   7   3    2.90    1.40
  -8  -7  -3    4.80    1.40
  -8  -7  -3    4.60    1.00
   8   8   3    1.30    1.40
   8   8   3   -2.00    1.40
  -8  -8  -3    2.20    1.30
  -8  -8  -3    0.80    1.30
   8   9   3   55.89    3.80
   8   9   3   44.00    3.30
  -8  -9  -3   53.19    3.70
  -8  -9  -3   53.59    3.40
   9   0   3    2.10    1.70
  -9   0  -3    0.80    2.10
  -9   0  -3    3.60    1.60
   9   1   3   57.29    4.00
  -9  -1  -3   60.19    3.80
   9   2   3   21.70    2.50
  -9  -2  -3   19.90    2.40
   9   3   3    2.80    1.40
  -9  -3  -3    1.90    1.20
   9   4   3    2.80    1.30
  -9  -4  -3    0.70    1.30
   9   5   3    0.10    1.20
  -9  -5  -3    2.60    1.20
   9   6   3    4.00    1.50
  -9  -6  -3    4.90    1.60
   9   7   3    1.90    1.40
  -9  -7  -3    4.50    1.50
  -9  -7  -3    0.00    1.50
   9   8   3   -1.60    1.60
  -9  -8  -3   -0.40    1.50
  -9  -8  -3    0.30    1.60
  10   2   3    6.00    1.90
 -10  -2  -3   10.00    1.90
  10   3   3    3.30    1.60
 -10  -3  -3    0.30    1.70
  10   4   3    1.30    1.90
 -10  -4  -3   -0.40    1.30
  10   5   3    5.00    1.80
 -10  -5  -3    5.00    1.50
  10   6   3    5.20    2.00
 -10  -6  -3    5.30    1.80
  10   7   3    2.10    2.10
 -10  -7  -3   -0.50    1.80
  -7  -6   4    3.20    2.60
   7   6  -4    3.50    1.80
  -7  -5   4    1.90    1.20
  -7  -5   4   -1.00    2.90
   7   5  -4    0.70    1.70
  -7  -4   4    2.50    1.30
   7   4  -4    2.90    1.60
  -7  -3   4   46.90    3.10
   7   3  -4   42.80    3.50
  -7  -2   4   15.40    2.30
   7   2  -4    9.70    1.70
  -7  -1   4   -0.40    1.50
   7   1  -4   -2.20    1.20
  -7   0   4    1.30    1.50
   7   0  -4    0.10    1.30
  -6  -7   4    1.40    2.10
   6   7  -4    0.10    1.60
   6   6  -4   12.00    2.00
  -6  -5   4    0.30    1.00
   6   5  -4    1.00    1.30
  -6  -4   4   -1.70    1.50
  -6  -4   4    2.40    1.00
   6   4  -4    0.80    1.20
  -6  -3   4    9.30    1.40
   6   3  -4    8.60    1.60
   6   2  -4    2.00    1.10
  -6  -1   4    4.60    1.30
   6   1  -4    3.60    1.10
  -6   0   4    1.70    1.10
   6   0  -4    2.50    1.00
  -6   1   4    0.80    1.30
   6  -1  -4   -2.30    1.10
  -6   2   4   10.10    2.10
   6  -2  -4    8.10    1.50
  -5  -8   4   -1.40    2.90
   5   8  -4   -1.90    1.90
  -5  -7   4    2.40    2.20
   5   7  -4    7.80    1.70
  -5  -6   4   -0.20    2.00
   5   6  -4   -2.60    1.20
   5   5  -4   27.00   36.10
  -5  -4   4  -37.30   28.70
   5   4  -4    5.00   21.20
  -5  -3   4   43.00    2.30
  -5  -3   4   29.10   28.30
   5   3  -4   42.20    2.80
   5   3  -4   39.70   28.10
  -5  -2   4   16.80   27.40
  -5  -2   4   10.50    1.40
   5   2  -4    7.30    1.20
  -5  -1   4   29.20   43.70
   5   1  -4   35.80   21.80
  -5   0   4   19.40    2.00
   5   0  -4   20.40    1.80
   5   0  -4   23.60    2.10
  -5   1   4    4.80    1.20
   5  -1  -4    3.90    0.80
  -5   2   4   13.10    1.90
   5  -2  -4   13.40    1.60
  -5   3   4    2.10    1.60
   5  -3  -4    1.30    1.20
  -5   4   4    5.90    2.00
  -4  -8   4    2.40    2.70
   4   8  -4    2.90    1.90
  -4  -7   4    2.90    2.50
   4   7  -4    1.90    1.50
  -4  -6   4   -0.40    1.70
  -4  -6   4   14.70   28.80
   4   6  -4    2.00    1.30
   4   6  -4  -25.20   27.80
  -4  -5   4  -15.00   24.90
  -4  -5   4    5.00    0.70
   4   5  -4    4.10    1.50
   4   5  -4   10.80   20.30
  -4  -4   4   24.90   21.20
  -4  -4   4    7.10    0.90
   4   4  -4    8.10   17.70
   4   4  -4    6.90    1.20
  -4  -3   4    5.40   20.20
   4   3  -4   12.30   20.80
  -4  -2   4   20.70    1.50
   4   2  -4   10.80   20.70
   4   2  -4   17.30    1.60
  -4  -1   4   97.49    3.70
  -4  -1   4   68.59   19.70
   4   1  -4   92.49    3.80
   4   1  -4   76.19   24.70
  -4   0   4    1.00    0.70
  -4   0   4   -1.20    0.90
  -4   0   4  -11.50   16.10
   4   0  -4  -20.70   21.20
   4   0  -4   -0.30    0.90
   4   0  -4    0.60    0.60
  -4   1   4    1.90    0.80
  -4   1   4    0.50   22.90
  -4   1   4   -0.30    0.90
   4  -1  -4    1.00    0.60
   4  -1  -4   -0.90    0.80
   4  -1  -4    0.80   18.40
  -4   2   4   24.00    2.00
  -4   2   4   40.80   25.60
   4  -2  -4   23.50    1.50
   4  -2  -4   24.00    1.60
  -4   3   4   -0.30    1.10
   4  -3  -4    0.30    0.80
  -4   4   4    2.30    1.40
  -4   4   4   -0.40    1.20
   4  -4  -4    0.70    0.90
  -4   5   4   -0.60    1.60
  -3  -8   4    1.90    2.50
   3   8  -4    1.40    1.70
  -3  -7   4    0.10    1.90
   3   7  -4   -0.40    1.10
  -3  -6   4   82.19   25.60
   3   6  -4   46.20    3.00
   3   6  -4   45.10   25.50
  -3  -5   4   40.20    1.60
  -3  -5   4   42.10   21.80
   3   5  -4   33.70   22.10
   3   5  -4   42.30    2.60
  -3  -4   4    9.80    0.90
  -3  -4   4    9.70    1.20
  -3  -4   4    1.00   18.00
   3   4  -4   10.50    1.50
   3   4  -4   13.80   18.10
  -3  -3   4   13.40   15.10
  -3  -3   4    1.50    0.60
  -3  -3   4    0.50    0.70
  -3  -3   4    0.20    1.10
   3   3  -4    1.70    0.70
   3   3  -4    2.10    0.80
   3   3  -4    5.10   16.40
  -3  -2   4   -0.40    1.00
  -3  -2   4    0.00    0.50
  -3  -2   4   -1.20   15.40
   3   2  -4   -0.30    0.60
  -3  -1   4  182.78    5.80
  -3  -1   4  159.18   24.80
   3   1  -4  167.08   24.50
   3   1  -4  183.08    6.00
  -3   0   4    1.60    0.60
  -3   0   4   -0.70    0.90
   3   0  -4  -23.50   15.20
   3   0  -4    1.00    0.60
  -3   1   4   12.40   17.10
  -3   1   4   11.90    1.30
   3  -1  -4   20.50   18.00
   3  -1  -4   11.20    1.30
   3  -1  -4   10.60    1.10
  -3   2   4   13.40   14.50
  -3   2   4    3.10    0.90
   3  -2  -4    4.70    1.00
   3  -2  -4    3.00   21.40
   3  -2  -4    2.20    0.60
  -3   3   4    0.60    0.90
  -3   3   4   17.80   34.80
   3  -3  -4  -17.90   31.00
   3  -3  -4    0.40    0.60
   3  -3  -4    0.00    0.60
  -3   4   4    0.80    1.20
  -3   4   4    0.70    0.90
   3  -4  -4    0.40    0.70
   3  -4  -4   -0.10    0.70
  -3   5   4   -1.10    1.20
  -3   5   4    1.50    1.00
   3  -5  -4    3.60    0.80
  -3   6   4   10.80    2.20
  -2  -8   4    0.10    3.10
   2   8  -4    1.00    1.40
  -2  -7   4    3.10    2.20
   2   7  -4   -2.10    1.30
  -2  -6   4   13.30   23.30
   2   6  -4   34.60   23.50
   2   6  -4   26.50    2.80
  -2  -5   4   59.99   19.60
  -2  -5   4   22.80    2.80
   2   5  -4   27.80   19.80
   2   5  -4   33.10    2.30
  -2  -4   4   18.10   17.20
   2   4  -4    4.70   14.60
  -2  -3   4   -0.20    0.30
  -2  -3   4   -0.70    0.40
  -2  -3   4    7.50   14.20
  -2  -3   4    0.40    1.20
   2   3  -4    0.10    0.40
   2   3  -4   -6.10   11.70
   2   3  -4   -0.30    0.50
  -2  -2   4   10.20   12.20
  -2  -2   4   16.70    1.00
   2   2  -4    9.70   15.90
   2   2  -4   17.30    1.30
   2   2  -4   15.70    1.00
  -2  -1   4    7.50   10.10
   2   1  -4    7.60   11.60
  -2   0   4   -1.70    1.40
  -2   0   4    1.70    0.50
  -2   0   4   13.80   13.00
   2   0  -4    2.40    0.70
   2   0  -4    6.00    9.70
  -2   1   4   36.80    1.80
  -2   1   4   27.90   14.60
  -2   1   4   38.60    1.90
   2  -1  -4   37.90   16.80
   2  -1  -4   38.70    1.80
   2  -1  -4   39.40    2.20
  -2   2   4  105.49    3.70
  -2   2   4  115.09   20.20
  -2   2   4  106.99    4.10
   2  -2  -4  112.39    3.70
   2  -2  -4  103.99   23.00
  -2   3   4    8.10    1.20
  -2   3   4    2.70   16.00
   2  -3  -4   12.90   20.30
   2  -3  -4    7.20    1.00
   2  -3  -4    7.10    0.80
  -2   4   4   13.10    1.30
  -2   4   4   13.50    1.70
  -2   4   4   33.70   15.20
   2  -4  -4   12.20    1.20
   2  -4  -4   12.70    1.10
   2  -4  -4   -5.60   19.90
  -2   5   4   24.00   25.70
  -2   5   4    4.90    0.90
  -2   5   4    3.80    1.20
   2  -5  -4   -8.70   31.10
   2  -5  -4    6.30    1.10
  -2   6   4    7.10    1.60
   2  -6  -4    6.60    1.20
  -2   7   4   62.59    4.20
  -1  -8   4    1.20    2.90
   1   8  -4   -1.90    1.50
  -1  -7   4    0.90    2.70
   1   7  -4    2.00    1.20
  -1  -6   4   17.10   22.90
   1   6  -4  -25.70   20.10
  -1  -5   4    5.40    1.90
  -1  -5   4   12.10   18.30
   1   5  -4    5.00   16.30
  -1  -4   4    2.50    1.50
  -1  -4   4    2.20   14.10
   1   4  -4  -19.50   12.90
   1   4  -4    3.70    0.90
  -1  -3   4  201.28   26.00
   1   3  -4  123.89   21.60
   1   3  -4  175.08    5.80
  -1  -2   4   71.29    2.30
  -1  -2   4   70.79   14.20
   1   2  -4   71.39    2.90
   1   2  -4   74.49    2.30
  -1  -1   4  728.73   40.30
  -1  -1   4  666.03   18.00
  -1  -1   4  607.54   18.30
   1   1  -4  658.43   18.40
   1   1  -4  661.43   17.90
   1   1  -4  742.13   40.40
  -1   0   4   63.59   13.80
  -1   0   4   44.70    1.90
  -1   0   4   47.70    1.90
   1   0  -4   46.00    1.90
   1   0  -4   37.60   11.10
   1   0  -4   45.60    1.80
  -1   1   4   44.90    2.00
  -1   1   4   42.00    1.70
  -1   1   4   38.60   11.20
   1  -1  -4   40.10    2.20
   1  -1  -4   53.79   13.60
   1  -1  -4   41.30    1.70
  -1   2   4   37.20    1.60
  -1   2   4   40.40    2.00
  -1   2   4   49.40   13.60
   1  -2  -4   39.10    1.60
   1  -2  -4   43.30   12.80
  -1   3   4   22.00   15.10
  -1   3   4   24.50    1.30
  -1   3   4   22.80    1.70
   1  -3  -4   24.70    1.20
   1  -3  -4   27.40    1.60
   1  -3  -4   24.40   12.90
  -1   4   4   39.30    1.70
  -1   4   4   43.80    2.40
  -1   4   4   35.60    1.80
   1  -4  -4   39.80    2.10
   1  -4  -4   10.90   20.60
   1  -4  -4   42.70    1.70
  -1   5   4   -0.50    0.60
  -1   5   4    0.90    1.00
  -1   5   4   17.50   19.70
   1  -5  -4  -13.00   23.90
   1  -5  -4   -0.30    0.70
  -1   6   4    1.00    1.30
   1  -6  -4  -14.50   21.60
   1  -6  -4   33.90   33.70
  -1   7   4    3.60    1.40
   1  -7  -4    4.20    1.30
  -1   8   4    2.00    1.90
   1  -8  -4    2.10    2.40
   0  -8   4    2.50    3.40
   0   8  -4    2.00    1.90
   0  -7   4    0.40    2.40
   0   7  -4    3.70    1.50
   0  -6   4    2.40    2.40
   0   6  -4   12.70    1.90
   0  -5   4   24.40   17.70
   0   5  -4   14.30   15.10
   0  -4   4  123.59   20.80
   0  -4   4  100.59    4.70
   0   4  -4   96.29   17.70
   0   4  -4  105.39    4.10
   0  -3   4   20.90   10.80
   0  -3   4   16.80    1.80
   0   3  -4   18.20   10.60
   0   3  -4   17.90    1.40
   0  -2   4   10.10    1.40
   0   2  -4    6.90    0.90
   0   2  -4    0.80    7.40
   0  -1   4  388.86   25.20
   0  -1   4  423.26   11.30
   0  -1   4  415.86   11.70
   0   1  -4  424.66   11.80
   0   1  -4  409.76   26.90
   0   1  -4  412.76   11.20
   0   0   4  133.59    4.10
   0   0   4  133.39   15.20
   0   0   4  137.99    4.20
   0   0  -4  133.19   15.80
   0   0  -4  133.89    4.20
   0   0  -4  139.39    4.10
   0   1   4   37.30    1.70
   0   1   4   28.90   10.00
   0   1   4   36.40    1.30
   0  -1  -4   35.90    1.60
   0  -1  -4   37.10    1.40
   0  -1  -4   18.50    9.40
   0   2   4   69.09   13.20
   0   2   4   73.29    2.20
   0   2   4   73.19    2.80
   0  -2  -4   73.39    2.20
   0  -2  -4   72.29    3.10
   0  -2  -4   67.49   14.10
   0   3   4  281.47    7.60
   0   3   4  276.77    8.60
   0   3   4  264.67   25.70
   0   3   4  278.27    7.60
   0  -3  -4  282.17    7.60
   0  -3  -4  279.47    8.60
   0  -3  -4  267.57   27.60
   0   4   4   14.80    0.80
   0   4   4   13.90    1.40
   0   4   4   14.80    0.90
   0   4   4   16.10   21.30
   0  -4  -4   14.90   15.50
   0  -4  -4   13.60    1.20
   0   5   4    9.30    1.00
   0   5   4    8.70    1.00
   0   5   4   10.10    1.40
   0  -5  -4   30.50   20.50
   0  -5  -4    8.60    1.10
   0   6   4    1.10    1.00
   0  -6  -4   -4.80   19.80
   0  -6  -4    2.10   17.60
   0  -6  -4    0.40    0.80
   0   7   4    3.80    1.40
   0  -7  -4  -30.70   34.80
   0   8   4   -0.40    1.30
   0  -8  -4    0.10    1.30
   0  -9  -4   -0.80    1.80
   1  -8   4   -5.80    3.40
  -1   8  -4    1.00    1.90
   1  -7   4    0.90    2.40
  -1   7  -4    1.00    1.50
   1  -6   4    1.70    2.10
  -1   6  -4    2.10    1.20
   1  -5   4   -3.70   17.70
  -1   5  -4  -14.60   15.30
  -1   5  -4    1.10    0.80
   1  -4   4   83.69   17.60
   1  -4   4   94.69    4.60
  -1   4  -4   97.89    4.00
  -1   4  -4  134.09   22.80
   1  -3   4    5.90    9.50
   1  -3   4    4.60    1.40
  -1   3  -4   -6.10    9.10
  -1   3  -4    3.20    0.70
   1  -2   4  154.68    5.50
   1  -2   4  139.69   16.80
  -1   2  -4  144.09    4.90
  -1   2  -4  136.29   14.70
   1  -1   4   53.79   10.10
   1  -1   4   43.60    2.40
   1  -1   4   40.90    1.90
  -1   1  -4   45.80    2.00
  -1   1  -4   41.60    8.00
  -1   1  -4   44.90    1.50
   1   0   4   44.20    1.70
   1   0   4   45.50    2.40
   1   0   4   55.19    9.50
   1   0   4   46.80    1.80
  -1   0  -4   44.70    1.70
  -1   0  -4   44.30    1.80
  -1   0  -4   41.00    7.70
  -1   0  -4   43.60    2.30
   1   1   4   47.40    1.90
   1   1   4   40.50    8.00
   1   1   4   48.40    1.60
  -1  -1  -4   48.10    1.90
  -1  -1  -4   46.10    1.60
  -1  -1  -4   47.10    9.40
   1   2   4   44.30    2.30
   1   2   4   42.80    1.90
   1   2   4   39.50    8.90
  -1  -2  -4   35.40   10.20
  -1  -2  -4   42.10    1.90
  -1  -2  -4   41.80    2.10
   1   3   4   17.50    8.10
   1   3   4   15.90    1.20
  -1  -3  -4   15.00    1.20
  -1  -3  -4    4.60    8.30
   1   4   4  160.28    4.50
   1   4   4  161.98    5.60
   1   4   4  161.28    4.50
  -1  -4  -4  163.38    5.50
  -1  -4  -4  163.68   23.90
   1   5   4    0.60    0.40
   1   5   4    0.10    0.30
   1   5   4   -0.40    0.80
  -1  -5  -4    6.70   10.60
  -1  -5  -4   -6.30   14.90
  -1  -5  -4    0.40    0.70
  -1  -6  -4    0.20   20.60
  -1  -6  -4  -11.70   13.60
   1   7   4    9.60    1.80
   1   7   4   11.00    1.40
  -1  -7  -4    3.20   29.20
  -1  -7  -4   12.90    1.60
   1   8   4    1.00    1.20
  -1  -8  -4    1.70    1.30
   1   9   4    4.70    1.80
  -1  -9  -4    5.40    1.60
   2  -7   4   -4.80    2.70
  -2   7  -4   -0.90    1.70
   2  -6   4    1.30    2.70
  -2   6  -4   10.00    1.80
   2  -5   4    3.10    1.90
  -2   5  -4    0.70    1.10
   2  -4   4    8.70   15.60
   2  -4   4   22.40    2.50
  -2   4  -4   22.10    1.20
  -2   4  -4   23.10    1.20
  -2   4  -4   20.60    1.80
   2  -3   4    4.00    0.50
   2  -3   4    4.10    1.40
   2  -3   4    1.90   10.40
  -2   3  -4    3.70    0.50
  -2   3  -4    3.50    0.50
  -2   3  -4    3.30    8.70
  -2   3  -4    4.80    0.90
   2  -2   4   12.70    7.30
   2  -2   4    7.60    1.40
  -2   2  -4    8.30    0.70
  -2   2  -4    7.50    0.50
  -2   2  -4   13.40    6.40
  -2   2  -4    8.10    1.00
   2  -1   4  142.39   12.60
   2  -1   4  134.39    6.10
  -2   1  -4  153.48    4.40
  -2   1  -4  153.98    4.30
  -2   1  -4  150.78    4.80
   2   0   4   10.70    3.80
   2   0   4    8.60    0.70
   2   0   4    9.40    0.80
   2   0   4    7.20    1.20
  -2   0  -4    8.70    0.80
  -2   0  -4    9.50    0.80
  -2   0  -4    9.20    0.80
  -2   0  -4    4.60    3.30
  -2   0  -4    7.40    1.30
   2   1   4   55.49    2.60
   2   1   4   54.29    2.10
   2   1   4   56.79    6.90
  -2  -1  -4   55.29    2.10
  -2  -1  -4   55.59    1.90
  -2  -1  -4   45.60    2.60
  -2  -1  -4   57.19    1.90
  -2  -1  -4   64.39    7.30
  -2  -1  -4   54.89    2.50
   2   2   4    6.10    0.40
   2   2   4    7.80    4.50
   2   2   4    6.30    0.70
   2   2   4    7.00    1.20
  -2  -2  -4    6.10    0.90
  -2  -2  -4    3.70    1.10
  -2  -2  -4    9.40    5.50
  -2  -2  -4    5.50    0.40
  -2  -2  -4    5.20    0.80
  -2  -2  -4    6.10    0.40
   2   3   4   99.39    3.70
  -2  -3  -4   92.09   13.10
  -2  -3  -4  103.19    3.80
  -2  -3  -4   97.19   14.60
   2   4   4 2779.52   78.09
  -2  -4  -4 3036.20  103.69
  -2  -4  -4 2826.72   78.09
  -2  -4  -4 3135.99   99.09
   2   5   4  170.48    4.90
   2   5   4  166.38    5.90
   2   5   4  167.58    4.80
  -2  -5  -4  168.08    4.90
  -2  -5  -4  162.48    5.80
  -2  -5  -4  177.98   24.50
  -2  -5  -4  183.28   18.80
   2   6   4    4.60    0.60
   2   6   4    3.50    0.60
   2   6   4    5.50    1.20
  -2  -6  -4  -10.50   11.30
  -2  -6  -4    4.70    0.70
  -2  -6  -4    6.00    1.10
  -2  -6  -4    6.50   18.50
   2   7   4    3.50    0.80
   2   7   4    3.90    1.10
  -2  -7  -4  -27.40   24.70
  -2  -7  -4    2.20   13.00
  -2  -7  -4    4.10    1.00
  -2  -8  -4   24.70   25.50
   2   9   4    3.20    1.60
  -2  -9  -4    2.00    1.50
  -3   7  -4   -3.90    2.00
   3  -6   4    0.80    2.90
  -3   6  -4    2.60    1.50
   3  -5   4    2.60    2.20
  -3   5  -4    9.60    1.70
   3  -4   4   41.50   21.50
   3  -4   4   62.29    3.70
  -3   4  -4   75.59    3.60
  -3   4  -4   74.59    2.70
   3  -3   4    0.70    1.30
   3  -3   4    0.30    0.60
   3  -3   4   -7.10   12.70
   3  -3   4   -2.00   11.10
  -3   3  -4   -0.10    0.60
  -3   3  -4   -0.60    0.40
  -3   3  -4    0.40    0.70
   3  -2   4   27.00    1.40
   3  -2   4   23.70    9.70
   3  -2   4   18.40    8.70
  -3   2  -4   28.80    1.90
  -3   2  -4   26.00    1.30
  -3   2  -4   27.70    1.50
   3  -1   4  355.46   19.60
   3  -1   4  344.17   10.10
   3  -1   4  343.07   18.40
  -3   1  -4  341.27    9.80
  -3   1  -4  340.57    9.60
  -3   1  -4  334.27   10.10
   3   0   4  281.97    8.20
   3   0   4  288.37    8.40
   3   0   4  279.67   11.20
   3   0   4  275.77   11.30
   3   0   4  307.17    9.00
  -3   0  -4  279.57    8.30
  -3   0  -4  285.87    8.50
  -3   0  -4  285.57    8.20
   3   1   4  415.36   11.70
   3   1   4  393.36   11.00
   3   1   4  387.16   11.10
  -3  -1  -4  387.66   11.20
  -3  -1  -4  379.86   11.50
  -3  -1  -4  391.96   11.00
  -3  -1  -4  388.76   11.00
   3   2   4   40.10    1.50
   3   2   4   41.30    2.20
   3   2   4   38.90    1.80
  -3  -2  -4   37.30    2.30
  -3  -2  -4   31.80    1.80
  -3  -2  -4   36.40    2.00
  -3  -2  -4   43.90    5.80
  -3  -2  -4   31.00    5.30
  -3  -2  -4   37.80    1.50
   3   3   4    0.10    0.20
   3   3   4   -0.20    0.40
  -3  -3  -4    0.00    0.30
  -3  -3  -4   -1.00    5.00
  -3  -3  -4    0.30    0.40
   3   4   4  582.44   16.40
   3   4   4  562.24   15.40
  -3  -4  -4  576.14   30.30
  -3  -4  -4  568.44   15.40
  -3  -4  -4  570.84   16.30
  -3  -4  -4  555.54   33.00
   3   5   4  138.39    4.10
   3   5   4  132.89    5.00
  -3  -5  -4  129.69    4.90
  -3  -5  -4  120.89   16.30
  -3  -5  -4  147.69   21.80
  -3  -5  -4  136.89    4.10
   3   6   4   10.60    0.90
   3   6   4   11.10    1.60
  -3  -6  -4   10.90    1.30
  -3  -6  -4   15.30   16.40
  -3  -6  -4   10.60    1.10
  -3  -6  -4   22.20   10.20
   3   7   4   -0.40    0.60
   3   7   4   -1.60    1.00
  -3  -7  -4   12.00   15.80
  -3  -7  -4   -9.80   19.60
  -3  -7  -4   -0.30    0.80
   3   8   4    0.30    1.20
   3   8   4    1.30    0.80
  -3  -8  -4   -0.60   28.30
  -3  -8  -4    1.70    1.10
   3   9   4    1.90    1.50
  -3  -9  -4    0.60    1.50
   3  10   4    1.10    1.70
  -3 -10  -4    3.70    1.90
  -4   6  -4    1.40    1.80
   4  -5   4    2.60    2.40
  -4   5  -4    7.20    1.70
  -4   4  -4   91.19    3.40
  -4   4  -4   87.89    4.30
   4  -3   4   44.80   13.70
   4  -3   4   33.80   16.30
   4  -3   4   38.30    3.00
  -4   3  -4   44.50    1.90
  -4   3  -4   43.10    2.60
   4  -2   4    1.60    0.80
   4  -2   4    1.80    1.40
   4  -2   4    2.00   11.30
   4  -2   4   -0.30    9.00
  -4   2  -4    3.10    0.90
  -4   2  -4    3.30    0.50
   4  -1   4   25.80    6.80
   4  -1   4   21.40    8.30
   4  -1   4   17.20    1.40
  -4   1  -4   19.40    1.50
  -4   1  -4   18.40    1.20
   4   0   4   87.89    9.10
   4   0   4   91.09    7.70
   4   0   4   86.99    3.30
   4   0   4   88.09    3.50
  -4   0  -4   84.89    3.10
  -4   0  -4   85.59    3.40
   4   1   4  131.99    4.60
   4   1   4  127.29    4.30
   4   1   4  129.69    4.40
  -4  -1  -4  125.69    4.50
  -4  -1  -4  126.89    4.20
   4   2   4    0.70    0.40
   4   2   4    1.50    0.50
  -4  -2  -4   -1.70    1.00
  -4  -2  -4    0.70    0.50
  -4  -2  -4    0.50    0.50
  -4  -2  -4    1.10    0.50
  -4  -2  -4   -0.40    3.60
   4   3   4   12.70    1.00
   4   3   4   13.30    1.20
   4   3   4    4.60    5.00
  -4  -3  -4   10.40    5.60
  -4  -3  -4   13.40    1.00
  -4  -3  -4   16.20    1.30
   4   4   4    4.30    0.60
   4   4   4    5.70    0.90
   4   4   4   13.20    7.30
  -4  -4  -4    5.00    0.90
  -4  -4  -4   -4.20    6.20
  -4  -4  -4    4.70    0.70
   4   5   4   29.00   10.40
   4   5   4   32.20    2.10
   4   5   4   32.30    1.50
  -4  -5  -4   25.00    9.90
  -4  -5  -4   28.10    1.60
  -4  -5  -4   29.00    1.90
   4   6   4    8.40    1.30
  -4  -6  -4    8.60    1.20
  -4  -6  -4    7.40   10.00
   4   7   4    1.00    0.60
   4   7   4    0.00    0.90
  -4  -7  -4    2.30    0.80
  -4  -7  -4   -6.80   20.30
  -4  -7  -4    7.70   14.10
   4   8   4    5.20    1.40
   4   8   4    5.90    1.00
  -4  -8  -4    5.60    1.30
  -4  -8  -4    0.10   26.90
   4   9   4   10.80    1.70
  -4  -9  -4   12.70    2.10
   4  10   4    2.20    1.60
  -4 -10  -4   -1.90    1.80
  -5   5  -4    5.20    1.70
  -5   4  -4    1.40    1.30
  -5   4  -4    2.30    0.90
  -5   3  -4    7.20    1.00
  -5   3  -4    7.50    1.50
   5  -2   4   19.10    2.50
   5  -2   4   16.90   16.00
   5  -2   4   10.10   12.50
   5  -2   4   24.10    1.90
  -5   2  -4   25.20    1.50
  -5   2  -4   27.00    2.00
   5  -1   4   13.60    8.60
   5  -1   4    6.00    1.00
   5  -1   4    3.80   11.50
   5  -1   4    6.40    1.40
  -5   1  -4    6.20    1.20
  -5   1  -4    4.00    0.90
  -5   1  -4    5.70    0.80
   5   0   4   37.90    7.60
   5   0   4   35.20    2.00
   5   0   4   35.10    2.10
   5   0   4   29.80    8.50
  -5   0  -4   34.00    1.80
  -5   0  -4   33.90    1.90
  -5   0  -4   37.20    2.20
   5   1   4   38.50    6.90
   5   1   4   50.79    2.40
  -5  -1  -4   51.69    2.30
  -5  -1  -4   43.10    7.50
  -5  -1  -4   51.09    2.30
   5   2   4    7.80    1.00
   5   2   4    9.30    4.40
   5   2   4    8.50    1.10
  -5  -2  -4    6.30    1.00
  -5  -2  -4    6.00    5.90
  -5  -2  -4    6.70    0.90
   5   3   4  115.59    4.30
   5   3   4  111.29    3.90
   5   3   4  117.49   11.40
  -5  -3  -4  110.49    4.00
  -5  -3  -4  110.09    4.10
  -5  -3  -4   88.79   14.20
   5   4   4   -6.40    6.80
  -5  -4  -4   -2.90    8.00
   5   5   4    2.80    0.80
   5   5   4   -3.90    9.70
   5   5   4    2.00    0.70
  -5  -5  -4    2.90    0.80
  -5  -5  -4   23.90   11.10
   5   6   4    6.00    0.80
   5   6   4    5.40    1.10
   5   6   4   12.50   11.60
  -5  -6  -4    5.20    1.20
  -5  -6  -4   -7.00   13.80
   5   7   4    6.50    1.30
   5   7   4    5.60    1.00
   5   7   4   21.50   18.40
  -5  -7  -4    7.00    1.30
   5   8   4    0.50    1.20
   5   8   4   -0.10    0.90
  -5  -8  -4    1.50    1.00
   5   9   4   30.80    2.30
  -5  -9  -4   29.90    2.60
   5  10   4   -0.10    1.50
  -5 -10  -4    2.90    1.70
  -6   4  -4   -1.10    1.60
  -6   4  -4    3.00    1.20
  -6   3  -4    4.70    1.60
  -6   3  -4    7.80    1.10
   6  -2   4    0.60    1.00
  -6   2  -4   -0.10    0.70
  -6   2  -4   -1.50    1.00
   6  -1   4    0.20   15.60
   6  -1   4    1.00    0.90
   6  -1   4    2.50    1.20
  -6   1  -4    0.60    1.10
  -6   1  -4    0.00    0.70
  -6   1  -4   -0.40    0.60
   6   0   4   25.70   12.60
   6   0   4   38.60    2.30
  -6   0  -4   40.50    2.50
  -6   0  -4   35.30    1.80
  -6   0  -4   33.70    2.00
   6   1   4  635.54   31.50
   6   1   4  651.13   18.40
  -6  -1  -4  638.84   18.10
  -6  -1  -4  624.14   31.90
  -6  -1  -4  640.44   17.70
   6   2   4   53.29   10.10
   6   2   4   55.09    2.70
  -6  -2  -4   56.79    2.70
  -6  -2  -4   57.19    2.40
  -6  -2  -4   63.89   12.30
   6   3   4   12.20    7.60
   6   3   4    7.10    1.10
   6   3   4    8.20    1.10
  -6  -3  -4    8.50    0.90
  -6  -3  -4    7.50    1.00
  -6  -3  -4   -5.40   10.30
   6   4   4    0.50    0.60
   6   4   4   -0.50    0.60
   6   4   4   -7.50    8.70
  -6  -4  -4   -3.40   10.20
  -6  -4  -4    0.80    0.60
  -6  -4  -4    0.30    0.70
   6   5   4    0.30    0.70
   6   5   4    9.90   10.90
  -6  -5  -4    2.00   12.70
  -6  -5  -4   -0.40    0.70
   6   6   4   38.60   13.80
   6   6   4   25.30    2.10
   6   6   4   25.70    1.80
  -6  -6  -4   26.60    2.00
  -6  -6  -4   28.00   15.30
  -6  -6  -4   22.90    1.90
   6   7   4    3.70    0.90
   6   7   4    2.80    1.10
  -6  -7  -4    2.80    1.10
   6   8   4    2.10    1.00
   6   8   4   -0.90    1.20
  -6  -8  -4    0.60    1.20
   6   9   4    0.00    1.20
  -6  -9  -4   -0.60    1.40
   6  10   4   -1.70    1.70
  -6 -10  -4   -3.30    1.80
   7  -3   4    4.60    1.70
  -7   3  -4    5.70    2.00
  -7   3  -4    3.70    1.30
   7  -2   4   13.20    2.10
  -7   2  -4   12.20    1.60
  -7   2  -4    9.20    1.90
   7  -1   4    2.80    1.10
  -7   1  -4    4.90    1.50
  -7   1  -4    4.90    1.10
   7   0   4    5.70    1.30
   7   0   4  -18.60   15.70
  -7   0  -4    3.70    1.00
  -7   0  -4    1.80    1.10
  -7   0  -4   34.30   15.70
   7   1   4  240.48    8.40
  -7  -1  -4  264.77   28.40
  -7  -1  -4  261.57    7.40
  -7  -1  -4  240.68    8.10
   7   2   4  248.18   24.00
   7   2   4  240.98    8.00
  -7  -2  -4  234.68    7.00
  -7  -2  -4  236.88    7.80
   7   3   4   32.10   12.10
   7   3   4   41.90    2.40
  -7  -3  -4   40.20    1.80
  -7  -3  -4   40.20    2.30
  -7  -3  -4   27.70   15.00
   7   4   4    9.30   12.30
  -7  -4  -4   11.40   15.60
   7   5   4    7.80    1.20
   7   5   4    9.00    1.40
   7   5   4   16.50   14.00
  -7  -5  -4   11.10   16.40
  -7  -5  -4    6.60    1.10
  -7  -5  -4    8.60    1.30
   7   6   4    0.50    1.20
   7   6   4   -0.10    0.90
  -7  -6  -4   -0.30    0.80
  -7  -6  -4   -0.90    1.00
   7   7   4   -1.20    1.00
  -7  -7  -4   -0.50    1.10
   7   8   4   -0.30    1.40
   7   8   4    0.50    1.10
  -7  -8  -4    1.60    1.20
  -7  -8  -4   -0.20    1.30
   7   9   4    6.70    1.60
   7   9   4    6.10    1.60
  -7  -9  -4    1.80    1.60
  -7  -9  -4    5.30    1.80
   7  10   4   -1.10    1.70
  -7 -10  -4    1.00    1.80
  -7 -10  -4    0.10    1.70
   8  -2   4    0.20    1.60
  -8   2  -4   -2.70    2.00
  -8   2  -4   -0.80    1.40
   8  -1   4    2.30    1.60
  -8   1  -4   -0.70    1.60
  -8   1  -4    0.90    1.20
   8   0   4    3.50    1.30
  -8   0  -4    2.70    1.10
  -8   0  -4    5.10    1.60
   8   1   4    2.00    1.10
  -8  -1  -4    2.10    1.10
   8   2   4    0.00    1.00
  -8  -2  -4    1.00    0.90
   8   3   4    0.50    1.50
  -8  -3  -4   -0.30    1.00
   8   4   4    2.30    1.10
  -8  -4  -4    3.20    1.00
  -8  -4  -4    3.70    0.70
   8   5   4   -0.60    1.10
  -8  -5  -4    0.20    1.00
  -8  -5  -4    0.10    0.70
   8   6   4    2.90    1.20
   8   6   4    3.70    1.20
  -8  -6  -4    4.80    0.90
  -8  -6  -4    2.90    1.20
   8   7   4    0.00    1.60
   8   7   4    0.70    1.50
  -8  -7  -4    0.40    1.10
  -8  -7  -4   -0.10    1.00
   8   8   4    1.00    1.40
   8   8   4   -2.40    1.40
  -8  -8  -4   -0.80    1.40
   8   9   4   23.20    2.90
   8   9   4   23.60    2.90
  -8  -9  -4   18.70    2.50
  -8  -9  -4   22.00    3.10
   9   0   4    1.40    1.50
  -9   0  -4    1.20    1.40
  -9   0  -4    0.90    1.90
   9   1   4    6.10    1.70
  -9  -1  -4    1.30    1.20
   9   2   4   -2.20    1.30
  -9  -2  -4    3.20    1.20
   9   3   4    0.00    1.20
  -9  -3  -4    0.70    1.10
   9   4   4   10.10    1.70
  -9  -4  -4   10.70    1.70
   9   5   4    0.30    1.10
  -9  -5  -4   -0.50    1.30
   9   6   4   25.30    2.80
  -9  -6  -4   28.70    2.40
  -9  -6  -4   23.60    1.80
   9   7   4    5.50    1.60
  -9  -7  -4    3.70    1.60
   9   8   4    2.50    1.90
   9   8   4    1.30    1.70
  -9  -8  -4    2.80    1.40
  -9  -8  -4    2.60    1.60
   9   9   4   -0.90    1.90
   9   9   4   -1.20    2.00
  -9  -9  -4    2.40    1.70
  -9  -9  -4   -1.20    1.50
  10   2   4    5.20    2.00
 -10  -2  -4    0.40    1.50
  10   3   4    8.50    1.90
 -10  -3  -4   12.50    2.00
  10   4   4    0.70    1.70
 -10  -4  -4    2.20    1.70
  10   5   4    0.90    1.60
 -10  -5  -4    1.30    1.60
  10   6   4    8.90    1.90
 -10  -6  -4    5.90    1.70
  10   7   4    4.10    2.00
 -10  -7  -4    3.30    1.80
  -7  -4   5    1.20    1.60
   7   4  -5   -0.50    1.50
  -7  -3   5    6.20    1.70
   7   3  -5    4.90    1.80
  -7  -2   5    2.30    1.60
   7   2  -5    3.30    1.60
  -7  -1   5    8.40    2.00
   7   1  -5    9.00    1.60
  -6  -6   5    1.70    2.60
   6   6  -5   14.10    2.50
  -6  -5   5    1.90    1.90
   6   5  -5    0.00    1.50
  -6  -4   5    7.20    1.30
   6   4  -5    6.80    1.60
  -6  -3   5    1.70    1.20
  -6  -3   5    3.30    1.70
   6   3  -5   -0.60    1.30
  -6  -2   5    0.60    1.30
   6   2  -5    0.60    1.30
  -6  -1   5    0.50    1.30
   6   1  -5    0.90    1.10
  -6   0   5    3.00    1.60
   6   0  -5   -0.70    1.20
  -6   1   5   -3.30    1.70
   6  -1  -5    1.40    1.20
  -6   2   5    1.90    1.70
  -5  -7   5    1.30    2.60
   5   7  -5    1.90    1.80
  -5  -5   5    1.10    1.70
   5   5  -5    4.90    1.50
  -5  -4   5    2.40    1.00
  -5  -4   5    0.00    1.50
   5   4  -5    3.30    1.40
  -5  -3   5   -0.70    1.40
  -5  -3   5    2.40    1.00
   5   3  -5    3.40    1.20
   5   3  -5   15.90   59.89
  -5  -2   5    8.40    1.30
   5   2  -5    7.80    1.30
  -5  -1   5   -0.60    0.90
  -5  -1   5   -0.50    1.30
   5   1  -5    1.70    1.10
  -5   0   5    1.40    0.90
   5   0  -5    0.40    1.00
  -5   1   5    2.30    1.10
   5  -1  -5    1.50    1.00
  -5   2   5   11.50    1.80
   5  -2  -5   12.70    1.80
  -5   3   5    1.70    1.50
  -4  -7   5    0.90    2.90
   4   7  -5    0.20    1.70
  -4  -6   5    1.10    2.50
   4   6  -5    1.00    1.30
  -4  -5   5   -1.70    1.80
  -4  -5   5   -4.50   31.10
   4   5  -5   -9.80   30.60
   4   5  -5    0.90    1.10
  -4  -4   5  -21.30   26.80
  -4  -4   5    0.80    0.70
  -4  -4   5    0.80    1.70
   4   4  -5   15.50   29.30
   4   4  -5    0.90    1.80
  -4  -3   5   32.10   19.90
  -4  -3   5   21.20    1.60
   4   3  -5   20.60    1.90
   4   3  -5   52.29   22.40
  -4  -2   5   28.70    1.80
   4   2  -5   26.50    2.10
   4   2  -5   85.59   27.30
  -4  -1   5  281.67    8.80
   4   1  -5  264.37    8.80
   4   1  -5  308.77   47.00
  -4   0   5    0.60    0.70
  -4   0   5    5.20   26.90
  -4   0   5   -1.00    1.10
   4   0  -5    1.00    0.70
   4   0  -5   -3.40   27.30
   4   0  -5   -0.10    1.10
  -4   1   5  -33.40   28.20
  -4   1   5    1.50    1.10
   4  -1  -5  -41.90   29.20
  -4   2   5    1.20    1.10
   4  -2  -5    2.90    0.80
  -4   3   5    0.50    1.20
   4  -3  -5   -0.60    0.90
  -4   4   5    8.70    1.90
  -4   5   5   -0.10    2.20
  -3  -8   5   -4.20    3.00
   3   8  -5    2.00    1.60
  -3  -7   5   -0.20    2.90
   3   7  -5    0.60    1.50
  -3  -5   5   13.60   25.40
   3   5  -5  -15.40   22.40
  -3  -4   5   52.59    2.10
  -3  -4   5   71.99   23.00
   3   4  -5   31.10   19.10
   3   4  -5   54.09    3.00
  -3  -3   5   23.80    1.40
  -3  -3   5   10.60   20.50
   3   3  -5   23.00    2.00
   3   3  -5   25.10   20.80
  -3  -2   5   87.29    3.20
  -3  -2   5   55.59   21.00
   3   2  -5   85.89    3.70
   3   2  -5  111.99   25.10
  -3  -1   5  572.94   46.30
  -3  -1   5  536.05   15.10
   3   1  -5  533.15   15.30
   3   1  -5  457.15   42.40
  -3   0   5   98.69    3.90
  -3   0   5   80.99   18.10
   3   0  -5  100.89    3.80
   3   0  -5   91.89   27.60
  -3   1   5   10.50    1.40
  -3   1   5    0.10   21.00
   3  -1  -5   22.30   21.60
   3  -1  -5    8.50    1.10
   3  -1  -5    9.80    1.50
  -3   2   5   15.60   17.10
  -3   2   5    8.60    1.30
   3  -2  -5    7.00    1.00
   3  -2  -5   22.10   23.80
   3  -2  -5    7.20    1.40
  -3   3   5    2.80   27.90
  -3   3   5    2.00    1.30
   3  -3  -5   -8.80   31.20
   3  -3  -5    1.90    0.70
   3  -3  -5    2.10    0.90
  -3   4   5    0.60    1.00
  -3   4   5    3.10    1.20
   3  -4  -5    1.80    0.80
  -3   5   5    0.20    1.50
  -3   6   5    2.00    2.20
  -2  -8   5   -2.70    3.50
   2   8  -5    7.00    2.20
  -2  -7   5   -3.30    2.70
   2   7  -5   -0.10    1.50
  -2  -6   5   -0.30    1.90
   2   6  -5    0.10    1.20
  -2  -5   5  -22.10   23.50
   2   5  -5   48.90   21.90
  -2  -4   5   22.00   19.10
  -2  -4   5   19.90    2.70
   2   4  -5   19.50    1.90
   2   4  -5   -9.40   18.60
  -2  -3   5    0.60    0.40
  -2  -3   5    0.10    0.50
  -2  -3   5    1.50    1.50
  -2  -3   5   12.50   16.70
   2   3  -5  -20.70   15.60
   2   3  -5   -0.50    0.50
   2   3  -5    0.40    0.50
  -2  -2   5   11.50   12.60
  -2  -2   5    1.40    0.50
  -2  -2   5   -1.20    1.10
   2   2  -5    1.30    0.50
   2   2  -5  -19.00   14.90
   2   2  -5    0.80    0.70
  -2  -1   5    7.20   15.00
  -2  -1   5    4.00    0.60
   2   1  -5    3.50    0.70
   2   1  -5   10.10   12.30
  -2   0   5    0.10    0.50
  -2   0   5   11.20   15.60
  -2   0   5   -0.60    1.00
   2   0  -5    0.80    0.50
   2   0  -5   -1.00   16.50
  -2   1   5   -1.70   16.20
  -2   1   5    5.80    1.00
   2  -1  -5    7.60   16.10
   2  -1  -5    7.80    1.30
   2  -1  -5    6.60    0.90
  -2   2   5   16.10   17.30
  -2   2   5   38.50    2.40
  -2   2   5   43.80    2.40
   2  -2  -5   42.60    1.90
   2  -2  -5  102.59   23.30
   2  -2  -5   42.90    2.40
  -2   3   5    7.60    1.30
  -2   3   5   43.20   19.30
   2  -3  -5    7.50    0.90
   2  -3  -5    9.30    1.20
   2  -3  -5    4.30   22.60
  -2   4   5    0.30    0.70
  -2   4   5   -4.90   24.10
  -2   4   5   -1.20    1.00
   2  -4  -5    0.70    0.60
   2  -4  -5   17.30   31.50
   2  -4  -5    0.20    0.80
  -2   5   5    1.20    1.20
   2  -5  -5    0.70    0.90
  -2   6   5   -0.20    1.40
  -2   7   5    8.80    2.50
  -1  -8   5    1.20    3.80
   1   8  -5    9.00    2.30
  -1  -7   5    1.90    2.40
   1   7  -5    3.00    1.60
  -1  -6   5   -0.70    2.40
   1   6  -5    8.30    1.60
  -1  -5   5   55.49   24.40
  -1  -5   5   43.20    3.70
   1   5  -5   70.19   21.30
   1   5  -5   62.09    3.30
  -1  -4   5   -0.70    1.30
  -1  -4   5   -0.50   18.50
   1   4  -5    1.90    1.00
   1   4  -5   -8.70   15.10
  -1  -3   5   18.80   16.10
  -1  -3   5   28.50    2.70
   1   3  -5   29.10   14.80
   1   3  -5   33.20    2.10
  -1  -2   5   45.10   14.70
  -1  -2   5   28.60    1.30
   1   2  -5   28.50    1.80
   1   2  -5   14.30   13.60
   1   2  -5   30.00    1.20
  -1  -1   5  245.18   28.10
  -1  -1   5  233.68    6.90
   1   1  -5  224.08    6.80
   1   1  -5  285.47   26.80
   1   1  -5  241.18    7.30
  -1   0   5   55.69    2.30
  -1   0   5   28.70   15.20
  -1   0   5   57.09    2.40
   1   0  -5   79.29   16.80
   1   0  -5   59.39    2.30
  -1   1   5    0.70    0.50
  -1   1   5    4.40   13.40
  -1   1   5    1.80    0.60
  -1   1   5    0.80    1.10
   1  -1  -5    1.30    0.80
   1  -1  -5   -3.00   12.60
   1  -1  -5    1.20    0.50
  -1   2   5    2.00   13.50
  -1   2   5    0.20    0.70
  -1   2   5    0.50    1.00
   1  -2  -5    0.70    0.70
   1  -2  -5   15.50   15.10
  -1   3   5   54.69   17.90
  -1   3   5   36.30    1.60
  -1   3   5   35.70    2.20
   1  -3  -5   34.80    1.50
   1  -3  -5   36.00    2.10
   1  -3  -5   22.10   19.30
  -1   4   5   97.89   20.00
  -1   4   5  111.69    3.60
  -1   4   5  108.99    3.70
  -1   4   5  114.79    4.70
   1  -4  -5  136.09   29.90
   1  -4  -5  115.29    4.40
   1  -4  -5  113.39    3.60
  -1   5   5    3.30    0.70
  -1   5   5   40.20   22.50
  -1   5   5    1.30    0.90
   1  -5  -5  -16.20   29.50
   1  -5  -5    3.20    1.00
  -1   6   5    0.50    1.20
   1  -6  -5    0.90    1.00
   1  -6  -5  -22.90   38.10
  -1   7   5    4.90    1.80
   1  -7  -5    3.50    1.30
  -1   8   5    0.60    2.10
   0  -7   5    2.20    2.80
   0   7  -5    4.50    1.70
   0  -6   5    2.20    2.50
   0   6  -5   -0.50    1.10
   0  -5   5   -0.30    2.30
   0  -5   5  -40.00   24.30
   0   5  -5    0.10    0.80
   0  -4   5  133.99   25.40
   0  -4   5  192.18    7.40
   0   4  -5  185.58    6.60
   0   4  -5  166.48   26.70
   0  -3   5   -0.20    1.30
   0  -3   5   -4.70   12.80
   0   3  -5    0.50   10.60
   0   3  -5    0.30    0.60
   0  -2   5    5.20   11.30
   0   2  -5   21.50    1.50
   0   2  -5   25.70   10.20
   0  -1   5    0.00    0.30
   0  -1   5   -0.40    0.90
   0  -1   5   -8.30    8.80
   0   1  -5    0.10    0.30
   0   1  -5    0.00    0.40
   0   1  -5  -11.30    9.50
   0   0   5  -10.50    8.70
   0   0   5    0.70    0.40
   0   0   5   -0.60    0.90
   0   0   5    0.30    0.40
   0   0  -5  -12.80    8.70
   0   0  -5    0.10    0.40
   0   0  -5    0.10    0.40
   0   1   5  253.77    8.30
   0   1   5  268.57    7.50
   0  -1  -5  271.27    7.60
   0  -1  -5  289.47   26.10
   0   2   5    0.70    0.60
   0   2   5    1.30    0.30
   0   2   5    0.00    0.90
   0   2   5    4.90   10.70
   0  -2  -5   -7.60   11.20
   0  -2  -5    1.80    0.80
   0   3   5   15.50    0.70
   0   3   5   15.50    0.70
   0   3   5   12.50   13.20
   0   3   5   15.80    1.40
   0  -3  -5   16.20    1.50
   0  -3  -5    7.40   15.10
   0  -3  -5   16.30    0.70
   0   4   5  100.99    3.00
   0   4   5  104.49    4.20
   0   4   5   94.89    3.00
   0  -4  -5   90.09   23.50
   0  -4  -5  101.39    4.10
   0   5   5   50.29    1.90
   0   5   5   52.59    3.10
   0   5   5   45.30   18.30
   0  -5  -5   53.59    2.70
   0  -5  -5   44.10   25.50
   0  -6  -5    8.70   29.60
   0   7   5   -0.40    1.50
   0  -7  -5    1.00   40.60
   0  -7  -5    0.20    1.20
   0   8   5   -0.20    1.90
   0  -8  -5   -0.80    1.40
   1  -7   5    0.10    3.30
  -1   7  -5   10.10    2.00
   1  -6   5    5.50    2.50
  -1   6  -5    3.70    1.20
   1  -5   5   12.30    2.40
   1  -4   5  818.62   24.20
   1  -4   5  797.42   49.60
  -1   4  -5  837.62   45.80
  -1   4  -5  820.12   23.40
   1  -3   5  253.17    8.60
   1  -3   5  204.58   27.60
  -1   3  -5  226.18    7.70
  -1   3  -5  244.28   22.90
   1  -2   5   57.39   14.50
   1  -2   5   68.39    3.50
  -1   2  -5   47.80   12.10
  -1   2  -5   65.79    2.80
   1  -1   5   -8.30    8.30
   1  -1   5    6.70    0.60
   1  -1   5    5.00    1.30
  -1   1  -5    9.60    7.20
  -1   1  -5    5.50    0.50
  -1   1  -5    5.70    0.80
   1   0   5   40.30    1.80
   1   0   5   38.40    2.50
   1   0   5   41.50    1.70
  -1   0  -5   40.70    1.60
  -1   0  -5   34.80    9.50
  -1   0  -5   39.00    1.70
   1   1   5  228.78    6.90
   1   1   5  232.68    6.50
   1   1   5  232.58   20.50
  -1  -1  -5  224.78    6.50
  -1  -1  -5  225.88    6.80
   1   2   5    9.30    1.00
   1   2   5    9.50    0.50
  -1  -2  -5    9.20    0.50
  -1  -2  -5    8.90    0.50
  -1  -2  -5    7.20    9.40
  -1  -2  -5   11.80    1.30
   1   3   5   11.80    1.20
   1   3   5   13.70    9.10
  -1  -3  -5   15.90   11.80
  -1  -3  -5   12.70    1.40
   1   4   5   25.40   12.80
   1   4   5   25.40    1.90
  -1  -4  -5   27.30    1.90
  -1  -4  -5    2.20   13.90
   1   5   5   -1.10    0.80
  -1  -5  -5    0.30    0.80
  -1  -5  -5    1.10   13.10
   1   6   5    1.50    1.00
   1   6   5    2.00    0.50
  -1  -6  -5  -12.70   14.90
  -1  -6  -5    1.60    0.80
  -1  -6  -5    1.80   24.90
   1   7   5    2.10    1.20
  -1  -7  -5    8.10   24.50
  -1  -7  -5    1.60    1.30
   1   8   5    4.50    1.80
  -1  -8  -5    4.60    1.40
   1   9   5    2.00    1.60
  -1  -9  -5    3.60    1.80
   2  -6   5    2.10    2.50
  -2   6  -5    6.10    1.60
   2  -5   5   -3.40    2.10
  -2   5  -5    0.10    1.00
   2  -4   5  127.09    5.60
  -2   4  -5  117.49    4.90
  -2   4  -5   88.39   22.50
   2  -3   5  118.69   21.20
   2  -3   5  121.09    5.30
  -2   3  -5  121.39    4.70
  -2   3  -5  126.79   18.60
  -2   3  -5  117.89    3.40
   2  -2   5   13.30    1.70
   2  -2   5    9.40    9.30
  -2   2  -5   10.40    0.60
  -2   2  -5   10.30    0.70
  -2   2  -5   10.10    1.20
  -2   2  -5   19.10    8.30
   2  -1   5    3.90    1.20
   2  -1   5    9.30    7.70
   2  -1   5    3.20    0.40
  -2   1  -5    2.50    0.60
  -2   1  -5   -4.40    5.30
  -2   1  -5    2.10    0.50
  -2   1  -5    2.50    0.40
   2   0   5  131.29    4.10
   2   0   5  122.09    4.20
   2   0   5  136.29    5.20
  -2   0  -5  127.39    4.00
  -2   0  -5  128.29    4.20
  -2   0  -5  130.39    4.20
  -2   0  -5  117.39   11.50
   2   1   5    1.90    5.30
   2   1   5   -0.60    0.80
   2   1   5    0.30    0.30
   2   1   5    0.00    0.40
  -2  -1  -5    6.30    6.70
  -2  -1  -5    1.00    0.40
  -2  -1  -5    1.20    0.60
   2   2   5   18.70   11.30
   2   2   5   45.30    2.20
   2   2   5   44.40    2.60
  -2  -2  -5   47.80    1.60
  -2  -2  -5   48.90    1.60
  -2  -2  -5   46.50    2.50
  -2  -2  -5   42.80    9.70
   2   3   5   -2.40    7.70
   2   3   5   -0.20    0.40
  -2  -3  -5   -0.30    0.70
  -2  -3  -5    0.00    8.40
   2   4   5   93.59    3.80
  -2  -4  -5   76.09   16.50
  -2  -4  -5   92.39   15.80
  -2  -4  -5   92.99    3.80
   2   5   5   -0.10    0.70
  -2  -5  -5   -7.50   13.90
  -2  -5  -5    9.00    8.70
  -2  -5  -5    0.50    0.70
   2   6   5   17.10    0.90
   2   6   5   19.90    1.90
   2   6   5   17.40    1.00
  -2  -6  -5   20.70    1.80
  -2  -6  -5   -6.50   12.10
  -2  -6  -5   31.00   21.10
  -2  -7  -5   17.90   27.90
   2   8   5    0.10    1.50
  -2  -8  -5    0.90    1.20
   2   9   5   14.50    2.30
  -2  -9  -5   16.70    2.40
   3  -6   5   -0.10    2.90
  -3   6  -5    0.30    1.60
   3  -5   5   -2.80    2.40
  -3   5  -5    1.80    1.20
   3  -4   5   16.00    2.40
   3  -3   5   13.20   13.30
   3  -3   5    9.50    2.00
   3  -3   5   11.10   14.00
  -3   3  -5   11.10    1.50
  -3   3  -5   11.40    0.90
   3  -2   5    3.70    1.60
   3  -2   5    9.00    8.90
   3  -2   5   12.20    9.00
  -3   2  -5    3.90    0.60
  -3   2  -5    3.20    0.80
  -3   2  -5    3.70    0.70
   3  -1   5   21.80    7.10
   3  -1   5   14.40    1.80
  -3   1  -5   15.10    0.90
  -3   1  -5   14.40    1.30
  -3   1  -5   14.40    1.10
   3   0   5   52.09    2.10
   3   0   5   59.79    3.10
   3   0   5   47.50    6.90
  -3   0  -5   50.49    2.30
  -3   0  -5   51.69    2.20
  -3   0  -5   51.89    2.10
   3   1   5  121.79    4.00
   3   1   5  117.89    3.80
   3   1   5  123.29    4.60
  -3  -1  -5  119.49    3.90
  -3  -1  -5  111.39    3.80
  -3  -1  -5  109.49    4.00
  -3  -1  -5  112.29    4.50
   3   2   5   53.19    1.90
   3   2   5   51.19    2.30
   3   2   5   54.59    2.80
  -3  -2  -5   46.20    7.40
  -3  -2  -5   51.39    1.90
  -3  -2  -5   50.79    2.60
  -3  -2  -5   73.29   11.50
  -3  -2  -5   50.99    1.90
   3   3   5   57.19    1.90
   3   3   5   53.19    2.50
  -3  -3  -5   54.19    2.70
  -3  -3  -5   46.00    9.90
  -3  -3  -5   56.89    1.90
  -3  -3  -5   55.29    1.90
  -3  -3  -5   48.70    9.00
   3   4   5   14.90    1.40
   3   4   5   15.80    0.70
  -3  -4  -5   15.30    1.40
  -3  -4  -5   34.10    8.60
  -3  -4  -5   15.00    9.50
  -3  -4  -5   14.20    0.80
   3   5   5    0.60    0.70
  -3  -5  -5   -0.10    0.30
  -3  -5  -5    0.80    0.60
  -3  -5  -5    9.70   13.00
  -3  -5  -5   -5.00    9.00
   3   6   5  132.49    5.20
   3   6   5  121.89    3.70
  -3  -6  -5  118.69    3.70
  -3  -6  -5   79.79   21.80
  -3  -6  -5  124.09    4.90
  -3  -6  -5  144.89   21.20
   3   7   5    2.10    1.10
   3   7   5    1.20    0.50
  -3  -7  -5    7.40   23.10
  -3  -7  -5    1.20    1.00
   3   8   5   -1.20    1.20
  -3  -8  -5   -0.30    1.10
   3   9   5   -0.80    1.60
  -3  -9  -5    0.40    1.50
   3  10   5    0.50    2.10
  -3 -10  -5    3.70    2.00
  -4   6  -5   -0.30    1.70
   4  -5   5    3.10    3.00
  -4   5  -5   18.40    2.50
   4  -4   5   -2.40    2.10
  -4   4  -5    0.70    1.10
   4  -3   5   -0.40   15.50
   4  -3   5    7.80    2.00
  -4   3  -5    4.60    1.10
  -4   3  -5    3.20    0.60
   4  -2   5    2.60    1.60
   4  -2   5   -4.60   10.00
   4  -2   5    5.10   11.00
  -4   2  -5    2.80    0.90
  -4   2  -5    3.10    0.50
   4  -1   5   -2.20    7.60
   4  -1   5    5.90    6.90
   4  -1   5   -1.60    1.40
  -4   1  -5   -0.20    0.40
  -4   1  -5   -0.10    0.60
   4   0   5    1.10    0.60
   4   0   5    1.20    1.20
  -4   0  -5    1.60    0.60
  -4   0  -5    1.40    0.50
   4   1   5  445.86   12.70
   4   1   5  450.25   13.30
   4   1   5  431.56   12.70
  -4  -1  -5  448.06   12.70
  -4  -1  -5  448.66   12.60
  -4  -1  -5  431.56   13.20
   4   2   5  142.59    5.20
   4   2   5  139.29    4.80
   4   2   5  135.49    4.40
  -4  -2  -5  131.79    5.00
  -4  -2  -5  128.29    4.40
  -4  -2  -5  138.19    4.40
   4   3   5    5.90    0.90
   4   3   5    6.30    0.70
  -4  -3  -5    6.80    6.00
  -4  -3  -5    5.30    0.80
  -4  -3  -5    6.60    1.10
  -4  -3  -5   -1.40    5.20
   4   4   5   75.59    2.60
   4   4   5   68.49    3.20
  -4  -4  -5   76.39    2.60
  -4  -4  -5   60.29   12.30
  -4  -4  -5   73.09   13.10
  -4  -4  -5   74.09    3.30
  -4  -5  -5   -9.80   11.50
  -4  -5  -5   -1.70   10.00
   4   6   5    2.50    0.90
   4   6   5    3.00    0.60
  -4  -6  -5   12.10   16.60
  -4  -6  -5    3.90    1.00
  -4  -6  -5    1.90    0.60
  -4  -6  -5    7.50   14.60
  -4  -7  -5   -8.80   19.40
  -4  -7  -5    2.40    0.90
   4   8   5   -1.20    1.20
  -4  -8  -5    0.80    1.20
   4   9   5    2.50    1.70
  -4  -9  -5    1.40    1.30
   4  10   5   -0.20    1.90
  -4 -10  -5    1.80    1.90
  -5   5  -5    0.00    1.80
  -5   4  -5    1.40    1.40
   5  -3   5    1.60    2.20
  -5   3  -5    6.00    1.00
  -5   3  -5    6.60    1.50
   5  -2   5   37.60    3.20
  -5   2  -5   39.40    2.70
  -5   2  -5   37.30    1.80
   5  -1   5    5.20    1.00
   5  -1   5   19.00    9.20
   5  -1   5  -14.10   10.10
   5  -1   5    3.90    1.70
  -5   1  -5    5.80    0.80
  -5   1  -5    7.10    1.20
   5   0   5    0.50    0.60
   5   0   5   -1.00    1.30
   5   0   5    1.40    4.60
   5   0   5   -2.70    4.00
  -5   0  -5   -0.50    0.70
  -5   0  -5    0.30    0.60
  -5   0  -5    0.20    0.50
   5   1   5   19.10    1.80
   5   1   5   17.60    1.40
  -5  -1  -5   16.30    1.40
  -5  -1  -5   18.20    1.50
  -5  -1  -5   19.10    1.30
   5   2   5   18.10    1.30
   5   2   5   19.20    1.50
  -5  -2  -5   16.20    1.40
  -5  -2  -5   17.20    1.50
   5   3   5   27.30    1.80
   5   3   5   27.10    1.50
  -5  -3  -5   28.20    1.70
  -5  -3  -5   26.50    1.70
  -5  -3  -5   25.10    6.70
  -5  -3  -5   12.10    7.00
   5   4   5    1.70    0.50
   5   4   5    1.90    0.70
  -5  -4  -5    1.20    0.70
  -5  -4  -5    2.00    7.60
   5   5   5   24.40    1.40
   5   5   5   23.10    1.90
  -5  -5  -5   12.10   10.80
  -5  -5  -5   23.90    1.80
   5   6   5   46.60    2.10
   5   6   5   44.40    2.70
  -5  -6  -5   62.89   16.00
  -5  -6  -5   47.30    2.70
  -5  -7  -5   31.60   25.70
   5   8   5    1.50    1.40
   5   8   5    0.30    0.80
  -5  -8  -5    0.50    1.20
   5   9   5    7.50    1.80
  -5  -9  -5    5.20    1.60
   5  10   5   -2.40    1.80
  -5 -10  -5   -2.70    1.50
  -6   4  -5   -0.60    1.80
  -6   3  -5    4.50    1.60
  -6   3  -5    3.20    1.10
   6  -2   5    4.40    1.20
  -6   2  -5    5.70    1.40
  -6   2  -5    4.50    0.80
   6  -1   5    1.50    0.90
   6  -1   5   -1.60    1.40
   6  -1   5    0.80   14.60
  -6   1  -5    0.30    0.60
  -6   1  -5    1.20    1.00
  -6   1  -5    0.30    0.90
   6   0   5   -0.30    1.30
   6   0   5   12.50    7.30
   6   0   5    0.50    0.60
   6   0   5   -4.70    9.00
  -6   0  -5    0.60    0.70
  -6   0  -5    2.00    0.70
   6   1   5   81.79    7.20
   6   1   5   84.99    3.70
   6   1   5   90.99    6.80
  -6  -1  -5   84.99    3.50
  -6  -1  -5   88.19    3.80
  -6  -1  -5   88.29    3.40
   6   2   5    2.30    0.80
   6   2   5    0.50    3.00
  -6  -2  -5    3.90    0.70
  -6  -2  -5    2.60    0.80
  -6  -2  -5   -0.50    4.10
   6   3   5   18.30    1.50
   6   3   5   16.60    1.60
  -6  -3  -5   16.80    1.40
  -6  -3  -5    3.60    8.00
  -6  -3  -5   17.20    1.50
   6   4   5   -0.10    0.60
   6   4   5    0.30    0.70
   6   4   5   -3.50    7.60
  -6  -4  -5    2.40   10.10
  -6  -4  -5    0.90    0.80
  -6  -4  -5    0.70    0.60
   6   5   5   23.60    1.50
   6   5   5   23.30    2.00
   6   5   5   12.30   10.20
  -6  -5  -5   20.30    1.70
  -6  -5  -5   15.30   11.60
  -6  -5  -5   21.60    1.70
   6   6   5  160.38    5.30
   6   6   5  168.58   25.80
   6   6   5  150.38    6.10
  -6  -6  -5  160.08    5.90
  -6  -6  -5  151.48   25.50
   6   7   5    6.60    1.00
   6   7   5    5.30    1.20
  -6  -7  -5    6.00    1.40
   6   8   5    0.20    0.90
   6   8   5    1.00    1.30
  -6  -8  -5    2.50    1.20
   6   9   5   -2.60    1.50
  -6  -9  -5    0.60    1.50
   6  10   5   -3.10    1.70
  -6 -10  -5   -2.00    1.70
  -7   3  -5   -1.50    1.90
   7  -2   5   -0.80    1.10
  -7   2  -5    1.50    1.70
   7  -1   5    2.50    1.10
  -7   1  -5    0.50    1.30
  -7   1  -5    1.80    0.80
   7   0   5    5.80    1.20
   7   0   5    8.70   13.70
  -7   0  -5    1.80    1.20
  -7   0  -5    5.00    0.90
   7   1   5   17.20   10.00
   7   1   5   25.80    2.30
  -7  -1  -5   24.10    1.90
  -7  -1  -5   27.20    2.40
  -7  -1  -5   26.10    2.00
   7   2   5   -5.70    7.80
   7   2   5    1.40    0.80
  -7  -2  -5    2.20    0.90
  -7  -2  -5   13.10    9.60
   7   3   5  151.78   16.10
   7   3   5  134.99    5.10
  -7  -3  -5  131.29    5.10
  -7  -3  -5  128.99   19.70
  -7  -3  -5  133.29    4.60
   7   4   5    0.00    0.90
   7   4   5    0.80    0.80
  -7  -4  -5   -0.40    0.80
  -7  -4  -5   -0.60    0.60
   7   5   5    1.70    0.80
   7   5   5   -9.80   11.20
   7   5   5    1.60    0.90
  -7  -5  -5    0.60    0.80
  -7  -5  -5   21.70   14.40
  -7  -5  -5   -0.10    0.70
   7   6   5    8.20    1.50
   7   6   5    8.40    1.30
  -7  -6  -5    8.60    1.30
  -7  -6  -5    9.60    1.50
   7   7   5    5.70    1.50
   7   7   5    5.70    1.10
  -7  -7  -5    1.80    1.20
  -7  -7  -5    4.50    1.30
   7   8   5    2.10    1.20
   7   8   5    4.10    1.60
  -7  -8  -5    0.60    1.40
  -7  -8  -5    1.40    1.40
   7   9   5   -2.30    1.70
   7   9   5    2.40    1.90
  -7  -9  -5    0.80    1.50
   7  10   5   -0.50    1.90
  -7 -10  -5   -1.40    1.70
   8  -2   5   20.40    3.00
  -8   2  -5   26.30    3.80
  -8   2  -5   23.30    2.60
   8  -1   5    2.00    1.50
  -8   1  -5    4.80    1.70
  -8   1  -5    2.00    1.20
   8   0   5    1.20    1.30
  -8   0  -5   -0.70    0.90
  -8   0  -5    2.00    1.50
   8   1   5    7.80    1.50
  -8  -1  -5    6.40    1.40
  -8  -1  -5    8.70    1.50
   8   2   5    8.20   12.70
   8   2   5    7.20    1.40
  -8  -2  -5    8.90    1.40
  -8  -2  -5  -10.90   14.10
   8   3   5   48.00    2.90
   8   3   5   32.20   13.20
  -8  -3  -5   37.30   16.00
  -8  -3  -5   45.70    2.10
  -8  -3  -5   53.59    3.00
   8   4   5   -3.00   13.80
   8   4   5    3.00    1.20
  -8  -4  -5  -19.20   15.80
  -8  -4  -5    1.90    1.10
   8   5   5    2.20    1.30
   8   5   5    0.80    1.00
  -8  -5  -5    0.00    0.70
  -8  -5  -5    0.80    1.10
   8   6   5    0.10    1.30
   8   6   5   -1.50    0.90
  -8  -6  -5   -0.50    0.90
  -8  -6  -5   -0.20    1.10
   8   7   5    3.00    1.60
   8   7   5    4.40    1.30
  -8  -7  -5    4.10    1.20
   8   8   5    0.10    1.30
   8   8   5   -1.80    1.20
  -8  -8  -5   -0.70    1.40
  -8  -8  -5    1.00    1.20
   8   9   5    1.50    1.70
   8   9   5    0.50    1.60
  -8  -9  -5   -1.10    1.80
  -8  -9  -5    0.80    1.40
   9   0   5   -0.80    1.60
  -9   0  -5    0.00    1.90
  -9   0  -5   -0.80    1.20
   9   1   5    0.70    1.50
  -9  -1  -5    2.80    1.70
  -9  -1  -5    0.40    1.30
   9   2   5    1.00    1.20
  -9  -2  -5    0.50    1.10
   9   3   5    1.20    1.20
  -9  -3  -5   -1.20    1.10
   9   4   5    0.80    1.30
  -9  -4  -5    0.60    1.20
   9   5   5    1.30    1.30
  -9  -5  -5    0.90    1.20
   9   6   5    6.40    1.60
  -9  -6  -5    8.50    1.50
  -9  -6  -5    6.90    1.30
   9   7   5   -1.50    1.30
   9   7   5    3.70    1.60
  -9  -7  -5    2.90    1.10
  -9  -7  -5   -2.40    1.30
   9   8   5    2.20    2.10
   9   8   5   -0.10    1.70
  -9  -8  -5    5.20    1.70
  -9  -8  -5    0.10    1.40
   9   9   5    1.30    2.10
   9   9   5    1.20    1.80
  -9  -9  -5    0.70    2.00
  -9  -9  -5    3.70    1.60
  10   2   5    4.10    1.80
 -10  -2  -5    4.00    1.80
  10   3   5   40.60    3.60
 -10  -3  -5   40.60    3.20
  10   4   5    1.90    1.70
 -10  -4  -5    6.80    1.80
  10   5   5   -2.80    1.50
 -10  -5  -5    0.60    1.60
  10   6   5    4.40    1.80
 -10  -6  -5    2.30    1.60
  10   7   5    1.10    1.80
 -10  -7  -5   -0.40    1.80
  -6  -5   6    0.90    2.80
  -6  -4   6   -2.80    2.80
   6   4  -6    5.90    1.70
   6   3  -6   -1.10    1.50
  -6  -2   6    2.20    1.40
   6   2  -6    0.20    1.30
  -6  -1   6   43.00    3.30
   6   1  -6   33.20    2.80
  -6   0   6    7.60    2.00
   6   0  -6    6.30    1.50
  -5  -6   6    2.40    2.40
   5   6  -6    2.60    1.70
  -5  -5   6   -1.90    2.10
   5   5  -6    0.40    1.60
   5   4  -6   10.60    1.80
  -5  -3   6   -2.50    2.10
  -5  -3   6   -0.60    1.10
   5   3  -6    3.20    1.30
  -5  -2   6    1.90    1.10
   5   2  -6    1.70    1.10
  -5  -1   6    1.60    2.60
  -5  -1   6    1.60    1.20
   5   1  -6    0.90    1.10
  -5   0   6    1.30    1.30
  -5   1   6    1.40    1.30
  -5   2   6    1.50    1.70
  -4  -7   6   -1.50    3.00
   4   7  -6    1.20    1.60
  -4  -6   6    2.90    3.00
   4   6  -6    1.20    1.70
  -4  -5   6   -2.00    2.20
   4   5  -6    7.50    1.60
  -4  -4   6   -0.40    2.00
  -4  -4   6  -21.50   37.60
   4   4  -6  -28.10   33.70
   4   4  -6    1.80    1.20
  -4  -3   6   -2.00   33.80
  -4  -3   6    2.30    0.90
  -4  -3   6   -0.10    1.60
   4   3  -6   21.20   26.00
   4   3  -6    1.30    1.20
  -4  -2   6  -31.70   31.10
  -4  -2   6    1.20    1.40
   4   2  -6    3.10    1.00
   4   2  -6   -6.50   33.20
  -4  -1   6    6.90    1.20
  -4  -1   6  -30.00   30.00
   4   1  -6   38.00   34.60
   4   1  -6    6.20    1.00
  -4   0   6    1.20   30.60
  -4   0   6    1.20    1.40
   4   0  -6   -9.30   36.10
   4   0  -6    5.50    1.80
  -4   1   6    0.30    1.30
  -4   1   6   -0.70    1.10
   4  -1  -6    0.30    0.80
   4  -1  -6    0.50    1.30
  -4   2   6    1.50    1.40
   4  -2  -6    2.00    1.00
  -4   3   6    2.40    1.60
  -4   4   6    7.50    2.20
  -3  -7   6   -0.10    3.00
   3   7  -6    3.40    2.00
  -3  -6   6    1.80    3.00
   3   6  -6    4.50    1.40
  -3  -5   6   -2.50    2.30
  -3  -4   6    1.90    3.50
  -3  -4   6  -10.10   27.60
   3   4  -6  -29.90   27.90
   3   4  -6    1.00    1.30
  -3  -3   6    9.50   25.30
   3   3  -6   24.20   28.40
  -3  -2   6    9.40    1.20
  -3  -2   6   18.00   24.70
   3   2  -6    8.60    1.30
   3   2  -6   21.50   24.90
  -3  -1   6   53.49   24.60
  -3  -1   6   31.80    1.90
   3   1  -6   49.80   26.80
   3   1  -6   28.40    1.90
  -3   0   6  -23.80   24.90
  -3   0   6   -0.70    1.30
   3   0  -6  -15.20   25.50
  -3   1   6   90.29    4.00
  -3   1   6  109.69   26.10
   3  -1  -6   77.89   26.60
   3  -1  -6   89.79    3.50
   3  -1  -6   90.49    4.30
  -3   2   6  -20.80   28.50
   3  -2  -6  -17.00   30.10
  -3   3   6    2.00    1.30
   3  -3  -6  -28.80   38.30
   3  -3  -6    2.30    1.20
   3  -3  -6    0.10    0.90
  -3   4   6    1.30    1.40
  -3   5   6    1.60    1.70
  -2  -7   6   -0.20    3.50
   2   7  -6    9.30    2.10
  -2  -6   6   -0.80    2.80
   2   6  -6   -1.70    1.20
  -2  -5   6    0.40    2.30
   2   5  -6    1.30    1.20
  -2  -4   6   49.10    4.10
  -2  -4   6   40.90   25.70
   2   4  -6   61.69    3.30
  -2  -3   6    9.20   21.40
   2   3  -6   -5.00   19.20
  -2  -2   6   12.20   20.50
  -2  -2   6    5.50    0.80
   2   2  -6  -13.50   19.20
   2   2  -6    6.60    1.10
  -2  -1   6    3.30    0.80
  -2  -1   6   23.30   20.50
   2   1  -6   -8.50   18.80
   2   1  -6    3.70    0.70
  -2   0   6   24.10   20.40
  -2   0   6    3.20    0.90
   2   0  -6    4.60    0.80
  -2   1   6   62.39   17.90
  -2   1   6   60.19    2.90
   2  -1  -6   57.99   25.20
   2  -1  -6   58.09    2.50
   2  -1  -6   58.29    3.30
  -2   2   6   -3.70   20.40
  -2   2   6    0.10    1.20
   2  -2  -6   -1.50   26.60
  -2   3   6   18.30   18.20
   2  -3  -6    9.60   29.00
  -2   4   6    1.90    1.10
  -2   4   6   46.00   23.10
   2  -4  -6   -0.50    1.00
   2  -4  -6  -39.40   34.30
  -2   5   6    0.50    1.50
   2  -5  -6    1.30    1.10
  -2   6   6    1.50    2.00
  -1  -7   6    0.20    3.60
   1   7  -6   10.60    2.00
  -1  -6   6   -4.30    2.30
   1   6  -6    0.30    1.20
  -1  -5   6    2.30    2.20
   1   5  -6    2.00    1.20
  -1  -4   6    0.30    1.80
  -1  -4   6   -1.10   23.10
   1   4  -6  -16.10   17.10
  -1  -3   6   36.70   20.10
   1   3  -6   87.59   20.60
  -1  -2   6   -0.20    1.30
  -1  -2   6    0.70    0.50
  -1  -2   6  -26.70   18.50
   1   2  -6    0.60    0.60
   1   2  -6    0.40    0.40
   1   2  -6  -11.50   14.80
  -1  -1   6   -0.20   14.90
  -1  -1   6    2.60    0.60
   1   1  -6    4.30    0.80
   1   1  -6   15.90   16.50
  -1   0   6   -0.70    1.40
  -1   0   6   -5.10   14.30
  -1   0   6   -0.10    0.50
   1   0  -6    0.10    0.50
   1   0  -6   -2.40   15.60
  -1   1   6    0.20    1.20
  -1   1   6   40.10   17.20
  -1   1   6    0.00    0.50
  -1   1   6    0.40    0.60
   1  -1  -6   -0.70    0.50
   1  -1  -6   -1.40    0.90
   1  -1  -6   -3.50   14.70
  -1   2   6  -11.00   16.60
  -1   3   6    0.10    0.80
  -1   3   6    1.00    0.70
  -1   3   6  -17.20   18.00
   1  -3  -6    0.10    0.40
   1  -3  -6    0.00    0.90
   1  -3  -6  -12.00   21.50
  -1   4   6    1.10   21.90
  -1   4   6    5.50    1.40
   1  -4  -6   68.69   27.40
  -1   5   6   -0.30   26.70
  -1   5   6    2.40    1.20
   1  -5  -6    0.90    1.00
   1  -5  -6  -43.90   32.90
  -1   6   6    3.90    1.80
   1  -6  -6    8.00    1.40
  -1   7   6   -0.70    1.90
   1  -7  -6    0.90    1.60
   0  -7   6    6.50    3.90
   0   7  -6    8.50    2.10
   0  -6   6    5.90    2.60
   0   6  -6    5.20    1.60
   0   5  -6    0.50    1.00
   0  -4   6   28.60   22.50
   0   4  -6    6.40   17.00
   0  -3   6   -8.00   18.20
   0   3  -6  -23.00   15.20
   0  -2   6    2.10    1.60
   0  -2   6  -23.70   14.60
   0   2  -6    6.00   11.90
   0  -1   6   50.99    2.00
   0  -1   6   46.80   15.90
   0   1  -6   51.49    2.40
   0   1  -6   47.60   14.90
   0   1  -6   49.30    1.80
   0   0   6   72.69   16.40
   0   0   6   79.49    2.90
   0   0  -6   73.29    2.70
   0   0  -6   83.19   17.40
   0   1   6  263.07    7.80
   0   1   6  273.07    8.30
   0   1   6  295.67   29.90
   0  -1  -6  251.17   28.30
   0  -1  -6  277.57    7.80
   0   2   6    4.60   13.10
   0  -2  -6    2.20   15.70
   0   3   6    1.50    0.70
   0   3   6   -0.30    0.30
   0   3   6   -1.60   15.40
   0  -3  -6   -0.50    0.80
   0  -3  -6   -0.90   16.30
   0   4   6   26.20   18.60
   0   4   6   28.50    2.20
   0  -4  -6   24.00    2.00
   0  -4  -6   43.30   22.40
   0   5   6   -1.10    1.10
   0  -5  -6  -10.60   25.30
   0  -5  -6   -1.30    0.90
   0   6   6   13.20    2.10
   0  -6  -6    7.00   35.20
   0  -6  -6   12.20    1.70
   0   7   6   -0.10    1.50
   0  -7  -6   -0.20    1.20
   0   8   6    2.10    2.10
   0  -8  -6    2.20    1.70
   1  -7   6   -4.40    3.40
  -1   7  -6   -1.00    1.70
   1  -6   6   -1.10    2.80
  -1   6  -6    7.80    1.70
   1  -5   6    5.90    2.60
  -1   5  -6    3.60    1.10
   1  -4   6   21.10    2.80
  -1   4  -6   21.40    2.10
   1  -3   6   23.90   17.70
   1  -3   6   -0.10    1.50
  -1   3  -6  -12.70   11.50
   1  -2   6   99.89    4.90
   1  -2   6   84.99   19.10
  -1   2  -6   78.09   16.60
  -1   2  -6   98.59    3.90
   1  -1   6   70.29    2.40
   1  -1   6   70.99    4.00
   1  -1   6   44.90   14.20
  -1   1  -6   42.80   12.70
  -1   1  -6   69.39    2.80
  -1   1  -6   68.39    2.20
   1   0   6    0.60    0.70
   1   0   6    8.00   10.00
   1   0   6   -0.10    0.40
   1   0   6    0.30    1.20
  -1   0  -6    0.40    0.50
  -1   0  -6  -11.10   10.00
   1   1   6  192.98   22.80
   1   1   6  178.08    5.40
   1   1   6  177.98    5.70
  -1  -1  -6  177.88   22.50
  -1  -1  -6  180.78    5.40
   1   2   6  119.99   21.10
   1   2   6   93.49    4.50
   1   2   6  105.49    3.10
   1   2   6  101.99    3.90
  -1  -2  -6  104.29    3.10
  -1  -2  -6  152.68   22.30
  -1  -2  -6  101.99    3.10
  -1  -2  -6  105.29    4.50
   1   3   6    4.20    0.90
   1   3   6    4.60    1.30
  -1  -3  -6   11.30   14.70
  -1  -3  -6    6.10    1.10
   1   4   6    5.10   14.30
  -1  -4  -6   -2.00   16.50
   1   5   6   16.40   17.80
  -1  -5  -6  -25.00   20.70
  -1  -6  -6   -7.70   27.00
   1   7   6    1.90    1.30
   1   8   6    3.90    1.90
  -1  -8  -6    3.20    1.60
   2  -6   6    1.80    3.00
  -2   6  -6    2.10    1.60
   2  -5   6    1.80    2.40
  -2   5  -6    3.90    1.30
   2  -4   6   16.80    2.70
  -2   4  -6   16.30    2.50
   2  -3   6   10.60   15.30
   2  -3   6    4.20    1.80
  -2   3  -6    3.40    1.00
  -2   3  -6   -2.40   11.50
   2  -2   6  155.18   23.70
   2  -2   6  156.88    6.30
  -2   2  -6  144.09    5.30
  -2   2  -6  142.29    4.10
  -2   2  -6  138.19    4.00
  -2   2  -6  162.68   17.80
   2  -1   6    4.20    1.60
   2  -1   6    2.30    0.40
   2  -1   6   15.30    9.30
  -2   1  -6    1.70    0.60
  -2   1  -6    2.10    0.40
  -2   1  -6    1.90    0.50
   2   0   6   15.60    1.00
   2   0   6   12.80    1.90
   2   0   6   16.00    8.60
  -2   0  -6   16.80    1.20
  -2   0  -6   15.20    1.10
  -2   0  -6    1.50    6.70
   2   1   6    7.40    1.10
   2   1   6    5.10    1.40
   2   1   6    6.90    0.80
   2   1   6    8.10    7.60
  -2  -1  -6    7.50    0.90
  -2  -1  -6    6.00    0.90
  -2  -1  -6   18.70    8.30
  -2  -1  -6    7.40    0.80
   2   2   6    9.80    7.90
  -2  -2  -6   10.30    9.30
   2   3   6   61.69   14.10
   2   3   6   63.99    2.90
   2   3   6   62.99    3.50
  -2  -3  -6   50.99   14.40
  -2  -3  -6   62.39    3.20
   2   4   6   20.80   11.60
   2   4   6    6.00    1.10
  -2  -4  -6   10.80   14.40
  -2  -4  -6    6.10    1.20
  -2  -5  -6   18.50   11.00
  -2  -5  -6   28.70   18.20
   2   6   6   54.79    3.20
  -2  -6  -6   56.09    3.00
  -2  -6  -6   63.09   14.80
  -2  -6  -6   47.90   25.20
  -2  -7  -6   15.60   36.10
   2   8   6   -0.40    1.50
  -2  -8  -6    0.60    1.40
   2   9   6    2.60    1.80
  -2  -9  -6    1.50    1.80
   3  -6   6    0.20    3.10
  -3   6  -6    5.00    1.80
   3  -5   6    3.80    2.60
  -3   5  -6    0.50    1.30
   3  -4   6   18.10    2.90
  -3   4  -6   18.70    2.30
   3  -3   6   10.90    2.30
  -3   3  -6    9.30    1.50
   3  -2   6   17.20   12.20
   3  -2   6   12.30    2.30
  -3   2  -6   11.80    0.80
  -3   2  -6   13.00    1.50
  -3   2  -6    9.00    1.10
  -3   2  -6    7.90    9.90
   3  -1   6    0.80    1.50
   3  -1   6   -0.30    8.30
  -3   1  -6    1.60    0.70
  -3   1  -6   -5.10    6.30
  -3   1  -6    0.70    0.40
  -3   1  -6    0.30    0.60
   3   0   6   10.20    6.00
   3   0   6   11.50    2.00
   3   0   6    9.30    0.90
  -3   0  -6    9.20    1.00
  -3   0  -6    9.30    1.10
  -3   0  -6    5.70    4.70
  -3   0  -6   10.40    0.90
   3   1   6   26.70    1.50
   3   1   6   26.70    2.20
   3   1   6   27.70    5.80
  -3  -1  -6   23.90    1.50
  -3  -1  -6   25.70    1.60
  -3  -1  -6   23.30    1.90
  -3  -1  -6   23.90    5.50
   3   2   6    8.30    1.60
   3   2   6    5.40    5.70
   3   2   6    4.90    0.80
  -3  -2  -6    4.00    6.90
  -3  -2  -6    5.40    0.70
  -3  -2  -6    6.50    1.30
  -3  -2  -6    5.80    0.70
   3   3   6   51.39    2.50
  -3  -3  -6   48.40    1.70
  -3  -3  -6   44.50    9.70
  -3  -3  -6   50.99    2.80
  -3  -3  -6   48.90    1.70
  -3  -3  -6   32.50   11.10
   3   4   6    0.70    0.70
  -3  -4  -6   -3.30    8.50
  -3  -4  -6    1.00    0.90
  -3  -4  -6  -11.80   11.00
   3   5   6   45.30    2.70
  -3  -5  -6   61.49   13.30
  -3  -5  -6   43.90    2.70
  -3  -5  -6   42.80   15.50
   3   6   6  416.26   13.00
  -3  -6  -6  420.06   32.00
  -3  -6  -6  401.36   12.80
  -3  -6  -6  408.56   39.40
  -3  -7  -6   27.10    2.20
   3   8   6    0.50    1.50
  -3  -8  -6    0.80    1.30
   3   9   6    4.50    2.10
  -3  -9  -6    1.10    1.40
   4  -5   6    1.70    3.20
  -4   5  -6    3.70    1.90
   4  -4   6   -0.10    2.30
  -4   4  -6    0.60    1.30
   4  -3   6   20.60    3.00
  -4   3  -6   22.70    2.30
   4  -2   6   61.09    3.90
   4  -2   6   55.69   14.30
  -4   2  -6   54.29    3.00
   4  -1   6   -6.20    7.40
   4  -1   6    3.00    8.30
   4  -1   6    3.40    1.70
  -4   1  -6    0.00    0.40
  -4   1  -6   -0.30    0.70
   4   0   6   -0.40    0.50
   4   0   6   -2.10    1.50
  -4   0  -6   -0.30    0.60
  -4   0  -6   -0.40    0.40
   4   1   6  155.48    5.30
   4   1   6  159.28    5.20
   4   1   6  160.08    6.00
  -4  -1  -6  158.78    5.30
  -4  -1  -6  158.88    6.00
  -4  -1  -6  157.28    5.10
   4   2   6   35.40    2.00
   4   2   6   35.10    2.50
  -4  -2  -6   31.50    2.20
   4   3   6   60.39    2.80
   4   3   6   59.49    2.20
  -4  -3  -6   59.49   10.50
  -4  -3  -6   59.79    3.10
  -4  -3  -6   59.69    2.30
  -4  -3  -6   58.59    2.20
  -4  -3  -6   56.69   10.50
   4   4   6   12.90    1.40
   4   4   6   15.10    0.90
  -4  -4  -6   14.00    1.50
  -4  -4  -6   15.70    1.00
  -4  -4  -6    3.90    9.20
  -4  -4  -6   18.50    7.40
   4   5   6    4.10    0.50
   4   5   6    3.80    1.00
  -4  -5  -6    4.20   12.90
  -4  -5  -6    5.30    1.30
  -4  -5  -6   20.80    9.60
  -4  -5  -6    5.00    0.70
   4   6   6  177.18    5.20
   4   6   6  185.48    6.90
  -4  -6  -6  198.58   23.20
  -4  -6  -6  197.58   33.20
  -4  -6  -6  184.58    6.70
   4   7   6   44.70    3.10
  -4  -7  -6   40.90    2.70
   4   8   6   -0.80    1.30
  -4  -8  -6    0.70    1.30
   4   9   6    1.50    1.60
  -4  -9  -6    0.70    1.50
   4  10   6   -3.70    2.20
  -4 -10  -6   -0.20    1.70
  -5   5  -6   11.80    2.10
  -5   4  -6    0.90    1.40
   5  -3   6    1.20    2.50
  -5   3  -6    5.00    1.50
   5  -2   6   94.39   18.10
   5  -2   6  152.58    6.40
  -5   2  -6  134.69    7.60
  -5   2  -6  144.99    4.70
   5  -1   6   50.49   10.80
   5  -1   6   55.59    3.60
   5  -1   6   54.09    9.80
  -5   1  -6   55.29    2.30
  -5   1  -6   55.79    3.00
   5   0   6    4.80    1.80
   5   0   6    4.30    1.00
  -5   0  -6    4.70    0.70
  -5   0  -6    4.90    1.00
   5   1   6    2.50    0.80
   5   1   6    1.30    0.60
   5   1   6    3.20    1.50
  -5  -1  -6    2.00    0.90
  -5  -1  -6    2.60    0.70
  -5  -1  -6    1.70    0.60
   5   2   6    2.70    1.40
   5   2   6    3.30    0.80
   5   2   6    1.50    0.60
  -5  -2  -6    2.70    0.60
  -5  -2  -6    2.40    0.80
  -5  -2  -6    3.40    0.90
   5   3   6   86.69    3.70
   5   3   6   91.09    3.30
  -5  -3  -6   87.59    3.90
  -5  -3  -6   88.89    8.70
  -5  -3  -6   94.79    8.40
   5   4   6    0.50    0.70
  -5  -4  -6   -0.60    0.70
  -5  -4  -6   -9.00    7.40
  -5  -4  -6  -11.70    8.80
  -5  -4  -6    0.20    0.80
   5   5   6    6.90    0.90
   5   5   6    7.30    1.30
  -5  -5  -6  -15.70    9.90
  -5  -5  -6    5.10   11.90
  -5  -5  -6    7.50    1.20
  -5  -5  -6    6.90    1.10
   5   6   6    2.50    1.10
  -5  -6  -6   -2.90   12.60
  -5  -6  -6   -9.30   16.40
   5   7   6   -0.50    0.60
   5   7   6    1.40    1.10
  -5  -7  -6    0.90    1.00
   5   8   6    1.00    1.40
  -5  -8  -6    2.80    1.30
   5   9   6    0.30    1.70
  -5  -9  -6   -1.80    1.40
   5  10   6    0.80    1.70
  -5 -10  -6    0.90    1.80
  -6   4  -6   -0.40    2.00
  -6   3  -6    0.40    1.50
  -6   2  -6   -0.10    1.30
  -6   2  -6    0.10    0.80
   6  -1   6   11.60    1.70
   6  -1   6   -4.80   11.10
   6  -1   6    9.50    2.30
  -6   1  -6    9.50    1.60
  -6   1  -6    8.50    1.10
  -6   1  -6    8.20    1.40
   6   0   6   49.10    3.10
   6   0   6   47.00    2.70
  -6   0  -6   49.50    2.80
  -6   0  -6   50.09    2.40
  -6   0  -6   45.90    2.60
   6   1   6    0.40    0.80
   6   1   6    1.80    1.50
  -6  -1  -6    0.20    0.70
  -6  -1  -6    0.90    0.80
  -6  -1  -6    0.20    0.80
   6   2   6   36.70    2.30
   6   2   6   35.70    2.20
  -6  -2  -6   33.70    2.10
  -6  -2  -6   37.90    2.20
  -6  -2  -6   35.10    2.20
   6   3   6    1.60    0.70
   6   3   6    2.00    0.90
  -6  -3  -6    1.40    0.80
  -6  -3  -6    1.40    0.80
  -6  -4  -6   -5.60    8.50
  -6  -4  -6  -17.50    8.70
   6   5   6    9.90    1.20
   6   5   6    9.70    1.50
  -6  -5  -6   13.00   12.00
  -6  -5  -6   33.60   12.80
  -6  -5  -6   10.40    1.50
   6   6   6    4.80    1.10
  -6  -6  -6    5.00    1.20
  -6  -6  -6    9.50   13.60
   6   7   6   -0.20    0.80
   6   7   6   -0.70    1.20
   6   8   6    0.90    1.30
  -6  -8  -6    2.50    1.30
   6   9   6    0.00    1.80
  -6  -9  -6    1.70    1.40
   6  10   6    2.00    2.20
  -6 -10  -6   -0.80    1.70
  -7   3  -6   -1.60    2.10
  -7   2  -6   -0.10    1.50
  -7   2  -6    2.90    1.20
   7  -1   6    4.60    1.30
  -7   1  -6    6.60    1.00
  -7   1  -6    4.20    1.60
   7   0   6    0.60    1.00
  -7   0  -6    2.30    0.80
  -7   0  -6    2.10    1.20
   7   1   6    7.20    1.40
  -7  -1  -6    9.20    1.60
  -7  -1  -6    8.10    1.30
  -7  -1  -6    7.30    1.10
   7   2   6   25.40    1.90
  -7  -2  -6   22.60    2.00
  -7  -2  -6   23.20    1.90
  -7  -2  -6   24.10    1.70
   7   3   6  228.08    7.80
   7   3   6  227.28    7.50
  -7  -3  -6  224.08    7.40
  -7  -3  -6  221.78    7.60
   7   4   6   33.00    2.10
   7   4   6   31.90    2.30
  -7  -4  -6   25.20   10.90
  -7  -4  -6   32.40    2.00
  -7  -4  -6   32.10    2.20
  -7  -5  -6  -14.90   13.80
  -7  -5  -6    4.50    1.20
   7   6   6    2.30    1.10
   7   6   6    0.80    0.90
  -7  -6  -6    2.10    0.90
  -7  -6  -6   -0.30    1.30
   7   7   6   -1.40    0.90
   7   7   6   -0.30    1.30
  -7  -7  -6   -1.20    1.10
   7   8   6    8.60    1.40
   7   8   6    7.60    1.70
  -7  -8  -6    9.70    2.00
   7   9   6    1.20    1.70
  -7  -9  -6   -2.00    1.50
   7  10   6    0.60    1.90
  -7 -10  -6   -0.30    2.00
   8  -1   6    2.70    1.40
  -8   1  -6    3.80    1.20
  -8   1  -6    5.20    2.00
   8   0   6    2.20    1.30
  -8   0  -6    5.80    1.00
  -8   0  -6    4.40    1.70
   8   1   6    6.90    1.50
  -8  -1  -6   10.70    1.50
  -8  -1  -6    7.60    1.60
   8   2   6    3.40    1.10
  -8  -2  -6    3.20    1.10
  -8  -2  -6    3.70    1.40
   8   3   6  178.78    6.60
  -8  -3  -6  178.18    6.50
  -8  -3  -6  176.28    6.00
   8   4   6   97.89    4.20
   8   4   6  100.89    4.50
   8   4   6   66.09   12.10
  -8  -4  -6   72.09   15.40
  -8  -4  -6   95.19    3.80
  -8  -4  -6   94.19    4.30
   8   5   6    8.80    1.30
   8   5   6   11.80    1.90
  -8  -5  -6   13.30    2.10
  -8  -5  -6    7.90    1.30
   8   6   6    1.20    1.10
   8   6   6    4.50    1.50
  -8  -6  -6    3.20    1.00
  -8  -6  -6    1.60    1.10
   8   7   6    2.30    1.60
   8   7   6    2.30    1.20
  -8  -7  -6    2.40    1.20
  -8  -7  -6    3.50    1.10
   8   8   6    0.60    1.30
   8   8   6   -1.60    1.50
  -8  -8  -6   -0.60    1.20
  -8  -8  -6    3.10    1.60
   8   9   6   -4.20    2.00
  -8  -9  -6   -1.20    1.60
  -8  -9  -6   -0.30    1.60
   9   0   6    1.80    1.80
  -9   0  -6    2.60    1.40
  -9   0  -6    3.30    1.90
   9   1   6    0.20    1.50
  -9  -1  -6   -0.20    1.10
  -9  -1  -6   -1.00    1.50
   9   2   6    2.50    1.50
  -9  -2  -6    4.20    1.50
  -9  -2  -6    3.30    1.50
   9   3   6    5.60    1.40
  -9  -3  -6    1.40    1.30
   9   4   6    0.70    1.20
  -9  -4  -6    2.20    1.30
   9   5   6    2.30    1.30
  -9  -5  -6    1.20    0.90
  -9  -5  -6    3.70    1.50
   9   6   6    2.90    1.40
   9   6   6    3.80    1.70
  -9  -6  -6    1.20    1.20
  -9  -6  -6    2.60    1.60
   9   7   6   -0.20    1.40
   9   7   6   -2.10    1.60
  -9  -7  -6   -1.20    1.20
  -9  -7  -6    0.10    1.40
   9   8   6    1.00    2.10
   9   8   6    3.80    1.70
  -9  -8  -6    2.80    1.60
  -9  -8  -6    2.70    1.30
   9   9   6   -1.20    2.30
  -9  -9  -6    1.30    1.80
  -9  -9  -6    0.90    1.50
  10   2   6    2.00    1.70
 -10  -2  -6    2.40    2.10
 -10  -2  -6    2.30    1.40
  10   3   6    0.80    1.80
 -10  -3  -6   -1.20    1.70
  10   4   6    1.30    1.70
 -10  -4  -6    2.00    1.60
  10   5   6    0.10    1.70
 -10  -5  -6   -0.80    1.60
  10   6   6   -1.00    1.60
 -10  -6  -6    0.90    1.80
  10   7   6    1.60    1.80
 -10  -7  -6    1.00    1.60
   5   4  -7   17.10    2.60
  -5  -3   7   -2.70    2.60
   5   3  -7    2.10    1.30
  -5  -2   7    4.70    1.60
  -5  -2   7    0.70    2.30
   5   2  -7    6.30    1.30
  -5  -1   7    1.30    1.50
   5   1  -7    0.50    1.40
  -5   0   7   -2.30    1.60
   5   0  -7    0.90    1.40
  -5   1   7    3.50    1.80
  -4  -5   7    1.50    2.60
   4   5  -7    2.30    1.60
  -4  -3   7   -2.60    2.20
   4   3  -7    4.40    1.20
  -4  -2   7   -0.70    1.10
   4   2  -7    0.70    1.00
  -4  -1   7    0.20    1.70
  -4  -1   7    4.30    1.30
   4   1  -7    3.40    1.00
  -4   0   7    4.40    1.40
   4   0  -7    4.50    1.90
   4   0  -7    6.40    1.10
  -4   1   7    8.90    1.70
   4  -1  -7    7.60    1.10
  -4   2   7   -0.60    1.40
  -4   3   7   -0.90    2.00
  -3  -6   7   -0.90    3.60
   3   6  -7    2.40    1.80
  -3  -5   7   -2.70    3.00
   3   5  -7   -0.50    1.60
  -3  -4   7   -1.40    2.50
   3   4  -7    2.60    1.30
  -3  -3   7    0.90    2.20
   3   3  -7    0.90    1.00
  -3  -2   7  -28.50   29.90
  -3  -2   7    0.20    0.90
  -3  -2   7   -1.50    2.10
   3   2  -7    0.60    0.80
   3   2  -7  -11.80   31.00
  -3  -1   7    2.70   30.20
  -3  -1   7   21.00    1.90
   3   1  -7   26.60   33.80
   3   1  -7   19.30    1.70
  -3   0   7   39.00   30.80
  -3   0   7   11.30    1.60
   3   0  -7    7.30    0.90
   3   0  -7  -10.10   26.30
  -3   1   7   72.49    4.10
  -3   1   7    3.00   32.60
   3  -1  -7   82.89   37.40
   3  -1  -7   78.59    3.20
   3  -1  -7   77.49    4.20
  -3   2   7   36.60   27.40
   3  -2  -7   49.20   43.10
  -3   3   7    1.00    1.60
  -3   4   7   -0.70    1.60
  -2  -6   7   -1.90    3.20
   2   6  -7    1.00    1.70
  -2  -5   7    3.00    2.90
   2   5  -7    5.40    1.50
  -2  -4   7    5.90    2.90
   2   4  -7    9.30    1.60
   2   3  -7    0.90    1.10
  -2  -2   7  -33.00   25.40
   2   2  -7   28.10   23.80
  -2  -1   7    1.00    1.70
  -2  -1   7  -14.30   23.70
  -2  -1   7    2.30    0.90
   2   1  -7   -6.20   23.70
   2   1  -7    1.90    0.80
  -2   0   7   40.60    2.30
  -2   0   7    5.70   24.50
   2   0  -7   54.69   25.90
   2   0  -7   40.60    2.10
  -2   1   7  286.47   43.30
  -2   1   7  340.37   10.60
   2  -1  -7  338.17   11.40
   2  -1  -7  317.37   47.80
   2  -1  -7  338.47   10.00
  -2   2   7   26.80    2.30
  -2   2   7    7.10   26.10
   2  -2  -7   27.90   30.00
   2  -2  -7   24.60    1.50
   2  -2  -7   27.80    2.50
  -2   3   7    7.30    1.50
  -2   3   7    4.50   30.40
   2  -3  -7   11.30    2.10
   2  -3  -7    8.90   34.20
  -2   4   7  -47.90   55.19
  -2   4   7    0.10    1.20
   2  -4  -7    0.60    1.30
  -2   5   7    1.00    1.70
  -2   6   7    4.00    2.40
  -1  -6   7    4.50    3.50
   1   6  -7    2.50    1.90
  -1  -5   7   -2.80    2.20
   1   5  -7    1.40    1.40
  -1  -4   7   18.90    3.40
   1   4  -7   15.80    2.20
  -1  -3   7    0.80    2.20
   1   3  -7    0.10    0.90
  -1  -2   7   61.19   22.60
   1   2  -7  -13.20   19.60
  -1  -1   7  -15.20   23.10
  -1  -1   7    1.70    0.70
  -1  -1   7   -0.60    1.30
   1   1  -7    1.60    0.60
   1   1  -7    3.30   19.50
  -1   0   7   -0.90    1.40
  -1   0   7    0.50    0.70
  -1   0   7  -18.70   20.50
   1   0  -7  -32.90   19.10
   1   0  -7    1.10    0.50
  -1   1   7   -0.10    1.50
  -1   1   7   -0.90   20.30
  -1   1   7    1.00    0.80
   1  -1  -7    0.80    0.50
   1  -1  -7   -7.40   20.10
  -1   2   7   17.40    1.80
  -1   2   7   21.00   20.90
   1  -2  -7   26.50   25.30
   1  -2  -7   17.80    1.20
   1  -2  -7   18.40    2.10
  -1   3   7    3.10    1.00
  -1   3   7  -29.40   23.10
   1  -3  -7    1.00    1.20
   1  -3  -7  -10.50   26.60
  -1   4   7  -32.90   26.40
  -1   4   7    0.50    1.20
   1  -4  -7    0.70    1.10
   1  -4  -7    4.50   32.30
  -1   5   7   -0.30    1.30
   1  -5  -7    0.20    1.20
  -1   6   7    0.50    1.70
  -1   7   7   -1.90    2.20
   0  -6   7   26.80    4.80
   0   6  -7   17.90    2.80
   0  -5   7   -0.80    2.60
   0   5  -7    3.30    1.30
   0  -4   7   18.90    3.60
   0   4  -7   15.30    2.20
   0  -3   7   48.40    4.10
   0   3  -7   45.20    2.80
   0  -2   7  -16.80   17.50
   0  -2   7    0.30    1.50
   0  -2   7   -0.30    0.40
   0   2  -7    8.00   14.40
   0   2  -7    0.70    0.80
   0  -1   7   20.30   16.10
   0  -1   7   -0.10    1.50
   0  -1   7    2.40    0.60
   0   1  -7    1.50    0.50
   0   1  -7   -7.20   15.60
   0   1  -7    1.10    0.70
   0   0   7    4.50   15.60
   0   0   7   28.00    1.70
   0   0  -7   40.60   17.20
   0   0  -7   27.60    1.50
   0   1   7   45.20   18.50
   0   1   7   42.20    2.30
   0  -1  -7   20.50   17.10
   0  -1  -7   40.50    1.80
   0   2   7   68.09   21.10
   0   2   7   47.10    2.60
   0  -2  -7   45.80    1.80
   0  -2  -7   57.19   21.30
   0  -2  -7   43.00    3.00
   0   3   7    1.50    1.00
   0   3   7   -0.30    1.50
   0   3   7    2.20   18.90
   0  -3  -7    1.10    1.10
   0  -3  -7   -7.10   21.20
   0   4   7    6.10    1.40
   0   4   7    4.10   20.90
   0  -4  -7   14.00   24.30
   0  -4  -7    6.50    1.40
   0   5   7   -8.60   25.00
   0   5   7   -0.20    1.10
   0  -5  -7    1.20    1.20
   0  -5  -7  -31.30   34.10
   0   6   7   25.00    2.90
   0  -6  -7   24.80    2.60
   0   7   7    8.60    2.10
   0  -7  -7    5.90    1.70
   1  -6   7    2.80    3.00
  -1   6  -7    5.50    1.90
   1  -5   7   13.30    3.40
  -1   5  -7    6.50    1.60
   1  -4   7    5.70    2.20
  -1   4  -7    2.80    1.20
   1  -3   7   22.50    3.30
  -1   3  -7   20.80    2.00
   1  -2   7  104.59    5.50
   1  -2   7  106.69   23.60
  -1   2  -7   88.59   18.60
  -1   2  -7  111.49    4.40
   1  -1   7   23.00   13.30
   1  -1   7   15.50    1.10
  -1   1  -7   14.90    1.40
  -1   1  -7   -7.20   13.30
  -1   1  -7   14.60    0.90
   1   0   7   -1.90   11.50
   1   0   7    4.50    1.70
   1   0   7    6.80    0.90
  -1   0  -7   -3.00   13.60
  -1   0  -7    7.60    1.00
  -1   0  -7    6.20    0.90
   1   1   7    3.80    0.70
   1   1   7    0.70    1.60
   1   1   7    4.80    0.90
   1   1   7    8.40   14.40
  -1  -1  -7    3.50    0.60
  -1  -1  -7   -6.60   13.50
   1   2   7    4.00    0.90
   1   2   7    3.60    0.50
   1   2   7  -13.10   14.50
  -1  -2  -7    3.30    1.20
  -1  -2  -7    3.50    0.50
  -1  -2  -7   12.50   15.60
  -1  -2  -7    5.10    0.70
   1   3   7   50.29   17.40
   1   3   7   48.80    2.70
   1   3   7   40.20    3.30
  -1  -3  -7   47.30    3.00
  -1  -3  -7   56.19   19.30
   1   4   7    5.70    1.10
   1   4   7   17.00   17.70
  -1  -4  -7    3.70   20.50
  -1  -4  -7    6.60    1.40
   1   5   7   10.80   20.60
   1   6   7   17.20    2.50
  -1  -6  -7   15.70    2.00
   1   7   7    3.00    1.60
  -1  -7  -7    3.30    1.40
   1   8   7    3.00    1.90
  -1  -8  -7    1.50    1.70
   2  -6   7   -3.70    3.60
  -2   6  -7    0.30    1.80
   2  -5   7    9.10    3.00
  -2   5  -7   13.10    2.10
   2  -4   7    0.10    2.30
  -2   4  -7   -1.50    1.10
   2  -3   7   26.10    3.20
  -2   3  -7   25.40    2.30
   2  -2   7  729.13   22.30
  -2   2  -7  736.13   20.80
  -2   2  -7  698.63   39.80
   2  -1   7  113.99    3.60
   2  -1   7   83.29   16.40
  -2   1  -7  129.09   18.90
  -2   1  -7  114.69    4.30
  -2   1  -7  115.39    3.50
  -2   1  -7  112.39    3.50
   2   0   7   10.90   10.60
   2   0   7   13.90    2.40
   2   0   7   18.20    1.30
  -2   0  -7    7.30    9.10
  -2   0  -7   17.00    1.20
  -2   0  -7   15.80    1.20
   2   1   7   -0.30    1.50
   2   1   7   16.60   10.40
   2   1   7    0.50    0.60
   2   1   7    0.10    0.60
  -2  -1  -7    0.20    0.60
  -2  -1  -7  -11.70    9.60
  -2  -1  -7    0.30    0.50
   2   2   7    3.60    0.80
   2   2   7    0.90   11.00
   2   2   7    2.90    1.50
  -2  -2  -7    2.20    1.10
  -2  -2  -7    2.90    0.50
  -2  -2  -7    2.90    0.50
  -2  -2  -7    3.40   11.40
   2   3   7   62.59   17.00
   2   3   7   54.89    3.60
   2   3   7   65.89    3.10
  -2  -3  -7   63.39   16.60
  -2  -3  -7   67.59    3.60
   2   4   7   -1.90   13.50
   2   4   7    2.40    0.90
  -2  -4  -7    4.50    1.20
  -2  -4  -7    4.80   16.80
  -2  -5  -7   37.80   21.00
  -2  -6  -7    1.80    1.10
   2   7   7    0.90    1.30
  -2  -7  -7    1.90    1.30
   2   8   7    1.20    1.70
  -2  -8  -7   -0.10    1.60
   2   9   7   -3.80    2.30
  -2  -9  -7    1.70    1.70
   3  -5   7   29.40    4.30
  -3   5  -7   24.70    2.80
   3  -4   7    5.30    2.70
  -3   4  -7    8.00    1.70
   3  -3   7    0.70    2.40
   3  -2   7  135.79    6.30
   3  -2   7  150.58   26.80
  -3   2  -7  129.99    5.10
  -3   2  -7  124.99    3.80
   3  -1   7  220.78    8.50
   3  -1   7  232.78   22.30
  -3   1  -7  207.78   18.70
  -3   1  -7  218.18    7.30
  -3   1  -7  218.58    6.50
  -3   1  -7  217.28    6.40
   3   0   7   -7.90    8.20
   3   0   7    1.90    0.60
   3   0   7   -1.80    1.70
  -3   0  -7   14.00    7.40
  -3   0  -7    0.50    0.60
  -3   0  -7    0.30    0.50
  -3   0  -7    1.60    0.80
   3   1   7    3.20    1.60
   3   1   7   -2.10    7.70
   3   1   7    1.80    0.60
  -3  -1  -7    0.50    0.50
  -3  -1  -7   10.40    7.50
   3   2   7    8.00    1.10
   3   2   7   18.20    8.80
   3   2   7    5.30    1.70
  -3  -2  -7    7.30    1.40
  -3  -2  -7    6.50    0.90
  -3  -2  -7    7.40    0.80
  -3  -2  -7   17.50    9.30
   3   3   7    2.50   10.10
   3   3   7   -0.30    1.10
  -3  -3  -7    0.60    1.00
  -3  -3  -7   15.60   11.00
   3   4   7   23.40    2.00
  -3  -4  -7   31.40   11.90
  -3  -4  -7   24.30    2.10
  -3  -4  -7   12.30   15.10
   3   5   7    9.30    1.50
  -3  -5  -7    8.50   11.80
  -3  -5  -7    8.40    1.40
  -3  -5  -7    2.90   18.80
   3   6   7   25.10    2.30
  -3  -6  -7   21.40    2.20
   3   7   7    1.00    1.40
  -3  -7  -7   -0.20    1.20
   3   8   7   14.30    2.30
  -3  -8  -7   16.80    2.40
   3   9   7    1.90    1.90
  -3  -9  -7    1.60    1.70
   4  -5   7   -1.70    4.00
  -4   5  -7    9.10    2.10
   4  -4   7    1.90    3.20
  -4   4  -7    2.20    1.40
   4  -3   7   12.60    2.80
  -4   3  -7    6.30    1.50
   4  -2   7    7.90   13.70
   4  -2   7   23.40    3.00
  -4   2  -7   16.00    1.00
  -4   2  -7   15.70    2.00
   4  -1   7   17.70    8.90
   4  -1   7   29.00   10.20
   4  -1   7   21.90    2.90
  -4   1  -7   19.70    1.80
  -4   1  -7   16.80    1.20
   4   0   7    0.50    1.80
   4   0   7    1.30    0.70
  -4   0  -7    1.50    0.50
  -4   0  -7    2.00    0.70
   4   1   7   16.40    1.50
   4   1   7   20.30    2.40
  -4  -1  -7   16.80    1.30
  -4  -1  -7   18.30    2.00
  -4  -1  -7   20.10    1.40
   4   2   7   -2.20    1.40
   4   2   7   -0.70    0.70
  -4  -2  -7   -1.30    3.40
  -4  -2  -7    0.60    0.50
  -4  -2  -7    1.60    0.90
  -4  -2  -7    2.80    3.50
   4   3   7   67.99    3.80
   4   3   7   68.19    3.20
  -4  -3  -7   62.89   12.20
  -4  -3  -7   67.09    3.60
  -4  -3  -7   58.29    9.50
  -4  -3  -7   65.09    2.50
  -4  -3  -7   67.09    2.40
   4   4   7   -1.10    0.80
  -4  -4  -7    0.50    0.40
  -4  -4  -7    0.10    8.40
  -4  -4  -7    0.30    0.90
  -4  -4  -7   16.20   12.50
  -4  -4  -7    0.60    0.40
  -4  -5  -7   -7.00   10.60
  -4  -5  -7    7.70   15.10
   4   6   7    5.10    1.30
  -4  -6  -7    6.40    1.50
   4   7   7   -0.60    1.10
  -4  -7  -7   -0.40    1.10
   4   8   7    9.50    1.80
   4   9   7    0.30    1.90
  -4  -9  -7    1.90    1.60
  -5   4  -7    1.10    1.80
   5  -3   7    6.80    3.10
  -5   3  -7    9.70    1.80
   5  -2   7   12.90   15.40
   5  -1   7    1.60    2.30
  -5   1  -7   -0.60    1.00
  -5   1  -7    1.20    0.60
   5   0   7   -0.20    1.80
  -5   0  -7    0.20    0.80
  -5   0  -7    0.00    0.60
   5   1   7    1.40    1.70
   5   1   7    2.70    0.80
   5   1   7    2.90    0.80
  -5  -1  -7    1.50    0.60
  -5  -1  -7    3.20    1.20
  -5  -1  -7    1.80    0.70
   5   2   7   13.10    1.20
   5   2   7   10.80    1.40
   5   2   7   14.10    2.10
  -5  -2  -7   11.50    1.30
  -5  -2  -7   11.60    1.20
  -5  -2  -7    9.70    1.70
   5   3   7   97.19    4.20
   5   3   7  105.79    3.70
  -5  -3  -7  100.79    3.60
  -5  -3  -7  102.89    4.60
   5   4   7   20.20    1.30
   5   4   7   19.20    1.80
  -5  -4  -7   20.60    1.30
  -5  -4  -7   18.40    1.80
  -5  -4  -7   13.30   11.10
   5   5   7   10.70    0.90
   5   5   7    8.00    1.30
  -5  -5  -7    5.90   11.50
  -5  -5  -7   10.30    1.50
  -5  -5  -7   10.50   13.60
  -5  -5  -7    9.20    0.90
   5   6   7    6.20    1.40
   5   6   7    4.60    0.70
  -5  -6  -7    4.50    1.40
   5   7   7   -0.20    1.30
  -5  -7  -7    0.30    1.20
   5   8   7    2.70    1.30
  -5  -8  -7    2.60    1.40
   5   9   7    2.00    1.50
  -5  -9  -7    4.10    1.70
  -6   3  -7    0.10    1.80
   6  -2   7    5.90    3.20
  -6   2  -7    3.20    1.60
  -6   1  -7    2.30    0.80
  -6   1  -7    1.40    1.30
   6   0   7   48.30    3.60
   6   0   7   50.49    2.90
  -6   0  -7   51.39    2.40
  -6   0  -7   49.80    2.90
  -6   0  -7   48.50    3.00
   6   1   7    5.40    1.00
   6   1   7    5.50    1.90
  -6  -1  -7    4.90    1.20
  -6  -1  -7    4.30    1.00
  -6  -1  -7    5.60    0.90
   6   2   7    1.70    0.90
   6   2   7    1.80    0.80
   6   2   7   -1.40    1.70
  -6  -2  -7    2.10    0.90
  -6  -2  -7    2.80    0.80
  -6  -2  -7    1.00    1.00
   6   3   7    0.10    0.80
   6   3   7    1.20    0.70
  -6  -3  -7    0.40    0.60
  -6  -3  -7    1.20    0.90
  -6  -3  -7    0.40    0.80
   6   4   7    6.10    1.20
  -6  -4  -7  -12.70    7.20
  -6  -4  -7    7.50    1.20
  -6  -4  -7    3.70    7.90
   6   5   7    0.10    0.60
   6   5   7   -0.80    0.80
  -6  -5  -7  -18.60   11.80
  -6  -5  -7   -1.20    1.00
   6   6   7    3.60    0.80
  -6  -6  -7    5.20    1.40
   6   7   7   -0.40    1.10
  -6  -7  -7    0.50    1.10
   6   8   7    9.50    2.00
  -6  -8  -7   12.30    2.20
   6   9   7   -1.00    1.80
  -6  -9  -7    2.50    1.70
  -6 -10  -7    0.00    1.90
  -7   2  -7    0.30    1.60
  -7   1  -7   -0.20    0.90
  -7   1  -7    2.30    1.60
   7   0   7    3.50    1.30
   7   0   7    0.10    2.30
  -7   0  -7    1.10    1.30
  -7   0  -7    0.70    1.20
  -7   0  -7   -0.50    0.90
   7   1   7    1.10    1.10
  -7  -1  -7    0.10    1.10
  -7  -1  -7    0.40    0.80
  -7  -1  -7    1.70    1.20
   7   2   7    3.20    1.00
  -7  -2  -7    3.90    1.00
  -7  -2  -7    4.60    1.20
   7   3   7   50.69    2.70
   7   3   7   49.60    2.90
  -7  -3  -7   52.39    2.80
  -7  -3  -7   52.39    2.80
  -7  -3  -7   50.19    2.60
   7   4   7    0.80    0.90
   7   4   7    1.50    1.20
  -7  -4  -7    0.70    1.00
  -7  -4  -7    0.20    0.90
   7   5   7   20.10    1.80
  -7  -5  -7   41.00   14.10
  -7  -5  -7   21.80    2.00
   7   6   7   -0.40    1.30
   7   6   7    1.20    0.90
  -7  -6  -7    0.60    1.10
  -7  -6  -7    1.30    1.10
   7   7   7    9.90    1.80
   7   7   7    6.20    1.30
  -7  -7  -7    9.50    1.80
   7   8   7   29.90    3.30
  -7  -8  -7   23.30    2.60
   7   9   7    2.30    1.70
  -7  -9  -7    1.10    1.70
   8  -1   7   -1.30    1.40
  -8   1  -7    0.80    2.00
  -8   1  -7    3.60    1.30
   8   0   7    0.30    1.50
  -8   0  -7    4.40    1.10
  -8   0  -7    8.70    2.10
   8   1   7    0.20    1.30
  -8  -1  -7    1.30    1.10
  -8  -1  -7   -0.60    1.40
   8   2   7   -0.30    1.00
  -8  -2  -7    1.30    1.00
  -8  -2  -7    0.00    1.20
  -8  -2  -7    0.30    1.10
   8   3   7    6.70    1.30
  -8  -3  -7    7.60    1.40
  -8  -3  -7    8.20    1.50
  -8  -3  -7    8.60    1.50
   8   4   7   -0.60    1.10
   8   4   7   -0.20    1.00
  -8  -4  -7    0.30    1.10
  -8  -4  -7    0.00    1.00
   8   5   7   45.10    3.20
   8   5   7   47.30    2.70
  -8  -5  -7   50.29    3.20
  -8  -5  -7   14.10   13.80
  -8  -5  -7   44.00    2.50
   8   6   7    4.80    1.20
   8   6   7    2.80    1.30
  -8  -6  -7    3.60    1.50
  -8  -6  -7    3.20    1.50
   8   7   7   -0.50    1.30
   8   7   7    0.20    1.20
  -8  -7  -7    0.00    1.30
  -8  -7  -7    1.20    1.10
   8   8   7    8.60    2.10
  -8  -8  -7    5.50    1.70
  -8  -8  -7    6.90    1.70
   8   9   7    3.60    1.90
  -8  -9  -7    0.30    2.00
  -8  -9  -7    3.00    2.10
   9   1   7    4.40    1.50
  -9  -1  -7    3.30    1.20
  -9  -1  -7    2.50    1.90
   9   2   7   -1.00    1.50
  -9  -2  -7   -0.90    1.10
  -9  -2  -7   -2.20    1.50
   9   3   7    0.80    1.30
  -9  -3  -7    2.20    1.30
  -9  -3  -7    1.80    1.40
   9   4   7    2.50    1.30
  -9  -4  -7    0.90    1.30
   9   5   7   24.00    2.80
   9   5   7   22.00    2.40
  -9  -5  -7   23.80    2.50
  -9  -5  -7   24.90    2.10
   9   6   7   -0.90    1.30
   9   6   7    2.50    1.60
  -9  -6  -7   -1.00    1.60
  -9  -6  -7    2.80    1.30
   9   7   7   -0.10    1.50
   9   7   7   -1.00    1.90
  -9  -7  -7    0.30    1.50
  -9  -7  -7   -1.20    1.30
   9   8   7   -2.10    1.70
  -9  -8  -7   -0.20    1.40
  -9  -8  -7    0.40    1.90
  10   3   7    2.80    1.80
 -10  -3  -7   -1.50    1.40
 -10  -3  -7    2.00    1.80
  10   4   7   -0.10    1.70
 -10  -4  -7    0.30    1.60
  10   5   7   -2.40    1.40
 -10  -5  -7    0.40    1.70
  10   6   7    3.00    1.70
 -10  -6  -7    0.10    1.80
  10   7   7   -0.80    2.10
  10   7   7   -3.20    1.80
 -10  -7  -7    0.00    1.80
  -4  -4   8   -0.10    2.90
   4   4  -8    2.40    1.40
  -4  -3   8    0.70    2.30
   4   3  -8    0.10    1.40
  -4  -2   8    2.60    2.60
   4   2  -8   10.20    1.40
  -4  -1   8   -0.20    2.40
  -4  -1   8    2.90    1.40
   4   1  -8    0.60    1.30
  -4   0   8   -0.30    1.50
  -4   1   8   -0.60    1.50
  -4   2   8    1.40    2.10
  -3  -5   8    1.90    3.80
   3   5  -8    7.90    2.10
  -3  -4   8    3.10    3.40
   3   4  -8    3.20    1.30
  -3  -3   8    0.40    2.20
   3   3  -8    1.60    1.10
  -3  -2   8   -1.30    2.40
   3   2  -8    0.90    1.00
  -3  -1   8    1.20    1.20
  -3  -1   8   -0.80    2.10
  -3   0   8    2.40    1.90
  -3   0   8    8.30    1.50
   3   0  -8    5.40    1.10
   3   0  -8    4.00    2.10
  -3   1   8    8.30    1.60
   3  -1  -8    9.80    2.30
  -3   2   8    0.20    1.40
   3  -2  -8   -1.50    2.10
  -3   3   8    3.20    1.70
  -2  -5   8    2.60    3.80
   2   5  -8    1.80    1.70
  -2  -4   8    2.90    3.20
   2   4  -8    1.90    1.30
  -2  -3   8    0.50    2.50
   2   3  -8    7.70    1.30
  -2  -2   8   -1.50    2.10
   2   2  -8   -1.10    0.90
  -2  -1   8    4.10    1.10
  -2  -1   8    0.30    3.00
   2   1  -8    4.90    1.00
  -2   0   8   -0.30    1.10
  -2   0   8    3.20    2.10
   2   0  -8    1.20    0.70
  -2   1   8    1.60    1.10
   2  -1  -8    1.30    0.70
   2  -1  -8    2.70    1.70
  -2   2   8    1.20    1.30
  -2   2   8   -2.00    1.60
   2  -2  -8    0.30    1.60
  -2   3   8   21.40    2.60
   2  -3  -8   18.20    2.80
  -2   4   8    1.80    1.60
   2  -4  -8    0.90    1.70
  -2   5   8    2.80    1.90
  -1  -6   8   -5.60    4.00
   1   6  -8    1.90    1.80
  -1  -5   8    2.50    3.00
  -1  -4   8    3.10    2.90
   1   4  -8    3.60    1.30
  -1  -3   8    3.30    2.40
  -1  -1   8   13.40    1.60
   1   1  -8   16.30    1.60
  -1   0   8    2.20    1.80
  -1   0   8    4.20    1.00
   1   0  -8    4.20    0.70
  -1   1   8    1.30    0.90
  -1   1   8   -7.90   29.10
  -1   1   8    1.70    1.80
   1  -1  -8    1.10    0.60
   1  -1  -8    2.30    1.60
  -1   2   8    1.00    1.10
  -1   2   8    0.80    1.80
   1  -2  -8    2.50    1.50
  -1   3   8   36.70    2.90
   1  -3  -8   40.90    3.00
  -1   4   8    2.20    1.40
   1  -4  -8    0.90    1.40
  -1   5   8   -0.70    1.40
   1  -5  -8    1.20    1.50
  -1   6   8    0.60    2.30
   1  -6  -8   -0.80    1.90
   0  -6   8   -0.80    3.70
   0   6  -8   -0.10    2.10
   0   5  -8   27.90    3.10
   0  -4   8    2.00    2.40
   0   4  -8    3.10    1.30
   0  -3   8   -0.40    2.20
   0   3  -8    2.10    1.10
   0   2  -8   29.30    2.00
   0   0   8   34.40   22.50
   0   0  -8   24.60   19.70
   0   1   8    0.90    1.70
   0   1   8  -13.70   24.30
   0  -1  -8    4.40    1.60
   0  -1  -8  -18.10   19.60
   0   2   8   14.30   21.60
   0   2   8    1.10    1.70
   0   2   8    2.10    1.00
   0  -2  -8    1.30    0.50
   0  -2  -8  -10.90   21.10
   0  -2  -8    1.70    1.30
   0   3   8    1.00    1.80
   0   3   8  -15.00   28.20
   0   4   8   -0.40    1.00
   0  -4  -8   -0.70    1.30
   0   5   8   -2.70    1.30
   0   6   8    1.00    1.50
   0  -6  -8    5.20    1.70
   0   7   8    4.20    2.00
   0  -7  -8    1.40    1.80
   1  -5   8   10.40    3.40
  -1   5  -8    6.80    1.80
   1  -4   8    2.50    2.80
  -1   4  -8   -0.20    1.20
   1  -3   8   -0.20    2.80
  -1   3  -8    1.40    1.40
   1  -2   8   11.60    3.00
  -1   2  -8   17.80    1.70
   1  -1   8   11.50    1.20
   1  -1   8    6.00    2.20
   1  -1   8   33.00   30.70
  -1   1  -8   10.70    1.30
   1   0   8    6.40   19.50
   1   0   8   -0.70    1.70
  -1   0  -8  -21.60   13.70
   1   1   8   33.30    2.00
   1   1   8   42.80   18.50
  -1  -1  -8   33.30    1.60
  -1  -1  -8   33.30   17.80
   1   2   8  -26.30   18.60
   1   2   8    1.20    1.80
  -1  -2  -8  -23.90   15.70
   1   3   8   43.30    2.70
   1   3   8   23.50   19.30
  -1  -3  -8   30.90   23.60
  -1  -3  -8   47.60    3.30
   1   4   8   10.20    1.60
  -1  -4  -8    7.30    1.80
   1   5   8    0.10    1.20
  -1  -5  -8    1.20    1.30
   1   6   8    3.80    1.60
  -1  -6  -8    2.50    1.60
   1   7   8    1.10    1.80
  -1  -7  -8   -0.10    1.60
  -1  -8  -8    2.70    2.00
   2  -5   8    2.10    3.70
  -2   5  -8    0.40    1.70
   2  -4   8   16.20    3.60
  -2   4  -8   12.30    2.00
   2  -3   8    9.50    2.90
  -2   3  -8    3.70    1.30
   2  -2   8    9.50    2.50
  -2   2  -8    5.00    1.00
   2  -1   8   24.90   23.80
   2  -1   8    4.20    1.80
   2  -1   8    3.10    0.60
  -2   1  -8    3.00    0.60
  -2   1  -8    3.30    0.80
   2   0   8   74.39    3.00
   2   0   8   30.40   16.30
  -2   0  -8   72.09    3.00
  -2   0  -8   69.69   15.70
   2   1   8   11.60   14.00
   2   1   8    8.20    1.10
  -2  -1  -8    9.30    1.00
  -2  -1  -8   16.90   14.10
   2   2   8    0.10   14.60
   2   2   8   14.70    1.60
  -2  -2  -8   32.70   15.10
  -2  -2  -8   11.50    1.10
  -2  -2  -8   14.00    1.00
  -2  -2  -8   13.50    2.00
   2   3   8   27.60   18.20
   2   3   8   76.99    3.50
  -2  -3  -8   54.79   19.30
  -2  -3  -8   78.79    4.20
   2   4   8  -10.40   18.90
   2   4   8    3.60    1.10
  -2  -4  -8  -19.80   21.00
   2   5   8   -1.20    1.00
  -2  -5  -8    2.00    1.30
   2   6   8   -1.10    1.20
  -2  -6  -8    0.80    1.40
   2   7   8    0.50    1.40
  -2  -7  -8    4.30    1.70
   2   8   8   -2.10    1.60
  -2  -8  -8    2.40    1.60
   3  -5   8    3.60    4.20
  -3   5  -8    4.30    1.80
   3  -4   8    4.60    3.30
  -3   4  -8    0.50    1.40
   3  -3   8    0.60    3.00
  -3   3  -8    3.70    1.10
   3  -2   8    5.60    2.60
  -3   2  -8    4.60    1.30
   3  -1   8    1.90    2.20
  -3   1  -8    0.70    0.80
  -3   1  -8    1.80    0.50
   3   0   8  118.29    4.00
   3   0   8  108.89    5.80
  -3   0  -8  108.29   17.50
  -3   0  -8  119.39    3.90
  -3   0  -8  113.89    4.30
   3   1   8   19.90   10.80
   3   1   8    0.40    1.80
   3   1   8    1.30    0.70
  -3  -1  -8    1.30   10.10
  -3  -1  -8   -0.20    0.50
  -3  -1  -8    2.20    1.30
   3   2   8   12.10    1.50
   3   2   8   11.40    2.20
   3   2   8    5.80   11.00
  -3  -2  -8   12.90    2.00
  -3  -2  -8   10.50    1.10
  -3  -2  -8    9.50    1.00
  -3  -2  -8    6.40   12.40
   3   3   8   -0.90   12.50
   3   3   8   -2.40    1.50
   3   3   8    1.10    0.80
  -3  -3  -8  -13.60   13.00
  -3  -3  -8    0.40    0.40
  -3  -3  -8    0.00    1.00
  -3  -3  -8    0.30    0.40
  -3  -4  -8  -14.60   14.50
   3   5   8    2.30    1.10
  -3  -5  -8    1.90    1.30
   3   6   8   -1.40    1.20
  -3  -6  -8    0.30    1.20
   3   7   8    2.50    1.50
  -3  -7  -8   -0.70    1.40
   3   8   8    4.10    1.80
  -3  -8  -8    9.20    2.10
   3   9   8    0.30    2.60
  -3  -9  -8    1.50    2.10
   4  -4   8    2.20    3.70
  -4   4  -8    5.30    1.90
   4  -3   8    2.30    3.10
  -4   3  -8    0.40    1.30
   4  -2   8   37.10    3.90
  -4   2  -8   30.20    2.60
   4  -1   8    3.50   10.00
   4  -1   8   -2.80    2.20
  -4   1  -8    0.80    0.90
   4   0   8    9.40    2.50
   4   0   8    9.80    5.90
   4   0   8    6.20    0.90
  -4   0  -8    7.00    1.00
  -4   0  -8    6.00    0.90
   4   1   8    1.10    0.70
   4   1   8    5.30    1.70
  -4  -1  -8    2.50    0.60
  -4  -1  -8    2.20    0.60
  -4  -1  -8    3.20    1.40
   4   2   8   -0.10    1.50
   4   2   8   -1.50    0.70
  -4  -2  -8    0.40    0.50
  -4  -2  -8   -4.00    5.90
  -4  -2  -8    5.00    6.60
  -4  -2  -8   -0.40    1.20
   4   3   8    3.70    1.70
   4   3   8    2.70    0.90
  -4  -3  -8    3.90    1.30
  -4  -3  -8    0.30   10.90
  -4  -3  -8    2.70    0.70
  -4  -3  -8    4.50    0.60
  -4  -3  -8   -5.70    8.00
   4   4   8    3.20    1.10
  -4  -4  -8   12.00   10.90
  -4  -4  -8   -2.30   14.60
  -4  -4  -8    3.80    0.50
  -4  -4  -8    6.50    1.60
   4   5   8    3.10    1.10
  -4  -5  -8   -7.70   12.40
  -4  -5  -8    1.80    1.50
   4   6   8    2.60    1.30
  -4  -6  -8    0.70    1.20
   4   7   8    3.10    1.60
  -4  -7  -8    1.60    1.20
   4   8   8   69.89    4.70
  -4  -8  -8   66.19    3.90
   4   9   8    4.40    2.20
  -4  -9  -8    7.50    2.10
  -5   4  -8    1.90    2.20
   5  -3   8   -1.20    3.70
  -5   3  -8   -0.40    1.70
   5  -2   8    3.80    3.10
  -5   2  -8    1.30    1.20
   5  -1   8    3.80    2.30
  -5   1  -8    1.60    0.70
   5   0   8   46.90    3.70
  -5   0  -8   44.60    2.60
  -5   0  -8   41.50    2.00
   5   1   8    9.20    2.20
   5   1   8    5.20    1.00
  -5  -1  -8    5.70    1.70
  -5  -1  -8    5.90    0.80
  -5  -1  -8    4.90    0.90
   5   2   8    5.40    2.00
   5   2   8    3.30    0.90
  -5  -2  -8    4.50    1.40
  -5  -2  -8    3.20    0.70
  -5  -2  -8    5.50    0.90
   5   3   8   33.30    3.20
   5   3   8   35.00    2.40
  -5  -3  -8   35.00    1.70
  -5  -3  -8   35.30    2.80
   5   4   8   14.60    1.70
  -5  -4  -8    9.80   12.00
  -5  -4  -8   16.50    1.30
  -5  -4  -8   19.90    2.10
  -5  -4  -8   14.80    9.30
   5   5   8   24.80    2.30
  -5  -5  -8   12.70   12.80
  -5  -5  -8   30.10    2.70
   5   6   8    5.60    1.30
  -5  -6  -8    6.50    1.50
   5   7   8    1.90    1.30
  -5  -7  -8    0.90    1.40
   5   8   8   28.50    3.40
  -5  -8  -8   28.10    2.70
   5   9   8    5.10    2.40
  -5  -9  -8   11.80    2.40
  -6   3  -8   16.50    2.70
   6  -2   8   -2.00    3.50
  -6   2  -8    1.80    1.60
   6  -1   8   15.60    3.30
  -6   1  -8   11.60    1.90
   6   0   8   94.19    5.20
  -6   0  -8   89.89    5.80
  -6   0  -8   87.09    3.50
  -6   0  -8   89.79    4.50
   6   1   8   19.70    3.10
  -6  -1  -8   19.50    1.50
  -6  -1  -8   21.20    1.80
  -6  -1  -8   20.50    2.00
   6   2   8   -1.10    0.80
   6   2   8    1.20    1.00
   6   2   8   -0.60    1.90
  -6  -2  -8   -0.90    0.80
  -6  -2  -8    0.80    0.70
  -6  -2  -8    1.60    1.10
   6   3   8   -0.90    0.70
   6   3   8   -0.20    0.80
  -6  -3  -8    0.80    0.70
  -6  -3  -8    2.10    0.90
  -6  -3  -8   -0.30    1.20
   6   4   8    2.20    0.70
   6   4   8    2.90    1.20
  -6  -4  -8    2.60    0.60
  -6  -4  -8    2.00    1.20
   6   5   8    9.90    1.60
   6   5   8    8.70    1.20
  -6  -5  -8   11.40    1.90
  -6  -5  -8    1.90   11.90
  -6  -5  -8    9.10    1.10
   6   6   8   -0.50    1.30
  -6  -6  -8    2.20    1.30
   6   7   8   -1.20    1.40
  -6  -7  -8    1.80    1.50
   6   8   8   -0.40    1.70
  -6  -8  -8    2.20    1.60
   6   9   8    0.60    1.90
  -6  -9  -8   -0.10    1.90
  -7   2  -8   -0.70    2.00
  -7   1  -8    4.80    1.80
   7   0   8    1.80    3.00
  -7   0  -8    1.80    1.60
  -7   0  -8    1.10    1.00
  -7   0  -8    2.20    1.50
   7   1   8   17.50    3.00
   7   1   8   13.50    2.00
  -7  -1  -8   13.80    1.50
  -7  -1  -8   15.00    2.00
  -7  -1  -8   13.00    1.80
   7   2   8   10.50    1.60
  -7  -2  -8    8.80    1.20
  -7  -2  -8   10.40    1.50
  -7  -2  -8    8.10    1.40
   7   3   8    0.50    0.90
   7   3   8    0.20    1.10
  -7  -3  -8    1.00    0.80
  -7  -3  -8    0.10    1.20
  -7  -3  -8   -0.80    1.10
   7   4   8    3.20    0.90
  -7  -4  -8    4.60    0.80
  -7  -4  -8    2.90    1.80
  -7  -4  -8    4.90    1.40
   7   5   8    0.80    1.00
   7   5   8    0.20    0.90
  -7  -5  -8    1.60    1.20
  -7  -5  -8  -13.50   10.20
  -7  -5  -8   -0.90    1.20
  -7  -5  -8    1.50    0.80
   7   6   8   -0.60    1.30
  -7  -6  -8   -1.00    1.30
   7   7   8    1.60    1.40
  -7  -7  -8    4.40    1.70
   7   8   8   -2.40    1.80
  -7  -8  -8    2.40    1.70
   7   9   8    0.30    2.00
  -7  -9  -8   -0.30    1.70
  -8   0  -8    0.60    1.20
  -8   0  -8    1.10    1.80
   8   1   8    5.30    1.40
  -8  -1  -8    6.20    1.50
  -8  -1  -8    2.60    1.10
   8   2   8   -0.50    1.20
  -8  -2  -8    1.30    1.20
  -8  -2  -8    2.20    1.30
  -8  -2  -8   -0.40    1.00
  -8  -3  -8    1.90    1.20
  -8  -3  -8    2.00    1.20
   8   4   8    3.30    1.40
   8   4   8    4.10    1.20
  -8  -4  -8    2.00    1.10
  -8  -4  -8    3.00    1.20
  -8  -4  -8    1.60    1.30
   8   5   8   85.99    4.00
   8   5   8   91.29    4.80
  -8  -5  -8   89.09    4.40
  -8  -5  -8   97.59    5.10
   8   6   8    8.10    1.30
   8   6   8    8.90    1.80
  -8  -6  -8    6.90    1.40
  -8  -6  -8    8.40    1.70
   8   7   8   -1.50    1.60
  -8  -7  -8    0.30    1.60
  -8  -7  -8   -1.40    1.30
   8   8   8    2.90    1.70
  -8  -8  -8    1.20    1.80
  -8  -8  -8   -0.10    1.70
   8   9   8   -4.20    2.40
  -8  -9  -8    0.70    1.90
   9   1   8    4.40    1.70
  -9  -1  -8    2.80    2.00
  -9  -1  -8    2.00    1.40
   9   2   8    8.40    1.80
  -9  -2  -8   10.30    1.40
  -9  -2  -8    8.70    1.80
   9   3   8    2.90    1.40
  -9  -3  -8   -2.00    1.30
  -9  -3  -8   -0.70    1.30
   9   4   8    0.80    1.30
  -9  -4  -8   -2.90    1.40
  -9  -4  -8   -1.40    1.30
   9   5   8   56.49    4.10
   9   5   8   55.49    3.40
  -9  -5  -8   62.89    3.90
   9   6   8   28.30    3.50
  -9  -6  -8   32.90    3.00
  -9  -6  -8   35.60    2.40
   9   7   8    3.60    1.80
  -9  -7  -8    4.50    1.50
  -9  -7  -8    0.60    1.90
  -9  -8  -8    3.60    1.60
  -9  -8  -8    1.50    2.00
  10   4   8   -0.30    1.70
 -10  -4  -8    3.50    1.70
 -10  -4  -8    2.70    1.70
  10   5   8   -1.10    1.80
 -10  -5  -8    0.20    1.90
  10   6   8    5.30    1.80
 -10  -6  -8    4.70    1.90
  -3  -3   9   -4.50    3.30
   3   3  -9    0.40    1.40
  -3  -2   9   -0.50    2.30
   3   1  -9    3.10    1.50
  -3   0   9    3.00    2.40
  -3   0   9    1.20    1.50
   3   0  -9    0.00    2.50
  -3   1   9   -2.50    1.60
  -3   1   9    2.60    2.30
   3  -1  -9    0.10    2.40
  -3   2   9    1.40    1.60
  -2  -4   9    3.60    3.50
   2   4  -9    0.40    1.40
  -2  -3   9   -0.80    2.80
   2   3  -9    0.40    1.30
  -2  -2   9    2.50    2.50
   2   2  -9    0.90    1.20
  -2  -1   9   -1.80    2.50
   2   1  -9   -1.00    1.10
  -2   0   9    0.90    1.90
  -2   0   9   -0.10    1.20
  -2   1   9    1.10    2.10
  -2   1   9    4.00    1.30
   2  -1  -9    2.10    2.10
  -2   2   9   -3.60    2.10
  -2   2   9    1.80    1.50
   2  -2  -9    1.40    2.10
  -2   3   9   25.40    3.00
   2  -3  -9   39.60    3.70
  -2   4   9    0.80    1.80
  -1  -4   9   -5.00    4.00
   1   4  -9    1.70    1.40
  -1  -3   9    1.50    2.60
   1   3  -9    0.30    1.20
  -1  -1   9   -1.00    2.70
   1   1  -9   -0.10    0.90
  -1   1   9    3.00    1.30
  -1   1   9    1.30    1.70
   1  -1  -9    4.60    2.00
  -1   2   9   16.70    2.30
   1  -2  -9   17.80    2.90
  -1   3   9   79.09    4.40
   1  -3  -9   74.49    4.60
  -1   4   9   15.00    2.40
   1  -4  -9   14.70    2.60
  -1   5   9    1.70    2.10
   1  -5  -9    0.30    2.00
   0  -5   9    5.80    4.20
   0   5  -9    3.30    2.10
   0  -4   9   -3.60    3.00
   0   4  -9    3.50    1.30
   0  -3   9   -1.80    3.10
   0   3  -9   -1.50    1.20
   0  -2   9   -1.70    2.40
   0   2  -9    1.70    1.10
   0  -1   9   -1.30    2.00
   0   1  -9    0.40    0.80
   0   0   9   18.20    1.90
   0   0  -9   18.70    1.50
   0   1   9    2.60    3.20
   0   1   9    3.80    1.10
   0  -1  -9    3.20    0.70
   0  -1  -9    3.90    2.20
   0   2   9    1.30    1.00
   0   3   9   10.30    2.00
   0  -3  -9   14.30    2.40
   0   4   9    3.50    1.60
   0  -4  -9    5.90    1.90
   0   5   9    0.30    1.50
   0  -5  -9   -2.30    1.70
   0   6   9    0.70    1.90
   0  -6  -9    1.20    1.90
   1  -5   9   24.10    5.60
  -1   5  -9   16.50    2.60
   1  -4   9   19.90    4.80
  -1   4  -9   13.70    2.10
   1  -3   9    1.60    3.30
  -1   3  -9   -1.40    1.30
   1  -2   9    4.00    3.00
  -1   2  -9    1.50    1.00
   1  -1   9   24.70    4.00
  -1   1  -9   25.00    1.90
   1   0   9    0.80    2.20
   1   0   9    2.90    1.00
  -1   0  -9    2.20    0.70
   1   1   9   -1.00    1.80
   1   1   9    3.30    1.00
  -1  -1  -9    3.90    1.90
  -1  -1  -9    2.80    0.70
   1   2   9   11.80    1.60
   1   2   9    6.20    2.40
  -1  -2  -9   10.10    2.20
   1   3   9   15.70    2.00
   1   4   9    1.90    1.20
  -1  -4  -9    0.80    1.60
   1   5   9    3.00    1.50
  -1  -5  -9    2.30    1.80
   1   6   9    1.50    1.80
  -1  -6  -9   -1.10    1.60
   1   7   9   -3.00    2.00
  -1  -7  -9    4.00    2.00
   2  -4   9   18.10    4.10
  -2   4  -9   11.20    2.00
   2  -3   9   14.60    4.00
  -2   3  -9   11.90    1.80
   2  -2   9   -0.20    2.40
  -2   2  -9    0.50    1.00
   2  -1   9    7.00    3.10
  -2   1  -9   11.50    1.30
   2   0   9   65.99    2.90
  -2   0  -9   67.69    2.90
   2   1   9   -0.30    2.20
   2   1   9    2.00    0.90
  -2  -1  -9   -0.20    0.60
  -2  -1  -9    0.30    1.40
   2   2   9    2.20    2.10
   2   2   9    3.70    1.10
  -2  -2  -9    1.80    1.50
  -2  -2  -9    2.30    0.60
   2   3   9    1.90    1.10
   2   3   9   -2.70    2.00
  -2  -3  -9    1.80    1.50
   2   4   9    1.10    1.20
  -2  -4  -9    2.10    1.60
   2   5   9    5.70    1.70
  -2  -5  -9    5.80    1.90
   2   6   9   -2.20    1.50
  -2  -6  -9   -0.40    1.60
   2   7   9   -2.70    1.60
  -2  -7  -9   -0.70    1.80
   3  -4   9    2.70    4.10
  -3   4  -9   -1.80    1.60
   3  -3   9   10.60    3.90
  -3   3  -9    8.60    1.70
   3  -2   9   13.90    3.40
  -3   2  -9    5.70    1.20
   3  -1   9    5.20    2.80
  -3   1  -9    5.30    1.00
   3   0   9  296.17   13.00
   3   0   9  301.67    9.00
  -3   0  -9  308.37    9.40
   3   1   9   95.99    3.90
  -3  -1  -9   98.99    5.30
  -3  -1  -9   96.19    3.60
   3   2   9    3.80    1.10
   3   2   9    6.10    2.20
  -3  -2  -9    6.80    1.70
   3   3   9    3.30    1.20
   3   3   9    4.20    2.10
  -3  -3  -9    3.00    1.50
   3   4   9    1.00    0.90
   3   5   9   11.10    1.90
  -3  -5  -9   11.60    2.20
   3   6   9    0.50    1.50
  -3  -6  -9   -0.60    1.50
   3   7   9    0.60    1.80
  -3  -7  -9    1.20    1.80
   3   8   9   -3.70    2.20
  -3  -8  -9   -0.60    1.80
  -4   4  -9    8.90    2.30
   4  -3   9   32.30    4.80
  -4   3  -9   26.70    3.00
   4  -2   9   17.40    3.70
  -4   2  -9   16.90    2.20
   4  -1   9    1.90    2.70
  -4   1  -9   -0.80    0.90
   4   0   9   96.79    3.70
  -4   0  -9  103.39    4.10
  -4   0  -9   93.89    3.50
   4   1   9   53.39   11.00
   4   1   9   87.59    3.60
  -4  -1  -9   84.49    4.80
  -4  -1  -9   86.49    3.40
   4   2   9    1.40    2.00
   4   2   9    2.80    0.90
  -4  -2  -9    2.80    0.70
  -4  -2  -9    5.60    1.90
   4   3   9    1.20    2.10
   4   3   9    0.70    1.00
  -4  -3  -9    1.50    0.50
  -4  -3  -9   -6.10   11.10
  -4  -3  -9    2.50    1.50
   4   4   9    8.00    1.40
  -4  -5  -9    0.10    1.50
   4   6   9    0.70    1.40
  -4  -6  -9   -0.20    1.50
   4   7   9    0.30    1.70
  -4  -7  -9   -0.10    1.50
   4   8   9    2.30    2.00
  -4  -8  -9    4.90    1.80
   5  -3   9    1.80    4.30
  -5   3  -9    5.50    2.10
   5  -2   9    6.70    3.60
  -5   2  -9    0.30    1.50
   5  -1   9    0.60    2.90
  -5   1  -9    1.20    1.30
   5   0   9   12.80    4.50
  -5   0  -9    9.90    1.20
  -5   0  -9    8.00    1.20
   5   1   9    0.40    0.90
   5   1   9   -2.20    2.30
  -5  -1  -9    1.50    1.60
  -5  -1  -9    0.70    0.90
  -5  -1  -9    1.00    0.80
   5   2   9    1.50    2.20
   5   2   9    0.20    0.90
  -5  -2  -9    0.70    0.70
  -5  -2  -9    1.70    0.80
  -5  -2  -9   -0.10    1.60
   5   3   9    0.90    1.00
   5   3   9    1.60    1.80
  -5  -3  -9   -0.10    0.60
  -5  -3  -9   -0.10    1.40
  -5  -4  -9  -17.60   10.50
   5   5   9   16.20    2.60
  -5  -5  -9   19.60    2.40
   5   6   9    2.50    1.50
  -5  -6  -9    0.20    1.40
   5   7   9    1.70    1.50
  -5  -7  -9    0.20    1.60
   5   8   9    1.10    1.90
  -5  -8  -9    3.90    1.90
   5   9   9   -1.70    2.20
  -5  -9  -9    3.20    2.20
   6  -2   9   -2.80    3.60
  -6   2  -9    0.60    1.90
   6  -1   9   17.90    3.60
  -6   1  -9   16.30    2.50
  -6   0  -9    1.60    1.20
   6   1   9    6.50    2.40
  -6  -1  -9    2.90    0.90
  -6  -1  -9    2.40    1.00
  -6  -1  -9    2.50    1.50
   6   2   9    3.20    2.40
   6   2   9    2.80    1.10
  -6  -2  -9    2.40    1.60
  -6  -2  -9    0.20    0.90
  -6  -2  -9    2.80    0.90
   6   3   9   -1.70    0.90
  -6  -3  -9   -0.30    0.80
  -6  -3  -9    0.50    1.40
  -6  -3  -9    1.90    0.90
   6   4   9   -2.00    1.20
  -6  -4  -9    0.10    0.70
   6   5   9   36.60    2.90
  -6  -5  -9   27.10    2.70
  -6  -5  -9   12.60   11.80
   6   6   9   12.00    1.90
  -6  -6  -9   12.40    2.30
   6   7   9    0.10    1.60
  -6  -7  -9    0.80    1.50
   6   8   9    0.00    1.90
  -6  -8  -9    0.00    1.60
  -6  -9  -9   -1.80    1.80
  -7   1  -9    1.00    1.80
   7   0   9    0.10    4.40
  -7   0  -9   -0.50    2.20
  -7   0  -9    3.50    1.40
   7   1   9    0.40    3.10
  -7  -1  -9    3.00    1.00
  -7  -1  -9    2.80    1.70
  -7  -1  -9    1.50    1.30
   7   2   9   14.20    3.20
   7   2   9   12.90    2.00
  -7  -2  -9   18.30    1.70
  -7  -2  -9   12.80    1.40
  -7  -2  -9   12.90    2.20
   7   3   9    1.50    1.00
  -7  -3  -9    0.70    1.50
  -7  -3  -9    1.70    0.90
   7   4   9    0.70    1.00
   7   4   9    2.10    1.40
  -7  -4  -9   -1.10    1.10
  -7  -4  -9    2.80    1.40
  -7  -4  -9    2.20    0.90
   7   5   9    0.60    1.50
  -7  -5  -9    0.20    1.30
  -7  -5  -9    0.10    1.30
   7   6   9   -0.80    1.50
  -7  -6  -9   -0.70    1.40
   7   7   9    1.70    1.50
  -7  -7  -9    3.00    1.80
   7   8   9   -0.80    1.70
  -7  -8  -9    1.10    1.70
  -8   0  -9   -1.80    1.70
  -8  -1  -9   -2.80    1.50
  -8  -1  -9    1.20    1.20
   8   2   9    2.30    1.30
  -8  -2  -9    0.50    1.40
  -8  -2  -9    1.40    1.10
  -8  -2  -9    1.60    1.60
   8   3   9    1.40    1.30
   8   3   9   -0.80    1.20
  -8  -3  -9    0.70    1.20
  -8  -3  -9    0.90    1.20
   8   4   9    1.80    1.30
   8   4   9    1.50    1.30
  -8  -4  -9   -1.70    1.10
  -8  -4  -9    1.10    1.40
  -8  -4  -9   -1.00    1.30
   8   5   9    7.30    1.70
   8   5   9    6.90    1.90
  -8  -5  -9    9.80    1.80
  -8  -5  -9    8.70    1.60
   8   6   9    0.20    1.40
  -8  -6  -9    1.30    1.30
  -8  -6  -9    0.10    1.50
   8   7   9    3.80    1.60
  -8  -7  -9    5.90    1.80
  -8  -7  -9    5.20    1.90
   8   8   9    0.50    1.70
  -8  -8  -9   -3.60    1.90
   9   2   9   -1.90    1.70
  -9  -2  -9   -2.30    1.70
  -9  -2  -9    0.40    1.40
   9   3   9    1.60    1.50
  -9  -3  -9    1.80    1.40
  -9  -3  -9    0.50    1.20
   9   4   9    0.60    1.40
  -9  -4  -9   -0.90    1.50
  -9  -4  -9    1.40    1.50
  -9  -4  -9   -1.00    1.50
   9   5   9    1.70    1.60
   9   5   9    8.90    1.70
  -9  -5  -9    5.90    1.90
  -9  -5  -9    5.40    1.40
  -9  -5  -9    7.90    1.70
   9   6   9    0.60    2.10
  -9  -6  -9   -0.20    1.80
  -9  -6  -9    1.10    1.60
   9   7   9   17.30    2.70
  -9  -7  -9   18.50    2.30
  -9  -7  -9   14.80    2.60
  -2  -2  10   -2.30    2.60
   2   2 -10   -0.80    1.40
  -2  -1  10    1.80    2.60
  -2   0  10   -0.60    2.40
   2   0 -10    2.10    2.80
  -2   1  10   -0.90    1.90
  -2   1  10   -4.10    2.30
   2  -1 -10   -0.30    2.60
  -2   2  10   -1.50    2.80
  -2   2  10    0.50    1.70
   2  -2 -10   -1.90    2.70
  -1  -3  10   -1.80    3.70
   1   3 -10    0.60    1.50
  -1  -2  10    4.00    3.80
   1   2 -10    1.20    1.30
  -1  -1  10   -1.30    3.00
   1   1 -10    1.10    1.60
  -1   0  10    0.40    2.90
  -1   1  10    0.40    2.60
   1  -1 -10    2.30    2.30
  -1   2  10    3.70    1.80
  -1   2  10   -2.50    2.20
   1  -2 -10    3.00    2.20
  -1   3  10    1.40    1.70
   1  -3 -10    0.80    2.30
  -1   4  10    4.30    1.90
   0  -3  10    2.80    4.10
   0  -2  10    5.90    3.30
   0   2 -10    0.40    1.20
   0  -1  10    0.30    2.70
   0   1 -10   -1.00    1.10
   0   0  10    0.10    2.40
   0   1  10    3.20    1.40
   0   1  10    0.10    2.40
   0  -1 -10    4.60    2.30
   0   2  10    0.50    2.30
   0  -2 -10    0.70    2.10
   0   3  10    1.50    1.60
   0   3  10   -3.20    2.50
   0  -3 -10    1.50    2.10
   0   4  10    4.40    1.90
   0  -4 -10   -2.20    2.10
   0   5  10    5.10    2.10
   0  -5 -10    5.40    2.40
   1  -3  10    6.30    4.40
  -1   3 -10   13.00    1.60
  -1   2 -10    2.00    1.20
   1  -1  10    0.60    2.60
  -1   1 -10    0.00    1.10
   1   0  10    0.50    2.50
   1   1  10   18.90    2.20
  -1  -1 -10   22.50    3.30
   1   2  10    4.50    2.90
   1   2  10    3.20    1.20
  -1  -2 -10    2.60    1.90
   1   3  10   -3.00    2.70
   1   3  10   -1.50    1.40
  -1  -3 -10   -1.20    1.90
   1   4  10    0.90    1.40
  -1  -4 -10    4.80    2.00
   1   5  10    0.60    1.90
  -1  -5 -10   -2.10    1.90
   1   6  10   -2.30    2.20
  -1  -6 -10    2.80    2.00
   2  -3  10    8.90    3.80
  -2   3 -10   18.10    2.40
   2  -2  10    0.20    2.70
  -2   2 -10    0.60    1.10
   2  -1  10   -5.60    3.00
  -2   1 -10   -1.00    1.00
   2   0  10    0.60    2.20
  -2   0 -10    1.70    0.90
   2   1  10   -1.10    2.00
   2   1  10    1.40    1.20
  -2  -1 -10    2.60    2.00
  -2  -1 -10   -1.10    1.10
   2   2  10    2.10    2.30
   2   2  10    2.10    1.10
  -2  -2 -10    1.00    1.60
   2   3  10    1.20    1.40
   2   3  10   -1.30    2.70
  -2  -3 -10   -1.50    1.70
   2   4  10    2.90    1.40
  -2  -4 -10    4.70    2.00
   2   5  10   12.40    2.00
  -2  -5 -10   19.90    3.10
  -2  -6 -10   -0.10    2.00
   2   7  10   -4.10    2.30
  -2  -7 -10   -0.40    2.20
   3  -3  10    1.10    4.00
  -3   3 -10    0.70    1.40
   3  -2  10    7.40    4.00
  -3   2 -10    2.90    1.30
   3  -1  10    1.70    3.40
  -3   1 -10   -0.20    1.10
   3   0  10    8.00    3.20
  -3   0 -10    6.80    1.10
   3   1  10    1.30    1.00
   3   1  10    0.60    1.80
  -3  -1 -10    1.50    1.70
  -3  -1 -10    1.30    0.80
   3   2  10   46.90    2.90
  -3  -2 -10   50.69    3.80
   3   3  10    6.80    1.40
   3   3  10    7.40    2.50
  -3  -3 -10    8.10    2.00
   3   4  10    3.30    1.40
  -3  -4 -10    4.80    1.90
   3   5  10    5.90    1.60
   3   6  10    1.90    1.90
  -3  -6 -10    6.00    2.20
   3   7  10    2.80    2.00
  -3  -7 -10    3.40    2.20
   4  -3  10    4.60    4.40
  -4   3 -10    2.10    1.70
   4  -2  10   -3.90    3.60
  -4   2 -10   -0.70    1.30
   4  -1  10   -1.00    3.30
  -4   1 -10   -1.00    1.20
   4   0  10    0.30    2.60
  -4   0 -10    6.40    1.00
   4   1  10    0.00    1.00
   4   1  10    5.30    2.70
  -4  -1 -10    0.10    0.90
  -4  -1 -10   -2.50    1.80
   4   2  10   48.70    4.40
   4   2  10   53.59    3.00
  -4  -2 -10   54.79    2.50
  -4  -2 -10   53.59    4.00
   4   3  10    3.20    1.10
   4   3  10    1.10    1.90
  -4  -3 -10    3.40    1.90
   4   4  10    0.20    1.50
  -4  -4 -10   -0.70    1.70
   4   5  10    3.10    1.60
  -4  -5 -10    2.80    1.70
   4   6  10   -0.20    1.70
  -4  -6 -10    2.50    1.80
   4   7  10   -0.30    2.00
  -4  -7 -10    0.30    1.90
   4   8  10    1.40    2.10
  -4  -8 -10   -0.90    2.30
   5  -2  10    6.40    3.70
  -5   2 -10    5.70    1.70
   5  -1  10   -2.50    2.90
  -5   1 -10    0.70    1.20
   5   0  10   12.50    3.40
  -5   0 -10    8.20    2.40
   5   1  10    7.40    2.90
   5   1  10    3.10    1.10
  -5  -1 -10    3.00    2.10
  -5  -1 -10    2.00    0.90
  -5  -1 -10    1.70    0.90
   5   2  10   -0.90    2.20
   5   2  10    2.70    1.20
  -5  -2 -10    3.00    0.90
  -5  -2 -10    1.90    0.90
  -5  -2 -10    3.00    1.80
   5   3  10   -0.30    1.20
   5   3  10   -0.80    2.30
  -5  -3 -10   -1.70    1.70
  -5  -4 -10    0.80    1.90
   5   5  10    1.90    1.40
  -5  -5 -10   -0.70    1.60
   5   6  10    1.50    1.70
  -5  -6 -10    1.70    1.90
   5   7  10    3.90    1.80
  -5  -7 -10   -0.20    1.80
   5   8  10    0.00    2.10
  -5  -8 -10   -1.70    2.00
   6  -1  10    6.20    3.60
  -6   1 -10    2.60    2.30
  -6   1 -10    2.70    1.60
   6   0  10   -4.90    3.00
  -6   0 -10   -1.50    2.10
  -6   0 -10    0.70    1.40
   6   1  10    3.50    3.00
  -6  -1 -10    2.20    1.30
  -6  -1 -10    3.20    1.40
   6   2  10   18.10    2.00
   6   2  10   13.70    3.00
  -6  -2 -10   15.30    1.70
  -6  -2 -10   18.50    2.90
  -6  -2 -10   16.00    1.90
   6   3  10    0.60    1.20
   6   3  10    6.30    2.90
  -6  -3 -10    0.80    1.00
  -6  -3 -10    1.30    1.80
   6   4  10    1.10    1.40
  -6  -4 -10   -1.00    1.60
   6   5  10    7.90    1.90
  -6  -5 -10    7.70    2.20
   6   6  10    1.50    1.60
  -6  -6 -10   -0.80    1.60
   6   7  10    3.60    2.00
  -6  -7 -10    8.00    2.20
   6   8  10    1.00    2.30
  -6  -8 -10   -0.50    2.20
   7   0  10    1.90    3.80
  -7   0 -10   -2.00    2.20
  -7   0 -10    1.50    1.60
   7   1  10    2.20    3.60
  -7  -1 -10    4.40    2.10
  -7  -1 -10    1.60    1.40
   7   2  10   43.90    4.70
  -7  -2 -10   39.00    3.40
   7   3  10   10.40    1.80
  -7  -3 -10   14.80    1.90
  -7  -3 -10   11.40    2.30
  -7  -3 -10   15.40    1.80
   7   4  10   -0.10    1.40
  -7  -4 -10   -0.90    1.60
  -7  -4 -10   -0.10    1.20
   7   5  10    0.60    1.60
  -7  -5 -10   -2.10    1.80
   7   6  10    3.50    1.90
  -7  -6 -10    2.20    2.00
   7   7  10    5.10    2.00
  -7  -7 -10    5.70    2.10
   7   8  10    0.40    2.20
  -7  -8 -10    1.30    2.10
  -8  -1 -10   -3.30    1.70
  -8  -2 -10    2.90    2.10
  -8  -2 -10    2.70    1.60
  -8  -2 -10    4.90    1.30
   8   3  10    7.00    1.60
  -8  -3 -10    5.50    1.50
  -8  -3 -10    4.90    1.30
  -8  -3 -10    6.90    1.80
   8   4  10    7.10    1.80
  -8  -4 -10    7.00    1.50
  -8  -4 -10    5.30    1.80
   8   5  10   -2.00    1.80
  -8  -5 -10    1.10    1.70
  -8  -5 -10   -2.10    1.40
   8   6  10    4.90    1.90
  -8  -6 -10    0.00    1.80
  -8  -6 -10    1.50    1.60
   8   7  10    4.20    2.30
  -8  -7 -10   -2.00    1.80
  -8  -7 -10    2.10    1.90
   9   4  10   -0.90    1.80
  -9  -4 -10    1.70    1.90
  -9  -4 -10   -3.30    1.60
   9   5  10   -0.80    1.90
  -9  -5 -10   -1.80    1.80
  -9  -5 -10   -3.00    1.50
   9   6  10   -0.20    1.70
  -9  -6 -10    5.30    2.20
  -9  -6 -10   -0.30    1.80
  -1   0  11   -3.70    2.90
  -1   1  11    0.50    2.70
   0  -1  11    3.20    4.00
   0   0  11    1.60    3.40
   0   0 -11    0.80    2.90
   0   1  11    0.90    3.20
   0  -1 -11    2.30    2.60
   0   2  11    4.60    1.80
   0   2  11    3.90    3.30
   0  -2 -11    6.60    2.90
   0   3  11   -1.50    1.70
   0   3  11    2.20    2.60
   0  -3 -11   -1.50    2.60
   1  -2  11   -4.30    4.50
  -1   2 -11    2.10    1.50
   1  -1  11   -2.30    3.50
   1   0  11    1.80    3.10
   1   1  11    0.20    3.40
  -1  -1 -11    0.20    2.50
   1   2  11    7.10    2.20
   1   2  11    1.20    3.10
   1   3  11   -3.90    2.90
  -1  -3 -11   -0.10    2.40
   1   4  11    1.20    2.10
  -1  -4 -11    3.50    2.60
   2  -2  11    4.00    4.30
   2  -1  11    0.60    3.40
  -2   1 -11    1.10    1.40
   2   0  11    2.30    3.40
   2   1  11    5.70    3.10
  -2  -1 -11    6.80    2.40
   2   2  11   -2.10    1.40
   2   2  11   -0.30    3.00
  -2  -2 -11   -0.10    2.20
   2   3  11   -0.50    1.60
   2   3  11   -3.00    3.30
  -2  -3 -11   -1.30    1.90
   2   4  11    1.20    1.60
  -2  -4 -11    3.50    2.20
   2   5  11   -0.70    2.00
  -2  -5 -11    2.80    2.30
   3  -2  11    5.90    4.80
  -3   2 -11    7.40    1.60
   3  -1  11    5.40    3.50
  -3   1 -11    3.60    1.50
   3   0  11   -1.10    2.60
   3   1  11    1.10    2.50
  -3  -1 -11    7.60    2.60
   3   2  11    7.60    3.10
   3   2  11    8.90    1.60
  -3  -2 -11   12.10    2.60
   3   3  11   -2.20    2.60
  -3  -3 -11    1.90    1.90
   3   4  11   -1.60    1.60
  -3  -4 -11    0.80    2.20
   3   5  11    1.60    1.60
  -3  -5 -11    1.50    2.40
   3   6  11    5.10    2.30
  -3  -6 -11   -1.00    2.30
   4  -1  11    8.00    3.90
  -4   1 -11    0.20    1.30
   4   0  11    0.10    3.60
  -4   0 -11    2.40    2.70
   4   1  11    0.50    2.70
  -4  -1 -11    2.10    2.40
   4   2  11  110.09    4.80
  -4  -2 -11  117.19    6.50
   4   3  11   16.50    2.50
  -4  -3 -11   19.10    3.50
   4   4  11    3.80    1.50
  -4  -4 -11    2.70    2.10
   4   5  11   -1.30    1.70
   4   6  11    0.90    2.00
  -4  -6 -11    4.90    2.40
  -4  -7 -11   -0.50    2.30
   5  -1  11   18.80    4.60
  -5   1 -11   16.30    2.50
   5   0  11    4.50    3.50
  -5   0 -11    3.80    1.40
  -5   0 -11    1.90    2.50
   5   1  11    2.70    3.20
  -5  -1 -11   -0.30    2.30
   5   2  11   27.00    2.50
   5   2  11   28.60    4.70
  -5  -2 -11   28.60    3.90
  -5  -3 -11   50.29    4.10
   5   4  11    1.60    1.60
  -5  -4 -11    5.10    2.20
   5   5  11   -1.00    1.60
  -5  -5 -11    0.30    2.00
   5   6  11    1.80    2.00
  -5  -6 -11    0.70    2.20
   5   7  11    1.60    1.90
  -5  -7 -11    1.80    2.40
   6   0  11    5.00    3.60
  -6   0 -11    4.70    1.50
  -6   0 -11    5.70    2.60
   6   1  11    1.60    3.40
  -6  -1 -11   -0.90    1.40
  -6  -1 -11   -3.20    2.30
   6   2  11    0.40    1.50
   6   2  11    4.00    2.90
  -6  -2 -11    2.30    2.30
  -6  -2 -11   -0.40    1.80
   6   3  11    7.50    3.00
   6   3  11   -1.20    1.40
  -6  -3 -11    0.20    1.20
  -6  -3 -11    1.70    2.30
   6   4  11    4.20    1.70
  -6  -4 -11    4.70    2.30
   6   5  11    0.20    1.80
  -6  -5 -11   -0.60    2.20
   6   6  11   -0.20    1.80
  -6  -6 -11   -0.40    2.30
   6   7  11   -0.60    2.20
  -6  -7 -11    1.80    2.40
   7   1  11    9.90    4.00
  -7  -1 -11    4.10    1.80
  -7  -1 -11    5.40    2.50
   7   2  11    3.20    3.50
  -7  -2 -11    1.70    2.20
   7   3  11    2.90    1.60
  -7  -3 -11    2.20    2.20
   7   4  11    3.50    1.80
  -7  -4 -11   -1.10    2.00
  -7  -4 -11   -0.20    1.40
   7   5  11   -0.50    1.50
  -7  -5 -11    5.90    2.30
   7   6  11    0.10    2.20
  -7  -6 -11   -0.50    2.20
  -7  -7 -11    3.00    2.40
   8   3  11   -2.90    1.90
  -8  -3 -11   -3.40    2.20
  -8  -3 -11   -2.50    1.50
   8   4  11    2.90    1.90
  -8  -4 -11    0.20    1.60
  -8  -4 -11    4.70    2.10
   8   5  11   -0.50    1.70
  -8  -5 -11   -2.40    2.00
  -8  -5 -11    2.70    1.60
  -8  -6 -11    2.10    1.90
  -8  -6 -11   -3.90    2.10
   2   0  12   -1.60    4.10
  -2   0 -12    2.30    3.20
   2   1  12   -0.10    3.90
  -2  -1 -12    1.20    2.80
   2   2  12    0.00    4.10
  -2  -2 -12    9.10    3.20
   2   3  12    1.70    1.90
   2   3  12   -0.10    4.20
  -2  -3 -12    1.30    2.80
   3   0  12    4.70    3.90
  -3   0 -12   -3.70    3.10
   3   1  12    3.20    4.00
  -3  -1 -12    4.90    2.90
   3   2  12    2.10    3.30
  -3  -2 -12    0.90    2.60
   3   3  12   -0.60    4.00
   3   3  12    0.30    1.70
  -3  -3 -12    2.20    2.70
   3   4  12    5.20    2.00
  -3  -4 -12   -0.80    2.50
  -4   0 -12    4.20    3.30
   4   1  12    3.20    3.70
  -4  -1 -12   -0.80    3.10
   4   2  12    0.10    3.20
  -4  -2 -12    3.90    2.80
   4   3  12    3.90    3.20
   4   3  12    1.40    1.70
  -4  -3 -12    1.10    2.50
   4   4  12    9.60    2.20
  -4  -4 -12   14.80    3.50
   4   5  12   -1.50    2.10
   5   1  12   -2.40    4.20
  -5  -1 -12   -5.30    2.80
   5   2  12   -1.50    3.30
  -5  -2 -12   -1.30    2.80
   5   3  12    0.70    3.40
   5   3  12    1.90    1.70
  -5  -3 -12   -0.50    2.70
   5   4  12   19.80    2.70
  -5  -4 -12   23.30    3.80
   5   5  12   -0.60    1.90
  -5  -5 -12    0.60    2.60
   6   2  12    3.20    4.20
  -6  -2 -12    6.30    3.20
   6   3  12    6.10    3.50
  -6  -3 -12    1.20    2.80
   6   4  12    0.30    1.80
  -6  -4 -12   -0.70    2.70
   6   5  12   -1.20    2.10
  -6  -5 -12   -0.10    2.40
   0   0   0    0.00    0.00


_computing_structure_solution     'SHELXT 2014/5 (Sheldrick, 2014)'
_computing_structure_solution     'SHELXT 2014/5 (Sheldrick, 2014)'
;
_shelx_hkl_checksum              52193
loop_
_space_group_symop_operation_xyz
'x, y, z'
'-x, -y, -z'
loop_
_atom_site_label
_atom_site_type_symbol
_atom_site_fract_x
_atom_site_fract_y
_atom_site_fract_z
_atom_site_U_iso_or_equiv
_atom_site_adp_type
_atom_site_occupancy
_atom_site_site_symmetry_order
_atom_site_calc_flag
_atom_site_refinement_flags_posn
_atom_site_refinement_flags_adp
O2 O 0.7503(3) 0.5373(3) 0.5816(2) 0.0537(5) Uani 1 1 d . .
O1 O 0.8284(3) 0.3122(3) 0.7647(3) 0.0754(8) Uani 1 1 d . .
C9 C 0.4093(3) 0.7119(3) 0.5810(3) 0.0378(5) Uani 1 1 d . .
C1 C 0.3457(3) 0.6063(3) 0.7238(3) 0.0383(5) Uani 1 1 d . .
C4 C 0.6113(4) 0.6750(4) 0.5150(3) 0.0418(6) Uani 1 1 d . .
C2 C 0.4869(4) 0.4738(4) 0.7866(3) 0.0423(6) Uani 1 1 d . .
C8 C 0.2810(4) 0.8526(4) 0.5024(3) 0.0481(6) Uani 1 1 d . .
H8 H 0.1424 0.8814 0.5429 0.058 Uiso 1 1 calc R U
C10 C 0.1291(4) 0.6481(4) 0.8033(3) 0.0468(6) Uani 1 1 d . .
H10A H 0.1161 0.5360 0.8731 0.056 Uiso 1 1 calc R U
H10B H 0.0645 0.6731 0.7258 0.056 Uiso 1 1 calc R U
C5 C 0.6847(4) 0.7721(4) 0.3796(3) 0.0502(7) Uani 1 1 d . .
H5 H 0.8230 0.7443 0.3378 0.060 Uiso 1 1 calc R U
N1 N 0.3986(5) 0.2805(4) 1.0457(3) 0.0799(9) Uani 1 1 d . .
C6 C 0.5535(4) 0.9093(4) 0.3068(3) 0.0544(7) Uani 1 1 d . .
H6 H 0.6015 0.9773 0.2137 0.065 Uiso 1 1 calc R U
C12 C 0.4385(4) 0.3642(4) 0.9303(3) 0.0532(7) Uani 1 1 d . .
C3 C 0.6981(4) 0.4319(4) 0.7153(3) 0.0508(7) Uani 1 1 d . .
C7 C 0.3526(5) 0.9495(4) 0.3677(3) 0.0551(7) Uani 1 1 d . .
H7 H 0.2633 1.0446 0.3162 0.066 Uiso 1 1 calc R U
C11 C 0.0231(5) 0.8197(5) 0.8957(4) 0.0659(9) Uani 1 1 d . .
H11A H 0.0806 0.7918 0.9772 0.099 Uiso 1 1 calc R U
H11B H -0.1193 0.8476 0.9417 0.099 Uiso 1 1 calc R U
H11C H 0.0400 0.9298 0.8275 0.099 Uiso 1 1 calc R U
loop_
_atom_site_aniso_label
_atom_site_aniso_U_11
_atom_site_aniso_U_22
_atom_site_aniso_U_33
_atom_site_aniso_U_23
_atom_site_aniso_U_13
_atom_site_aniso_U_12
O2 0.0355(9) 0.0592(12) 0.0601(12) 0.0068(10) -0.0187(8) -0.0182(8)
O1 0.0503(12) 0.0781(17) 0.0853(17) 0.0146(13) -0.0403(12) -0.0133(11)
C9 0.0364(11) 0.0365(13) 0.0402(13) -0.0021(10) -0.0139(10) -0.0143(10)
C1 0.0376(12) 0.0385(13) 0.0396(13) -0.0026(10) -0.0145(10) -0.0152(10)
C4 0.0395(12) 0.0414(14) 0.0445(14) 0.0000(11) -0.0162(11) -0.0166(11)
C2 0.0439(13) 0.0425(14) 0.0427(13) 0.0037(11) -0.0191(11) -0.0192(11)
C8 0.0409(13) 0.0498(16) 0.0488(15) 0.0045(12) -0.0187(11) -0.0163(11)
C10 0.0382(12) 0.0482(15) 0.0476(15) 0.0015(12) -0.0117(11) -0.0176(11)
C5 0.0450(14) 0.0554(17) 0.0492(16) -0.0036(13) -0.0057(12) -0.0282(13)
N1 0.102(2) 0.082(2) 0.0581(18) 0.0256(15) -0.0375(17) -0.0468(19)
C6 0.0647(18) 0.0509(17) 0.0451(15) 0.0034(13) -0.0129(13) -0.0298(14)
C12 0.0596(17) 0.0527(17) 0.0504(17) 0.0034(13) -0.0284(14) -0.0213(14)
C3 0.0441(13) 0.0514(16) 0.0571(17) 0.0070(13) -0.0247(13) -0.0191(12)
C7 0.0620(17) 0.0511(17) 0.0450(15) 0.0105(13) -0.0237(13) -0.0201(14)
C11 0.0533(17) 0.066(2) 0.0606(19) -0.0137(16) -0.0124(14) -0.0121(15)
loop_
_atom_type_symbol
_atom_type_description
_atom_type_scat_dispersion_real
_atom_type_scat_dispersion_imag
_atom_type_scat_source
C C 0.0033 0.0016 'International Tables Vol C Tables 4.2.6.8 and 6.1.1.4'
H H 0.0000 0.0000 'International Tables Vol C Tables 4.2.6.8 and 6.1.1.4'
N N 0.0061 0.0033 'International Tables Vol C Tables 4.2.6.8 and 6.1.1.4'
O O 0.0106 0.0060 'International Tables Vol C Tables 4.2.6.8 and 6.1.1.4'
loop_
_geom_angle_atom_site_label_1
_geom_angle_atom_site_label_2
_geom_angle_atom_site_label_3
_geom_angle
C3 O2 C4 122.0(2)
C4 C9 C8 116.7(2)
C4 C9 C1 118.8(2)
C8 C9 C1 124.5(2)
C2 C1 C9 117.9(2)
C2 C1 C10 121.3(2)
C9 C1 C10 120.7(2)
O2 C4 C5 116.0(2)
O2 C4 C9 121.4(2)
C5 C4 C9 122.6(2)
C1 C2 C12 122.3(2)
C1 C2 C3 123.1(2)
C12 C2 C3 114.6(2)
C7 C8 C9 121.1(3)
C7 C8 H8 119.5
C9 C8 H8 119.5
C1 C10 C11 111.4(2)
C1 C10 H10A 109.4
C11 C10 H10A 109.4
C1 C10 H10B 109.4
C11 C10 H10B 109.4
H10A C10 H10B 108.0
C6 C5 C4 118.6(3)
C6 C5 H5 120.7
C4 C5 H5 120.7
C5 C6 C7 120.6(3)
C5 C6 H6 119.7
C7 C6 H6 119.7
N1 C12 C2 178.6(3)
O1 C3 O2 118.1(3)
O1 C3 C2 125.2(3)
O2 C3 C2 116.7(2)
C8 C7 C6 120.3(3)
C8 C7 H7 119.8
C6 C7 H7 119.8
C10 C11 H11A 109.5
C10 C11 H11B 109.5
H11A C11 H11B 109.5
C10 C11 H11C 109.5
H11A C11 H11C 109.5
H11B C11 H11C 109.5
loop_
_geom_bond_atom_site_label_1
_geom_bond_atom_site_label_2
_geom_bond_distance
O2 C3 1.361(3)
O2 C4 1.377(3)
O1 C3 1.201(3)
C9 C4 1.395(3)
C9 C8 1.402(3)
C9 C1 1.440(3)
C1 C2 1.356(3)
C1 C10 1.498(3)
C4 C5 1.384(4)
C2 C12 1.435(4)
C2 C3 1.454(4)
C8 C7 1.374(4)
C8 H8 0.9500
C10 C11 1.528(4)
C10 H10A 0.9900
C10 H10B 0.9900
C5 C6 1.373(4)
C5 H5 0.9500
N1 C12 1.138(4)
C6 C7 1.380(4)
C6 H6 0.9500
C7 H7 0.9500
C11 H11A 0.9800
C11 H11B 0.9800
C11 H11C 0.9800
