#------------------------------------------------------------------------------
#$Date: 2020-02-14 02:29:05 +0200 (Fri, 14 Feb 2020) $
#$Revision: 248140 $
#$URL: file:///home/coder/svn-repositories/cod/cif/4/03/79/4037924.cif $
#------------------------------------------------------------------------------
#
# This file is available in the Crystallography Open Database (COD),
# http://www.crystallography.net/
#
# All data on this site have been placed in the public domain by the
# contributors.
#
data_4037924
loop_
_publ_author_name
'Nikahd, Maryam'
'Mikusek, Jiri'
'Yu, Li-Juan'
'Coote, Michelle L.'
'Banwell, Martin G.'
'Ma, Chenxi'
'Gardiner, Michael G.'
_publ_section_title
;
 Exploiting Chitin as a Source of Biologically Fixed Nitrogen: Formation
 and Full Characterization of Small-Molecule Hetero- and Carbocyclic
 Pyrolysis Products.
;
_journal_name_full               'The Journal of organic chemistry'
_journal_paper_doi               10.1021/acs.joc.9b03438
_journal_year                    2020
_chemical_formula_moiety         'C8 H7 N O2'
_chemical_formula_sum            'C8 H7 N O2'
_chemical_formula_weight         149.15
_space_group_crystal_system      triclinic
_space_group_IT_number           2
_space_group_name_Hall           '-P 1'
_space_group_name_H-M_alt        'P -1'
_atom_sites_solution_hydrogens   geom
_atom_sites_solution_primary     direct
_audit_creation_date             2019-05-30
_audit_creation_method
;
Olex2 1.2
(compiled 2018.05.29 svn.r3508 for OlexSys, GUI svn.r5506)
;
_cell_angle_alpha                77.401(8)
_cell_angle_beta                 85.073(8)
_cell_angle_gamma                78.699(9)
_cell_formula_units_Z            2
_cell_length_a                   6.5474(7)
_cell_length_b                   7.2418(7)
_cell_length_c                   7.6043(7)
_cell_measurement_reflns_used    1089
_cell_measurement_temperature    150.00(10)
_cell_measurement_theta_max      73.4400
_cell_measurement_theta_min      5.9530
_cell_volume                     344.70(6)
_computing_cell_refinement       'CrysAlisPro 1.171.40.36a (Rigaku OD, 2018)'
_computing_data_collection       'CrysAlisPro 1.171.40.36a (Rigaku OD, 2018)'
_computing_data_reduction        'CrysAlisPro 1.171.40.36a (Rigaku OD, 2018)'
_computing_molecular_graphics    'Olex2 (Dolomanov et al., 2009)'
_computing_publication_material  'Olex2 (Dolomanov et al., 2009)'
_computing_structure_refinement  'ShelXL (Sheldrick, 2015)'
_computing_structure_solution    'ShelXS (Sheldrick, 2008)'
_diffrn_ambient_environment      N~2~
_diffrn_ambient_temperature      150.00(10)
_diffrn_detector                 'CCD plate'
_diffrn_detector_area_resol_mean 8.1297
_diffrn_detector_type            EosS2
_diffrn_measured_fraction_theta_full 0.997
_diffrn_measured_fraction_theta_max 0.990
_diffrn_measurement_details
;
List of Runs (angles in degrees, time in seconds):

  # Type    Start    End  Width  t~exp~   \w     \q     \k     \f   Frames
--------------------------------------------------------------------------
  1  \w   -104.00 -20.00   1.00    2.42    --  -37.08 -57.00   0.00   84
  2  \w    -21.00  64.00   1.00    2.42    --   37.08 -77.00  90.00   85
  3  \w     18.00 106.00   1.00    2.42    --   37.08  38.00 -60.00   88
  4  \w    -32.00 106.00   1.00    2.42    --   37.08   0.00  90.00  138
  5  \w     27.00  90.00   1.00    2.42    --   37.08-125.00  30.00   63
  6  \w     27.00  90.00   1.00    2.42    --   37.08-125.00-150.00   63
  7  \w     27.00  90.00   1.00    2.42    --   37.08-125.00-120.00   63
  8  \w     44.00 131.00   1.00    9.68    --  111.00 -64.00 150.00   87
  9  \w     41.00 136.00   1.00    9.68    --  111.00 -25.00 150.00   95
 10  \w     42.00 106.00   1.00    9.68    --  111.00 -92.00 120.00   64
 11  \w     41.00 109.00   1.00    9.68    --  111.00-111.00  60.00   68
 12  \w    138.00 164.00   1.00    9.68    --  111.00  38.00-150.00   26
 13  \w     42.00  68.00   1.00    9.68    --  111.00 -38.00  30.00   26
 14  \w     50.00  80.00   1.00    9.68    --  111.00-111.00-120.00   30
 15  \w     70.00 106.00   1.00    9.68    --  111.00 -92.00  60.00   36
 16  \w     95.00 120.00   1.00    9.68    --  111.00  38.00-150.00   25
 17  \w     98.00 177.00   1.00    9.68    --  111.00  50.00-180.00   79
 18  \w     63.00 102.00   1.00    9.68    --  111.00 178.00 150.00   39
 19  \w     84.00 109.00   1.00    9.68    --  111.00-111.00-120.00   25
 20  \w    110.00 170.00   1.00    9.68    --  111.00  77.00 120.00   60
 21  \w     45.00  71.00   1.00    9.68    --  111.00 -92.00  90.00   26
 22  \w     78.00 108.00   1.00    9.68    --  111.00-111.00 -60.00   30
 23  \w    101.00 165.00   1.00    9.68    --  111.00  64.00-120.00   64
 24  \w    133.00 176.00   1.00    9.68    --  111.00  77.00  90.00   43
 25  \w     62.00 124.00   1.00    9.68    --  111.00 -64.00 120.00   62
 26  \w     64.00  98.00   1.00    9.68    --  111.00 178.00-150.00   34
 27  \w    125.00 169.00   1.00    9.68    --  111.00  77.00 150.00   44
 28  \w     80.00 105.00   1.00    9.68    --  111.00 -92.00 150.00   25
 29  \w    106.00 132.00   1.00    9.68    --  111.00 178.00-150.00   26
 30  \w     92.00 146.00   1.00    9.68    --  111.00 178.00  90.00   54
 31  \w     73.00 129.00   1.00    9.68    --  111.00 -38.00  30.00   56
 32  \w     96.00 130.00   1.00    9.68    --  111.00 -64.00-120.00   34
 33  \w     43.00  69.00   1.00    9.68    --  111.00 -38.00  90.00   26
 34  \w     42.00  76.00   1.00    9.68    --  111.00-111.00 -30.00   34
;
_diffrn_measurement_device       'four-circle diffractometer'
_diffrn_measurement_device_type  'SuperNova, Dual, Cu at home/near, EosS2'
_diffrn_measurement_method       '\w scans'
_diffrn_orient_matrix_type
'CrysAlisPro convention (1999,Acta A55,543-557)'
_diffrn_orient_matrix_UB_11      -0.0615159000
_diffrn_orient_matrix_UB_12      -0.1931251000
_diffrn_orient_matrix_UB_13      -0.0062115000
_diffrn_orient_matrix_UB_21      -0.2156005000
_diffrn_orient_matrix_UB_22      0.0653183000
_diffrn_orient_matrix_UB_23      0.0874875000
_diffrn_orient_matrix_UB_31      -0.0861567000
_diffrn_orient_matrix_UB_32      0.0870873000
_diffrn_orient_matrix_UB_33      -0.1883832000
_diffrn_radiation_monochromator  mirror
_diffrn_radiation_probe          x-ray
_diffrn_radiation_type           CuK\a
_diffrn_radiation_wavelength     1.54184
_diffrn_reflns_av_R_equivalents  0.0259
_diffrn_reflns_av_unetI/netI     0.0414
_diffrn_reflns_Laue_measured_fraction_full 0.997
_diffrn_reflns_Laue_measured_fraction_max 0.990
_diffrn_reflns_limit_h_max       7
_diffrn_reflns_limit_h_min       -8
_diffrn_reflns_limit_k_max       8
_diffrn_reflns_limit_k_min       -8
_diffrn_reflns_limit_l_max       6
_diffrn_reflns_limit_l_min       -9
_diffrn_reflns_number            2994
_diffrn_reflns_point_group_measured_fraction_full 0.997
_diffrn_reflns_point_group_measured_fraction_max 0.990
_diffrn_reflns_theta_full        67.684
_diffrn_reflns_theta_max         73.827
_diffrn_reflns_theta_min         5.969
_diffrn_source                   'micro-focus sealed X-ray tube'
_diffrn_source_type              'SuperNova (Cu) X-ray Source'
_exptl_absorpt_coefficient_mu    0.873
_exptl_absorpt_correction_T_max  1.00000
_exptl_absorpt_correction_T_min  0.96708
_exptl_absorpt_correction_type   multi-scan
_exptl_absorpt_process_details
;
CrysAlisPro 1.171.40.36a (Rigaku Oxford Diffraction, 2018)
Empirical absorption correction using spherical harmonics,
 implemented in SCALE3 ABSPACK scaling algorithm.
;
_exptl_crystal_colour            colourless
_exptl_crystal_colour_primary    colourless
_exptl_crystal_density_diffrn    1.437
_exptl_crystal_description       needle
_exptl_crystal_F_000             156
_exptl_crystal_size_max          0.14
_exptl_crystal_size_mid          0.044
_exptl_crystal_size_min          0.035
_refine_diff_density_max         0.479
_refine_diff_density_min         -0.207
_refine_diff_density_rms         0.050
_refine_ls_extinction_method     none
_refine_ls_goodness_of_fit_ref   1.051
_refine_ls_hydrogen_treatment    constr
_refine_ls_matrix_type           full
_refine_ls_number_parameters     102
_refine_ls_number_reflns         1378
_refine_ls_number_restraints     0
_refine_ls_restrained_S_all      1.051
_refine_ls_R_factor_all          0.0564
_refine_ls_R_factor_gt           0.0450
_refine_ls_shift/su_max          0.000
_refine_ls_shift/su_mean         0.000
_refine_ls_structure_factor_coef Fsqd
_refine_ls_weighting_details
'w=1/[\s^2^(Fo^2^)+(0.0572P)^2^+0.0903P] where P=(Fo^2^+2Fc^2^)/3'
_refine_ls_weighting_scheme      calc
_refine_ls_wR_factor_gt          0.1118
_refine_ls_wR_factor_ref         0.1211
_reflns_Friedel_coverage         0.000
_reflns_number_gt                1124
_reflns_number_total             1378
_reflns_threshold_expression     'I > 2\s(I)'
_cod_data_source_file            jo9b03438_si_002.cif
_cod_data_source_block           mn-27c4scaled
_cod_database_code               4037924
_shelx_shelxl_version_number     2016/6
_chemical_oxdiff_formula         c8h7n1o2
_shelx_space_group_comment
;
The symmetry employed for this shelxl refinement is uniquely defined
by the following loop, which should always be used as a source of
symmetry information in preference to the above space-group names.
They are only intended as comments.
;
_reflns_odcompleteness_completeness 98.43
_reflns_odcompleteness_iscentric 1
_reflns_odcompleteness_theta     74.33
_olex2_refinement_description
;
1. Fixed Uiso
 At 1.2 times of:
  All C(H) groups
 At 1.5 times of:
  All C(H,H,H) groups, All O(H) groups
2.a Aromatic/amide H refined with riding coordinates:
 C4(H4), C5(H5), C7(H7)
2.b Idealised Me refined as rotating group:
 C2(H2A,H2B,H2C)
2.c Idealised tetrahedral OH refined as rotating group:
 O2(H2)
;
_shelx_res_file
;
TITL MN-27c4scaled in P-1 #2
    mn-27c4scaled.res
    created by SHELXL-2016/6 at 11:04:37 on 30-May-2019
REM reset to P-1 #2
CELL 1.54184 6.5474 7.2418 7.6043 77.401 85.073 78.699
ZERR 2 0.0007 0.0007 0.0007 0.008 0.008 0.009
LATT 1
SFAC C H N O
UNIT 16 14 2 4

L.S. 4
PLAN  20
BOND
fmap 2
acta
OMIT 5 -1 7
OMIT 4 0 8
OMIT 6 0 1
OMIT 0 3 1
OMIT -2 -1 1
REM <olex2.extras>
REM <HklSrc "%.\\MN-27c4scaled.hkl">
REM </olex2.extras>

WGHT    0.057200    0.090300
FVAR       0.99953
O1    4    0.745233    0.031516    0.164283    11.00000    0.02497    0.02315 =
         0.02989   -0.00811    0.00412   -0.00432
O2    4    0.277665    0.550022    0.383580    11.00000    0.03106    0.02501 =
         0.04586   -0.01381    0.00481   -0.00631
AFIX 147
H2    2    0.366219    0.614967    0.340249    11.00000   -1.50000
AFIX   0
N1    3    0.517704   -0.171852    0.228816    11.00000    0.03114    0.02063 =
         0.02281   -0.00601    0.00012   -0.00489
C1    1    0.701606   -0.146973    0.166198    11.00000    0.03123    0.02181 =
         0.02077   -0.00514   -0.00088   -0.00222
C2    1    0.872334   -0.286443    0.100729    11.00000    0.03426    0.02722 =
         0.03264   -0.00854    0.00232    0.00153
AFIX 137
H2A   2    0.965874   -0.217968    0.019694    11.00000   -1.50000
H2B   2    0.814653   -0.365063    0.038669    11.00000   -1.50000
H2C   2    0.947006   -0.366592    0.201439    11.00000   -1.50000
AFIX   0
C3    1    0.423981    0.003979    0.276179    11.00000    0.02817    0.01915 =
         0.02082   -0.00456   -0.00109   -0.00433
C4    1    0.228779    0.064856    0.353102    11.00000    0.02642    0.02400 =
         0.02702   -0.00500    0.00300   -0.00899
AFIX  43
H4    2    0.130800   -0.015564    0.381093    11.00000   -1.20000
AFIX   0
C5    1    0.185281    0.249194    0.386587    11.00000    0.02385    0.02534 =
         0.02550   -0.00624    0.00258   -0.00456
AFIX  43
H5    2    0.055997    0.293037    0.438465    11.00000   -1.20000
AFIX   0
C6    1    0.333188    0.372008    0.343586    11.00000    0.02763    0.02030 =
         0.02601   -0.00675   -0.00136   -0.00316
C7    1    0.529110    0.312818    0.265393    11.00000    0.02577    0.02136 =
         0.03152   -0.00603    0.00125   -0.00800
AFIX  43
H7    2    0.627802    0.392417    0.235766    11.00000   -1.20000
AFIX   0
C8    1    0.565964    0.128167    0.235204    11.00000    0.02279    0.02326 =
         0.02122   -0.00426    0.00127   -0.00391
HKLF 4




REM  MN-27c4scaled in P-1 #2
REM R1 =  0.0450 for    1124 Fo > 4sig(Fo)  and  0.0564 for all    1378 data
REM    102 parameters refined using      0 restraints

END

WGHT      0.0572      0.0903

REM Highest difference peak  0.479,  deepest hole -0.207,  1-sigma level  0.050
Q1    1   0.6426  0.4375  0.2225  11.00000  0.05    0.48
Q2    1   0.4954  0.0693  0.2588  11.00000  0.05    0.23
Q3    1   0.3260  0.0413  0.3031  11.00000  0.05    0.22
Q4    1   0.7734 -0.2199  0.1351  11.00000  0.05    0.19
Q5    1   0.4309  0.3404  0.2753  11.00000  0.05    0.18
Q6    1   1.0442 -0.2986  0.1826  11.00000  0.05    0.18
Q7    1   0.2105  0.1716  0.3410  11.00000  0.05    0.17
Q8    1   0.5359  0.2341  0.2663  11.00000  0.05    0.16
Q9    1   0.2548  0.3075  0.3646  11.00000  0.05    0.16
Q10   1   0.1473 -0.1202  0.3919  11.00000  0.05    0.13
Q11   1   0.0420  0.0073  0.3424  11.00000  0.05    0.12
Q12   1   0.2859 -0.1312  0.4643  11.00000  0.05    0.12
Q13   1   0.1878  0.5563  0.2473  11.00000  0.05    0.11
Q14   1   1.1052 -0.1242  0.1231  11.00000  0.05    0.11
Q15   1   0.6129 -0.1820  0.2187  11.00000  0.05    0.11
Q16   1   0.4947 -0.1369  0.0268  11.00000  0.05    0.11
Q17   1   0.5299 -0.2993  0.2553  11.00000  0.05    0.11
Q18   1   0.9273  0.0594  0.2164  11.00000  0.05    0.11
Q19   1   0.8544 -0.4085  0.2601  11.00000  0.05    0.11
Q20   1   0.6736 -0.3074  0.3093  11.00000  0.05    0.11
;
_shelx_res_checksum              9053
_shelx_hkl_file
;
   0   0   1   86.09    2.76
   0   0  -1   89.49    3.27
   0   0  -1   93.15    3.34
   0   0   1   91.20    2.26
   0   0  -1   90.91    3.33
   0   0  -2 2344.78   30.31
   0   0   2 2357.34   24.32
   0   0   2 2385.38   27.65
   0   0  -2 2387.16   30.03
   0   0  -2 2361.13   30.61
   0   0  -3   13.12    2.32
   0   0  -3   14.84    2.47
   0   0   3   13.05    2.03
   0   0  -3   13.10    2.40
   0   0   4   99.31    6.25
   0   0  -4  104.97    7.32
   0   0  -4   97.70    7.46
   0   0  -4  102.46    7.55
   0   0  -5   84.06    7.98
   0   0  -5   88.80    7.68
   0   0  -6    1.82    1.29
   0   0  -6    2.54    1.04
   0   0  -6    1.68    0.91
   0   0  -6    1.96    1.00
   0   0  -6    1.79    1.06
   0   0  -7   13.45    2.05
   0   0  -7   13.37    2.21
   0   0  -7   10.39    1.93
   0   0  -8   44.97    3.23
   0   0  -9    6.49    0.98
   0   1  -8    0.07    0.93
   0   1  -8    0.01    0.79
   0   1  -7    0.77    1.02
   0   1  -6   25.47    2.70
   0   1  -6   24.33    2.53
   0   1  -6   26.80    2.80
   0   1  -6   26.74    2.50
   0   1  -6   21.92    2.64
   0   1  -6   25.83    2.50
   0   1  -5    3.47    1.88
   0   1  -5    2.23    2.08
   0  -1   4  110.12    6.96
   0   1  -4  113.28    8.67
   0   1  -4  102.47    8.05
   0   1  -4  108.93    7.78
   0   1  -3  369.74   12.47
   0   1  -3  358.19   13.38
   0   1  -3  363.30   13.25
   0   1  -2 2393.06   34.08
   0   1  -2 2418.79   32.52
   0   1  -2 2419.56   25.06
   0   1  -2 2392.01   34.05
   0   1  -1  491.30    7.95
   0   1   0  568.39    9.13
   0   1   0  547.91   10.07
   0   1   0  576.63    9.06
   0   1   1   52.28    2.66
   0   1   1   54.50    1.45
   0   1   1   51.08    2.74
   0   1   2   30.48    2.58
   0   1   2   34.60    2.63
   0  -1  -3  157.86    7.82
   0   1   3  162.88    6.25
   0   1   3  154.04    6.00
   0   1   3  160.90    6.75
   0  -1  -4    7.44    2.15
   0   1   4    6.06    1.58
   0  -1  -5    2.89    1.67
   0  -1  -6    3.81    1.38
   0  -1  -7   14.91    1.99
   0  -1  -7   16.61    2.55
   0  -1  -7   18.13    2.28
   0  -1  -8    3.53    1.14
   0  -1  -8    2.43    1.13
   0  -1  -8    3.91    1.31
   0  -1  -9   18.12    1.70
   0   2  -8    5.28    1.13
   0   2  -7   -0.42    0.91
   0   2  -7    0.70    0.76
   0   2  -7    2.46    1.30
   0   2  -6   55.10    3.83
   0   2  -6   62.12    4.41
   0   2  -6   58.20    4.06
   0   2  -6   61.52    3.89
   0   2  -5   -0.38    1.56
   0   2  -4   12.06    3.11
   0   2  -4   13.58    3.42
   0   2  -3  110.02    8.19
   0   2  -3  113.00    8.32
   0   2  -2   62.29    5.36
   0   2  -2   55.78    5.24
   0   2  -2   65.29    3.63
   0   2  -1  112.17    6.25
   0   2  -1  109.40    4.97
   0   2   0   15.60    2.37
   0   2   0   14.63    2.01
   0   2   0   16.93    2.10
   0   2   1   26.80    1.97
   0   2   1   21.02    2.74
   0   2   2    8.64    1.80
   0   2   2    9.13    1.74
   0   2   2   10.70    2.11
   0   2   3   77.19    5.19
   0   2   3   79.54    5.52
   0   2   3   78.95    5.32
   0   2   4   49.44    4.44
   0   2   4   52.26    4.73
   0  -2  -4   47.24    5.29
   0  -2  -5   18.86    3.75
   0  -2  -6   32.69    3.07
   0  -2  -6   37.80    3.45
   0  -2  -6   37.53    2.90
   0  -2  -7   41.29    3.10
   0  -2  -7   38.14    3.60
   0  -2  -8    2.48    1.34
   0  -2  -8    1.55    0.89
   0  -2  -9    6.85    1.13
   0   3  -8   22.54    1.57
   0   3  -7   33.56    2.62
   0   3  -7   30.33    2.14
   0   3  -6    0.60    0.82
   0   3  -6    0.06    0.74
   0   3  -6   -0.07    0.99
   0   3  -6    0.30    0.89
   0   3  -6   -0.49    0.89
   0   3  -5  102.29    5.23
   0   3  -5  112.52    5.84
   0   3  -5  100.67    4.84
   0   3  -5  106.46    5.26
   0   3  -4    0.13    1.54
   0   3  -4    0.44    1.38
   0   3  -3    3.91    1.87
   0   3  -3    1.21    1.67
   0   3  -2   67.42    6.66
   0   3  -2   73.84    6.78
   0   3  -1   53.13    4.32
   0   3   0  102.01    6.27
   0   3   0  100.80    6.33
   0   3   1   63.57    5.80
   0   3   1   65.84    4.14
   0   3   1   56.21    5.01
   0   3   2  269.86   11.10
   0   3   2  294.48   12.57
   0   3   3  206.84   10.21
   0   3   3  214.46    9.99
   0   3   4   72.10    6.23
   0   3   4   73.41    6.77
   0   3   4   69.39    6.26
   0  -3  -5  101.52    9.29
   0  -3  -6   37.92    3.44
   0  -3  -7    3.10    1.21
   0  -3  -7    4.18    1.63
   0  -3  -8   28.47    2.62
   0  -3  -8   31.36    3.00
   0  -3  -9   15.55    1.61
   0   4  -7   10.93    1.30
   0   4  -7   13.90    1.39
   0   4  -6    1.59    0.78
   0   4  -6    0.55    0.80
   0   4  -6    0.91    0.84
   0   4  -6    0.54    0.70
   0   4  -6    1.37    0.82
   0   4  -5   19.04    2.32
   0   4  -5   15.84    2.05
   0   4  -5   17.14    2.27
   0   4  -5   16.15    2.33
   0   4  -4   70.29    4.54
   0   4  -4   65.29    4.05
   0   4  -4   74.84    4.32
   0   4  -4   64.52    4.23
   0   4  -3    7.16    3.89
   0   4  -3    8.75    3.31
   0   4  -2   -0.59    1.46
   0   4  -2   -0.07    1.35
   0   4  -1  400.08   14.60
   0   4   0    9.30    2.38
   0   4   1  654.44   19.90
   0   4   2  201.96   11.32
   0   4   3   30.95    4.67
   0   4   4    0.72    0.95
   0  -4  -5    6.45    1.63
   0  -4  -5    4.92    3.17
   0  -4  -6   78.17    5.13
   0  -4  -7   33.91    3.26
   0  -4  -7   32.63    3.22
   0  -4  -8    0.66    0.72
   0  -4  -8    2.68    1.04
   0  -4  -9   96.03    3.38
   0   5  -6   12.50    1.23
   0   5  -6   12.95    1.38
   0   5  -6   11.44    1.17
   0   5  -5    8.36    1.43
   0   5  -5    8.21    1.45
   0   5  -5    7.45    1.38
   0   5  -5    9.00    1.49
   0   5  -4   24.10    2.40
   0   5  -4   20.13    2.26
   0   5  -4   25.02    2.60
   0   5  -4   22.28    2.55
   0   5  -3    0.05    0.69
   0   5  -3    1.19    0.88
   0   5  -2    8.58    1.29
   0   5  -2    9.37    1.47
   0   5  -1   13.53    3.55
   0   5  -1   17.62    4.68
   0   5   0    7.40    2.41
   0   5   1   43.25    5.91
   0   5   2  161.79   11.70
   0   5   3    3.82    2.30
   0  -5  -4   70.49    4.53
   0  -5  -5   48.46    3.80
   0  -5  -5   52.69    4.13
   0  -5  -6    8.83    1.96
   0  -5  -6    8.52    1.57
   0  -5  -6   10.81    1.81
   0  -5  -7   13.27    2.11
   0  -5  -7   13.71    1.93
   0  -5  -8   23.83    2.18
   0  -5  -8   25.95    2.05
   0   6  -5   85.15    3.13
   0   6  -5   81.84    3.13
   0   6  -5   84.03    3.14
   0   6  -4   48.73    3.14
   0   6  -4   47.59    2.72
   0   6  -4   52.41    3.19
   0   6  -3   14.24    1.89
   0   6  -2   84.15    4.30
   0   6  -2   81.86    4.06
   0   6  -1  128.62    5.47
   0   6  -1  124.84    5.29
   0   6   0   32.67    2.85
   0   6   0   33.78    2.76
   0   6   1    8.18    1.46
   0   6   1    9.45    1.51
   0   6   2   79.65    4.16
   0   6   3  274.47    7.63
   0  -6  -4   97.48    5.38
   0  -6  -4   87.61    5.21
   0  -6  -5  119.72    6.10
   0  -6  -5  112.20    5.75
   0  -6  -6    6.93    1.51
   0  -6  -6    4.81    1.37
   0  -6  -7    0.05    0.69
   0  -6  -8    2.53    0.74
   0   7  -4   10.88    1.02
   0   7  -4   11.10    1.04
   0   7  -3   31.45    2.33
   0   7  -3   32.67    2.21
   0   7  -2    1.42    0.87
   0   7  -2    1.24    0.62
   0   7  -1    1.01    0.79
   0   7  -1    0.78    1.11
   0   7   0   67.72    3.90
   0   7   0   69.69    3.86
   0   7   1   39.40    3.02
   0   7   1   38.42    2.94
   0   7   2  110.78    5.00
   0   7   2  116.70    4.77
   0   7   3   10.19    1.51
   0  -7  -3   11.84    2.02
   0  -7  -4    1.49    1.13
   0  -7  -5    0.27    0.70
   0  -7  -5    0.35    0.78
   0  -7  -6    2.64    0.87
   0  -7  -6    1.71    0.70
   0  -7  -7    1.27    0.60
   0   8  -2    4.26    0.72
   0   8  -1    2.77    0.62
   0   8   0    0.38    0.49
   0  -8  -1    0.39    0.61
   0   8   1    1.00    0.57
   0   8   1    0.21    0.60
   0   8   2    1.99    0.66
   0  -8  -2    2.72    0.98
   0   8   2    3.40    0.89
   0  -8  -3    0.16    0.65
   0   8   3    0.54    0.46
   0  -8  -4    1.87    0.74
   0  -8  -5    0.40    0.52
   1  -8  -4    6.59    1.02
  -1   8   3    2.24    0.61
   1  -8  -3    2.41    0.90
   1  -8  -2    0.41    0.60
  -1   8   2    0.72    0.53
  -1   8   2    1.69    0.62
  -1   8   1    1.44    0.60
  -1   8   1    0.41    0.49
   1  -8  -1    0.98    0.68
  -1   8   0    0.45    0.47
  -1   8   0    1.00    0.56
  -1   8  -1    0.63    0.38
  -1   8  -1    0.14    0.30
   1  -7  -6    9.19    1.26
   1  -7  -6    7.65    0.97
   1  -7  -5    0.80    0.69
   1  -7  -5    1.86    0.90
   1  -7  -4    6.56    1.19
   1  -7  -4    5.66    1.35
  -1   7   3    0.38    0.50
   1  -7  -3    0.30    0.79
  -1   7   2    2.88    1.10
  -1   7   2    2.47    0.89
  -1   7   1   11.17    1.58
  -1   7   1   13.54    1.88
  -1   7   0   94.15    4.42
  -1   7   0  101.56    4.60
  -1   7  -1   68.84    3.60
  -1   7  -1   67.24    3.48
  -1   7  -2   54.74    2.65
  -1   7  -2   56.62    2.95
  -1   7  -3   -0.64    0.49
  -1   7  -3    0.09    0.47
   1  -6  -7    1.62    0.68
   1  -6  -6    4.54    1.07
   1  -6  -6    4.61    1.35
   1  -6  -5    4.22    1.17
   1  -6  -5    6.93    1.66
   1  -6  -4    1.21    0.89
  -1   6   3   98.11    4.50
  -1   6   2   26.23    2.53
  -1   6   1  289.82    8.36
  -1   6   0   53.86    3.64
  -1   6  -1    1.71    0.90
  -1   6  -1    1.25    0.77
  -1   6  -2   42.26    3.01
  -1   6  -2   41.87    2.87
  -1   6  -3   53.64    3.01
  -1   6  -3   54.79    3.13
  -1   6  -4   29.37    2.22
  -1   6  -4   28.86    2.05
  -1   6  -4   28.54    2.18
  -1   6  -5    0.92    0.51
  -1   6  -5    0.75    0.40
   1  -5  -8    1.31    0.65
   1  -5  -8    1.87    0.68
   1  -5  -7   10.70    1.76
   1  -5  -7    9.78    1.67
   1  -5  -6   74.73    4.89
   1  -5  -5    1.75    1.21
   1  -5  -5    2.27    0.98
   1  -5  -4   76.48    4.52
   1  -5  -3   17.10    2.06
  -1   5   2   63.83    7.63
  -1   5   1    2.45    1.57
  -1   5   0  116.67    9.50
  -1   5  -1    9.45    1.42
  -1   5  -2    0.64    0.77
  -1   5  -2    0.26    0.61
  -1   5  -2   -0.06    0.62
  -1   5  -3   30.30    2.78
  -1   5  -3   26.85    2.32
  -1   5  -4    4.64    1.30
  -1   5  -4    3.59    1.21
  -1   5  -5    7.59    1.24
  -1   5  -5    7.65    1.20
  -1   5  -5    7.37    1.51
  -1   5  -6    3.61    0.82
  -1   5  -6    3.26    0.73
   1  -4  -8   64.44    3.67
   1  -4  -8   59.96    3.28
   1  -4  -7  295.09    9.54
   1  -4  -7  296.85    9.34
   1  -4  -6    2.24    1.38
   1  -4  -6    2.32    0.87
   1  -4  -5  140.25    5.88
  -1   4   4  122.52   10.25
  -1   4   4  106.79    9.37
  -1   4   3   17.39    3.87
  -1   4   2    1.72    1.00
  -1   4   1   35.42    4.79
  -1   4   0  206.62   11.19
  -1   4   0  198.96   11.22
  -1   4  -1  412.01   17.85
  -1   4  -1  397.87   16.39
  -1   4  -1  384.07   17.98
  -1   4  -2    6.28    2.72
  -1   4  -2    5.53    2.26
  -1   4  -3  178.19    6.46
  -1   4  -3  191.35    6.84
  -1   4  -4    6.63    1.45
  -1   4  -4    8.28    1.60
  -1   4  -4    9.46    1.68
  -1   4  -4    6.69    1.33
  -1   4  -5   10.61    1.78
  -1   4  -5   12.61    1.86
  -1   4  -5   10.13    1.65
  -1   4  -5   10.93    1.79
  -1   4  -6   17.84    1.92
  -1   4  -6   18.81    2.08
  -1   4  -6   14.90    1.52
  -1   4  -7    2.45    0.70
   1  -3  -9   90.41    3.39
   1  -3  -8   17.12    2.18
   1  -3  -7   25.90    2.90
   1  -3  -7   24.15    2.30
   1  -3  -7   22.73    2.69
   1  -3  -6   50.06    3.40
   1  -3  -6   45.30    3.77
  -1   3   5   23.26    4.21
  -1   3   4   26.97    4.30
  -1   3   4   29.94    4.59
  -1   3   3  262.84   12.33
  -1   3   3  272.82   12.86
  -1   3   2  129.78    8.09
  -1   3   2  130.02    8.34
  -1   3   1  125.43    6.92
  -1   3   1  106.83    7.13
  -1   3   0   50.97    4.73
  -1   3   0   58.75    5.16
  -1   3  -1    0.37    1.08
  -1   3  -1   -0.41    0.97
  -1   3  -1   -0.90    1.13
  -1   3  -2   41.83    5.20
  -1   3  -2   37.16    5.26
  -1   3  -2   46.76    5.88
  -1   3  -3   17.12    3.82
  -1   3  -3   22.19    4.73
  -1   3  -4    0.76    1.25
  -1   3  -4   21.06    2.65
  -1   3  -5    0.58    0.73
  -1   3  -5    1.10    0.71
  -1   3  -5    1.15    1.02
  -1   3  -5   -0.08    0.90
  -1   3  -6   -0.26    0.86
  -1   3  -6    0.88    0.83
  -1   3  -6    1.23    0.99
  -1   3  -7   40.07    2.85
  -1   3  -7   38.35    2.75
  -1   3  -7   39.98    2.63
   1  -2  -9   -0.62    0.53
   1  -2  -9    1.01    0.58
   1  -2  -8    2.81    1.23
   1  -2  -8    2.52    0.77
   1  -2  -7   26.62    2.40
   1  -2  -7   25.24    2.93
   1  -2  -6    2.94    0.91
  -1   2   5  102.15    8.37
  -1   2   4   96.41    7.18
   1  -2  -4   98.89    7.32
  -1   2   4   97.41    7.42
  -1   2   3   19.84    3.17
  -1   2   2  461.26   11.14
  -1   2   2  446.96   13.37
  -1   2   1  198.06    7.52
  -1   2   1  199.85    7.97
  -1   2   0    1.17    1.07
  -1   2   0    1.84    1.13
  -1   2  -1    1.24    0.80
  -1   2  -1    1.15    0.94
  -1   2  -1    0.53    1.13
  -1   2  -2   18.48    3.25
  -1   2  -2   18.27    3.24
  -1   2  -2   18.47    2.95
  -1   2  -3   37.40    4.99
  -1   2  -3   35.96    4.80
  -1   2  -3   42.39    5.22
  -1   2  -4   18.76    4.11
  -1   2  -4   15.16    3.76
  -1   2  -5   14.42    1.98
  -1   2  -5   10.00    1.68
  -1   2  -5   13.16    1.83
  -1   2  -5   12.28    1.83
  -1   2  -5   11.69    1.98
  -1   2  -6    4.16    1.28
  -1   2  -6    4.64    1.35
  -1   2  -6    2.73    0.96
  -1   2  -6    5.30    1.31
  -1   2  -7    2.65    1.05
  -1   2  -7    3.31    1.09
  -1   2  -7    2.63    1.02
  -1   2  -7    1.43    0.92
  -1   2  -8    2.15    0.64
   1  -1  -9   -0.04    0.53
   1  -1  -8   11.15    1.85
   1  -1  -8   14.98    1.57
   1  -1  -7   55.12    3.53
   1  -1  -7   47.83    3.90
   1  -1  -6    2.01    1.12
  -1   1   5  125.92    8.96
  -1   1   4    0.33    0.93
   1  -1  -4    0.24    1.05
  -1   1   3    3.76    1.36
   1  -1  -3    4.76    1.41
  -1   1   2  137.95    6.46
  -1   1   1  288.75    8.17
  -1   1   0  117.07    3.53
  -1   1   0  124.86    4.55
  -1   1  -1    7.38    1.55
  -1   1  -1    6.99    1.51
  -1   1  -2  217.01    8.90
  -1   1  -2  215.62    9.05
  -1   1  -2  213.92    9.05
  -1   1  -2  229.31    9.48
  -1   1  -3  262.84   11.36
  -1   1  -3  259.00   11.05
  -1   1  -3  260.55   11.87
  -1   1  -3  253.20   11.58
  -1   1  -4 1198.91   30.62
  -1   1  -4 1238.46   29.78
  -1   1  -4 1197.00   30.28
  -1   1  -5   83.74    8.72
  -1   1  -5   75.25    7.96
  -1   1  -5   75.21    8.36
  -1   1  -6  169.63    6.01
  -1   1  -6  170.98    6.56
  -1   1  -6  172.92    6.29
  -1   1  -6  162.45    7.11
  -1   1  -6  170.33    6.89
  -1   1  -7    0.60    0.89
  -1   1  -7    2.50    1.30
  -1   1  -7    1.04    0.90
  -1   1  -7    0.57    0.75
  -1   1  -7    2.42    1.43
  -1   1  -8    7.16    1.38
  -1   1  -8    4.85    1.16
   1   0  -9    3.86    0.82
   1   0  -8   30.35    2.51
   1   0  -8   30.02    2.34
   1   0  -8   33.45    2.28
   1   0  -7   25.83    2.50
   1   0  -7   23.35    2.59
   1   0  -6  177.28    6.85
   1   0  -6  169.88    6.62
   1   0  -6  173.25    6.47
   1   0  -6  161.08    6.82
  -1   0   5   25.32    4.20
   1   0  -4   28.29    3.52
   1   0  -4   25.47    3.74
  -1   0   4   25.37    3.61
   1   0  -3  162.52    7.57
  -1   0   3  162.02    8.01
   1   0  -3  168.20    6.95
   1   0  -2  440.37   10.39
   1   0  -2  430.94    9.99
   1   0  -2  436.46    9.83
  -1   0   2  437.23   11.34
   1   0  -2  427.31    8.92
   1   0  -1   59.93    2.37
   1   0  -1   56.53    3.16
   1   0  -1   55.96    1.71
   1   0   0 1390.10   17.31
  -1   0   0 1421.18   16.12
  -1   0   0 1402.80   13.73
  -1   0   0 1416.12   14.53
  -1   0  -1    8.34    1.27
  -1   0  -1    7.08    1.25
   1   0   1    6.92    0.78
  -1   0  -1    6.92    1.20
  -1   0  -1    6.96    1.25
   1   0   2 9697.50   85.09
  -1   0  -2 9902.77   94.04
  -1   0  -2 9999.00   96.76
   1   0   3  199.30    8.13
  -1   0  -3  211.17    8.27
  -1   0  -3  200.39    9.50
  -1   0  -3  204.40    9.68
  -1   0  -3  203.75    9.48
  -1   0  -4  987.84   25.24
  -1   0  -4 1007.75   25.97
  -1   0  -4  996.30   25.99
  -1   0  -5    6.10    2.83
  -1   0  -5    4.71    2.05
  -1   0  -6    9.28    1.70
  -1   0  -6    6.45    1.73
  -1   0  -6    9.69    1.63
  -1   0  -7   19.37    2.67
  -1   0  -7   25.77    2.50
  -1   0  -7   23.21    2.62
  -1   0  -7   23.13    2.81
  -1   0  -8    0.71    0.89
  -1   0  -8   -0.45    0.80
  -1   0  -9    2.84    0.85
   1   1  -8   11.61    1.51
   1   1  -8   11.63    1.32
   1   1  -7    0.98    0.83
   1   1  -7    0.14    0.68
   1   1  -6    4.79    1.39
   1   1  -6    6.13    1.57
   1   1  -6    4.09    1.14
   1   1  -6    4.43    1.08
   1   1  -5   29.45    4.99
  -1  -1   4   30.35    4.16
   1   1  -4   30.18    4.37
   1   1  -4   32.92    4.40
   1   1  -3    0.18    0.66
   1   1  -3    1.09    1.27
  -1  -1   3    0.74    0.92
   1   1  -3    0.19    1.00
   1   1  -2    3.49    1.45
   1   1  -2    1.60    0.77
   1   1  -2    1.81    0.94
   1   1  -1  932.96   13.03
   1   1  -1  933.59   15.00
   1   1  -1  936.79   14.24
   1   1   0 1294.49   18.42
   1   1   1  305.87    8.98
   1   1   1  331.64    7.25
   1   1   2  476.37    8.93
   1   1   2  470.10    7.62
  -1  -1  -2  466.86    8.19
   1   1   3   60.32    2.89
   1   1   3   60.98    3.07
   1   1   3   54.97    4.47
  -1  -1  -3   57.29    5.15
  -1  -1  -4    7.65    2.39
  -1  -1  -5   43.97    5.86
  -1  -1  -6    0.20    1.00
  -1  -1  -6    2.17    1.14
  -1  -1  -6    0.37    0.88
  -1  -1  -7    2.25    0.95
  -1  -1  -7    2.80    1.56
  -1  -1  -7    4.07    1.39
  -1  -1  -8    1.19    0.99
  -1  -1  -8   -0.06    0.93
  -1  -1  -8    1.30    1.06
  -1  -1  -9    0.83    0.68
   1   2  -8    9.83    1.31
   1   2  -8    9.41    1.04
   1   2  -7   23.49    2.23
   1   2  -7   18.83    2.39
   1   2  -7   24.98    2.63
   1   2  -7   19.31    1.79
   1   2  -6    0.56    0.80
   1   2  -6    1.63    1.16
   1   2  -6    1.33    1.05
   1   2  -6    0.78    0.93
   1   2  -5    1.37    0.87
   1   2  -5   -0.57    0.94
   1   2  -5    0.77    0.90
   1   2  -5    1.19    1.04
   1   2  -5    1.21    0.76
   1   2  -4  256.25   13.23
  -1  -2   4  250.58   12.89
   1   2  -4  257.59   14.29
   1   2  -3   24.49    3.79
   1   2  -3   23.13    3.82
   1   2  -2  169.64    7.04
   1   2  -2  149.82    7.89
   1   2  -1  586.52   13.28
   1   2  -1  581.83   13.12
   1   2   0  129.64    6.33
   1   2   1  175.10    7.86
   1   2   1  187.72    7.06
   1   2   2    7.53    2.12
   1   2   2    5.36    1.38
   1   2   3    7.98    1.67
   1   2   3   10.69    2.66
   1   2   4   -0.09    1.05
  -1  -2  -4   -0.63    1.30
  -1  -2  -5    8.90    2.85
  -1  -2  -6    0.49    0.94
  -1  -2  -6    0.18    0.96
  -1  -2  -6    0.34    0.72
  -1  -2  -6   -0.27    0.91
  -1  -2  -7    0.98    1.20
  -1  -2  -7    2.43    1.07
  -1  -2  -7    0.96    0.77
  -1  -2  -7    2.47    1.21
  -1  -2  -8   11.15    1.80
  -1  -2  -8   10.23    1.63
  -1  -2  -8    9.75    2.03
  -1  -2  -9   17.03    1.50
  -1  -2  -9   12.33    1.48
   1   3  -7    2.81    0.80
   1   3  -7    3.86    1.12
   1   3  -7    1.14    0.73
   1   3  -7    2.83    0.85
   1   3  -6   55.49    3.55
   1   3  -6   61.39    4.01
   1   3  -6   57.89    3.79
   1   3  -6   58.08    4.25
   1   3  -5   75.72    4.31
   1   3  -5   90.88    4.78
   1   3  -5   81.08    4.97
   1   3  -5   91.08    4.81
   1   3  -5   85.92    4.85
  -1  -3   4    0.38    1.18
   1   3  -4    1.43    2.10
   1   3  -4   -0.44    1.52
   1   3  -3  219.98   13.27
   1   3  -3  206.28   12.25
   1   3  -2   -0.55    0.73
   1   3  -2   -0.75    1.72
   1   3  -1   14.80    2.64
   1   3  -1   12.87    2.34
   1   3   0  340.61   11.67
   1   3   0  350.35   12.90
   1   3   1   34.03    3.71
   1   3   1   30.81    4.10
   1   3   2   17.55    3.30
   1   3   2   17.10    2.86
   1   3   3  163.68   10.08
   1   3   3  157.93    8.40
   1   3   4  182.66    9.38
   1   3   4  183.29   11.16
  -1  -3  -5  198.60   13.39
  -1  -3  -6   26.87    2.88
  -1  -3  -6   21.46    2.74
  -1  -3  -6   20.31    2.32
  -1  -3  -7   42.45    3.82
  -1  -3  -7   48.60    3.93
  -1  -3  -7   43.88    3.45
  -1  -3  -8   15.68    1.89
  -1  -3  -8   19.34    2.45
  -1  -3  -8   18.08    1.99
  -1  -3  -9    2.21    0.63
   1   4  -7    1.15    0.51
   1   4  -7    0.76    0.41
   1   4  -6    9.42    1.54
   1   4  -6   10.49    1.60
   1   4  -6    9.68    1.60
   1   4  -6    7.74    1.28
   1   4  -5    8.66    1.68
   1   4  -5    9.74    1.73
   1   4  -5    7.51    1.69
   1   4  -5   10.30    1.71
   1   4  -5    8.81    1.83
   1   4  -4    2.10    1.04
   1   4  -4    0.28    0.98
   1   4  -4    0.76    1.05
   1   4  -3   61.21    7.89
   1   4  -3   66.68    7.95
   1   4  -2  139.29   10.85
   1   4  -2  124.32   10.19
   1   4  -1    0.95    1.35
   1   4   0   13.64    3.15
   1   4   0   18.66    3.29
   1   4   1  502.66   19.04
   1   4   1  449.51   16.25
   1   4   2    4.07    2.31
   1   4   2    0.65    1.08
   1   4   3  449.42   19.35
   1   4   3  398.33   16.09
   1   4   4   66.91    6.73
   1   4   4   62.82    7.51
  -1  -4  -5   16.24    4.05
  -1  -4  -6    1.63    1.10
  -1  -4  -6    0.36    0.79
  -1  -4  -6    0.75    1.01
  -1  -4  -6    1.41    1.41
  -1  -4  -7   -0.71    0.97
  -1  -4  -7    0.02    0.71
  -1  -4  -7    1.07    0.89
  -1  -4  -8   37.81    2.94
  -1  -4  -8   33.29    2.40
  -1  -4  -8   32.28    2.84
  -1  -4  -9    4.52    0.78
   1   5  -6   10.92    1.26
   1   5  -6   11.35    1.21
   1   5  -6   11.42    1.26
   1   5  -6   11.05    1.37
   1   5  -5   22.05    2.27
   1   5  -5   24.69    2.24
   1   5  -5   22.82    2.44
   1   5  -5   21.41    2.24
   1   5  -4    9.52    1.79
   1   5  -4   10.80    1.81
   1   5  -4   12.48    1.76
   1   5  -3   31.10    2.91
   1   5  -2   72.07    3.89
   1   5  -1   23.30    4.27
   1   5   0   13.48    3.25
   1   5   1    0.44    1.24
   1   5   2   36.61    5.58
   1   5   2   39.08    6.33
   1   5   3   46.60    6.33
   1   5   3   49.56    7.25
   1   5   4   87.80    8.71
  -1  -5  -4   85.47    4.95
  -1  -5  -5   20.40    2.80
  -1  -5  -5   17.40    2.44
  -1  -5  -6   40.81    3.45
  -1  -5  -6   42.66    3.82
  -1  -5  -7   45.92    3.24
  -1  -5  -7   53.00    4.02
  -1  -5  -7   47.74    3.11
  -1  -5  -8    0.96    0.91
  -1  -5  -8    0.59    0.65
   1   6  -5   37.52    2.23
   1   6  -5   37.10    2.24
   1   6  -5   37.76    2.18
   1   6  -4    0.87    0.69
   1   6  -4    1.09    0.82
   1   6  -4    0.22    0.57
   1   6  -3  220.08    7.65
   1   6  -3  227.92    7.27
   1   6  -2  128.24    5.56
   1   6  -2  139.83    5.32
   1   6  -1   43.62    3.14
   1   6  -1   45.65    3.22
   1   6   0  159.78    5.91
   1   6   0  158.55    6.00
   1   6   1  154.06    5.60
   1   6   1  159.71    5.98
  -1  -6  -2   11.05    1.99
   1   6   2    7.46    1.41
  -1  -6  -3   31.93    3.21
   1   6   3   28.50    2.44
  -1  -6  -4   61.91    4.42
  -1  -6  -4   62.61    4.25
  -1  -6  -5  153.89    6.87
  -1  -6  -5  148.80    6.77
  -1  -6  -6  114.44    4.78
  -1  -6  -6  111.92    5.75
  -1  -6  -6  109.23    5.43
  -1  -6  -7   68.20    3.57
  -1  -6  -7   71.33    3.37
  -1  -6  -7   73.01    4.18
  -1  -6  -8    8.46    0.94
   1   7  -4   76.10    2.84
   1   7  -4   80.80    2.76
   1   7  -3    0.75    0.55
   1   7  -3    2.06    0.79
   1   7  -2   13.68    1.89
   1   7  -2   17.62    1.84
   1   7  -1   20.96    2.12
   1   7  -1   19.95    1.97
   1   7   0    4.54    1.10
   1   7   0    6.86    1.41
   1   7   1    2.09    0.87
   1   7   1    1.65    1.01
  -1  -7  -2   46.62    3.64
   1   7   2   42.01    3.15
   1   7   3    9.91    1.47
  -1  -7  -3   11.79    1.78
  -1  -7  -3   10.09    1.82
  -1  -7  -4   87.30    5.03
  -1  -7  -5    6.76    1.53
  -1  -7  -6    1.10    0.70
  -1  -7  -6    1.96    0.81
  -1  -7  -7    1.24    0.61
  -1  -7  -7    2.23    0.75
   1   8  -2    0.10    0.39
  -1  -8   1    0.60    0.55
   1   8  -1    0.96    0.63
  -1  -8   0    4.93    1.12
   1   8   1    0.49    0.70
  -1  -8  -1    1.80    0.83
  -1  -8  -2    0.89    0.69
  -1  -8  -2    0.72    0.70
  -1  -8  -3    1.47    0.70
  -1  -8  -4    0.65    0.60
  -1  -8  -5   -0.17    0.51
  -1  -8  -6    0.95    0.39
   2  -8  -3   15.39    1.29
   2  -8  -2   11.08    1.19
  -2   8   2   13.20    1.06
   2  -8  -1    0.39    0.38
  -2   8   1    1.09    0.42
  -2   8   1    1.51    0.50
   2  -7  -5   21.45    1.81
   2  -7  -5   24.81    1.74
   2  -7  -4   12.71    1.56
  -2   7   4   11.42    1.43
   2  -7  -4   13.90    1.65
  -2   7   3    1.56    0.72
  -2   7   3    0.31    0.51
  -2   7   3    1.79    0.56
  -2   7   2   10.28    1.41
  -2   7   2   11.52    1.44
  -2   7   1    0.11    0.74
  -2   7   1   -0.18    0.60
  -2   7   0    3.59    1.10
  -2   7   0    2.09    0.79
  -2   7  -1    8.45    1.19
  -2   7  -1    8.78    1.19
  -2   7  -2   45.46    2.05
  -2   7  -2   45.33    2.19
  -2   7  -3   56.98    2.17
   2  -6  -7    0.29    0.43
   2  -6  -6    1.26    0.82
   2  -6  -5    1.43    1.05
   2  -6  -5    2.08    0.85
  -2   6   3    7.17    1.32
  -2   6   2    0.41    0.69
  -2   6   1   46.50    3.36
  -2   6   1   45.99    3.32
  -2   6   0   -0.33    0.80
  -2   6  -1  162.76    5.96
  -2   6  -1  162.28    5.94
  -2   6  -2   21.38    2.09
  -2   6  -2   23.06    2.06
  -2   6  -2   18.08    1.88
  -2   6  -3    7.05    1.07
  -2   6  -3    8.10    1.21
  -2   6  -4   28.17    1.84
  -2   6  -4   29.12    1.83
   2  -5  -7   -0.28    0.74
   2  -5  -7   -0.25    0.72
   2  -5  -6    1.01    1.08
   2  -5  -6    0.49    0.59
   2  -5  -5    9.30    1.74
   2  -5  -4  115.19    5.65
   2  -5  -3   72.22    4.46
  -2   5   2  151.45    5.66
   2  -5  -2  145.48    6.16
  -2   5   1    8.23    1.49
  -2   5   1    7.15    1.50
  -2   5   0   31.76    2.91
  -2   5   0   27.40    2.48
  -2   5  -1   10.45    1.58
  -2   5  -1    8.62    1.56
  -2   5  -1    8.17    1.51
  -2   5  -2   46.39    3.35
  -2   5  -2   47.54    3.38
  -2   5  -2   46.60    3.11
  -2   5  -3   -0.70    1.37
  -2   5  -3    3.89    1.25
  -2   5  -4    4.37    1.16
  -2   5  -5   22.53    1.71
  -2   5  -5   24.57    1.99
   2  -4  -8    1.76    0.74
   2  -4  -7   49.86    2.91
   2  -4  -7   46.88    3.36
   2  -4  -6   70.26    4.63
   2  -4  -6   72.21    4.16
   2  -4  -5  632.12   13.81
   2  -4  -4    1.56    0.94
  -2   4   3  275.89   16.01
  -2   4   2  106.33    9.41
  -2   4   1    9.00    2.68
  -2   4   0    2.83    1.61
  -2   4   0    1.21    1.14
  -2   4  -1   24.53    4.92
  -2   4  -1   23.51    4.70
  -2   4  -2  100.44   10.23
  -2   4  -3  143.45    6.11
  -2   4  -3  143.63    6.08
  -2   4  -4   -0.19    0.91
  -2   4  -4    2.31    1.27
  -2   4  -5   48.10    2.97
  -2   4  -5   41.99    3.26
  -2   4  -5   48.12    3.33
  -2   4  -6    7.95    1.27
  -2   4  -6    5.15    1.10
   2  -3  -8    0.48    0.74
   2  -3  -7  100.86    4.90
   2  -3  -6   24.76    2.53
   2  -3  -6   24.83    2.80
   2  -3  -6   22.07    2.37
   2  -3  -5   25.04    2.57
   2  -3  -5   22.29    2.37
  -2   3   4   29.86    5.15
  -2   3   4   22.44    4.28
  -2   3   3   15.61    3.42
  -2   3   3   20.11    4.02
  -2   3   2    1.84    0.91
  -2   3   1  279.68   13.10
  -2   3   1  287.45   12.68
  -2   3   1  280.56   12.57
  -2   3   0   66.85    6.54
  -2   3   0   65.63    5.99
  -2   3  -1   19.43    3.92
  -2   3  -1   18.63    3.70
  -2   3  -2    0.02    1.19
  -2   3  -2    1.42    1.69
  -2   3  -2   -0.62    1.38
  -2   3  -3    3.34    1.72
  -2   3  -3    0.09    1.53
  -2   3  -3    2.62    1.76
  -2   3  -4   10.85    1.93
  -2   3  -4   10.72    1.97
  -2   3  -4    8.44    1.64
  -2   3  -4    9.06    1.77
  -2   3  -5    3.55    1.37
  -2   3  -5    5.63    1.71
  -2   3  -6    0.21    0.70
  -2   3  -6   -2.13    1.13
  -2   3  -6   -0.76    0.83
  -2   3  -7    0.36    0.56
  -2   3  -7   -0.49    0.50
  -2   3  -7    0.51    0.57
   2  -2  -8   21.43    1.84
   2  -2  -8   23.06    2.27
   2  -2  -7    8.69    1.49
   2  -2  -6   -0.86    0.73
   2  -2  -6    0.52    0.86
  -2   2   5   27.12    4.84
  -2   2   4   41.60    5.58
  -2   2   3  224.95   11.59
  -2   2   2   91.39    6.73
  -2   2   2   92.34    6.53
  -2   2   1   19.51    3.00
  -2   2   1   17.17    2.85
  -2   2   0  513.26   16.30
  -2   2   0  498.03   13.70
  -2   2  -1   40.16    3.71
  -2   2  -1   38.90    4.70
  -2   2  -1   40.50    3.78
  -2   2  -1   37.94    4.25
  -2   2  -2    0.99    1.16
  -2   2  -2    1.23    1.01
  -2   2  -2    2.38    1.47
  -2   2  -3    9.41    2.61
  -2   2  -3    6.32    2.38
  -2   2  -3   10.81    2.87
  -2   2  -4    1.87    1.29
  -2   2  -4   -0.22    1.57
  -2   2  -4    3.70    2.02
  -2   2  -5    6.88    1.55
  -2   2  -5    8.10    1.45
  -2   2  -5    9.90    1.81
  -2   2  -5    9.15    1.61
  -2   2  -5   11.85    1.94
  -2   2  -5   10.79    1.78
  -2   2  -5    6.87    1.43
  -2   2  -6    1.45    1.08
  -2   2  -6    3.56    1.35
  -2   2  -6    5.57    1.53
  -2   2  -6    0.36    1.09
  -2   2  -6    2.62    0.99
  -2   2  -7    0.86    0.89
  -2   2  -7    0.37    0.85
  -2   2  -7    0.00    0.73
  -2   2  -7   -0.43    0.60
  -2   2  -8   14.31    1.36
   2  -1  -8    0.61    0.80
   2  -1  -8   -0.20    0.51
   2  -1  -7    8.14    1.67
   2  -1  -7   10.61    1.67
   2  -1  -6   42.79    3.29
  -2   1   5   71.04    7.60
  -2   1   4    6.73    2.27
  -2   1   3  495.40   16.50
  -2   1   2   29.44    3.53
  -2   1   1    3.34    1.24
  -2   1   1    1.31    1.33
  -2   1   0  211.12    6.85
  -2   1   0  208.24    9.21
  -2   1   0  212.88    7.36
  -2   1  -1  350.28    9.74
  -2   1  -1  345.61   10.62
  -2   1  -1  327.04   12.45
  -2   1  -2   67.43    5.61
  -2   1  -2   60.98    5.57
  -2   1  -2   61.12    4.99
  -2   1  -2   63.19    5.37
  -2   1  -3    7.67    2.21
  -2   1  -3    6.06    2.04
  -2   1  -3    6.99    2.20
  -2   1  -3    9.97    2.71
  -2   1  -4   39.42    5.66
  -2   1  -4   49.33    5.86
  -2   1  -4   46.76    6.12
  -2   1  -4   42.81    5.74
  -2   1  -5   64.06    7.92
  -2   1  -5   48.99    6.94
  -2   1  -6  531.03   12.48
  -2   1  -6  507.76   12.61
  -2   1  -6  536.73   11.44
  -2   1  -6  529.42   12.61
  -2   1  -6  510.26   11.63
  -2   1  -6  521.34   11.56
  -2   1  -6  514.75   11.31
  -2   1  -7    8.03    1.75
  -2   1  -7    8.95    1.71
  -2   1  -7   11.88    2.00
  -2   1  -7   10.53    1.63
  -2   1  -8  125.33    4.93
  -2   1  -8  122.14    4.57
   2   0  -8    9.80    1.26
   2   0  -7    1.25    0.95
   2   0  -6   89.16    4.76
   2   0  -6   87.35    4.26
  -2   0   5   28.06    4.87
  -2   0   4  373.36   15.84
  -2   0   3   77.66    6.30
   2   0  -2  136.62    7.09
   2   0  -2  135.39    4.97
  -2   0   2  134.86    7.33
   2   0  -1  137.98    6.50
  -2   0   1  134.98    6.19
   2   0   0  310.24    9.13
  -2   0   0  305.29    7.96
   2   0   1   45.28    3.17
  -2   0  -1   47.91    2.10
  -2   0  -1   43.64    3.33
  -2   0  -1   41.78    4.07
  -2   0  -1   41.58    2.95
  -2   0  -2  191.00    8.67
  -2   0  -2  202.82    8.68
  -2   0  -2  195.39    8.27
  -2   0  -2  213.21    8.90
   2   0   2  197.03    5.46
  -2   0  -3   22.36    3.47
  -2   0  -3   22.46    3.21
  -2   0  -3   24.99    3.66
  -2   0  -3   21.79    3.39
  -2   0  -4 1817.86   37.85
  -2   0  -4 1780.70   33.55
  -2   0  -4 1778.66   37.24
  -2   0  -4 1694.18   37.20
  -2   0  -5   84.69    8.76
  -2   0  -6  369.93   10.51
  -2   0  -6  354.22    9.15
  -2   0  -6  355.10   10.14
  -2   0  -6  351.95   10.12
  -2   0  -7    1.30    0.91
  -2   0  -7    3.19    1.19
  -2   0  -7    0.85    1.00
  -2   0  -7    0.41    0.80
  -2   0  -8    0.20    0.86
  -2   0  -8    1.70    1.02
  -2   0  -8    0.27    0.89
  -2   0  -9    7.48    1.05
   2   1  -8   -0.29    0.49
   2   1  -7    1.70    0.89
   2   1  -7    1.53    0.70
   2   1  -6    5.66    1.39
   2   1  -6    4.27    1.26
   2   1  -6    4.22    1.27
  -2  -1   5    3.15    1.53
  -2  -1   4   27.72    4.51
   2   1  -3  171.39    8.63
   2   1  -3  165.89    8.80
  -2  -1   3  166.87    9.58
   2   1  -2    1.46    0.87
  -2  -1   2    1.57    1.20
   2   1  -2    1.30    0.98
   2   1  -1   25.90    1.40
   2   1  -1   24.66    2.86
   2   1  -1   27.84    2.69
   2   1   0  221.82    7.78
   2   1   0  226.65    8.58
  -2  -1   0  202.99    5.19
   2   1   1  416.97   10.42
  -2  -1  -1  393.78   10.36
  -2  -1  -2   12.69    2.21
  -2  -1  -2   13.61    2.17
   2   1   2   15.45    1.83
   2   1   2   14.91    2.70
   2   1   3   61.32    5.68
  -2  -1  -3   55.75    4.21
  -2  -1  -3   57.49    5.48
   2   1   4  106.14    8.14
  -2  -1  -4   91.86    7.90
  -2  -1  -5   18.46    4.05
  -2  -1  -6    5.71    1.41
  -2  -1  -6    8.84    1.85
  -2  -1  -6    9.47    2.07
  -2  -1  -6    8.46    1.67
  -2  -1  -6    6.81    1.17
  -2  -1  -7    8.77    1.91
  -2  -1  -7    7.13    1.73
  -2  -1  -7    3.96    1.08
  -2  -1  -8   -1.44    1.14
  -2  -1  -8    0.16    0.92
  -2  -1  -9    1.86    0.75
   2   2  -8   20.91    1.47
   2   2  -7   63.97    3.60
   2   2  -7   64.47    3.72
   2   2  -7   67.56    3.38
   2   2  -6   42.01    3.29
   2   2  -6   35.89    3.14
   2   2  -6   36.45    3.21
   2   2  -6   32.23    2.80
   2   2  -5   49.33    3.65
   2   2  -5   49.76    3.71
   2   2  -5   48.08    3.45
   2   2  -5   47.96    3.33
  -2  -2   4    5.27    2.35
   2   2  -4    4.06    2.22
  -2  -2   3    2.91    1.66
   2   2  -3    2.10    1.26
   2   2  -3    1.48    1.23
   2   2  -2  647.77   17.19
   2   2  -2  657.35   15.82
   2   2  -1  144.13    7.35
   2   2  -1  158.39    7.24
   2   2  -1  149.68    6.27
   2   2   0  392.00   11.90
   2   2   0  393.25   12.73
   2   2   1  634.06   15.04
   2   2   1  646.55   17.63
   2   2   2   75.61    4.83
  -2  -2  -2   71.44    4.24
   2   2   2   78.91    6.53
   2   2   3   66.77    6.47
   2   2   3   60.70    4.30
  -2  -2  -3   62.61    5.92
  -2  -2  -4    0.15    1.26
   2   2   4    1.96    1.81
  -2  -2  -5    0.83    1.20
  -2  -2  -6   -0.24    0.88
  -2  -2  -6    0.02    1.14
  -2  -2  -6    1.75    1.27
  -2  -2  -6    0.66    0.75
  -2  -2  -6    1.35    0.80
  -2  -2  -6   -0.11    1.02
  -2  -2  -7   -0.64    1.18
  -2  -2  -7    1.57    1.23
  -2  -2  -7    0.35    1.19
  -2  -2  -7    0.62    0.97
  -2  -2  -8    7.07    1.46
  -2  -2  -8    4.70    1.27
  -2  -2  -9    3.78    1.01
  -2  -2  -9    3.22    0.81
   2   3  -7    2.22    0.79
   2   3  -7    2.33    0.81
   2   3  -7    2.21    0.70
   2   3  -6    1.68    0.95
   2   3  -6    3.71    1.17
   2   3  -6    2.24    1.06
   2   3  -6    4.27    1.24
   2   3  -5    3.42    1.29
   2   3  -5    4.89    1.45
   2   3  -5    7.31    1.50
   2   3  -5    4.19    1.29
   2   3  -4   95.41    4.70
   2   3  -4   90.52    4.79
   2   3  -4   93.35    4.59
   2   3  -3  142.76   10.79
   2   3  -2    2.73    1.45
   2   3  -1  295.00   12.02
   2   3  -1  302.30   11.83
   2   3   0    2.74    1.35
   2   3   0    1.52    1.22
   2   3   1   63.22    5.35
   2   3   1   60.88    6.09
   2   3   2  305.00   11.90
   2   3   2  314.18   14.27
   2   3   3    0.35    1.54
   2   3   3    0.30    0.83
  -2  -3  -4    4.52    2.03
   2   3   4    2.19    2.23
  -2  -3  -5  100.35    9.90
  -2  -3  -6   40.59    3.36
  -2  -3  -6   44.89    3.60
  -2  -3  -6   49.77    3.84
  -2  -3  -6   49.94    4.20
  -2  -3  -7  120.45    6.09
  -2  -3  -7  114.89    5.71
  -2  -3  -7  112.47    6.13
  -2  -3  -7  114.51    5.26
  -2  -3  -8    4.66    1.11
  -2  -3  -8    7.06    1.41
  -2  -3  -9   16.63    1.31
  -2  -3  -9   18.54    1.48
   2   4  -7    0.53    0.42
   2   4  -7    0.89    0.42
   2   4  -6    9.07    1.54
   2   4  -6   11.42    1.56
   2   4  -6    7.72    1.29
   2   4  -5    4.70    1.54
   2   4  -5    5.45    1.35
   2   4  -5    3.18    1.18
   2   4  -5    4.21    1.33
   2   4  -4   13.65    2.04
   2   4  -4   14.40    2.05
   2   4  -3    2.72    1.02
   2   4  -3    0.93    0.83
   2   4  -2    1.27    1.28
   2   4  -1  127.33    8.93
   2   4   0  114.15    8.37
   2   4   0  111.04    8.92
   2   4   1   30.40    4.30
   2   4   1   32.89    5.35
   2   4   2   88.28    8.66
   2   4   2   87.08    7.31
   2   4   3  174.89   10.49
   2   4   3  196.60   13.22
   2   4   4    6.64    2.82
  -2  -4  -5  137.89    6.58
  -2  -4  -5  135.09    6.26
  -2  -4  -6   14.33    2.23
  -2  -4  -6   13.96    2.43
  -2  -4  -7   12.70    1.93
  -2  -4  -7   12.00    2.16
  -2  -4  -7   10.16    1.78
  -2  -4  -7   15.29    2.14
  -2  -4  -8    0.57    0.70
  -2  -4  -9    0.95    0.49
   2   5  -6    3.02    0.69
   2   5  -6    2.28    0.66
   2   5  -6    4.36    0.82
   2   5  -5    2.39    0.96
   2   5  -5    0.79    0.72
   2   5  -5    0.68    0.71
   2   5  -4   53.71    3.78
   2   5  -4   56.71    3.69
   2   5  -3   24.65    2.67
   2   5  -3   21.39    2.33
   2   5  -2   -0.29    0.81
   2   5  -1   64.73    7.21
   2   5   0  116.68    9.65
   2   5   0  113.45   10.37
   2   5   1  123.77   10.01
   2   5   1  135.00   11.67
   2   5   2    3.85    2.65
   2   5   2    1.89    1.87
   2   5   3   38.51    5.75
   2   5   3   40.84    6.86
  -2  -5  -4   71.13    4.64
  -2  -5  -4   64.62    3.83
  -2  -5  -4   68.43    4.40
  -2  -5  -5   35.04    3.34
  -2  -5  -5   33.13    3.26
  -2  -5  -6   29.10    3.00
  -2  -5  -6   28.14    3.12
  -2  -5  -7   20.41    2.30
  -2  -5  -7   15.55    1.98
  -2  -5  -7   16.04    2.05
  -2  -5  -7   18.74    2.47
  -2  -5  -8   16.05    1.66
  -2  -5  -8   16.91    1.61
   2   6  -5    5.18    0.89
   2   6  -5    3.76    0.73
   2   6  -5    3.92    0.80
   2   6  -4    5.50    1.19
   2   6  -4    6.37    1.33
   2   6  -4    4.49    1.06
   2   6  -3   41.47    3.23
   2   6  -3   47.66    3.20
  -2  -6   2    2.22    1.10
   2   6  -2    2.02    1.05
   2   6  -2    2.00    0.91
   2   6  -1  360.21    9.24
   2   6   0  240.66    7.61
   2   6   1   75.86    3.92
   2   6   1   71.57    4.09
  -2  -6  -2  212.66    7.64
   2   6   2  203.45    6.78
  -2  -6  -3   94.48    5.30
  -2  -6  -3   96.92    5.00
  -2  -6  -4    1.05    0.98
  -2  -6  -4    1.45    0.95
  -2  -6  -5   22.41    2.70
  -2  -6  -5   25.06    2.45
  -2  -6  -5   25.47    2.78
  -2  -6  -6   28.23    2.88
  -2  -6  -6   30.59    2.62
  -2  -6  -6   24.39    2.65
  -2  -6  -7   45.36    2.80
  -2  -6  -7   42.36    2.96
  -2  -6  -7   42.89    2.72
  -2  -6  -7   43.13    3.17
  -2  -6  -8   66.00    2.59
   2   7  -4   12.72    1.09
  -2  -7   3   12.26    1.43
   2   7  -3   11.91    1.41
   2   7  -3   13.61    1.52
   2   7  -3   11.65    1.27
  -2  -7   2  103.42    4.59
   2   7  -2   97.95    4.38
   2   7  -2   99.58    3.99
  -2  -7   1    3.04    1.20
  -2  -7   0   18.43    2.42
  -2  -7  -1    1.31    0.88
   2   7   1    0.99    0.84
  -2  -7  -2    8.44    1.58
  -2  -7  -2   12.23    1.99
  -2  -7  -3    0.82    1.04
  -2  -7  -3    1.80    0.95
  -2  -7  -4   18.04    2.36
  -2  -7  -5    1.18    0.88
  -2  -7  -6   38.98    2.30
  -2  -7  -6   36.85    2.80
  -2  -7  -6   38.53    2.62
  -2  -7  -7    3.69    0.80
  -2  -7  -7    2.57    0.57
  -2  -8   2    1.41    0.46
  -2  -8   1   30.83    2.20
   2   8  -1   25.88    1.76
  -2  -8   0   -0.24    0.71
  -2  -8  -1    2.10    0.93
  -2  -8  -2    3.06    1.00
  -2  -8  -3    1.19    0.65
  -2  -8  -3    0.39    0.54
  -2  -8  -4   -0.07    0.55
  -2  -8  -4   -0.32    0.57
  -2  -8  -5    3.12    0.79
  -2  -8  -6    1.19    0.49
  -3   7   4   -0.26    0.34
   3  -7  -3   18.93    1.67
  -3   7   3   16.80    1.26
  -3   7   3   16.91    1.45
  -3   7   2    8.68    1.11
  -3   7   2    8.05    1.01
  -3   7   2    7.99    1.05
  -3   7   1    0.83    0.56
  -3   7   1    0.86    0.55
  -3   7   0   10.43    1.21
  -3   7   0    8.91    1.10
  -3   7  -1    0.96    0.48
  -3   7  -1    1.66    0.53
   3  -6  -6    5.42    0.92
   3  -6  -5    1.02    0.72
   3  -6  -4    2.14    0.90
  -3   6   3    1.10    0.78
  -3   6   2    1.01    0.78
  -3   6   2    0.39    0.80
  -3   6   1    3.82    1.14
  -3   6   1    3.80    1.17
  -3   6   0    2.78    0.99
  -3   6   0    3.09    1.02
  -3   6  -1    4.85    1.03
  -3   6  -1    5.50    1.07
  -3   6  -1    6.57    1.14
  -3   6  -2    8.08    1.12
  -3   6  -2    7.40    1.07
  -3   6  -2    7.24    1.10
  -3   6  -3   42.38    2.21
   3  -5  -7    3.78    0.85
   3  -5  -6    9.46    1.30
   3  -5  -6    9.51    1.49
   3  -5  -5    1.79    0.80
   3  -5  -4    0.33    0.75
   3  -5  -3    2.21    1.03
  -3   5   3    2.46    0.94
  -3   5   2  108.62    4.97
  -3   5   2  109.62    5.46
   3  -5  -2  112.83    5.39
  -3   5   1  161.98    6.17
  -3   5   1  161.77    6.86
  -3   5   1  170.85    7.02
  -3   5   0  112.86    5.25
  -3   5   0  118.80    5.88
  -3   5  -1   53.65    3.85
  -3   5  -1   60.09    3.65
  -3   5  -1   56.45    3.63
  -3   5  -2    6.79    1.28
  -3   5  -2   11.55    1.61
  -3   5  -2   11.71    1.79
  -3   5  -3    4.11    1.03
  -3   5  -3    4.97    1.22
  -3   5  -4   15.22    1.69
  -3   5  -5   -0.20    0.42
   3  -4  -7    6.26    0.99
   3  -4  -7    5.50    1.03
   3  -4  -6    2.60    0.88
   3  -4  -6    2.31    0.99
   3  -4  -5   32.29    2.96
   3  -4  -4   38.26    3.28
   3  -4  -3  726.93   15.00
  -3   4   3  740.86   14.60
  -3   4   2    3.32    1.08
  -3   4   2    3.48    1.08
   3  -4  -2    3.74    1.11
  -3   4   1  315.74    9.09
  -3   4   1  320.87    9.46
  -3   4   0   69.19    4.25
  -3   4   0   66.41    4.31
  -3   4   0   72.88    4.50
  -3   4  -1    0.96    0.69
  -3   4  -1    0.27    0.92
  -3   4  -2    3.48    1.39
  -3   4  -2    1.56    1.15
  -3   4  -2    1.20    1.19
  -3   4  -2    0.76    1.01
  -3   4  -3   16.22    2.27
  -3   4  -3   16.34    2.14
  -3   4  -4   26.35    2.75
  -3   4  -4   25.52    2.55
  -3   4  -4   29.17    2.61
  -3   4  -5   46.11    3.02
  -3   4  -5   47.46    2.96
  -3   4  -5   51.33    3.14
  -3   4  -6    1.88    0.60
  -3   4  -6    0.35    0.44
   3  -3  -8    1.52    0.65
   3  -3  -7    5.24    0.92
   3  -3  -6    1.81    0.89
   3  -3  -6    2.00    1.05
   3  -3  -5   51.03    3.70
   3  -3  -4   18.18    2.22
  -3   3   3   11.09    3.39
  -3   3   2    1.49    1.30
  -3   3   1   17.49    3.92
  -3   3   0    0.68    0.89
  -3   3   0    0.74    1.18
  -3   3  -1  132.74   11.06
  -3   3  -2   20.03    4.77
  -3   3  -3    8.41    1.69
  -3   3  -3   11.15    1.74
  -3   3  -3    8.56    1.58
  -3   3  -3   11.71    1.81
  -3   3  -4   10.79    1.80
  -3   3  -4   10.03    1.89
  -3   3  -4   10.59    1.82
  -3   3  -4   16.20    2.17
  -3   3  -4    9.85    1.89
  -3   3  -5    3.63    1.58
  -3   3  -5    2.69    1.24
  -3   3  -6   -0.41    0.83
  -3   3  -6    1.25    0.76
  -3   3  -6    0.17    0.60
  -3   3  -7   -0.58    0.37
   3  -2  -8    9.33    1.21
   3  -2  -7   24.53    2.20
   3  -2  -7   22.34    2.02
   3  -2  -6  106.87    5.14
   3  -2  -6   97.75    4.92
   3  -2  -5   18.34    2.18
   3  -2  -5   17.37    2.21
  -3   2   4    5.99    2.70
  -3   2   3    5.06    2.13
  -3   2   2   89.80    7.93
  -3   2   2   81.37    7.18
  -3   2   1  153.03   10.32
  -3   2   1  162.12    9.30
  -3   2   0   16.25    2.77
  -3   2   0   23.86    4.25
  -3   2  -1   79.20    7.84
  -3   2  -2  122.59   10.24
  -3   2  -2  120.45    8.93
  -3   2  -3   -0.13    1.14
  -3   2  -3    0.23    1.45
  -3   2  -4    0.03    1.19
  -3   2  -4    1.55    1.08
  -3   2  -4   -1.50    1.37
  -3   2  -4    0.82    0.94
  -3   2  -4    0.07    0.88
  -3   2  -4    1.78    1.67
  -3   2  -5   10.57    1.90
  -3   2  -5   14.87    2.21
  -3   2  -5   13.92    1.97
  -3   2  -5   11.86    1.86
  -3   2  -5   15.32    2.25
  -3   2  -6    1.80    1.33
  -3   2  -6    2.10    1.31
  -3   2  -6    0.50    0.86
  -3   2  -7    1.37    0.71
  -3   2  -7    1.81    0.65
   3  -1  -8   91.31    3.42
   3  -1  -7   15.71    1.85
   3  -1  -7   13.74    1.94
   3  -1  -7   18.39    1.80
   3  -1  -6    6.74    1.44
   3  -1  -6    3.66    1.12
   3  -1  -5   87.56    4.69
   3  -1  -5   93.26    4.88
  -3   1   4   60.82    7.11
  -3   1   3   32.20    4.82
  -3   1   2   76.29    6.53
  -3   1   2   70.73    6.91
  -3   1   1  599.05   20.08
  -3   1   1  650.07   17.64
  -3   1   0  162.41   10.15
  -3   1   0  163.80    7.55
  -3   1  -1    3.57    1.60
  -3   1  -2  109.66    8.76
  -3   1  -2  106.10    7.26
  -3   1  -3  100.42    8.84
  -3   1  -3  105.15    8.29
  -3   1  -4   23.08    4.58
  -3   1  -4   22.77    4.60
  -3   1  -5   -0.16    0.84
  -3   1  -5   -1.31    1.06
  -3   1  -5   -0.22    1.04
  -3   1  -5    0.58    0.83
  -3   1  -5    0.52    0.99
  -3   1  -5    1.69    1.05
  -3   1  -5    0.65    0.78
  -3   1  -6    6.37    1.47
  -3   1  -6    4.47    1.37
  -3   1  -6    6.56    1.59
  -3   1  -6    7.75    1.66
  -3   1  -6    7.42    1.73
  -3   1  -7   12.63    1.91
  -3   1  -7   11.60    1.82
  -3   1  -7   10.76    1.51
  -3   1  -7   12.33    1.86
   3   0  -8    6.71    0.99
   3   0  -7   90.15    4.38
   3   0  -6    6.57    1.38
   3   0  -6    5.79    1.48
   3   0  -5    9.58    1.61
   3   0  -5   10.19    1.69
   3   0  -5    6.77    1.28
  -3   0   4  131.78   10.60
  -3   0   3   14.02    3.11
   3   0  -2  458.98   16.15
  -3   0   2  470.64   16.13
   3   0  -1   84.15    6.31
  -3   0   1   76.63    5.66
   3   0   0   98.72    6.34
  -3   0   0   93.52    7.45
  -3   0   0   99.78    5.43
   3   0   1   23.10    2.89
  -3   0  -1   21.84    3.70
  -3   0  -1   20.56    2.55
  -3   0  -2   65.15    6.24
  -3   0  -2   74.90    5.38
  -3   0  -2   72.92    5.64
  -3   0  -3    9.85    2.56
  -3   0  -3   12.42    2.86
  -3   0  -3   12.92    2.90
   3   0   4   12.25    3.62
  -3   0  -4    8.52    2.79
  -3   0  -5   15.57    2.19
  -3   0  -5   17.49    2.14
  -3   0  -5   15.37    2.09
  -3   0  -5   14.56    1.80
  -3   0  -5   15.68    1.93
  -3   0  -6  298.32    9.28
  -3   0  -6  280.31    8.17
  -3   0  -6  298.40    9.01
  -3   0  -6  293.74    8.58
  -3   0  -6  316.38    9.63
  -3   0  -7   37.62    3.35
  -3   0  -7   42.29    2.93
  -3   0  -7   38.69    3.07
  -3   0  -7   43.25    3.52
  -3   0  -8  156.31    4.36
  -3   0  -8  118.61    4.76
   3   1  -8    0.15    0.37
   3   1  -7   26.26    2.28
   3   1  -6   10.37    1.56
   3   1  -6    8.32    1.56
   3   1  -6    6.81    1.34
   3   1  -5    5.16    1.26
   3   1  -5    4.41    1.21
   3   1  -5    5.62    1.28
  -3  -1   4    6.89    2.52
  -3  -1   3   16.48    3.55
   3   1  -3   14.73    3.04
   3   1  -2   62.75    5.82
  -3  -1   2   56.14    5.58
   3   1  -1  266.37   11.45
   3   1  -1  276.74   11.09
  -3  -1   1  259.08   10.62
   3   1   0   59.01    5.01
  -3  -1   0   67.76    4.59
   3   1   1   31.53    3.43
  -3  -1  -1   29.96    4.07
  -3  -1  -1   30.89    3.05
   3   1   2  159.83    7.46
   3   1   2  164.97   10.53
  -3  -1  -2  147.42    8.65
  -3  -1  -2  143.15    7.81
   3   1   3   47.44    6.03
  -3  -1  -3   44.85    4.81
  -3  -1  -3   41.96    4.99
   3   1   4   30.44    5.21
  -3  -1  -4   39.68    5.54
  -3  -1  -5   -0.91    1.65
  -3  -1  -6   23.62    2.80
  -3  -1  -6   23.12    2.83
  -3  -1  -6   23.80    2.61
  -3  -1  -6   19.74    2.11
  -3  -1  -7    5.69    1.44
  -3  -1  -7    6.21    1.34
  -3  -1  -7    6.37    1.79
  -3  -1  -8    4.41    1.13
  -3  -1  -8    4.51    1.45
   3   2  -7   57.38    3.13
   3   2  -7   52.93    2.81
   3   2  -6   78.15    4.35
   3   2  -6   78.10    4.15
   3   2  -5  165.83    6.49
   3   2  -5  170.75    6.73
   3   2  -5  159.43    6.47
   3   2  -5  164.99    6.43
   3   2  -4   68.54    4.12
   3   2  -4   68.66    4.05
   3   2  -4   62.19    3.78
   3   2  -3   53.17    5.89
  -3  -2   3   44.83    5.93
  -3  -2   2   36.93    4.81
   3   2  -2   37.12    4.76
   3   2  -1    5.39    1.88
  -3  -2   1    5.59    1.99
   3   2  -1    7.14    2.15
   3   2   0  622.32   17.71
   3   2   0  654.61   19.52
   3   2   1  254.75   10.65
   3   2   1  249.08   12.66
  -3  -2  -1  243.76    9.18
   3   2   2  292.67   11.07
   3   2   2  287.12   14.46
  -3  -2  -2  280.94   11.40
  -3  -2  -2  284.91   11.76
   3   2   3  297.74   15.46
  -3  -2  -3  269.55   13.12
  -3  -2  -4    9.25    2.87
   3   2   4   15.68    4.22
  -3  -2  -5   31.36    5.45
  -3  -2  -6    0.26    0.93
  -3  -2  -6    1.95    1.08
  -3  -2  -6   -0.05    1.08
  -3  -2  -7    0.68    0.80
  -3  -2  -7   -0.69    0.89
  -3  -2  -7    0.79    1.15
  -3  -2  -8    0.01    0.69
  -3  -2  -8    1.48    1.07
  -3  -2  -9    3.29    0.73
   3   3  -7   44.63    2.39
   3   3  -7   51.59    2.37
   3   3  -6    1.45    0.83
   3   3  -6    2.97    0.98
   3   3  -6    3.17    1.07
   3   3  -5    1.35    0.75
   3   3  -5    0.46    0.69
   3   3  -5    1.46    1.02
   3   3  -5    0.91    0.73
   3   3  -4    7.11    1.51
   3   3  -4    7.92    1.61
   3   3  -4    5.56    1.31
  -3  -3   3    5.18    2.04
   3   3  -2   78.49    7.31
   3   3  -1  122.12    8.73
   3   3   0    3.97    1.79
   3   3   0    4.43    1.98
   3   3   1  122.53    8.24
   3   3   1  138.32   10.11
   3   3   2    6.23    2.69
   3   3   2    5.05    1.62
   3   3   3   52.80    5.29
   3   3   3   60.61    7.53
  -3  -3  -3   51.10    6.13
   3   3   4   88.37    9.48
  -3  -3  -4   95.54    9.11
  -3  -3  -5    7.71    1.73
  -3  -3  -5   10.97    1.57
  -3  -3  -5    8.75    1.61
  -3  -3  -6    6.52    1.62
  -3  -3  -6    7.68    1.59
  -3  -3  -6    7.58    1.36
  -3  -3  -6    9.88    1.78
  -3  -3  -7   38.17    3.28
  -3  -3  -7   44.53    3.35
  -3  -3  -8    6.68    1.16
  -3  -3  -8    5.19    1.11
  -3  -3  -8    6.64    1.39
  -3  -3  -9   43.79    2.05
   3   4  -6   29.65    2.18
   3   4  -6   28.00    2.24
   3   4  -6   26.22    2.02
   3   4  -5    1.41    0.77
   3   4  -5   -0.62    0.82
   3   4  -5    0.83    0.83
   3   4  -5    2.07    1.12
   3   4  -4   21.00    2.45
   3   4  -4   19.86    2.35
   3   4  -4   18.28    2.25
   3   4  -3   28.39    2.75
  -3  -4   3   29.38    2.74
   3   4  -3   32.42    2.74
   3   4  -2    6.20    2.23
   3   4  -1    8.35    2.55
   3   4   0   15.65    3.67
   3   4   0   15.28    3.31
   3   4   1  116.65    9.06
   3   4   1  125.75   10.53
   3   4   2   19.50    3.90
   3   4   2   20.62    4.84
   3   4   3   58.09    6.49
   3   4   3   56.67    7.86
   3   4   4   98.47   10.70
  -3  -4  -4   95.88    9.81
  -3  -4  -5   16.63    2.43
  -3  -4  -5   16.86    2.25
  -3  -4  -5   14.61    2.00
  -3  -4  -5   15.06    2.34
  -3  -4  -6   14.99    2.39
  -3  -4  -6   13.72    2.02
  -3  -4  -6   12.15    1.96
  -3  -4  -7   17.36    2.04
  -3  -4  -7   15.95    2.18
  -3  -4  -8    1.23    0.72
  -3  -4  -8    0.04    0.58
   3   5  -6   23.36    1.40
   3   5  -5    1.85    0.77
   3   5  -5    1.95    0.83
   3   5  -5    1.56    0.79
   3   5  -4   -0.08    0.57
   3   5  -4   -0.02    0.68
   3   5  -4    0.31    0.69
  -3  -5   3    4.77    1.33
   3   5  -3    7.18    1.45
   3   5  -3    4.92    1.29
  -3  -5   2  126.60    5.81
   3   5  -2  116.39    5.35
   3   5  -2  121.61    5.16
  -3  -5   1    6.10    1.52
   3   5   0   15.11    3.80
   3   5   1   71.87    7.94
   3   5   1   70.96    8.76
   3   5   2  106.50   11.14
   3   5   2   83.34    8.53
  -3  -5  -3  235.37    8.11
  -3  -5  -3  240.05    7.60
  -3  -5  -4    1.43    1.13
  -3  -5  -4    1.10    0.79
  -3  -5  -4    1.65    1.03
  -3  -5  -5   77.82    4.95
  -3  -5  -5   72.82    4.43
  -3  -5  -5   71.11    4.45
  -3  -5  -5   75.25    4.87
  -3  -5  -6   63.33    4.46
  -3  -5  -6   62.28    3.95
  -3  -5  -7   10.64    1.73
  -3  -5  -7   14.15    1.78
  -3  -5  -7   11.30    1.72
  -3  -5  -8   12.05    1.35
  -3  -5  -8   11.44    1.31
   3   6  -5    8.96    0.99
   3   6  -4   88.48    3.51
   3   6  -4   88.84    3.67
   3   6  -4   91.44    4.25
   3   6  -4   95.68    3.70
   3   6  -3   28.20    2.36
  -3  -6   3   30.98    2.59
   3   6  -3   28.72    2.28
  -3  -6   2   17.75    2.23
  -3  -6   2   22.41    2.57
   3   6  -2   15.68    1.90
  -3  -6   1   31.54    3.12
  -3  -6   0   10.53    1.96
  -3  -6  -1  329.96   10.07
  -3  -6  -2  290.95    9.27
  -3  -6  -3   63.47    4.31
  -3  -6  -3   70.02    4.35
  -3  -6  -3   68.03    4.09
  -3  -6  -4  180.18    7.36
  -3  -6  -4  174.01    6.57
  -3  -6  -4  166.07    7.14
  -3  -6  -5   26.03    2.87
  -3  -6  -5   26.05    2.60
  -3  -6  -5   26.04    2.68
  -3  -6  -6    0.34    0.85
  -3  -6  -6    0.40    0.86
  -3  -6  -7   10.77    1.53
  -3  -6  -7   10.74    1.43
  -3  -6  -7   10.80    1.38
  -3  -6  -8    7.47    0.84
   3   7  -3    0.14    0.38
  -3  -7   3    0.51    0.50
   3   7  -3   -0.41    0.43
  -3  -7   2   10.39    1.38
  -3  -7   2   10.13    1.43
  -3  -7   1    0.74    0.88
  -3  -7   1    0.58    0.85
  -3  -7   0   64.29    4.23
  -3  -7  -1    3.02    1.41
  -3  -7  -2   13.49    2.04
  -3  -7  -3    5.34    1.38
  -3  -7  -3    4.17    1.11
  -3  -7  -4    7.16    1.60
  -3  -7  -4    4.86    1.10
  -3  -7  -4    6.05    1.47
  -3  -7  -5    0.57    1.01
  -3  -7  -5   -0.27    0.67
  -3  -7  -5    0.94    0.80
  -3  -7  -6    2.64    0.91
  -3  -7  -6    1.99    0.76
  -3  -7  -7    0.50    0.38
  -3  -8   1   18.26    1.60
  -3  -8   1   15.71    1.51
  -3  -8   0    0.42    0.70
  -3  -8   0    0.82    0.77
  -3  -8  -1   53.90    3.31
  -3  -8  -1   47.83    2.86
  -3  -8  -2    1.12    0.73
  -3  -8  -2    0.99    0.72
  -3  -8  -3    8.90    1.30
  -3  -8  -3    5.14    1.18
  -3  -8  -4    2.59    0.78
  -3  -8  -4    0.27    0.50
  -3  -8  -5    1.97    0.61
  -3  -8  -5    2.55    0.64
  -4   6   4    3.92    0.83
  -4   6   3    0.03    0.56
  -4   6   2    0.44    0.69
  -4   6   2    0.22    0.45
  -4   6   1   -0.17    0.55
  -4   6   1    0.98    0.81
  -4   6   0    0.33    0.49
  -4   6   0   -0.15    0.66
  -4   6  -1    0.01    0.41
  -4   6  -1    0.78    0.51
  -4   6  -1    0.22    0.42
  -4   6  -2    5.79    0.78
  -4   5   6    0.27    0.43
   4  -5  -5   18.38    1.70
   4  -5  -4   13.40    1.66
   4  -5  -3    3.10    0.86
  -4   5   3    2.77    0.76
  -4   5   3    4.26    1.02
  -4   5   2    0.08    0.59
  -4   5   2    0.38    0.85
  -4   5   2    0.19    0.69
  -4   5   1   -0.25    0.77
  -4   5   1   -0.29    0.86
  -4   5   1    0.42    0.75
  -4   5   0   73.68    4.47
  -4   5   0   70.45    3.86
  -4   5  -1  173.38    5.87
  -4   5  -1  160.71    6.47
  -4   5  -1  171.07    5.90
  -4   5  -2   55.97    2.76
  -4   5  -2   56.73    2.93
  -4   5  -2   57.40    3.30
  -4   5  -3   79.27    3.61
  -4   5  -3   78.77    3.50
  -4   5  -4    1.97    0.62
   4  -4  -6   11.42    1.43
   4  -4  -6   12.53    1.42
   4  -4  -5    4.50    1.10
   4  -4  -4    3.06    0.98
   4  -4  -3   11.28    1.75
  -4   4   3    8.72    1.60
   4  -4  -2   12.37    1.79
  -4   4   2   12.65    1.83
  -4   4   2   11.77    1.89
  -4   4   1  441.36   11.07
  -4   4   1  434.47   11.77
  -4   4   1  409.65   11.36
  -4   4   0    5.99    1.46
  -4   4   0    7.22    1.62
  -4   4   0    4.77    1.50
  -4   4  -1  177.18    7.36
  -4   4  -1  167.68    7.20
  -4   4  -2   29.99    2.69
  -4   4  -2   29.27    2.64
  -4   4  -2   28.52    2.99
  -4   4  -2   28.98    2.72
  -4   4  -3    1.87    1.07
  -4   4  -3   -0.18    0.89
  -4   4  -3    2.52    1.10
  -4   4  -4    0.27    0.72
  -4   4  -4    1.81    0.83
  -4   4  -4    2.77    0.94
  -4   4  -5    6.04    0.93
   4  -3  -7    5.26    0.81
   4  -3  -7    3.37    0.84
   4  -3  -6    1.09    0.62
   4  -3  -5    0.48    0.69
   4  -3  -4    2.79    1.13
  -4   3   4    4.28    1.21
   4  -3  -3    3.96    1.16
  -4   3   3    2.55    1.13
   4  -3  -2    2.33    0.91
  -4   3   2    2.52    0.96
  -4   3   2    2.74    1.18
  -4   3   1    0.53    0.72
  -4   3   1   -0.50    0.67
  -4   3   0   -0.02    0.67
  -4   3   0   -0.01    0.94
  -4   3   0    0.07    0.81
  -4   3  -1    6.50    1.45
  -4   3  -1    6.40    1.53
  -4   3  -1    6.69    1.55
  -4   3  -1    7.67    1.67
  -4   3  -2    3.57    1.39
  -4   3  -2    3.01    0.93
  -4   3  -2    4.49    1.18
  -4   3  -2    5.51    1.31
  -4   3  -2    6.25    1.47
  -4   3  -3   44.42    3.54
  -4   3  -3   40.92    3.31
  -4   3  -3   45.54    3.47
  -4   3  -4    3.24    1.36
  -4   3  -4    3.68    1.37
  -4   3  -4    2.13    1.15
  -4   3  -4    3.92    1.23
  -4   3  -5   16.23    1.97
  -4   3  -5   13.99    1.69
  -4   3  -6    4.64    0.84
  -4   3  -6    7.14    0.99
   4  -2  -7    7.33    1.00
   4  -2  -7    5.75    1.14
   4  -2  -6   19.40    2.10
   4  -2  -5   39.27    3.08
  -4   2   5   37.76    2.99
   4  -2  -5   33.71    3.05
   4  -2  -4  177.80    6.65
  -4   2   4  181.68    7.00
   4  -2  -4  190.48    7.21
   4  -2  -3   14.37    1.94
  -4   2   3   14.40    2.02
  -4   2   2   27.14    4.59
  -4   2   2   29.40    5.36
  -4   2   1    4.26    2.57
  -4   2   0   56.05    7.45
  -4   2  -1   37.55    6.20
  -4   2  -2   -1.09    0.82
  -4   2  -3   81.04    4.72
  -4   2  -3   82.63    4.19
  -4   2  -4   14.46    2.19
  -4   2  -4   13.55    1.91
  -4   2  -4   17.54    2.21
  -4   2  -4   16.91    2.47
  -4   2  -4   14.44    2.03
  -4   2  -5    0.44    0.89
  -4   2  -5    4.14    1.28
  -4   2  -5    4.70    1.36
  -4   2  -5    2.88    1.01
  -4   2  -6    0.58    0.91
  -4   2  -6   -0.78    0.75
  -4   2  -7    3.08    0.60
   4  -1  -7    0.40    0.37
   4  -1  -7   -0.07    0.50
   4  -1  -6  127.95    5.34
   4  -1  -6  130.03    5.42
   4  -1  -5   16.23    2.12
   4  -1  -5   13.69    1.88
  -4   1   5   13.82    1.92
   4  -1  -4   20.61    2.20
  -4   1   4   19.38    2.32
   4  -1  -4   19.33    2.28
  -4   1   3  206.14   14.39
  -4   1   3  200.64   13.18
  -4   1   2   34.21    5.71
  -4   1   2   32.99    4.94
  -4   1   1   -0.76    0.86
  -4   1   1   -1.55    2.01
  -4   1   0   94.91    9.31
  -4   1  -1  247.42   15.12
  -4   1  -2  161.09   12.30
  -4   1  -3    6.62    3.07
  -4   1  -4   48.49    3.60
  -4   1  -4   47.33    3.65
  -4   1  -4   47.54    3.30
  -4   1  -4   45.25    3.14
  -4   1  -5   31.80    3.01
  -4   1  -5   34.38    3.22
  -4   1  -5   34.38    2.82
  -4   1  -6    3.27    1.14
  -4   1  -6    7.13    1.61
  -4   1  -7    1.28    0.81
  -4   1  -7    6.39    1.24
   4   0  -7    7.58    1.02
   4   0  -7    8.23    1.18
   4   0  -6   25.33    2.42
  -4   0   6   23.95    2.35
   4   0  -6   25.34    2.39
   4   0  -5  155.81    6.19
   4   0  -5  147.99    6.32
   4   0  -4    0.84    0.89
   4   0  -4    0.20    0.75
  -4   0   3   51.18    6.70
  -4   0   2  126.76    9.36
  -4   0   1    0.06    0.87
  -4   0   1    1.68    1.33
   4   0   0  219.89   11.55
  -4   0   0  226.86   13.80
  -4   0  -1   20.33    4.24
  -4   0  -2   31.92    5.08
  -4   0  -3   -0.75    1.25
  -4   0  -4    6.37    1.57
  -4   0  -4    6.97    1.44
  -4   0  -5    6.33    1.41
  -4   0  -5    9.18    1.92
  -4   0  -5    5.55    1.22
  -4   0  -5    9.26    1.93
  -4   0  -6   -2.25    1.25
  -4   0  -6   -0.12    0.90
  -4   0  -7    5.19    1.12
  -4   0  -7    4.86    1.15
  -4   0  -8  115.36    3.28
   4   1  -7   18.58    1.61
   4   1  -6   -0.67    0.76
   4   1  -6   -0.57    0.73
   4   1  -5   57.73    3.77
   4   1  -5   56.18    3.68
   4   1  -5   60.03    3.98
   4   1  -4   46.13    3.57
   4   1  -4   41.96    3.18
   4   1  -4   37.70    3.04
  -4  -1   3    9.24    2.89
   4   1  -2   93.84    8.40
  -4  -1   2   82.90    7.80
   4   1  -1   45.03    5.51
  -4  -1   1   44.49    5.15
   4   1   0   30.79    4.45
   4   1   0   31.85    4.95
   4   1   1  139.53    8.93
   4   1   1  145.25   10.92
  -4  -1  -1  138.09   10.31
   4   1   2   88.51    8.95
  -4  -1  -2   62.83    6.85
   4   1   3   14.09    4.13
   4   1   4   69.37    9.11
  -4  -1  -4   57.68    7.44
  -4  -1  -5    0.79    1.01
  -4  -1  -5    2.58    1.31
  -4  -1  -6   42.70    3.14
  -4  -1  -6   39.16    3.03
  -4  -1  -6   48.63    3.84
  -4  -1  -7    0.24    0.61
  -4  -1  -7    1.34    0.87
  -4  -1  -8    4.59    0.84
   4   2  -7    0.73    0.52
   4   2  -6  104.98    4.48
   4   2  -6  109.15    4.50
   4   2  -6  103.49    4.37
   4   2  -5  132.53    5.83
   4   2  -5  132.12    5.60
   4   2  -5  130.31    5.56
   4   2  -4  162.58    6.74
   4   2  -4  169.73    6.38
   4   2  -4  163.50    6.31
   4   2  -3  290.45    8.86
   4   2  -3  292.03    8.21
   4   2  -2   48.88    6.25
  -4  -2   2   42.70    5.75
  -4  -2   1   26.20    4.11
   4   2  -1   26.37    4.36
   4   2   0   41.35    5.23
   4   2   0   53.41    6.37
   4   2   1    3.01    1.71
   4   2   1    2.44    1.56
   4   2   2  210.04   10.94
   4   2   2  219.71   14.70
  -4  -2  -2  190.88   11.59
   4   2   3  120.69   11.36
   4   2   4   82.33    9.83
  -4  -2  -4   82.42    8.45
  -4  -2  -5   91.55    4.76
  -4  -2  -5   90.36    4.70
  -4  -2  -5   86.94    5.09
  -4  -2  -5  101.63    5.28
  -4  -2  -6    1.36    1.01
  -4  -2  -6    2.37    1.13
  -4  -2  -6    4.29    1.88
  -4  -2  -7   16.19    1.99
  -4  -2  -7   13.10    1.71
  -4  -2  -8    1.12    0.59
  -4  -2  -8    0.13    0.43
   4   3  -6    7.73    1.06
   4   3  -6    6.04    1.04
   4   3  -6    7.41    1.17
   4   3  -5   61.71    3.75
   4   3  -5   73.96    3.92
   4   3  -5   67.40    3.85
   4   3  -4    1.71    0.98
   4   3  -4    1.14    0.82
   4   3  -4    1.11    0.98
   4   3  -3   -0.61    0.73
  -4  -3   3    0.81    0.94
   4   3  -3    1.00    0.91
  -4  -3   2   13.17    3.71
   4   3  -2   16.19    3.70
  -4  -3   1    6.63    2.46
   4   3  -1   10.51    3.11
   4   3   0   47.35    6.09
   4   3   0   39.05    5.68
   4   3   1   33.75    5.05
   4   3   1   46.21    6.74
   4   3   2    2.13    2.71
   4   3   2    0.00    1.24
   4   3   3   15.49    4.77
  -4  -3  -4    5.81    1.55
  -4  -3  -4    5.45    1.29
  -4  -3  -4    5.09    1.36
  -4  -3  -5   28.64    2.64
  -4  -3  -5   29.04    2.77
  -4  -3  -5   26.44    2.57
  -4  -3  -5   23.66    2.69
  -4  -3  -6   14.62    1.90
  -4  -3  -6   14.20    1.96
  -4  -3  -6   16.06    2.17
  -4  -3  -6   14.62    1.95
  -4  -3  -7    8.66    1.32
  -4  -3  -7    9.11    1.61
  -4  -3  -7    6.91    1.20
  -4  -3  -8    6.99    1.08
   4   4  -6   28.43    1.64
   4   4  -6   29.32    1.72
   4   4  -5    6.27    1.13
   4   4  -5    8.42    1.31
   4   4  -5    6.17    1.18
   4   4  -5    7.56    1.24
   4   4  -4   51.31    3.64
   4   4  -4   48.39    3.22
   4   4  -4   50.12    3.32
   4   4  -3    3.22    1.20
  -4  -4   3    3.38    1.19
   4   4  -3    2.18    0.83
  -4  -4   2   37.46    3.13
  -4  -4   1   60.04    4.05
  -4  -4   1   64.68    4.08
   4   4   0    0.41    1.20
   4   4   1   28.88    5.11
   4   4   1   24.23    5.19
   4   4   2   21.33    4.32
   4   4   2   20.91    5.12
  -4  -4  -3   39.28    3.42
  -4  -4  -3   35.57    2.91
  -4  -4  -4   -0.63    1.08
  -4  -4  -4   -0.88    0.84
  -4  -4  -4   -1.10    0.98
  -4  -4  -5   34.80    3.37
  -4  -4  -5   40.26    3.26
  -4  -4  -5   35.98    3.41
  -4  -4  -6   45.90    3.33
  -4  -4  -6   41.30    3.31
  -4  -4  -6   44.37    2.98
  -4  -4  -6   44.08    3.38
  -4  -4  -7    2.25    0.91
  -4  -4  -7    1.28    0.77
  -4  -4  -7    0.17    0.55
  -4  -4  -8    7.26    0.93
  -4  -4  -8    6.44    0.98
   4   5  -5    5.90    0.81
   4   5  -5    6.32    0.83
   4   5  -5    7.06    1.00
   4   5  -5    5.97    0.88
   4   5  -4   48.62    3.08
   4   5  -4   49.64    2.79
   4   5  -4   49.69    2.91
   4   5  -3   -0.04    0.58
  -4  -5   3    0.63    0.85
   4   5  -3    0.45    0.61
  -4  -5   2    0.25    0.74
  -4  -5   2    1.79    1.27
  -4  -5   1    5.80    1.55
  -4  -5   1    8.58    1.70
  -4  -5   0  168.32    7.13
  -4  -5   0  174.74    6.85
  -4  -5  -1    3.00    1.23
  -4  -5  -1    5.58    1.34
  -4  -5  -2   51.04    3.96
  -4  -5  -2   51.25    3.42
  -4  -5  -2   45.40    3.40
  -4  -5  -3   44.33    3.51
  -4  -5  -3   41.24    3.42
  -4  -5  -3   46.97    3.85
  -4  -5  -3   37.76    3.14
  -4  -5  -4   32.30    3.18
  -4  -5  -4   33.09    3.01
  -4  -5  -4   32.54    3.28
  -4  -5  -5  197.20    7.83
  -4  -5  -5  199.03    7.15
  -4  -5  -5  197.29    7.59
  -4  -5  -6    6.88    1.59
  -4  -5  -6    6.36    1.42
  -4  -5  -6    4.57    1.18
  -4  -5  -6    4.95    1.27
  -4  -5  -6    5.89    1.04
  -4  -5  -7   56.61    3.11
  -4  -5  -7   57.03    3.22
  -4  -5  -8   43.16    2.05
   4   6  -4    5.10    0.83
   4   6  -4    4.77    0.89
   4   6  -4    5.70    0.75
   4   6  -3   15.47    1.78
  -4  -6   3   16.10    1.72
  -4  -6   2   99.62    4.61
  -4  -6   2   99.47    4.87
  -4  -6   1   64.79    4.27
  -4  -6   1   67.90    4.25
  -4  -6   0   29.97    3.08
  -4  -6   0   32.20    3.06
  -4  -6  -1    7.56    1.55
  -4  -6  -1    8.97    1.76
  -4  -6  -2    9.39    1.87
  -4  -6  -2   13.09    1.87
  -4  -6  -3  163.65    6.76
  -4  -6  -3  149.51    6.89
  -4  -6  -4  166.56    6.73
  -4  -6  -4  161.13    6.32
  -4  -6  -4  178.63    7.25
  -4  -6  -5   32.22    3.03
  -4  -6  -5   31.28    2.75
  -4  -6  -5   30.02    2.83
  -4  -6  -6   87.50    4.44
  -4  -6  -6   89.80    4.14
  -4  -6  -6   81.70    4.06
  -4  -6  -6   84.52    3.92
  -4  -6  -7    3.93    0.84
  -4  -6  -7    5.22    0.92
   4   7  -3    1.11    0.51
   4   7  -2    3.80    0.87
  -4  -7   2    4.43    0.99
  -4  -7   1    1.18    0.84
  -4  -7   1    0.46    0.83
  -4  -7   0    2.49    1.04
  -4  -7   0    4.73    1.30
  -4  -7   0    3.17    0.93
  -4  -7  -1    3.09    1.26
  -4  -7  -1    5.02    1.23
  -4  -7  -2    8.96    1.66
  -4  -7  -2    8.87    1.42
  -4  -7  -2    7.86    1.58
  -4  -7  -3    0.45    0.84
  -4  -7  -3    1.77    0.98
  -4  -7  -4    1.48    0.78
  -4  -7  -4    1.83    0.97
  -4  -7  -5   11.88    1.52
  -4  -7  -5   10.68    1.46
  -4  -7  -6    0.29    0.44
  -4  -7  -6    2.17    0.59
   4   8  -1    2.44    0.56
  -4  -8   1    5.36    0.82
  -4  -8   0   61.74    2.90
  -4  -8   0   56.80    2.67
  -4  -8  -1   17.41    1.69
  -4  -8  -1   14.10    1.37
  -4  -8  -1   17.54    1.61
  -4  -8  -2    1.74    0.75
  -4  -8  -2    2.32    0.83
  -4  -8  -3   37.23    2.21
  -4  -8  -3   38.21    2.51
  -4  -8  -4    1.52    0.60
  -5   5   4    0.64    0.51
  -5   5   3   33.79    2.32
  -5   5   2   13.86    1.31
  -5   5   2   15.84    1.78
  -5   5   1    1.25    0.65
  -5   5   1    0.39    0.66
  -5   5   0   -0.34    0.53
  -5   5   0   -0.18    0.66
  -5   5   0    0.51    0.70
  -5   5  -1    0.93    0.58
  -5   5  -1    0.86    0.66
  -5   5  -2   30.24    1.56
  -5   5  -2   28.75    1.97
  -5   5  -2   29.77    1.80
  -5   4   5   33.79    2.13
   5  -4  -5   39.88    2.21
   5  -4  -4   11.47    1.36
  -5   4   4   11.60    1.52
  -5   4   4   13.85    1.48
   5  -4  -3   -0.28    0.47
  -5   4   3    0.07    0.62
  -5   4   3    0.73    0.65
  -5   4   2    4.18    1.13
  -5   4   2    3.53    1.15
  -5   4   1    1.94    1.06
  -5   4   1    3.33    1.26
  -5   4   0    1.55    0.84
  -5   4   0    0.81    0.74
  -5   4  -1  144.35    6.16
  -5   4  -2    4.35    1.04
  -5   4  -2    4.77    0.96
  -5   4  -2    2.76    0.99
  -5   4  -3   70.32    2.91
  -5   4  -3   68.39    3.58
  -5   4  -3   70.28    3.32
  -5   4  -4    7.16    1.05
  -5   4  -4    6.35    0.88
   5  -3  -6    2.79    0.66
   5  -3  -5   22.95    2.01
   5  -3  -4    1.33    0.74
  -5   3   4    2.77    0.99
   5  -3  -3   -0.11    0.59
  -5   3   3    0.64    0.76
  -5   3   2    1.24    0.78
  -5   3   2    3.43    1.22
  -5   3   2    0.86    0.86
  -5   3   1    5.09    1.43
  -5   3   1    5.00    1.38
  -5   3   1    4.96    1.36
  -5   3   0    3.80    1.31
  -5   3   0    3.36    1.16
  -5   3   0    4.03    1.28
  -5   3  -1    2.13    1.13
  -5   3  -1    0.41    0.83
  -5   3  -1    2.70    1.17
  -5   3  -1    0.36    0.87
  -5   3  -2    3.64    1.45
  -5   3  -2    5.00    1.20
  -5   3  -2    3.90    1.06
  -5   3  -3   -0.47    0.81
  -5   3  -3    0.25    0.84
  -5   3  -3    0.32    0.93
  -5   3  -3    0.14    0.66
  -5   3  -4    4.41    1.16
  -5   3  -4    3.23    1.01
  -5   3  -4    2.38    0.78
  -5   3  -5    8.24    1.08
  -5   3  -5    7.04    0.91
   5  -2  -6    1.21    0.55
   5  -2  -5    9.27    1.45
  -5   2   5   10.31    1.45
  -5   2   4   29.92    2.81
   5  -2  -4   27.82    2.61
  -5   2   3   33.19    3.07
   5  -2  -3   35.50    2.99
  -5   2   2  189.77    6.81
  -5   2   2  194.35    7.17
  -5   2   2  190.41    7.51
   5  -2  -2  199.75    6.91
  -5   2   1    9.55    1.64
  -5   2   1    8.26    1.70
  -5   2   1    9.93    1.77
  -5   2   0   40.85    3.35
  -5   2   0   39.21    3.28
  -5   2   0   42.69    3.53
  -5   2  -1   19.69    2.40
  -5   2  -1   17.65    2.33
  -5   2  -1   16.62    2.28
  -5   2  -2   19.05    2.29
  -5   2  -2   15.79    2.29
  -5   2  -2   19.73    2.34
  -5   2  -3    5.99    1.56
  -5   2  -3    3.12    1.04
  -5   2  -3    3.03    1.07
  -5   2  -4    4.24    1.43
  -5   2  -4    2.30    0.97
  -5   2  -4    3.63    1.24
  -5   2  -4    5.22    1.13
  -5   2  -4    4.25    1.20
  -5   2  -5   44.72    3.06
  -5   2  -5   50.28    3.34
  -5   2  -5   54.51    2.80
  -5   2  -5   45.29    2.58
  -5   2  -6    1.61    0.73
  -5   1   6   20.27    1.66
   5  -1  -6   21.68    1.90
   5  -1  -5    1.48    0.79
  -5   1   5    1.91    1.02
  -5   1   4  100.04    5.23
   5  -1  -4   94.06    4.98
   5  -1  -3    3.56    1.14
  -5   1   3    4.28    1.35
  -5   1   2   37.52    3.31
  -5   1   2   41.33    3.45
   5  -1  -2   38.23    3.03
  -5   1   1  201.33    7.82
  -5   1   1  216.51    7.74
  -5   1   0    4.45    1.09
  -5   1  -1   18.52    2.20
  -5   1  -1   19.22    2.28
  -5   1  -2   58.51    3.99
  -5   1  -3   65.95    3.90
  -5   1  -3   63.05    3.58
  -5   1  -4   75.21    4.58
  -5   1  -4   84.23    4.86
  -5   1  -4   82.29    4.21
  -5   1  -4   94.25    4.54
  -5   1  -5    1.73    0.93
  -5   1  -5   -0.38    1.15
  -5   1  -5    2.89    1.29
  -5   1  -5    2.74    0.97
  -5   1  -6   15.51    1.79
  -5   1  -6   18.56    1.70
  -5   1  -7  124.76    3.34
   5   0  -6    8.61    1.23
   5   0  -6    6.41    1.02
  -5   0   6    5.72    1.03
   5   0  -5    1.17    0.76
   5   0  -5    2.50    1.01
  -5   0   5    1.37    0.92
  -5   0   4   43.07    3.44
   5   0  -4   39.58    3.23
  -5   0   3  119.31    5.73
  -5   0   3  124.92    6.03
   5   0  -3  124.88    5.78
   5   0  -2    4.75    1.20
  -5   0   2    4.33    1.46
  -5   0   2    3.19    1.23
  -5   0   1   97.66    5.28
  -5   0   1  106.59    5.22
  -5   0   0   39.60    6.84
  -5   0  -1   15.64    4.42
  -5   0  -1   13.14    1.95
  -5   0  -2   37.71    6.32
  -5   0  -2   39.38    3.42
  -5   0  -2   47.52    3.51
  -5   0  -3    1.59    2.85
  -5   0  -3    3.90    1.12
  -5   0  -3    3.10    0.96
  -5   0  -4    8.17    1.52
  -5   0  -4    9.86    1.77
  -5   0  -4    9.00    1.53
  -5   0  -5    0.29    0.76
  -5   0  -5    1.17    0.88
  -5   0  -5    0.07    0.80
  -5   0  -6   -0.88    1.02
  -5   0  -6   -0.03    0.65
  -5   0  -7    2.53    0.75
  -5   0  -7    1.85    0.70
   5   1  -6    4.16    0.90
   5   1  -6    3.03    0.72
  -5  -1   6    2.73    0.76
   5   1  -5    7.43    1.43
   5   1  -5    8.21    1.22
   5   1  -4    1.41    0.91
  -5  -1   3   78.95    4.69
   5   1  -3   81.76    4.69
   5   1  -2   92.98    4.81
  -5  -1   2   88.57    5.07
  -5  -1   1    2.58    1.14
   5   1   0  185.10   12.39
   5   1   0  189.15   13.98
  -5  -1   0  170.66   13.81
   5   1   1   96.02   10.45
  -5  -1  -1   74.29    8.97
  -5  -1  -2    2.06    2.36
  -5  -1  -2    3.93    3.48
  -5  -1  -2    3.52    1.22
  -5  -1  -3   60.60    4.21
  -5  -1  -3   56.92    3.56
  -5  -1  -4   82.23    9.89
  -5  -1  -4   35.08    2.97
  -5  -1  -5    2.84    1.25
  -5  -1  -6   20.58    2.13
  -5  -1  -7    0.55    0.51
  -5  -1  -7    2.38    0.86
   5   2  -6    2.18    0.63
   5   2  -6    1.32    0.49
  -5  -2   6    1.65    0.65
   5   2  -5   -0.03    0.54
   5   2  -5   -0.84    0.66
   5   2  -4   99.36    5.10
   5   2  -3  201.87    7.56
   5   2  -2  181.70    6.92
   5   2  -1  352.42    9.43
  -5  -2   1  348.55    9.85
  -5  -2   0   10.69    3.64
   5   2   0    8.13    2.53
  -5  -2  -1   17.42    4.79
   5   2   1   14.94    3.48
   5   2   1   22.77    5.36
  -5  -2  -2   22.17    5.49
  -5  -2  -2   16.83    2.21
  -5  -2  -3    0.11    3.31
  -5  -2  -3   -0.55    0.84
  -5  -2  -3    1.95    1.19
  -5  -2  -4   51.73    3.58
  -5  -2  -4   54.25    4.07
  -5  -2  -5   37.80    3.05
  -5  -2  -6   25.44    2.35
  -5  -2  -7   22.01    1.86
  -5  -3   6    3.00    0.61
   5   3  -5   68.35    3.48
   5   3  -4    1.79    0.86
   5   3  -4    2.76    1.01
   5   3  -3   56.77    3.99
   5   3  -3   63.63    3.62
   5   3  -2   13.91    2.09
   5   3  -1    0.55    0.68
  -5  -3   1    0.47    0.88
  -5  -3   0   34.82    3.31
  -5  -3  -1    3.98    1.24
  -5  -3  -1    4.43    1.33
  -5  -3  -2   18.84    5.19
  -5  -3  -2   17.88    2.43
  -5  -3  -2   16.83    2.15
  -5  -3  -3    5.08    3.59
  -5  -3  -3    3.56    1.32
  -5  -3  -3    1.25    0.91
  -5  -3  -3    2.12    1.10
  -5  -3  -4   -0.16    2.96
  -5  -3  -4    1.19    0.91
  -5  -3  -4    0.08    0.84
  -5  -3  -5    0.25    0.78
  -5  -3  -5    0.15    0.77
  -5  -3  -6    3.12    1.06
  -5  -3  -7    7.66    1.06
  -5  -3  -7    6.86    1.05
   5   4  -5    0.86    0.48
   5   4  -4   52.05    3.26
   5   4  -4   56.30    2.95
   5   4  -3   15.22    2.07
   5   4  -3   15.67    1.76
   5   4  -2   62.97    4.18
   5   4  -1    6.97    1.49
  -5  -4   1    7.05    1.53
  -5  -4   1    7.79    1.74
  -5  -4   0   54.29    4.04
  -5  -4   0   54.48    4.02
  -5  -4  -1   27.31    2.91
  -5  -4  -1   27.07    2.66
  -5  -4  -2   12.93    3.93
  -5  -4  -2   16.31    2.36
  -5  -4  -2   16.34    2.19
  -5  -4  -3   17.60    2.36
  -5  -4  -3   16.99    2.21
  -5  -4  -3   17.10    2.43
  -5  -4  -4   15.74    2.08
  -5  -4  -4   19.59    2.58
  -5  -4  -5    2.04    0.98
  -5  -4  -5    0.67    0.63
  -5  -4  -5    1.82    1.15
  -5  -4  -5    1.95    0.89
  -5  -4  -6    4.02    1.03
  -5  -4  -6    4.00    1.02
  -5  -4  -6    4.28    1.08
  -5  -4  -7   12.96    1.31
  -5  -4  -7   13.37    1.29
   5   5  -4    3.37    0.73
   5   5  -4    3.35    0.72
   5   5  -3    8.11    1.35
   5   5  -2   54.57    3.69
  -5  -5   1    7.88    1.61
  -5  -5   1    9.44    1.73
  -5  -5   0    6.91    1.58
  -5  -5   0    5.60    1.41
  -5  -5  -1    4.22    1.53
  -5  -5  -1    4.05    1.25
  -5  -5  -1    2.47    1.02
  -5  -5  -2  133.80    6.52
  -5  -5  -2  128.86    6.13
  -5  -5  -3   23.87    2.69
  -5  -5  -3   21.32    2.65
  -5  -5  -4   48.31    3.43
  -5  -5  -4   47.43    3.40
  -5  -5  -4   50.32    3.87
  -5  -5  -5    9.59    1.51
  -5  -5  -5   10.04    1.49
  -5  -5  -5   12.19    1.96
  -5  -5  -5   11.32    1.58
  -5  -5  -6    2.43    0.81
  -5  -5  -6    3.40    0.84
  -5  -5  -6    3.25    0.93
  -5  -5  -6    4.81    0.95
  -5  -5  -7   87.12    2.98
   5   6  -3    3.92    0.78
   5   6  -2    1.12    0.70
   5   6  -1   13.89    1.81
  -5  -6   1   15.93    1.93
  -5  -6   1   17.00    2.06
  -5  -6   0   65.31    4.14
  -5  -6   0   64.04    3.98
  -5  -6  -1   69.17    4.41
  -5  -6  -1   68.60    3.99
  -5  -6  -1   66.62    3.99
  -5  -6  -2   21.83    2.56
  -5  -6  -2   25.95    2.67
  -5  -6  -3   -1.02    0.70
  -5  -6  -3    0.07    0.75
  -5  -6  -4   10.44    1.51
  -5  -6  -4   10.67    1.78
  -5  -6  -5   36.43    2.32
  -5  -6  -5   39.47    2.97
  -5  -6  -6   49.76    2.43
  -5  -6  -6   43.75    2.02
   5   7  -2    1.27    0.45
   5   7  -1    1.61    0.60
  -5  -7   1    1.25    0.52
  -5  -7   0    5.05    1.11
  -5  -7  -1    0.25    0.67
  -5  -7  -1    0.77    0.66
  -5  -7  -2   -0.28    0.65
  -5  -7  -2    0.86    0.83
  -5  -7  -3    9.79    1.42
  -5  -7  -3   10.47    1.55
  -5  -7  -4    0.04    0.53
  -5  -7  -5    0.02    0.36
  -5  -7  -5    0.74    0.55
  -5  -8  -2   77.85    2.84
  -6   4   3   26.51    1.64
  -6   4   2    6.55    0.80
  -6   4   2    7.18    1.01
  -6   4   2    6.28    1.04
  -6   4   1    2.82    0.65
  -6   4   1    2.49    0.83
  -6   4   0    2.31    0.63
  -6   4   0    2.26    0.72
  -6   4  -1    0.78    0.47
  -6   4  -1   -0.13    0.46
  -6   4  -2    0.11    0.48
  -6   4  -2    0.42    0.45
   6  -3  -4    4.01    0.68
  -6   3   4    3.03    0.68
  -6   3   3   41.29    2.67
  -6   3   2    0.26    0.48
  -6   3   2    1.21    0.62
  -6   3   2    0.73    0.69
  -6   3   1    0.01    0.73
  -6   3   1    0.06    0.61
  -6   3   1    1.18    0.81
  -6   3   0    0.24    0.70
  -6   3   0    1.42    0.79
  -6   3   0    0.84    0.74
  -6   3  -1   13.18    1.55
  -6   3  -1   10.45    1.61
  -6   3  -2   12.62    1.55
  -6   3  -2    9.27    1.46
  -6   3  -2   10.44    1.39
  -6   3  -3    1.74    0.79
  -6   3  -3    3.53    0.81
  -6   2   5   30.39    1.70
   6  -2  -5   27.03    1.69
   6  -2  -4    0.05    0.48
  -6   2   4    0.48    0.58
   6  -2  -3    6.14    1.07
  -6   2   3    5.22    1.16
  -6   2   2   24.64    2.25
  -6   2   2   21.32    2.39
  -6   2   1   17.45    2.16
  -6   2   1   18.29    2.32
  -6   2   0  115.89    5.54
  -6   2   0  127.72    5.41
  -6   2   0  131.33    5.82
  -6   2  -1    2.44    1.00
  -6   2  -1    3.11    1.02
  -6   2  -2   37.63    2.97
  -6   2  -2   34.53    2.84
  -6   2  -3   16.26    1.96
  -6   2  -3   14.39    1.58
  -6   2  -3   15.04    1.54
  -6   2  -3   16.37    1.94
  -6   2  -3   15.45    1.63
  -6   2  -4    1.02    0.77
  -6   2  -4    2.19    0.80
  -6   2  -4    2.32    0.86
  -6   2  -4    1.27    0.55
  -6   2  -5    1.24    0.56
   6  -1  -5    4.27    0.79
  -6   1   5    3.51    0.74
   6  -1  -4   10.30    1.41
  -6   1   4   12.23    1.61
   6  -1  -3    3.73    0.91
  -6   1   3    5.16    1.32
  -6   1   2   40.56    2.99
  -6   1   2   48.52    3.63
  -6   1   1   -0.22    0.67
  -6   1   0   34.01    3.05
  -6   1  -1   97.25    4.87
  -6   1  -2    0.36    0.78
  -6   1  -3   25.34    2.60
  -6   1  -3   26.00    2.25
  -6   1  -3   27.87    2.54
  -6   1  -3   21.60    2.05
  -6   1  -4   21.46    2.23
  -6   1  -4   24.13    2.15
  -6   1  -4   26.52    2.35
  -6   1  -5    4.12    0.97
  -6   1  -5    8.04    1.01
   6   0  -5   -0.04    0.43
  -6   0   5   -0.12    0.44
   6   0  -4    0.13    0.53
  -6   0   4   -0.08    0.71
   6   0  -3    1.09    0.82
  -6   0   3    1.08    0.97
  -6   0   2   31.38    3.13
  -6   0   2   33.44    3.05
   6   0  -2   35.95    2.79
  -6   0   1   40.82    3.68
  -6   0   1   46.31    3.54
  -6   0   0    6.98    1.59
  -6   0   0    6.27    1.28
  -6   0  -1   22.02    5.66
  -6   0  -2    3.93    3.68
  -6   0  -3   31.88    5.80
  -6   0  -4    1.39    0.73
  -6   0  -4    2.31    0.90
  -6   0  -4   -0.20    0.68
  -6   0  -5    0.98    0.84
  -6   0  -5    1.31    0.70
  -6   0  -6    0.81    0.55
  -6   0  -6   -0.02    0.49
  -6  -1   5   22.38    1.84
   6   1  -5   25.04    1.92
   6   1  -4    1.01    0.71
  -6  -1   4    6.22    1.63
   6   1  -3   -0.26    0.64
  -6  -1   3    0.03    0.66
  -6  -1   3    0.58    0.83
   6   1  -2    0.44    0.69
  -6  -1   2    0.10    0.86
  -6  -1   2    0.74    0.92
  -6  -1   1   59.09    4.01
  -6  -1   1   59.74    4.36
  -6  -1   1   61.95    4.08
  -6  -1   0   84.62    5.00
  -6  -1   0   87.28    5.19
  -6  -1  -1    1.70    3.50
  -6  -1  -1    0.67    0.99
  -6  -1  -1   -0.30    0.95
  -6  -1  -2  166.31    7.27
  -6  -1  -2  167.23    6.70
  -6  -1  -3  101.19   10.82
  -6  -1  -3   88.52    4.24
  -6  -1  -4    0.73    0.73
  -6  -1  -5   24.48    2.10
  -6  -1  -6    7.70    1.07
  -6  -1  -6   10.70    1.23
   6   2  -5    1.01    0.56
  -6  -2   5    3.27    0.71
   6   2  -4    7.64    1.32
  -6  -2   4    9.22    1.48
   6   2  -3    0.46    0.58
  -6  -2   3    0.23    0.70
  -6  -2   3    1.40    1.02
  -6  -2   2   41.78    3.51
  -6  -2   2   46.62    3.39
   6   2  -2   39.72    3.10
  -6  -2   1  181.03    7.07
  -6  -2   1  194.56    7.86
  -6  -2   1  189.03    6.96
  -6  -2   0   90.92    5.23
  -6  -2   0   92.17    5.42
  -6  -2  -1  298.85   17.10
  -6  -2  -1  266.17    9.27
  -6  -2  -1  274.67    9.22
  -6  -2  -2   -0.01    2.95
  -6  -2  -2   -0.07    0.96
  -6  -2  -2    0.33    0.80
  -6  -2  -2    0.92    0.76
  -6  -2  -3   10.28    4.51
  -6  -2  -3   13.02    2.11
  -6  -2  -3   13.08    1.71
  -6  -2  -4    5.31    4.80
  -6  -2  -4    3.29    1.06
  -6  -2  -5    0.83    0.85
  -6  -2  -6   10.77    1.36
   6   3  -5   -0.34    0.30
  -6  -3   5   -0.18    0.28
  -6  -3   4   21.24    1.93
   6   3  -4   25.42    2.06
  -6  -3   3   28.34    2.52
   6   3  -3   31.87    2.61
   6   3  -2    2.02    0.94
   6   3  -1   25.82    2.50
  -6  -3   1   31.61    3.05
  -6  -3   0   32.76    3.13
  -6  -3  -1    2.50    2.85
  -6  -3  -1    2.71    1.23
  -6  -3  -2   35.25    6.53
  -6  -3  -2   36.43    3.51
  -6  -3  -2   43.69    3.38
  -6  -3  -2   36.20    3.12
  -6  -3  -3    2.42    3.77
  -6  -3  -3    2.75    1.30
  -6  -3  -3    2.75    1.15
  -6  -3  -3    1.09    0.80
  -6  -3  -4   15.69    2.05
  -6  -3  -4   12.52    1.69
  -6  -3  -5    0.48    0.64
  -6  -3  -6    0.73    0.71
   6   4  -4    0.17    0.40
  -6  -4   4    0.23    0.34
   6   4  -3   -0.28    0.47
  -6  -4   3   -0.31    0.51
   6   4  -2   53.24    3.36
   6   4  -1   17.76    2.05
  -6  -4   1   20.72    2.28
  -6  -4   0   60.06    7.76
  -6  -4   0   43.28    3.56
  -6  -4  -1    1.87    2.90
  -6  -4  -1   10.34    1.96
  -6  -4  -2   41.11    6.55
  -6  -4  -2   49.92    3.85
  -6  -4  -2   50.08    3.60
  -6  -4  -3    0.23    2.91
  -6  -4  -3    1.89    1.00
  -6  -4  -3   -0.11    0.94
  -6  -4  -4   18.43    2.04
  -6  -4  -4   18.64    2.07
  -6  -4  -4   18.81    2.29
  -6  -4  -5    3.78    0.97
  -6  -4  -6   11.22    1.24
   6   5  -3   -0.31    0.41
  -6  -5   3   -0.01    0.38
   6   5  -2    0.11    0.48
   6   5  -1    4.94    1.04
  -6  -5   1    3.06    0.98
  -6  -5   0   34.96    2.94
  -6  -5  -1   23.16    2.54
  -6  -5  -2    5.10    1.46
  -6  -5  -2    2.75    0.97
  -6  -5  -3   -0.16    0.66
  -6  -5  -3    1.30    0.94
  -6  -5  -4   67.13    3.49
  -6  -5  -4   56.98    3.21
  -6  -5  -4   62.34    3.86
  -6  -5  -5   21.89    1.82
  -6  -5  -5   23.24    2.19
  -6  -5  -6   27.10    1.58
   6   6  -2   -0.12    0.29
   6   6  -1    1.76    0.58
  -6  -6   1    1.46    0.62
   6   6   0   -0.34    0.42
  -6  -6   0    0.08    0.64
  -6  -6  -1   10.51    1.60
  -6  -6  -2   14.38    1.84
  -6  -6  -2   13.73    1.59
  -6  -6  -3   31.14    2.43
  -6  -6  -3   29.21    2.36
  -6  -6  -4   12.10    1.48
  -6  -6  -4    9.43    1.15
  -6  -6  -5    0.51    0.47
  -6  -6  -5    0.73    0.47
  -6  -7  -1    9.62    1.14
  -6  -7  -2    5.10    0.91
  -6  -7  -3    1.59    0.57
  -7   3   0    0.69    0.37
  -7   2   3   21.01    1.45
  -7   2   2    0.63    0.51
  -7   2   1    2.57    0.70
  -7   2   1    2.13    0.70
  -7   2   0    9.86    1.12
  -7   2   0    9.50    1.32
  -7   2   0    9.78    1.22
  -7   2  -1    6.41    1.00
  -7   2  -1    5.91    0.99
  -7   2  -2   51.52    2.44
  -7   2  -2   44.39    2.02
  -7   1   3    5.54    0.94
  -7   1   2    2.97    0.74
  -7   1   2    2.14    0.76
  -7   1   1    0.65    0.64
  -7   1   1    1.68    0.71
  -7   1   0    8.96    1.41
  -7   1   0   10.55    1.40
  -7   1  -1    0.81    0.71
  -7   1  -2   17.97    1.82
  -7   1  -2   19.77    1.75
  -7   1  -3   26.72    2.02
  -7   1  -3   26.09    1.65
  -7   1  -4    1.32    0.46
  -7   0   4    0.28    0.40
  -7   0   3    4.96    0.96
  -7   0   2   -0.12    2.13
  -7   0   2    0.20    0.44
  -7   0   2    0.37    0.55
  -7   0   1   -0.26    2.13
  -7   0   1    2.79    0.92
  -7   0   0    2.67    3.15
  -7   0   0   18.00    1.78
  -7   0  -1    2.46    2.11
  -7   0  -2    2.25    2.54
  -7   0  -2    2.68    0.90
  -7   0  -3   48.01    2.92
  -7   0  -3   46.51    2.56
  -7   0  -4    0.11    0.49
  -7   0  -4   -1.53    0.80
  -7  -1   4    9.24    1.01
  -7  -1   3   37.03    2.34
   7   1  -3   36.12    2.03
  -7  -1   2   -0.30    2.52
  -7  -1   2    0.37    0.57
  -7  -1   1    5.04    3.03
  -7  -1   1    5.97    1.41
  -7  -1   1    6.33    1.22
  -7  -1   0    1.01    2.36
  -7  -1  -1   18.31    4.46
  -7  -1  -2   48.34    6.75
  -7  -1  -3    1.05    2.70
  -7  -1  -4   78.23    3.28
  -7  -1  -5   45.50    2.21
   7   2  -3    1.29    0.52
  -7  -2   3    2.06    0.64
  -7  -2   2    7.22    1.27
  -7  -2   2    9.89    1.29
  -7  -2   1    0.35    2.39
  -7  -2   1    0.36    0.71
  -7  -2   0    5.59    1.29
  -7  -2   0    4.33    1.12
  -7  -2  -1   88.01    4.77
  -7  -2  -1   91.28    4.73
  -7  -2  -2   17.09    4.74
  -7  -2  -3  183.72   12.66
  -7  -2  -4    0.17    0.52
  -7  -2  -5    8.48    0.91
   7   3  -3    0.89    0.41
  -7  -3   3    0.18    1.65
  -7  -3   3    1.32    0.47
  -7  -3   2   40.91    5.38
  -7  -3   2   42.93    2.75
  -7  -3   1    0.46    2.45
  -7  -3   1    2.37    0.78
  -7  -3   1    0.69    0.76
  -7  -3   0    7.50    4.02
  -7  -3   0    5.93    1.24
  -7  -3   0    7.28    1.43
  -7  -3  -1    3.43    3.29
  -7  -3  -1    6.04    1.33
  -7  -3  -1    7.49    1.46
  -7  -3  -2   28.50    5.47
  -7  -3  -2   25.59    2.52
  -7  -3  -2   25.23    2.27
  -7  -3  -3    4.61    3.12
  -7  -3  -3    3.96    1.10
  -7  -3  -3    2.56    0.73
  -7  -3  -4   26.83    1.86
  -7  -3  -5   -0.10    0.48
   7   4  -2    1.30    0.46
  -7  -4   2    0.05    1.69
  -7  -4   2    0.43    0.43
  -7  -4   1    0.56    2.01
  -7  -4   1    0.52    0.48
  -7  -4   1    1.36    0.76
  -7  -4   0   20.19    3.84
  -7  -4   0   26.83    2.28
  -7  -4   0   28.51    2.56
  -7  -4  -1   11.42    1.66
  -7  -4  -1   12.21    1.65
  -7  -4  -2   22.84    4.19
  -7  -4  -2   20.86    2.16
  -7  -4  -2   18.58    1.78
  -7  -4  -2   16.49    1.52
  -7  -4  -3    8.08    2.81
  -7  -4  -3    4.37    1.02
  -7  -4  -3    5.47    0.93
  -7  -4  -4   25.21    1.75
  -7  -4  -5   -0.49    0.45
  -7  -5   1    1.48    0.59
  -7  -5   0    1.54    0.66
  -7  -5   0    2.51    0.81
  -7  -5  -1    0.17    0.54
  -7  -5  -1   -0.08    0.46
  -7  -5  -2    6.75    1.19
  -7  -5  -2    5.58    0.84
  -7  -5  -3   13.70    1.43
  -7  -5  -3   11.59    1.15
  -7  -5  -4    0.67    0.40
  -7  -6  -2   -0.47    0.37
  -8  -1   0    0.25    0.33
  -8  -1  -1    7.56    0.93
  -8  -1  -2    1.56    0.48
  -8  -2   0    1.55    2.08
  -8  -2  -1    0.86    1.92
  -8  -2  -2    0.24    0.29
  -8  -3   0   34.16    3.66
  -8  -3  -1    3.55    2.37
  -8  -3  -2    7.22    2.36
   0   0   0    0.00    0.00


TITL MN-27c4scaled in P-1
REM P-1 (#2 in standard setting)
CELL 1.54184   6.547420   7.241828   7.604319  77.4012  85.0734  78.6994
ZERR    2.00   0.000739   0.000668   0.000678   0.0077   0.0083   0.0088
LATT  1
SFAC C H N O
UNIT 16.00 14.00 2.00 4.00
TREF
HKLF 4
END
_computing_structure_solution     'SHELXT 2014/5 (Sheldrick, 2014)'
;
_shelx_hkl_checksum              39483
_ins_header
;
TITL MN-27c4scaled in P-1 
REM P-1 (#2 in standard setting)
CELL 1.54184   6.547420   7.241828   7.604319  77.4012  85.0734  78.6994
ZERR    2.00   0.000739   0.000668   0.000678   0.0077   0.0083   0.0088
LATT  1
SFAC C H N O
UNIT 16.00 14.00 2.00 4.00
TREF
HKLF 4
END
;
_olex2_date_sample_data_collection 2019-05-29
_olex2_date_sample_submission    2019-05-29
_olex2_diffrn_ambient_temperature_device 'Oxford Cryosystems'
_olex2_exptl_crystal_mounting_method
'The crystal was mounted on a MITIGEN holder with oil'
_olex2_submission_special_instructions 'No special instructions were received'
_oxdiff_exptl_absorpt_empirical_details
;
Empirical correction (ABSPACK) includes:
- Absorption correction using spherical harmonics
- Frame scaling
;
_oxdiff_exptl_absorpt_empirical_full_max 3.344
_oxdiff_exptl_absorpt_empirical_full_min 0.761
loop_
_space_group_symop_operation_xyz
'x, y, z'
'-x, -y, -z'
loop_
_atom_site_label
_atom_site_type_symbol
_atom_site_fract_x
_atom_site_fract_y
_atom_site_fract_z
_atom_site_U_iso_or_equiv
_atom_site_adp_type
_atom_site_occupancy
_atom_site_site_symmetry_order
_atom_site_calc_flag
_atom_site_refinement_flags_posn
_atom_site_refinement_flags_adp
_atom_site_refinement_flags_occupancy
_atom_site_disorder_assembly
_atom_site_disorder_group
O1 O 0.7452(2) 0.03152(18) 0.16428(17) 0.0259(3) Uani 1 1 d . . . . .
O2 O 0.2777(2) 0.55002(19) 0.3836(2) 0.0332(3) Uani 1 1 d . . . . .
H2 H 0.366219 0.614967 0.340249 0.050 Uiso 1 1 calc GR . . . .
N1 N 0.5177(2) -0.1719(2) 0.22882(19) 0.0247(3) Uani 1 1 d . . . . .
C1 C 0.7016(3) -0.1470(3) 0.1662(2) 0.0249(4) Uani 1 1 d . . . . .
C2 C 0.8723(3) -0.2864(3) 0.1007(3) 0.0322(4) Uani 1 1 d . . . . .
H2A H 0.965874 -0.217968 0.019694 0.048 Uiso 1 1 calc GR . . . .
H2B H 0.814653 -0.365063 0.038669 0.048 Uiso 1 1 calc GR . . . .
H2C H 0.947006 -0.366592 0.201439 0.048 Uiso 1 1 calc GR . . . .
C3 C 0.4240(3) 0.0040(2) 0.2762(2) 0.0226(4) Uani 1 1 d . . . . .
C4 C 0.2288(3) 0.0649(3) 0.3531(2) 0.0255(4) Uani 1 1 d . . . . .
H4 H 0.130800 -0.015564 0.381093 0.031 Uiso 1 1 calc R . . . .
C5 C 0.1853(3) 0.2492(3) 0.3866(2) 0.0250(4) Uani 1 1 d . . . . .
H5 H 0.055997 0.293037 0.438465 0.030 Uiso 1 1 calc R . . . .
C6 C 0.3332(3) 0.3720(2) 0.3436(2) 0.0245(4) Uani 1 1 d . . . . .
C7 C 0.5291(3) 0.3128(3) 0.2654(2) 0.0258(4) Uani 1 1 d . . . . .
H7 H 0.627802 0.392417 0.235766 0.031 Uiso 1 1 calc R . . . .
C8 C 0.5660(3) 0.1282(2) 0.2352(2) 0.0226(4) Uani 1 1 d . . . . .
loop_
_atom_site_aniso_label
_atom_site_aniso_U_11
_atom_site_aniso_U_22
_atom_site_aniso_U_33
_atom_site_aniso_U_23
_atom_site_aniso_U_13
_atom_site_aniso_U_12
O1 0.0250(6) 0.0232(6) 0.0299(6) -0.0081(5) 0.0041(5) -0.0043(5)
O2 0.0311(7) 0.0250(7) 0.0459(8) -0.0138(6) 0.0048(6) -0.0063(5)
N1 0.0311(8) 0.0206(7) 0.0228(7) -0.0060(5) 0.0001(6) -0.0049(6)
C1 0.0312(9) 0.0218(8) 0.0208(8) -0.0051(6) -0.0009(6) -0.0022(7)
C2 0.0343(10) 0.0272(9) 0.0326(9) -0.0085(7) 0.0023(7) 0.0015(7)
C3 0.0282(9) 0.0192(8) 0.0208(8) -0.0046(6) -0.0011(6) -0.0043(6)
C4 0.0264(9) 0.0240(9) 0.0270(8) -0.0050(6) 0.0030(7) -0.0090(6)
C5 0.0238(9) 0.0253(9) 0.0255(8) -0.0062(6) 0.0026(6) -0.0046(7)
C6 0.0276(9) 0.0203(8) 0.0260(8) -0.0067(6) -0.0014(7) -0.0032(6)
C7 0.0258(9) 0.0214(8) 0.0315(9) -0.0060(6) 0.0013(7) -0.0080(7)
C8 0.0228(8) 0.0233(8) 0.0212(8) -0.0043(6) 0.0013(6) -0.0039(6)
loop_
_atom_type_symbol
_atom_type_description
_atom_type_scat_dispersion_real
_atom_type_scat_dispersion_imag
_atom_type_scat_source
C C 0.0181 0.0091 'International Tables Vol C Tables 4.2.6.8 and 6.1.1.4'
H H 0.0000 0.0000 'International Tables Vol C Tables 4.2.6.8 and 6.1.1.4'
N N 0.0311 0.0180 'International Tables Vol C Tables 4.2.6.8 and 6.1.1.4'
O O 0.0492 0.0322 'International Tables Vol C Tables 4.2.6.8 and 6.1.1.4'
loop_
_exptl_crystal_face_index_h
_exptl_crystal_face_index_k
_exptl_crystal_face_index_l
_exptl_crystal_face_perp_dist
-4 0 0 0.0222
4 0 0 0.0222
0 -1 5 0.0568
0 1 -5 0.0568
1 5 0 0.0175
-1 -5 0 0.0175
loop_
_geom_angle_atom_site_label_1
_geom_angle_atom_site_label_2
_geom_angle_atom_site_label_3
_geom_angle
_geom_angle_site_symmetry_1
_geom_angle_site_symmetry_3
_geom_angle_publ_flag
C1 O1 C8 104.33(13) . . ?
C1 N1 C3 104.63(15) . . ?
O1 C1 C2 116.31(16) . . ?
N1 C1 O1 115.11(15) . . ?
N1 C1 C2 128.56(17) . . ?
C4 C3 N1 132.03(16) . . ?
C8 C3 N1 108.36(15) . . ?
C8 C3 C4 119.60(16) . . ?
C5 C4 C3 117.72(16) . . ?
C4 C5 C6 121.32(16) . . ?
O2 C6 C5 117.21(16) . . ?
O2 C6 C7 121.35(16) . . ?
C7 C6 C5 121.44(16) . . ?
C8 C7 C6 115.26(16) . . ?
O1 C8 C3 107.57(15) . . ?
O1 C8 C7 127.76(16) . . ?
C7 C8 C3 124.65(16) . . ?
loop_
_geom_bond_atom_site_label_1
_geom_bond_atom_site_label_2
_geom_bond_distance
_geom_bond_site_symmetry_2
_geom_bond_publ_flag
O1 C1 1.374(2) . ?
O1 C8 1.376(2) . ?
O2 C6 1.362(2) . ?
N1 C1 1.288(2) . ?
N1 C3 1.408(2) . ?
C1 C2 1.483(2) . ?
C3 C4 1.390(2) . ?
C3 C8 1.388(2) . ?
C4 C5 1.384(3) . ?
C5 C6 1.411(2) . ?
C6 C7 1.396(2) . ?
C7 C8 1.377(3) . ?
loop_
_exptl_oxdiff_crystal_face_indexfrac_h
_exptl_oxdiff_crystal_face_indexfrac_k
_exptl_oxdiff_crystal_face_indexfrac_l
_exptl_oxdiff_crystal_face_x
_exptl_oxdiff_crystal_face_y
_exptl_oxdiff_crystal_face_z
-3.9946 0.0096 0.0044 0.2439 0.8623 0.3442
3.9946 -0.0096 -0.0044 -0.2439 -0.8623 -0.3442
-0.0146 -1.0042 4.9859 0.1639 0.3738 -1.0255
0.0146 1.0042 -4.9859 -0.1639 -0.3738 1.0255
1.0084 5.0088 0.0081 -1.0294 0.1105 0.3478
-1.0084 -5.0088 -0.0081 1.0294 -0.1105 -0.3478
loop_
_hkl_oxdiff_h
_hkl_oxdiff_k
_hkl_oxdiff_l
_hkl_oxdiff_f2
_hkl_oxdiff_sig
_hkl_oxdiff_ba
0 0 1 8609.83 276.025 3
0 0 -1 8949.70 326.752 5
0 0 -1 9315.98 333.845 7
0 0 1 9120.53 225.809 1
0 0 -1 9092.27 332.685 6
0 0 -2 234501. 3030.98 6
0 0 2 235757. 2432.40 1
0 0 2 238562. 2765.67 3
0 0 -2 238740. 3003.53 5
0 0 -2 236136. 3061.17 7
0 0 -3 1312.62 232.237 7
0 0 -3 1483.73 247.100 5
0 0 3 1304.70 203.265 3
0 0 -3 1310.10 240.481 6
0 0 4 9931.80 625.512 3
0 0 -4 10498.1 731.758 5
0 0 -4 9770.92 745.812 7
0 0 -4 10247.4 755.222 6
0 0 -5 8406.41 797.653 7
0 0 -5 8880.54 767.676 5
0 0 -6 181.697 128.521 34
0 0 -6 254.188 104.288 28
0 0 -6 168.060 91.4264 30
0 0 -6 196.291 100.196 10
0 0 -6 178.929 106.178 14
0 0 -7 1344.83 204.645 30
0 0 -7 1337.11 220.525 34
0 0 -7 1038.68 192.939 19
0 0 -8 4497.36 323.411 19
0 0 -9 649.170 98.3105 22
0 1 -8 7.12784 93.1807 19
0 1 -8 0.70360 78.5760 22
0 1 -7 76.5362 101.657 28
0 1 -6 2546.76 270.303 34
0 1 -6 2432.85 253.163 28
0 1 -6 2680.22 279.827 30
0 1 -6 2673.97 250.221 8
0 1 -6 2192.64 264.219 14
0 1 -6 2583.35 249.937 10
0 1 -5 347.252 187.750 6
0 1 -5 222.982 208.389 7
0 -1 4 11013.0 695.725 3
0 1 -4 11329.5 866.758 7
0 1 -4 10248.3 805.065 6
0 1 -4 10893.6 778.195 5
0 1 -3 36977.7 1246.64 5
0 1 -3 35822.5 1338.03 7
0 1 -3 36333.6 1325.12 6
0 1 -2 239330. 3408.12 6
0 1 -2 241903. 3252.44 5
0 1 -2 241980. 2506.47 4
0 1 -2 239225. 3405.44 7
0 1 -1 49135.0 795.159 4
0 1 0 56844.4 912.739 4
0 1 0 54796.5 1007.44 1
0 1 0 57669.1 906.381 2
0 1 1 5228.49 266.064 3
0 1 1 5450.11 144.897 2
0 1 1 5108.22 273.815 4
0 1 2 3048.10 257.958 1
0 1 2 3460.07 262.608 3
0 -1 -3 15787.5 782.131 5
0 1 3 16289.3 624.920 1
0 1 3 15405.6 600.333 4
0 1 3 16091.3 675.360 3
0 -1 -4 744.046 214.835 5
0 1 4 606.401 158.374 3
0 -1 -5 289.165 166.914 5
0 -1 -6 381.239 138.417 34
0 -1 -7 1490.68 199.312 30
0 -1 -7 1660.83 255.392 34
0 -1 -7 1813.47 228.506 19
0 -1 -8 353.341 114.170 30
0 -1 -8 243.000 113.154 34
0 -1 -8 391.387 131.031 19
0 -1 -9 1811.85 170.428 22
0 2 -8 527.807 113.005 19
0 2 -7 -41.9023 90.9968 22
0 2 -7 69.7401 76.3357 8
0 2 -7 245.802 129.790 28
0 2 -6 5510.73 382.813 10
0 2 -6 6212.83 440.823 14
0 2 -6 5820.47 406.190 28
0 2 -6 6153.05 388.927 8
0 2 -5 -37.9603 156.224 6
0 2 -4 1206.11 311.426 6
0 2 -4 1358.17 341.768 7
0 2 -3 11003.4 819.045 6
0 2 -3 11300.7 832.221 7
0 2 -2 6230.00 535.661 7
0 2 -2 5578.20 523.855 6
0 2 -2 6529.34 363.368 4
0 2 -1 11218.4 624.885 2
0 2 -1 10941.1 497.489 4
0 2 0 1560.05 236.865 1
0 2 0 1463.45 201.174 4
0 2 0 1693.54 210.264 2
0 2 1 2679.91 197.444 2
0 2 1 2102.06 274.521 1
0 2 2 863.967 180.427 4
0 2 2 912.919 173.993 3
0 2 2 1070.36 210.664 1
0 2 3 7719.86 519.312 4
0 2 3 7954.80 551.932 1
0 2 3 7895.40 531.750 3
0 2 4 4944.78 444.527 4
0 2 4 5226.48 473.235 3
0 -2 -4 4724.56 528.847 5
0 -2 -5 1886.58 375.135 5
0 -2 -6 3269.36 306.730 24
0 -2 -6 3780.38 345.150 34
0 -2 -6 3753.00 290.287 30
0 -2 -7 4129.05 309.998 30
0 -2 -7 3814.43 359.664 34
0 -2 -8 247.937 134.188 34
0 -2 -8 154.658 88.8762 30
0 -2 -9 684.853 113.242 22
0 3 -8 2253.87 156.519 19
0 3 -7 3356.77 262.081 28
0 3 -7 3033.79 214.234 8
0 3 -6 60.3377 82.4472 8
0 3 -6 5.83333 73.9148 25
0 3 -6 -6.56131 99.3266 28
0 3 -6 29.7776 88.8239 14
0 3 -6 -49.2083 89.0100 10
0 3 -5 10230.0 523.073 8
0 3 -5 11253.0 584.100 14
0 3 -5 10068.0 483.722 25
0 3 -5 10646.6 525.568 10
0 3 -4 13.4561 154.336 6
0 3 -4 43.7888 138.499 7
0 3 -3 391.056 186.874 6
0 3 -3 121.456 167.072 7
0 3 -2 6743.03 666.319 6
0 3 -2 7384.87 678.455 7
0 3 -1 5313.96 432.526 4
0 3 0 10202.3 627.132 4
0 3 0 10081.1 632.694 2
0 3 1 6357.18 580.277 1
0 3 1 6584.96 413.888 2
0 3 1 5621.59 500.691 4
0 3 2 26988.7 1110.10 4
0 3 2 29450.8 1257.29 1
0 3 3 20685.6 1020.92 4
0 3 3 21447.8 999.571 3
0 3 4 7210.30 623.221 3
0 3 4 7342.10 677.336 1
0 3 4 6939.56 625.983 4
0 -3 -5 10153.4 928.783 5
0 -3 -6 3792.80 343.929 24
0 -3 -7 310.049 121.071 24
0 -3 -7 417.911 162.977 34
0 -3 -8 2847.50 261.884 24
0 -3 -8 3135.86 300.096 34
0 -3 -9 1554.97 161.357 34
0 4 -7 1093.27 130.385 19
0 4 -7 1390.48 139.121 28
0 4 -6 159.297 78.1554 8
0 4 -6 54.7463 80.2257 10
0 4 -6 91.2836 84.2999 28
0 4 -6 54.2149 69.5165 14
0 4 -6 136.628 81.9361 25
0 4 -5 1904.46 232.461 10
0 4 -5 1583.88 205.011 25
0 4 -5 1713.94 226.965 8
0 4 -5 1615.48 232.603 14
0 4 -4 7029.44 453.948 14
0 4 -4 6530.08 405.175 25
0 4 -4 7484.25 432.460 10
0 4 -4 6452.71 423.397 8
0 4 -3 715.572 389.067 6
0 4 -3 874.662 331.102 7
0 4 -2 -59.1538 145.991 7
0 4 -2 -6.64944 134.819 6
0 4 -1 40011.8 1459.71 4
0 4 0 929.690 237.574 4
0 4 1 65450.9 1990.60 4
0 4 2 20198.3 1132.41 4
0 4 3 3095.59 467.265 4
0 4 4 72.4921 95.0251 4
0 -4 -5 645.531 162.916 24
0 -4 -5 492.277 317.269 5
0 -4 -6 7817.90 512.900 24
0 -4 -7 3391.42 326.108 34
0 -4 -7 3263.32 322.433 24
0 -4 -8 66.3425 72.3181 34
0 -4 -8 268.194 104.263 24
0 -4 -9 9603.83 338.272 34
0 5 -6 1249.81 123.149 8
0 5 -6 1295.05 137.885 28
0 5 -6 1143.92 117.323 25
0 5 -5 836.332 142.734 25
0 5 -5 820.649 144.629 8
0 5 -5 745.023 137.907 10
0 5 -5 899.762 148.985 14
0 5 -4 2410.54 240.446 10
0 5 -4 2013.59 226.268 25
0 5 -4 2502.27 259.553 14
0 5 -4 2228.39 255.436 8
0 5 -3 5.03167 69.0942 10
0 5 -3 119.429 88.4774 33
0 5 -2 857.599 129.368 31
0 5 -2 937.074 147.068 33
0 5 -1 1353.21 355.098 7
0 5 -1 1762.36 468.483 6
0 5 0 739.649 240.643 4
0 5 1 4325.74 591.326 4
0 5 2 16181.0 1169.71 4
0 5 3 381.783 230.097 4
0 -5 -4 7049.29 453.506 20
0 -5 -5 4846.29 379.599 20
0 -5 -5 5269.48 412.824 24
0 -5 -6 883.461 196.134 24
0 -5 -6 852.133 157.320 20
0 -5 -6 1081.31 181.020 34
0 -5 -7 1326.72 210.968 24
0 -5 -7 1371.35 193.211 34
0 -5 -8 2383.62 218.173 24
0 -5 -8 2595.48 204.986 34
0 6 -5 8516.20 312.895 28
0 6 -5 8185.22 312.913 8
0 6 -5 8403.80 313.697 25
0 6 -4 4873.35 314.289 8
0 6 -4 4759.10 272.505 10
0 6 -4 5241.04 318.784 25
0 6 -3 1424.09 188.747 25
0 6 -2 8416.06 430.340 33
0 6 -2 8186.69 405.650 31
0 6 -1 12863.7 547.333 33
0 6 -1 12485.2 528.933 31
0 6 0 3267.32 284.912 31
0 6 0 3378.64 276.323 33
0 6 1 818.574 146.073 31
0 6 1 945.574 151.479 33
0 6 2 7965.76 415.793 31
0 6 3 27449.8 763.041 31
0 -6 -4 9748.57 537.746 24
0 -6 -4 8761.62 520.609 20
0 -6 -5 11972.7 610.236 24
0 -6 -5 11221.0 574.931 20
0 -6 -6 693.284 150.704 20
0 -6 -6 480.870 137.369 24
0 -6 -7 4.77202 69.4185 24
0 -6 -8 253.272 73.6515 24
0 7 -4 1088.09 101.919 25
0 7 -4 1110.35 103.681 8
0 7 -3 3145.18 232.994 8
0 7 -3 3267.56 221.257 25
0 7 -2 142.279 87.0540 25
0 7 -2 124.246 62.1134 31
0 7 -1 101.276 79.1497 33
0 7 -1 77.8933 111.064 31
0 7 0 6772.32 390.167 31
0 7 0 6970.04 385.876 33
0 7 1 3940.35 301.852 31
0 7 1 3842.02 294.403 33
0 7 2 11078.9 500.220 31
0 7 2 11670.7 476.728 33
0 7 3 1019.11 151.415 31
0 -7 -3 1183.85 202.040 20
0 -7 -4 148.838 112.570 20
0 -7 -5 27.1561 70.2936 20
0 -7 -5 35.2670 78.0944 24
0 -7 -6 264.315 87.3205 24
0 -7 -6 170.773 69.7708 20
0 -7 -7 126.687 60.1149 24
0 8 -2 426.271 71.9878 8
0 8 -1 276.673 61.8517 25
0 8 0 37.7163 48.8721 31
0 -8 -1 38.7297 60.6143 20
0 8 1 100.238 57.0860 31
0 8 1 20.5403 59.6918 33
0 8 2 199.044 65.8000 33
0 -8 -2 271.584 97.8308 20
0 8 2 340.199 89.1213 31
0 -8 -3 16.3734 65.3426 20
0 8 3 53.6841 46.4638 31
0 -8 -4 186.984 74.4311 20
0 -8 -5 40.3487 52.3345 20
1 -8 -4 658.773 101.610 20
-1 8 3 224.350 60.8152 31
1 -8 -3 241.337 89.8728 20
1 -8 -2 41.4496 59.6123 20
-1 8 2 72.2713 52.5903 33
-1 8 2 168.750 62.1572 31
-1 8 1 144.288 59.6977 33
-1 8 1 41.4362 48.5242 31
1 -8 -1 97.6634 68.1383 20
-1 8 0 44.5920 47.2946 31
-1 8 0 99.9466 56.1884 33
-1 8 -1 62.6866 38.4172 25
-1 8 -1 14.3560 29.6500 31
1 -7 -6 919.131 126.259 24
1 -7 -6 765.119 97.0647 20
1 -7 -5 80.4706 68.9463 20
1 -7 -5 185.923 90.3888 24
1 -7 -4 656.264 119.042 24
1 -7 -4 566.403 135.427 20
-1 7 3 38.4307 50.3117 31
1 -7 -3 29.9631 78.5477 20
-1 7 2 288.424 110.303 31
-1 7 2 247.517 88.9749 33
-1 7 1 1116.92 157.586 33
-1 7 1 1353.77 187.764 31
-1 7 0 9416.17 442.296 33
-1 7 0 10157.2 459.850 31
-1 7 -1 6884.40 360.332 33
-1 7 -1 6724.91 347.569 31
-1 7 -2 5474.63 265.337 31
-1 7 -2 5662.08 294.695 33
-1 7 -3 -64.0604 49.3135 25
-1 7 -3 9.10684 46.9428 8
1 -6 -7 161.915 68.1215 24
1 -6 -6 453.685 106.602 20
1 -6 -6 461.380 134.973 24
1 -6 -5 421.571 117.055 20
1 -6 -5 693.108 165.917 24
1 -6 -4 120.851 89.3132 20
-1 6 3 9811.85 450.003 31
-1 6 2 2623.67 252.679 31
-1 6 1 28984.9 835.920 31
-1 6 0 5386.11 364.042 31
-1 6 -1 171.183 89.7480 31
-1 6 -1 124.529 76.6773 33
-1 6 -2 4226.80 301.146 33
-1 6 -2 4186.92 286.776 31
-1 6 -3 5364.59 300.725 33
-1 6 -3 5479.55 313.117 10
-1 6 -4 2937.31 222.377 8
-1 6 -4 2886.59 204.968 10
-1 6 -4 2854.72 217.706 25
-1 6 -5 92.3616 51.1614 28
-1 6 -5 74.8715 39.8454 25
1 -5 -8 131.472 65.2463 24
1 -5 -8 187.179 68.3788 34
1 -5 -7 1070.45 175.723 24
1 -5 -7 978.204 166.853 34
1 -5 -6 7473.35 489.486 24
1 -5 -5 174.579 120.834 20
1 -5 -5 226.597 97.5139 9
1 -5 -4 7648.37 451.773 9
1 -5 -3 1709.71 206.231 9
-1 5 2 6383.82 763.506 4
-1 5 1 244.692 156.719 4
-1 5 0 11668.0 949.685 4
-1 5 -1 944.622 142.238 31
-1 5 -2 64.1985 76.9451 10
-1 5 -2 26.4127 61.3688 31
-1 5 -2 -5.98907 62.4594 33
-1 5 -3 3030.28 277.950 10
-1 5 -3 2685.00 232.488 33
-1 5 -4 463.626 130.201 10
-1 5 -4 358.544 121.071 8
-1 5 -5 758.711 124.267 25
-1 5 -5 764.800 120.300 8
-1 5 -5 737.131 151.409 10
-1 5 -6 360.722 82.2506 28
-1 5 -6 326.066 73.1140 10
1 -4 -8 6444.63 366.575 34
1 -4 -8 5996.30 328.018 24
1 -4 -7 29512.2 954.371 34
1 -4 -7 29688.3 934.195 24
1 -4 -6 224.429 137.662 24
1 -4 -6 232.417 87.4345 9
1 -4 -5 14026.2 588.082 9
-1 4 4 12253.3 1025.16 4
-1 4 4 10680.5 936.757 3
-1 4 3 1739.13 386.978 4
-1 4 2 171.692 100.121 4
-1 4 1 3542.01 479.075 4
-1 4 0 20664.1 1119.04 4
-1 4 0 19897.9 1122.53 2
-1 4 -1 41204.6 1785.24 2
-1 4 -1 39791.4 1639.01 7
-1 4 -1 38410.7 1798.58 6
-1 4 -2 628.490 272.365 6
-1 4 -2 552.767 225.843 7
-1 4 -3 17821.0 645.720 10
-1 4 -3 19136.5 683.943 15
-1 4 -4 662.848 145.080 8
-1 4 -4 827.799 159.525 10
-1 4 -4 945.825 168.398 14
-1 4 -4 668.689 133.412 15
-1 4 -5 1061.51 178.368 10
-1 4 -5 1261.42 186.246 14
-1 4 -5 1013.30 165.447 25
-1 4 -5 1092.96 178.619 8
-1 4 -6 1784.18 191.810 10
-1 4 -6 1881.30 208.476 28
-1 4 -6 1489.78 152.390 25
-1 4 -7 244.568 70.1027 28
1 -3 -9 9041.67 338.792 34
1 -3 -8 1711.79 218.059 34
1 -3 -7 2590.31 290.301 34
1 -3 -7 2415.05 230.162 8
1 -3 -7 2273.20 269.386 24
1 -3 -6 5006.35 340.424 8
1 -3 -6 4530.50 376.818 24
-1 3 5 2326.48 420.765 3
-1 3 4 2697.13 429.761 3
-1 3 4 2994.57 458.643 4
-1 3 3 26286.8 1233.57 3
-1 3 3 27284.7 1285.81 4
-1 3 2 12979.4 808.852 3
-1 3 2 13003.5 833.935 4
-1 3 1 12544.5 691.724 2
-1 3 1 10683.8 713.527 4
-1 3 0 5097.11 472.698 4
-1 3 0 5875.85 516.442 2
-1 3 -1 37.3326 107.578 7
-1 3 -1 -40.7909 97.0851 2
-1 3 -1 -90.4665 112.600 4
-1 3 -2 4183.57 519.776 7
-1 3 -2 3716.47 525.858 2
-1 3 -2 4676.26 587.739 6
-1 3 -3 1712.33 381.777 7
-1 3 -3 2219.52 472.609 6
-1 3 -4 76.3596 125.054 7
-1 3 -4 2105.84 265.468 11
-1 3 -5 57.6012 72.8112 14
-1 3 -5 109.627 71.2826 25
-1 3 -5 114.518 101.794 10
-1 3 -5 -7.98749 89.5774 15
-1 3 -6 -25.9884 85.5905 10
-1 3 -6 87.6387 83.0252 14
-1 3 -6 123.164 98.9762 28
-1 3 -7 4007.23 284.782 19
-1 3 -7 3835.73 275.475 28
-1 3 -7 3998.19 263.156 10
1 -2 -9 -61.6531 53.2069 22
1 -2 -9 101.244 57.6613 34
1 -2 -8 280.891 123.172 34
1 -2 -8 251.669 76.8767 8
1 -2 -7 2661.93 240.232 8
1 -2 -7 2524.37 292.791 34
1 -2 -6 294.466 91.3914 8
-1 2 5 10216.0 836.807 3
-1 2 4 9641.81 718.138 4
1 -2 -4 9890.32 732.220 5
-1 2 4 9741.79 742.098 3
-1 2 3 1984.36 316.889 3
-1 2 2 46130.7 1113.93 2
-1 2 2 44700.4 1337.26 3
-1 2 1 19808.0 752.359 2
-1 2 1 19986.8 796.736 3
-1 2 0 117.071 106.906 4
-1 2 0 184.466 112.971 2
-1 2 -1 124.161 79.6642 4
-1 2 -1 114.681 94.1785 7
-1 2 -1 53.4654 112.729 2
-1 2 -2 1848.25 325.320 6
-1 2 -2 1826.69 323.539 2
-1 2 -2 1847.43 295.518 7
-1 2 -3 3740.34 499.255 6
-1 2 -3 3596.33 479.830 7
-1 2 -3 4239.77 522.172 2
-1 2 -4 1876.02 410.769 7
-1 2 -4 1516.17 376.291 6
-1 2 -5 1442.37 197.739 15
-1 2 -5 999.667 168.088 14
-1 2 -5 1316.60 183.384 10
-1 2 -5 1227.77 183.144 11
-1 2 -5 1169.05 197.621 30
-1 2 -6 416.338 128.466 10
-1 2 -6 464.323 134.970 14
-1 2 -6 273.475 96.3020 22
-1 2 -6 530.268 130.827 28
-1 2 -7 265.306 105.468 28
-1 2 -7 331.154 109.303 19
-1 2 -7 262.552 102.124 22
-1 2 -7 143.284 91.5257 10
-1 2 -8 215.299 63.5553 19
1 -1 -9 -4.06483 52.5274 22
1 -1 -8 1115.45 185.149 34
1 -1 -8 1498.27 156.702 8
1 -1 -7 5512.91 352.716 8
1 -1 -7 4783.92 390.169 34
1 -1 -6 201.117 112.364 8
-1 1 5 12593.7 896.237 3
-1 1 4 32.9032 92.6643 3
1 -1 -4 23.5594 105.084 5
-1 1 3 375.908 136.060 3
1 -1 -3 476.492 141.482 5
-1 1 2 13796.6 646.390 3
-1 1 1 28878.3 816.690 2
-1 1 0 11708.2 352.996 7
-1 1 0 12487.2 454.984 3
-1 1 -1 737.596 154.531 7
-1 1 -1 699.356 150.831 6
-1 1 -2 21703.6 889.623 5
-1 1 -2 21564.5 905.100 7
-1 1 -2 21394.0 904.979 2
-1 1 -2 22933.6 948.528 6
-1 1 -3 26286.2 1135.90 5
-1 1 -3 25902.3 1104.61 2
-1 1 -3 26057.5 1187.19 7
-1 1 -3 25322.4 1157.87 6
-1 1 -4 119903. 3061.85 7
-1 1 -4 123858. 2978.60 5
-1 1 -4 119712. 3028.43 6
-1 1 -5 8374.91 871.849 6
-1 1 -5 7525.26 796.520 5
-1 1 -5 7521.52 836.536 7
-1 1 -6 16964.7 601.255 11
-1 1 -6 17100.0 656.165 28
-1 1 -6 17293.7 629.088 10
-1 1 -6 16247.0 710.933 14
-1 1 -6 17034.3 689.194 30
-1 1 -7 60.1359 89.4567 22
-1 1 -7 250.158 130.392 28
-1 1 -7 104.350 90.4717 19
-1 1 -7 57.3889 74.5363 10
-1 1 -7 241.716 143.061 30
-1 1 -8 715.606 137.952 22
-1 1 -8 485.080 115.990 19
1 0 -9 385.733 81.9801 22
1 0 -8 3034.87 251.251 34
1 0 -8 3001.96 233.948 19
1 0 -8 3345.61 228.416 8
1 0 -7 2583.37 250.488 8
1 0 -7 2335.02 259.262 34
1 0 -6 17729.8 684.837 14
1 0 -6 16989.8 662.409 28
1 0 -6 17326.3 646.717 8
1 0 -6 16109.1 681.898 34
-1 0 5 2532.33 419.742 3
1 0 -4 2828.83 351.677 5
1 0 -4 2547.71 373.717 7
-1 0 4 2537.54 360.590 3
1 0 -3 16253.2 756.971 7
-1 0 3 16203.5 800.830 3
1 0 -3 16822.0 695.183 5
1 0 -2 44041.0 1039.32 4
1 0 -2 43098.4 998.886 7
1 0 -2 43650.1 982.904 6
-1 0 2 43727.7 1134.60 3
1 0 -2 42735.0 892.397 5
1 0 -1 5993.60 236.658 7
1 0 -1 5653.08 316.433 4
1 0 -1 5596.41 171.499 5
1 0 0 139024. 1730.74 4
-1 0 0 142132. 1612.22 3
-1 0 0 140294. 1372.77 6
-1 0 0 141626. 1452.86 5
-1 0 -1 833.989 127.435 2
-1 0 -1 708.057 125.343 5
1 0 1 692.096 77.6091 4
-1 0 -1 691.806 119.649 7
-1 0 -1 696.060 125.396 6
1 0 2 969846. 8510.19 3
-1 0 -2 990375. 9404.84 2
-1 0 -2 999999. 9677.38 6
1 0 3 19931.6 813.320 1
-1 0 -3 21119.0 827.520 2
-1 0 -3 20040.5 949.918 6
-1 0 -3 20441.9 967.886 7
-1 0 -3 20376.7 948.418 5
-1 0 -4 98794.1 2524.64 5
-1 0 -4 100785. 2597.33 6
-1 0 -4 99640.0 2599.71 7
-1 0 -5 610.161 282.763 7
-1 0 -5 471.201 205.492 5
-1 0 -6 927.596 170.106 30
-1 0 -6 644.786 173.274 34
-1 0 -6 969.483 163.253 28
-1 0 -7 1937.62 267.521 34
-1 0 -7 2577.57 249.782 28
-1 0 -7 2320.84 262.477 30
-1 0 -7 2312.79 280.974 19
-1 0 -8 71.2586 88.6732 22
-1 0 -8 -45.0245 79.7915 19
-1 0 -9 284.452 84.8181 22
1 1 -8 1160.94 151.169 19
1 1 -8 1162.97 131.989 8
1 1 -7 98.3917 82.6169 14
1 1 -7 13.8430 67.5861 8
1 1 -6 479.495 138.965 28
1 1 -6 613.351 157.448 14
1 1 -6 409.310 113.841 8
1 1 -6 442.557 107.754 25
1 1 -5 2945.32 498.720 7
-1 -1 4 3035.49 415.730 3
1 1 -4 3018.18 436.773 7
1 1 -4 3292.54 440.095 6
1 1 -3 17.6100 66.0504 4
1 1 -3 108.666 127.310 6
-1 -1 3 73.6433 91.6202 3
1 1 -3 19.3365 99.8083 7
1 1 -2 348.768 144.688 7
1 1 -2 160.070 77.0085 4
1 1 -2 180.619 94.3332 6
1 1 -1 93305.5 1302.79 1
1 1 -1 93368.0 1499.85 4
1 1 -1 93688.0 1424.09 6
1 1 0 129462. 1842.51 1
1 1 1 30589.6 898.085 1
1 1 1 33167.5 724.712 4
1 1 2 47642.2 893.157 4
1 1 2 47014.5 761.816 3
-1 -1 -2 46690.8 819.421 2
1 1 3 6032.23 289.318 4
1 1 3 6098.69 307.101 3
1 1 3 5497.83 446.669 1
-1 -1 -3 5729.69 515.002 5
-1 -1 -4 765.244 238.772 5
-1 -1 -5 4397.10 585.983 5
-1 -1 -6 19.9198 100.106 19
-1 -1 -6 217.371 113.616 30
-1 -1 -6 36.8121 87.9242 34
-1 -1 -7 224.634 95.0357 30
-1 -1 -7 280.210 155.567 34
-1 -1 -7 406.848 138.888 19
-1 -1 -8 119.407 99.2830 22
-1 -1 -8 -5.61799 93.2429 19
-1 -1 -8 130.259 105.884 30
-1 -1 -9 82.9770 67.6108 22
1 2 -8 983.356 131.199 19
1 2 -8 940.954 104.455 8
1 2 -7 2349.66 223.297 8
1 2 -7 1883.54 239.350 14
1 2 -7 2497.78 263.085 28
1 2 -7 1931.43 179.512 25
1 2 -6 56.2935 79.6450 25
1 2 -6 163.388 115.539 14
1 2 -6 132.870 104.935 28
1 2 -6 77.5389 93.4376 8
1 2 -5 137.092 87.0882 10
1 2 -5 -56.8858 93.5337 14
1 2 -5 76.9826 90.1414 28
1 2 -5 119.068 104.149 8
1 2 -5 120.791 75.6231 25
1 2 -4 25627.3 1323.25 6
-1 -2 4 25060.7 1289.27 3
1 2 -4 25761.2 1429.18 7
1 2 -3 2449.23 378.910 6
1 2 -3 2313.17 382.155 7
1 2 -2 16965.7 704.071 4
1 2 -2 14983.0 789.092 6
1 2 -1 58657.8 1327.68 4
1 2 -1 58188.5 1312.58 1
1 2 0 12965.4 633.272 1
1 2 1 17511.7 785.580 1
1 2 1 18774.1 705.983 4
1 2 2 753.560 212.344 1
1 2 2 536.456 137.899 4
1 2 3 797.937 167.151 4
1 2 3 1069.44 265.679 1
1 2 4 -9.13404 104.609 1
-1 -2 -4 -63.1020 129.814 5
-1 -2 -5 890.242 285.095 5
-1 -2 -6 48.7341 93.8105 34
-1 -2 -6 17.5617 95.7598 19
-1 -2 -6 33.5763 72.4489 30
-1 -2 -6 -26.8378 90.9968 24
-1 -2 -7 97.9549 119.646 19
-1 -2 -7 243.173 106.763 34
-1 -2 -7 96.0417 77.0206 30
-1 -2 -7 246.659 121.003 24
-1 -2 -8 1115.46 179.587 22
-1 -2 -8 1023.31 162.560 30
-1 -2 -8 975.425 203.366 34
-1 -2 -9 1703.58 150.010 30
-1 -2 -9 1233.08 148.494 22
1 3 -7 281.507 79.9085 25
1 3 -7 386.028 112.428 28
1 3 -7 114.334 73.3727 14
1 3 -7 282.806 85.4761 8
1 3 -6 5549.60 355.297 25
1 3 -6 6139.78 401.140 28
1 3 -6 5789.34 379.002 8
1 3 -6 5808.56 424.770 14
1 3 -5 7572.39 430.919 25
1 3 -5 9089.34 477.990 10
1 3 -5 8108.49 496.574 14
1 3 -5 9108.63 481.204 28
1 3 -5 8593.24 485.146 8
-1 -3 4 38.0435 117.732 3
1 3 -4 143.316 210.033 7
1 3 -4 -44.2924 152.413 6
1 3 -3 21999.8 1327.20 7
1 3 -3 20630.4 1225.12 6
1 3 -2 -54.6790 73.1458 4
1 3 -2 -75.4661 172.023 6
1 3 -1 1480.09 263.711 1
1 3 -1 1286.65 234.457 4
1 3 0 34064.3 1167.05 4
1 3 0 35038.8 1290.21 1
1 3 1 3403.64 370.866 4
1 3 1 3081.76 410.127 1
1 3 2 1754.85 329.642 1
1 3 2 1709.98 285.800 4
1 3 3 16369.8 1008.24 1
1 3 3 15794.6 840.510 4
1 3 4 18268.1 938.414 4
1 3 4 18331.0 1116.25 1
-1 -3 -5 19862.3 1338.68 5
-1 -3 -6 2687.64 288.383 34
-1 -3 -6 2146.41 273.861 24
-1 -3 -6 2031.11 232.086 30
-1 -3 -7 4245.04 381.636 24
-1 -3 -7 4860.81 393.239 34
-1 -3 -7 4388.54 344.798 30
-1 -3 -8 1568.19 189.255 22
-1 -3 -8 1933.81 244.655 34
-1 -3 -8 1807.82 199.072 30
-1 -3 -9 220.603 62.9809 30
1 4 -7 115.092 51.4923 8
1 4 -7 76.4001 40.5475 25
1 4 -6 941.869 153.820 28
1 4 -6 1049.45 159.759 8
1 4 -6 967.695 160.420 14
1 4 -6 774.521 127.981 25
1 4 -5 866.524 168.507 28
1 4 -5 973.859 172.644 25
1 4 -5 750.737 169.427 8
1 4 -5 1029.77 171.000 10
1 4 -5 881.331 182.950 14
1 4 -4 209.912 104.507 10
1 4 -4 28.3873 98.3776 8
1 4 -4 76.3342 104.907 25
1 4 -3 6121.94 788.747 7
1 4 -3 6669.13 794.583 6
1 4 -2 13930.4 1084.90 7
1 4 -2 12433.2 1019.46 6
1 4 -1 94.7343 135.085 4
1 4 0 1363.84 314.774 1
1 4 0 1866.38 328.705 4
1 4 1 50270.6 1904.31 1
1 4 1 44955.5 1624.94 4
1 4 2 407.218 231.424 1
1 4 2 64.5622 107.640 4
1 4 3 44946.2 1935.60 1
1 4 3 39836.8 1609.47 4
1 4 4 6691.54 672.729 4
1 4 4 6282.63 751.294 1
-1 -4 -5 1624.25 405.010 5
-1 -4 -6 162.866 109.877 34
-1 -4 -6 36.0235 78.7396 20
-1 -4 -6 75.4442 100.902 30
-1 -4 -6 140.602 140.773 24
-1 -4 -7 -70.7029 97.4170 24
-1 -4 -7 1.52775 71.1537 30
-1 -4 -7 107.503 88.5556 34
-1 -4 -8 3781.72 293.846 34
-1 -4 -8 3328.94 240.500 30
-1 -4 -8 3228.30 283.838 24
-1 -4 -9 452.030 78.1456 32
1 5 -6 1091.64 126.186 8
1 5 -6 1135.43 121.252 28
1 5 -6 1142.29 125.675 25
1 5 -6 1105.49 137.042 14
1 5 -5 2205.71 226.678 8
1 5 -5 2469.04 224.427 28
1 5 -5 2282.21 243.666 14
1 5 -5 2141.11 224.428 25
1 5 -4 951.980 178.607 8
1 5 -4 1079.73 180.720 25
1 5 -4 1247.79 176.143 10
1 5 -3 3110.60 291.269 25
1 5 -2 7207.72 388.852 33
1 5 -1 2330.60 426.843 4
1 5 0 1348.48 325.097 4
1 5 1 44.2422 123.588 4
1 5 2 3661.73 557.613 4
1 5 2 3908.31 633.478 1
1 5 3 4660.54 633.040 4
1 5 3 4956.73 724.758 1
1 5 4 8780.76 871.360 4
-1 -5 -4 8547.67 495.329 20
-1 -5 -5 2040.27 280.179 24
-1 -5 -5 1739.94 243.526 20
-1 -5 -6 4081.10 344.917 20
-1 -5 -6 4266.13 381.784 24
-1 -5 -7 4592.18 323.962 20
-1 -5 -7 5300.61 401.911 24
-1 -5 -7 4774.63 310.745 30
-1 -5 -8 95.7354 90.8192 24
-1 -5 -8 58.7978 64.7062 34
1 6 -5 3752.51 223.482 8
1 6 -5 3710.64 224.100 14
1 6 -5 3776.29 217.929 25
1 6 -4 86.8037 68.7007 25
1 6 -4 108.937 82.4301 8
1 6 -4 22.1707 56.9492 14
1 6 -3 22010.4 765.482 8
1 6 -3 22793.9 726.817 25
1 6 -2 12825.3 555.681 25
1 6 -2 13984.7 532.359 31
1 6 -1 4362.29 314.530 33
1 6 -1 4565.91 321.780 31
1 6 0 15979.7 590.721 33
1 6 0 15856.7 600.478 31
1 6 1 15407.2 559.804 33
1 6 1 15972.9 598.512 31
-1 -6 -2 1105.27 198.885 20
1 6 2 746.528 140.720 31
-1 -6 -3 3193.56 320.837 20
1 6 3 2850.38 243.554 31
-1 -6 -4 6191.88 442.285 20
-1 -6 -4 6261.95 424.991 24
-1 -6 -5 15390.8 686.845 20
-1 -6 -5 14881.5 677.240 24
-1 -6 -6 11445.2 478.003 32
-1 -6 -6 11193.3 575.037 24
-1 -6 -6 10923.6 543.278 20
-1 -6 -7 6820.67 357.170 20
-1 -6 -7 7134.06 336.990 32
-1 -6 -7 7301.30 417.733 24
-1 -6 -8 845.694 94.2463 32
1 7 -4 7610.52 284.256 8
1 7 -4 8081.17 276.524 25
1 7 -3 75.1354 54.7754 8
1 7 -3 205.837 79.4007 25
1 7 -2 1368.03 188.644 8
1 7 -2 1762.56 184.430 25
1 7 -1 2096.21 212.112 31
1 7 -1 1995.30 196.641 25
1 7 0 454.533 110.348 33
1 7 0 685.887 141.326 31
1 7 1 209.010 86.8914 33
1 7 1 165.394 100.706 31
-1 -7 -2 4662.07 363.806 20
1 7 2 4200.93 315.309 31
1 7 3 990.911 146.844 31
-1 -7 -3 1179.47 178.020 17
-1 -7 -3 1009.02 182.277 20
-1 -7 -4 8730.89 502.603 20
-1 -7 -5 676.538 152.713 20
-1 -7 -6 110.290 70.1414 20
-1 -7 -6 196.305 81.2408 24
-1 -7 -7 124.071 60.5546 20
-1 -7 -7 223.024 75.2837 24
1 8 -2 10.3107 39.3121 8
-1 -8 1 60.3503 55.1365 17
1 8 -1 95.8508 62.8031 8
-1 -8 0 493.131 112.338 17
1 8 1 49.1282 70.3478 31
-1 -8 -1 180.121 83.3058 17
-1 -8 -2 89.3932 69.2354 17
-1 -8 -2 71.7589 69.6058 20
-1 -8 -3 147.088 69.8364 20
-1 -8 -4 64.7397 59.8660 20
-1 -8 -5 -17.1327 50.6646 20
-1 -8 -6 95.4647 38.8798 20
2 -8 -3 1539.38 129.000 20
2 -8 -2 1108.21 119.277 20
-2 8 2 1320.41 106.191 31
2 -8 -1 39.1226 38.2797 20
-2 8 1 108.969 41.8671 31
-2 8 1 150.656 49.9300 33
2 -7 -5 2145.12 181.297 24
2 -7 -5 2481.59 173.916 20
2 -7 -4 1270.65 155.886 20
-2 7 4 1142.41 143.067 26
2 -7 -4 1389.82 164.749 24
-2 7 3 156.132 71.7064 31
-2 7 3 30.6257 51.2348 26
-2 7 3 179.003 55.6012 33
-2 7 2 1028.20 141.029 31
-2 7 2 1151.71 143.607 33
-2 7 1 11.4439 74.2548 31
-2 7 1 -17.7651 59.6999 33
-2 7 0 358.608 110.159 33
-2 7 0 209.150 79.0876 31
-2 7 -1 844.733 119.502 31
-2 7 -1 877.880 118.938 33
-2 7 -2 4546.60 205.331 31
-2 7 -2 4533.67 219.013 33
-2 7 -3 5698.57 217.356 25
2 -6 -7 28.5134 43.1517 24
2 -6 -6 125.546 81.5681 24
2 -6 -5 142.544 105.463 24
2 -6 -5 207.649 84.5442 20
-2 6 3 716.841 132.111 31
-2 6 2 41.2952 68.7384 31
-2 6 1 4650.15 336.031 26
-2 6 1 4599.84 332.519 31
-2 6 0 -32.8605 80.0130 31
-2 6 -1 16277.4 595.829 31
-2 6 -1 16229.6 594.475 33
-2 6 -2 2137.89 208.587 33
-2 6 -2 2306.28 205.972 31
-2 6 -2 1808.38 187.915 10
-2 6 -3 705.293 106.512 33
-2 6 -3 810.442 120.897 10
-2 6 -4 2817.21 183.967 25
-2 6 -4 2912.73 182.971 10
2 -5 -7 -28.0623 74.0687 24
2 -5 -7 -24.5919 71.5747 34
2 -5 -6 100.961 108.003 24
2 -5 -6 48.9279 58.6733 9
2 -5 -5 930.214 174.263 9
2 -5 -4 11520.3 564.954 9
2 -5 -3 7223.10 445.822 9
-2 5 2 15146.0 565.970 31
2 -5 -2 14549.8 615.705 9
-2 5 1 822.614 148.866 31
-2 5 1 715.263 150.078 23
-2 5 0 3175.99 291.442 26
-2 5 0 2739.94 247.705 31
-2 5 -1 1045.06 157.732 10
-2 5 -1 862.559 156.455 31
-2 5 -1 817.023 151.230 26
-2 5 -2 4639.35 335.245 10
-2 5 -2 4754.51 338.150 15
-2 5 -2 4660.32 310.589 31
-2 5 -3 -70.5029 136.783 15
-2 5 -3 389.024 124.939 10
-2 5 -4 437.441 116.147 10
-2 5 -5 2252.89 170.763 25
-2 5 -5 2456.90 198.991 10
2 -4 -8 176.256 74.0948 34
2 -4 -7 4986.10 291.135 9
2 -4 -7 4688.48 336.020 24
2 -4 -6 7026.22 463.265 24
2 -4 -6 7221.52 416.313 9
2 -4 -5 63218.1 1381.40 9
2 -4 -4 156.103 93.8046 9
-2 4 3 27591.3 1600.72 4
-2 4 2 10634.4 940.891 4
-2 4 1 899.758 268.042 4
-2 4 0 282.754 160.527 4
-2 4 0 120.541 114.485 2
-2 4 -1 2453.27 492.327 6
-2 4 -1 2351.18 470.414 2
-2 4 -2 10045.4 1023.37 6
-2 4 -3 14346.4 610.949 15
-2 4 -3 14364.8 608.347 10
-2 4 -4 -19.4823 90.9575 15
-2 4 -4 231.374 127.457 10
-2 4 -5 4810.91 297.228 25
-2 4 -5 4199.10 326.069 15
-2 4 -5 4812.75 332.908 10
-2 4 -6 795.571 127.396 28
-2 4 -6 514.772 109.590 10
2 -3 -8 47.5678 73.7671 34
2 -3 -7 10087.3 490.545 24
2 -3 -6 2475.86 253.497 8
2 -3 -6 2483.11 280.080 24
2 -3 -6 2206.98 237.429 9
2 -3 -5 2504.68 256.835 8
2 -3 -5 2229.57 236.696 9
-2 3 4 2986.08 514.764 4
-2 3 4 2244.37 428.084 3
-2 3 3 1561.62 342.192 3
-2 3 3 2011.12 401.863 4
-2 3 2 184.388 91.0053 3
-2 3 1 27971.1 1310.12 4
-2 3 1 28747.9 1267.75 2
-2 3 1 28058.3 1257.43 3
-2 3 0 6685.80 654.472 2
-2 3 0 6563.92 598.855 4
-2 3 -1 1943.32 391.747 6
-2 3 -1 1863.05 370.344 2
-2 3 -2 2.39998 118.714 7
-2 3 -2 141.804 168.565 6
-2 3 -2 -61.9894 137.958 2
-2 3 -3 333.838 171.825 7
-2 3 -3 9.35242 152.749 2
-2 3 -3 261.824 176.517 6
-2 3 -4 1085.57 192.941 15
-2 3 -4 1071.97 197.102 11
-2 3 -4 843.726 164.031 29
-2 3 -4 905.912 176.576 10
-2 3 -5 354.603 137.478 29
-2 3 -5 563.262 170.948 15
-2 3 -6 20.7952 70.2671 19
-2 3 -6 -212.869 113.153 15
-2 3 -6 -75.9265 83.2884 10
-2 3 -7 36.0649 56.3938 19
-2 3 -7 -49.3186 49.9506 28
-2 3 -7 50.7746 56.5250 10
2 -2 -8 2143.46 183.659 8
2 -2 -8 2305.82 227.344 34
2 -2 -7 869.438 149.077 8
2 -2 -6 -85.7209 72.8166 9
2 -2 -6 51.8607 86.4846 8
-2 2 5 2711.92 484.232 3
-2 2 4 4160.39 557.689 3
-2 2 3 22496.8 1158.94 3
-2 2 2 9140.00 673.182 3
-2 2 2 9235.11 653.090 2
-2 2 1 1951.42 299.707 3
-2 2 1 1717.11 285.039 2
-2 2 0 51331.0 1629.94 2
-2 2 0 49808.0 1370.05 3
-2 2 -1 4016.28 371.441 4
-2 2 -1 3890.06 470.246 2
-2 2 -1 4050.34 378.405 7
-2 2 -1 3794.82 425.502 6
-2 2 -2 99.2630 115.553 6
-2 2 -2 123.137 100.677 7
-2 2 -2 237.746 146.751 2
-2 2 -3 941.311 261.257 7
-2 2 -3 631.995 238.522 6
-2 2 -3 1081.29 286.705 2
-2 2 -4 187.224 128.973 7
-2 2 -4 -21.7910 156.633 2
-2 2 -4 370.080 201.837 6
-2 2 -5 687.791 155.324 22
-2 2 -5 810.132 144.711 11
-2 2 -5 990.377 181.404 15
-2 2 -5 914.616 161.033 14
-2 2 -5 1185.19 194.081 30
-2 2 -5 1079.02 177.783 29
-2 2 -5 687.475 142.817 10
-2 2 -6 144.656 107.534 22
-2 2 -6 355.932 135.299 15
-2 2 -6 557.382 152.538 11
-2 2 -6 36.4000 108.963 19
-2 2 -6 261.772 98.8253 10
-2 2 -7 85.6361 88.5417 19
-2 2 -7 36.8627 84.9913 22
-2 2 -7 -0.09641 72.5609 28
-2 2 -7 -43.2641 60.2889 10
-2 2 -8 1431.53 135.515 19
2 -1 -8 61.1881 80.3892 34
2 -1 -8 -20.2681 51.2668 8
2 -1 -7 814.187 166.897 34
2 -1 -7 1060.88 166.938 8
2 -1 -6 4279.89 328.821 8
-2 1 5 7105.19 759.976 3
-2 1 4 672.627 227.482 3
-2 1 3 49545.3 1650.02 3
-2 1 2 2944.14 352.656 3
-2 1 1 334.145 124.077 3
-2 1 1 130.910 132.971 2
-2 1 0 21114.1 684.934 6
-2 1 0 20825.7 921.199 2
-2 1 0 21290.4 736.194 3
-2 1 -1 35031.5 973.601 7
-2 1 -1 34564.6 1062.40 6
-2 1 -1 32707.4 1245.09 2
-2 1 -2 6743.25 560.999 6
-2 1 -2 6098.78 557.138 2
-2 1 -2 6112.12 499.212 7
-2 1 -2 6319.43 536.639 5
-2 1 -3 767.128 220.534 7
-2 1 -3 605.616 203.534 2
-2 1 -3 699.149 220.066 6
-2 1 -3 997.019 271.258 5
-2 1 -4 3942.15 566.295 7
-2 1 -4 4933.16 585.699 2
-2 1 -4 4676.35 611.574 6
-2 1 -4 4281.04 574.382 5
-2 1 -5 6406.15 791.942 7
-2 1 -5 4899.85 693.854 6
-2 1 -6 53107.9 1248.41 22
-2 1 -6 50781.5 1261.56 19
-2 1 -6 53678.8 1143.82 15
-2 1 -6 52947.0 1261.14 30
-2 1 -6 51031.2 1163.24 28
-2 1 -6 52138.9 1155.90 11
-2 1 -6 51479.6 1131.34 10
-2 1 -7 802.778 175.474 22
-2 1 -7 895.095 171.246 19
-2 1 -7 1187.76 200.462 30
-2 1 -7 1052.92 163.497 28
-2 1 -8 12534.4 492.614 19
-2 1 -8 12215.7 457.520 22
2 0 -8 980.435 126.474 8
2 0 -7 124.572 94.8550 8
2 0 -6 8916.63 476.126 8
2 0 -6 8736.31 425.904 25
-2 0 5 2805.98 486.797 3
-2 0 4 37339.4 1584.61 3
-2 0 3 7766.40 630.358 3
2 0 -2 13663.8 708.973 4
2 0 -2 13540.5 497.223 7
-2 0 2 13487.2 733.565 3
2 0 -1 13799.5 650.051 4
-2 0 1 13499.0 618.926 3
2 0 0 31027.4 912.967 4
-2 0 0 30532.4 795.695 3
2 0 1 4528.77 317.164 4
-2 0 -1 4791.05 209.965 3
-2 0 -1 4364.63 333.478 5
-2 0 -1 4178.41 406.565 2
-2 0 -1 4158.23 294.751 6
-2 0 -2 19102.3 867.048 2
-2 0 -2 20283.9 867.969 7
-2 0 -2 19540.6 827.092 6
-2 0 -2 21322.9 890.540 5
2 0 2 19704.6 546.311 4
-2 0 -3 2236.29 347.425 7
-2 0 -3 2246.67 321.463 2
-2 0 -3 2499.30 365.726 6
-2 0 -3 2178.74 338.552 5
-2 0 -4 181804. 3784.89 7
-2 0 -4 178088. 3355.75 2
-2 0 -4 177884. 3724.39 6
-2 0 -4 169435. 3720.06 5
-2 0 -5 8469.38 875.816 5
-2 0 -6 36996.2 1050.65 19
-2 0 -6 35425.5 915.371 11
-2 0 -6 35513.5 1013.89 30
-2 0 -6 35198.8 1012.28 22
-2 0 -7 130.214 91.2686 19
-2 0 -7 318.769 118.681 30
-2 0 -7 85.3111 99.5217 22
-2 0 -7 41.1499 80.4426 11
-2 0 -8 20.0807 85.8843 19
-2 0 -8 170.000 102.205 30
-2 0 -8 27.3696 88.5118 22
-2 0 -9 747.740 104.539 22
2 1 -8 -28.5602 49.4635 8
2 1 -7 169.973 88.9309 8
2 1 -7 153.095 70.4992 25
2 1 -6 565.625 138.930 14
2 1 -6 426.893 126.000 8
2 1 -6 422.315 126.677 25
-2 -1 5 315.079 152.721 3
-2 -1 4 2772.58 450.865 3
2 1 -3 17140.3 862.785 4
2 1 -3 16591.0 880.042 7
-2 -1 3 16689.0 958.482 3
2 1 -2 145.949 87.0656 4
-2 -1 2 157.424 119.867 3
2 1 -2 130.490 97.7618 7
2 1 -1 2590.67 140.214 6
2 1 -1 2465.82 285.642 4
2 1 -1 2784.62 269.115 1
2 1 0 22184.1 777.861 4
2 1 0 22667.4 857.678 1
-2 -1 0 20301.4 519.134 5
2 1 1 41701.5 1042.19 4
-2 -1 -1 39381.6 1036.48 5
-2 -1 -2 1268.80 221.149 5
-2 -1 -2 1361.51 216.883 2
2 1 2 1545.36 183.039 4
2 1 2 1491.50 269.536 1
2 1 3 6132.91 567.727 1
-2 -1 -3 5575.30 421.380 2
-2 -1 -3 5749.94 548.278 5
2 1 4 10614.8 813.672 1
-2 -1 -4 9187.40 790.408 5
-2 -1 -5 1846.49 404.922 5
-2 -1 -6 571.432 140.823 22
-2 -1 -6 884.462 184.796 19
-2 -1 -6 947.382 206.886 34
-2 -1 -6 845.691 166.674 30
-2 -1 -6 680.774 116.800 11
-2 -1 -7 877.386 191.238 22
-2 -1 -7 713.064 172.527 19
-2 -1 -7 396.533 107.858 30
-2 -1 -8 -144.083 113.675 22
-2 -1 -8 16.4837 91.8335 30
-2 -1 -9 185.859 75.3098 22
2 2 -8 2091.06 147.413 8
2 2 -7 6397.40 360.471 8
2 2 -7 6448.00 372.282 14
2 2 -7 6756.63 338.105 25
2 2 -6 4201.15 329.389 28
2 2 -6 3589.43 314.207 8
2 2 -6 3645.50 320.568 14
2 2 -6 3223.78 279.562 25
2 2 -5 4933.91 364.856 8
2 2 -5 4976.23 371.155 14
2 2 -5 4808.22 345.050 28
2 2 -5 4796.08 333.527 25
-2 -2 4 527.540 235.121 3
2 2 -4 406.333 222.466 7
-2 -2 3 291.200 166.342 3
2 2 -3 209.876 126.021 4
2 2 -3 147.879 123.240 7
2 2 -2 64783.9 1718.86 4
2 2 -2 65741.2 1582.49 6
2 2 -1 14414.6 734.850 4
2 2 -1 15840.5 723.697 1
2 2 -1 14969.4 627.177 6
2 2 0 39203.4 1189.63 4
2 2 0 39328.9 1273.34 1
2 2 1 63412.4 1504.29 4
2 2 1 64661.4 1762.96 1
2 2 2 7562.16 482.654 4
-2 -2 -2 7144.86 424.540 2
2 2 2 7891.76 653.109 1
2 2 3 6678.03 647.149 1
2 2 3 6070.25 430.465 4
-2 -2 -3 6261.95 592.229 5
-2 -2 -4 14.5965 126.138 5
2 2 4 196.201 180.761 1
-2 -2 -5 82.5702 119.761 5
-2 -2 -6 -23.6893 88.3289 22
-2 -2 -6 2.37647 113.868 19
-2 -2 -6 175.262 126.604 34
-2 -2 -6 65.9710 74.8997 30
-2 -2 -6 134.727 79.8818 20
-2 -2 -6 -11.1055 102.022 24
-2 -2 -7 -63.9473 117.909 22
-2 -2 -7 156.745 122.835 19
-2 -2 -7 34.7389 118.630 34
-2 -2 -7 62.4120 96.9584 30
-2 -2 -8 706.687 145.735 22
-2 -2 -8 469.736 126.705 30
-2 -2 -9 378.196 101.066 22
-2 -2 -9 322.004 81.2737 30
2 3 -7 222.452 79.0188 8
2 3 -7 232.789 80.6032 14
2 3 -7 220.655 70.2653 25
2 3 -6 167.871 94.8364 8
2 3 -6 370.679 117.141 25
2 3 -6 223.790 105.512 14
2 3 -6 427.452 124.380 28
2 3 -5 341.951 129.026 8
2 3 -5 488.888 145.031 14
2 3 -5 730.882 149.699 28
2 3 -5 418.734 128.524 25
2 3 -4 9541.70 470.324 10
2 3 -4 9052.47 479.478 8
2 3 -4 9335.90 458.600 25
2 3 -3 14277.8 1078.70 7
2 3 -2 272.997 144.988 4
2 3 -1 29503.4 1202.28 4
2 3 -1 30232.7 1183.40 1
2 3 0 274.353 134.800 4
2 3 0 152.008 121.649 1
2 3 1 6322.51 535.332 4
2 3 1 6088.87 609.418 1
2 3 2 30502.6 1190.51 4
2 3 2 31420.9 1427.03 1
2 3 3 35.2583 153.711 1
2 3 3 29.8017 82.6320 4
-2 -3 -4 451.694 202.843 5
2 3 4 218.769 223.156 1
-2 -3 -5 10035.8 990.129 5
-2 -3 -6 4059.31 335.658 30
-2 -3 -6 4489.17 360.313 20
-2 -3 -6 4977.75 384.324 34
-2 -3 -6 4994.24 419.762 24
-2 -3 -7 12046.6 608.670 34
-2 -3 -7 11489.9 571.018 30
-2 -3 -7 11247.8 613.248 24
-2 -3 -7 11452.6 525.878 22
-2 -3 -8 466.050 111.067 30
-2 -3 -8 706.024 141.421 22
-2 -3 -9 1663.42 130.575 32
-2 -3 -9 1853.96 147.813 30
2 4 -7 52.6927 41.5967 8
2 4 -7 89.4847 42.0748 25
2 4 -6 906.591 154.030 14
2 4 -6 1142.57 155.764 8
2 4 -6 772.224 129.415 25
2 4 -5 470.268 153.554 14
2 4 -5 545.500 134.691 28
2 4 -5 318.448 118.321 25
2 4 -5 420.949 132.855 8
2 4 -4 1365.24 204.121 8
2 4 -4 1439.72 204.557 25
2 4 -3 271.912 102.049 8
2 4 -3 92.6465 83.2372 25
2 4 -2 126.595 128.118 4
2 4 -1 12733.8 893.454 4
2 4 0 11416.0 836.669 4
2 4 0 11105.3 892.453 1
2 4 1 3040.56 430.029 4
2 4 1 3289.42 535.150 1
2 4 2 8828.75 866.183 1
2 4 2 8709.06 730.676 4
2 4 3 17490.7 1049.43 4
2 4 3 19662.2 1322.30 1
2 4 4 664.305 281.797 1
-2 -4 -5 13790.5 658.077 24
-2 -4 -5 13510.3 626.146 20
-2 -4 -6 1432.89 223.067 20
-2 -4 -6 1396.37 242.787 24
-2 -4 -7 1269.73 193.240 34
-2 -4 -7 1199.77 216.459 24
-2 -4 -7 1016.57 178.427 30
-2 -4 -7 1528.91 213.685 20
-2 -4 -8 56.6827 69.6646 30
-2 -4 -9 94.8556 48.6930 32
2 5 -6 302.138 68.5540 8
2 5 -6 228.179 66.0861 14
2 5 -6 436.538 82.1389 25
2 5 -5 238.588 96.1233 8
2 5 -5 78.8396 71.5639 25
2 5 -5 67.6825 71.0877 14
2 5 -4 5371.94 377.582 8
2 5 -4 5671.55 368.921 25
2 5 -3 2465.72 266.884 8
2 5 -3 2139.11 233.020 25
2 5 -2 -29.4226 81.4814 25
2 5 -1 6473.88 720.948 4
2 5 0 11669.6 964.655 4
2 5 0 11346.0 1036.63 1
2 5 1 12378.4 1001.34 4
2 5 1 13501.8 1167.44 1
2 5 2 384.643 264.913 1
2 5 2 188.951 187.312 4
2 5 3 3851.44 574.683 4
2 5 3 4084.19 685.642 1
-2 -5 -4 7113.66 463.548 20
-2 -5 -4 6462.36 382.592 32
-2 -5 -4 6843.35 440.373 24
-2 -5 -5 3504.20 334.466 20
-2 -5 -5 3313.78 325.912 24
-2 -5 -6 2910.38 300.410 20
-2 -5 -6 2813.88 311.933 24
-2 -5 -7 2040.78 229.761 20
-2 -5 -7 1554.71 197.908 30
-2 -5 -7 1603.90 205.490 32
-2 -5 -7 1874.33 247.338 24
-2 -5 -8 1604.70 166.102 32
-2 -5 -8 1691.19 160.682 30
2 6 -5 517.817 88.7729 8
2 6 -5 376.065 72.7485 25
2 6 -5 392.073 79.7782 14
2 6 -4 550.313 118.868 8
2 6 -4 637.171 133.014 14
2 6 -4 448.716 105.533 25
2 6 -3 4147.38 323.334 8
2 6 -3 4766.65 319.646 25
-2 -6 2 222.133 109.820 17
2 6 -2 202.044 105.088 8
2 6 -2 200.369 91.4435 25
2 6 -1 36024.6 923.784 31
2 6 0 24068.7 760.834 31
2 6 1 7586.94 391.725 33
2 6 1 7157.70 409.539 31
-2 -6 -2 21268.0 764.338 20
2 6 2 20347.4 677.602 31
-2 -6 -3 9448.44 529.763 20
-2 -6 -3 9693.33 499.719 17
-2 -6 -4 104.542 98.3785 20
-2 -6 -4 145.442 94.8655 32
-2 -6 -5 2241.11 270.013 20
-2 -6 -5 2505.97 244.713 32
-2 -6 -5 2547.61 278.057 24
-2 -6 -6 2822.78 287.994 20
-2 -6 -6 3059.22 262.157 32
-2 -6 -6 2439.48 265.345 24
-2 -6 -7 4536.28 280.136 30
-2 -6 -7 4236.23 295.881 20
-2 -6 -7 4289.60 272.107 32
-2 -6 -7 4313.17 317.158 24
-2 -6 -8 6600.58 258.982 32
2 7 -4 1272.18 109.039 8
-2 -7 3 1225.78 142.515 16
2 7 -3 1191.43 141.101 8
2 7 -3 1360.70 152.378 14
2 7 -3 1165.29 127.156 25
-2 -7 2 10342.9 459.317 17
2 7 -2 9796.19 438.070 8
2 7 -2 9958.94 398.814 25
-2 -7 1 304.351 120.177 17
-2 -7 0 1842.77 241.907 17
-2 -7 -1 130.524 87.9584 17
2 7 1 99.3661 84.0079 31
-2 -7 -2 843.610 158.299 20
-2 -7 -2 1223.03 198.912 17
-2 -7 -3 81.5530 103.645 20
-2 -7 -3 180.264 94.6810 17
-2 -7 -4 1804.12 235.820 20
-2 -7 -5 117.723 87.6571 20
-2 -7 -6 3898.00 230.079 32
-2 -7 -6 3685.27 280.092 20
-2 -7 -6 3853.48 262.337 24
-2 -7 -7 369.226 80.2488 20
-2 -7 -7 257.345 57.0208 30
-2 -8 2 141.156 45.6463 16
-2 -8 1 3082.89 220.115 17
2 8 -1 2588.65 175.926 8
-2 -8 0 -24.2140 71.2463 17
-2 -8 -1 209.795 93.3227 17
-2 -8 -2 306.345 100.226 17
-2 -8 -3 118.641 64.7871 20
-2 -8 -3 39.0467 54.0940 17
-2 -8 -4 -7.43264 54.9459 20
-2 -8 -4 -32.4517 56.5440 27
-2 -8 -5 311.607 78.8894 20
-2 -8 -6 119.065 49.2339 20
-3 7 4 -25.8055 33.6289 26
3 -7 -3 1893.52 166.735 20
-3 7 3 1680.60 126.201 33
-3 7 3 1690.98 144.796 26
-3 7 2 868.415 110.804 33
-3 7 2 805.057 101.050 31
-3 7 2 798.641 105.017 26
-3 7 1 82.7371 56.3701 33
-3 7 1 85.5816 54.6536 31
-3 7 0 1043.41 120.613 33
-3 7 0 890.828 109.764 31
-3 7 -1 96.2551 48.0355 33
-3 7 -1 166.182 52.5931 31
3 -6 -6 541.639 91.6135 24
3 -6 -5 101.955 72.2867 24
3 -6 -4 213.787 90.4932 20
-3 6 3 109.851 77.5665 31
-3 6 2 100.951 78.1202 31
-3 6 2 39.2159 80.1495 26
-3 6 1 382.537 114.240 31
-3 6 1 380.388 117.294 26
-3 6 0 278.112 99.0952 31
-3 6 0 309.521 102.449 26
-3 6 -1 485.193 102.710 33
-3 6 -1 550.097 106.582 31
-3 6 -1 657.133 113.547 10
-3 6 -2 808.043 112.021 33
-3 6 -2 740.043 106.853 31
-3 6 -2 724.118 110.423 10
-3 6 -3 4238.32 221.028 10
3 -5 -7 378.469 85.2193 34
3 -5 -6 946.432 129.556 9
3 -5 -6 951.320 149.123 24
3 -5 -5 179.221 80.3327 9
3 -5 -4 33.1365 75.4287 9
3 -5 -3 220.550 102.668 9
-3 5 3 246.453 93.7960 31
-3 5 2 10863.3 496.806 31
-3 5 2 10963.5 546.138 23
3 -5 -2 11284.0 538.639 9
-3 5 1 16199.2 617.220 31
-3 5 1 16179.1 686.433 23
-3 5 1 17086.7 702.151 26
-3 5 0 11286.8 525.537 31
-3 5 0 11881.0 588.199 26
-3 5 -1 5365.33 385.023 26
-3 5 -1 6009.78 365.253 31
-3 5 -1 5645.37 363.187 10
-3 5 -2 679.236 127.983 15
-3 5 -2 1155.43 160.923 31
-3 5 -2 1171.61 179.079 10
-3 5 -3 411.500 102.790 29
-3 5 -3 496.832 122.211 10
-3 5 -4 1522.37 168.534 10
-3 5 -5 -19.8730 42.0590 10
3 -4 -7 626.367 98.6227 9
3 -4 -7 550.461 102.906 24
3 -4 -6 259.574 87.8777 9
3 -4 -6 231.473 99.2472 24
3 -4 -5 3229.40 295.898 9
3 -4 -4 3826.53 328.414 9
3 -4 -3 72700.0 1499.73 9
-3 4 3 74092.9 1459.98 23
-3 4 2 332.309 107.545 13
-3 4 2 348.191 108.382 23
3 -4 -2 374.195 111.361 9
-3 4 1 31577.4 909.217 13
-3 4 1 32090.2 946.453 23
-3 4 0 6920.03 425.505 13
-3 4 0 6641.91 431.307 26
-3 4 0 7288.54 450.402 23
-3 4 -1 96.3068 69.3220 23
-3 4 -1 27.1722 91.9275 26
-3 4 -2 347.855 139.428 21
-3 4 -2 155.626 115.385 15
-3 4 -2 119.570 119.216 26
-3 4 -2 76.0766 100.970 10
-3 4 -3 1622.44 226.540 15
-3 4 -3 1633.82 214.328 10
-3 4 -4 2635.44 274.598 15
-3 4 -4 2552.21 254.607 29
-3 4 -4 2917.49 260.556 10
-3 4 -5 4611.60 301.713 15
-3 4 -5 4746.67 296.243 29
-3 4 -5 5133.36 313.862 10
-3 4 -6 187.916 60.3759 28
-3 4 -6 34.8401 44.5041 10
3 -3 -8 152.438 65.4109 34
3 -3 -7 524.025 92.3786 9
3 -3 -6 181.297 88.8460 9
3 -3 -6 200.286 104.976 24
3 -3 -5 5103.30 370.007 9
3 -3 -4 1817.94 221.795 9
-3 3 3 1109.02 339.299 3
-3 3 2 148.999 130.381 3
-3 3 1 1748.95 392.406 2
-3 3 0 68.2643 89.3090 4
-3 3 0 73.8101 117.993 2
-3 3 -1 13275.8 1106.25 2
-3 3 -2 2002.84 476.953 2
-3 3 -3 841.415 168.527 21
-3 3 -3 1115.09 173.561 15
-3 3 -3 856.209 158.340 11
-3 3 -3 1171.28 180.699 10
-3 3 -4 1079.50 180.235 21
-3 3 -4 1003.13 188.894 15
-3 3 -4 1059.08 181.531 29
-3 3 -4 1620.11 217.442 11
-3 3 -4 985.256 188.902 10
-3 3 -5 363.529 157.901 15
-3 3 -5 269.321 123.751 29
-3 3 -6 -40.7084 82.8192 15
-3 3 -6 125.473 75.8707 28
-3 3 -6 17.2460 59.8603 10
-3 3 -7 -58.4364 37.0058 10
3 -2 -8 932.959 120.645 34
3 -2 -7 2452.84 220.394 8
3 -2 -7 2234.53 201.881 9
3 -2 -6 10688.5 513.708 8
3 -2 -6 9775.77 492.000 9
3 -2 -5 1834.54 217.611 9
3 -2 -5 1736.95 221.293 8
-3 2 4 598.658 269.778 3
-3 2 3 505.671 212.605 3
-3 2 2 8980.53 792.678 2
-3 2 2 8137.74 717.993 3
-3 2 1 15304.8 1031.66 2
-3 2 1 16213.9 930.216 3
-3 2 0 1624.77 277.228 3
-3 2 0 2386.61 424.569 2
-3 2 -1 7921.06 784.285 2
-3 2 -2 12260.0 1024.03 2
-3 2 -2 12046.2 893.269 6
-3 2 -3 -13.2986 113.961 6
-3 2 -3 22.9544 144.932 2
-3 2 -4 3.36454 118.804 21
-3 2 -4 155.373 108.063 29
-3 2 -4 -149.933 137.432 15
-3 2 -4 82.0226 93.8938 11
-3 2 -4 6.59092 88.5085 10
-3 2 -4 177.938 167.075 22
-3 2 -5 1056.82 189.893 15
-3 2 -5 1487.16 220.791 29
-3 2 -5 1392.58 196.667 11
-3 2 -5 1186.38 186.247 10
-3 2 -5 1532.22 225.206 22
-3 2 -6 179.953 132.689 15
-3 2 -6 209.975 130.696 11
-3 2 -6 49.7454 85.7883 10
-3 2 -7 136.945 71.2488 19
-3 2 -7 181.148 65.1773 10
3 -1 -8 9132.00 342.048 8
3 -1 -7 1570.80 184.802 8
3 -1 -7 1374.19 193.754 34
3 -1 -7 1838.89 179.555 9
3 -1 -6 674.489 144.499 9
3 -1 -6 366.144 112.066 8
3 -1 -5 8756.57 469.430 8
3 -1 -5 9327.30 488.105 9
-3 1 4 6082.85 711.354 3
-3 1 3 3220.60 482.181 3
-3 1 2 7629.59 653.156 3
-3 1 2 7074.00 691.023 2
-3 1 1 59910.9 2008.67 2
-3 1 1 65013.8 1764.49 3
-3 1 0 16242.3 1015.03 2
-3 1 0 16382.0 754.727 3
-3 1 -1 357.268 160.475 2
-3 1 -2 10966.7 876.307 2
-3 1 -2 10611.2 726.437 6
-3 1 -3 10043.1 884.007 2
-3 1 -3 10515.7 828.763 6
-3 1 -4 2307.84 458.457 6
-3 1 -4 2276.91 460.067 2
-3 1 -5 -15.8335 83.5352 21
-3 1 -5 -130.551 106.008 19
-3 1 -5 -22.3815 104.238 22
-3 1 -5 57.9383 82.5745 30
-3 1 -5 51.6207 98.7606 29
-3 1 -5 169.501 104.989 11
-3 1 -5 65.4731 78.4482 10
-3 1 -6 637.406 147.415 19
-3 1 -6 447.412 137.209 15
-3 1 -6 655.609 158.518 30
-3 1 -6 775.217 166.279 11
-3 1 -6 742.180 172.978 22
-3 1 -7 1263.51 190.685 22
-3 1 -7 1160.08 181.815 19
-3 1 -7 1075.67 151.050 15
-3 1 -7 1232.78 185.542 11
3 0 -8 671.559 98.7514 8
3 0 -7 9016.27 437.796 8
3 0 -6 656.808 138.415 9
3 0 -6 578.674 148.276 8
3 0 -5 957.936 160.990 9
3 0 -5 1019.26 169.386 8
3 0 -5 677.291 128.358 25
-3 0 4 13179.0 1060.35 3
-3 0 3 1402.24 310.575 3
3 0 -2 45902.8 1614.76 4
-3 0 2 47068.3 1613.01 3
3 0 -1 8416.31 630.600 4
-3 0 1 7663.79 566.206 3
3 0 0 9872.77 634.312 4
-3 0 0 9352.99 744.946 2
-3 0 0 9979.31 542.826 3
3 0 1 2309.94 289.147 4
-3 0 -1 2183.80 369.951 2
-3 0 -1 2056.67 254.614 5
-3 0 -2 6515.22 624.240 2
-3 0 -2 7491.02 538.158 6
-3 0 -2 7292.32 564.403 5
-3 0 -3 985.154 256.329 6
-3 0 -3 1242.26 286.329 2
-3 0 -3 1292.30 289.579 5
3 0 4 1225.37 362.311 1
-3 0 -4 852.312 279.048 5
-3 0 -5 1557.56 219.262 22
-3 0 -5 1749.46 213.872 19
-3 0 -5 1537.14 209.089 29
-3 0 -5 1456.10 179.893 11
-3 0 -5 1567.99 192.934 30
-3 0 -6 29834.8 928.174 19
-3 0 -6 28034.0 816.987 15
-3 0 -6 29843.0 901.102 30
-3 0 -6 29376.5 857.683 11
-3 0 -6 31641.2 963.239 22
-3 0 -7 3762.87 335.279 19
-3 0 -7 4229.71 292.567 11
-3 0 -7 3868.89 306.775 30
-3 0 -7 4325.57 352.413 22
-3 0 -8 15632.2 435.814 11
-3 0 -8 11862.3 476.108 22
3 1 -8 15.2190 37.2806 8
3 1 -7 2626.50 227.722 8
3 1 -6 1037.29 156.455 9
3 1 -6 832.509 156.287 8
3 1 -6 681.560 134.320 25
3 1 -5 516.063 125.609 9
3 1 -5 441.377 120.595 8
3 1 -5 562.504 128.004 25
-3 -1 4 689.154 251.969 3
-3 -1 3 1648.33 354.979 3
3 1 -3 1473.20 304.426 4
3 1 -2 6275.93 581.674 4
-3 -1 2 5614.26 558.160 3
3 1 -1 26639.7 1145.59 4
3 1 -1 27676.3 1108.97 1
-3 -1 1 25910.1 1062.27 3
3 1 0 5901.48 501.328 4
-3 -1 0 6776.93 458.820 3
3 1 1 3152.98 343.042 4
-3 -1 -1 2996.48 406.854 2
-3 -1 -1 3089.37 305.078 5
3 1 2 15984.8 745.851 4
3 1 2 16498.2 1052.93 1
-3 -1 -2 14743.5 864.848 2
-3 -1 -2 14316.0 781.218 5
3 1 3 4743.97 603.286 1
-3 -1 -3 4485.83 481.379 2
-3 -1 -3 4196.86 499.382 5
3 1 4 3044.16 521.458 1
-3 -1 -4 3968.64 554.061 5
-3 -1 -5 -91.4191 165.017 5
-3 -1 -6 2361.75 280.261 22
-3 -1 -6 2311.94 283.000 19
-3 -1 -6 2380.06 261.466 30
-3 -1 -6 1973.79 211.185 11
-3 -1 -7 569.375 143.882 30
-3 -1 -7 621.258 133.897 11
-3 -1 -7 637.396 179.426 22
-3 -1 -8 440.704 112.610 30
-3 -1 -8 451.394 144.613 22
3 2 -7 5738.78 313.237 8
3 2 -7 5293.63 280.772 25
3 2 -6 7815.84 435.484 8
3 2 -6 7811.24 414.946 25
3 2 -5 16584.6 649.253 9
3 2 -5 17077.0 673.478 8
3 2 -5 15944.2 647.374 14
3 2 -5 16501.0 642.737 25
3 2 -4 6854.76 412.536 9
3 2 -4 6867.12 405.494 8
3 2 -4 6219.51 378.140 25
3 2 -3 5317.32 589.505 4
-3 -2 3 4483.78 593.006 3
-3 -2 2 3693.16 480.969 3
3 2 -2 3712.86 476.002 4
3 2 -1 538.953 188.352 1
-3 -2 1 558.895 198.717 3
3 2 -1 714.390 215.136 4
3 2 0 62238.2 1770.73 4
3 2 0 65467.8 1951.70 1
3 2 1 25477.7 1064.78 4
3 2 1 24910.1 1265.90 1
-3 -2 -1 24378.9 917.919 5
3 2 2 29269.4 1106.90 4
3 2 2 28714.6 1446.56 1
-3 -2 -2 28097.0 1139.87 2
-3 -2 -2 28493.6 1176.00 5
3 2 3 29776.5 1545.73 1
-3 -2 -3 26957.4 1311.76 5
-3 -2 -4 925.069 286.956 5
3 2 4 1567.81 422.261 1
-3 -2 -5 3136.79 545.365 5
-3 -2 -6 25.9854 92.8851 30
-3 -2 -6 195.164 107.941 11
-3 -2 -6 -5.26122 108.292 22
-3 -2 -7 68.4968 80.1924 11
-3 -2 -7 -68.9286 88.7996 30
-3 -2 -7 78.6970 114.970 22
-3 -2 -8 1.13352 69.3926 30
-3 -2 -8 147.624 107.245 22
-3 -2 -9 329.155 73.0375 30
3 3 -7 4463.10 239.399 8
3 3 -7 5159.17 237.178 25
3 3 -6 144.874 82.6431 14
3 3 -6 297.113 98.1709 8
3 3 -6 317.042 106.774 25
3 3 -5 135.472 74.6564 9
3 3 -5 45.9999 69.3968 8
3 3 -5 146.395 101.577 14
3 3 -5 90.8203 72.6057 25
3 3 -4 711.535 150.568 9
3 3 -4 791.620 161.222 8
3 3 -4 555.711 131.437 25
-3 -3 3 517.748 203.571 3
3 3 -2 7850.18 730.646 4
3 3 -1 12213.1 873.427 4
3 3 0 396.694 178.543 1
3 3 0 442.653 197.525 4
3 3 1 12253.8 823.692 4
3 3 1 13833.2 1010.69 1
3 3 2 622.827 269.497 1
3 3 2 504.724 161.557 4
3 3 3 5280.67 528.700 4
3 3 3 6062.00 753.115 1
-3 -3 -3 5110.51 613.387 5
3 3 4 8838.13 948.081 1
-3 -3 -4 9555.20 910.698 5
-3 -3 -5 770.906 172.911 20
-3 -3 -5 1097.29 157.270 11
-3 -3 -5 874.760 160.635 24
-3 -3 -6 651.893 162.048 20
-3 -3 -6 768.567 158.887 30
-3 -3 -6 758.097 136.104 11
-3 -3 -6 988.116 177.837 22
-3 -3 -7 3817.08 327.847 30
-3 -3 -7 4453.83 334.590 22
-3 -3 -8 668.508 116.135 32
-3 -3 -8 518.843 111.345 30
-3 -3 -8 664.122 139.438 22
-3 -3 -9 4379.00 205.202 30
3 4 -6 2965.64 218.170 8
3 4 -6 2800.19 223.884 14
3 4 -6 2622.02 202.248 25
3 4 -5 141.234 76.6976 9
3 4 -5 -62.1737 82.0609 8
3 4 -5 82.8016 83.1283 14
3 4 -5 207.296 112.087 25
3 4 -4 2100.23 244.638 9
3 4 -4 1986.00 235.431 8
3 4 -4 1828.32 225.229 25
3 4 -3 2838.83 274.963 8
-3 -4 3 2937.98 274.179 16
3 4 -3 3242.50 273.747 25
3 4 -2 619.864 223.091 4
3 4 -1 834.710 255.422 4
3 4 0 1565.24 367.452 1
3 4 0 1528.47 330.824 4
3 4 1 11666.1 905.998 4
3 4 1 12576.2 1052.73 1
3 4 2 1950.13 390.317 4
3 4 2 2062.12 484.140 1
3 4 3 5809.35 649.350 4
3 4 3 5667.16 786.013 1
3 4 4 9848.20 1070.11 1
-3 -4 -4 9589.30 981.574 5
-3 -4 -5 1663.16 243.276 20
-3 -4 -5 1686.65 224.949 27
-3 -4 -5 1461.59 200.488 32
-3 -4 -5 1506.29 234.462 24
-3 -4 -6 1498.91 239.187 20
-3 -4 -6 1372.60 202.005 32
-3 -4 -6 1215.59 195.888 30
-3 -4 -7 1735.98 204.081 32
-3 -4 -7 1594.77 218.189 30
-3 -4 -8 122.776 72.3715 32
-3 -4 -8 3.93605 58.4209 30
3 5 -6 2336.57 139.762 25
3 5 -5 184.846 76.6685 8
3 5 -5 194.885 83.3081 14
3 5 -5 156.055 79.0174 25
3 5 -4 -7.52288 56.6296 9
3 5 -4 -1.99024 68.4422 8
3 5 -4 31.0127 68.7381 25
-3 -5 3 477.380 133.315 16
3 5 -3 718.012 145.292 8
3 5 -3 492.385 128.751 25
-3 -5 2 12661.7 581.147 17
3 5 -2 11639.9 535.435 8
3 5 -2 12162.7 516.068 25
-3 -5 1 609.986 152.371 17
3 5 0 1511.08 380.380 4
3 5 1 7187.34 794.174 4
3 5 1 7096.59 875.903 1
3 5 2 10650.8 1114.33 1
3 5 2 8335.21 853.461 4
-3 -5 -3 23539.3 810.835 20
-3 -5 -3 24007.6 759.953 32
-3 -5 -4 143.148 113.037 20
-3 -5 -4 110.283 78.9095 32
-3 -5 -4 164.866 103.313 27
-3 -5 -5 7783.11 495.348 20
-3 -5 -5 7282.65 443.139 32
-3 -5 -5 7111.84 445.099 27
-3 -5 -5 7526.13 486.981 24
-3 -5 -6 6333.64 445.655 20
-3 -5 -6 6229.07 395.467 32
-3 -5 -7 1063.66 173.429 20
-3 -5 -7 1415.00 178.256 32
-3 -5 -7 1130.56 171.743 30
-3 -5 -8 1205.08 135.410 32
-3 -5 -8 1144.03 130.562 30
3 6 -5 896.515 99.0177 14
3 6 -4 8849.29 350.803 9
3 6 -4 8884.58 366.628 8
3 6 -4 9145.23 424.740 14
3 6 -4 9568.73 369.898 25
3 6 -3 2820.43 236.373 8
-3 -6 3 3098.40 259.282 16
3 6 -3 2872.69 228.369 25
-3 -6 2 1775.50 223.014 17
-3 -6 2 2240.95 256.719 16
3 6 -2 1567.77 190.038 8
-3 -6 1 3154.60 311.555 17
-3 -6 0 1052.96 196.372 17
-3 -6 -1 32998.9 1006.93 17
-3 -6 -2 29097.9 926.984 17
-3 -6 -3 6347.47 431.303 20
-3 -6 -3 7002.73 434.727 17
-3 -6 -3 6803.57 409.364 32
-3 -6 -4 18019.3 736.302 20
-3 -6 -4 17403.2 656.666 32
-3 -6 -4 16608.5 714.000 27
-3 -6 -5 2603.30 286.752 20
-3 -6 -5 2605.33 260.350 32
-3 -6 -5 2604.32 267.995 27
-3 -6 -6 33.9156 84.5681 20
-3 -6 -6 39.5403 86.0637 32
-3 -6 -7 1077.08 153.508 20
-3 -6 -7 1073.67 143.154 32
-3 -6 -7 1080.42 138.212 30
-3 -6 -8 746.953 84.4955 32
3 7 -3 13.6569 38.0919 9
-3 -7 3 51.0263 50.2285 16
3 7 -3 -41.0910 43.2215 8
-3 -7 2 1039.41 138.133 17
-3 -7 2 1013.37 143.405 16
-3 -7 1 74.1877 87.5430 17
-3 -7 1 58.0809 85.3261 16
-3 -7 0 6429.69 423.006 17
-3 -7 -1 302.365 141.059 17
-3 -7 -2 1349.63 203.868 17
-3 -7 -3 534.273 137.737 20
-3 -7 -3 416.822 110.882 17
-3 -7 -4 715.817 159.908 20
-3 -7 -4 485.890 109.771 32
-3 -7 -4 604.872 147.349 27
-3 -7 -5 57.3754 100.610 20
-3 -7 -5 -26.7458 67.0975 32
-3 -7 -5 93.6694 79.7011 27
-3 -7 -6 264.199 90.7872 20
-3 -7 -6 198.540 75.6834 32
-3 -7 -7 50.3707 38.2009 30
-3 -8 1 1826.64 159.598 17
-3 -8 1 1571.22 151.158 16
-3 -8 0 42.1779 69.5756 17
-3 -8 0 82.2642 77.3796 16
-3 -8 -1 5390.62 331.327 17
-3 -8 -1 4783.18 286.219 16
-3 -8 -2 111.755 72.7368 17
-3 -8 -2 99.4132 72.3444 16
-3 -8 -3 889.853 129.740 17
-3 -8 -3 514.019 117.605 27
-3 -8 -4 258.813 77.6781 20
-3 -8 -4 27.2726 50.1958 27
-3 -8 -5 197.197 61.3193 20
-3 -8 -5 255.131 64.0313 27
-4 6 4 392.047 83.4675 26
-4 6 3 3.04316 56.3212 26
-4 6 2 44.4173 69.1732 26
-4 6 2 21.7894 45.3367 31
-4 6 1 -17.3343 54.5539 31
-4 6 1 98.0078 81.3527 26
-4 6 0 33.1324 48.6088 31
-4 6 0 -15.0375 65.5636 26
-4 6 -1 0.68879 40.8950 33
-4 6 -1 78.0450 51.2153 31
-4 6 -1 21.6601 42.2313 10
-4 6 -2 578.954 77.9078 10
-4 5 6 27.1558 42.8728 26
4 -5 -5 1838.55 170.203 9
4 -5 -4 1340.61 166.230 9
4 -5 -3 309.667 86.0047 9
-4 5 3 276.726 76.1558 31
-4 5 3 426.333 102.407 23
-4 5 2 8.26874 58.5597 31
-4 5 2 37.6151 84.6358 26
-4 5 2 19.3028 69.0237 23
-4 5 1 -25.4094 77.1714 26
-4 5 1 -28.9270 85.5989 23
-4 5 1 41.7350 74.7101 31
-4 5 0 7369.07 447.482 26
-4 5 0 7045.43 386.327 31
-4 5 -1 17339.4 586.725 31
-4 5 -1 16072.5 646.781 26
-4 5 -1 17108.3 590.003 10
-4 5 -2 5597.93 275.845 33
-4 5 -2 5673.46 292.680 31
-4 5 -2 5740.89 329.868 10
-4 5 -3 7927.86 361.401 29
-4 5 -3 7877.30 350.153 10
-4 5 -4 197.150 61.5116 10
4 -4 -6 1142.42 142.678 24
4 -4 -6 1252.98 141.528 9
4 -4 -5 449.853 110.395 9
4 -4 -4 305.940 98.3462 9
4 -4 -3 1128.27 175.176 9
-4 4 3 872.023 159.555 23
4 -4 -2 1237.27 178.927 9
-4 4 2 1265.43 182.832 13
-4 4 2 1177.04 188.575 23
-4 4 1 44140.2 1106.61 13
-4 4 1 43451.7 1177.13 26
-4 4 1 40969.2 1136.34 23
-4 4 0 599.368 145.680 13
-4 4 0 722.571 162.385 26
-4 4 0 477.335 149.823 23
-4 4 -1 17719.3 736.355 26
-4 4 -1 16769.7 720.563 23
-4 4 -2 2999.50 268.924 21
-4 4 -2 2927.47 263.945 15
-4 4 -2 2852.57 298.870 26
-4 4 -2 2897.86 272.180 10
-4 4 -3 186.975 107.339 15
-4 4 -3 -18.4986 88.6235 29
-4 4 -3 252.317 109.876 10
-4 4 -4 27.2307 71.9080 15
-4 4 -4 180.807 82.6993 29
-4 4 -4 276.799 93.8051 10
-4 4 -5 603.612 92.5558 10
4 -3 -7 526.376 81.4230 9
4 -3 -7 337.387 83.6868 34
4 -3 -6 109.489 61.7088 9
4 -3 -5 47.5150 69.0535 9
4 -3 -4 279.412 113.321 9
-4 3 4 427.567 120.941 23
4 -3 -3 396.371 116.254 9
-4 3 3 255.480 112.931 23
4 -3 -2 232.840 90.8143 9
-4 3 2 251.681 95.8452 13
-4 3 2 273.773 118.430 23
-4 3 1 52.7288 72.3203 13
-4 3 1 -49.7536 66.9669 23
-4 3 0 -2.28830 66.6961 13
-4 3 0 -1.36356 94.1471 26
-4 3 0 7.42995 80.5310 23
-4 3 -1 649.697 144.637 21
-4 3 -1 639.627 153.490 13
-4 3 -1 668.897 155.150 26
-4 3 -1 767.278 167.329 23
-4 3 -2 356.637 138.567 21
-4 3 -2 301.228 92.8341 15
-4 3 -2 449.350 118.441 13
-4 3 -2 550.726 130.925 26
-4 3 -2 624.622 147.181 23
-4 3 -3 4442.79 354.073 21
-4 3 -3 4092.37 331.491 15
-4 3 -3 4554.74 346.820 10
-4 3 -4 324.328 135.622 21
-4 3 -4 368.065 137.230 15
-4 3 -4 212.965 114.607 29
-4 3 -4 392.442 122.990 10
-4 3 -5 1623.09 197.353 29
-4 3 -5 1399.06 168.953 10
-4 3 -6 463.620 83.9698 15
-4 3 -6 713.971 98.7728 10
4 -2 -7 733.130 100.440 9
4 -2 -7 575.259 114.139 34
4 -2 -6 1940.47 210.028 9
4 -2 -5 3927.67 308.226 8
-4 2 5 3776.44 298.558 23
4 -2 -5 3371.08 305.425 9
4 -2 -4 17782.0 665.444 8
-4 2 4 18170.2 699.818 23
4 -2 -4 19049.5 720.707 9
4 -2 -3 1437.14 193.745 9
-4 2 3 1440.55 201.748 23
-4 2 2 2714.45 459.234 3
-4 2 2 2940.24 536.052 2
-4 2 1 425.791 257.206 2
-4 2 0 5605.55 745.275 2
-4 2 -1 3755.06 619.564 2
-4 2 -2 -109.225 81.9275 26
-4 2 -3 8105.23 471.837 21
-4 2 -3 8264.06 419.194 11
-4 2 -4 1446.14 219.373 21
-4 2 -4 1354.78 190.756 15
-4 2 -4 1754.52 220.911 11
-4 2 -4 1691.51 247.277 29
-4 2 -4 1443.91 202.771 10
-4 2 -5 43.7181 88.6375 15
-4 2 -5 414.341 127.673 11
-4 2 -5 469.738 135.864 29
-4 2 -5 287.812 101.151 10
-4 2 -6 58.0404 91.3875 15
-4 2 -6 -77.7771 75.1967 10
-4 2 -7 307.908 59.9141 15
4 -1 -7 40.4263 37.0461 9
4 -1 -7 -6.79825 50.0202 8
4 -1 -6 12796.0 534.117 8
4 -1 -6 13003.8 542.385 9
4 -1 -5 1623.31 212.473 9
4 -1 -5 1368.99 187.845 8
-4 1 5 1382.41 191.952 23
4 -1 -4 2061.31 219.952 8
-4 1 4 1938.11 231.658 23
4 -1 -4 1933.22 228.478 9
-4 1 3 20615.7 1439.55 2
-4 1 3 20066.4 1317.82 3
-4 1 2 3420.96 570.753 2
-4 1 2 3299.03 494.322 3
-4 1 1 -76.2262 85.5827 3
-4 1 1 -155.268 200.991 2
-4 1 0 9491.61 930.824 2
-4 1 -1 24744.1 1511.69 2
-4 1 -2 16110.5 1230.20 2
-4 1 -3 662.225 307.437 2
-4 1 -4 4849.29 360.493 21
-4 1 -4 4733.15 364.730 29
-4 1 -4 4754.75 329.847 11
-4 1 -4 4525.59 313.827 10
-4 1 -5 3180.54 300.647 21
-4 1 -5 3438.25 321.558 29
-4 1 -5 3438.59 281.941 11
-4 1 -6 327.183 114.490 15
-4 1 -6 713.457 161.221 11
-4 1 -7 127.997 80.6008 15
-4 1 -7 639.479 124.367 11
4 0 -7 757.693 102.441 9
4 0 -7 823.221 118.381 8
4 0 -6 2533.14 241.772 8
-4 0 6 2394.84 234.598 23
4 0 -6 2534.43 239.523 9
4 0 -5 15582.3 618.736 8
4 0 -5 14800.7 632.361 9
4 0 -4 84.3018 88.7217 9
4 0 -4 19.7640 75.1341 8
-4 0 3 5118.89 670.365 3
-4 0 2 12677.1 936.299 3
-4 0 1 5.93847 86.8320 3
-4 0 1 167.584 132.832 2
4 0 0 21991.1 1155.19 4
-4 0 0 22687.8 1380.48 2
-4 0 -1 2033.33 424.284 2
-4 0 -2 3192.79 508.278 2
-4 0 -3 -74.6603 125.471 2
-4 0 -4 636.976 157.484 29
-4 0 -4 697.532 143.838 11
-4 0 -5 633.022 141.142 21
-4 0 -5 918.398 191.787 29
-4 0 -5 555.400 121.929 11
-4 0 -5 925.882 193.411 22
-4 0 -6 -224.920 124.598 15
-4 0 -6 -12.4547 89.6043 11
-4 0 -7 519.306 111.571 15
-4 0 -7 486.243 115.237 11
-4 0 -8 11537.5 328.367 11
4 1 -7 1857.88 161.092 8
4 1 -6 -66.5908 75.8616 9
4 1 -6 -57.1162 73.1739 8
4 1 -5 5773.48 376.867 8
4 1 -5 5619.04 368.228 25
4 1 -5 6003.54 397.752 9
4 1 -4 4613.51 357.266 9
4 1 -4 4196.81 318.247 8
4 1 -4 3770.77 304.144 25
-4 -1 3 924.239 289.288 3
4 1 -2 9384.79 839.621 4
-4 -1 2 8291.12 779.740 3
4 1 -1 4503.80 551.109 4
-4 -1 1 4448.97 515.171 3
4 1 0 3079.58 444.699 4
4 1 0 3185.62 495.380 1
4 1 1 13954.4 892.756 4
4 1 1 14526.8 1091.86 1
-4 -1 -1 13810.5 1031.41 2
4 1 2 8851.42 895.394 1
-4 -1 -2 6283.19 685.108 2
4 1 3 1409.08 413.443 1
4 1 4 6937.62 910.633 1
-4 -1 -4 5768.17 743.908 5
-4 -1 -5 78.8298 100.533 11
-4 -1 -5 258.201 130.629 22
-4 -1 -6 4270.43 313.879 30
-4 -1 -6 3916.70 302.725 11
-4 -1 -6 4863.89 383.561 22
-4 -1 -7 24.1373 60.6101 30
-4 -1 -7 133.633 86.8378 11
-4 -1 -8 459.169 83.6918 11
4 2 -7 72.5484 51.5874 8
4 2 -6 10498.9 447.662 8
4 2 -6 10915.7 449.732 25
4 2 -6 10350.3 437.377 9
4 2 -5 13254.4 583.339 9
4 2 -5 13213.4 560.005 8
4 2 -5 13031.8 556.543 25
4 2 -4 16259.7 673.864 9
4 2 -4 16974.6 637.777 8
4 2 -4 16351.4 630.629 25
4 2 -3 29047.7 885.778 9
4 2 -3 29206.3 821.301 25
4 2 -2 4888.98 624.731 4
-4 -2 2 4270.78 574.732 3
-4 -2 1 2619.87 411.255 3
4 2 -1 2636.89 435.912 4
4 2 0 4135.74 523.445 4
4 2 0 5341.74 636.599 1
4 2 1 301.490 170.904 4
4 2 1 243.981 155.780 1
4 2 2 21006.4 1093.84 4
4 2 2 21973.5 1469.79 1
-4 -2 -2 19089.9 1159.12 2
4 2 3 12069.9 1136.27 1
4 2 4 8234.08 983.153 1
-4 -2 -4 8242.59 845.290 5
-4 -2 -5 9155.98 476.502 30
-4 -2 -5 9037.34 470.004 11
-4 -2 -5 8694.88 508.645 27
-4 -2 -5 10164.0 528.550 22
-4 -2 -6 136.255 100.933 30
-4 -2 -6 237.196 112.916 11
-4 -2 -6 429.385 187.666 22
-4 -2 -7 1618.85 199.486 30
-4 -2 -7 1309.88 170.985 11
-4 -2 -8 112.009 59.4247 30
-4 -2 -8 13.3824 42.9212 11
4 3 -6 773.530 105.683 9
4 3 -6 604.481 103.567 8
4 3 -6 741.134 116.828 25
4 3 -5 6172.04 375.346 9
4 3 -5 7396.82 391.895 8
4 3 -5 6740.99 384.617 25
4 3 -4 171.231 97.9801 9
4 3 -4 114.138 82.4365 8
4 3 -4 110.696 98.4839 25
4 3 -3 -61.1825 73.1573 9
-4 -3 3 80.7509 93.7882 16
4 3 -3 100.379 91.4482 25
-4 -3 2 1317.49 371.190 3
4 3 -2 1619.15 370.266 4
-4 -3 1 663.062 245.652 3
4 3 -1 1051.11 310.571 4
4 3 0 4735.46 608.570 4
4 3 0 3905.19 567.892 1
4 3 1 3375.19 505.233 4
4 3 1 4621.16 674.049 1
4 3 2 213.030 271.016 1
4 3 2 0.36163 124.006 4
4 3 3 1549.56 476.605 1
-4 -3 -4 580.951 155.207 20
-4 -3 -4 545.129 129.383 32
-4 -3 -4 509.162 135.647 27
-4 -3 -5 2864.44 264.285 32
-4 -3 -5 2904.54 276.711 30
-4 -3 -5 2644.16 256.780 11
-4 -3 -5 2366.38 268.808 27
-4 -3 -6 1462.20 190.177 32
-4 -3 -6 1419.92 195.937 30
-4 -3 -6 1606.17 217.292 27
-4 -3 -6 1461.90 194.855 11
-4 -3 -7 866.114 132.117 32
-4 -3 -7 910.709 161.188 30
-4 -3 -7 691.352 120.138 11
-4 -3 -8 699.372 108.446 30
4 4 -6 2842.79 164.305 8
4 4 -6 2932.67 171.832 25
4 4 -5 626.699 113.354 9
4 4 -5 841.813 130.732 8
4 4 -5 617.467 117.830 14
4 4 -5 755.976 123.780 25
4 4 -4 5131.25 363.625 9
4 4 -4 4839.82 322.229 8
4 4 -4 5012.04 332.036 25
4 4 -3 322.227 119.724 9
-4 -4 3 337.720 119.154 16
4 4 -3 218.298 82.6536 25
-4 -4 2 3746.70 313.405 16
-4 -4 1 6004.44 405.539 17
-4 -4 1 6468.78 408.357 16
4 4 0 40.9654 120.425 4
4 4 1 2887.91 510.580 4
4 4 1 2423.03 519.479 1
4 4 2 2133.53 431.766 4
4 4 2 2091.37 512.272 1
-4 -4 -3 3927.96 341.832 27
-4 -4 -3 3557.80 290.854 32
-4 -4 -4 -63.3671 107.903 20
-4 -4 -4 -87.9319 84.0204 32
-4 -4 -4 -109.712 97.6595 27
-4 -4 -5 3480.55 337.046 20
-4 -4 -5 4026.43 326.362 32
-4 -4 -5 3598.83 341.140 27
-4 -4 -6 4590.44 332.533 32
-4 -4 -6 4130.35 330.668 30
-4 -4 -6 4437.17 297.747 11
-4 -4 -6 4408.39 338.444 27
-4 -4 -7 224.642 90.9094 32
-4 -4 -7 127.825 76.8807 30
-4 -4 -7 17.1592 54.8721 11
-4 -4 -8 726.502 92.5344 32
-4 -4 -8 643.916 98.3655 30
4 5 -5 590.495 80.9895 9
4 5 -5 631.698 83.4019 8
4 5 -5 705.779 99.5999 14
4 5 -5 597.100 87.6725 25
4 5 -4 4862.90 308.363 9
4 5 -4 4964.17 279.039 8
4 5 -4 4969.99 291.359 25
4 5 -3 -3.54481 57.5098 9
-4 -5 3 62.5926 85.0735 16
4 5 -3 45.1603 61.3722 25
-4 -5 2 24.6567 74.4188 17
-4 -5 2 178.732 127.067 16
-4 -5 1 580.231 154.841 17
-4 -5 1 858.568 169.632 16
-4 -5 0 16834.0 713.136 17
-4 -5 0 17475.5 685.547 16
-4 -5 -1 299.922 123.121 17
-4 -5 -1 558.431 133.827 16
-4 -5 -2 5104.76 396.421 17
-4 -5 -2 5125.29 342.245 16
-4 -5 -2 4540.01 339.598 32
-4 -5 -3 4433.36 351.401 20
-4 -5 -3 4124.10 342.149 17
-4 -5 -3 4697.19 384.862 27
-4 -5 -3 3776.52 313.906 32
-4 -5 -4 3230.04 317.568 20
-4 -5 -4 3309.43 301.032 32
-4 -5 -4 3254.54 327.853 27
-4 -5 -5 19721.8 782.645 20
-4 -5 -5 19905.0 715.305 32
-4 -5 -5 19731.1 759.422 27
-4 -5 -6 688.271 159.117 20
-4 -5 -6 635.701 141.969 32
-4 -5 -6 457.364 117.760 30
-4 -5 -6 495.376 127.155 27
-4 -5 -6 588.782 104.034 11
-4 -5 -7 5661.78 310.621 32
-4 -5 -7 5703.23 321.545 30
-4 -5 -8 4316.14 204.846 30
4 6 -4 509.612 82.8303 9
4 6 -4 476.794 88.8470 14
4 6 -4 569.595 75.4402 25
4 6 -3 1547.58 178.513 9
-4 -6 3 1609.73 171.762 16
-4 -6 2 9962.50 461.136 17
-4 -6 2 9947.84 486.711 16
-4 -6 1 6479.43 426.731 17
-4 -6 1 6790.92 425.489 16
-4 -6 0 2997.73 307.865 17
-4 -6 0 3220.54 305.928 16
-4 -6 -1 756.338 154.894 17
-4 -6 -1 897.479 175.716 16
-4 -6 -2 939.393 186.633 17
-4 -6 -2 1308.76 187.012 16
-4 -6 -3 16366.4 675.831 17
-4 -6 -3 14952.5 689.027 27
-4 -6 -4 16657.3 673.503 20
-4 -6 -4 16114.7 632.264 32
-4 -6 -4 17864.7 725.094 27
-4 -6 -5 3222.71 303.329 20
-4 -6 -5 3128.55 274.557 32
-4 -6 -5 3001.95 283.410 27
-4 -6 -6 8750.61 444.169 20
-4 -6 -6 8981.14 413.582 32
-4 -6 -6 8171.24 406.026 30
-4 -6 -6 8452.83 392.017 27
-4 -6 -7 393.434 84.0723 32
-4 -6 -7 521.661 91.5549 30
4 7 -3 111.317 50.7099 14
4 7 -2 380.199 87.4533 9
-4 -7 2 443.124 98.6484 16
-4 -7 1 117.981 84.4917 17
-4 -7 1 45.6363 83.3336 16
-4 -7 0 248.817 103.691 17
-4 -7 0 473.323 129.546 16
-4 -7 0 317.302 92.9842 27
-4 -7 -1 308.531 125.964 17
-4 -7 -1 501.682 123.312 16
-4 -7 -2 896.373 165.595 17
-4 -7 -2 887.199 142.284 16
-4 -7 -2 785.974 158.435 27
-4 -7 -3 45.1232 84.4616 17
-4 -7 -3 176.562 97.7344 27
-4 -7 -4 147.883 77.9630 20
-4 -7 -4 182.550 97.5058 27
-4 -7 -5 1188.59 152.102 20
-4 -7 -5 1068.43 146.432 27
-4 -7 -6 28.7434 43.9314 30
-4 -7 -6 217.045 59.0072 27
4 8 -1 243.679 56.1749 9
-4 -8 1 536.224 82.2709 16
-4 -8 0 6175.06 289.932 17
-4 -8 0 5680.68 267.382 16
-4 -8 -1 1741.07 169.479 17
-4 -8 -1 1409.73 136.661 16
-4 -8 -1 1753.84 161.052 27
-4 -8 -2 174.509 74.8489 17
-4 -8 -2 232.100 83.4354 27
-4 -8 -3 3723.85 220.533 17
-4 -8 -3 3821.50 250.555 27
-4 -8 -4 151.674 60.4007 27
-5 5 4 64.0720 51.4257 26
-5 5 3 3379.14 231.525 26
-5 5 2 1386.62 131.010 31
-5 5 2 1584.08 177.843 26
-5 5 1 125.136 65.0056 31
-5 5 1 38.5499 65.6997 26
-5 5 0 -34.3809 53.2498 31
-5 5 0 -18.0561 65.8906 26
-5 5 0 50.7611 69.6569 10
-5 5 -1 93.0759 57.8174 31
-5 5 -1 85.8682 66.0262 10
-5 5 -2 3024.10 156.291 31
-5 5 -2 2875.70 196.845 29
-5 5 -2 2977.29 180.113 10
-5 4 5 3379.81 212.558 26
5 -4 -5 3988.64 220.637 9
5 -4 -4 1146.79 135.659 9
-5 4 4 1160.18 152.175 26
-5 4 4 1385.35 148.512 23
5 -4 -3 -27.7312 47.1511 9
-5 4 3 6.66055 62.3823 26
-5 4 3 72.5347 64.7582 23
-5 4 2 417.674 112.861 26
-5 4 2 352.955 114.990 23
-5 4 1 193.595 105.626 26
-5 4 1 333.070 125.842 23
-5 4 0 154.924 83.9176 26
-5 4 0 80.6167 74.4786 23
-5 4 -1 14436.9 616.052 26
-5 4 -2 434.670 104.209 21
-5 4 -2 477.201 96.2333 31
-5 4 -2 275.625 98.8240 10
-5 4 -3 7032.98 290.701 15
-5 4 -3 6840.02 358.517 29
-5 4 -3 7028.45 331.613 10
-5 4 -4 715.923 105.458 29
-5 4 -4 634.645 88.0715 10
5 -3 -6 278.801 66.2723 9
5 -3 -5 2295.03 200.878 9
5 -3 -4 132.770 73.5296 9
-5 3 4 277.079 98.7566 23
5 -3 -3 -10.5933 59.2167 9
-5 3 3 64.5053 76.0410 23
-5 3 2 124.348 77.9837 13
-5 3 2 342.738 122.338 26
-5 3 2 86.2641 85.5346 23
-5 3 1 508.995 143.353 13
-5 3 1 499.769 138.441 26
-5 3 1 496.313 136.402 23
-5 3 0 380.364 130.639 13
-5 3 0 336.279 115.549 26
-5 3 0 402.795 128.348 23
-5 3 -1 213.228 113.120 21
-5 3 -1 41.1789 83.0260 13
-5 3 -1 270.189 116.856 26
-5 3 -1 36.0152 86.5749 23
-5 3 -2 363.690 144.837 21
-5 3 -2 500.198 119.699 15
-5 3 -2 389.920 106.334 13
-5 3 -3 -46.5625 81.3385 21
-5 3 -3 24.6706 84.3441 15
-5 3 -3 32.3274 93.3102 29
-5 3 -3 13.9162 65.5837 10
-5 3 -4 441.181 115.899 15
-5 3 -4 323.462 100.819 29
-5 3 -4 237.581 77.5468 10
-5 3 -5 824.467 107.939 15
-5 3 -5 703.656 91.3004 10
5 -2 -6 120.601 54.5466 9
5 -2 -5 927.441 144.895 9
-5 2 5 1030.83 144.702 23
-5 2 4 2991.90 281.422 23
5 -2 -4 2782.39 261.021 9
-5 2 3 3319.67 306.974 23
5 -2 -3 3550.32 299.251 9
-5 2 2 18979.2 680.629 13
-5 2 2 19437.1 717.537 26
-5 2 2 19042.6 751.104 23
5 -2 -2 19976.9 690.662 9
-5 2 1 955.469 163.834 13
-5 2 1 826.263 170.258 26
-5 2 1 992.851 177.481 23
-5 2 0 4085.38 335.004 13
-5 2 0 3920.97 327.539 26
-5 2 0 4269.34 353.245 23
-5 2 -1 1969.36 239.736 13
-5 2 -1 1764.74 233.157 26
-5 2 -1 1662.54 227.775 23
-5 2 -2 1904.90 229.241 13
-5 2 -2 1579.37 228.683 26
-5 2 -2 1973.55 234.102 23
-5 2 -3 599.106 156.345 21
-5 2 -3 311.958 103.540 13
-5 2 -3 302.971 106.667 10
-5 2 -4 424.089 142.834 21
-5 2 -4 229.686 97.0167 15
-5 2 -4 363.123 124.012 29
-5 2 -4 522.510 112.820 11
-5 2 -4 424.572 119.827 10
-5 2 -5 4472.79 306.178 15
-5 2 -5 5028.06 334.118 29
-5 2 -5 5451.06 280.337 11
-5 2 -5 4529.78 257.640 10
-5 2 -6 160.529 73.2042 15
-5 1 6 2027.67 166.036 23
5 -1 -6 2168.47 189.661 9
5 -1 -5 147.587 79.1377 9
-5 1 5 190.847 101.573 23
-5 1 4 10005.2 522.579 23
5 -1 -4 9407.23 497.799 9
5 -1 -3 356.406 113.608 9
-5 1 3 427.978 134.964 23
-5 1 2 3752.19 330.667 12
-5 1 2 4133.45 345.365 23
5 -1 -2 3823.71 303.214 9
-5 1 1 20135.2 781.812 12
-5 1 1 21652.7 773.748 23
-5 1 0 445.051 108.985 23
-5 1 -1 1852.53 220.337 26
-5 1 -1 1921.80 227.871 23
-5 1 -2 5851.81 399.430 26
-5 1 -3 6595.32 389.761 13
-5 1 -3 6305.42 358.223 11
-5 1 -4 7522.10 458.528 21
-5 1 -4 8423.36 485.822 29
-5 1 -4 8230.07 420.808 11
-5 1 -4 9426.29 453.986 10
-5 1 -5 172.749 92.8456 21
-5 1 -5 -38.3701 115.413 15
-5 1 -5 289.096 129.260 29
-5 1 -5 273.821 96.8467 11
-5 1 -6 1550.73 179.412 15
-5 1 -6 1856.00 170.068 11
-5 1 -7 12477.3 334.371 11
5 0 -6 861.057 122.839 9
5 0 -6 640.704 101.632 8
-5 0 6 571.862 103.118 23
5 0 -5 116.726 75.8960 9
5 0 -5 249.960 100.602 8
-5 0 5 137.117 92.1357 23
-5 0 4 4307.85 343.907 23
5 0 -4 3958.76 323.039 9
-5 0 3 11932.2 573.325 12
-5 0 3 12492.9 603.294 23
5 0 -3 12489.5 577.960 9
5 0 -2 475.053 119.578 9
-5 0 2 433.204 146.453 12
-5 0 2 319.284 122.680 23
-5 0 1 9766.89 527.596 12
-5 0 1 10659.8 521.671 23
-5 0 0 3960.47 684.182 2
-5 0 -1 1564.47 441.740 2
-5 0 -1 1314.13 194.630 17
-5 0 -2 3771.79 631.855 18
-5 0 -2 3938.54 341.786 17
-5 0 -2 4752.63 351.462 12
-5 0 -3 159.141 285.404 18
-5 0 -3 390.458 112.046 29
-5 0 -3 310.305 95.9071 11
-5 0 -4 817.279 152.436 21
-5 0 -4 986.130 176.669 29
-5 0 -4 899.860 153.312 11
-5 0 -5 29.2124 76.0342 21
-5 0 -5 116.563 88.2634 29
-5 0 -5 6.54520 79.8305 11
-5 0 -6 -87.7849 101.862 15
-5 0 -6 -3.24261 65.3644 11
-5 0 -7 252.564 74.9628 15
-5 0 -7 185.228 70.4836 11
5 1 -6 416.425 90.3394 9
5 1 -6 303.492 71.9174 8
-5 -1 6 273.254 76.1832 23
5 1 -5 742.874 143.238 9
5 1 -5 820.733 122.371 8
5 1 -4 141.392 90.9064 9
-5 -1 3 7896.09 468.725 12
5 1 -3 8177.04 469.417 9
5 1 -2 9298.98 480.920 9
-5 -1 2 8858.09 506.998 12
-5 -1 1 258.434 113.516 12
5 1 0 18511.7 1239.25 4
5 1 0 18916.8 1398.29 1
-5 -1 0 17067.8 1381.14 2
5 1 1 9602.50 1045.02 1
-5 -1 -1 7429.96 897.134 2
-5 -1 -2 205.918 236.205 2
-5 -1 -2 392.606 348.167 18
-5 -1 -2 352.057 121.695 17
-5 -1 -3 6060.44 420.810 17
-5 -1 -3 5692.14 355.699 11
-5 -1 -4 8223.47 989.517 18
-5 -1 -4 3508.41 297.094 11
-5 -1 -5 284.234 125.216 11
-5 -1 -6 2058.54 213.410 11
-5 -1 -7 55.3027 51.5026 15
-5 -1 -7 238.339 85.7333 11
5 2 -6 217.716 62.6198 9
5 2 -6 132.386 48.7510 8
-5 -2 6 165.436 64.9159 23
5 2 -5 -2.76543 53.8379 9
5 2 -5 -84.4782 66.1646 8
5 2 -4 9936.99 509.865 9
5 2 -3 20188.7 755.593 9
5 2 -2 18172.2 692.422 9
5 2 -1 35245.2 943.454 9
-5 -2 1 34858.8 985.273 17
-5 -2 0 1069.51 363.867 2
5 2 0 813.303 253.198 4
-5 -2 -1 1742.52 478.666 2
5 2 1 1494.49 347.596 4
5 2 1 2276.77 536.449 1
-5 -2 -2 2217.46 549.543 18
-5 -2 -2 1683.65 220.911 17
-5 -2 -3 10.5928 331.077 18
-5 -2 -3 -54.6519 84.0837 17
-5 -2 -3 195.445 118.790 27
-5 -2 -4 5173.34 358.169 11
-5 -2 -4 5425.28 407.067 27
-5 -2 -5 3779.97 304.605 11
-5 -2 -6 2543.90 235.267 11
-5 -2 -7 2201.20 185.715 11
-5 -3 6 300.403 60.9782 23
5 3 -5 6836.11 348.490 9
5 3 -4 179.354 85.5436 9
5 3 -4 275.877 101.190 25
5 3 -3 5677.53 399.263 9
5 3 -3 6363.34 361.676 25
5 3 -2 1390.82 208.756 9
5 3 -1 54.9146 67.7358 9
-5 -3 1 46.6616 88.4267 17
-5 -3 0 3482.33 330.928 17
-5 -3 -1 397.757 123.632 17
-5 -3 -1 442.948 133.227 27
-5 -3 -2 1883.80 519.177 18
-5 -3 -2 1787.93 243.253 17
-5 -3 -2 1683.19 214.691 27
-5 -3 -3 508.508 358.832 18
-5 -3 -3 355.746 131.618 17
-5 -3 -3 125.250 90.8060 32
-5 -3 -3 211.959 109.898 27
-5 -3 -4 -16.3801 296.283 18
-5 -3 -4 118.889 91.4891 32
-5 -3 -4 7.87415 83.5466 27
-5 -3 -5 25.1929 77.7493 27
-5 -3 -5 14.7289 76.9446 11
-5 -3 -6 312.272 106.354 11
-5 -3 -7 766.457 106.040 30
-5 -3 -7 686.197 104.651 11
5 4 -5 86.1985 47.9976 9
5 4 -4 5205.16 326.493 9
5 4 -4 5630.28 295.102 25
5 4 -3 1521.77 206.556 9
5 4 -3 1566.77 176.401 25
5 4 -2 6297.18 417.751 9
5 4 -1 696.841 149.322 9
-5 -4 1 704.754 152.964 17
-5 -4 1 778.781 174.338 16
-5 -4 0 5429.65 404.050 17
-5 -4 0 5448.29 401.680 16
-5 -4 -1 2731.18 290.962 17
-5 -4 -1 2707.00 266.494 27
-5 -4 -2 1292.69 393.259 18
-5 -4 -2 1631.43 235.829 17
-5 -4 -2 1634.02 219.509 27
-5 -4 -3 1759.96 235.647 17
-5 -4 -3 1699.41 220.795 32
-5 -4 -3 1710.53 242.540 27
-5 -4 -4 1573.94 207.910 32
-5 -4 -4 1959.34 258.336 27
-5 -4 -5 204.262 97.9460 32
-5 -4 -5 66.8355 62.5406 30
-5 -4 -5 182.138 115.481 27
-5 -4 -5 195.171 88.6324 11
-5 -4 -6 401.570 102.838 32
-5 -4 -6 400.249 101.824 30
-5 -4 -6 427.648 108.096 11
-5 -4 -7 1295.86 130.919 30
-5 -4 -7 1337.56 128.911 11
5 5 -4 337.283 73.4108 9
5 5 -4 335.234 71.5460 14
5 5 -3 811.219 134.617 9
5 5 -2 5457.39 368.855 9
-5 -5 1 788.139 161.106 17
-5 -5 1 944.529 172.713 16
-5 -5 0 691.302 158.384 17
-5 -5 0 559.557 140.952 16
-5 -5 -1 421.568 153.457 17
-5 -5 -1 404.614 125.472 16
-5 -5 -1 246.642 101.780 27
-5 -5 -2 13380.9 652.422 17
-5 -5 -2 12887.3 612.603 27
-5 -5 -3 2387.26 269.311 17
-5 -5 -3 2132.15 264.601 27
-5 -5 -4 4831.97 342.595 17
-5 -5 -4 4743.96 339.549 32
-5 -5 -4 5032.69 387.324 27
-5 -5 -5 959.191 151.125 32
-5 -5 -5 1003.80 149.242 30
-5 -5 -5 1219.28 195.793 27
-5 -5 -5 1131.88 158.285 11
-5 -5 -6 242.566 81.1485 32
-5 -5 -6 339.993 84.3406 30
-5 -5 -6 324.858 93.4850 27
-5 -5 -6 481.263 94.5381 11
-5 -5 -7 8712.56 297.596 30
5 6 -3 392.003 77.9302 9
5 6 -2 111.845 70.2615 9
5 6 -1 1388.68 181.118 9
-5 -6 1 1593.39 192.998 17
-5 -6 1 1699.72 206.172 16
-5 -6 0 6531.87 413.563 17
-5 -6 0 6404.54 397.903 16
-5 -6 -1 6917.33 440.951 17
-5 -6 -1 6860.47 399.403 16
-5 -6 -1 6662.72 398.784 27
-5 -6 -2 2183.43 255.625 17
-5 -6 -2 2594.96 266.827 27
-5 -6 -3 -102.161 70.3393 17
-5 -6 -3 6.86531 74.7173 27
-5 -6 -4 1044.17 151.053 17
-5 -6 -4 1066.91 177.599 27
-5 -6 -5 3643.15 231.579 11
-5 -6 -5 3947.52 296.978 27
-5 -6 -6 4976.24 243.341 30
-5 -6 -6 4375.63 202.267 11
5 7 -2 126.965 44.5369 9
5 7 -1 161.340 60.1539 9
-5 -7 1 124.698 52.0979 17
-5 -7 0 504.604 110.527 17
-5 -7 -1 25.0073 67.1144 17
-5 -7 -1 76.9139 66.2549 27
-5 -7 -2 -28.1031 64.9430 17
-5 -7 -2 85.9542 82.5816 27
-5 -7 -3 979.417 142.284 17
-5 -7 -3 1046.87 154.585 27
-5 -7 -4 4.18073 52.8087 27
-5 -7 -5 1.77670 36.0083 30
-5 -7 -5 73.6930 55.1686 27
-5 -8 -2 7785.70 283.818 17
-6 4 3 2651.22 164.472 23
-6 4 2 654.957 79.5600 31
-6 4 2 718.522 101.148 26
-6 4 2 627.983 103.972 23
-6 4 1 281.634 64.5544 31
-6 4 1 248.608 82.7379 26
-6 4 0 231.093 63.2164 31
-6 4 0 226.009 72.0202 10
-6 4 -1 78.4210 46.8220 31
-6 4 -1 -12.7104 45.8764 10
-6 4 -2 11.0169 48.2871 29
-6 4 -2 42.1369 44.5843 10
6 -3 -4 401.166 68.3991 9
-6 3 4 302.568 67.9970 23
-6 3 3 4129.26 267.293 23
-6 3 2 26.3603 48.4251 13
-6 3 2 120.811 62.1852 26
-6 3 2 72.7181 68.5626 23
-6 3 1 1.00173 73.5051 13
-6 3 1 6.36176 60.5448 26
-6 3 1 118.372 81.1859 23
-6 3 0 23.6743 69.6342 13
-6 3 0 141.778 79.3334 26
-6 3 0 84.4841 74.2060 23
-6 3 -1 1318.52 154.667 21
-6 3 -1 1045.42 160.613 13
-6 3 -2 1262.12 154.654 21
-6 3 -2 927.111 145.518 29
-6 3 -2 1044.35 139.000 10
-6 3 -3 173.691 79.1603 29
-6 3 -3 353.028 81.0790 10
-6 2 5 3039.38 169.667 23
6 -2 -5 2703.08 169.368 9
6 -2 -4 5.33980 47.8725 9
-6 2 4 48.0214 57.5905 23
6 -2 -3 614.143 107.258 9
-6 2 3 522.168 116.266 23
-6 2 2 2464.54 225.022 13
-6 2 2 2132.12 239.187 23
-6 2 1 1744.84 215.826 13
-6 2 1 1829.47 232.159 23
-6 2 0 11590.4 554.554 13
-6 2 0 12773.3 540.643 26
-6 2 0 13134.0 582.053 23
-6 2 -1 243.778 99.8368 13
-6 2 -1 310.892 102.179 23
-6 2 -2 3763.83 297.266 21
-6 2 -2 3453.57 283.617 13
-6 2 -3 1626.23 196.411 21
-6 2 -3 1439.16 158.115 15
-6 2 -3 1504.29 153.873 13
-6 2 -3 1637.29 194.294 29
-6 2 -3 1544.81 163.324 10
-6 2 -4 101.863 77.0162 21
-6 2 -4 218.626 79.8286 15
-6 2 -4 232.298 86.3882 29
-6 2 -4 126.766 54.7099 10
-6 2 -5 123.708 56.2693 15
6 -1 -5 427.149 78.6254 9
-6 1 5 350.775 74.3386 23
6 -1 -4 1030.03 140.882 9
-6 1 4 1222.66 161.131 23
6 -1 -3 373.412 91.0699 9
-6 1 3 515.870 132.221 23
-6 1 2 4055.97 299.243 13
-6 1 2 4852.68 362.941 23
-6 1 1 -22.3801 67.2124 23
-6 1 0 3401.21 304.899 23
-6 1 -1 9726.42 487.097 23
-6 1 -2 35.8725 77.6847 13
-6 1 -3 2533.82 260.213 21
-6 1 -3 2599.94 224.901 13
-6 1 -3 2787.34 254.402 29
-6 1 -3 2160.11 205.290 10
-6 1 -4 2145.92 223.317 21
-6 1 -4 2413.18 215.036 15
-6 1 -4 2652.66 234.596 29
-6 1 -5 411.628 96.7550 15
-6 1 -5 804.087 101.350 11
6 0 -5 -4.10385 43.2110 9
-6 0 5 -12.3173 43.6335 23
6 0 -4 12.5744 53.0947 9
-6 0 4 -8.13040 70.6610 23
6 0 -3 108.943 81.7199 9
-6 0 3 108.274 97.2043 23
-6 0 2 3138.03 312.812 12
-6 0 2 3344.51 304.675 23
6 0 -2 3595.56 279.009 9
-6 0 1 4082.26 367.677 12
-6 0 1 4631.28 353.790 23
-6 0 0 698.331 159.161 12
-6 0 0 627.286 127.665 23
-6 0 -1 2202.55 565.582 18
-6 0 -2 392.685 368.219 18
-6 0 -3 3188.62 580.065 18
-6 0 -4 138.917 72.5224 21
-6 0 -4 231.511 89.5519 29
-6 0 -4 -19.5077 68.4975 11
-6 0 -5 98.3025 83.7205 21
-6 0 -5 131.239 70.1219 11
-6 0 -6 81.2695 55.4624 15
-6 0 -6 -2.48769 48.7602 11
-6 -1 5 2238.10 184.173 23
6 1 -5 2504.12 191.787 9
6 1 -4 101.005 71.4854 9
-6 -1 4 621.598 163.038 23
6 1 -3 -26.4779 63.7513 9
-6 -1 3 3.21818 66.1511 12
-6 -1 3 57.8017 83.0551 23
6 1 -2 43.6504 68.6549 9
-6 -1 2 10.2082 85.5937 12
-6 -1 2 73.8834 91.5162 23
-6 -1 1 5909.09 400.967 17
-6 -1 1 5974.57 436.447 12
-6 -1 1 6195.66 407.796 23
-6 -1 0 8462.51 500.011 17
-6 -1 0 8728.84 519.508 12
-6 -1 -1 169.850 349.943 18
-6 -1 -1 66.6603 98.9257 17
-6 -1 -1 -29.9742 95.2169 12
-6 -1 -2 16633.1 726.646 17
-6 -1 -2 16724.6 670.462 12
-6 -1 -3 10120.5 1082.25 18
-6 -1 -3 8853.04 424.050 11
-6 -1 -4 72.6927 73.4551 11
-6 -1 -5 2448.27 209.756 11
-6 -1 -6 770.055 106.965 15
-6 -1 -6 1070.48 122.867 11
6 2 -5 101.397 55.6214 9
-6 -2 5 326.902 70.7109 23
6 2 -4 764.499 132.371 9
-6 -2 4 921.788 147.794 23
6 2 -3 45.6440 58.3895 9
-6 -2 3 23.4667 70.4280 12
-6 -2 3 140.124 101.689 23
-6 -2 2 4178.41 351.045 12
-6 -2 2 4662.69 339.486 23
6 2 -2 3972.29 309.842 9
-6 -2 1 18104.6 707.132 17
-6 -2 1 19458.3 786.444 12
-6 -2 1 18904.7 696.303 23
-6 -2 0 9093.17 522.916 17
-6 -2 0 9217.62 541.565 12
-6 -2 -1 29888.1 1710.51 18
-6 -2 -1 26620.1 926.662 17
-6 -2 -1 27470.2 921.780 12
-6 -2 -2 -0.52054 294.698 18
-6 -2 -2 -7.32587 96.0172 17
-6 -2 -2 32.6187 80.2279 12
-6 -2 -2 92.4733 75.9797 11
-6 -2 -3 1028.60 450.763 18
-6 -2 -3 1302.48 210.618 17
-6 -2 -3 1308.17 171.195 11
-6 -2 -4 530.762 479.594 18
-6 -2 -4 329.356 105.639 11
-6 -2 -5 83.0764 84.7140 11
-6 -2 -6 1076.75 136.252 11
6 3 -5 -34.1711 30.2212 9
-6 -3 5 -17.5507 28.4786 23
-6 -3 4 2124.19 193.383 23
6 3 -4 2542.32 206.231 9
-6 -3 3 2833.99 252.167 12
6 3 -3 3187.44 261.137 9
6 3 -2 202.307 93.9399 9
6 3 -1 2582.56 249.726 9
-6 -3 1 3161.31 305.434 17
-6 -3 0 3276.74 313.233 17
-6 -3 -1 249.708 285.273 18
-6 -3 -1 271.386 123.115 17
-6 -3 -2 3525.09 652.678 18
-6 -3 -2 3643.07 351.528 17
-6 -3 -2 4369.72 337.890 12
-6 -3 -2 3620.80 312.036 27
-6 -3 -3 241.728 377.026 18
-6 -3 -3 275.485 129.774 17
-6 -3 -3 274.770 114.665 27
-6 -3 -3 109.038 79.7506 11
-6 -3 -4 1569.52 205.301 17
-6 -3 -4 1252.28 169.362 11
-6 -3 -5 47.5751 64.2331 11
-6 -3 -6 73.3716 71.1749 11
6 4 -4 16.9461 39.6928 9
-6 -4 4 23.2684 34.3047 23
6 4 -3 -28.4764 46.7154 9
-6 -4 3 -31.4874 50.5088 12
6 4 -2 5324.96 335.647 9
6 4 -1 1776.22 205.297 9
-6 -4 1 2072.02 227.556 17
-6 -4 0 6006.79 776.427 18
-6 -4 0 4328.69 356.199 17
-6 -4 -1 187.024 290.508 18
-6 -4 -1 1033.93 196.309 17
-6 -4 -2 4111.48 654.776 18
-6 -4 -2 4992.73 384.905 17
-6 -4 -2 5008.71 359.579 27
-6 -4 -3 23.4811 290.711 18
-6 -4 -3 189.324 99.8306 17
-6 -4 -3 -10.6843 93.6867 27
-6 -4 -4 1843.16 203.628 17
-6 -4 -4 1863.80 207.263 11
-6 -4 -4 1881.22 228.688 27
-6 -4 -5 377.698 97.3472 11
-6 -4 -6 1121.65 123.853 11
6 5 -3 -31.2173 40.9291 9
-6 -5 3 -1.18732 38.2775 12
6 5 -2 10.8858 48.2543 9
6 5 -1 493.725 103.543 9
-6 -5 1 306.500 98.0513 17
-6 -5 0 3496.06 293.634 17
-6 -5 -1 2315.77 253.883 17
-6 -5 -2 510.292 145.767 17
-6 -5 -2 275.485 96.5110 27
-6 -5 -3 -15.8492 66.2838 17
-6 -5 -3 129.924 93.6228 27
-6 -5 -4 6713.92 348.973 17
-6 -5 -4 5698.87 321.487 11
-6 -5 -4 6234.40 386.076 27
-6 -5 -5 2188.83 181.932 11
-6 -5 -5 2324.02 219.040 27
-6 -5 -6 2710.14 158.019 11
6 6 -2 -11.8301 28.9670 9
6 6 -1 176.203 58.2240 9
-6 -6 1 145.970 62.4254 17
6 6 0 -34.1783 42.4032 9
-6 -6 0 7.98915 63.6924 17
-6 -6 -1 1051.30 160.275 17
-6 -6 -2 1438.62 183.777 17
-6 -6 -2 1372.98 159.304 27
-6 -6 -3 3113.86 243.324 17
-6 -6 -3 2921.12 235.790 27
-6 -6 -4 1210.39 147.934 27
-6 -6 -4 943.312 115.115 11
-6 -6 -5 50.9126 47.0164 27
-6 -6 -5 73.2618 46.5145 11
-6 -7 -1 962.225 114.255 17
-6 -7 -2 510.249 90.7553 17
-6 -7 -3 158.787 57.2609 27
-7 3 0 68.9153 36.5140 31
-7 2 3 2100.85 145.372 23
-7 2 2 62.8416 50.7487 23
-7 2 1 257.427 69.7084 13
-7 2 1 213.434 70.2801 23
-7 2 0 986.596 111.512 21
-7 2 0 950.562 132.137 13
-7 2 0 978.303 122.324 23
-7 2 -1 641.357 100.329 21
-7 2 -1 590.619 98.6133 13
-7 2 -2 5152.04 243.936 21
-7 2 -2 4439.68 201.768 10
-7 1 3 554.290 94.3161 23
-7 1 2 297.154 73.7979 13
-7 1 2 213.927 75.8740 23
-7 1 1 65.1093 64.2292 13
-7 1 1 167.884 71.4523 23
-7 1 0 895.643 141.284 13
-7 1 0 1055.16 140.367 23
-7 1 -1 81.1465 70.8931 13
-7 1 -2 1797.40 181.989 21
-7 1 -2 1977.53 174.762 13
-7 1 -3 2672.76 202.093 21
-7 1 -3 2609.55 164.781 15
-7 1 -4 132.124 46.0477 21
-7 0 4 28.4734 39.5244 23
-7 0 3 496.530 96.4102 23
-7 0 2 -12.3396 213.355 18
-7 0 2 19.6508 43.9989 13
-7 0 2 36.7661 54.8059 23
-7 0 1 -25.6123 213.083 18
-7 0 1 279.380 92.4450 23
-7 0 0 267.278 315.469 18
-7 0 0 1800.55 178.291 23
-7 0 -1 245.568 211.411 18
-7 0 -2 225.334 254.311 18
-7 0 -2 267.950 89.6727 13
-7 0 -3 4801.54 291.624 21
-7 0 -3 4651.68 256.225 13
-7 0 -4 10.6644 49.0809 21
-7 0 -4 -153.437 79.7779 15
-7 -1 4 924.126 100.859 23
-7 -1 3 3703.37 234.200 23
7 1 -3 3612.78 203.061 9
-7 -1 2 -30.2252 251.532 18
-7 -1 2 37.4112 57.1136 23
-7 -1 1 503.837 302.708 18
-7 -1 1 596.739 141.069 12
-7 -1 1 633.397 122.094 23
-7 -1 0 101.311 235.545 18
-7 -1 -1 1831.33 445.845 18
-7 -1 -2 4834.17 675.131 18
-7 -1 -3 104.808 270.494 18
-7 -1 -4 7823.87 327.572 21
-7 -1 -5 4550.66 221.035 15
7 2 -3 128.857 51.8190 9
-7 -2 3 206.122 63.9315 23
-7 -2 2 722.122 127.217 12
-7 -2 2 988.996 128.803 23
-7 -2 1 35.4533 239.180 18
-7 -2 1 35.8874 70.9755 12
-7 -2 0 558.680 128.782 17
-7 -2 0 433.466 111.644 12
-7 -2 -1 8801.45 477.316 17
-7 -2 -1 9128.54 472.661 12
-7 -2 -2 1708.73 473.979 18
-7 -2 -3 18374.0 1266.45 18
-7 -2 -4 17.3209 51.8648 11
-7 -2 -5 848.273 91.1078 11
7 3 -3 88.9113 41.2727 9
-7 -3 3 17.7701 165.112 18
-7 -3 3 132.108 46.8233 23
-7 -3 2 4091.42 538.408 18
-7 -3 2 4293.59 275.055 12
-7 -3 1 46.1516 244.756 18
-7 -3 1 236.839 78.2435 17
-7 -3 1 68.7432 75.8589 12
-7 -3 0 750.115 402.421 18
-7 -3 0 592.882 124.448 17
-7 -3 0 728.188 142.610 12
-7 -3 -1 342.816 329.257 18
-7 -3 -1 603.691 132.906 17
-7 -3 -1 748.762 145.976 12
-7 -3 -2 2850.32 547.487 18
-7 -3 -2 2559.69 251.911 17
-7 -3 -2 2523.47 226.542 12
-7 -3 -3 460.872 311.652 18
-7 -3 -3 395.921 109.766 17
-7 -3 -3 255.721 72.8518 11
-7 -3 -4 2682.91 185.728 11
-7 -3 -5 -10.4584 47.9993 11
7 4 -2 129.539 46.1427 9
-7 -4 2 5.14429 169.386 18
-7 -4 2 42.5647 42.7511 12
-7 -4 1 55.7254 201.101 18
-7 -4 1 51.6532 48.3960 17
-7 -4 1 136.139 76.0039 12
-7 -4 0 2018.73 383.712 18
-7 -4 0 2683.21 228.368 17
-7 -4 0 2850.88 255.888 12
-7 -4 -1 1142.41 165.573 17
-7 -4 -1 1220.71 164.647 12
-7 -4 -2 2284.38 419.256 18
-7 -4 -2 2085.98 215.813 17
-7 -4 -2 1857.86 178.249 12
-7 -4 -2 1649.37 152.270 11
-7 -4 -3 808.466 281.505 18
-7 -4 -3 437.374 101.595 17
-7 -4 -3 546.778 93.3359 11
-7 -4 -4 2521.44 174.941 11
-7 -4 -5 -48.8986 44.8625 11
-7 -5 1 147.546 58.9482 12
-7 -5 0 153.956 66.0798 17
-7 -5 0 251.164 80.9924 12
-7 -5 -1 16.9008 53.5718 17
-7 -5 -1 -8.45472 46.1247 12
-7 -5 -2 675.201 118.910 17
-7 -5 -2 558.143 84.1491 11
-7 -5 -3 1370.61 142.637 17
-7 -5 -3 1159.25 115.293 11
-7 -5 -4 67.5000 39.5919 11
-7 -6 -2 -47.2329 36.6980 17
-8 -1 0 25.3285 33.2348 13
-8 -1 -1 755.638 93.4321 13
-8 -1 -2 156.018 47.6691 21
-8 -2 0 155.012 208.018 18
-8 -2 -1 85.6118 192.193 18
-8 -2 -2 23.6712 29.3567 13
-8 -3 0 3416.61 366.464 18
-8 -3 -1 354.793 236.679 18
-8 -3 -2 722.265 235.954 18
