#------------------------------------------------------------------------------
#$Date: 2019-12-14 03:08:52 +0200 (Sat, 14 Dec 2019) $
#$Revision: 245147 $
#$URL: file:///home/coder/svn-repositories/cod/cif/4/03/76/4037637.cif $
#------------------------------------------------------------------------------
#
# This file is available in the Crystallography Open Database (COD),
# http://www.crystallography.net/
#
# All data on this site have been placed in the public domain by the
# contributors.
#
data_4037637
loop_
_publ_author_name
'Zhang, Peng-Fei'
'Zhuang, Fang-Dong'
'Sun, Ze-Hao'
'Lu, Yang'
'Wang, Jie-Yu'
'Pei, Jian'
_publ_section_title
;
 Rapid Construction of Fold-Line-Shaped BN-Embedded Polycyclic Aromatic
 Compounds through Diels-Alder Reaction.
;
_journal_name_full               'The Journal of organic chemistry'
_journal_paper_doi               10.1021/acs.joc.9b02956
_journal_year                    2019
_chemical_formula_moiety         'C20 H14 B N'
_chemical_formula_sum            'C20 H14 B N'
_chemical_formula_weight         279.13
_space_group_crystal_system      monoclinic
_space_group_IT_number           4
_space_group_name_Hall           'P 2yb'
_space_group_name_H-M_alt        'P 1 21 1'
_atom_sites_solution_hydrogens   geom
_atom_sites_solution_primary     dual
_audit_creation_date             2018-04-18
_audit_creation_method
;
Olex2 1.2
(compiled 2018.04.03 svn.r3497 for OlexSys, GUI svn.r5486)
;
_audit_update_record
;
????
;
_cell_angle_alpha                90
_cell_angle_beta                 95.51(3)
_cell_angle_gamma                90
_cell_formula_units_Z            2
_cell_length_a                   8.2149(16)
_cell_length_b                   6.3407(13)
_cell_length_c                   13.524(3)
_cell_measurement_reflns_used    2141
_cell_measurement_temperature    153(2)
_cell_measurement_theta_max      27.4778
_cell_measurement_theta_min      2.4909
_cell_volume                     701.2(3)
_computing_molecular_graphics    'Olex2 (Dolomanov et al., 2009)'
_computing_publication_material  'Olex2 (Dolomanov et al., 2009)'
_computing_structure_refinement  'XL (Sheldrick, 2008)'
_computing_structure_solution    'ShelXT (Sheldrick, 2015)'
_diffrn_ambient_temperature      153.15
_diffrn_measured_fraction_theta_full 0.991
_diffrn_measured_fraction_theta_max 0.991
_diffrn_measurement_device_type  'multiwire proportional'
_diffrn_measurement_method       'phi and omega scans'
_diffrn_radiation_monochromator  graphite
_diffrn_radiation_type           MoK\a
_diffrn_radiation_wavelength     0.71073
_diffrn_reflns_av_R_equivalents  0.0399
_diffrn_reflns_av_unetI/netI     0.0394
_diffrn_reflns_Laue_measured_fraction_full 0.991
_diffrn_reflns_Laue_measured_fraction_max 0.991
_diffrn_reflns_limit_h_max       10
_diffrn_reflns_limit_h_min       -10
_diffrn_reflns_limit_k_max       8
_diffrn_reflns_limit_k_min       -8
_diffrn_reflns_limit_l_max       17
_diffrn_reflns_limit_l_min       -17
_diffrn_reflns_number            8417
_diffrn_reflns_point_group_measured_fraction_full 0.990
_diffrn_reflns_point_group_measured_fraction_max 0.983
_diffrn_reflns_theta_full        25.242
_diffrn_reflns_theta_max         27.493
_diffrn_reflns_theta_min         2.788
_exptl_absorpt_coefficient_mu    0.076
_exptl_absorpt_correction_T_max  1.0000
_exptl_absorpt_correction_T_min  0.9004
_exptl_absorpt_correction_type   multi-scan
_exptl_absorpt_process_details   'CrystalClear (Rigaku Inc., 2008)'
_exptl_crystal_colour            colorless
_exptl_crystal_density_diffrn    1.322
_exptl_crystal_description       block
_exptl_crystal_F_000             292
_exptl_crystal_size_max          0.24
_exptl_crystal_size_mid          0.21
_exptl_crystal_size_min          0.12
_refine_diff_density_max         0.305
_refine_diff_density_min         -0.195
_refine_diff_density_rms         0.049
_refine_ls_abs_structure_details
;
 Flack x determined using 1014 quotients [(I+)-(I-)]/[(I+)+(I-)]
 (Parsons, Flack and Wagner, Acta Cryst. B69 (2013) 249-259).
;
_refine_ls_abs_structure_Flack   -4.3(10)
_refine_ls_extinction_method     none
_refine_ls_goodness_of_fit_ref   1.075
_refine_ls_hydrogen_treatment    constr
_refine_ls_matrix_type           full
_refine_ls_number_parameters     199
_refine_ls_number_reflns         3171
_refine_ls_number_restraints     1
_refine_ls_restrained_S_all      1.075
_refine_ls_R_factor_all          0.0663
_refine_ls_R_factor_gt           0.0616
_refine_ls_shift/su_max          0.000
_refine_ls_shift/su_mean         0.000
_refine_ls_structure_factor_coef Fsqd
_refine_ls_weighting_details
'w=1/[\s^2^(Fo^2^)+(0.0755P)^2^+0.2471P] where P=(Fo^2^+2Fc^2^)/3'
_refine_ls_weighting_scheme      calc
_refine_ls_wR_factor_gt          0.1529
_refine_ls_wR_factor_ref         0.1577
_reflns_Friedel_coverage         0.819
_reflns_Friedel_fraction_full    0.988
_reflns_Friedel_fraction_max     0.973
_reflns_number_gt                2931
_reflns_number_total             3171
_reflns_threshold_expression     'I > 2\s(I)'
_iucr_refine_instructions_details
;

    bww18222.res created by SHELXL-2014/7

TITL bww18222_a.res in P2(1)
CELL 0.71073 8.2149 6.3407 13.5235 90 95.51 90
ZERR 2 0.0016 0.0013 0.0027 0 0.03 0
LATT -1
SYMM -X,0.5+Y,-Z
SFAC C H B N
UNIT 40 28 2 2
 
L.S. 4
PLAN  5
SIZE 0.24 0.21 0.12
TEMP -120
ACTA
BOND $H
CONF
list 4
fmap 2
OMIT -1 -1 1
OMIT 0 0 1
OMIT 5 -2 3
OMIT 2 -3 9
OMIT 1 0 0
REM <olex2.extras>
REM <HklSrc "%.\\bww18222.hkl">
REM </olex2.extras>
 
WGHT    0.075500    0.247100
FVAR       0.95037
N1    4    0.354509    0.577521    0.614021    11.00000    0.02551    0.02420 =
         0.02837   -0.00146    0.00326    0.00155
C18   1   -0.034060    0.201194    0.229596    11.00000    0.02832    0.03571 =
         0.03007   -0.00143    0.00478    0.00235
AFIX  43
H18   2   -0.064959    0.071653    0.257739    11.00000   -1.20000
AFIX   0
C6    1    0.386065    0.359277    0.761678    11.00000    0.02279    0.03158 =
         0.02644   -0.00342    0.00202    0.00126
C19   1    0.062119    0.346366    0.288977    11.00000    0.02378    0.02960 =
         0.02661   -0.00242    0.00331   -0.00140
C13   1    0.202472    0.687417    0.304929    11.00000    0.02784    0.02607 =
         0.03226    0.00235    0.00294   -0.00073
AFIX  43
H13   2    0.236607    0.814665    0.276110    11.00000   -1.20000
AFIX   0
C11   1    0.335489    0.799638    0.467583    11.00000    0.02843    0.02486 =
         0.03518    0.00213    0.00259   -0.00558
AFIX  43
H11   2    0.360933    0.931640    0.439612    11.00000   -1.20000
AFIX   0
C7    1    0.279281    0.202903    0.714546    11.00000    0.03103    0.03087 =
         0.03108    0.00317    0.00570   -0.00008
AFIX  43
H7    2    0.254162    0.081214    0.751143    11.00000   -1.20000
AFIX   0
C8    1    0.213114    0.223227    0.619509    11.00000    0.02596    0.02897 =
         0.03157   -0.00338   -0.00018   -0.00310
AFIX  43
H8    2    0.142089    0.118103    0.589655    11.00000   -1.20000
AFIX   0
C12   1    0.386629    0.763819    0.563821    11.00000    0.02817    0.02508 =
         0.03597   -0.00096    0.00238   -0.00229
AFIX  43
H12   2    0.447905    0.870998    0.599594    11.00000   -1.20000
AFIX   0
C15   1    0.058589    0.578242    0.143658    11.00000    0.03487    0.03182 =
         0.02816    0.00324    0.00398   -0.00093
AFIX  43
H15   2    0.090966    0.704580    0.113255    11.00000   -1.20000
AFIX   0
C2    1    0.530752    0.693219    0.763230    11.00000    0.02796    0.03238 =
         0.03665   -0.00463   -0.00082   -0.00358
AFIX  43
H2    2    0.558020    0.819689    0.730957    11.00000   -1.20000
AFIX   0
C17   1   -0.083286    0.244058    0.132467    11.00000    0.03062    0.04451 =
         0.03102   -0.00745    0.00071   -0.00463
AFIX  43
H17   2   -0.149120    0.145461    0.093796    11.00000   -1.20000
AFIX   0
C20   1    0.109426    0.309162    0.391409    11.00000    0.02555    0.02856 =
         0.02713    0.00214    0.00303    0.00090
AFIX  43
H20   2    0.078785    0.180323    0.420321    11.00000   -1.20000
AFIX   0
C1    1    0.423895    0.547801    0.712985    11.00000    0.02170    0.03137 =
         0.02567   -0.00040    0.00370    0.00443
C14   1    0.109716    0.539499    0.245948    11.00000    0.02353    0.03012 =
         0.02811   -0.00001    0.00634    0.00269
C10   1    0.244024    0.648099    0.404614    11.00000    0.02385    0.02791 =
         0.03201    0.00051    0.00243    0.00562
C5    1    0.455588    0.325322    0.860532    11.00000    0.03652    0.04179 =
         0.02806    0.00200    0.00255   -0.00007
AFIX  43
H5    2    0.429426    0.200231    0.894285    11.00000   -1.20000
AFIX   0
C16   1   -0.036375    0.435331    0.089218    11.00000    0.03623    0.04692 =
         0.02371    0.00245    0.00303    0.00025
AFIX  43
H16   2   -0.071383    0.464454    0.021600    11.00000   -1.20000
AFIX   0
C9    1    0.198532    0.454668    0.450072    11.00000    0.02359    0.02678 =
         0.02639   -0.00110    0.00164    0.00146
C3    1    0.596398    0.653936    0.859002    11.00000    0.03527    0.04555 =
         0.03813   -0.01157   -0.00419   -0.00167
AFIX  43
H3    2    0.668001    0.754617    0.892023    11.00000   -1.20000
AFIX   0
C4    1    0.560075    0.469917    0.908422    11.00000    0.03917    0.05225 =
         0.02429   -0.00688   -0.00557   -0.00002
AFIX  43
H4    2    0.606825    0.444528    0.974348    11.00000   -1.20000
AFIX   0
B1    3    0.255030    0.418323    0.561490    11.00000    0.02454    0.02694 =
         0.02712   -0.00148    0.00240    0.00604
HKLF 4
 
REM  bww18222_a.res in P2(1)
REM R1 =  0.0616 for    2931 Fo > 4sig(Fo)  and  0.0663 for all    3171 data
REM    199 parameters refined using      1 restraints
 
END  
     
WGHT      0.0755      0.2468 

REM Highest difference peak  0.305,  deepest hole -0.195,  1-sigma level  0.049
Q1    1   0.1137  0.1552  0.4402  11.00000  0.05    0.31
Q2    1   0.1588  0.1072  0.5315  11.00000  0.05    0.30
Q3    1   0.2521  0.3219  0.5866  11.00000  0.05    0.26
Q4    1   0.2232  0.4300  0.5061  11.00000  0.05    0.25
Q5    1   0.4776  0.5995  0.7394  11.00000  0.05    0.25

  REM The information below was added by Olex2.
  REM
  REM R1 = 0.0616 for 2931 Fo > 4sig(Fo) and 0.0663 for all 8445 data
  REM n/a parameters refined using n/a restraints
  REM Highest difference peak 0.31, deepest hole -0.19
  REM Mean Shift 0, Max Shift 0.000.

  REM +++ Tabular Listing of Refinement Information +++
  REM R1_all = 0.0663
  REM R1_gt = 0.0616
  REM wR_ref = 0.1577
  REM GOOF = 1.075
  REM Shift_max = 0.000
  REM Shift_mean = 0
  REM Reflections_all = 8445
  REM Reflections_gt = 2931
  REM Parameters = n/a
  REM Hole = -0.19
  REM Peak = 0.31
  REM Flack = -4.3(10)

  
;
_cod_data_source_file            jo9b02956_si_002.cif
_cod_data_source_block           bww18222
_cod_original_cell_volume        701.2(2)
_cod_database_code               4037637
_shelx_shelxl_version_number     2014/7
_shelx_space_group_comment
;
The symmetry employed for this shelxl refinement is uniquely defined
by the following loop, which should always be used as a source of
symmetry information in preference to the above space-group names.
They are only intended as comments.
;
_shelx_estimated_absorpt_t_max   0.991
_shelx_estimated_absorpt_t_min   0.982
_olex2_refinement_description
;
1. Fixed Uiso
 At 1.2 times of:
  All C(H) groups
2.a Aromatic/amide H refined with riding coordinates:
 C18(H18), C13(H13), C11(H11), C7(H7), C8(H8), C12(H12), C15(H15), C2(H2),
 C17(H17), C20(H20), C5(H5), C16(H16), C3(H3), C4(H4)
;
_olex2_submission_special_instructions 'No special instructions were received'
loop_
_space_group_symop_operation_xyz
'x, y, z'
'-x, y+1/2, -z'
loop_
_atom_site_label
_atom_site_type_symbol
_atom_site_fract_x
_atom_site_fract_y
_atom_site_fract_z
_atom_site_U_iso_or_equiv
_atom_site_adp_type
_atom_site_occupancy
_atom_site_site_symmetry_order
_atom_site_calc_flag
_atom_site_refinement_flags_posn
N1 N 0.3545(3) 0.5775(4) 0.61402(19) 0.0260(6) Uani 1 1 d .
C18 C -0.0341(4) 0.2012(6) 0.2296(2) 0.0312(7) Uani 1 1 d .
H18 H -0.0650 0.0717 0.2577 0.037 Uiso 1 1 calc R
C6 C 0.3861(4) 0.3593(5) 0.7617(2) 0.0270(7) Uani 1 1 d .
C19 C 0.0621(4) 0.3464(5) 0.2890(2) 0.0266(7) Uani 1 1 d .
C13 C 0.2025(4) 0.6874(5) 0.3049(2) 0.0287(7) Uani 1 1 d .
H13 H 0.2366 0.8147 0.2761 0.034 Uiso 1 1 calc R
C11 C 0.3355(4) 0.7996(5) 0.4676(2) 0.0295(7) Uani 1 1 d .
H11 H 0.3609 0.9316 0.4396 0.035 Uiso 1 1 calc R
C7 C 0.2793(4) 0.2029(5) 0.7145(2) 0.0308(7) Uani 1 1 d .
H7 H 0.2542 0.0812 0.7511 0.037 Uiso 1 1 calc R
C8 C 0.2131(4) 0.2232(5) 0.6195(2) 0.0290(7) Uani 1 1 d .
H8 H 0.1421 0.1181 0.5897 0.035 Uiso 1 1 calc R
C12 C 0.3866(4) 0.7638(5) 0.5638(2) 0.0298(7) Uani 1 1 d .
H12 H 0.4479 0.8710 0.5996 0.036 Uiso 1 1 calc R
C15 C 0.0586(4) 0.5782(6) 0.1437(2) 0.0316(7) Uani 1 1 d .
H15 H 0.0910 0.7046 0.1133 0.038 Uiso 1 1 calc R
C2 C 0.5308(4) 0.6932(6) 0.7632(2) 0.0326(7) Uani 1 1 d .
H2 H 0.5580 0.8197 0.7310 0.039 Uiso 1 1 calc R
C17 C -0.0833(4) 0.2441(6) 0.1325(2) 0.0355(8) Uani 1 1 d .
H17 H -0.1491 0.1455 0.0938 0.043 Uiso 1 1 calc R
C20 C 0.1094(4) 0.3092(5) 0.3914(2) 0.0270(7) Uani 1 1 d .
H20 H 0.0788 0.1803 0.4203 0.032 Uiso 1 1 calc R
C1 C 0.4239(3) 0.5478(5) 0.7130(2) 0.0262(7) Uani 1 1 d .
C14 C 0.1097(4) 0.5395(5) 0.2459(2) 0.0270(7) Uani 1 1 d .
C10 C 0.2440(4) 0.6481(5) 0.4046(2) 0.0279(7) Uani 1 1 d .
C5 C 0.4556(4) 0.3253(6) 0.8605(2) 0.0355(8) Uani 1 1 d .
H5 H 0.4294 0.2002 0.8943 0.043 Uiso 1 1 calc R
C16 C -0.0364(4) 0.4353(6) 0.0892(2) 0.0356(8) Uani 1 1 d .
H16 H -0.0714 0.4645 0.0216 0.043 Uiso 1 1 calc R
C9 C 0.1985(4) 0.4547(5) 0.4501(2) 0.0256(6) Uani 1 1 d .
C3 C 0.5964(4) 0.6539(6) 0.8590(3) 0.0402(9) Uani 1 1 d .
H3 H 0.6680 0.7546 0.8920 0.048 Uiso 1 1 calc R
C4 C 0.5601(4) 0.4699(7) 0.9084(2) 0.0391(8) Uani 1 1 d .
H4 H 0.6068 0.4445 0.9743 0.047 Uiso 1 1 calc R
B1 B 0.2550(4) 0.4183(6) 0.5615(2) 0.0262(7) Uani 1 1 d .
loop_
_atom_site_aniso_label
_atom_site_aniso_U_11
_atom_site_aniso_U_22
_atom_site_aniso_U_33
_atom_site_aniso_U_23
_atom_site_aniso_U_13
_atom_site_aniso_U_12
N1 0.0255(12) 0.0242(14) 0.0284(13) -0.0015(11) 0.0033(10) 0.0016(11)
C18 0.0283(15) 0.0357(18) 0.0301(15) -0.0014(13) 0.0048(12) 0.0024(14)
C6 0.0228(13) 0.0316(17) 0.0264(14) -0.0034(13) 0.0020(11) 0.0013(13)
C19 0.0238(13) 0.0296(16) 0.0266(14) -0.0024(12) 0.0033(12) -0.0014(13)
C13 0.0278(15) 0.0261(16) 0.0323(15) 0.0023(13) 0.0029(12) -0.0007(13)
C11 0.0284(14) 0.0249(16) 0.0352(15) 0.0021(13) 0.0026(12) -0.0056(13)
C7 0.0310(16) 0.0309(16) 0.0311(15) 0.0032(13) 0.0057(13) -0.0001(14)
C8 0.0260(14) 0.0290(16) 0.0316(15) -0.0034(13) -0.0002(12) -0.0031(13)
C12 0.0282(15) 0.0251(16) 0.0360(15) -0.0010(13) 0.0024(12) -0.0023(13)
C15 0.0349(16) 0.0318(17) 0.0282(15) 0.0032(13) 0.0040(13) -0.0009(14)
C2 0.0280(16) 0.0324(18) 0.0366(16) -0.0046(14) -0.0008(13) -0.0036(14)
C17 0.0306(16) 0.045(2) 0.0310(16) -0.0075(15) 0.0007(13) -0.0046(15)
C20 0.0255(14) 0.0286(17) 0.0271(14) 0.0021(13) 0.0030(11) 0.0009(13)
C1 0.0217(14) 0.0314(18) 0.0257(14) -0.0004(12) 0.0037(11) 0.0044(13)
C14 0.0235(14) 0.0301(18) 0.0281(15) 0.0000(13) 0.0063(12) 0.0027(12)
C10 0.0238(14) 0.0279(17) 0.0320(15) 0.0005(13) 0.0024(12) 0.0056(13)
C5 0.0365(17) 0.042(2) 0.0281(15) 0.0020(14) 0.0025(13) -0.0001(16)
C16 0.0362(17) 0.047(2) 0.0237(14) 0.0024(15) 0.0030(12) 0.0002(16)
C9 0.0236(13) 0.0268(16) 0.0264(13) -0.0011(12) 0.0016(11) 0.0015(12)
C3 0.0353(18) 0.046(2) 0.0381(18) -0.0116(16) -0.0042(14) -0.0017(16)
C4 0.0392(18) 0.052(2) 0.0243(14) -0.0069(16) -0.0056(13) 0.0000(17)
B1 0.0245(16) 0.0269(18) 0.0271(16) -0.0015(15) 0.0024(13) 0.0060(14)
loop_
_atom_type_symbol
_atom_type_description
_atom_type_scat_dispersion_real
_atom_type_scat_dispersion_imag
_atom_type_scat_source
C C 0.0033 0.0016 'International Tables Vol C Tables 4.2.6.8 and 6.1.1.4'
H H 0.0000 0.0000 'International Tables Vol C Tables 4.2.6.8 and 6.1.1.4'
B B 0.0013 0.0007 'International Tables Vol C Tables 4.2.6.8 and 6.1.1.4'
N N 0.0061 0.0033 'International Tables Vol C Tables 4.2.6.8 and 6.1.1.4'
loop_
_geom_angle_atom_site_label_1
_geom_angle_atom_site_label_2
_geom_angle_atom_site_label_3
_geom_angle
C12 N1 C1 119.5(3)
C12 N1 B1 118.4(3)
C1 N1 B1 122.0(3)
C19 C18 H18 119.5
C17 C18 H18 119.5
C17 C18 C19 121.0(3)
C1 C6 C7 122.1(3)
C1 C6 C5 118.7(3)
C5 C6 C7 119.2(3)
C18 C19 C20 122.1(3)
C18 C19 C14 119.2(3)
C20 C19 C14 118.7(3)
C14 C13 H13 119.9
C10 C13 H13 119.9
C10 C13 C14 120.2(3)
C12 C11 H11 118.2
C12 C11 C10 123.6(3)
C10 C11 H11 118.2
C6 C7 H7 119.0
C8 C7 C6 122.0(3)
C8 C7 H7 119.0
C7 C8 H8 120.8
C7 C8 B1 118.5(3)
B1 C8 H8 120.8
N1 C12 H12 118.2
C11 C12 N1 123.7(3)
C11 C12 H12 118.2
C14 C15 H15 119.7
C16 C15 H15 119.7
C16 C15 C14 120.5(3)
C1 C2 H2 119.8
C3 C2 H2 119.8
C3 C2 C1 120.5(3)
C18 C17 H17 120.0
C18 C17 C16 120.1(3)
C16 C17 H17 120.0
C19 C20 H20 119.0
C9 C20 C19 122.0(3)
C9 C20 H20 119.0
C6 C1 N1 117.8(3)
C2 C1 N1 123.1(3)
C2 C1 C6 119.0(3)
C19 C14 C15 118.4(3)
C13 C14 C19 119.7(3)
C13 C14 C15 121.8(3)
C13 C10 C11 121.4(3)
C13 C10 C9 121.4(3)
C9 C10 C11 117.2(3)
C6 C5 H5 119.4
C4 C5 C6 121.3(3)
C4 C5 H5 119.4
C15 C16 C17 120.7(3)
C15 C16 H16 119.7
C17 C16 H16 119.7
C20 C9 C10 118.0(3)
C20 C9 B1 123.5(3)
C10 C9 B1 118.5(3)
C2 C3 H3 119.3
C2 C3 C4 121.4(3)
C4 C3 H3 119.3
C5 C4 C3 119.1(3)
C5 C4 H4 120.5
C3 C4 H4 120.5
N1 B1 C8 117.4(3)
N1 B1 C9 118.5(3)
C8 B1 C9 124.1(3)
loop_
_geom_bond_atom_site_label_1
_geom_bond_atom_site_label_2
_geom_bond_distance
N1 C12 1.400(4)
N1 C1 1.416(4)
N1 B1 1.442(4)
C18 H18 0.9500
C18 C19 1.412(4)
C18 C17 1.364(4)
C6 C7 1.432(4)
C6 C1 1.414(4)
C6 C5 1.419(4)
C19 C20 1.422(4)
C19 C14 1.426(4)
C13 H13 0.9500
C13 C14 1.407(4)
C13 C10 1.381(4)
C11 H11 0.9500
C11 C12 1.348(4)
C11 C10 1.446(4)
C7 H7 0.9500
C7 C8 1.353(4)
C8 H8 0.9500
C8 B1 1.522(5)
C12 H12 0.9500
C15 H15 0.9500
C15 C14 1.428(4)
C15 C16 1.364(5)
C2 H2 0.9500
C2 C1 1.403(4)
C2 C3 1.377(5)
C17 H17 0.9500
C17 C16 1.416(5)
C20 H20 0.9500
C20 C9 1.380(4)
C10 C9 1.437(4)
C5 H5 0.9500
C5 C4 1.375(5)
C16 H16 0.9500
C9 B1 1.551(4)
C3 H3 0.9500
C3 C4 1.391(6)
C4 H4 0.9500
loop_
_geom_torsion_atom_site_label_1
_geom_torsion_atom_site_label_2
_geom_torsion_atom_site_label_3
_geom_torsion_atom_site_label_4
_geom_torsion
C18 C19 C20 C9 -177.7(3)
C18 C19 C14 C13 178.6(3)
C18 C19 C14 C15 -0.3(4)
C18 C17 C16 C15 0.2(5)
C6 C7 C8 B1 0.3(5)
C6 C5 C4 C3 0.7(5)
C19 C18 C17 C16 0.8(5)
C19 C20 C9 C10 -0.2(4)
C19 C20 C9 B1 -178.9(3)
C13 C10 C9 C20 -0.9(4)
C13 C10 C9 B1 177.8(3)
C11 C10 C9 C20 179.2(3)
C11 C10 C9 B1 -2.1(4)
C7 C6 C1 N1 -1.0(4)
C7 C6 C1 C2 -179.4(3)
C7 C6 C5 C4 179.3(3)
C7 C8 B1 N1 -4.2(4)
C7 C8 B1 C9 175.4(3)
C12 N1 C1 C6 178.9(3)
C12 N1 C1 C2 -2.9(4)
C12 N1 B1 C8 -176.3(3)
C12 N1 B1 C9 4.1(4)
C12 C11 C10 C13 -176.2(3)
C12 C11 C10 C9 3.6(4)
C2 C3 C4 C5 -0.4(6)
C17 C18 C19 C20 177.4(3)
C17 C18 C19 C14 -0.7(4)
C20 C19 C14 C13 0.4(4)
C20 C19 C14 C15 -178.5(3)
C20 C9 B1 N1 177.0(3)
C20 C9 B1 C8 -2.6(4)
C1 N1 C12 C11 175.2(3)
C1 N1 B1 C8 5.7(4)
C1 N1 B1 C9 -173.9(2)
C1 C6 C7 C8 2.4(5)
C1 C6 C5 C4 -1.1(5)
C1 C2 C3 C4 0.4(5)
C14 C19 C20 C9 0.5(4)
C14 C13 C10 C11 -178.3(3)
C14 C13 C10 C9 1.8(4)
C14 C15 C16 C17 -1.3(5)
C10 C13 C14 C19 -1.5(4)
C10 C13 C14 C15 177.4(3)
C10 C11 C12 N1 -1.2(5)
C10 C9 B1 N1 -1.7(4)
C10 C9 B1 C8 178.8(3)
C5 C6 C7 C8 -178.0(3)
C5 C6 C1 N1 179.4(3)
C5 C6 C1 C2 1.0(4)
C16 C15 C14 C19 1.3(5)
C16 C15 C14 C13 -177.6(3)
C3 C2 C1 N1 -179.0(3)
C3 C2 C1 C6 -0.7(5)
B1 N1 C12 C11 -2.9(4)
B1 N1 C1 C6 -3.1(4)
B1 N1 C1 C2 175.2(3)
loop_
_refln_index_h
_refln_index_k
_refln_index_l
_refln_F_squared_meas
_refln_F_squared_sigma
0 0 -1 0.09 0.1
0 0 1 0.16 0.09
0 0 1 0.06 0.09
0 0 -1 0.01 0.07
0 0 -1 0.1 0.1
0 0 1 0.05 0.08
0 0 -2 1189.43 11.48
0 0 2 1224.16 11.8
0 0 2 1195.57 11.57
0 0 -2 1185.22 11.48
0 0 -2 1184.32 11.44
0 0 2 1209.73 11.66
0 0 -3 274.09 3.08
0 0 3 266.73 2.97
0 0 3 268.04 3.06
0 0 -3 270 3.08
0 0 -3 260.67 2.97
0 0 3 272.91 3.05
0 0 -4 300.63 3.49
0 0 4 298.15 3.42
0 0 4 296.55 3.48
0 0 -4 302.79 3.53
0 0 -4 293.2 3.4
0 0 4 310.74 3.53
0 0 5 104.85 1.68
0 0 5 100 1.75
0 0 -5 98.34 1.68
0 0 -5 101.47 1.68
0 0 -6 2188.03 31.14
0 0 6 2100.41 29.87
0 0 6 2241.98 32
0 0 -6 2065.27 29.46
0 0 -7 967.93 13.7
0 0 7 908.59 12.83
0 0 7 952.49 13.57
0 0 -7 958.69 13.59
0 0 -8 381.06 6.01
0 0 8 361.55 5.91
0 0 -8 375.83 5.98
0 0 -9 0.82 0.67
0 0 9 1 0.63
0 0 -9 0.82 0.67
0 0 -10 2.7 0.73
0 0 10 1.72 0.69
0 0 -11 16.29 1.12
0 0 11 17.36 1.29
0 0 -11 19.55 1.48
0 0 -12 68.92 3.23
0 0 12 70.94 3.56
0 0 -12 84.93 4.04
0 0 -13 273.18 11.93
0 0 13 283.14 12.46
0 0 -13 283.53 12.43
0 0 -14 6.52 1
0 0 14 3.93 0.89
0 0 -14 9.59 1.48
0 0 -15 15.9 1.36
0 0 15 20.37 1.83
0 0 -15 11.77 1.41
0 0 -16 2.79 1.44
0 0 16 3.7 1.47
0 0 -16 2.56 1.16
0 0 -17 8.54 1.71
0 0 17 7.38 1.7
0 0 -17 5.18 1.81
0 -1 0 0.24 0.21
0 1 0 0.28 0.38
0 1 0 0.26 0.17
0 1 0 1.37 0.4
0 -1 0 1.12 0.17
0 1 0 1.54 0.33
0 -1 1 28.59 0.55
0 1 -1 26.48 0.53
0 -1 -1 26.45 0.67
0 1 1 29.92 0.7
0 -1 1 28.6 0.79
0 1 -1 29.81 0.65
0 1 1 29.19 0.7
0 -1 -1 28.32 0.61
0 -1 1 28.57 0.85
0 1 -1 28.07 0.87
0 -1 -1 27.47 0.4
0 -1 -2 171.02 2.18
0 1 2 170.88 2.14
0 -1 2 176.64 2.01
0 -1 2 179.93 2.3
0 1 -2 172.93 2.13
0 1 2 181.28 2.2
0 -1 -2 177.32 2.13
0 1 -2 184.25 2.28
0 -1 -2 178.58 1.92
0 1 -2 176.16 2.23
0 -1 -3 4.21 0.47
0 1 3 3.09 0.37
0 1 -3 4.7 0.42
0 -1 3 4.63 0.38
0 -1 3 3.72 0.5
0 1 -3 5.17 0.47
0 1 3 11.56 1.33
0 -1 -3 4.98 0.54
0 1 -3 5.91 0.85
0 -1 -3 4.73 0.33
0 1 3 4.62 0.33
0 1 -3 4.45 0.4
0 -1 -4 58.74 1.36
0 1 4 57.98 1.17
0 1 -4 58.08 1.08
0 -1 4 58.36 1.05
0 -1 4 57.71 1.21
0 1 -4 56.23 1.18
0 1 4 57.7 1.15
0 -1 -4 55.21 1.12
0 1 -4 58.24 1.32
0 -1 -4 55.13 1.03
0 1 4 62.28 1.09
0 1 -4 62.04 1.31
0 -1 -5 12.2 0.97
0 1 5 12.14 0.63
0 1 -5 13.66 0.63
0 -1 5 10.92 0.52
0 -1 5 11.72 0.77
0 1 -5 10.59 0.68
0 1 5 10.48 0.66
0 -1 -5 12.27 0.63
0 1 -5 13.84 1.82
0 -1 -5 12.55 0.63
0 1 -5 12.44 0.69
0 1 5 13.22 0.64
0 -1 -6 45.78 1.39
0 1 6 44.54 1.25
0 1 -6 47.5 1.24
0 -1 6 44.11 1.1
0 -1 6 47.3 1.44
0 -1 -6 43.78 1.21
0 -1 -6 49.77 1.28
0 1 -6 43.19 1.25
0 1 6 46.23 1.18
0 -1 -7 87.66 2.02
0 1 -7 90.32 1.88
0 -1 7 88.85 1.88
0 -1 7 88.36 2.17
0 1 7 98.67 2.15
0 -1 -7 92.3 1.87
0 1 -7 88.03 1.98
0 -1 -8 13.31 0.85
0 1 -8 12.3 0.72
0 -1 8 19.17 1.17
0 1 8 13.9 0.9
0 -1 -8 12.79 0.84
0 1 -8 11.63 0.84
0 -1 -9 6.01 0.89
0 1 -9 5.18 0.66
0 -1 9 2.47 0.92
0 1 9 5.32 0.7
0 -1 -9 6.35 0.79
0 1 -9 6.58 0.82
0 -1 -10 28.72 1.45
0 1 -10 29.91 1.4
0 -1 10 32.35 1.62
0 1 10 34.12 1.81
0 -1 -10 29.83 1.57
0 1 -10 29.82 1.55
0 -1 -11 8.3 0.88
0 1 -11 7.54 0.84
0 -1 11 7.02 0.95
0 1 11 5.47 0.97
0 -1 -11 10.11 0.96
0 1 -11 7.1 0.97
0 -1 -12 2.24 1.11
0 1 -12 3.56 0.75
0 -1 12 3.42 0.95
0 1 12 2.67 0.72
0 -1 -12 1.1 0.97
0 1 -12 1.81 0.8
0 -1 -13 8.28 1.16
0 1 -13 6.51 1
0 -1 13 9.41 1.33
0 1 13 7.03 1.15
0 -1 -13 8.93 1.19
0 1 -13 9.35 1.51
0 -1 -14 41.01 8.03
0 1 -14 3.65 0.73
0 -1 14 1.47 0.71
0 1 14 3.18 1.13
0 -1 -14 1.73 0.87
0 -1 -15 0.3 0.58
0 1 -15 0.59 0.48
0 -1 15 3.35 1.4
0 1 15 2.55 1.29
0 -1 -15 1.99 1.34
0 1 -15 0.47 0.79
0 -1 -16 3.87 1.49
0 1 -16 0.93 0.6
0 -1 16 2.64 1.31
0 1 16 1.72 0.99
0 -1 -16 2.72 1.17
0 1 -16 1.91 0.96
0 -1 -17 5.01 1.63
0 1 -17 4.06 1.37
0 -1 17 1.14 1.08
0 1 17 4.33 1.83
0 -1 -17 2.33 1.05
0 1 -17 1.24 0.8
0 -2 0 936.45 9.47
0 2 0 948.63 9.47
0 2 0 951.25 9.57
0 2 0 959.05 9.59
0 -2 0 956.11 9.4
0 2 0 954.39 9.35
0 -2 1 195.87 2.69
0 2 -1 198.04 2.65
0 -2 -1 195.16 2.53
0 2 1 198.35 2.52
0 -2 1 192.22 2.6
0 2 -1 200.16 2.67
0 2 1 196.29 2.48
0 -2 -1 201.28 2.47
0 -2 1 201.98 2.72
0 2 -1 193.6 2.89
0 -2 -1 204.08 2.41
0 2 1 199.79 2.14
0 2 -2 751.47 7.65
0 -2 -2 763.56 7.98
0 2 -2 757.07 7.63
0 -2 2 758.88 8.13
0 2 -2 769.56 8.42
0 2 2 778.09 7.95
0 -2 -2 764.77 7.78
0 2 -2 775.05 8.17
0 -2 -2 770.26 7.41
0 2 2 755.61 7.27
0 2 -3 54.89 2.09
0 -2 -3 53.8 1.33
0 2 3 54.52 1.24
0 2 -3 51.33 1.03
0 -2 3 57.68 1.96
0 2 -3 54.07 1.2
0 2 3 57.99 1.29
0 -2 -3 57.27 1.18
0 2 -3 55.64 2.16
0 -2 -3 57.57 0.86
0 -2 -4 112.85 2.34
0 2 4 113.2 2.28
0 2 -4 119.45 2.15
0 -2 4 114.5 2.03
0 -2 4 109.68 2.36
0 2 -4 114.43 2.23
0 2 4 112.18 2.21
0 -2 -4 115.76 2.19
0 -2 -4 112.08 1.88
0 2 4 115.72 1.89
0 2 -4 119.16 2.37
0 -2 -5 104.89 2.3
0 2 -5 104.52 2
0 -2 5 105.59 1.97
0 -2 5 103.33 2.37
0 2 -5 104.68 2.15
0 -2 -5 101.34 2.08
0 -2 -5 107.49 1.93
0 2 -5 110.77 2.36
0 2 5 103.01 1.84
0 -2 -6 28 1.14
0 2 -6 26.18 0.88
0 -2 6 27.79 0.9
0 -2 6 30.72 2.96
0 2 6 27.24 1.04
0 -2 -6 27.32 0.85
0 2 -6 29.7 1.15
0 2 6 25.27 0.72
0 -2 -7 53.56 1.76
0 2 -7 47.92 1.3
0 -2 7 48.79 1.28
0 -2 7 49.77 1.54
0 2 7 45.79 1.51
0 -2 -7 51.31 1.28
0 2 -7 50.81 1.56
0 2 7 46.82 1.18
0 -2 -8 125.75 2.86
0 2 -8 128.23 2.54
0 -2 8 103.32 2.1
0 -2 8 118.4 2.85
0 2 8 122.72 2.72
0 -2 -8 119.96 2.37
0 2 -8 123.38 2.81
0 -2 -9 68.41 2.72
0 2 -9 76.04 2.6
0 -2 9 64 2.6
0 2 9 77.91 2.89
0 -2 -9 73.99 2.62
0 2 -9 67.99 2.62
0 -2 -10 7.96 1.06
0 2 -10 8.95 0.75
0 -2 10 6.16 1.07
0 2 10 9.92 1.14
0 -2 -10 7.8 0.88
0 2 -10 8.58 1.05
0 -2 -11 208.55 8.28
0 2 -11 221.24 8.48
0 -2 11 204.45 8.08
0 2 11 203.46 8.03
0 -2 -11 198.05 7.65
0 2 -11 203.57 8.03
0 -2 -12 57.38 3.19
0 2 -12 54.65 2.75
0 -2 12 53.17 3.2
0 2 12 50.01 2.8
0 -2 -12 53.01 2.8
0 2 -12 48.7 2.75
0 -2 -13 11.01 1.17
0 2 -13 10.54 1.06
0 -2 13 10.7 1.74
0 2 13 12.37 1.46
0 -2 -13 11.14 1.19
0 2 -13 10.97 1.29
0 -2 -14 1.44 0.66
0 2 -14 5.69 1.09
0 -2 14 4.16 0.92
0 2 14 4.08 1
0 -2 -14 1.94 0.77
0 2 -14 4.57 1.37
0 -2 -15 6.66 1.16
0 2 -15 5.35 1.54
0 -2 15 6.42 1.41
0 2 15 4.85 1.49
0 -2 -15 4.41 1.32
0 2 -15 5.56 1.7
0 -2 -16 2.02 0.93
0 2 -16 1.33 0.63
0 -2 16 3.52 1.22
0 2 16 4.16 1.55
0 2 -16 3.74 1.69
0 -3 0 0.68 0.22
0 3 0 0.33 0.28
0 3 0 0.46 0.3
0 3 0 1.4 0.55
0 -3 0 0.63 0.31
0 3 0 0.46 0.24
0 -3 1 6.35 0.75
0 -3 -1 8.84 0.88
0 3 -1 8.86 0.52
0 3 1 6.71 0.5
0 3 -1 8.31 0.96
0 3 1 8.8 0.68
0 3 -1 8.56 0.64
0 -3 -1 8.31 0.58
0 -3 -1 10.77 1.11
0 3 -1 8.63 0.88
0 3 1 8.92 0.43
0 -3 2 1090.64 16.02
0 3 -2 1086.91 15.99
0 -3 -2 1075.7 15.77
0 3 2 1055.7 15.42
0 -3 2 1074.4 15.88
0 3 -2 1081.96 15.94
0 3 2 1113.66 16.17
0 -3 -2 1055.86 15.29
0 -3 -2 1115.01 15.78
0 3 -2 1147.66 16.72
0 3 2 1067.79 15.07
0 3 -2 1114.8 16.15
0 3 -3 99.91 2.1
0 -3 -3 92.68 2.13
0 3 -3 85.04 1.71
0 -3 3 84.02 2.13
0 3 -3 83.13 1.88
0 3 3 83.48 1.78
0 -3 -3 87.77 1.81
0 3 -3 86.06 1.82
0 -3 -3 90.03 1.42
0 3 3 88.87 1.35
0 3 -3 84.35 1.82
0 3 -4 715.14 10.26
0 -3 -4 748.86 10.92
0 3 -4 722.33 10.19
0 -3 -4 721.11 10.31
0 -3 -4 734.98 9.97
0 3 4 737.41 9.98
0 3 -4 671.08 9.84
0 3 -5 77.26 3
0 -3 -5 75.05 2.05
0 3 -5 83.76 1.72
0 -3 5 74.24 3.21
0 3 5 68.72 1.73
0 -3 -5 80.71 1.4
0 3 -5 83.43 1.96
0 3 5 80.93 1.36
0 3 -6 1.12 0.26
0 -3 -6 1.74 0.43
0 3 -6 1.6 0.35
0 -3 6 2.69 0.46
0 3 6 3.27 0.77
0 -3 -6 2.48 0.27
0 3 -6 0.71 0.47
0 3 6 2.28 0.27
0 -3 -7 13.19 1.01
0 3 -7 15.5 0.84
0 -3 7 11.2 0.72
0 -3 7 17.94 1.74
0 3 7 11.03 0.85
0 -3 -7 15.56 0.69
0 3 -7 13.1 0.94
0 -3 -8 181.58 5.83
0 3 -8 222.99 6.49
0 -3 8 229.38 7.16
0 3 8 231.07 6.93
0 -3 -8 197.53 5.79
0 -3 -8 221.13 6.36
0 3 -8 225.06 6.87
0 -3 -9 486.2 11.83
0 3 -9 463.69 10.87
0 -3 9 473.22 12.15
0 3 9 468.13 11.31
0 -3 -9 421.6 9.83
0 -3 -9 458.98 10.66
0 3 -9 459.25 11.19
0 -3 -10 402.84 15.26
0 3 -10 419.87 15.62
0 -3 10 410.4 15.55
0 3 10 387.37 14.64
0 -3 -10 375.41 13.9
0 3 -10 391.74 14.91
0 -3 -11 396.55 17.15
0 3 -11 359.45 15.29
0 -3 11 391.04 17.34
0 3 11 377.62 16.29
0 -3 -11 336.25 14.28
0 3 -11 371.18 16.06
0 -3 -12 38.24 2.6
0 3 -12 36.16 2.07
0 -3 12 33.13 4.08
0 3 12 34.77 2.24
0 -3 -12 29.49 1.83
0 3 -12 32.97 2.2
0 -3 -13 4.64 1.42
0 3 -13 2.51 0.74
0 -3 13 2.75 0.98
0 3 13 0.94 0.63
0 -3 -13 2.69 0.63
0 3 -13 4.6 1.18
0 -3 -14 2.73 1.13
0 3 -14 4.05 1.09
0 -3 14 4.08 1.48
0 3 14 1.39 0.97
0 -3 -14 1.48 0.6
0 3 -14 0.11 0.79
0 -3 -15 6.67 1.53
0 -3 15 1.55 0.9
0 3 15 3.15 1.3
0 3 -15 10.18 1.8
0 -3 -16 5.63 1.85
0 -3 16 2.84 0.99
0 3 16 4.24 1.55
0 3 -16 1.1 1.08
0 -4 0 18.93 2.07
0 4 0 14.29 1.99
0 4 0 18.57 0.84
0 4 0 16.98 0.7
0 4 0 16.99 0.69
0 -4 1 23.2 2.31
0 -4 -1 20.21 1.81
0 4 -1 16.8 0.75
0 4 1 17.08 2.09
0 4 1 23.72 1.09
0 4 -1 22.99 1.01
0 4 -1 15.11 1.81
0 4 1 18.63 0.6
0 4 -1 18.6 0.75
0 4 1 21.54 0.65
0 -4 2 31.05 2.93
0 -4 -2 25.69 2.87
0 4 -2 26.17 0.92
0 4 2 27.82 1.07
0 4 -2 27.21 1.09
0 4 -2 21.79 2.13
0 4 2 25.42 0.6
0 4 -2 29.19 0.94
0 4 -3 2.11 0.43
0 -4 -3 3.05 0.47
0 4 -3 1.51 0.34
0 -4 3 1.43 0.62
0 4 3 1.53 0.53
0 4 3 1.59 0.13
0 4 -3 1.44 0.39
0 4 -4 7.17 0.77
0 -4 -4 11.24 0.96
0 4 -4 9.09 0.73
0 -4 4 15.59 1.51
0 4 4 9.78 0.84
0 4 -4 10.67 0.78
0 4 -5 39.31 4.5
0 -4 -5 24.85 1.45
0 4 -5 23.72 0.99
0 -4 5 27.04 3.13
0 4 5 26.15 1.22
0 4 -5 24.81 1.15
0 4 -6 24.52 2.71
0 -4 -6 35.22 1.9
0 -4 6 33.13 3.85
0 4 6 34.01 1.5
0 -4 -6 32.36 0.99
0 -4 -6 32.46 0.99
0 4 -6 34.15 1.56
0 -4 -7 18 1.36
0 4 -7 15.33 0.81
0 -4 7 19.87 2.36
0 4 7 27.25 1.64
0 -4 -7 15.55 0.87
0 -4 -7 16.52 0.57
0 4 -7 17.31 1.19
0 -4 -8 96.19 4.27
0 4 -8 98.52 3.93
0 -4 8 94.98 7.04
0 4 8 84.86 3.67
0 -4 -8 73.85 2.83
0 -4 -8 87.69 3.36
0 4 -8 95.89 4.13
0 -4 -9 123.59 5.49
0 4 -9 128.3 5.24
0 -4 9 121.49 9.51
0 4 9 123.2 5.25
0 -4 -9 120.48 4.8
0 4 -9 125.58 5.47
0 -4 -10 5.35 1.4
0 4 -10 5.54 1.2
0 -4 10 5 1.2
0 4 10 3.12 0.68
0 -4 -10 3.24 0.47
0 4 -10 4.19 1.13
0 -4 -11 30.94 2.4
0 4 -11 30.41 1.92
0 -4 11 28.4 3.49
0 4 11 29.55 2.11
0 4 -11 33.86 2.44
0 -4 -12 13.39 1.63
0 4 -12 13.75 1.42
0 -4 12 13.48 2.25
0 4 12 9.38 1.29
0 4 -12 16.11 2.01
0 -4 -13 1.54 0.8
0 -4 13 1.38 0.63
0 4 13 1.08 0.74
0 4 -13 1.26 0.88
0 -4 -14 3.75 1.33
0 -4 14 2.82 1.16
0 4 14 3.85 1.34
0 4 -14 1.89 0.99
0 -4 -15 32.35 5.17
0 -4 15 28.41 6.52
0 4 15 38.81 6.13
0 4 -15 51.64 8.19
0 -5 0 1.5 0.45
0 5 0 1.64 0.6
0 5 0 0.31 0.2
0 5 0 0.52 0.37
0 -5 1 13.64 1.64
0 -5 -1 17.14 1.68
0 5 1 16.67 1.02
0 5 -1 13.85 0.9
0 5 -1 11.15 0.76
0 5 1 11.25 0.59
0 5 1 14.87 0.7
0 5 -1 11.63 0.72
0 -5 2 302 8.24
0 -5 -2 285.59 7.49
0 5 2 318.24 7.75
0 5 -2 333.3 8.19
0 5 2 294.02 6.72
0 5 2 274.29 6.26
0 5 -2 300.26 7.2
0 -5 -3 42.62 4.98
0 5 -3 38.32 1.52
0 5 3 34.4 1.43
0 5 -3 35.41 1.47
0 5 -3 38.38 1.51
0 -5 -4 29.13 3.14
0 5 -4 24.95 1.14
0 5 4 22.92 1.17
0 5 -4 23.64 1.17
0 -5 -5 11.74 1.59
0 5 -5 8.03 0.73
0 -5 5 6.52 1.26
0 5 -5 6.75 0.7
0 -5 -6 6.78 1.11
0 5 -6 10.05 0.78
0 -5 6 8.71 1.75
0 5 6 5.46 0.68
0 5 -6 10.67 1.06
0 -5 -7 3.55 1.1
0 5 -7 1.94 0.43
0 -5 7 2.34 0.63
0 5 7 2.21 0.49
0 5 -7 3.19 0.95
0 -5 -8 50.29 3.05
0 5 -8 59.86 2.94
0 -5 8 51.88 6.75
0 5 8 58.35 3.17
0 5 -8 54.96 3.01
0 -5 -9 43.46 3
0 5 -9 45.15 2.64
0 -5 9 40.63 4.35
0 5 9 47.66 2.99
0 5 -9 46.09 3.03
0 -5 -10 19.61 2.39
0 -5 10 15.95 2.68
0 5 10 16.74 1.66
0 5 -10 13.81 1.49
0 -5 -11 23.99 3.03
0 -5 11 20.61 4.12
0 5 11 21.81 2.42
0 5 -11 23.7 2.73
0 -5 -12 9.08 1.44
0 -5 12 6.94 1.73
0 5 12 8.57 1.26
0 5 -12 12.15 1.77
0 -5 -13 7.59 2.21
0 -5 13 7.11 1.99
0 5 13 7.38 2.02
0 5 -13 8.75 2.61
0 -6 0 19.41 2.52
0 6 0 21.81 1.41
0 6 0 20.28 1.12
0 -6 1 13.11 1.61
0 -6 -1 11.21 1.81
0 6 1 12.83 1.11
0 6 -1 9.34 1
0 6 1 8.47 0.55
0 6 -1 8.97 0.86
0 -6 2 413.57 18.46
0 -6 -2 406.87 19.08
0 6 2 452.68 20.09
0 6 -2 396.1 16.91
0 6 -2 383.68 16.26
0 -6 -3 47.75 5.13
0 6 -3 54.18 2.79
0 6 3 50.5 2.58
0 6 -3 60.39 3.1
0 6 -3 44.34 2.26
0 -6 -4 96.76 7.41
0 6 -4 99.52 4.75
0 6 4 89.63 4.4
0 6 -4 91.28 4.52
0 6 -4 93.42 4.49
0 -6 -5 7.13 1.14
0 6 -5 8.04 0.83
0 6 -5 7.64 0.99
0 6 -5 6.76 0.86
0 -6 -6 3.1 1.21
0 6 -6 2.33 0.63
0 6 6 0.93 0.61
0 6 -6 1.93 0.78
0 -6 -7 1.23 1
0 -6 7 0.4 0.51
0 6 7 3.2 0.86
0 6 -7 0.69 0.58
0 -6 -8 30.97 4.45
0 -6 8 21.21 3.36
0 6 -8 24.78 1.55
0 -6 9 13.04 2.39
0 6 9 7.19 1.25
0 6 -9 9.95 1.55
0 -6 -10 8.44 1.19
0 -6 10 8.74 1.86
0 6 10 5.79 1.66
0 6 -10 4.41 1.39
0 -6 -11 25.1 3.59
0 -6 11 14.3 3.94
0 6 11 28.96 3.68
0 6 -11 32.04 4.11
0 -7 0 0.27 0.38
0 7 0 2.46 1.1
0 -7 1 -0.03 0.46
0 -7 -1 2.66 1.14
0 7 1 3.22 1.15
0 7 -1 1.46 0.61
0 -7 -2 22.45 3.58
0 7 2 26.12 1.6
0 7 -2 26.25 1.7
0 -7 -3 0.63 0.76
0 7 -3 2.22 0.85
0 7 3 1.9 0.9
0 7 -3 4.92 1.52
0 -7 -4 4.82 1.95
0 7 4 11.62 1.8
0 7 -4 7.07 1.26
0 7 -4 5.29 1.34
0 -7 -5 8.32 1.9
0 7 5 13.1 1.65
0 7 -5 10.2 1.44
0 7 -5 9 1.15
0 -7 -6 8.19 1.72
0 7 6 8.9 1.19
0 7 -6 9.59 1.5
0 7 -6 8.79 1.24
0 -7 -7 1.63 1.04
0 7 7 3.88 1.36
0 7 -7 1.59 0.87
0 7 -7 2.1 0.87
0 -7 -8 2.45 1.11
0 7 -8 0.65 0.6
0 7 -8 1.01 0.6
0 -7 -9 1.91 0.44
0 -7 9 0.49 0.47
0 7 -9 2.21 0.85
0 -8 0 47.7 10.91
0 -8 -1 7.1 1.51
0 -8 -3 1.71 0.76
0 -8 -4 4.49 1.08
1 0 -17 4.26 1.51
-1 0 17 1.69 1.03
1 0 -17 1.76 1.35
1 0 -16 2.9 1.14
-1 0 16 3.94 1.28
1 0 -16 2.76 1.17
1 0 -15 1.28 0.9
-1 0 15 0.7 0.7
1 0 -15 46.93 19.88
1 0 -14 9.92 1.16
-1 0 14 6.97 1.21
1 0 -14 8.47 1.15
1 0 -13 64.58 3.45
-1 0 13 63.12 3.48
1 0 -13 57.53 3.15
1 0 -12 28.91 1.93
-1 0 12 32.92 2.03
1 0 -12 30.18 1.91
1 0 -11 1.67 0.42
-1 0 11 0.09 0.56
1 0 -11 2.55 0.81
1 0 -10 18.58 1.11
-1 0 10 23.95 1.58
1 0 -10 19.46 1.2
1 0 -9 3.44 0.57
-1 0 9 4.2 0.82
1 0 -8 6.94 0.77
-1 0 8 5.72 0.67
1 0 -8 6.61 0.63
-1 0 7 76.81 1.96
1 0 -7 85.81 1.96
1 0 -6 118.71 2.58
-1 0 6 130.74 2.64
-1 0 6 112.84 2.45
1 0 -6 108.11 2.25
1 0 -6 114.02 2.33
1 0 -5 7.84 0.6
-1 0 5 10.52 0.79
-1 0 5 9.5 0.63
1 0 -5 7.55 0.89
1 0 -4 40.28 1.08
-1 0 4 47.88 1.25
-1 0 4 39.31 1.05
1 0 -4 48.52 1.23
-1 0 4 42.71 1.97
1 0 -4 41.78 1.89
1 0 -3 98.7 1.61
-1 0 3 109.41 1.7
-1 0 3 104.71 2.71
1 0 -3 102.99 1.6
-1 0 3 100.42 2.25
1 0 -3 103.92 2.42
1 0 -2 0.81 0.49
-1 0 2 0.95 0.35
-1 0 2 0.67 0.34
1 0 -2 0.24 0.37
-1 0 2 0.8 0.48
1 0 -2 -0.07 0.27
1 0 -1 9.34 0.44
-1 0 1 9 0.43
1 0 -1 5.66 0.7
-1 0 1 7.93 0.45
1 0 -1 8.25 0.41
1 0 0 4.42 0.31
1 0 1 62.62 1.18
1 0 1 65.82 1.22
-1 0 -1 65.16 1.31
1 0 1 66.94 1.05
-1 0 -2 82.91 1.2
1 0 2 82.6 1.17
1 0 2 84.07 1.56
-1 0 -2 89.31 1.36
-1 0 -2 85.64 1.38
1 0 2 87.18 1.37
-1 0 -3 7.06 0.49
1 0 3 6.58 0.48
1 0 3 7.51 0.63
-1 0 -3 6.69 0.5
-1 0 -3 6.31 0.48
1 0 3 6.32 0.47
-1 0 -4 1.53 0.59
1 0 4 1.28 0.41
1 0 4 1.78 0.62
-1 0 -4 0.33 0.32
-1 0 -4 2.48 0.67
1 0 4 1.7 0.68
-1 0 -5 15.35 1.03
1 0 5 10.49 0.64
1 0 5 11.86 0.92
-1 0 -5 9.44 0.53
-1 0 -5 12.03 0.76
1 0 5 9.81 0.58
-1 0 -6 106.86 2.18
1 0 6 121.12 2.28
-1 0 -6 105.85 2.24
1 0 6 132.35 2.55
1 0 7 116.83 2.32
-1 0 -8 5.95 0.59
1 0 8 5.78 0.79
-1 0 -8 7.12 0.68
-1 0 -9 0.8 0.46
1 0 9 1.04 0.63
-1 0 -9 1.66 0.76
-1 0 -10 2.23 0.63
1 0 10 3.24 1.25
-1 0 -10 2.57 0.78
-1 0 -11 6.43 1.18
1 0 11 3.49 0.98
1 0 12 24.79 1.82
-1 0 -12 26.61 2.06
-1 0 -13 23.87 1.68
1 0 13 25.49 1.96
-1 0 -13 23 1.86
-1 0 -14 4.11 0.99
1 0 14 0.27 0.73
-1 0 -14 1.41 0.85
-1 0 -15 0.93 0.54
1 0 15 0.76 0.77
-1 0 -15 1.25 0.76
-1 0 -16 1.37 0.7
1 0 16 3.33 1.6
-1 0 -16 0.26 0.74
-1 0 -17 2.94 1.11
1 0 17 3.63 1.53
-1 0 -17 0.54 0.9
1 -1 -17 8.55 2.94
1 1 -17 1.24 0.8
-1 -1 17 0.84 0.68
-1 1 17 2.01 1.25
1 -1 -17 1.75 0.88
1 1 -17 0.8 0.79
1 -1 -16 3.45 1.48
1 1 -16 1.21 0.66
-1 -1 16 1.9 1.14
-1 1 16 2.86 1.39
1 -1 -16 0.81 0.58
1 1 -16 1.36 1.15
1 -1 -15 31.53 1.96
1 1 -15 29.26 1.78
-1 -1 15 23.78 2.15
-1 1 15 35.78 2.47
1 -1 -15 29.39 1.92
1 1 -15 20.98 1.79
1 -1 -14 51.9 3.28
1 1 -14 51.56 3.18
-1 -1 14 56.78 3.77
-1 1 14 54.51 3.58
1 -1 -14 52.17 3.29
1 1 -14 53.03 3.47
1 -1 -13 9.93 1.26
1 1 -13 9.95 1.06
-1 -1 13 8.45 1.19
-1 1 13 12.03 1.67
1 -1 -13 10.07 1.55
1 1 -13 8.98 1.33
1 -1 -12 2.93 0.99
1 1 -12 1.42 0.63
-1 -1 12 2.33 0.76
-1 1 12 2.02 0.94
1 -1 -12 2.17 0.97
1 1 -12 4.61 1.12
1 -1 -11 15.49 1.43
1 1 -11 11.27 1.06
-1 -1 11 12.23 1.07
-1 1 11 18.68 1.34
1 -1 -11 14.43 1.03
1 1 -11 11.82 0.99
1 -1 -10 3.59 0.91
1 1 -10 3.53 0.64
-1 -1 10 3.92 0.9
-1 1 10 5.47 0.88
1 -1 -10 3.41 0.61
1 1 -10 2.94 0.71
1 -1 -9 56.34 2.18
1 1 -9 54.54 1.94
-1 -1 9 46.22 1.89
-1 1 9 52.27 2.06
1 -1 -9 50.61 1.8
1 1 -9 53.46 2.07
1 -1 -8 99 2.52
1 1 -8 99.82 2.36
-1 1 8 104.94 2.66
1 -1 -8 98.1 2.14
1 1 -8 104.14 2.5
1 -1 -7 429.32 6.67
1 1 -7 427.73 6.56
-1 -1 7 425.29 6.61
-1 1 7 435.02 6.79
1 -1 -7 415.71 6.34
1 -1 -7 426.65 6.36
1 1 -7 458.44 7.12
1 -1 -6 6.62 0.7
1 1 -6 6.14 0.61
-1 -1 6 4.42 0.43
-1 -1 6 6.17 0.63
-1 1 6 4.73 0.66
-1 -1 6 6.58 0.61
1 -1 -6 5.66 0.73
1 -1 -6 6.12 0.49
1 -1 -5 26.02 0.97
1 1 -5 27.9 1.04
-1 -1 5 26.16 0.91
-1 -1 5 26.45 0.98
1 1 -5 26.8 0.89
1 -1 -5 24.69 0.91
-1 -1 5 29.57 3.4
1 -1 -5 24.49 0.75
1 1 -5 30.94 3.15
1 -1 -5 24.77 0.79
1 -1 -4 53.21 1.21
-1 1 4 53.87 1.15
-1 -1 4 52.99 1.15
-1 -1 4 53.82 1.17
-1 1 4 50.17 1.27
1 -1 -4 53.64 1.17
-1 -1 4 54.13 1.3
1 -1 -4 56.59 1.22
1 1 -3 114.29 1.76
-1 -1 3 113.71 1.68
1 1 -3 112.86 1.61
-1 1 3 112.65 1.85
1 -1 -3 113.34 1.74
-1 1 3 114.97 1.91
-1 -1 3 109.47 1.89
1 1 -3 124.7 2.86
1 -1 -3 107.12 1.52
1 -1 -1 -0.55 0.16
-1 -1 0 1265.69 12.48
1 1 0 1292.19 12.64
1 -1 0 1336.56 12.76
1 -1 0 1211.17 11.83
-1 -1 0 1287.08 12.49
1 1 0 1291.59 12.53
1 -1 0 1288.46 12.36
-1 -1 -1 865.49 8.83
1 1 1 855.44 8.85
1 -1 1 858.35 8.65
-1 1 -1 890.93 8.98
1 1 1 888.13 8.49
-1 -1 -1 841.24 11.54
-1 -1 -1 888.34 8.77
-1 1 -1 877.14 8.66
1 -1 1 873.98 8.61
-1 -1 -2 53.07 1.19
1 1 2 52.95 1.12
-1 1 -2 53.03 0.6
1 -1 2 50.62 0.59
1 -1 2 46.56 1.09
-1 1 -2 50.46 1.09
1 1 2 52.66 0.89
-1 -1 -2 52.75 0.84
-1 -1 -2 47.88 1.02
1 1 2 48.94 0.93
-1 1 -2 52.3 1.14
1 -1 2 48.36 1
-1 -1 -4 61.53 1.35
1 1 4 64.49 1.24
-1 1 -4 64.5 0.99
1 -1 4 64.07 0.96
1 -1 4 65.92 1.54
1 1 4 61.29 1.2
-1 -1 -4 64.19 1.18
-1 -1 -4 66.05 1.39
1 1 4 60.66 1.13
1 -1 4 62.8 1.28
1 1 5 236.87 3.96
-1 1 -5 222.92 3.55
1 -1 5 233.67 3.66
1 -1 5 220.06 3.9
-1 1 -5 214.1 3.65
1 1 5 220.36 3.69
-1 -1 -5 225.59 3.71
-1 -1 -5 220.68 3.68
1 1 5 217.3 3.56
-1 -1 -6 544.54 8.45
-1 1 -6 579.01 8.64
1 -1 6 544.28 8.09
1 -1 6 535.27 8.34
1 1 6 547.11 8.43
-1 -1 -6 543.55 8.29
-1 -1 -6 536.91 8.21
1 1 6 550.03 8.34
-1 -1 -7 37.87 1.34
-1 1 -7 38.83 1.14
1 -1 7 34.78 0.99
1 -1 7 32.38 1.3
1 1 7 32.46 1.25
-1 -1 -7 33.71 1.15
-1 -1 -8 14.92 0.94
-1 1 -8 17.96 0.96
1 -1 8 14.5 0.68
1 -1 8 18.71 1.22
1 1 8 17.24 1.15
-1 -1 -8 17.78 1.05
-1 1 -8 14.25 0.96
-1 -1 -9 12.13 0.98
-1 1 -9 9.94 0.7
1 -1 9 10.56 1.14
1 1 9 14.94 1.39
-1 -1 -9 9.22 0.99
-1 1 -9 10.88 0.93
-1 -1 -10 45.04 2.01
-1 1 -10 38.27 1.57
1 -1 10 39.18 1.96
1 1 10 39.78 1.93
-1 -1 -10 44.45 1.95
-1 1 -10 44.06 2.17
-1 -1 -11 49.58 2.43
-1 1 -11 57.38 2.6
1 -1 11 48.84 2.55
1 1 11 57.67 2.87
-1 -1 -11 51.54 2.57
-1 1 -11 52.19 2.66
-1 -1 -12 48.9 2.63
-1 1 -12 42.04 2.1
1 -1 12 41.27 2.48
1 1 12 43.04 2.48
-1 -1 -12 47.48 2.55
-1 1 -12 42.37 2.46
-1 -1 -13 15.91 1.5
-1 1 -13 11.7 1.03
1 -1 13 11.41 1.5
1 1 13 11.23 1.27
-1 -1 -13 12.01 1.32
-1 1 -13 13.5 1.59
-1 -1 -14 22.12 2.25
-1 1 -14 37.7 3.54
1 -1 14 21.27 2.27
1 1 14 24.15 2.57
-1 -1 -14 25.68 2.48
-1 1 -14 20.28 2.14
-1 -1 -15 1.65 0.77
-1 1 -15 2.57 1.1
1 -1 15 2.89 1.04
1 1 15 3.75 1.5
-1 -1 -15 3.75 1.52
-1 1 -15 1.46 0.81
-1 -1 -16 30.69 1.85
-1 1 -16 32.78 1.63
1 -1 16 24.23 2.49
1 1 16 31.44 1.83
-1 -1 -16 30.03 1.98
-1 1 -16 28.89 1.8
-1 -1 -17 10.21 1.52
-1 1 -17 7.85 1.32
1 -1 17 13.55 2.28
1 1 17 8.4 1.57
-1 -1 -17 19.62 2.45
-1 1 -17 10.37 1.57
1 -2 -17 21.33 2.58
1 2 -17 15.35 1.94
-1 -2 17 18.27 2.36
-1 2 17 16.44 2.1
1 -2 -17 15.55 1.83
1 -2 -16 5.95 1.8
1 2 -16 5.17 1.49
-1 -2 16 3.34 1.62
-1 2 16 5.62 1.81
1 -2 -16 6.35 1.73
1 2 -16 4.03 1.56
1 -2 -15 7.88 2.23
1 2 -15 3.58 1.1
-1 -2 15 2.77 1.37
-1 2 15 4.11 1.62
1 -2 -15 2.57 0.94
1 2 -15 1.28 0.91
1 -2 -14 8.19 2.74
1 2 -14 2.68 0.69
-1 -2 14 3.07 0.98
-1 2 14 3.02 1.16
1 -2 -14 4.66 1.05
1 2 -14 1.29 0.78
1 -2 -13 17.19 2.08
1 2 -13 21.5 1.66
-1 -2 13 15.13 1.73
-1 2 13 17.36 1.54
1 -2 -13 14.09 1.18
1 2 -13 16.29 1.79
1 -2 -12 81.62 4.26
1 2 -12 79.9 3.86
-1 -2 12 80.47 4.28
-1 2 12 88.25 4.44
1 -2 -12 77.54 3.8
1 2 -12 74.12 3.87
1 -2 -11 228.3 8.92
1 2 -11 256.38 9.84
-1 -2 11 223.6 8.76
-1 2 11 246.66 9.68
1 -2 -11 219.82 8.43
1 2 -11 251.04 9.82
1 2 -10 97.08 3.04
-1 -2 10 89.57 3.1
-1 2 10 89.53 3.15
1 -2 -10 91.04 2.83
1 2 -10 86.27 2.93
1 -2 -9 169.13 4.57
1 2 -9 138.2 3.61
-1 -2 9 160.14 4.28
-1 2 9 191.16 7.97
1 -2 -9 157.34 3.81
1 2 -9 172.89 4.57
1 -2 -8 20.09 1.19
1 2 -8 17.66 0.89
-1 -2 8 18.53 1.16
-1 2 8 23.12 2.75
1 -2 -8 15.19 1.65
1 2 -8 20.06 1.15
1 -2 -7 3.26 0.58
1 2 -7 2.65 0.48
-1 -2 7 5.03 0.75
-1 2 7 3.96 0.61
1 -2 -7 5.11 0.44
1 -2 -7 4.1 0.38
1 2 -7 4.91 0.66
1 -2 -6 5.91 0.89
1 2 -6 4.66 0.62
-1 -2 6 4.39 0.48
-1 -2 6 3.43 0.54
-1 2 6 4.34 0.56
-1 -2 6 3.26 0.54
1 -2 -6 2.93 0.35
1 -2 -6 4.05 0.39
1 -2 -5 15.86 0.82
1 2 -5 18.71 0.83
-1 -2 5 17.08 0.82
-1 -2 5 16.84 0.93
1 2 -5 14.26 0.74
1 -2 -5 16.95 0.88
-1 -2 5 17.41 2.33
1 -2 -5 15.51 0.55
1 -2 -4 27.67 1.13
1 2 -4 25.63 0.97
-1 -2 4 23.57 0.87
-1 -2 4 27.64 1.04
1 2 -4 26.56 0.9
1 -2 -4 28.03 1.07
-1 -2 4 32.34 3.03
1 2 -4 26.32 3.12
1 -2 -4 25.57 0.98
1 -2 -4 29.39 0.63
1 2 -3 541.05 5.84
1 -2 -3 541.14 6.05
-1 2 3 521.82 5.73
-1 -2 3 560.29 6.21
1 2 -3 522.12 5.55
1 -2 -3 527.43 5.81
-1 -2 3 527.58 6.05
1 -2 -3 538.73 5.12
1 2 -2 266.33 3.49
1 -2 -2 269.79 3.27
-1 2 2 266.71 3.21
1 2 -2 262.41 3.22
-1 -2 2 271.33 3.42
1 2 -2 271.11 3.05
-1 2 2 270.82 3.35
1 -2 -2 269.01 3.3
-1 -2 2 270.83 3.41
1 2 -2 263.41 3.27
-1 -2 1 107.85 2.11
1 2 -1 104.33 1.7
1 -2 -1 107.47 1.62
-1 2 1 109.69 1.6
-1 -2 1 111.01 1.56
1 2 -1 114.87 1.55
-1 2 1 111.17 2
1 -2 -1 113.08 1.87
1 2 -1 110.81 1.71
-1 2 1 121.65 1.38
1 -2 -1 109.62 1.24
-1 -2 0 9.98 0.86
1 2 0 8.43 0.87
1 -2 0 8.01 0.51
-1 2 0 6.53 0.32
1 2 0 9 0.9
1 2 0 6.76 0.36
-1 2 0 5.87 0.65
-1 -2 0 8 0.92
1 2 0 7.06 0.49
-1 2 0 5.77 0.28
1 -2 0 7.27 0.32
1 -2 1 10.4 1
-1 -2 -1 15.38 1.58
1 2 1 16.53 0.72
-1 2 -1 14.25 0.43
-1 2 -1 16.67 1.61
1 2 1 18.35 0.85
-1 -2 -1 15.63 0.66
1 2 1 13.25 0.52
-1 2 -1 17.1 0.62
1 -2 1 13.92 0.52
-1 -2 -2 161.93 2.58
-1 2 -2 166.05 1.84
1 2 2 165.19 2.34
1 -2 2 165.71 2.56
-1 2 -2 162.79 2.34
1 2 2 160.01 1.93
-1 -2 -2 168.31 2
-1 -2 -2 163.45 2.11
1 2 2 168.32 2.08
-1 2 -2 166.68 2.28
1 -2 2 161.74 2.13
-1 2 -3 470.46 6.81
-1 -2 -3 440.39 6.9
1 2 3 461.65 7.13
-1 2 -3 456.97 6.57
1 -2 3 446.68 7.09
-1 2 -3 431.24 6.75
1 2 3 489.93 7.3
-1 -2 -3 435.01 6.46
-1 -2 -3 441.23 6.56
1 2 3 431.07 6.39
-1 2 -3 447.34 6.87
1 -2 3 436.81 6.65
-1 -2 -4 284.39 4.75
-1 2 -4 286.24 4.24
1 -2 4 291.23 4.96
-1 2 -4 272.54 4.49
1 2 4 283.83 4.51
-1 -2 -4 292.47 4.57
-1 -2 -4 287.9 4.48
1 2 4 283.03 4.38
1 -2 4 277.03 4.55
-1 -2 -5 32.25 1.35
-1 2 -5 33.36 0.84
1 -2 5 34.62 2.08
1 2 5 31.39 1.04
-1 -2 -5 32.2 1
1 2 5 30.03 0.88
-1 2 -5 36.64 1.35
-1 -2 -6 15.08 0.89
-1 2 -6 12.89 0.54
1 -2 6 14.55 0.58
1 -2 6 16.75 2.07
1 2 6 16.33 0.93
-1 -2 -6 13.93 0.65
-1 -2 -6 14.49 0.72
1 2 6 12.2 0.58
-1 2 -6 14.83 0.86
-1 -2 -7 23.27 1.23
-1 2 -7 20.65 0.79
1 -2 7 23.06 0.79
1 -2 7 22.96 2.3
1 2 7 22.96 1.01
-1 -2 -7 24.71 0.99
-1 2 -7 27.24 1.39
1 2 7 21.46 0.84
-1 -2 -8 6.09 0.9
-1 2 -8 7.49 0.66
1 -2 8 6.69 0.51
1 -2 8 6.63 1.44
1 2 8 7.65 0.76
-1 -2 -8 6.01 0.62
-1 2 -8 7.62 0.92
-1 -2 -9 63.28 2.58
-1 2 -9 59.83 2.06
1 -2 9 57.04 2.05
1 -2 9 53.64 6.6
1 2 9 60.35 2.3
-1 -2 -9 59.95 2.27
-1 2 -9 68.74 2.72
-1 -2 -10 605.36 14.53
-1 2 -10 624.36 14.47
1 -2 10 611.78 15.03
1 2 10 639.72 15.12
-1 -2 -10 603.1 14.14
-1 -2 -11 24 1.7
-1 2 -11 21.24 1.31
1 -2 11 27.67 3.25
1 2 11 21.55 1.57
-1 -2 -11 23.24 1.56
-1 2 -11 20.45 1.58
-1 -2 -12 35.19 2.2
-1 2 -12 34.52 1.86
1 -2 12 33.33 4.08
1 2 12 37.98 2.38
-1 -2 -12 31.08 2
-1 2 -12 28.07 2.08
-1 -2 -13 12.23 1.22
-1 2 -13 10.55 1
1 -2 13 9.91 1.42
1 2 13 7.3 1.16
-1 -2 -13 7.01 0.9
-1 2 -13 9.86 1.4
-1 -2 -14 1.09 0.84
-1 2 -14 2.69 0.92
1 -2 14 5.23 1.67
1 2 14 3 1.16
-1 -2 -14 1.02 0.6
-1 2 -14 3.32 1.41
-1 -2 -15 1.08 0.65
-1 2 -15 1.11 0.73
1 -2 15 3.67 1.68
1 2 15 3.07 1.16
-1 -2 -15 0.87 0.81
-1 2 -15 1.17 0.98
-1 -2 -16 14.77 2.34
1 -2 16 11.71 2.64
1 2 16 13.71 2.37
-1 2 -16 16.7 2.92
1 -3 -16 22.14 3.79
-1 3 16 21.05 3.67
1 3 -16 28.6 4.6
1 -3 -15 4.7 1.7
1 3 -15 3.92 1.27
-1 -3 15 2.03 0.96
-1 3 15 2.17 0.93
1 3 -15 1.98 0.98
1 -3 -14 5.03 1.58
1 3 -14 3.06 1.02
-1 3 14 2.94 0.99
1 -3 -14 3.94 1.14
1 3 -14 3.18 1.42
1 -3 -13 46.78 4.1
1 3 -13 41.92 3.46
-1 -3 13 36.75 4.77
-1 3 13 41.57 3.55
1 -3 -13 38.3 3.12
1 3 -13 32.63 2.99
1 -3 -12 176 8.41
1 3 -12 214.58 9.9
-1 3 12 175.94 8.36
1 3 -12 166.6 7.92
1 -3 -11 111.42 5.43
1 3 -11 108.13 5.03
-1 -3 11 90.17 6.48
-1 3 11 109.15 5.19
1 -3 -11 92.85 4.18
1 3 -11 95.01 4.66
1 -3 -10 68.59 3.23
1 3 -10 92.34 3.83
-1 -3 10 103.84 6.15
-1 3 10 90.9 3.97
1 -3 -10 89.75 3.55
1 3 -10 99.25 4.31
1 -3 -9 540.08 13.01
1 3 -9 562.66 13.2
-1 -3 9 526.05 12.95
-1 3 9 566.14 13.61
1 -3 -9 492 11.35
1 -3 -9 516.89 11.86
1 3 -9 559.08 13.46
1 -3 -8 47.79 2.26
1 3 -8 48.07 1.88
-1 -3 8 49.45 3.92
-1 3 8 46.5 2.07
1 -3 -8 37.82 2.18
1 -3 -8 43.65 1.49
1 3 -8 52.1 2.25
1 -3 -7 15.95 1.22
1 3 -7 16.67 0.8
-1 -3 7 17.86 2.34
-1 3 7 17.35 1.05
1 -3 -7 17.05 0.63
1 3 -7 15.67 1.18
1 -3 -6 3.2 0.63
1 3 -6 2.67 0.44
-1 -3 6 3.73 0.5
-1 3 6 2.13 0.64
1 -3 -6 2.42 0.27
1 -3 -6 2.85 0.24
1 3 -5 405.75 6.25
1 -3 -5 430.89 9.7
1 3 -5 430.32 9.52
-1 -3 5 410.64 9.47
-1 3 5 441 6.89
-1 -3 5 387.17 6.25
1 3 -4 28.19 1.91
1 -3 -4 30.3 1.25
1 3 -4 32.48 1.07
-1 -3 4 33.99 3.09
1 3 -4 31.89 1.03
-1 3 4 34.13 1.32
-1 -3 4 36.37 3.02
1 3 -3 437.62 6.55
1 -3 -3 454.7 6.91
1 3 -3 445.46 6.7
-1 -3 3 455.69 6.89
1 3 -3 437 6.41
-1 -3 3 454.72 6.89
1 3 -3 425.12 6.4
-1 -3 2 99.63 2.07
1 3 -2 116.86 2.54
1 -3 -2 102.75 2.12
-1 3 2 103.6 2.1
-1 -3 2 101.82 2.4
1 3 -2 100.48 1.87
-1 3 2 99.9 2.19
1 -3 -2 111.24 2.32
-1 -3 2 106.03 2.86
1 3 -2 101.64 2.04
-1 -3 1 26.03 2.38
1 3 -1 24.26 1.86
1 -3 -1 23.38 0.89
-1 3 1 25.67 0.89
1 3 -1 25.25 2.44
-1 3 1 27.32 1.23
1 3 -1 23.66 0.8
1 -3 -1 25.71 1.05
-1 -3 1 24.74 0.83
1 3 -1 22.78 0.82
-1 3 1 24.7 0.58
-1 -3 0 16.46 1.92
1 -3 0 11.91 1.34
1 3 0 12.56 0.74
-1 3 0 12.51 1.28
1 3 0 12.63 1.3
1 3 0 12.02 0.59
-1 3 0 11.97 0.8
-1 3 0 12.65 1.07
-1 -3 0 15.85 1.79
1 3 0 10.92 0.53
-1 3 0 11.65 0.47
1 -3 1 353.71 5.63
-1 -3 -1 328.54 5.67
-1 3 -1 325.05 4.96
1 3 1 308.26 4.69
-1 3 -1 322.68 5.36
1 3 1 330.63 5.04
-1 3 -1 317.34 5.23
-1 3 -1 323.89 5.01
-1 -3 -1 312.97 4.85
1 3 1 325.25 4.96
-1 3 -1 331.02 5.1
1 -3 2 114.47 2.59
-1 -3 -2 106.16 2.39
-1 3 -2 102.34 1.74
1 -3 2 104.51 2.28
1 3 2 106.27 1.97
-1 -3 -2 102.8 1.87
-1 3 -2 103.92 2.05
-1 -3 -2 104.2 1.92
1 3 2 109.26 1.95
-1 3 -2 102.59 1.95
-1 -3 -3 132.52 2.69
-1 3 -3 137.32 2.19
-1 3 -3 144.88 2.34
1 -3 3 133.88 2.79
1 3 3 133.82 2.32
-1 3 -3 139.68 2.71
-1 -3 -3 142.39 2.33
1 3 3 139.58 2.27
-1 3 -3 139.99 2.6
-1 3 -4 353.35 5.13
-1 -3 -4 371.63 6.03
-1 3 -4 371.76 5.31
1 -3 4 367.6 6.02
1 3 4 379.47 5.69
-1 -3 -4 363.84 5.42
-1 -3 -4 384.07 5.58
1 3 4 376.12 5.44
-1 3 -4 390.03 6.05
-1 3 -5 56.51 1.24
-1 -3 -5 61.21 1.81
-1 3 -5 61.82 1.22
1 -3 5 67.38 5.21
1 3 5 60.56 1.45
-1 -3 -5 52.84 1.35
-1 -3 -5 65.05 1.45
1 3 5 58.68 1.26
-1 3 -5 61.62 1.64
-1 3 -6 40.93 1.37
-1 -3 -6 28.62 1.42
-1 3 -6 35.87 0.88
1 -3 6 37.02 3.99
1 3 6 33.91 1.13
-1 -3 -6 40.66 1.14
1 3 6 36.1 0.96
-1 3 -6 39.35 1.48
-1 -3 -7 61.08 2.26
-1 3 -7 68.19 1.82
1 -3 7 66.74 4.04
1 3 7 64.95 2.12
-1 -3 -7 59.87 1.75
-1 3 -7 64.32 2.21
1 3 7 57.59 1.63
-1 -3 -8 389.1 11.37
-1 3 -8 397.57 11.15
1 -3 8 375.04 10.52
1 -3 8 399.97 12.05
1 3 8 438.99 12.59
-1 -3 -8 417.04 11.79
-1 3 -8 394.92 11.56
-1 -3 -9 53.74 2.62
-1 3 -9 50.63 1.62
1 -3 9 44.46 3.83
1 3 9 49.02 1.92
-1 -3 -9 48.58 1.78
-1 3 -9 42.17 1.85
-1 -3 -10 168.31 7.14
-1 3 -10 152.37 6.1
1 -3 10 150.94 8.78
1 3 10 145.02 6.06
-1 -3 -10 148.71 6.07
-1 3 -10 162.83 6.88
-1 -3 -11 40.82 2.6
-1 3 -11 37.48 1.93
1 -3 11 32.24 3.8
1 3 11 38.11 2.31
-1 -3 -11 32.64 1.99
-1 3 -11 45.09 3.12
-1 -3 -12 48.92 3.3
-1 3 -12 48.93 2.88
1 -3 12 50.09 6.89
1 3 12 57.53 3.71
-1 -3 -12 43.83 2.72
-1 3 -12 59.17 3.67
-1 -3 -13 4.22 1.17
-1 3 -13 4.15 0.71
1 -3 13 4.56 0.98
1 3 13 2.2 0.87
-1 3 -13 2.52 0.82
-1 -3 -14 45.83 4.85
1 -3 14 43.69 5.75
1 3 14 42.68 4.53
-1 -3 -14 39.15 4.07
-1 3 -14 40.92 4.38
-1 -3 -15 2.78 1.15
1 -3 15 3.54 1.22
1 3 15 4.6 1.4
-1 -3 -15 2.3 1.22
-1 3 -15 3.25 1.16
-1 -3 -16 1.06 0.69
1 3 16 0.81 0.64
-1 3 -16 3.62 1.09
1 -4 -15 5.56 1.78
-1 -4 15 0.89 0.54
-1 4 15 2.7 1.13
1 4 -15 2.72 1.12
1 -4 -14 2.3 1.2
-1 -4 14 2.03 0.92
-1 4 14 3.56 1.29
1 4 -14 3.73 1.45
1 -4 -13 24.14 2.81
1 4 -13 20.83 2.31
-1 -4 13 16.03 3.51
-1 4 13 28.26 3.3
1 4 -13 22.26 2.59
1 -4 -12 20.43 2.21
1 4 -12 18.41 1.83
-1 4 12 20.41 2.24
1 4 -12 13.44 1.87
1 -4 -11 80.84 4.94
1 4 -11 80.8 4.53
-1 -4 11 90.12 9.41
-1 4 11 79.57 4.65
1 4 -11 76.16 4.56
1 -4 -10 40.35 2.69
1 4 -10 41.32 2.24
-1 -4 10 44.59 3.89
-1 4 10 41.75 2.46
1 4 -10 40.65 2.44
1 -4 -9 13.44 1.39
1 4 -9 16.61 1.15
-1 -4 9 13.63 2.38
-1 4 9 16.79 1.62
1 -4 -9 12.41 0.64
1 4 -9 18.02 1.47
1 -4 -8 5.61 1.04
1 4 -8 5.52 0.59
-1 -4 8 4.09 0.85
-1 4 8 5.08 0.81
1 4 -8 4.81 0.87
1 -4 -7 2.45 1.03
1 4 -7 1.25 0.43
-1 -4 7 1.33 0.35
-1 4 7 3.27 0.78
1 4 -7 1.36 0.77
1 -4 -6 4.72 0.8
1 4 -6 7.37 0.73
-1 -4 6 6.25 0.87
-1 4 6 7.85 1.02
1 4 -6 7.15 0.97
1 4 -5 143.62 3.63
-1 -4 5 138.7 4.31
-1 4 5 150.18 3.9
1 -4 -4 11.67 1.15
1 4 -4 12.42 0.9
-1 -4 4 9.83 1.45
-1 4 4 10.08 0.9
-1 -4 4 9.16 1.19
1 -4 -3 54.41 1.62
1 4 -3 55.47 1.56
-1 -4 3 58.99 1.94
1 4 -3 52.82 1.35
-1 4 3 59.97 1.79
-1 -4 3 59.57 1.76
-1 -4 2 13.88 1.05
1 -4 -2 17.56 1.25
1 4 -2 10.6 1.07
-1 4 2 10.68 0.78
1 4 -2 11.26 0.68
-1 -4 2 15.55 1.65
-1 -4 1 12.04 1.16
1 -4 -1 10.49 1.27
1 4 -1 7.52 1.03
-1 4 1 12.34 0.91
1 4 -1 9.16 0.62
-1 -4 1 11.94 1.26
-1 4 1 8.58 0.35
1 4 -1 8.35 0.61
-1 4 1 8.16 0.36
-1 -4 0 17.42 1.83
1 -4 0 15.08 1.87
1 4 0 12.31 1.18
1 4 0 16.06 0.79
-1 4 0 17.53 0.99
-1 -4 0 17.68 1.59
-1 4 0 14.41 1.67
1 4 0 15.42 0.67
-1 4 0 15.65 0.57
1 -4 1 70.76 1.98
-1 4 -1 64.15 1.43
1 4 1 63.56 1.9
-1 4 -1 72.18 1.89
-1 4 -1 63.05 1.77
-1 -4 -1 71.61 1.66
1 4 1 66.2 1.4
-1 4 -1 67.06 1.44
1 -4 2 83.61 2.08
-1 -4 -2 76.37 2.25
-1 4 -2 82.69 1.69
1 4 2 81.85 1.75
-1 4 -2 77.26 2.01
-1 4 -2 72.55 1.72
1 4 2 79.76 1.56
-1 4 -2 81.9 1.75
-1 -4 -3 8.58 0.97
-1 4 -3 5.78 0.44
-1 4 -3 7.21 0.57
1 -4 3 7.03 0.88
1 4 3 7.96 0.71
-1 -4 -3 5.54 0.53
-1 -4 -3 7.29 0.62
1 4 3 4.94 0.38
-1 4 -3 7.59 0.68
-1 -4 -4 2.06 0.48
-1 4 -4 0.49 0.26
-1 4 -4 1.81 0.28
1 -4 4 2.49 0.55
1 4 4 1.96 0.54
-1 -4 -4 1.25 0.26
-1 -4 -4 3.31 0.37
1 4 4 1.49 0.26
-1 4 -4 0.39 0.45
-1 4 -5 0.55 0.24
-1 -4 -5 1.25 0.85
-1 4 -5 1.63 0.48
1 4 5 2.63 0.54
-1 -4 -5 0.75 0.21
1 4 5 0.74 0.17
-1 4 -5 2.45 0.66
-1 4 -6 0.4 0.25
-1 -4 -6 0.86 0.62
-1 4 -6 1.15 0.43
1 4 6 0.31 0.35
-1 -4 -6 0.09 0.15
1 4 6 0.12 0.16
-1 4 -6 2.34 0.78
-1 4 -7 9.26 1.05
-1 -4 -7 14.04 1.19
-1 4 -7 14.57 0.69
1 4 7 16.77 1
-1 -4 -7 17.85 0.81
-1 4 -7 16.46 1.1
1 4 7 13.75 0.66
-1 -4 -8 266 10.31
-1 4 -8 269.26 9.99
1 4 8 274.15 10.42
-1 -4 -8 259.66 9.65
-1 4 -8 274.14 10.56
-1 -4 -9 22.54 1.77
-1 4 -9 29.09 1.44
1 -4 9 25.5 3.46
1 4 9 28.21 1.7
-1 -4 -9 26.46 1.36
-1 4 -9 24.36 1.67
-1 -4 -10 17.15 1.51
-1 4 -10 21.22 1.25
1 -4 10 16.94 2.14
1 4 10 21.35 1.51
-1 -4 -10 20.7 1.32
-1 4 -10 24.03 1.89
-1 -4 -11 14.67 1.45
1 -4 11 13.39 1.87
1 4 11 12.92 1.22
-1 -4 -11 12.43 1.16
-1 4 -11 20.35 2.32
-1 -4 -12 1.76 0.86
1 -4 12 2.03 0.98
1 4 12 4.97 1.47
-1 4 -12 3.8 1.31
-1 -4 -13 4.69 1.49
1 -4 13 1.65 0.83
1 4 13 2.55 1.06
-1 4 -13 1.99 0.93
-1 -4 -14 17.72 2.5
1 -4 14 15.3 3.59
1 4 14 13.81 2.13
-1 4 -14 25.84 3.45
-1 -4 -15 19.55 2.31
1 -4 15 13.16 4.36
1 4 15 17.89 2.24
-1 4 -15 22.74 2.49
1 -5 -13 13.36 2.09
-1 -5 13 10.05 2.2
-1 5 13 10.26 1.82
1 5 -13 15.87 2.3
1 -5 -12 10.86 1.65
-1 -5 12 11.15 1.87
-1 5 12 12.02 1.76
1 5 -12 10.55 1.78
1 -5 -11 31.54 3.74
1 5 -11 28.03 2.92
-1 -5 11 29.19 5.19
-1 5 11 38.29 3.98
1 5 -11 33.54 3.64
1 -5 -10 14.58 1.78
1 5 -10 15.79 1.71
-1 -5 10 13.44 2.43
-1 5 10 12.12 1.45
1 5 -10 13.59 1.52
1 -5 -9 8.63 1.29
1 5 -9 4.59 0.61
-1 -5 9 5.89 0.89
-1 5 9 61.08 9.46
1 5 -9 5.06 0.84
1 -5 -8 0.67 0.73
1 5 -8 2.82 0.86
-1 -5 8 1.16 0.49
-1 5 8 3.63 1.16
1 5 -8 1.76 0.76
1 -5 -7 5.26 1.14
1 5 -7 3.48 0.59
-1 -5 7 5.12 1.06
-1 5 7 3.36 0.67
1 5 -7 3.12 0.75
1 -5 -6 6.42 1.17
1 5 -6 5.76 0.68
-1 -5 6 7.8 1.39
-1 5 6 12.12 1.36
1 5 -6 9.08 1.15
1 -5 -5 31.04 1.97
1 5 -5 24.3 1.43
-1 -5 5 27.14 2.59
-1 5 5 24.96 1.54
1 5 -5 28.66 1.62
1 -5 -4 4.94 0.97
1 5 -4 4.11 0.6
-1 -5 4 3.98 0.63
-1 5 4 4.64 0.79
1 5 -4 4.51 0.55
1 -5 -3 36.16 3.78
1 5 -3 28.43 1.3
-1 5 3 32.35 1.53
1 5 -3 29.26 1.26
-1 -5 2 6.57 1
1 -5 -2 7.28 0.89
-1 5 2 5.82 0.77
1 5 -2 6.17 0.64
-1 -5 2 4.92 0.88
-1 -5 1 20.93 1.82
1 -5 -1 20.02 1.79
-1 5 1 22.68 1.37
1 5 -1 17.66 0.92
-1 -5 1 23.01 2.26
-1 5 1 17.76 0.65
-1 5 1 17.96 0.62
-1 -5 0 69.65 5.12
1 -5 0 67.78 5.51
1 5 0 58.98 2.07
-1 5 0 68.35 2.57
-1 -5 0 70.29 4.76
1 5 0 57.32 1.98
-1 5 0 67.32 2.14
1 -5 1 198.59 5.64
-1 -5 -1 203.9 6.07
1 5 1 202.02 5.01
-1 5 -1 197.42 5.17
-1 -5 -1 199.48 5.09
-1 5 -1 174.42 4.44
1 5 1 181.44 4.43
-1 5 -1 210.67 5.12
1 -5 2 229.24 6.07
-1 -5 -2 241.08 6.71
1 5 2 225.02 5.54
-1 5 -2 267.47 6.9
-1 -5 -2 221.62 5.35
1 5 2 209.82 5.02
-1 5 -2 234.13 5.78
-1 -5 -3 83.57 6.25
-1 5 -3 66.89 1.97
-1 5 -3 75.81 2.22
1 5 3 77.44 2.25
-1 5 -3 76.54 2.64
-1 -5 -3 70.98 2.03
1 5 3 65.4 1.77
-1 5 -3 79.71 2.36
-1 -5 -4 2.06 0.57
-1 5 -4 0.51 0.22
-1 5 -4 1.64 0.54
1 5 4 2.26 0.54
-1 5 -4 1.51 0.76
-1 -5 -4 0.39 0.15
1 5 4 1.38 0.28
-1 5 -4 0.93 0.4
-1 -5 -5 4.56 1.15
-1 5 -5 1.66 0.56
1 -5 5 2.57 0.73
1 5 5 2.29 0.7
-1 -5 -5 3.49 1.34
-1 5 -5 1.93 0.59
-1 -5 -6 2.19 0.83
-1 5 -6 2.31 0.39
1 -5 6 7.12 0.81
1 5 6 18.7 4.24
-1 5 -6 3.57 1.06
-1 -5 -7 1.88 0.91
-1 5 -7 2.6 0.38
1 -5 7 1.07 0.7
1 5 7 2.53 0.54
-1 5 -7 2.64 0.96
-1 -5 -8 120.82 9.72
1 -5 8 119.55 8.87
-1 5 -8 102.59 5.1
-1 -5 -9 3.35 1.24
1 -5 9 7.21 1.29
1 5 9 5.43 0.77
-1 5 -9 7.66 1.15
-1 -5 -10 3.25 1.32
1 -5 10 4.16 1.58
1 5 10 6.07 1.73
-1 5 -10 8.39 1.34
-1 -5 -11 4.93 1.65
1 -5 11 4.06 1.52
1 5 11 6.48 1.16
-1 5 -11 5.06 1.43
-1 -5 -12 1.25 0.91
1 -5 12 3.32 1.44
1 5 12 1.66 0.64
-1 5 -12 1.83 0.89
-1 -5 -13 6.22 1.32
1 -5 13 2.15 0.93
1 5 13 4.44 1.46
-1 5 -13 7.99 1.75
1 -6 -12 6.17 1.25
-1 -6 12 3.78 0.93
-1 6 12 5.93 1.21
1 6 -12 13.14 1.87
-1 -6 11 32.18 7.14
-1 6 11 49.93 6.01
1 6 -11 55.99 6.81
1 -6 -10 14.92 1.5
-1 -6 10 12.09 2.47
-1 6 10 18.35 1.25
1 6 -10 19.7 1.61
1 -6 -9 30.35 3.49
-1 -6 9 21.58 4.09
-1 6 9 31.33 3.75
1 6 -9 30.18 3.36
1 -6 -8 3.98 1.37
1 6 -8 2.19 0.76
-1 -6 8 1.2 0.82
-1 6 8 3.34 1.12
1 6 -8 1.28 0.6
1 -6 -7 9.49 1.67
1 6 -7 5.7 0.83
-1 -6 7 7.96 1.83
-1 6 7 8.31 1.08
1 6 -7 12.98 1.41
1 -6 -6 10.7 2.21
1 6 -6 11.57 1.09
-1 -6 6 7.74 1.04
-1 6 6 17.59 1.9
1 6 -6 13.2 1.25
1 -6 -5 25.15 3.59
-1 6 5 26.55 1.91
1 6 -5 21.87 1.62
1 6 -5 23.53 1.7
1 -6 -4 8.39 1.24
1 6 -4 9.32 0.95
-1 6 4 8.52 1.02
1 6 -4 6.86 0.85
1 6 -4 7.78 0.84
1 -6 -3 287.59 13.02
1 6 -3 288.45 12.45
-1 6 3 325.06 14.07
1 6 -3 282.07 12.11
1 6 -3 290.3 12.47
-1 -6 2 86.22 4.36
1 -6 -2 79.48 7.14
-1 6 2 85.49 4.09
1 6 -2 75.22 3.51
1 6 -2 83.9 3.89
-1 -6 1 15.75 2.38
1 -6 -1 16.88 1.87
-1 6 1 15.18 1.22
1 6 -1 15.24 1.08
1 6 -1 12.56 0.89
-1 -6 0 2.08 0.8
1 -6 0 7.04 1.07
1 6 0 8.76 0.82
-1 6 0 7.43 0.89
-1 6 0 5 0.46
1 6 0 8.34 0.67
1 -6 1 248.02 11.08
-1 -6 -1 264.05 12.26
1 6 1 266.55 11.43
-1 6 -1 274.83 11.96
-1 6 -1 253.09 10.76
1 6 1 239.46 10.17
1 -6 2 82.81 3.97
-1 -6 -2 81.45 5.7
1 6 2 82.13 3.79
-1 6 -2 80.58 3.91
-1 6 -2 83.27 3.8
-1 -6 -3 2.83 1.13
-1 6 -3 1.92 0.56
1 6 3 3.05 0.73
-1 6 -3 1.69 0.89
-1 6 -3 1.5 0.42
-1 -6 -4 54.22 6.54
-1 6 -4 47.62 2.44
1 6 4 50.11 2.64
-1 6 -4 48.61 2.82
-1 6 -4 53.33 2.8
-1 -6 -5 7.6 1.54
1 6 5 3.32 0.49
-1 6 -5 5.72 1.02
-1 6 -5 5.84 1.1
-1 -6 -6 0.95 0.61
1 6 6 3.07 0.92
-1 6 -6 3.14 0.92
-1 6 -6 2.86 0.92
1 -6 7 3.57 1.06
1 6 7 3.29 0.64
-1 6 -7 3.38 0.91
-1 -6 -8 40.21 6.75
1 -6 8 45.8 7.07
1 6 8 38.63 3.93
-1 6 -8 54.16 5.51
-1 -6 -9 11.3 2.37
1 -6 9 12.65 2.88
1 6 9 13.89 1.66
-1 6 -9 13.62 1.71
-1 -6 -10 48.06 6.11
1 -6 10 48.56 4.38
-1 6 -10 57.82 2.12
-1 -6 -11 4.8 1.96
1 -6 11 5.17 1.86
-1 6 -11 5.69 1.81
1 -7 -9 -0.13 0.74
-1 -7 9 1.91 0.8
-1 7 9 6.37 2.1
1 7 -9 2.5 0.86
1 -7 -8 3.49 1.4
-1 7 8 2.83 1.05
1 7 -8 1.69 0.75
1 7 -8 1.27 0.88
1 -7 -7 4.51 1.49
-1 7 7 7.84 0.91
1 7 -7 4.23 1.31
1 7 -7 1.45 0.69
1 -7 -6 -0.11 0.82
-1 7 6 1.24 0.81
1 7 -6 0.55 0.4
1 7 -6 2.2 0.95
1 -7 -5 4.25 1.47
1 7 -5 2.93 0.82
-1 7 5 12 2.02
1 7 -5 5.03 1.31
1 7 -5 4.33 1.13
1 -7 -4 3.13 1.14
1 7 -4 3.7 1.02
-1 7 4 6.34 1.27
1 7 -4 4.97 1.28
1 7 -4 4.95 1.24
1 -7 -3 108.07 12.98
1 7 -3 86.04 8.5
-1 7 3 88.57 8.78
1 7 -3 77.29 7.61
1 7 -3 75.44 7.4
1 -7 -2 10.66 1.82
1 7 -2 13.7 1.28
-1 7 2 19.95 1.51
1 7 -2 15.5 1.03
-1 -7 1 0.38 0.58
1 -7 -1 0.47 0.49
-1 7 1 2.7 0.88
1 7 -1 1.99 0.67
-1 -7 0 1.97 0.95
1 7 0 3.35 0.98
-1 7 0 4.59 1.39
1 -7 1 0.48 0.43
-1 -7 -1 1.4 0.99
-1 7 -1 1.83 0.88
-1 -7 -2 0.85 0.89
-1 7 -2 1.16 0.62
-1 -7 -3 18.35 4.18
-1 7 -3 26.51 2.99
-1 -7 -4 22.04 3.66
-1 7 -4 22.11 2.51
-1 -7 -5 3.87 1.4
-1 7 -5 4.95 1.47
-1 7 -5 3.43 0.98
-1 -7 -6 6.08 2.4
-1 7 -6 8.7 1.13
-1 7 -6 8.56 1
-1 -7 -7 2.48 1.13
-1 7 -7 7.16 2.15
-1 7 -7 2.89 0.97
-1 -7 -8 1.55 1.04
-1 7 -8 0.84 0.72
-1 7 -8 2.59 1.09
1 -8 -3 2.13 0.94
1 -8 -2 2.13 1.11
1 8 -2 3.22 1.19
-1 8 2 5.34 1.62
-1 8 1 9.39 1.8
-1 8 0 5.02 1.56
-1 8 -1 4.03 1.33
-1 -8 -2 1.85 1.22
-1 8 -2 2.52 0.97
-1 -8 -3 0.91 0.63
-1 8 -3 2.02 0.89
2 0 -17 2.84 1.18
-2 0 17 1.22 0.78
2 0 -17 1.41 1.32
2 0 -16 20.25 2.46
-2 0 16 16.31 2.42
2 0 -16 19.89 2.35
2 0 -15 31.95 2.07
-2 0 15 20.28 1.75
2 0 -15 25 1.72
2 0 -14 80.81 4.74
-2 0 14 90.41 5.45
2 0 -14 93.71 5.43
2 0 -13 4.33 0.79
-2 0 13 3.94 1.27
2 0 -13 5.67 0.87
2 0 -12 17.49 1.34
-2 0 12 15.25 1.46
2 0 -12 15.73 1.32
2 0 -11 38.24 1.84
-2 0 11 32.15 1.59
2 0 -11 34.45 1.63
2 0 -10 29.82 1.58
-2 0 10 32.51 1.73
2 0 -10 33.13 1.65
2 0 -9 7.56 0.88
-2 0 9 5.94 0.82
2 0 -9 7.07 0.74
2 0 -8 1077.44 23.18
-2 0 8 1108.92 23.89
-2 0 8 929.57 19.91
2 0 -7 136.32 2.82
-2 0 7 120.94 2.52
-2 0 7 142.22 2.85
2 0 -6 30.29 1.64
-2 0 6 23.96 0.94
-2 0 6 33.79 3.42
2 0 -6 27.66 2.63
2 0 -5 20.39 0.9
-2 0 5 18.9 0.81
-2 0 5 21.67 0.89
-2 0 5 24.98 2.42
2 0 -5 18.5 2.28
-2 0 4 37.86 1
-2 0 4 46.45 1.23
2 0 -4 37.54 1
2 0 -3 1512.81 15.01
-2 0 3 1416.65 14.11
2 0 -3 1472.92 14.47
2 0 -2 5353.17 75.01
-2 0 2 5651.19 79.15
-2 0 2 5149.06 72.09
-2 0 2 5281.93 73.99
2 0 -2 5517.4 77.27
-2 0 1 9999 139.67
-2 0 1 9072.24 126.68
-2 0 1 9893.94 138.25
2 0 -1 9406 131.42
2 0 0 316.98 3.47
-2 0 0 313.7 3.38
2 0 0 318.09 3.41
-2 0 0 322.49 3.68
2 0 0 327.25 3.68
2 0 1 597.14 6.12
-2 0 -1 595.75 6.16
-2 0 -1 583.94 6.17
2 0 1 619.69 6.49
-2 0 -2 240.62 3
2 0 2 259.86 2.99
2 0 2 253.82 3.13
-2 0 -2 244.8 2.86
2 0 2 246.35 3.01
-2 0 -3 56.24 1.98
2 0 3 49.67 0.92
2 0 3 51.94 1.27
-2 0 -3 49.67 1.07
-2 0 -3 54.11 1.34
2 0 3 54.24 1.24
-2 0 -4 7.92 0.64
2 0 4 11.18 0.61
2 0 4 11.57 1.79
-2 0 -4 7.82 0.51
-2 0 -4 7.93 0.68
2 0 4 9 0.69
-2 0 -5 602.32 8.96
2 0 5 588.64 8.69
2 0 5 609.24 9.2
-2 0 -5 588.7 8.85
-2 0 -5 607.12 9.26
2 0 5 595.35 8.99
-2 0 -6 7.14 0.69
2 0 6 7.28 0.58
2 0 6 6.86 0.71
-2 0 -6 8.18 0.72
-2 0 -7 5.79 0.51
2 0 7 5.06 0.45
2 0 7 8 0.8
-2 0 -7 6.8 0.88
-2 0 -8 10.9 0.89
2 0 8 10.95 0.93
-2 0 -8 6.02 0.7
-2 0 -9 85.95 2.59
2 0 9 79.8 2.51
-2 0 -9 81.79 2.66
-2 0 -10 7.2 0.75
2 0 10 10.78 1.27
-2 0 -10 6.56 0.9
-2 0 -11 41.83 2.16
2 0 11 38.95 2.29
-2 0 -12 44.4 2.4
2 0 12 44.74 2.63
-2 0 -12 46.35 2.72
-2 0 -13 39.96 2.64
2 0 13 28.49 2.2
-2 0 -14 2.09 0.69
2 0 14 2.26 1.07
-2 0 -14 1.52 0.9
-2 0 -15 7.95 1.18
2 0 15 8.47 1.39
-2 0 -15 3.97 1.3
-2 0 -16 4.85 1.35
2 0 16 8.34 2.64
-2 0 -16 5.22 1.65
2 -1 -17 6.53 1.57
2 1 -17 2.38 1.01
-2 -1 17 5.64 1.85
-2 1 17 5.4 1.79
2 -1 -17 2.61 1.03
2 1 -17 3.27 1.3
2 1 -16 7.42 0.93
-2 -1 16 6.26 2.03
-2 1 16 3.16 1.14
2 -1 -16 10.34 1.22
2 1 -16 6.4 1.85
2 -1 -15 1.82 0.95
2 1 -15 1.67 0.98
-2 -1 15 2.16 1.22
-2 1 15 2.06 1.06
2 -1 -15 2.22 0.97
2 1 -15 1.5 1
2 -1 -14 65.16 5.34
2 1 -14 61.83 5.07
-2 -1 14 59.75 5.1
-2 1 14 54.15 4.53
2 -1 -14 54.68 4.48
2 1 -14 55.94 4.64
2 -1 -13 2.42 0.78
2 1 -13 0.68 0.73
-2 -1 13 2.67 0.89
-2 1 13 1.45 0.74
2 -1 -13 2.91 0.9
2 1 -13 2.42 1
2 -1 -12 1.64 0.77
2 1 -12 -0.43 0.66
-2 -1 12 1 0.7
-2 1 12 2.06 0.73
2 -1 -12 2.74 0.89
2 1 -12 1.62 0.86
2 -1 -11 16.56 1.24
2 1 -11 22.63 1.59
-2 -1 11 24.55 1.76
-2 1 11 19.46 1.52
2 -1 -11 20.64 1.33
2 1 -11 22.18 1.6
2 -1 -10 95.67 3.46
2 1 -10 97.93 3.35
-2 -1 10 93.73 3.33
-2 1 10 104.15 3.69
2 -1 -10 100.36 3.32
2 1 -10 93.64 3.32
2 -1 -9 40.81 1.83
2 1 -9 37.06 1.63
-2 -1 9 35.12 1.64
-2 1 9 36.36 1.64
2 -1 -9 38.26 1.55
2 -1 -8 212.56 4.07
2 1 -8 204.63 3.8
-2 -1 8 205.05 3.83
-2 1 8 212.3 3.99
-2 -1 8 199.47 4.13
2 -1 -7 41.95 1.53
2 1 -7 39.96 1.41
-2 -1 7 38.16 1.38
-2 1 7 37.57 1.4
-2 1 7 35.77 1.23
-2 -1 7 42.59 3.1
2 -1 -6 7.88 0.75
-2 -1 6 8.1 0.62
2 1 -6 7.62 0.57
-2 1 6 8.21 0.74
-2 1 6 11.17 1.3
-2 -1 6 12.3 1.55
2 -1 -6 9.6 0.98
2 -1 -5 10.2 0.72
-2 1 5 8.65 0.59
2 1 -5 6.53 0.58
-2 -1 5 9.57 0.61
-2 -1 5 9.2 0.69
2 1 -5 11.13 0.71
-2 1 5 9.15 0.75
2 -1 -5 9.01 0.65
-2 1 5 11.96 1.13
-2 -1 5 11.32 1.37
2 1 -5 8.77 0.94
2 -1 -5 9.26 0.54
2 -1 -4 26.91 0.92
-2 1 4 28.58 1
2 1 -4 29.14 1.07
-2 -1 4 28.1 0.96
-2 -1 4 25.93 0.81
-2 1 4 32.8 1.11
2 -1 -4 34.88 1.12
-2 -1 4 36.09 2.91
-2 1 4 32.14 1.45
2 1 -4 28.32 2.72
2 -1 -4 27.31 0.83
2 -1 -3 1120.15 11.34
2 1 -3 1111.23 11.35
-2 -1 3 1102.76 11.19
-2 -1 3 1119.32 11.1
2 1 -3 1096.4 10.84
-2 1 3 1095.03 11.14
2 -1 -3 1119.96 11.36
-2 -1 3 1114.18 11.54
-2 1 3 1114.31 11.06
2 1 -3 1100.53 11.17
2 -1 -3 1116.11 11
2 -1 -2 3739.13 35.73
-2 1 2 3915.64 55.01
2 1 -2 3825.84 53.84
-2 -1 2 3886.06 54.66
-2 -1 2 3769.06 35.74
2 1 -2 3648.91 34.6
-2 1 2 3633.64 34.83
2 -1 -2 3656.34 35.02
-2 -1 2 3773.2 36.15
2 1 -2 3968.99 55.83
-2 1 2 3834.21 53.75
2 -1 -2 3818.15 53.5
2 -1 -1 8207.12 114.69
-2 1 1 7787.1 108.79
-2 -1 1 8566.68 119.5
-2 1 1 8379.88 117.22
2 -1 -1 7930.12 110.91
-2 -1 1 8437.76 118.03
-2 1 1 8150.03 113.86
2 -1 -1 8393.23 117.24
-2 -1 0 261.92 3.67
2 1 0 257.55 3.21
2 -1 0 268.88 2.9
-2 1 0 258.51 2.81
-2 -1 0 263.08 2.78
-2 -1 0 262.76 2.67
-2 1 0 260.05 3.21
2 -1 0 262.93 3.2
-2 -1 0 265.09 3.25
2 1 0 268.48 3.24
2 -1 0 269.95 3.11
-2 -1 -1 24.06 1.4
2 1 1 22.93 1.78
2 -1 1 21.6 0.43
-2 1 -1 21.44 0.47
2 1 1 25.42 0.91
-2 1 -1 25.12 1.78
-2 -1 -1 24.06 0.83
2 1 1 22.76 0.89
-2 1 -1 23.24 0.87
2 -1 1 23.19 0.78
-2 -1 -2 39.75 1.12
2 1 2 43.65 3.2
2 -1 2 40.04 0.58
2 -1 2 44.39 1.92
-2 1 -2 38.05 1.2
2 1 2 40.49 1.15
-2 -1 -2 37.73 0.69
-2 -1 -2 40.1 1.08
-2 1 -2 37.59 1.08
2 -1 2 40.4 1.02
-2 1 -3 104.69 1.65
2 1 3 96.65 1.61
2 -1 3 95.06 1.89
-2 1 -3 97.09 1.88
2 1 3 97.6 1.55
-2 -1 -3 98.82 1.44
-2 -1 -3 96.63 1.71
2 1 3 95.74 1.65
-2 1 -3 94.02 1.74
2 -1 3 97.69 1.64
2 -1 4 11.59 1.46
-2 -1 -5 971.3 14.3
-2 1 -5 988.69 14.13
2 -1 5 982.49 14.05
2 -1 5 925.34 13.86
2 1 5 1015 14.81
-2 -1 -5 994.29 14.46
-2 -1 -5 916.26 13.52
-2 1 -5 1020.15 15.13
2 1 5 943.9 13.84
-2 -1 -6 40.08 1.28
-2 1 -6 41.89 1.07
2 -1 6 40.25 0.98
2 -1 6 39.18 2.37
-2 -1 -6 35.11 1.04
-2 -1 -6 40.58 1.32
-2 1 -6 40.21 1.37
-2 -1 -7 122.24 2.6
-2 1 -7 129.46 2.41
2 -1 7 122.66 2.23
2 -1 7 133.34 3
2 1 7 142.25 2.9
-2 1 -7 124.25 2.71
-2 -1 -8 20.66 1.11
-2 1 -8 24.86 1.08
2 -1 8 20.93 0.83
2 -1 8 30.29 3.47
2 1 8 31.79 1.54
-2 -1 -8 25.54 1.38
-2 1 -8 21.73 1.16
-2 -1 -9 143.08 4.58
-2 1 -9 143.25 4.37
2 -1 9 134.57 8.24
2 1 9 142.5 4.61
-2 -1 -9 143.27 4.61
-2 1 -9 132.79 4.4
-2 -1 -10 67.14 2.54
-2 1 -10 63.16 2.1
2 -1 10 65 4.02
2 1 10 68.02 2.53
-2 -1 -10 63.35 2.42
-2 1 -10 62.1 2.33
-2 -1 -11 224.74 8.73
-2 1 -11 249.67 9.9
2 -1 11 219.02 14.94
2 1 11 245.95 9.58
-2 -1 -11 232.73 9.51
-2 1 -11 237.69 9.69
-2 -1 -12 44.97 2.62
-2 1 -12 40.77 2.17
2 -1 12 37.74 4.27
2 1 12 49.5 2.84
-2 -1 -12 45.03 2.65
-2 1 -12 39.04 2.56
-2 -1 -13 3.08 0.83
-2 1 -13 4.96 1.05
2 -1 13 3.03 1.11
2 1 13 2.22 0.64
-2 -1 -13 1.84 0.75
-2 1 -13 5.52 1.34
-2 -1 -14 1.31 0.79
-2 1 -14 0.9 0.48
2 -1 14 2.91 1.45
2 1 14 1.19 0.8
-2 -1 -14 0.76 0.79
-2 1 -14 2.51 1.27
-2 -1 -15 2.42 0.98
-2 1 -15 2.07 0.69
2 -1 15 2.94 1.34
2 1 15 1.81 0.8
-2 -1 -15 0.74 0.83
-2 -1 -16 20.59 2.86
2 -1 16 23.76 5.12
2 1 16 18.37 2.77
-2 -1 -16 20.53 2.9
-2 1 -16 17.8 2.67
2 -2 -16 26.15 3.65
2 2 -16 12.23 1.92
-2 -2 16 16.41 2.6
-2 2 16 20.45 3.03
2 -2 -16 13.19 1.92
2 -2 -15 5.58 1.59
2 2 -15 5.04 1.41
-2 -2 15 2.79 1.16
-2 2 15 6.31 1.8
2 2 -15 5.54 1.61
2 -2 -14 2.28 0.85
2 2 -14 4.38 0.87
-2 -2 14 1.51 0.76
-2 2 14 4.26 1.25
2 -2 -14 1.26 0.48
2 2 -14 2.25 0.76
2 -2 -13 5.45 0.97
2 2 -13 5.75 0.9
-2 -2 13 6.44 1.5
-2 2 13 4.43 1.24
2 -2 -13 5.5 0.78
2 2 -13 5.98 1.08
2 -2 -12 30.17 1.96
2 2 -12 27.31 1.82
-2 2 12 26.61 1.91
2 -2 -12 25.92 1.62
2 2 -12 27.72 1.99
2 -2 -11 56.4 2.79
2 2 -11 54.86 2.73
-2 2 11 57.99 3.01
2 -2 -11 53.12 2.42
2 2 -11 55.17 2.85
2 -2 -10 433.52 10.67
2 2 -10 413.81 10.05
-2 2 10 433.77 10.75
2 -2 -10 472.76 11.16
2 2 -10 475.76 11.66
2 -2 -9 43.38 2.05
2 2 -9 38.99 1.75
-2 2 9 40.15 1.92
2 -2 -9 39.95 1.55
2 -2 -8 6.2 0.79
2 2 -8 5.49 0.68
-2 2 8 9.47 1.52
-2 -2 8 6.94 1.35
2 -2 -8 3.09 0.58
2 -2 -8 4.43 0.45
2 -2 -7 19.5 1.11
2 2 -7 15.18 0.85
-2 -2 7 14.77 0.9
-2 2 7 12 1.01
-2 -2 7 17.84 1.98
2 -2 -7 14.29 1.27
2 -2 -7 15.3 0.65
2 -2 -6 4.39 0.59
2 2 -6 4.03 0.51
-2 -2 6 3.88 0.6
-2 2 6 7.07 0.95
-2 -2 6 5.4 0.97
2 -2 -6 3.84 0.34
2 -2 -6 6.18 0.44
2 -2 -5 208.42 3.67
2 2 -5 197.97 3.5
-2 -2 5 207.03 3.53
2 2 -5 199.05 3.31
-2 2 5 206.94 3.71
-2 2 5 218.63 3.43
-2 -2 5 207.26 3.8
2 -2 -5 197.83 2.98
2 -2 -4 601.11 9.16
-2 2 4 570.66 8.67
2 2 -4 593.15 9.08
-2 -2 4 591.84 9
-2 -2 4 607.31 9.03
2 2 -4 605.36 9
-2 2 4 568.71 8.83
-2 2 4 595.57 8.76
-2 -2 4 575.53 9.21
-2 -2 1 166.91 3.08
2 2 -1 167.63 3.92
2 -2 -1 171.44 2.85
-2 2 1 171.23 2.81
-2 -2 1 170.46 2.61
2 2 -1 169.74 2.54
-2 2 1 171.11 3.13
2 -2 -1 176.54 3.12
-2 -2 1 171.18 3.03
2 2 -1 172.83 3.02
-2 2 1 171.98 2.77
2 -2 -1 175.32 2.75
-2 -2 0 85.99 2.66
2 -2 0 81.87 1.21
-2 2 0 87.13 1.31
-2 2 0 82.55 1.69
-2 -2 0 82.66 1.56
2 2 0 83.38 1.55
-2 2 0 88.38 1.48
2 -2 0 81.18 1.25
-2 -2 -1 71.82 1.78
2 2 1 68.79 2.82
2 -2 1 68.95 1.16
2 2 1 71.26 1.06
-2 2 -1 66.16 1.66
-2 -2 -1 69.91 1.61
2 2 1 70.42 1.6
-2 2 -1 68.16 1.48
-2 -2 -2 40.85 1.55
2 2 2 39.83 1.25
2 -2 2 43.23 1.95
-2 2 -2 41.5 2.98
-2 -2 -2 41.47 1.19
2 2 2 37.1 1.1
-2 2 -2 41.77 1.24
2 -2 2 41.78 1.09
-2 -2 -3 1121.05 16.7
2 -2 3 1111.3 16.48
2 2 3 1163.49 16.56
-2 -2 -3 1127.64 16.36
2 2 3 1147.69 16.6
-2 2 -3 1120.24 16.36
2 -2 3 1106.45 16.1
-2 -2 -4 16.43 1.9
2 -2 4 15.22 1.96
2 2 4 17.94 0.76
-2 -2 -4 16.91 0.64
-2 -2 -4 16.47 0.89
2 2 4 13.82 0.68
-2 2 -4 14.4 0.87
-2 -2 -5 136.12 2.78
-2 2 -5 146.21 2.11
2 -2 5 137 3.08
2 2 5 141.35 2.48
-2 -2 -5 138.19 2.36
-2 -2 -5 144.08 2.65
2 2 5 136.17 2.48
-2 2 -5 147.22 2.94
-2 -2 -6 18.57 1.05
-2 2 -6 14.99 0.48
2 -2 6 12.02 0.4
2 -2 6 21.24 2.3
2 2 6 15.81 0.85
-2 -2 -6 17.4 0.76
-2 -2 -6 17.53 0.95
-2 2 -6 18.56 1.16
-2 -2 -7 15.91 1.08
2 -2 7 16.5 1.66
-2 -2 -7 17.47 1.08
-2 2 -7 13.93 1.13
-2 -2 -8 2.93 0.85
-2 2 -8 1.74 0.33
2 -2 8 2.37 0.3
2 -2 8 1.22 0.53
2 2 8 2.12 0.48
-2 -2 -8 2.11 0.79
-2 2 -8 3.97 1
-2 -2 -9 643.86 18.33
-2 2 -9 709.69 19.7
2 -2 9 604.71 16.77
2 -2 9 676.67 19.38
2 2 9 654.84 18.46
-2 -2 -9 626.67 17.66
-2 2 -9 647.32 18.45
-2 -2 -10 167.6 6.79
-2 2 -10 160.85 6.13
2 -2 10 174.83 11.15
2 2 10 164.3 6.51
-2 -2 -10 175.2 6.9
-2 2 -10 175.86 7.03
-2 -2 -11 47.94 2.65
-2 2 -11 48.22 2.24
2 -2 11 51.05 5.71
2 2 11 53.96 2.83
-2 -2 -11 44.91 2.36
-2 2 -11 39.88 2.3
-2 -2 -12 27.06 1.94
-2 2 -12 30.44 1.72
2 -2 12 26.65 2.75
2 2 12 29.12 2.1
-2 -2 -12 25.76 1.8
-2 2 -12 27.6 2.1
-2 -2 -13 10.17 1.22
-2 2 -13 12.34 1.28
2 -2 13 10.79 2.77
2 2 13 15.33 2.05
-2 -2 -13 14.72 1.59
-2 2 -13 10.15 1.6
-2 -2 -14 3.24 1.31
2 -2 14 3.64 1.39
2 2 14 0.57 0.65
-2 -2 -14 2.28 0.74
-2 2 -14 3 1.52
-2 -2 -15 7.62 1.07
2 -2 15 10.45 1.87
2 2 15 12.05 1.44
-2 -2 -15 8.99 1.22
-2 2 -15 8.32 1.43
-2 -2 -16 25.64 4.19
2 -2 16 20.74 4.48
2 2 16 19.02 3.21
-2 -2 -16 25.59 4.2
-2 2 -16 29.91 4.9
2 -3 -16 13.66 2.55
2 3 -16 15.25 2.68
-2 -3 16 8.31 1.67
-2 3 16 7.67 1.58
2 3 -16 17.62 3.03
2 3 -15 3.02 0.98
-2 -3 15 3.31 1.31
-2 3 15 3.87 1.39
2 3 -15 6.28 1.9
2 -3 -14 26.36 3.34
2 3 -14 19.36 2.35
-2 -3 14 19.01 2.41
-2 3 14 24.49 2.95
2 3 -14 18.96 2.36
2 -3 -13 5.37 1.91
2 3 -13 4.1 0.79
-2 -3 13 5.55 1.18
-2 3 13 7.16 1.31
2 -3 -13 5.4 0.85
2 3 -13 10.1 1.63
2 -3 -12 281.63 15.15
2 3 -12 314.25 23.45
-2 -3 12 319.66 23.97
-2 3 12 323.39 24.23
2 -3 -12 292.09 15.16
2 3 -12 320.61 24.05
2 -3 -11 9 1.46
2 3 -11 7.78 0.83
-2 -3 11 6.14 1.07
-2 3 11 9.74 1.1
2 3 -11 7.55 1.22
2 -3 -10 202.3 8.34
2 3 -10 227.69 9.2
-2 -3 10 204.35 8.41
-2 3 10 218.15 9.01
2 -3 -10 208.34 8.17
2 3 -10 217.64 8.97
2 -3 -9 27.25 1.5
2 3 -9 27.69 1.44
-2 -3 9 35.29 1.85
2 -3 -9 21.44 0.91
2 -3 -9 28.73 1.07
2 3 -9 32.24 1.75
2 -3 -8 1.21 0.67
2 3 -8 0.72 0.59
-2 -3 8 0.76 0.72
-2 3 8 2.92 1.1
-2 -3 8 2.45 0.85
2 -3 -8 0.29 0.16
2 -3 -8 1 0.3
2 -3 -7 2.02 0.87
2 3 -7 0.18 0.39
-2 -3 7 1.04 0.63
-2 3 7 2 0.77
-2 -3 7 1.63 0.52
2 -3 -7 0.49 0.16
2 -3 -7 0.33 0.14
2 -3 -6 99.07 2.85
2 3 -6 96.88 2.72
-2 -3 6 95.61 2.92
-2 -3 6 98.02 3.05
2 -3 -6 96.16 2.16
2 -3 -6 95.22 2.13
2 -3 -5 104.68 2.42
2 3 -5 108.84 2.36
-2 -3 5 112.62 3.14
2 3 -5 101.71 2.06
-2 3 5 103.63 2.44
-2 -3 5 109.25 2.62
2 -3 -5 105.7 1.53
2 -3 -5 108.74 1.57
2 3 -4 122.87 2.57
-2 -3 4 116.5 2.32
2 3 -4 110.52 2.04
-2 3 4 114.06 2.57
-2 -3 4 116.48 3.16
2 -3 -3 20.1 0.95
-2 3 3 17.9 0.86
2 3 -3 19.74 0.89
-2 -3 3 23.18 2.23
2 3 -3 19.83 0.65
-2 3 3 22.08 1.1
-2 -3 3 23.09 2.52
2 -3 -2 21.34 0.92
-2 3 2 17.34 0.74
2 3 -2 17.32 0.91
-2 -3 2 20.19 1.58
2 3 -2 19.23 0.63
-2 3 2 18.08 1.05
-2 -3 2 23.45 2.22
2 3 -2 18.63 0.88
-2 3 2 17.25 0.46
2 -3 -2 20.17 0.47
-2 -3 1 210.86 3.97
2 -3 -1 199.11 3.26
-2 3 1 206.06 3.32
2 3 -1 196.31 2.92
-2 3 1 201.47 3.67
2 3 -1 198.02 2.97
-2 -3 1 204.74 3.96
2 3 -1 190.41 3.25
-2 3 1 196.75 2.96
-2 -3 0 117.17 2.63
2 -3 0 114.55 2.02
-2 3 0 113.22 1.96
2 3 0 122.41 2.06
2 3 0 112.09 1.75
-2 3 0 110.77 2.33
-2 -3 0 115.92 2.26
2 3 0 114.95 2.18
-2 3 0 112.94 1.96
2 -3 0 112.26 1.89
-2 -3 -1 557 8.62
2 -3 1 494.49 7.01
-2 3 -1 503.26 7.04
2 3 1 514.76 7.26
2 3 1 508.3 6.99
-2 3 -1 572.02 8.68
-2 -3 -1 522.48 7.61
2 3 1 525.5 7.64
-2 3 -1 512.1 7.4
2 -3 1 506.32 7.27
2 -3 2 4.26 0.41
-2 -3 -2 12.56 1.26
-2 3 -2 6.93 0.29
-2 3 -2 8.29 0.85
-2 -3 -2 8.21 0.72
2 3 2 9.75 0.78
-2 3 -2 6.98 0.68
2 -3 2 7.18 0.51
-2 -3 -3 136.76 2.9
-2 3 -3 127.73 1.81
2 -3 3 131.65 2.83
2 3 3 127.16 2.07
-2 -3 -3 128.42 2.08
-2 -3 -3 138.38 2.52
2 3 3 133.41 2.38
-2 3 -3 142.32 2.66
-2 -3 -4 1.38 0.46
2 -3 4 0.74 0.34
2 3 4 1.23 0.3
-2 -3 -4 1.59 0.33
-2 -3 -4 0.86 0.44
2 3 4 0.21 0.24
-2 3 -4 0.91 0.55
-2 -3 -5 2 0.69
2 -3 5 2.53 0.46
2 3 5 2.3 0.44
-2 -3 -5 1.83 0.32
-2 -3 -5 2.82 0.52
2 3 5 1.1 0.27
-2 3 -5 3.43 0.56
-2 3 -6 0.26 0.09
-2 -3 -6 1.17 0.86
-2 3 -6 1.04 0.15
2 -3 6 2.3 0.49
2 3 6 0.83 0.33
-2 -3 -6 0.59 0.34
-2 -3 -6 0.19 0.38
2 3 6 0.63 0.32
-2 3 -6 1.33 0.52
-2 3 -7 158.84 4.57
-2 -3 -7 168.8 5.5
-2 3 -7 162.64 4.56
2 -3 7 174.34 5.77
2 3 7 155.97 4.7
-2 -3 -7 173.27 5.28
-2 3 -7 166.29 5.27
-2 -3 -8 36.76 1.98
-2 3 -8 35.45 1.04
2 -3 8 41.76 4.29
2 3 8 40.08 1.72
-2 -3 -8 40.98 1.64
-2 3 -8 45.26 2.16
2 -3 9 0.03 0.19
-2 -3 -10 26.83 1.93
2 -3 10 35.24 4.28
2 3 10 30.57 1.76
-2 -3 -10 28.4 1.76
-2 3 -10 33.79 2.31
-2 -3 -11 2.51 0.75
-2 3 -11 3.81 0.56
2 -3 11 4.13 1.55
2 3 11 2.21 0.57
-2 -3 -11 1.45 0.67
-2 3 -11 0.95 0.73
-2 -3 -12 2.67 0.9
2 -3 12 2.06 0.89
2 3 12 1.64 0.73
-2 -3 -12 2.9 0.77
-2 3 -12 3.74 1.14
-2 -3 -13 3.92 1.3
2 -3 13 1.67 0.66
2 3 13 5.55 1.66
-2 -3 -13 0.78 0.62
-2 3 -13 1.51 0.82
-2 -3 -14 4.87 1.42
2 -3 14 1.4 0.8
2 3 14 5.25 1.52
-2 -3 -14 0.72 0.71
-2 3 -14 4.48 1.45
-2 -3 -15 10.56 1.96
2 -3 15 5.46 1.63
2 3 15 9.33 2.87
-2 -3 -15 8.7 2.61
-2 3 -15 10.68 1.81
2 -4 -15 1.19 1.19
2 4 -15 3.23 1.12
-2 -4 15 1.36 1.16
-2 4 15 1.48 1.04
2 4 -15 1.15 0.92
2 -4 -14 56.46 2.39
2 4 -14 58.6 1.94
-2 -4 14 50.94 6.82
-2 4 14 57.02 2.31
2 4 -14 59.89 2.35
2 -4 -13 6.7 2.06
2 4 -13 7.99 1.34
-2 -4 13 6.41 1.8
-2 4 13 6 1.65
2 4 -13 8.07 1.33
2 -4 -12 204.28 7.24
2 4 -12 203.46 6.8
-2 -4 12 219.94 7.91
-2 4 12 202.04 6.97
2 4 -12 231.1 8.02
2 -4 -11 29.83 2.37
2 4 -11 28.25 2
-2 -4 11 25.38 3.26
-2 4 11 30 2.21
2 4 -11 30.35 2.3
2 -4 -10 4.63 1.16
2 4 -10 4.42 0.9
-2 -4 10 5.92 1.05
-2 4 10 6.81 1.1
2 4 -10 7.7 1.06
2 -4 -9 7.68 1.42
2 4 -9 6.06 0.74
-2 -4 9 6.13 1.54
-2 4 9 8.06 0.96
2 4 -9 6.73 1.14
2 -4 -8 1.99 0.91
2 4 -8 1.56 0.34
-2 -4 8 3.7 0.86
-2 4 8 1.1 0.68
2 4 -7 14.89 1.08
-2 -4 7 13.3 1.6
-2 4 7 16.03 1.31
-2 -4 7 10.74 1.2
2 -4 -6 168.93 5.51
2 4 -6 185.5 5.78
-2 -4 6 179.28 5.94
-2 4 6 204.8 6.47
2 -4 -5 83.81 3.16
2 4 -5 83.27 2.97
-2 -4 5 83.33 3.1
-2 4 5 84.8 3.02
-2 -4 5 84.35 3.26
2 -4 -4 28.17 1.45
2 4 -4 24.83 1.27
-2 -4 4 27.79 2.25
2 4 -4 24.09 0.95
-2 4 4 28.52 1.56
-2 -4 4 29 3.65
2 -4 -3 46.24 1.67
2 4 -3 45.92 1.67
-2 -4 3 48.08 2.06
2 4 -3 40.71 1.23
-2 4 3 43.77 1.71
-2 -4 3 51.94 3.14
2 -4 -2 1.13 0.64
2 4 -2 0.21 0.18
-2 4 2 0.7 0.45
2 4 -2 1.05 0.34
-2 -4 2 -0.03 0.41
-2 4 2 0.37 0.08
2 -4 -1 65.89 1.97
-2 4 1 51.99 1.54
2 4 -1 57.31 1.52
-2 4 1 61.74 2.12
2 4 -1 56.03 1.5
-2 4 1 58.09 1.52
-2 -4 1 85.85 4.27
-2 4 1 58.26 1.46
-2 -4 0 80.64 2.31
2 -4 0 80.13 2.32
-2 4 0 75.49 1.56
2 4 0 80.87 1.87
2 4 0 82.82 1.54
-2 4 0 87.05 2.16
-2 4 0 79.18 2.04
-2 4 0 81.25 1.59
-2 -4 -1 731.34 16.68
-2 4 -1 701.82 14.94
2 4 1 729.42 15.57
2 4 1 734.55 15.54
-2 4 -1 757.54 21.24
-2 4 -1 714.11 15.31
-2 -4 -1 750.38 20.91
2 4 1 697.8 15.01
-2 4 -1 772.75 21.38
2 -4 2 34.67 2.16
-2 -4 -2 42.52 3.55
-2 4 -2 36.12 1.06
2 4 2 36.56 1.87
2 4 2 35.28 1.06
-2 4 -2 32.18 1.5
-2 4 -2 27.35 2.91
-2 -4 -2 40.42 1.47
2 4 2 37.92 1.32
-2 4 -2 36.47 1.3
-2 -4 -3 12.87 1.88
-2 4 -3 10.39 0.47
-2 4 -3 10.24 0.48
2 4 3 14.34 0.73
-2 -4 -3 9.15 0.48
-2 4 -3 10.13 1
-2 -4 -3 12.34 0.75
2 4 3 9.12 0.61
-2 4 -3 14.7 0.98
-2 -4 -4 13.15 1.78
-2 4 -4 8.01 0.36
-2 4 -4 11.23 0.53
2 -4 4 7.48 0.97
2 4 4 9.67 0.62
-2 -4 -4 7.9 0.52
-2 -4 -4 8.96 0.74
2 4 4 7.76 0.58
-2 4 -4 10.39 0.98
-2 -4 -5 1.24 0.44
-2 4 -5 0.57 0.13
2 -4 5 1.43 0.43
2 4 5 2.24 0.61
-2 -4 -5 0.65 0.32
-2 -4 -5 0.52 0.29
2 4 5 0.86 0.38
-2 4 -5 4.02 0.81
-2 -4 -6 7.42 1.76
-2 4 -6 5.1 0.2
-2 4 -6 6.09 0.22
2 -4 6 4.44 0.78
2 4 6 6.21 0.62
-2 -4 -6 8.24 0.71
2 4 6 4.45 0.49
-2 4 -6 6.25 0.91
-2 -4 -7 794.32 30.95
-2 4 -7 695.82 26.4
-2 4 -7 771.9 29.28
2 -4 7 799.91 31.05
2 4 7 856.01 32.81
-2 -4 -7 801.89 30.69
-2 4 -7 851.87 32.88
-2 -4 -8 123.07 5.8
2 -4 8 104.4 8.66
2 4 8 101.13 4.28
-2 -4 -8 95.27 3.98
-2 4 -8 102.23 4.61
-2 -4 -9 105.25 8.47
2 -4 9 101.34 6.5
2 4 9 103.55 4.78
-2 -4 -9 90.27 4.13
-2 4 -9 90.87 4.43
-2 -4 -10 1.81 1.03
2 -4 10 2.52 0.85
2 4 10 0.6 0.62
-2 4 -10 1.94 0.87
-2 -4 -11 2.45 1.23
2 -4 11 2.08 0.79
2 4 11 1.95 0.65
-2 -4 -11 1.46 0.58
-2 4 -11 4.25 1.2
-2 -4 -12 4.38 1.54
2 -4 12 2.61 0.96
2 4 12 2.98 0.99
-2 -4 -12 3.4 1.15
-2 4 -12 2.62 1.25
-2 -4 -13 4.91 1.86
2 -4 13 0.86 0.56
2 4 13 2.37 1.04
-2 4 -13 3.98 1.61
-2 -4 -14 2.18 1.2
2 -4 14 2.87 1.23
2 4 14 1.98 0.98
-2 4 -14 1.91 1.03
2 -5 -13 7.7 2.18
-2 -5 13 14.1 2.77
-2 5 13 14.59 2.14
2 5 -13 13.56 2.04
2 -5 -12 23.78 2.1
2 5 -12 18.65 1.23
-2 -5 12 20.23 2.12
-2 5 12 25.79 1.62
2 5 -12 22.8 1.66
2 -5 -11 3.47 1.17
2 5 -11 5.99 1.76
-2 -5 11 4.55 1.45
-2 5 11 6.11 1.28
2 5 -11 7.07 1.63
2 5 -10 17.59 1.25
-2 -5 10 18.37 2.3
-2 5 10 43.61 3.34
2 5 -10 20.79 1.6
2 -5 -9 1.85 1.13
2 5 -9 1.04 0.45
-2 -5 9 1.46 0.72
-2 5 9 1.03 0.64
2 5 -9 -0.2 0.54
2 -5 -8 5.7 1.19
2 5 -8 5.9 0.78
-2 -5 8 3.2 0.84
-2 5 8 3.77 0.91
2 -5 -7 17.53 1.49
2 5 -7 23.22 1.53
-2 -5 7 19.67 2.34
-2 5 7 38.26 2.96
2 5 -7 17.43 1.32
2 -5 -6 47.61 2.5
2 5 -6 47.82 2.36
-2 -5 6 39.86 4.73
-2 5 6 61.16 3.27
-2 -5 6 45.02 2.49
2 -5 -5 13.61 1.4
2 5 -5 15.66 1.2
-2 -5 5 16.53 1.91
-2 5 5 14.29 1.24
-2 -5 5 10.62 1.69
2 -5 -4 10.03 1.11
2 5 -4 10.81 1.09
-2 -5 4 8.87 0.83
-2 5 4 8.73 1.21
-2 -5 4 9.29 1.54
2 -5 -3 1.2 0.64
2 5 -3 1.44 0.64
-2 5 3 0.78 0.59
2 5 -3 1.34 0.5
-2 -5 3 1.93 0.67
2 -5 -2 1.27 0.57
2 5 -2 1.31 0.34
-2 5 2 1.27 0.56
2 5 -2 1.65 0.4
-2 -5 2 -0.03 0.51
-2 -5 1 43.37 3.66
2 -5 -1 39.26 3.74
2 5 -1 34.43 1.16
-2 5 1 35.78 1.61
2 5 -1 40.5 1.38
-2 -5 1 41.72 4.34
-2 5 1 26.16 1.54
-2 5 1 32.82 0.97
-2 -5 0 187.13 7.37
2 -5 0 178.8 5.2
2 5 0 171.95 4.75
2 5 0 194.45 4.74
-2 5 0 219.25 5.87
-2 -5 0 194.9 6.13
-2 5 0 170.15 4.22
-2 5 0 175.5 4.26
2 -5 1 354.23 8.66
-2 5 -1 321.29 7.6
2 5 1 341.11 8.09
2 5 1 353.45 8.21
-2 5 -1 379.53 9.39
-2 5 -1 307.46 7.54
-2 -5 -1 378.18 9.32
-2 5 -1 361.88 8.47
2 -5 2 24.36 2.01
-2 -5 -2 26.37 2.51
-2 5 -2 21.09 1.08
2 5 2 15.39 1.51
2 5 2 27.94 1.33
-2 5 -2 23.58 1.6
-2 -5 -2 53.69 6.1
-2 5 -2 29.96 1.55
-2 -5 -3 5.25 0.99
-2 5 -3 1.89 0.28
-2 5 -3 2.37 0.36
2 5 3 2.02 0.3
2 5 3 3.79 0.5
-2 5 -3 4.01 0.86
-2 -5 -3 3.26 0.6
-2 5 -3 5.32 0.67
-2 -5 -4 5.12 1.14
-2 5 -4 2.37 0.29
2 5 4 3.2 0.53
-2 5 -4 4.02 0.94
-2 -5 -4 3.46 0.41
-2 5 -4 2.15 0.5
-2 -5 -5 0.7 0.54
2 5 5 1.43 0.36
-2 -5 -5 1.56 0.42
-2 5 -5 1.92 0.65
-2 -5 -6 8.89 1.47
2 -5 6 7.93 1.33
2 5 6 6.38 0.63
-2 -5 -6 7.62 0.74
-2 5 -6 8.72 0.94
-2 -5 -7 1.12 0.88
2 -5 7 1.7 0.98
2 5 7 0.59 0.34
-2 5 -7 1.41 0.89
-2 -5 -8 9.59 1.41
2 -5 8 8.09 1.81
2 5 8 11.75 1.09
-2 5 -8 8.33 1.17
-2 -5 -9 4.87 0.98
2 -5 9 6.31 1.46
2 5 9 6.02 0.96
-2 5 -9 3.37 0.93
-2 -5 -10 0.26 0.57
2 5 10 0.9 0.6
-2 5 -10 1.95 0.87
-2 -5 -11 1.2 0.67
2 5 11 2.17 0.83
-2 5 -11 2.93 1.11
-2 -5 -12 2.76 1.21
2 5 12 1.44 0.79
-2 5 -12 3.28 1.3
-2 -5 -13 47.37 6.78
-2 5 -13 57.35 5.36
2 -6 -11 10.84 2.29
-2 -6 11 2.58 1.34
-2 6 11 4.27 1.38
2 6 -11 7.74 1.76
2 -6 -10 35.71 2.34
2 6 -10 29.3 1.41
-2 6 10 39.92 2.07
2 6 -10 33.08 1.89
2 -6 -9 14.44 1.94
2 6 -9 15.3 1.77
-2 -6 9 13.27 1.97
-2 6 9 12.45 1.65
2 6 -9 18.93 2.4
2 -6 -8 3.79 1.28
2 6 -8 5.58 1.9
-2 -6 8 0.72 0.49
-2 6 8 3.63 1.1
2 6 -8 1.9 0.81
2 -6 -7 2.3 1.18
2 6 -7 4.06 1.29
-2 -6 7 0.55 0.5
-2 6 7 8.08 2.41
2 6 -7 3.44 1.14
2 -6 -6 50.89 4.41
2 6 -6 47.55 3.9
-2 6 6 50.66 4.35
2 6 -6 45.43 3.76
2 -6 -5 39.97 2.87
2 6 -5 42.05 2.73
-2 6 5 48.46 3.1
2 6 -5 42.03 2.58
2 6 -5 35.93 2.28
2 -6 -4 172.32 8.7
2 6 -4 138.77 6.61
-2 6 4 166.22 7.9
2 6 -4 216.22 10
-2 -6 4 125.82 5.95
2 -6 -3 114.6 8.76
2 6 -3 115.17 5.56
-2 6 3 118.33 5.83
2 6 -3 108.25 5.03
-2 -6 3 105.11 5.31
2 -6 -2 1.76 0.49
-2 6 2 5.08 1.06
2 6 -2 1.64 0.46
-2 -6 2 1.75 0.77
-2 -6 1 4.66 0.94
2 -6 -1 7.13 1.04
2 6 -1 4.55 0.53
-2 6 1 7.19 1.16
-2 -6 1 4.54 0.78
-2 -6 0 7.95 1.18
2 -6 0 8.54 1.16
2 6 0 9.59 0.72
-2 6 0 8.24 1.22
-2 -6 0 5.9 0.97
-2 -6 -1 71.79 6.92
2 6 1 67.9 3.25
-2 6 -1 79.35 4.25
-2 6 -1 65.53 3.15
2 -6 2 5.91 1.19
-2 -6 -2 8.87 1.82
2 6 2 9.9 0.75
-2 6 -2 11.78 1.34
-2 -6 -2 5.71 0.72
-2 6 -2 9.86 0.81
2 6 3 6.36 0.61
-2 6 -3 7.06 1.11
-2 -6 -3 5.72 1.08
-2 6 -3 6.12 0.69
-2 -6 -4 6.9 1.63
-2 6 -4 8.63 1.32
-2 6 -4 5.7 0.81
-2 -6 -5 7.21 1.54
-2 6 -5 6.67 0.98
-2 6 -5 7.96 0.96
-2 -6 -6 9.46 1.34
-2 6 -6 4.46 1.06
-2 6 -6 4.65 0.87
-2 -6 -7 0.92 0.66
-2 6 -7 1.83 0.94
-2 -6 -8 3.66 1.06
2 -6 8 4.31 1.46
-2 6 -8 2.01 0.84
-2 -6 -9 17.94 2.9
2 -6 9 16.01 1.87
-2 6 -9 11.92 1.17
-2 -6 -10 6.36 1.9
2 -6 10 9.58 3.14
-2 6 -10 9.19 2.64
-2 -6 -11 9.74 1.91
2 -6 11 8.42 1.99
-2 6 -11 12.09 1.76
2 -7 -8 0.44 0.89
-2 7 8 3.26 1.23
2 7 -8 4.86 1.53
2 -7 -7 1 0.95
2 7 -7 2.52 0.87
-2 7 7 1.55 0.85
2 7 -7 0.33 0.61
2 -7 -6 1.61 1.02
2 7 -6 2.03 0.89
-2 7 6 3.31 1.3
2 7 -6 2.15 0.92
2 -7 -5 10.87 2.04
2 7 -5 9.62 1.35
-2 7 5 8.38 1.38
2 7 -5 9.4 1.28
2 -7 -4 70.98 9.28
2 7 -4 80.54 7.69
-2 7 4 86.2 8.16
2 7 -4 82.25 7.71
2 -7 -3 147.55 14.37
2 7 -3 159.16 34.52
-2 7 3 173.54 37.94
2 7 -3 140.06 13.56
2 -7 -2 10.03 2.57
2 7 -2 20.93 2.46
-2 7 2 23.79 2.73
2 7 -2 18.65 2.04
-2 -7 1 15.29 2.14
2 -7 -1 12.01 2.2
-2 7 1 19.67 2.42
-2 -7 0 6.52 1.74
2 -7 0 4.91 1.55
-2 7 0 5.97 1.62
-2 -7 -1 17.45 3.28
-2 7 -1 16.36 1.98
-2 -7 -2 1.01 0.72
-2 7 -2 4.06 1.18
-2 -7 -3 37.36 5.18
-2 7 -3 41.17 4.31
-2 -7 -4 2.76 1.25
-2 7 -4 6.15 1.7
-2 -7 -5 0.19 0.43
-2 7 -5 2.35 1.25
-2 -7 -6 3.94 1.46
-2 7 -6 4.24 1.48
-2 7 -6 2.54 0.91
-2 -7 -7 0.77 0.67
-2 7 -7 2.12 1.14
-2 7 -7 2.09 0.91
-2 7 -8 2.08 1.07
-2 7 -8 1.75 0.64
2 8 -2 11.5 1.73
-2 8 2 10.16 1.9
2 8 -1 29.28 2.95
-2 8 1 27.21 2.8
-2 -8 0 4.53 0.89
-2 8 0 2.11 0.81
-2 -8 -1 0.98 0.65
-2 8 -1 1.55 0.82
-2 -8 -2 1.24 0.62
-2 8 -2 1.26 0.56
3 0 -17 9.36 1.81
-3 0 17 1.14 0.81
3 0 -17 1.55 0.9
3 0 -16 5.13 1.65
-3 0 16 5.54 2.03
3 0 -16 6.32 1.9
3 0 -15 1.26 0.69
-3 0 15 -0.85 0.83
3 0 -15 0.85 0.77
3 0 -14 18.72 2.15
-3 0 14 12.87 1.76
3 0 -14 16.63 2
3 0 -13 3.01 1.03
-3 0 13 2.03 1.27
3 0 -13 0.59 0.69
3 0 -12 3.2 0.91
-3 0 12 1.5 1.13
3 0 -12 2.44 0.74
3 0 -11 4.49 1.38
-3 0 11 1.56 0.81
3 0 -11 1.15 0.77
3 0 -10 45.56 2.36
-3 0 10 45.91 2.3
-3 0 10 38.55 1.78
3 0 -9 10.81 1.16
-3 0 9 7.73 0.94
-3 0 9 13.72 1.37
3 0 -8 15.72 1.55
-3 0 8 13.41 0.91
-3 0 8 17.48 1.54
3 0 -7 16.45 0.99
-3 0 7 14.12 1.01
-3 0 7 21.05 1.64
3 0 -6 0.6 0.77
-3 0 6 0.14 0.44
-3 0 6 0.86 0.41
3 0 -5 19 1.06
-3 0 5 16.38 0.9
3 0 -5 11.66 0.68
-3 0 5 29.31 2.71
3 0 -5 14.45 0.77
3 0 -4 53.87 1.56
-3 0 4 52.96 1.46
-3 0 4 50.26 1.34
-3 0 4 59.98 3.63
3 0 -4 53.41 1.4
3 0 -3 75.93 1.75
-3 0 3 72.51 1.67
-3 0 3 90.26 1.99
3 0 -3 77.68 1.65
3 0 -3 82.34 1.8
3 0 -2 41.94 1.21
-3 0 2 41.99 1.09
3 0 -2 41.92 1.02
-3 0 2 39.28 1.2
3 0 -2 37.96 1.04
3 0 -1 3.21 0.43
-3 0 1 4.3 0.47
-3 0 1 2.8 0.41
3 0 -1 5.85 0.52
-3 0 1 2.49 0.44
3 0 -1 3.8 0.5
3 0 0 37.41 0.92
3 0 0 37.66 1.02
-3 0 0 38.91 1.06
-3 0 0 39.65 1.19
3 0 0 36.88 1.04
3 0 1 9.72 1.05
3 0 1 9.97 0.58
-3 0 -1 10.7 1.24
-3 0 -1 10.27 0.65
-3 0 -1 10.32 0.82
3 0 1 7.44 0.62
-3 0 -2 4.69 0.62
3 0 2 4.76 0.44
3 0 2 3.48 0.51
-3 0 -2 2.73 0.38
-3 0 -2 2.19 0.75
3 0 2 3.66 0.48
-3 0 -3 1.76 0.45
3 0 3 2.14 0.35
3 0 3 3.42 0.53
-3 0 -3 2.7 0.44
-3 0 -3 3.18 0.54
3 0 3 2.8 0.48
-3 0 -4 1.38 0.53
3 0 4 1.47 0.31
3 0 4 3.22 0.52
-3 0 -4 1.05 0.38
-3 0 -4 1.78 0.51
-3 0 -5 7.95 1.1
3 0 5 7.06 0.56
3 0 5 8.61 1.2
-3 0 -5 4.35 0.49
-3 0 -5 5.67 0.7
-3 0 -6 6.11 0.82
3 0 6 4.04 0.44
3 0 6 5.15 0.88
-3 0 -6 4.3 0.67
-3 0 -7 1.37 0.48
3 0 7 2.23 0.55
3 0 7 0.56 0.3
-3 0 -7 0.97 0.79
-3 0 -8 4.75 0.59
3 0 8 4.38 0.87
-3 0 -8 2.5 0.9
-3 0 -9 14.67 1.03
3 0 9 18.86 2.55
-3 0 -9 11.26 1
-3 0 -10 47.1 2.32
3 0 10 49.06 5.36
-3 0 -10 44.15 2.49
-3 0 -11 3.02 0.78
3 0 11 3.25 1.04
-3 0 -11 4.49 1.33
-3 0 -12 2.67 0.6
3 0 12 3.2 0.97
-3 0 -13 0.76 0.41
3 0 13 1.94 0.8
-3 0 -13 1.08 1.25
-3 0 -14 0.33 0.49
3 0 14 0.59 0.72
-3 0 -14 2.05 0.96
-3 0 -15 0.8 0.55
3 0 15 0.63 0.69
-3 0 -15 1 1.08
-3 0 -16 15.69 2.63
3 0 16 16.68 4.91
-3 0 -16 20.99 3.6
3 -1 -17 8.48 1.27
3 1 -17 10.15 1.56
-3 -1 17 9.11 1.69
-3 1 17 12.23 1.74
3 1 -17 7.76 1.56
3 -1 -16 8.68 1.58
3 1 -16 5.78 1.85
-3 -1 16 5.88 1.96
-3 1 16 3.03 1.21
3 -1 -16 5.63 1.66
3 1 -16 2.5 1.09
3 -1 -15 36.72 4.08
3 1 -15 33.17 3.59
-3 -1 15 28.92 3.42
-3 1 15 31.53 3.6
3 -1 -15 32.18 3.48
3 1 -15 27.98 3.2
3 -1 -14 39.09 3.57
3 1 -14 37 3.22
-3 -1 14 40.5 3.8
-3 1 14 39.07 3.51
3 -1 -14 38.03 3.22
3 1 -14 43.54 3.91
3 -1 -13 33.74 2.34
3 1 -13 32.43 2.13
-3 -1 13 41.51 2.91
-3 1 13 31.5 2.31
3 -1 -13 27.27 1.86
3 1 -13 32.92 2.39
3 -1 -12 68.49 3.65
3 1 -12 71.35 3.76
-3 -1 12 65.24 3.58
-3 1 12 66.87 3.73
3 -1 -12 71.01 3.64
3 -1 -11 71.88 3.42
3 1 -11 75.66 3.59
-3 -1 11 80.92 3.9
-3 1 11 67.77 3.27
3 -1 -11 74.62 3.31
3 -1 -10 5.41 0.85
3 1 -10 6.4 1.09
-3 -1 10 6.68 0.89
-3 1 10 6.29 0.97
-3 -1 10 9.71 1.51
3 -1 -10 8.66 0.88
3 -1 -9 29.13 1.61
3 1 -9 29.64 1.55
-3 -1 9 27.31 1.47
-3 1 9 33.66 2.7
-3 1 9 33.85 3.2
-3 -1 9 34.67 3.43
3 -1 -8 151.28 4.01
3 1 -8 169.16 4.47
-3 1 8 167.88 4.38
-3 1 8 170.37 4.41
-3 -1 8 160.17 4.81
3 -1 -7 30.59 1.27
3 1 -7 30.53 1.31
-3 1 7 30.93 1.3
-3 1 7 33.65 2.85
-3 -1 7 38.31 3.72
3 -1 -6 72.17 1.89
3 1 -6 74.51 2.01
-3 1 6 71.25 1.85
-3 1 6 72.95 1.79
-3 -1 6 75.53 2.59
3 -1 -5 192.96 3.61
-3 -1 5 194.26 3.38
3 1 -5 224.19 3.9
-3 -1 5 205.55 5.03
-3 1 5 214.9 3.96
3 -1 -5 184.97 3.18
3 -1 -4 18.27 1.17
-3 1 4 15.81 0.87
3 1 -4 14.13 0.88
-3 -1 4 14.1 0.65
3 1 -4 18.54 0.84
-3 1 4 13.75 0.82
-3 -1 4 20.98 2.05
-3 1 4 19.4 1.53
3 -1 -4 17.49 0.75
3 -1 -3 74.65 1.65
-3 1 3 75.95 1.68
3 1 -3 67.46 1.87
-3 -1 3 77.66 1.84
-3 -1 3 77.21 1.55
3 1 -3 76.54 1.54
-3 1 3 80.87 1.87
3 -1 -3 79.09 1.81
-3 -1 3 79.65 1.98
-3 1 3 75.96 1.7
3 1 -3 76.75 1.74
3 -1 -3 80.24 1.66
3 -1 -2 3298.63 46.51
3 1 -2 3353.84 45.32
-3 -1 2 3306.73 46.4
3 1 -2 3242.14 45.5
-3 1 2 3468.6 46.84
-3 -1 2 3082.38 43.64
-3 1 2 3328.94 46.91
3 1 -2 3241.94 45.84
3 -1 -2 3466.64 46.63
3 1 -1 81.63 2.42
3 -1 -1 96.66 1.94
-3 1 1 89.78 1.8
3 1 -1 80.44 1.67
-3 -1 1 92.14 1.32
-3 1 1 84.58 1.7
3 1 -1 84.57 1.23
-3 -1 1 92.49 1.82
-3 1 1 87.8 1.64
3 -1 -1 88.94 1.6
3 -1 1 79.28 1.45
3 1 1 90.03 3.15
3 -1 1 86.74 1.57
-3 1 -1 84.81 2.09
-3 -1 -1 89.76 1.59
-3 1 -1 84.55 1.89
-3 -1 -1 86.03 1.97
3 1 1 85.59 1.89
3 -1 1 89.69 1.9
-3 -1 -2 166.59 3.12
3 1 2 171.78 3.15
3 -1 2 168.16 2.66
3 1 2 171.43 2.86
-3 1 -2 174.86 3.35
-3 -1 -2 175.29 2.76
-3 -1 -2 172 3.17
-3 1 -2 174.42 3.21
3 -1 2 173.26 3.09
-3 -1 -3 129.85 3.54
3 1 3 133.99 2.57
3 1 3 134.49 2.92
-3 1 -3 135.9 3.7
-3 -1 -3 135.21 2.31
-3 -1 -3 130.91 2.7
-3 1 -3 138.7 2.9
3 1 3 127.94 2.53
-3 1 -4 598.7 8.29
-3 -1 -4 592.07 9.05
3 1 4 587.86 8.56
3 1 4 636.98 9.11
-3 -1 -4 607.93 8.61
-3 -1 -4 600.12 8.89
-3 1 -4 643.16 9.51
-3 -1 -5 94.3 2.21
3 -1 5 101.7 1.74
3 -1 5 107.01 4.11
3 1 5 100.57 2.19
-3 -1 -5 94.61 1.86
-3 -1 -5 94.43 2.16
-3 1 -5 99.6 2.33
-3 1 -6 19.64 1.87
-3 -1 -6 17.79 1.91
3 -1 6 14.36 0.55
3 -1 6 17.76 2.23
3 1 6 16.62 1.56
-3 -1 -6 13.99 1.01
-3 1 -6 17.4 1.21
-3 -1 -7 25.87 2.59
-3 1 -7 21.4 2.06
3 -1 7 14.89 0.67
3 -1 7 17.21 1.71
3 1 7 15.98 0.92
-3 -1 -7 18.65 1.18
-3 1 -7 16.23 1.07
-3 -1 -8 119.56 3.93
-3 1 -8 118.54 3.66
3 -1 8 123.34 3.75
3 -1 8 130.43 6.3
3 1 8 128.97 4.13
-3 1 -8 116.89 4.01
-3 -1 -9 290.02 7.33
-3 1 -9 287.98 6.89
3 -1 9 246.61 5.97
3 -1 9 292.47 7.65
3 1 9 287.36 7.19
-3 -1 -9 294.96 7.76
-3 1 -9 287.85 7.47
-3 -1 -10 28.01 1.8
-3 1 -10 31.05 1.61
3 -1 10 25.84 2.83
3 1 10 32.75 2.03
-3 -1 -10 35.8 2.33
-3 1 -10 31.17 1.97
-3 -1 -11 56.69 2.86
-3 1 -11 50.99 2.37
3 -1 11 54.24 7.25
3 1 11 51.14 2.71
-3 -1 -11 47.97 2.66
-3 1 -11 52.06 2.94
-3 -1 -12 5.09 0.83
-3 1 -12 4.84 0.7
3 -1 12 3.7 1.18
3 1 12 4.09 1.02
-3 -1 -12 1.42 0.74
-3 1 -12 6.97 1.37
-3 -1 -13 1.38 0.69
-3 1 -13 1.08 0.37
3 -1 13 3.2 1.07
3 1 13 3.07 1.03
-3 -1 -13 3.15 1.04
-3 1 -13 0.57 0.76
-3 -1 -14 0.79 0.51
-3 1 -14 0.79 0.47
3 -1 14 1.98 0.97
3 1 14 2.31 1.18
-3 -1 -14 1.2 0.89
-3 1 -14 2.65 1.18
-3 -1 -15 52.28 2.19
3 -1 15 48.46 5.99
3 1 15 46.43 2.27
-3 -1 -15 47.24 2.11
-3 1 -15 47.35 2.46
-3 -1 -16 2.53 0.81
3 -1 16 5.53 1.26
3 1 16 3.26 1
-3 -1 -16 3.53 1.51
-3 1 -16 5.2 1.65
3 -2 -16 7.41 1.99
3 2 -16 6.86 1.91
-3 -2 16 4 1.34
-3 2 16 1.9 1.09
3 -2 -16 4.16 1.45
3 2 -16 3.29 1.56
3 -2 -15 10.46 1.56
3 2 -15 4.79 1.31
-3 -2 15 9.01 1.75
-3 2 15 10.05 1.49
3 -2 -15 7.57 1.11
3 2 -15 6.26 1.81
3 -2 -14 9.13 1.34
3 2 -14 9.89 1.49
-3 -2 14 5.95 2.18
-3 2 14 9.37 1.48
3 2 -14 10.16 1.27
3 -2 -13 12.28 1.58
3 2 -13 13.27 1.42
-3 -2 13 12.28 1.95
-3 2 13 10.52 1.35
3 -2 -13 9.25 1.07
3 2 -13 6.89 1.12
3 -2 -12 32.05 2.26
3 2 -12 29.07 4.13
-3 -2 12 26.7 2.14
-3 2 12 30.27 2.16
3 -2 -12 26.91 1.65
3 2 -12 31.11 2.17
3 -2 -11 273.13 11.1
3 2 -11 244.98 9.93
-3 -2 11 256.38 10.44
-3 2 11 238.13 9.74
3 -2 -11 264.44 10.47
3 -2 -10 321.65 12.28
3 2 -10 308.67 11.8
-3 -2 10 320.98 12.3
-3 2 10 322.24 12.5
-3 -2 10 321.97 12.6
3 -2 -10 335.34 12.54
3 -2 -9 103.2 3.75
3 2 -9 129.82 4.55
-3 -2 9 104.19 5.87
3 -2 -9 107.35 3.43
3 -2 -8 4.93 0.9
3 2 -8 5.52 0.92
-3 -2 8 2.56 0.67
-3 2 8 1.39 0.64
-3 2 8 1.46 0.46
-3 -2 8 3.81 0.89
3 -2 -8 1.35 0.29
3 -2 -7 13.21 1.08
3 2 -7 13.54 0.95
-3 -2 7 17.39 1.38
-3 2 7 11.91 1.11
-3 2 7 13.11 1.33
-3 -2 7 18.14 1.82
3 -2 -7 12.65 0.68
3 -2 -6 8.21 0.8
3 2 -6 6.71 0.83
-3 -2 6 8.56 0.84
-3 2 6 108.18 14.63
-3 2 6 8.62 0.95
-3 -2 6 9.49 1.31
3 -2 -6 6.29 0.49
3 -2 -5 41.69 1.34
3 2 -5 40.54 1.41
-3 -2 5 47.37 1.32
3 2 -5 42.2 1.21
-3 2 5 37.25 1.34
-3 -2 5 53.13 4.75
-3 2 5 41.37 1.2
3 -2 -5 39.19 1.03
3 -2 -4 933.23 13.35
3 2 -4 964.9 13.91
-3 -2 4 1035.64 14.39
3 2 -4 916.61 12.71
-3 2 4 934.59 13.46
-3 2 4 978.47 13.58
3 -2 -4 970.1 13.4
3 2 -3 231.75 4.11
-3 -2 3 230.5 3.52
3 2 -3 227.75 3.44
-3 -2 3 245.14 4.94
-3 2 3 238.49 3.74
3 -2 -3 226.11 3.48
3 -2 -2 966.45 14.07
-3 2 2 950.81 13.83
3 2 -2 947.69 14.09
-3 -2 2 951.98 13.53
3 2 -2 915.88 13.01
-3 2 2 941.06 13.99
-3 -2 2 899.04 13.39
-3 2 2 938.33 13.56
3 -2 -2 938.46 13.52
3 -2 -1 54.28 1.25
-3 2 1 52.74 1.2
3 2 -1 51.71 1.48
-3 -2 1 54.08 0.89
3 2 -1 54.82 0.91
-3 2 1 50.68 1.54
-3 -2 1 50.53 1.5
3 2 -1 51.27 1.48
-3 2 1 52.17 1.3
3 -2 -1 53.49 1.22
-3 -2 0 7.74 0.79
3 -2 0 4.32 0.41
-3 2 0 5.55 0.4
-3 2 0 4.13 0.61
-3 -2 0 6.74 0.7
3 2 0 5.07 0.59
-3 2 0 6.63 0.68
3 -2 0 5.46 0.46
-3 -2 -1 23.32 2.78
3 -2 1 16.58 0.51
-3 2 -1 16.24 0.51
-3 2 -1 17.17 0.99
-3 -2 -1 16.32 0.97
3 2 1 13.12 0.75
-3 2 -1 16.67 0.88
3 -2 1 18.65 0.8
-3 -2 -2 808.7 12.31
3 -2 2 809.82 10.86
3 -2 2 778.84 10.44
3 2 2 814.05 11.05
-3 -2 -2 784.43 10.58
-3 2 -2 787.28 11.43
-3 -2 -2 823.76 11.78
3 2 2 784.85 11.21
-3 2 -2 831.82 11.88
3 -2 2 808.61 11.48
-3 -2 -3 30.11 2.9
3 -2 3 32.99 2.91
3 2 3 28.59 1.34
-3 -2 -3 25.59 1.12
-3 2 -3 24.08 1.04
-3 -2 -4 98.2 2.32
3 -2 4 113.51 2.71
3 2 4 104.33 1.89
-3 -2 -4 97.51 1.72
-3 2 -4 104.45 2.46
-3 -2 -5 156.26 3.19
3 -2 5 155.53 3.52
3 2 5 143.63 2.59
-3 -2 -5 146.03 2.52
-3 -2 -5 148.06 3.06
-3 2 -5 151.27 3.11
-3 2 -6 78.06 1.78
-3 -2 -6 86.77 2.73
3 -2 6 90.9 2.02
3 -2 6 90.74 5.6
3 2 6 82.08 2.26
-3 -2 -6 77.56 2.05
-3 -2 -6 84.45 2.55
-3 2 -6 87.46 2.77
-3 2 -7 18.78 1.43
-3 -2 -7 24.41 2.4
3 -2 7 19.43 0.63
3 -2 7 24.2 2.49
3 2 7 17.91 1.02
-3 -2 -7 24.22 1.51
-3 2 -7 17.54 1.31
-3 -2 -8 213.09 6.88
-3 2 -8 182.82 5.22
3 -2 8 183.75 6.08
3 2 8 176.17 5.33
-3 -2 -8 183.75 5.78
-3 2 -8 186.43 5.95
-3 -2 -9 327.94 12.61
-3 2 -9 321.97 11.85
3 -2 9 328.91 12.73
3 2 9 323.6 12.16
-3 -2 -9 306.72 11.62
-3 2 -9 341.28 13.06
-3 -2 -10 66.21 3.38
-3 2 -10 64.48 2.75
3 -2 10 78.52 8.05
3 2 10 64.41 3.01
-3 -2 -10 68.83 3.48
-3 2 -10 74.15 3.62
-3 -2 -11 43.63 2.56
-3 2 -11 35.54 1.85
3 -2 11 47.06 5.53
3 2 11 38.64 2.28
-3 -2 -11 39.34 2.45
-3 2 -11 41.09 2.7
-3 -2 -12 2.53 0.93
3 -2 12 1.93 1.03
3 2 12 1.16 0.54
-3 -2 -12 -0.15 0.63
-3 2 -12 2.13 1.25
-3 -2 -13 2.68 1.13
3 -2 13 5.66 1.74
3 2 13 3.26 1.22
-3 -2 -13 4.79 1.63
-3 2 -13 0.61 0.88
-3 -2 -14 4.82 1.53
3 -2 14 2.32 1.13
3 2 14 2.05 1
-3 -2 -14 3.34 1.15
-3 2 -14 0.68 0.9
-3 -2 -15 9.56 2.78
3 -2 15 10.26 2.16
3 2 15 13.95 2.3
-3 2 -15 8.26 2.2
3 -3 -15 2.4 1.31
3 3 -15 2.37 0.95
-3 -3 15 0.34 0.81
-3 3 15 2.61 1.17
3 3 -15 1.44 0.89
3 -3 -14 5.81 1.86
3 3 -14 8.73 1.4
-3 -3 14 5.31 1.62
-3 3 14 9.23 1.54
3 3 -14 6.17 1.74
3 -3 -13 95.98 3.96
3 3 -13 95.79 3.82
-3 -3 13 99.3 4.24
-3 3 13 88.48 3.8
3 3 -13 105.86 4.31
3 -3 -12 49.04 3.31
3 3 -12 49.66 3.2
-3 -3 12 54.55 3.65
-3 3 12 59.12 3.82
3 -3 -12 48.04 2.82
3 3 -12 47.44 3.18
3 -3 -11 104.41 5.31
3 3 -11 116.24 5.74
-3 -3 11 117.04 5.75
-3 3 11 98.99 4.97
3 -3 -11 110.12 5.07
3 3 -11 121.84 5.98
3 -3 -10 39.3 2.38
3 3 -10 41.63 2.33
-3 -3 10 41.27 2.5
-3 -3 10 42.47 2.5
3 -3 -10 39.93 1.82
3 -3 -9 4.79 0.72
3 3 -9 7.61 0.99
-3 -3 9 7.8 0.98
-3 3 9 5.18 1.02
-3 -3 9 9.82 1.35
3 -3 -9 4.26 0.43
3 -3 -9 7.75 0.58
3 -3 -8 12.81 1.17
3 3 -8 11.36 0.95
-3 -3 8 13.61 1.13
-3 3 8 12.1 1.49
-3 -3 8 13.75 1.85
3 -3 -8 10.94 0.59
3 -3 -8 10.76 0.51
3 -3 -7 43.55 2.11
3 3 -7 50.27 2.05
-3 -3 7 46.84 1.94
-3 3 7 52.68 2.67
-3 -3 7 51.74 5.08
3 -3 -7 42.28 1.39
3 3 -6 0.58 0.44
-3 -3 6 3.88 0.89
-3 3 6 1.99 0.86
-3 3 6 2.42 0.44
-3 -3 6 1.46 0.49
3 -3 -6 0.01 0.09
3 -3 -5 28.99 1.42
3 3 -5 27.01 1.36
-3 -3 5 25 1.09
3 3 -5 23.62 0.88
-3 3 5 26.86 1.47
-3 3 5 29.04 2.04
-3 -3 5 33.41 3.21
-3 -3 4 45.94 2.88
3 3 -4 39.35 2.02
3 -3 -2 9.44 0.61
-3 3 2 7.39 0.5
3 3 -2 12.41 0.95
-3 -3 2 8.86 0.82
3 3 -2 8.81 0.35
-3 3 2 9.22 0.99
-3 -3 2 10.98 1.06
-3 3 2 8.12 0.47
3 -3 -2 10.5 0.47
-3 -3 1 27.69 1.27
3 -3 -1 28.39 1
-3 3 1 23.94 0.73
3 3 -1 25.45 0.44
-3 3 1 25.83 1.37
-3 3 1 25.98 0.91
3 -3 -1 24.78 0.76
-3 -3 0 107.49 3.7
3 -3 0 98.62 1.78
-3 3 0 96.73 1.74
-3 3 0 94.46 2.33
-3 -3 0 96.66 2.27
-3 3 0 94.21 1.92
-3 -3 -1 1.66 0.41
3 -3 1 0.84 0.17
-3 3 -1 0.7 0.16
-3 3 -1 2.28 0.88
-3 -3 -1 0.19 0.37
-3 3 -1 2.08 0.42
3 -3 1 1.08 0.27
-3 -3 -2 3.96 0.61
-3 3 -2 4.46 0.78
-3 -3 -2 4.18 0.59
-3 3 -2 6.4 0.76
-3 -3 -3 7.62 1.03
3 3 3 6.2 0.32
-3 -3 -3 5.6 0.29
-3 3 -3 7.5 0.71
-3 -3 -4 10.63 1.28
3 -3 4 7.67 1.22
-3 -3 -4 7.78 0.77
-3 -3 -5 20.45 2.31
3 -3 5 22.03 2.18
3 3 5 15.21 0.73
-3 -3 -5 16.55 0.71
-3 -3 -5 16.74 1.13
-3 3 -5 14.15 0.97
-3 -3 -6 72.38 6.98
3 -3 6 70.66 5.35
3 3 6 69.66 2.31
-3 -3 -6 67.8 2.28
-3 -3 -6 66.39 2.49
-3 3 -6 71.65 2.77
-3 -3 -7 27.75 5.13
3 -3 7 23.28 2.98
3 3 7 32.36 1.25
-3 -3 -7 30.78 1.52
-3 3 -7 33.89 1.8
-3 -3 -8 25.59 2.66
3 -3 8 26.5 2.79
3 3 8 23.92 1.43
-3 -3 -8 27.84 1.73
-3 3 -8 22.34 1.71
-3 -3 -9 3.09 0.69
3 -3 9 7.35 1.24
3 3 9 2.66 0.74
-3 -3 -9 2.75 0.75
-3 3 -9 1.72 0.73
-3 -3 -10 40.62 4.5
3 -3 10 35.58 4.26
3 3 10 38.33 2.28
-3 -3 -10 31.15 2.01
-3 3 -10 30.02 2.06
-3 -3 -11 2.59 0.89
3 -3 11 2.14 0.79
3 3 11 2.05 0.67
-3 -3 -11 2.84 0.8
-3 3 -11 1.86 1.4
-3 -3 -12 12.2 2.23
3 -3 12 12.37 2.26
3 3 12 10.95 1.12
-3 -3 -12 13.69 1.31
-3 3 -12 13.02 1.29
-3 -3 -13 2.54 0.92
3 -3 13 0.51 0.79
3 3 13 2.5 0.97
-3 -3 -13 3.42 1.21
-3 3 -13 4.34 1.22
-3 -3 -14 3.13 1.26
3 -3 14 2.81 0.82
3 3 14 1.6 0.62
-3 3 -14 5.39 1.95
-3 -3 -15 8.05 1.58
3 -3 15 4.28 1.19
3 3 15 4.06 1
-3 -3 -15 6.07 1.26
-3 3 -15 6.34 1.33
3 -4 -14 24 3.29
3 4 -14 8.17 2.11
-3 -4 14 8.83 2.99
-3 4 14 13.91 2.26
3 4 -14 17.45 2.61
3 -4 -13 96.85 9.32
3 4 -13 89.75 8.52
-3 -4 13 81.47 11.95
-3 4 13 98.84 25.22
3 4 -13 103.35 26.38
3 -4 -12 72.11 3.43
3 4 -12 71.8 3.04
-3 -4 12 68.32 7.05
-3 4 12 75.16 3.46
3 4 -12 69.86 3.22
3 -4 -11 6.65 1.64
3 4 -11 3.37 0.88
-3 -4 11 5.78 1.26
-3 4 11 4.32 1.22
3 4 -11 5.44 1.29
3 -4 -10 69.49 10.85
3 4 -10 7.2 1.05
-3 -4 10 8.78 1.49
-3 4 10 5.77 1.09
-3 -4 10 6.48 1.24
3 4 -9 2.15 0.82
-3 -4 9 4.81 0.98
-3 4 9 2.69 0.73
-3 -4 9 2.23 0.89
3 4 -8 38.24 2.1
-3 -4 8 45.32 4.75
-3 4 8 42.67 2.42
-3 -4 8 42.47 5.86
3 4 -7 34.33 1.86
-3 -4 7 36.11 3.23
-3 4 7 40.93 2.42
-3 -4 7 35.56 3.65
3 -4 -6 192.73 5.39
3 4 -6 168.66 4.66
-3 -4 6 170.91 4.56
-3 4 6 167.92 4.77
3 -4 -5 2.84 0.89
3 4 -5 0.92 0.72
-3 -4 5 2.08 0.53
3 4 -5 0.58 0.27
-3 4 5 2.81 0.94
-3 -4 5 1.67 0.86
3 -4 -4 13.59 1.11
3 4 -4 14.36 1.26
-3 -4 4 11.92 1.23
3 4 -4 10.99 0.62
-3 4 4 17.43 1.47
-3 -4 4 12.62 1.8
3 -4 -3 14.48 1.03
3 4 -3 12.6 1.19
-3 -4 3 14.88 1.54
3 4 -3 11.72 0.58
-3 4 3 15.94 1.27
-3 -4 3 19.97 2.58
3 -4 -2 11.71 0.98
3 4 -2 17.37 1.18
3 4 -2 11.81 0.51
-3 4 2 13.96 1.35
3 4 -2 13.01 0.58
-3 -4 2 29.47 2.83
-3 4 2 11.58 0.49
3 -4 -2 9.29 0.4
-3 -4 1 102.46 3.21
3 -4 -1 102.87 2.72
-3 4 1 88.07 2.33
3 4 -1 93.2 2.11
-3 4 1 104.49 3.27
-3 -4 1 111.05 7.65
-3 4 1 93.77 2.34
3 -4 -1 91.15 2.22
-3 -4 0 62.81 6.85
3 -4 0 55.28 1.61
-3 4 0 54.79 2.14
-3 -4 0 59.5 3.97
-3 4 0 49.09 1.49
3 -4 0 45.29 1.36
-3 -4 -1 81 6.41
3 -4 1 55.63 2.34
-3 4 -1 58.94 1.52
-3 4 -1 60.45 2.19
-3 -4 -1 68.67 2.32
-3 4 -1 65.74 1.94
3 -4 1 54.8 1.6
3 -4 2 52.31 2.29
-3 -4 -2 69.08 5.98
3 4 2 56.55 1.69
3 4 2 59.72 1.69
-3 4 -2 72.33 2.92
-3 -4 -2 58.64 2.3
-3 4 -2 56.88 2.03
-3 -4 -3 0.73 0.44
3 4 3 0.56 0.17
3 4 3 0.36 0.16
-3 4 -3 1.01 0.71
-3 -4 -3 2.5 1.07
-3 4 -3 1.01 0.45
-3 -4 -4 3.88 0.83
3 4 4 1.02 0.2
-3 -4 -4 0.11 0.1
-3 4 -4 1.57 0.74
-3 -4 -4 3.23 1.01
-3 4 -4 1.42 0.54
-3 -4 -5 6.89 1.29
3 -4 5 5.54 1.02
3 4 5 9.39 0.61
-3 -4 -5 6.67 0.46
-3 -4 -5 6.57 0.9
-3 4 -5 8.03 0.87
-3 -4 -6 86.56 3.89
3 -4 6 91.09 4.18
3 4 6 94.49 3.74
-3 -4 -6 87.8 3.69
-3 4 -6 94.42 4.09
-3 -4 -7 87.6 7.26
3 -4 7 100.93 7.97
3 4 7 99.43 4.11
-3 -4 -7 88.15 3.86
-3 4 -7 96.14 4.51
-3 -4 -8 2.14 0.69
3 -4 8 2.55 0.91
3 4 8 1.5 0.48
-3 -4 -8 1.45 0.66
-3 4 -8 0.89 0.7
-3 -4 -9 7.25 1.74
3 -4 9 3.7 0.91
3 4 9 5.23 0.68
-3 -4 -9 5.53 1.04
-3 4 -9 6.45 0.99
-3 -4 -10 14.92 2.6
3 -4 10 11.52 2.51
3 4 10 15.8 1.65
-3 4 -10 9.7 1.36
-3 -4 -11 4.86 1.7
3 -4 11 3.09 1.46
3 4 11 2.01 0.87
-3 -4 -11 3.02 1.14
-3 4 -11 2.58 1.33
-3 -4 -12 7.37 1.95
3 -4 12 5.5 2.03
3 4 12 6.73 1.74
-3 -4 -12 5.89 1.64
-3 4 -12 6.6 1.83
-3 -4 -13 88.66 12.9
3 -4 13 100.46 12.93
3 4 13 105.53 12.28
-3 4 -13 117.45 13.84
-3 -4 -14 3.09 0.84
3 -4 14 3.99 1.18
3 -5 -13 58.97 9.1
3 5 -13 48.14 7.38
-3 -5 13 35.91 7.65
-3 5 13 60.52 9.27
3 5 -13 55.66 8.66
3 5 -12 27.19 1.49
-3 -5 12 18.98 3.52
-3 5 12 25.54 1.7
3 5 -12 37.14 2.32
3 -5 -11 11.21 1.73
3 5 -11 8.52 1.27
-3 -5 11 7.24 1.87
-3 5 11 26.22 3.54
3 5 -11 10.56 1.62
3 -5 -10 7.69 2.19
3 5 -10 8.1 1.98
-3 -5 10 2.45 1.11
-3 5 10 5.47 1.56
3 5 -10 6.96 1.97
3 -5 -9 4.18 1.28
3 5 -9 4.44 0.93
-3 -5 9 2.87 0.57
-3 5 9 3.12 0.88
-3 -5 9 2.02 0.71
3 -5 -8 6.09 1.43
3 5 -8 5.64 1.18
-3 -5 8 2.63 0.75
-3 5 8 0.32 0.62
-3 -5 8 2.03 0.81
3 -5 -7 20.86 1.73
3 5 -7 20.72 1.69
-3 -5 7 13.7 1.85
-3 5 7 23.2 1.83
-3 -5 7 17.22 2.6
3 -5 -6 13.59 1.27
3 5 -6 10.18 1.14
-3 -5 6 11.13 1.26
-3 5 6 18.18 1.65
-3 -5 6 9.65 1.47
3 -5 -5 3.83 0.83
3 5 -5 9.07 1.25
-3 -5 5 6.64 0.79
-3 5 5 5.94 1.04
-3 -5 5 4.12 1.02
3 -5 -4 9.55 1.16
3 5 -4 8.83 1.24
-3 5 4 14.38 1.77
-3 -5 4 11.36 1.65
3 -5 -3 7.64 0.94
3 5 -3 7.05 1.01
-3 5 3 7.64 1.01
3 5 -3 12.38 1.01
-3 -5 3 11.52 1.7
3 -5 -2 27.86 1.55
3 5 -2 29.02 1.98
-3 5 2 26.46 1.8
3 5 -2 25.04 1.15
-3 -5 2 36.74 3.09
-3 5 2 21.41 0.86
-3 -5 1 7.34 1.27
3 -5 -1 7.83 0.91
3 5 -1 6.42 0.43
-3 5 1 8.96 1.15
-3 -5 1 8.46 1.43
-3 5 1 5.41 0.48
3 -5 0 740.49 28.55
3 5 0 851.07 32.35
-3 5 0 839.7 32.5
-3 5 0 754.03 28.82
-3 -5 -1 40.05 4.77
3 -5 1 29.95 2.59
-3 5 -1 41.24 2.39
-3 -5 -1 36.49 3.64
-3 5 -1 33.16 1.58
3 -5 2 6.86 0.79
-3 -5 -2 7.69 0.85
3 5 2 6.01 0.7
-3 5 -2 8.23 1.04
-3 -5 -2 7.98 1.03
-3 5 -2 12.52 0.98
-3 -5 -3 19.56 2.26
3 5 3 12.39 0.64
-3 5 -3 19.06 1.88
-3 5 -3 16.85 1.19
-3 -5 -4 13.65 1.72
3 5 4 13.84 0.71
-3 5 -4 14.52 1.4
-3 -5 -4 14.18 1.1
-3 5 -4 15.52 1.15
-3 -5 -5 18.08 2.55
3 5 5 15.15 0.84
-3 5 -5 17.23 1.62
-3 -5 -5 15.17 1.17
-3 5 -5 12.6 1.09
-3 -5 -6 231.01 11.17
-3 5 -6 201.08 9.32
-3 -5 -7 220.81 11.96
3 -5 7 219.84 11.86
-3 -5 -7 215.98 11.32
-3 5 -7 232.04 12.35
-3 -5 -8 45.8 5.39
3 -5 8 46.11 6.19
-3 -5 -8 40.63 3.33
-3 5 -8 48.12 4.11
-3 -5 -9 8.83 1.24
3 -5 9 8.61 1.66
-3 5 -9 6.68 1.96
-3 -5 -10 4.43 1.4
3 -5 10 2.31 1.03
-3 5 -10 6.34 1.84
-3 -5 -11 0.74 0.72
3 -5 11 2.84 1.31
-3 5 -11 3.07 1.37
-3 -5 -12 2.65 1.47
3 -5 12 5.41 2.16
-3 5 -12 4.66 1.75
3 -6 -11 12.36 2.37
3 6 -11 10.22 1.87
-3 6 11 25.71 4.46
3 6 -11 13.16 2.37
3 -6 -10 10.9 1.99
3 6 -10 5.27 1.38
-3 -6 10 9.63 3.14
-3 6 10 11.23 1.8
3 6 -10 11.91 1.88
3 -6 -9 0.59 0.75
3 6 -9 1.36 0.61
-3 -6 9 1 0.67
-3 6 9 2.28 1.25
3 6 -9 3.64 1.45
3 -6 -8 1.28 1.1
3 6 -8 3.53 1.22
-3 -6 8 0.33 0.42
-3 6 8 2.15 0.96
3 6 -8 0.37 0.66
3 -6 -7 6.75 2.03
3 6 -7 5.96 1.68
-3 -6 7 3.98 1.29
-3 6 7 7.09 2.1
-3 -6 7 4.01 1.37
3 -6 -6 5.4 1.58
3 6 -6 4.78 1.48
-3 -6 6 2.59 0.9
-3 6 6 3.87 1.27
-3 -6 6 3.61 1.5
3 -6 -5 14.19 1.6
3 6 -5 12.8 1.5
-3 6 5 13.93 1.6
-3 -6 5 14.23 2.97
3 -6 -4 71.65 4.19
3 6 -4 67.56 4.16
-3 6 4 74.24 4.56
-3 -6 4 60.49 5.78
3 -6 -3 1.18 0.79
3 6 -3 6.3 1.37
-3 6 3 2.7 1.1
-3 -6 3 3.01 0.87
3 -6 -2 8.8 1.26
3 6 -2 10.86 1.45
-3 6 2 12.06 1.46
-3 -6 2 8.72 1.72
-3 -6 1 2.71 1.06
-3 6 1 8.7 1.28
-3 -6 1 2.82 0.65
-3 -6 0 18.76 2.98
3 -6 0 15.1 1.69
-3 6 0 20.41 1.77
-3 -6 0 14.1 2.1
3 -6 1 1.53 0.57
-3 6 -1 6.75 1.28
-3 -6 -1 2.27 0.45
-3 6 -1 2.39 0.41
-3 -6 -2 6.13 1.14
-3 6 -2 4.95 0.88
-3 -6 -2 3.28 0.66
-3 6 -2 3.54 0.55
-3 -6 -3 1.01 0.81
-3 6 -3 5.13 0.99
-3 -6 -3 5.95 3.39
-3 6 -3 1.45 0.5
-3 -6 -4 5.46 1.44
-3 6 -4 8.89 1.49
-3 -6 -4 2.97 0.75
-3 6 -4 6.47 0.96
-3 -6 -5 3 1.02
-3 6 -5 1.55 0.83
-3 6 -5 1.87 0.84
-3 -6 -6 8.81 1.13
-3 6 -6 12.16 1.56
-3 6 -6 6.52 1.81
-3 -6 -7 1.97 1
-3 6 -7 4.96 1.66
-3 6 -7 2.55 1.01
-3 -6 -8 0.93 0.64
-3 6 -8 2.55 1.27
-3 6 -8 1.19 0.92
-3 -6 -9 2.69 1.08
3 -6 9 0.73 0.68
-3 6 -9 3.87 1.32
-3 -6 -10 2.32 1.09
3 -6 10 1.1 0.91
-3 6 -10 3.83 1.59
3 -7 -8 17.35 2.12
3 7 -8 12.82 1.69
-3 7 8 17.12 2.16
3 7 -8 19.29 2.13
3 -7 -7 19.11 3.24
3 7 -7 14.83 2.54
-3 7 7 14.96 2.66
3 7 -7 20.69 3.39
3 -7 -6 9.65 3.11
3 7 -6 5.06 1.44
-3 7 6 7.2 1.98
3 7 -6 6.95 1.84
3 7 -5 19.36 1.69
-3 7 5 27.62 1.73
3 -7 -4 94.78 7.01
3 7 -4 127.35 29.3
-3 7 4 140.93 32.4
3 -7 -3 13.96 2.62
3 7 -3 15.27 1.94
-3 7 3 24.35 2.79
-3 -7 3 9.61 2.38
3 7 -2 32.66 3.45
-3 7 2 39.88 4.08
-3 -7 2 25.46 5.08
3 7 -1 5.33 1.52
-3 7 1 10.5 1.54
-3 -7 1 5.52 1.58
-3 -7 0 18.83 2.43
-3 7 0 19.72 2.57
-3 -7 -1 3.31 1.12
-3 7 -1 4.57 1.64
-3 -7 -2 28.8 5.05
-3 7 -2 38.37 4.11
-3 -7 -3 16.51 3.07
-3 7 -3 17.7 2.24
-3 -7 -4 13.04 2.89
-3 7 -4 20.31 1.76
-3 -7 -5 7.63 2.25
-3 7 -5 5.06 1.6
-3 7 -6 3.35 1.5
-3 -7 -7 1.97 0.93
-3 7 -7 6.23 1.28
4 0 -16 6.95 2
-4 0 16 12.07 2.2
4 0 -16 13.58 2.21
4 0 -15 1.6 0.91
-4 0 15 0.12 0.77
4 0 -15 0.92 0.94
4 0 -14 1.22 0.85
-4 0 14 1.42 1.15
4 0 -14 2.15 0.95
4 0 -13 19.83 1.74
-4 0 13 19.66 1.83
4 0 -13 20.67 1.71
4 0 -12 3.91 1.12
-4 0 12 4.14 1.47
-4 0 12 1.3 0.68
4 0 -11 18.45 1.5
-4 0 11 20.07 1.59
-4 0 11 17.86 3.26
4 0 -10 1.87 1.18
-4 0 10 1.03 0.81
-4 0 10 1.45 0.73
4 0 -9 58.29 2.37
-4 0 9 59.45 2.4
-4 0 9 67.77 4.76
4 0 -8 3.92 0.71
-4 0 8 4.18 0.78
-4 0 8 7.11 1.4
4 0 -7 4.93 0.78
-4 0 7 8.03 0.97
-4 0 7 9.01 0.91
4 0 -6 14.32 1.15
-4 0 6 8.08 0.68
-4 0 6 9.89 1.13
4 0 -5 137.57 2.77
-4 0 5 144.76 3.14
4 0 -4 3.62 0.51
4 0 -4 3.25 0.4
-4 0 4 5.34 0.68
4 0 -3 4.24 0.59
-4 0 3 5.69 0.63
4 0 -3 5.74 0.52
-4 0 3 5.08 0.65
4 0 -2 121.37 2.43
-4 0 2 125.36 2.44
4 0 -2 118.34 2.28
-4 0 2 124.8 2.63
4 0 -1 2.14 0.78
-4 0 1 1 0.5
4 0 -1 0.41 0.34
-4 0 1 1.84 0.55
4 0 0 33.93 2.31
4 0 0 36.92 1.2
-4 0 0 34.21 1
-4 0 0 32.93 1.05
-4 0 0 30.79 1.28
4 0 1 30.93 1.42
4 0 1 29.39 0.93
-4 0 -1 30.93 2
-4 0 -1 33.14 1.17
-4 0 -1 30.31 1.35
4 0 2 35.53 3.28
4 0 2 30.04 0.94
-4 0 -2 32.83 1.95
-4 0 -2 31.69 1.09
-4 0 -2 36.91 1.42
-4 0 -3 38.98 1.5
4 0 3 30.5 2.31
4 0 3 36.08 1.5
-4 0 -3 38.95 2.66
-4 0 -3 37.94 1.4
-4 0 -4 39.92 1.7
4 0 4 39.05 1.11
4 0 4 39.48 1.42
-4 0 -4 38.28 1.44
-4 0 -5 4.64 0.55
4 0 5 3.16 0.37
4 0 5 4.71 0.83
-4 0 -5 2.9 0.68
-4 0 -6 1.55 0.31
4 0 6 1.3 0.36
4 0 6 1.69 0.34
-4 0 -6 2.21 1.19
-4 0 -7 16.74 1.46
4 0 7 16.28 1.71
-4 0 -7 12 1.25
-4 0 -8 272.88 7.03
4 0 8 296.09 7.42
-4 0 -8 281.98 7.23
-4 0 -9 14.36 1.77
4 0 9 12.53 2.6
-4 0 -9 8.96 0.96
-4 0 -10 58.35 3.53
4 0 10 66.41 4.52
-4 0 -10 66.32 3.41
-4 0 -11 0.98 0.51
4 0 11 1.48 0.72
-4 0 -11 2.62 1.06
-4 0 -12 8.57 1.37
4 0 12 7.33 2.11
-4 0 -12 10.6 1.68
-4 0 -13 2.91 0.99
4 0 13 4.75 1.6
-4 0 -13 2.12 1.01
-4 0 -14 54.17 8.22
4 0 14 53.81 9.53
-4 0 -14 69.57 6.85
4 0 15 10.89 2.89
-4 0 -15 14.16 2.65
4 -1 -16 7.18 2.05
4 1 -16 6.81 1.9
-4 -1 16 11.72 2.02
-4 1 16 10.15 1.76
4 -1 -16 4.24 1.35
4 1 -16 8.16 2.23
4 -1 -15 11.52 1.75
4 1 -15 12.59 1.6
-4 -1 15 13.84 1.96
-4 1 15 10.57 1.75
4 -1 -15 17.19 2.02
4 1 -15 17.63 2.47
4 -1 -14 2.47 0.99
4 1 -14 1.5 0.74
-4 -1 14 2.78 1.37
-4 1 14 0.97 0.98
4 -1 -14 1.06 0.62
4 1 -14 1.8 1.01
4 -1 -13 122.76 6.94
4 1 -13 131.17 7.37
-4 -1 13 123.28 7.03
-4 1 13 127.25 7.26
4 -1 -13 130.24 7.18
4 1 -13 130.33 7.37
4 -1 -12 21.94 1.77
4 1 -12 24.77 2.01
-4 -1 12 20.84 2.03
-4 1 12 22.28 1.89
-4 -1 12 28.27 2.13
4 -1 -12 25.15 1.88
4 -1 -11 205.8 8.49
4 1 -11 222.21 9.17
-4 -1 11 215.42 8.89
-4 1 11 206.89 8.65
-4 1 11 196.03 7.98
-4 -1 11 228.78 9.94
4 -1 -10 109.58 4.67
4 1 -10 101.41 4.34
-4 -1 10 110.27 4.85
-4 1 10 114.84 7.84
-4 1 10 102.38 8.59
-4 -1 10 112.35 9.99
4 -1 -9 164.65 4.74
4 1 -9 152.21 4.37
-4 -1 9 147.86 4.28
-4 1 9 150.89 4.33
-4 1 9 152.06 6.8
-4 -1 9 150.17 4.58
4 -1 -8 25.99 1.47
4 1 -8 37 1.99
-4 -1 8 34.29 1.83
-4 1 8 35.57 1.95
-4 1 8 33.37 2.66
-4 -1 8 32.86 3.31
4 -1 -7 11.26 1
4 1 -7 8.53 0.99
-4 -1 7 10.47 0.92
-4 1 7 9.65 0.99
-4 -1 7 13.99 1.53
-4 1 7 11.75 1.26
4 -1 -6 42.07 1.45
4 1 -6 39.79 1.51
-4 -1 6 42.81 1.52
-4 1 6 36.75 1.41
-4 -1 6 96.55 9.93
-4 1 6 51.23 4.43
4 -1 -5 485.41 7.46
-4 -1 5 523.57 7.88
-4 1 5 521.58 8.11
4 1 -5 469.42 6.96
-4 -1 5 536.09 8.96
-4 1 5 479.16 8.75
4 -1 -4 157.71 3.02
4 1 -4 164.99 3.26
-4 -1 4 185.04 3.28
-4 1 4 162.5 3.2
4 1 -4 172.12 3.01
-4 -1 4 155.25 3.56
-4 1 4 158.49 3.01
4 -1 -4 150.75 2.81
4 -1 -3 2426.28 34.17
4 1 -3 2563.12 36.28
-4 -1 3 2251.17 31.44
4 1 -3 2185.6 30.53
-4 -1 3 2382.14 33.72
-4 1 3 2263.3 31.86
4 -1 -3 2196.06 30.91
4 -1 -2 366.12 5.66
-4 1 2 365.35 5.63
4 1 -2 371.03 5.95
-4 1 2 352.14 5.66
4 1 -2 374.84 5.51
-4 -1 2 359.1 5.8
-4 1 2 377.15 5.88
4 -1 -2 374.35 5.79
4 -1 -1 4.21 0.46
-4 1 1 4.36 0.44
4 1 -1 5.07 0.59
-4 -1 1 5.02 0.44
-4 1 1 3.77 0.57
4 1 -1 4.6 0.41
-4 -1 1 5.36 0.77
-4 1 1 2.29 0.44
4 -1 -1 4.33 0.51
4 -1 0 230.13 3.78
4 1 0 209.52 3.75
-4 1 0 226.01 3.68
-4 -1 0 227.46 3.62
-4 -1 0 217.38 3.42
-4 1 0 213.41 3.75
-4 -1 0 217.81 3.91
-4 1 0 226.47 4.03
4 -1 1 479.16 7.54
4 -1 1 458.77 6.62
-4 -1 -1 468.95 6.91
-4 -1 -1 441.54 6.29
-4 1 -1 486.67 7.43
-4 -1 -1 462.72 7.16
-4 1 -1 491.45 7.54
-4 -1 -2 145.45 3.07
4 -1 2 156.56 2.81
4 -1 2 158.8 2.6
-4 -1 -2 156.03 2.53
-4 1 -2 158.77 2.97
-4 -1 -2 153.53 2.52
-4 -1 -2 155.25 3.02
-4 1 -2 159.76 3.06
-4 -1 -3 30.35 2.69
4 -1 3 20.57 1.4
4 -1 3 22.42 0.73
4 -1 3 25.59 1.15
4 1 3 26.69 1.44
-4 -1 -3 23.52 0.72
-4 -1 -3 21.66 1.16
-4 1 -3 27.2 1.3
-4 -1 -4 148.81 2.94
4 -1 4 143.53 2.38
4 -1 4 151.25 3.49
4 1 4 151.3 2.79
-4 -1 -4 146.58 2.58
-4 -1 -4 153.06 3.33
-4 1 -4 154.59 3.23
-4 1 -5 19.5 1.51
-4 -1 -5 18.1 1.84
4 -1 5 18.59 0.76
4 -1 5 18.49 2.21
4 1 5 14.71 1.78
-4 -1 -5 17.52 1.22
-4 1 -5 13.71 1.12
-4 1 -6 30.12 1.66
-4 -1 -6 39.3 3.75
4 -1 6 27.69 2.24
4 1 6 26.21 1.71
-4 -1 -6 30.03 1.49
-4 1 -6 31.39 1.66
-4 1 -7 67.37 2.72
-4 -1 -7 72.13 4.06
4 -1 7 60.72 1.96
4 -1 7 69.02 5.66
4 1 7 84.16 5.95
-4 -1 -7 72.45 2.96
-4 1 -7 74.89 2.88
-4 1 -8 826.15 30.17
-4 -1 -8 905.02 33.24
4 -1 8 806.68 18.34
4 -1 8 936.88 34.47
4 1 8 896.98 33.17
-4 -1 -8 804.48 18.8
-4 1 -9 9.97 1.28
-4 -1 -9 10.63 1.42
4 -1 9 7.03 1.12
4 1 9 13.87 2.04
-4 1 -9 11.24 1.27
-4 1 -10 152.43 6.72
-4 -1 -10 153.35 7.68
4 -1 10 161.45 9.13
4 1 10 157.78 11.29
-4 -1 -10 142.48 6.59
-4 1 -10 151.33 6.97
-4 1 -11 1.98 0.54
-4 -1 -11 1.18 0.58
4 -1 11 4.96 1.11
4 1 11 2.17 0.97
-4 -1 -11 2.04 1.24
-4 1 -11 3.22 1.33
-4 1 -12 0.5 0.51
-4 -1 -12 2.84 0.76
4 -1 12 2.54 0.81
4 1 12 0.84 0.46
-4 -1 -12 1.92 1.17
-4 1 -12 0.92 0.82
-4 -1 -13 2.35 0.82
4 -1 13 1.74 0.8
4 1 13 3.01 0.96
-4 -1 -13 1.27 0.82
-4 1 -13 1.81 0.94
-4 -1 -14 9.51 1.59
4 -1 14 10.24 2.17
4 1 14 6.24 1.9
-4 -1 -14 10.28 1.44
-4 1 -14 12.24 1.72
-4 -1 -15 11.27 2.45
4 -1 15 10.87 2.84
4 1 15 8.13 2.91
-4 -1 -15 11.68 2.22
-4 1 -15 9.01 2.1
4 -2 -16 5.25 1.63
4 2 -16 8.27 1.6
-4 2 16 12.58 2.47
4 2 -16 7.19 1.56
4 -2 -15 16.54 1.5
4 2 -15 7.61 1.19
-4 -2 15 9.59 1.53
-4 2 15 8.37 1.54
4 -2 -15 10.02 1.24
4 -2 -14 7.56 1.34
4 2 -14 7.49 1.2
-4 -2 14 2.99 1.09
-4 2 14 7.36 1.33
4 -2 -14 4.35 1.21
4 2 -14 8.78 1.57
4 -2 -13 41.93 3.75
4 2 -13 35.34 3.1
-4 -2 13 38.79 3.52
-4 2 13 31.68 3
4 -2 -13 32.96 2.81
4 2 -13 34.75 3.09
4 -2 -12 61.11 3.79
4 2 -12 65.67 3.95
-4 -2 12 73.76 4.44
-4 2 12 61.68 3.91
-4 -2 12 60.57 3.81
4 -2 -12 74.36 4.27
4 -2 -11 74.53 3.93
4 2 -11 76.83 3.94
-4 -2 11 74.4 3.78
-4 2 11 82.07 5.68
-4 -2 11 72.21 7.77
4 -2 -11 83.48 3.98
4 -2 -10 15.7 1.55
4 2 -10 19.53 1.44
-4 -2 10 26.44 2.07
-4 2 10 18.77 1.57
-4 2 10 19.76 1.2
-4 -2 10 21.07 2.38
4 -2 -9 74.62 3.42
4 2 -9 69.23 3.2
-4 -2 9 74.08 3.26
-4 2 9 68.73 3.23
-4 2 9 80.45 4.25
-4 -2 9 81.06 8.51
4 -2 -8 4.54 0.77
4 2 -8 8.98 1.2
-4 -2 8 5.81 0.72
-4 2 8 7.53 1.13
-4 2 8 8.14 0.84
-4 -2 8 6.49 1.16
4 -2 -7 20.59 1.48
4 2 -7 22.64 1.48
-4 -2 7 23.42 1.34
-4 2 7 18.93 1.43
-4 2 7 22.9 1.93
-4 -2 7 22.23 2.56
4 -2 -6 11.05 0.89
4 2 -6 12.8 1.25
-4 -2 6 12.05 0.97
-4 2 6 9.13 1.17
-4 -2 6 14.56 1.69
-4 2 6 18.6 2
4 -2 -6 8.04 0.57
4 2 -5 57.42 1.9
-4 -2 5 62.73 1.52
-4 2 5 59.98 2.08
-4 -2 5 61.98 2.51
-4 2 5 62.91 2.4
4 -2 -5 54.34 1.4
4 -2 -4 98.45 2.41
4 2 -4 77.75 2.1
-4 -2 4 73.66 1.56
4 2 -4 81.68 1.7
-4 2 4 99.14 2.78
-4 -2 4 92.57 5.66
-4 2 4 82.64 1.86
4 -2 -4 81.77 1.78
4 2 -3 1365.65 19.89
-4 -2 3 1397.94 19.65
4 2 -3 1354.87 18.46
-4 2 3 1351.49 19.1
-4 -2 3 1346.71 19.13
-4 2 3 1335.98 18.49
4 -2 -3 1313.35 18.14
4 -2 -2 510.05 7.56
4 2 -2 551.67 8.45
-4 2 2 537.06 8.27
4 2 -2 524.09 7.29
-4 -2 2 547.09 8.4
-4 2 2 522.18 7.71
4 -2 -2 499.49 7.34
4 -2 -1 255.02 4.15
-4 2 1 258.61 4.05
4 2 -1 236.25 4.22
-4 2 1 258.81 4.61
-4 -2 1 263.56 4.66
-4 2 1 254.91 4.23
4 -2 -1 246.36 4
4 -2 0 16.11 0.63
-4 2 0 14.85 0.61
-4 -2 0 16.72 0.3
-4 -2 0 18.44 0.53
-4 2 0 18.77 1.15
-4 -2 0 16.31 1.11
-4 2 0 21.81 1.07
4 -2 0 15.66 0.78
-4 -2 -1 77.14 2.42
4 -2 1 69.55 1.32
-4 2 -1 73.81 1.36
-4 -2 -1 77.95 1.13
-4 2 -1 84.36 2.23
-4 -2 -1 73.15 1.94
-4 2 -1 75.76 1.9
-4 -2 -2 269.89 4.87
4 -2 2 254.88 3.94
4 -2 2 270.28 3.99
-4 -2 -2 257.34 3.75
-4 2 -2 258.27 4.59
-4 -2 -2 258.04 4.58
-4 2 -2 271.37 4.66
-4 -2 -4 222 4.38
4 -2 4 206.58 4.31
4 2 4 189.4 3.48
-4 -2 -4 192.13 3.1
-4 2 -4 194.17 3.74
-4 -2 -5 23.57 1.87
4 -2 5 26.85 2.73
4 2 5 19.73 1.88
-4 -2 -5 15.7 0.99
-4 -2 -5 21.78 1.4
-4 2 -5 20.91 1.29
-4 -2 -6 44.3 4.38
4 -2 6 40.43 1.17
4 -2 6 42.77 5.03
4 2 6 43.42 2.72
-4 -2 -6 34.17 1.33
-4 -2 -6 40.82 2.02
-4 2 -6 41.85 2
-4 -2 -7 26.91 3.34
4 -2 7 24.37 0.71
4 -2 7 25.92 3.08
4 2 7 27.31 1.7
-4 -2 -7 25.65 1.63
-4 2 -7 25.27 1.77
-4 2 -8 181.58 6.73
-4 -2 -8 206.45 8.19
4 -2 8 181.69 6.7
4 -2 8 218.82 8.69
4 2 8 223.86 11.25
-4 -2 -8 207.54 8.17
-4 2 -8 206.91 8.19
-4 2 -9 7.44 0.97
-4 -2 -9 12.76 1.52
4 -2 9 15.01 2
4 2 9 7.8 1.59
-4 -2 -9 8.81 1.13
-4 2 -9 8.28 0.9
-4 -2 -10 81.71 4.4
4 -2 10 90.84 8.94
4 2 10 76 5.31
-4 -2 -10 75.52 3.9
-4 2 -10 78.65 4.22
-4 -2 -11 17.51 2.44
4 -2 11 11.1 1.94
4 2 11 11.14 1.5
-4 -2 -11 14.73 1.73
-4 2 -11 10.77 1.44
-4 -2 -12 32.3 3.09
4 -2 12 27.19 5.09
4 2 12 24.93 4.09
-4 -2 -12 32.89 2.3
-4 2 -12 27.93 1.78
-4 -2 -13 2.15 0.69
4 -2 13 3.64 1.79
4 2 13 1.68 0.88
-4 -2 -13 2.42 1.54
-4 2 -13 3.43 1.57
-4 -2 -14 29.43 4.55
4 -2 14 19.21 4.78
4 2 14 20.17 4.54
-4 -2 -14 30.37 4.05
-4 2 -14 25.89 3.5
-4 -2 -15 2.4 0.84
4 -2 15 0.38 0.59
4 2 15 1.35 0.73
-4 -2 -15 2.15 1.03
-4 2 -15 1.62 0.98
4 -3 -15 3.22 1.32
4 3 -15 2.27 0.86
-4 -3 15 3.92 1.61
-4 3 15 3.91 1.52
4 3 -15 1.13 0.89
4 -3 -14 6.77 1.09
4 3 -14 9.43 1.13
-4 -3 14 4.03 1.51
-4 3 14 2.8 1.1
4 3 -14 4.95 1.71
4 -3 -13 4.66 1.59
4 3 -13 3.62 1.08
-4 -3 13 4.42 1.54
-4 3 13 2.68 0.97
4 3 -13 5.36 1.82
4 -3 -12 10.99 1.42
4 3 -12 10.55 1.31
-4 -3 12 16.14 1.99
-4 3 12 13.25 1.8
-4 -3 12 11.16 1.55
4 -3 -11 6.67 1.16
4 3 -11 15.56 2.07
-4 -3 11 4.36 1.01
-4 3 11 7.35 1.35
-4 -3 11 7.85 1.38
4 -3 -11 3.72 0.56
4 -3 -10 3.22 1.1
4 3 -10 3.86 0.99
-4 -3 10 3.65 0.99
-4 3 10 3.8 1.01
-4 -3 10 2.64 1.08
4 -3 -10 3.2 0.46
4 -3 -9 6.55 1.03
4 3 -9 6.67 0.95
-4 -3 9 6.84 0.95
-4 3 9 3.1 0.98
-4 -3 9 7.05 0.93
4 -3 -9 4.78 0.5
4 3 -8 6.55 0.99
-4 -3 8 6.57 0.74
-4 3 8 6.71 0.99
-4 3 8 7.97 1
-4 -3 8 8.15 1.39
4 -3 -8 4.21 0.51
4 -3 -7 1.94 0.89
4 3 -7 3.91 1.19
-4 -3 7 0.56 0.5
-4 3 7 2.15 0.95
-4 3 7 0.04 0.18
-4 -3 7 1.31 0.55
4 -3 -7 1.1 0.3
4 -3 -6 7.92 0.99
4 3 -6 7.01 0.86
-4 -3 6 5.72 0.71
-4 3 6 5.8 0.94
-4 3 6 7.59 0.81
-4 -3 6 9.1 1.35
4 -3 -6 4.98 0.41
4 -3 -5 18.89 1.36
4 3 -5 15.22 1.21
-4 -3 5 14.56 0.83
4 3 -5 12.78 0.7
-4 3 5 19.97 1.48
-4 -3 5 16.18 1.86
-4 3 5 15.2 1.43
4 -3 -5 12.49 0.67
4 -3 -4 1.96 0.76
4 3 -4 3.08 0.94
-4 -3 4 1.57 0.35
4 3 -4 28.2 5.27
-4 3 4 1.69 0.8
-4 -3 4 3.78 1.05
-4 3 4 1.9 0.47
4 -3 -4 0.45 0.17
4 -3 -3 20.42 0.99
4 3 -3 25.15 1.61
-4 -3 3 18.93 1.8
4 3 -3 18.62 0.66
-4 3 3 19.73 1.45
-4 -3 3 18.89 1.83
-4 3 3 20.5 0.9
4 -3 -3 17.66 0.76
4 -3 -2 29.74 1.21
-4 3 2 26.35 1.08
4 3 -2 30.04 1.67
-4 -3 2 25.07 0.99
-4 3 2 32.1 1.57
4 3 -2 26.72 0.67
-4 -3 2 26.74 1.38
-4 3 2 29.64 1.2
4 -3 -2 26.49 0.94
4 -3 -1 36.1 1.24
-4 3 1 34.1 1.16
4 3 -1 37.27 1.74
-4 3 1 41 1.89
-4 -3 1 35.61 1.58
-4 3 1 36.24 1.37
4 -3 -1 33.76 1.18
-4 -3 0 3.98 0.82
4 -3 0 5.8 0.46
-4 3 0 4.64 0.38
-4 3 0 5.28 0.81
-4 3 0 5.9 0.67
4 -3 0 3.13 0.38
-4 -3 -1 25.54 2.68
4 -3 1 23.3 0.86
-4 3 -1 17.09 0.63
-4 3 -1 16.01 1.18
-4 -3 -1 17.04 1.17
-4 3 -1 17.47 1.05
-4 -3 -2 26.43 1.8
-4 3 -2 22.74 1.44
-4 -3 -2 18.78 1.25
-4 3 -2 22.7 1.19
-4 -3 -3 2.45 0.74
-4 3 -3 2.76 0.71
-4 -3 -3 1.42 0.57
-4 3 -3 2.67 0.84
-4 -3 -4 37.35 4.17
4 3 4 26.56 1.41
-4 -3 -4 23.4 0.81
-4 -3 -4 27.44 1.56
-4 3 -4 29.28 1.48
-4 -3 -5 34.98 3.8
4 3 5 30.21 2.13
-4 -3 -6 38.13 4.1
4 -3 6 31.53 2.78
4 3 6 27.85 1.83
-4 -3 -6 29.57 1.5
-4 3 -6 25.46 1.55
-4 -3 -7 11.3 1.72
4 -3 7 13.43 1.54
4 3 7 8.97 1.09
-4 -3 -7 11.53 1.13
-4 3 -7 10.46 1.14
-4 -3 -8 23.12 2.78
4 -3 8 19.76 2.76
4 3 8 16.85 2.05
-4 -3 -8 17.05 1.47
-4 3 -8 17.39 1.55
-4 -3 -9 2.28 0.87
4 -3 9 1.51 0.93
4 3 9 1.92 0.55
-4 -3 -9 1.35 0.98
-4 3 -9 4.91 1.38
-4 -3 -10 4.79 0.95
4 -3 10 2.61 0.82
4 3 10 1.45 0.56
-4 3 -10 4.19 1.22
-4 -3 -11 3.83 1.63
4 -3 11 2.53 1.09
4 3 11 2.68 0.89
-4 -3 -11 1.34 0.85
-4 3 -11 7.64 2.16
-4 -3 -12 17.22 2.92
4 -3 12 11.97 2.79
4 3 12 12.59 2.12
-4 -3 -12 13.72 1.75
-4 3 -12 11.98 1.81
-4 -3 -13 2.59 0.98
4 -3 13 2.28 1.08
4 3 13 2.02 0.78
-4 -3 -13 5.17 1.66
-4 3 -13 6.68 1.35
-4 -3 -14 1.39 0.94
4 -3 14 3.86 1.59
4 3 14 0.8 0.53
-4 3 -14 0.54 0.84
4 -4 -14 87.55 13.61
4 4 -14 47.1 7.22
-4 -4 14 42.33 8.81
-4 4 14 61.93 9.58
4 4 -14 60.63 9.29
4 -4 -13 108.45 3.69
4 4 -13 95.3 2.65
-4 -4 13 74 8.53
-4 4 13 100.95 3.22
4 4 -13 106.67 3.09
4 -4 -12 9.55 1.47
4 4 -12 6.33 1.71
-4 -4 12 7.88 1.41
-4 4 12 7.17 1.31
4 -4 -11 0.51 0.7
4 4 -11 1.26 0.74
-4 -4 11 0.89 0.91
-4 4 11 3.83 2
-4 -4 11 0.83 0.66
4 -4 -10 2.66 1.15
4 4 -10 3.3 0.95
-4 -4 10 3.52 0.89
-4 4 10 4.87 1.18
-4 -4 10 4.26 1.25
4 -4 -9 2.94 0.89
4 4 -9 2.76 0.7
-4 -4 9 2.13 0.61
-4 4 9 4.75 1.22
-4 -4 9 5.26 1.15
4 -4 -8 18.19 1.48
4 4 -8 24.13 1.89
-4 -4 8 17.3 2.35
-4 4 8 32.44 2.93
-4 -4 8 19.37 2.49
4 -4 -7 45.48 2.42
4 4 -7 44.7 2.46
-4 -4 7 35.15 4.07
-4 -4 7 40.45 5.57
4 -4 -6 46.97 2.5
4 4 -6 50.78 2.67
-4 -4 6 36.09 3.96
-4 4 6 43.23 2.5
-4 -4 6 48.62 4.66
4 -4 -5 2.7 0.62
4 4 -5 2.68 0.72
-4 -4 5 1.01 0.36
-4 4 5 2.76 1
-4 4 5 1.58 0.28
4 -4 -5 1.31 0.16
4 -4 -4 5 0.78
4 4 -4 5.3 1.3
-4 -4 4 2.4 0.39
4 4 -4 1.76 0.26
-4 4 4 2.83 1.1
-4 -4 4 3.18 0.68
4 -4 -4 2.51 0.25
4 4 -3 45.17 2.1
-4 -4 3 38.9 1.77
4 4 -3 50.7 1.41
-4 4 3 45.29 2.01
-4 -4 3 63.5 5.03
-4 4 3 43.97 1.33
4 -4 -2 167.48 4.35
4 4 -2 164.49 4.73
-4 4 2 167.68 4.81
-4 -4 2 156.14 5.23
-4 4 2 156.38 3.87
4 -4 -2 139.02 3.44
4 -4 -1 898 20.41
-4 4 1 729.99 20.26
4 4 -1 802.72 22.66
-4 4 1 866.29 20.32
-4 -4 1 839.18 19.92
-4 4 1 848.03 19.26
4 -4 -1 732.45 20.27
-4 -4 0 466.36 13.66
4 -4 0 436.07 12.17
-4 4 0 391.66 10.95
-4 4 0 460.16 13.46
-4 -4 0 440.28 12.68
-4 4 0 426.7 12.04
-4 -4 -1 96.69 7.3
4 -4 1 85.67 2.18
-4 4 -1 86.97 2.26
-4 4 -1 70.61 2.53
-4 -4 -1 81.92 2.69
-4 4 -1 81.79 2.44
-4 -4 -2 2.18 0.66
-4 4 -2 4 1.09
-4 -4 -2 1.53 0.46
-4 4 -2 2.48 0.53
-4 -4 -3 3.02 0.61
-4 4 -3 2.33 0.72
-4 -4 -3 3.38 0.73
-4 4 -3 4.58 0.58
-4 -4 -4 30.81 4.03
-4 4 -4 22.09 1.6
-4 -4 -4 23.37 1.57
-4 4 -4 22.73 1.42
-4 -4 -5 96.82 5.9
4 4 5 91.65 3.67
-4 4 -5 94.91 4.32
-4 -4 -5 100.69 4.44
-4 4 -5 94.9 4.3
-4 -4 -6 555.33 21.99
4 -4 6 517.5 20.33
4 4 6 494.77 19.02
-4 -4 -6 525.58 20.43
-4 4 -6 535.68 20.9
-4 -4 -7 38.44 4.47
4 -4 7 16.8 3.89
4 4 7 16.14 1.03
-4 -4 -7 13.7 1.13
-4 4 -7 18.78 1.7
-4 -4 -8 14.2 2.41
4 -4 8 12.53 2.43
4 4 8 12.44 0.97
-4 -4 -8 18.95 1.63
-4 4 -8 15.36 1.5
-4 -4 -9 2.38 1.07
4 -4 9 5.26 1.4
-4 -4 -9 2.25 0.68
-4 4 -9 3.05 0.79
-4 -4 -10 12.53 2.37
4 -4 10 8.45 1.75
-4 -4 -10 13.42 1.19
-4 4 -10 10.81 1.32
-4 -4 -11 2.33 1.1
4 -4 11 0.52 0.72
-4 -4 -11 2.69 0.94
-4 4 -11 1.31 1.12
-4 -4 -12 18.67 4.13
4 -4 12 18.89 3.86
-4 -4 -12 14.33 2.1
-4 4 -12 21.63 2.98
-4 -4 -13 3.68 1.4
4 -4 13 4.23 1.53
-4 4 -13 3.13 0.86
4 -5 -12 15.12 2.31
4 5 -12 18 2.49
-4 -5 12 10.52 2.07
-4 5 12 33.92 4.69
4 5 -12 19.27 2.79
4 -5 -11 0.59 0.86
4 5 -11 0.45 0.6
-4 -5 11 1.22 0.77
-4 5 11 0.32 0.94
4 -5 -10 4.2 1.51
4 5 -10 4.31 1.32
-4 -5 10 1.49 0.71
-4 5 10 6.35 1.79
4 -5 -9 18.41 1.61
4 5 -9 12.48 1.19
-4 -5 9 9.08 1.9
-4 5 9 16.79 1.76
-4 -5 9 12.46 2.12
4 -5 -8 8.68 1.67
4 5 -8 6.48 1.25
-4 -5 8 3.89 1.22
-4 5 8 6.78 1.74
-4 -5 8 6.27 1.39
4 -5 -7 186.01 10.08
4 5 -7 179.28 9.73
-4 -5 7 166.93 9.69
-4 5 7 193.34 10.49
-4 -5 7 183.29 10.13
4 -5 -6 2.75 0.98
4 5 -6 1.55 0.62
-4 -5 6 0.44 0.34
-4 5 6 4.7 1.06
-4 -5 6 1.55 0.68
4 -5 -5 28.15 2.03
4 5 -5 23.41 1.74
-4 5 5 22.74 1.87
-4 -5 5 26.66 4.05
4 -5 -4 3.93 0.62
4 5 -4 6.79 1.03
-4 5 4 8.77 1.2
4 5 -4 3.86 0.41
-4 -5 4 6.65 1.1
4 -5 -3 2.47 0.7
4 5 -3 2.13 0.89
-4 5 3 3.38 1.12
-4 -5 3 2.33 0.65
4 -5 -2 9.96 0.83
4 5 -2 19.57 1.69
-4 5 2 15.42 1.46
-4 -5 2 12.11 1.85
-4 5 2 9.65 0.59
4 -5 -1 47.31 2.16
-4 5 1 52.15 2.83
-4 -5 1 51.26 5.89
-4 5 1 43.22 1.92
-4 -5 0 25.94 1.95
4 -5 0 17.03 1.82
-4 5 0 27.75 1.96
-4 -5 0 23.59 2.5
-4 5 0 20.2 1.16
-4 -5 -1 9.09 1.41
-4 5 -1 6.4 1.01
-4 -5 -1 8.06 1.24
-4 5 -1 6.89 0.73
-4 -5 -2 9.22 1.06
-4 5 -2 7.9 1.05
-4 -5 -2 9.25 1.16
-4 5 -2 7.63 0.78
-4 -5 -3 1.18 0.64
-4 5 -3 1.52 0.8
-4 -5 -3 3.29 1
-4 5 -3 2.49 0.76
-4 -5 -4 11.72 2.12
-4 5 -4 11.68 1.54
-4 -5 -4 7.3 1.03
-4 5 -4 13.7 1.22
-4 -5 -5 29.83 3.64
-4 5 -5 22.87 2.03
-4 -5 -5 23.65 1.82
-4 5 -5 29.54 2.08
-4 -5 -6 150.46 8.44
-4 5 -6 141.63 7.97
-4 -5 -6 147.03 8
-4 5 -6 141.23 7.73
-4 -5 -7 2.98 1.21
-4 5 -7 2.13 0.81
-4 -5 -8 19.97 3.78
4 -5 8 14.29 2.06
-4 -5 -8 13.38 1.76
-4 5 -8 15.64 1.92
-4 -5 -9 1.5 2.14
4 -5 9 1.88 0.97
-4 -5 -9 2.07 1
-4 5 -9 3.67 1.41
-4 -5 -10 3.58 1.43
4 -5 10 1.26 0.9
-4 5 -10 1.82 1.21
-4 -5 -11 1.3 0.9
4 -5 11 0.65 0.91
-4 5 -11 0.35 0.84
4 -6 -10 1.44 0.94
4 6 -10 2.62 0.98
-4 6 10 1.39 1.23
4 6 -10 1.78 0.91
4 -6 -9 7.85 2.34
4 6 -9 2.43 0.95
-4 6 9 4.18 1.49
-4 -6 9 4.55 1.63
4 -6 -8 2.89 1.31
4 6 -8 1.57 0.94
-4 6 8 2.79 1.5
-4 -6 8 2.12 1.08
4 -6 -7 2.09 0.93
4 6 -7 3.27 1.11
-4 6 7 1.91 1.25
-4 -6 7 -0.46 0.72
4 -6 -6 3.11 1.01
4 6 -6 5.11 1.56
-4 6 6 1.7 1.07
-4 -6 6 1.11 0.91
4 -6 -5 2.93 0.96
4 6 -5 2.06 0.88
-4 6 5 3.41 1.19
-4 -6 5 4.21 1.59
4 -6 -4 2.3 0.91
4 6 -4 3.9 1.35
-4 6 4 2.17 1.14
-4 -6 4 3.01 1.06
4 -6 -3 20.51 1.93
4 6 -3 23.1 2.42
-4 6 3 20.45 2.21
-4 -6 3 23.35 3.99
4 -6 -2 1.57 0.66
4 6 -2 3.18 0.91
-4 6 2 7.63 1.32
-4 -6 2 2.67 0.96
4 -6 -1 7.48 1.18
4 6 -1 8.72 1.35
-4 6 1 10.5 1.62
-4 -6 1 5.51 1.27
-4 -6 0 5.86 1.39
-4 6 0 7.34 1.22
-4 -6 0 7.28 1.33
-4 -6 -1 7.79 1.18
-4 6 -1 13.18 1.8
-4 -6 -1 50.44 10.78
-4 -6 -2 1.32 0.63
-4 6 -2 3.1 1.12
-4 -6 -3 7.21 2.36
-4 6 -3 9.34 1.38
-4 -6 -3 4.97 1.48
-4 6 -3 7.98 1.99
-4 -6 -4 9.08 1.48
-4 6 -4 9.83 1.36
-4 -6 -4 3.48 1.51
-4 6 -4 7.92 1.91
-4 -6 -5 0 0.72
-4 6 -5 1 1
-4 6 -5 1.99 0.81
-4 -6 -6 7.99 1.49
-4 6 -6 6.16 1.78
-4 6 -6 7.62 1.18
-4 -6 -7 4.77 1.95
-4 6 -7 6.33 1.97
-4 6 -7 5.66 1.69
-4 -6 -8 1.07 0.93
-4 6 -8 2.41 1.09
-4 6 -8 1.84 0.75
-4 -6 -9 3.11 1.38
-4 6 -9 3.57 1.44
-4 6 -9 3.17 1.25
4 -7 -7 17.84 1.95
4 7 -7 25.71 2.74
-4 7 7 26.79 3.06
-4 -7 7 24.7 2.53
4 -7 -6 1.47 0.87
4 7 -6 2.03 1.06
-4 7 6 3.37 1.55
-4 -7 6 0.55 0.4
4 -7 -5 105.58 16.3
4 7 -5 137.93 35.09
-4 7 5 140.02 35.63
-4 -7 5 131.39 33.78
4 7 -4 64.06 7.74
-4 7 4 67.33 8.08
4 7 -3 23.49 2.02
-4 7 3 27.79 2.01
-4 -7 3 15.13 3.02
4 7 -2 9.97 1.44
-4 7 2 10.97 1.51
-4 -7 2 4.69 1.62
4 7 -1 2.75 1.26
-4 7 1 5.47 1.91
-4 -7 1 4.14 1.63
-4 7 0 1.78 1.18
-4 -7 -1 3.76 1.59
-4 7 -1 5 1.74
-4 -7 -2 8.27 2.28
-4 7 -2 5.57 1.63
-4 -7 -3 18.41 4.05
-4 7 -3 26.99 3.59
-4 7 -4 36.84 4.69
-4 -7 -5 5.26 1.85
-4 7 -5 5.31 1.66
5 0 -16 0.79 0.86
-5 0 16 0.43 0.76
5 0 -16 0.34 0.73
5 0 -15 34.09 2.03
-5 0 15 25.98 1.79
5 0 -15 29.24 2.07
5 0 -14 2.56 0.96
-5 0 14 1.71 0.9
5 0 -14 0.99 0.9
5 0 -13 58.43 4.93
-5 0 13 48.17 4.16
-5 0 13 56.91 4.92
5 0 -12 12.91 1.4
-5 0 12 11.04 1.57
-5 0 12 13.51 2.05
5 0 -11 3.26 0.92
-5 0 11 5.78 1.15
-5 0 11 5.75 1.25
5 0 -10 2.14 0.83
-5 0 10 0.06 0.79
-5 0 10 0.53 0.4
5 0 -9 1.76 0.74
-5 0 9 2.26 1.13
-5 0 9 0.41 0.57
5 0 -8 3.66 0.69
-5 0 8 3.93 1.08
-5 0 8 5.08 0.82
5 0 -7 34.41 1.84
-5 0 7 51.86 2.57
5 0 -6 38.85 1.75
-5 0 6 39.29 1.6
-5 0 6 39.69 2.76
5 0 -5 15.61 1.11
-5 0 5 16.86 1.07
-5 0 5 17.36 1.17
5 0 -4 1.25 0.47
-5 0 4 2.48 1
-5 0 4 1.09 0.8
5 0 -3 7.5 0.73
-5 0 3 8 0.79
-5 0 3 6.11 0.68
5 0 -2 2.2 0.94
-5 0 2 3.53 0.6
5 0 -2 2.66 0.48
-5 0 2 3.43 0.71
5 0 -1 20.04 1.02
-5 0 1 18.3 0.86
5 0 -1 16.56 0.81
-5 0 1 19.92 1.1
5 0 0 77.49 1.9
-5 0 0 63.76 2.59
-5 0 0 72.4 1.77
-5 0 0 74 2.1
5 0 1 21.36 1.01
-5 0 -1 14.2 1.71
-5 0 -1 22.61 0.96
-5 0 -1 21.1 1.26
5 0 2 54.91 1.55
-5 0 -2 53.87 1.87
5 0 3 0.91 0.56
-5 0 -3 2.42 0.64
-5 0 -3 3.07 1.06
-5 0 -4 4.41 0.54
5 0 4 4.68 0.85
-5 0 -4 6.97 1.31
-5 0 -5 9.7 1.16
5 0 5 9.39 1.41
-5 0 -5 8.14 1.23
-5 0 -6 62.4 3.84
5 0 6 65.71 3.56
-5 0 -6 61.56 2.67
5 0 7 31.69 3.63
-5 0 -7 32.35 1.82
-5 0 -8 106.41 5.66
5 0 8 98.1 8.95
-5 0 -8 111.57 5.09
-5 0 -9 51.88 3.06
5 0 9 65.14 4.12
-5 0 -9 54.17 3.28
-5 0 -10 1.14 0.51
5 0 10 2.25 1.02
-5 0 -10 0.14 0.8
-5 0 -11 3.32 1.11
5 0 11 8.06 1.54
-5 0 -11 6.32 1.21
-5 0 -12 0.53 0.37
5 0 12 3.18 1.24
-5 0 -12 2.78 1.23
5 0 13 1.15 0.73
5 0 14 1.06 0.62
-5 0 -14 1.04 0.78
5 -1 -16 5.86 1.13
5 1 -16 7.5 1.26
-5 -1 16 4.79 1.19
-5 1 16 6.08 1.31
5 -1 -16 5.86 1.17
5 1 -16 5.93 1.51
5 -1 -15 23.99 3.18
5 1 -15 29.55 3.85
-5 -1 15 23.77 3.25
-5 1 15 23.87 3.3
5 -1 -15 27.3 3.48
5 1 -15 29.3 3.94
5 -1 -14 33.88 3.62
5 1 -14 29.65 3.24
-5 -1 14 30.95 3.59
-5 1 14 25.27 2.91
5 -1 -14 27.65 2.88
5 -1 -13 10.15 1.25
5 1 -13 11.41 1.72
-5 1 13 8.68 1.28
-5 -1 13 9.13 1.33
5 -1 -12 147.68 8.19
5 1 -12 160.88 8.93
-5 -1 12 152.45 8.44
-5 1 12 162.65 9.02
-5 1 12 142.77 8.58
-5 -1 12 155.62 11.65
5 -1 -11 106.45 5.47
5 1 -11 116.02 5.87
-5 -1 11 110.42 5.6
-5 1 11 101.87 5.25
-5 1 11 85.97 8.77
-5 -1 11 107.02 9.87
5 -1 -10 24.06 1.74
5 1 -10 23.11 1.62
-5 -1 10 24.43 1.62
-5 1 10 23.87 1.82
-5 1 10 25.9 2.8
-5 -1 10 25.23 3.13
5 1 -9 14.34 1.52
-5 -1 9 12.29 1.14
-5 1 9 15.94 1.44
-5 -1 9 14.57 2.02
5 -1 -8 0.1 0.65
5 1 -8 1.17 0.74
-5 -1 8 0.85 0.58
-5 1 8 0.29 0.7
-5 1 8 0.68 0.48
-5 -1 8 3.15 0.8
5 -1 -7 42.26 2
5 1 -7 36.29 1.8
-5 -1 7 45.64 1.92
-5 1 7 37.86 1.98
-5 -1 7 63.34 5.31
5 -1 -6 175.24 5.51
5 1 -6 178.92 5.66
-5 -1 6 211.58 6.53
-5 -1 6 187.38 6.53
-5 1 6 199.51 8.85
5 -1 -5 89.16 2.8
5 1 -5 91.94 2.92
-5 -1 5 89.94 2.58
-5 1 5 86.97 2.7
-5 -1 5 89.6 6.39
-5 1 5 91.13 2.69
5 1 -4 138.85 3.08
-5 -1 4 137 2.66
-5 1 4 120.73 2.65
5 1 -4 121.45 2.38
-5 -1 4 131.38 2.9
-5 1 4 138.27 2.84
5 -1 -3 226.21 4.11
5 1 -3 226.34 4.25
-5 -1 3 217.09 3.64
-5 1 3 218.18 4.17
5 1 -3 212.51 3.58
-5 -1 3 225.26 4.24
-5 1 3 228.36 4.15
5 -1 -2 19.78 1
5 1 -2 17.84 0.95
-5 -1 2 22.77 1.02
5 1 -2 18.15 0.81
-5 -1 2 17.49 1.17
-5 1 2 18.44 1.13
5 -1 -1 21.51 0.97
5 1 -1 26.19 1.26
-5 1 1 19.57 0.85
-5 -1 1 22.09 0.8
-5 -1 1 19.48 1.28
-5 1 1 22.83 1.16
5 -1 0 34.49 1.03
5 -1 0 41.17 1.24
5 1 0 45.78 1.53
-5 -1 0 35.71 2.9
-5 -1 0 46.51 1.24
-5 -1 0 42.58 1.61
-5 1 0 43.23 1.61
5 -1 1 360.49 6.34
5 -1 1 394.51 6.09
-5 -1 -1 376.88 6.34
-5 -1 -1 399.29 8.7
-5 -1 -1 400.6 9.19
-5 1 -1 409.22 9.29
5 -1 2 43.61 1.84
5 -1 2 56.46 1.45
-5 -1 -2 45.57 2.66
-5 -1 -2 53.34 1.33
-5 1 -2 57.92 1.8
-5 -1 -2 51.11 1.8
-5 1 -2 54.97 2
-5 -1 -3 35.65 3.27
5 -1 3 21.8 1.83
5 -1 3 28.95 1.01
-5 -1 -3 24.23 0.9
-5 1 -3 29.5 1.39
-5 -1 -3 28.1 1.06
-5 -1 -3 31.5 1.78
-5 1 -3 27.03 1.51
-5 -1 -4 1.04 0.48
5 -1 4 0.26 0.16
5 -1 4 1.64 0.46
5 -1 4 0.62 0.38
5 1 4 0.81 0.4
-5 -1 -4 0.74 0.35
-5 -1 -4 1.18 0.65
-5 1 -4 2.51 1.01
-5 -1 -5 3.66 0.63
5 -1 5 1.25 0.29
5 -1 5 2.07 0.36
5 -1 5 1.38 0.54
5 1 5 4.21 0.65
-5 -1 -5 1.78 0.78
-5 1 -5 3.83 1.14
-5 1 -6 57.5 1.78
-5 -1 -6 58.83 3.52
5 -1 6 54.36 1.67
5 -1 6 62.16 3.71
5 1 6 55.93 3.04
-5 -1 -6 53.28 2.44
-5 1 -6 60.55 2.6
-5 1 -7 447.09 17.51
-5 -1 -7 427.88 16.13
5 -1 7 440.02 16.5
5 1 7 467.02 18.2
-5 -1 -7 423.41 15.95
-5 1 -7 459.12 18.08
-5 1 -8 68.15 4.67
-5 -1 -8 74.98 3.96
5 -1 8 86.13 5.66
5 1 8 79.34 5.15
-5 -1 -8 70.58 3.5
-5 1 -8 75.85 3.71
-5 1 -9 13.87 1.69
-5 -1 -9 16.83 2.21
5 -1 9 13.43 1.81
5 1 9 15.72 2.33
-5 1 -9 16.87 1.72
-5 1 -10 16.49 2.48
-5 -1 -10 28.51 3
5 -1 10 23.47 3.27
5 1 10 24.76 3
-5 -1 -10 23.19 2.42
-5 1 -10 18.44 1.93
-5 -1 -11 17.26 3.17
5 -1 11 12.21 2.04
5 1 11 13.72 2.3
-5 -1 -11 16.65 2.1
-5 1 -11 21.84 2.39
-5 -1 -12 3.75 1.12
5 -1 12 4.66 1.51
5 1 12 3.8 1.2
-5 -1 -12 2.36 1.45
-5 1 -12 2.53 1.15
-5 -1 -13 11.85 2.04
5 -1 13 15.19 2.65
5 1 13 11.21 2.27
-5 -1 -13 15.13 1.76
-5 1 -13 17.51 1.94
-5 -1 -14 20.85 5.41
5 -1 14 21.87 5.36
5 1 14 23.53 5.38
-5 -1 -14 26.91 4.5
-5 1 -14 28.81 4.66
5 -2 -15 11.77 2.3
5 2 -15 10.94 2.08
-5 -2 15 12.67 2.63
-5 2 15 13.51 2.49
5 2 -15 10.84 2.22
5 -2 -14 0.46 0.74
5 2 -14 2.73 1.26
-5 -2 14 1.3 1.14
-5 2 14 7.38 1.08
5 -2 -14 1.38 0.91
5 -2 -13 14.05 1.93
5 2 -13 12.06 1.63
-5 -2 13 14.28 2.2
-5 2 13 9.62 1.69
-5 -2 13 9.46 2.58
5 -2 -13 9.81 1.33
5 -2 -12 168.69 12.89
5 2 -12 153.57 11.75
-5 -2 12 185.86 14.22
-5 2 12 173.08 13.26
-5 -2 12 174.15 14.26
5 -2 -12 150.85 11.38
5 -2 -11 79.77 4.79
5 2 -11 82.9 5.05
-5 -2 11 71.83 4.41
-5 2 11 73.17 4.49
-5 -2 11 73.39 7.72
5 -2 -10 53.62 3.06
5 2 -10 53.69 3
-5 -2 10 62.49 3.57
-5 2 10 82.71 4.63
-5 2 10 52.79 3.82
-5 -2 10 66.55 7.04
5 -2 -9 21.15 1.73
5 2 -9 26.66 1.92
-5 -2 9 25.46 1.82
-5 2 9 20.13 1.67
-5 2 9 23.01 1.98
-5 -2 9 24.72 3.05
5 2 -8 2.3 0.74
-5 -2 8 4.29 0.86
-5 2 8 2.38 0.65
-5 2 8 3.03 0.67
-5 -2 8 4.41 1.01
5 2 -7 7.4 1.12
-5 -2 7 2.53 0.58
-5 2 7 74.3 18.75
-5 -2 7 1.92 0.47
-5 2 7 5.75 0.76
5 -2 -6 64.13 2.68
-5 -2 6 62.85 2.31
-5 2 6 53.55 2.33
-5 -2 6 77.8 6.47
-5 2 6 59.41 4.1
5 -2 -5 270.42 8.04
5 2 -5 267.4 8.11
-5 -2 5 270.87 7.83
-5 2 5 263.23 7.99
5 2 -5 240.15 6.94
-5 -2 5 258.85 10.2
-5 2 5 263.01 7.66
5 -2 -4 475.76 10.74
5 2 -4 430.37 9.94
-5 -2 4 463.94 10.12
-5 2 4 503.41 11.52
5 2 -4 424.26 9.25
-5 -2 4 453.05 10.56
-5 2 4 445.54 9.92
5 -2 -3 700.79 15.36
5 2 -3 647.22 14.46
-5 -2 3 672.45 14.36
-5 2 3 621.04 13.82
5 2 -3 620.09 13.26
-5 -2 3 608.39 13.57
-5 2 3 638.34 13.94
5 -2 -2 62.73 2.01
5 2 -2 66.3 2.38
-5 -2 2 65.56 1.67
-5 2 2 64.03 2.23
5 2 -2 66.65 1.73
-5 -2 2 62.56 2.23
-5 2 2 56.64 1.83
5 -2 -1 12.36 0.76
-5 2 1 13.72 0.76
5 2 -1 14.65 1.19
-5 -2 1 11.26 0.99
-5 -2 1 15.46 0.54
-5 2 1 13.18 1.05
-5 -2 1 14.6 1.28
-5 2 1 13.73 0.94
5 -2 0 12.39 0.65
-5 2 0 11.68 0.64
5 2 0 13.38 1.06
-5 -2 0 10.8 0.86
-5 -2 0 12.3 0.43
-5 2 0 14.8 1.19
-5 -2 0 12.62 1.17
-5 2 0 14.67 1.05
5 -2 1 28.26 0.99
-5 -2 -1 33.06 0.92
-5 -2 -1 27.78 0.77
-5 2 -1 26.25 1.34
-5 -2 -1 29.31 1.45
-5 2 -1 26.22 1.19
-5 -2 -2 11.92 1.16
5 -2 2 5.76 0.38
-5 -2 -2 6.4 0.38
-5 2 -2 8.58 0.99
-5 -2 -2 7.77 1.01
-5 2 -2 7.27 0.78
-5 -2 -3 -0.02 0.09
-5 -2 -4 9.95 1.4
5 -2 4 7.43 0.38
5 -2 4 8.89 0.42
5 2 4 7.83 0.94
-5 -2 -4 7.86 0.53
-5 2 -4 8.6 1.31
-5 -2 -4 8.93 1.3
-5 2 -4 11.08 1.15
-5 -2 -5 14.57 1.51
5 -2 5 13.49 0.44
5 -2 5 16.44 0.52
5 -2 5 16.85 1.45
5 2 5 14.83 1.62
-5 -2 -5 14.27 0.72
-5 2 -5 17 1.4
-5 -2 -6 22.56 2.4
5 -2 6 20.87 2.82
5 2 6 15.59 2.14
-5 -2 -6 19.92 1.8
-5 2 -6 17.48 1.45
-5 -2 -7 55.79 5.75
5 -2 7 52.38 5.67
5 2 7 52 4.53
-5 -2 -7 52.38 2.92
-5 2 -7 46.69 2.48
-5 -2 -8 3.38 0.91
5 -2 8 1.65 0.57
5 2 8 4.4 0.69
-5 -2 -8 3.26 1.08
-5 2 -8 4.85 1.01
-5 -2 -9 123.69 9.23
5 -2 9 81.98 5.24
5 2 9 85.28 4.76
-5 -2 -9 73.41 3.87
-5 2 -9 88.83 4.75
-5 -2 -10 26.55 3.51
5 -2 10 20.21 3.36
5 2 10 23.38 3.24
-5 -2 -10 24.9 2.04
-5 2 -10 30.13 2.6
-5 -2 -11 1.1 0.74
5 -2 11 3.2 1.31
5 2 11 2.82 1.08
-5 -2 -11 3.28 1.32
-5 2 -11 3.53 1.48
-5 -2 -12 1.51 0.78
5 -2 12 1.42 1.17
5 2 12 1.54 0.79
-5 -2 -12 1.56 0.94
-5 2 -12 4.35 1.57
-5 -2 -13 0.74 0.68
5 -2 13 2.69 1.07
5 2 13 0.38 0.3
-5 -2 -13 3.28 1.48
-5 2 -13 2.45 1.67
-5 -2 -14 3.46 1.1
5 -2 14 6.7 1.34
5 2 14 2.04 0.76
-5 -2 -14 4.17 1.3
-5 2 -14 5.05 1.18
5 -3 -14 9.76 2.91
5 3 -14 5.4 1.58
-5 -3 14 8.62 2.52
-5 3 14 6.79 2.01
5 3 -14 8.52 2.33
5 -3 -13 1.04 0.97
5 3 -13 0.39 0.61
-5 -3 13 0.52 0.66
-5 3 13 2.11 0.9
-5 -3 13 0.66 0.65
5 -3 -12 2 0.92
5 3 -12 1.6 0.8
-5 -3 12 3.14 1.14
-5 3 12 0.71 0.72
-5 -3 12 2.53 1.14
5 -3 -11 13.55 1.65
5 3 -11 13.6 1.69
-5 -3 11 15.56 1.85
-5 3 11 23.99 2.63
-5 -3 11 15.01 2.44
5 -3 -11 13.34 1.35
5 -3 -10 -0.25 0.77
5 3 -10 1.04 0.63
-5 -3 10 5.25 1
-5 3 10 2.06 0.78
-5 3 10 1.7 0.5
-5 -3 10 6.26 1.12
5 -3 -9 4.29 0.99
5 3 -9 7.08 1.12
-5 -3 9 7.88 1.07
-5 3 9 6.04 1.17
-5 3 9 5.02 1.05
-5 -3 9 3.27 0.93
5 -3 -8 0.08 0.6
5 3 -8 4.21 1.21
-5 -3 8 2.04 0.92
-5 3 8 1.17 0.26
-5 -3 8 0.39 0.57
5 -3 -7 1.55 0.62
5 3 -7 6.83 1.46
-5 -3 7 2.8 0.61
-5 3 7 4.03 1.19
-5 3 7 3.03 0.54
-5 -3 7 2.25 0.79
5 -3 -6 3.27 0.92
5 3 -6 2.75 0.77
-5 -3 6 0.34 0.41
-5 3 6 1.07 0.72
-5 -3 6 1.92 0.56
-5 3 6 0.48 0.29
5 -3 -5 130.57 3.77
5 3 -5 125.7 3.86
-5 3 5 125.46 3.82
5 3 -5 116.05 3
-5 -3 5 133.09 5.74
5 -3 -4 42.44 1.71
5 3 -4 45.28 2.02
-5 -3 4 45.48 1.37
-5 3 4 46.01 2.13
5 3 -4 36.42 1.13
-5 -3 4 45.61 3.89
-5 3 4 44.01 1.53
5 -3 -3 5.86 0.7
5 3 -3 3.03 0.79
-5 -3 3 3.42 0.32
-5 3 3 3.22 1.01
5 3 -3 2.84 0.33
-5 -3 3 4.22 0.78
-5 3 3 6.07 0.72
5 -3 -2 25.67 1.23
5 3 -2 28.94 1.72
-5 3 2 26.38 1.59
-5 -3 2 27.4 1.81
-5 3 2 26.88 1.33
5 -3 -1 103.19 3.23
-5 3 1 86.37 2.76
5 3 -1 100.25 3.6
-5 3 1 99.18 3.58
-5 -3 1 97.25 3.56
-5 3 1 105.62 3.41
5 -3 0 77.89 2.43
-5 3 0 76.26 2.41
5 3 0 85.23 3.28
-5 3 0 86.65 3.33
-5 -3 0 73.68 3.07
-5 3 0 84 2.85
-5 -3 -1 10.76 1.22
5 -3 1 7.92 0.48
-5 3 -1 5.84 0.41
-5 3 -1 7.1 0.85
-5 -3 -1 7.83 1.18
-5 3 -1 8.15 0.82
-5 -3 -2 7.74 1.15
5 -3 2 2.43 0.32
5 -3 2 4.68 0.29
-5 3 -2 4.02 1.16
-5 -3 -2 8.7 1.35
-5 3 -2 5.92 0.85
-5 -3 -3 72.14 6.65
-5 3 -3 55.93 2.23
-5 -3 -3 69.8 2.81
-5 3 -3 61.43 2.4
-5 -3 -4 2.3 0.87
-5 -3 -4 0.78 0.19
-5 3 -4 0.33 0.74
-5 -3 -4 1.23 0.92
-5 3 -4 1.72 0.59
-5 -3 -5 4.82 0.85
5 3 5 3.61 0.53
-5 3 -5 6.77 1
-5 -3 -5 6.55 0.96
-5 3 -5 2.52 0.95
-5 -3 -6 3.99 1.06
5 -3 6 2.48 0.84
5 3 6 1.11 0.4
-5 -3 -6 4.5 1.05
-5 3 -6 4.2 1.22
-5 -3 -7 24.98 2.35
5 -3 7 26.7 3.6
5 3 7 17.42 2.31
-5 -3 -7 22.44 1.82
-5 3 -7 26.19 1.91
-5 -3 -8 8.96 1.14
5 -3 8 8.98 1.68
5 3 8 7.2 1.08
-5 -3 -8 10.72 1.27
-5 3 -8 11.88 1.83
-5 -3 -9 16.92 2.81
5 -3 9 12.32 2.56
5 3 9 11.64 2.09
-5 -3 -9 14.56 1.83
-5 3 -9 13.25 1.77
-5 -3 -10 12.31 2.65
5 -3 10 7.81 2.44
5 3 10 2.56 0.82
-5 -3 -10 3.95 1.49
-5 3 -10 3.28 1.37
-5 -3 -11 1.52 1
5 -3 11 0.89 0.78
-5 -3 -11 3.67 1.31
-5 3 -11 2.31 1.29
-5 -3 -12 15.03 2.9
5 -3 12 15.35 3.08
-5 -3 -12 23.16 3.26
-5 3 -12 23.15 3.29
-5 -3 -13 13.1 3.21
5 -3 13 9.18 2.28
-5 -3 -13 10.66 1.97
-5 3 -13 15.59 2.82
5 -4 -13 70.76 10.76
5 4 -13 81.25 12.32
-5 4 13 74.24 11.31
-5 -4 13 62.87 9.59
5 -4 -12 7.32 1.11
5 4 -12 5.67 1.71
-5 4 12 98.92 13.16
-5 -4 12 7.05 1.96
5 -4 -11 0.91 0.88
5 4 -11 1.12 0.75
-5 4 11 2.05 1.03
-5 -4 11 1.74 1.17
5 -4 -10 7.83 2.06
5 4 -10 11.15 1.13
-5 4 10 7.83 2.01
-5 -4 10 7.31 2.16
5 -4 -9 8.32 1.35
5 4 -9 6.66 1.17
-5 4 9 12.97 1.87
-5 -4 9 8.1 1.47
5 -4 -8 80.81 4.68
5 4 -8 109.87 6.35
-5 4 8 87.1 5.21
-5 -4 8 76.19 8.88
5 -4 -7 10 1.17
5 4 -7 11.17 1.33
-5 4 7 9.37 1.33
-5 -4 7 11.08 1.74
5 -4 -6 3.47 0.93
5 4 -6 -0.13 0.7
-5 -4 6 1.92 0.41
-5 4 6 3.91 1.11
-5 -4 6 2.56 0.73
-5 4 6 0.65 0.21
5 -4 -5 4.36 0.83
5 4 -5 2.48 0.75
-5 -4 5 3.13 0.57
-5 4 5 4.56 0.9
-5 -4 5 4.16 1.16
-5 4 5 3.22 0.54
5 -4 -4 15.13 1.19
5 4 -4 15.14 1.38
-5 4 4 21.31 1.58
-5 4 4 18.16 1.14
5 -4 -3 28.18 1.58
5 4 -3 31.65 2.33
-5 4 3 33.91 2.21
-5 -4 3 32.47 3.43
-5 4 3 30.84 1.58
5 -4 -2 82.94 3.44
5 4 -2 81.13 3.78
-5 4 2 86.44 3.94
-5 -4 2 74.68 5.78
-5 4 2 81.07 3.31
5 -4 -1 179.49 6.85
5 4 -1 164.27 6.8
-5 4 1 157.32 6.43
-5 -4 1 160.9 6.65
-5 4 1 151.84 5.89
5 -4 0 72.35 2.88
-5 4 0 73.21 3.47
-5 -4 0 79.81 3.71
-5 4 0 72.4 3.09
-5 -4 -1 0.75 0.62
5 -4 1 0.71 0.2
-5 4 -1 1.71 0.91
-5 -4 -1 3.14 1.17
-5 4 -1 1.56 0.57
-5 -4 -2 3.43 0.77
-5 4 -2 1.5 0.65
-5 -4 -2 3.46 0.76
-5 4 -2 3.57 0.72
-5 -4 -3 0.87 0.65
-5 4 -3 0.55 0.74
-5 -4 -3 3.53 1.15
-5 4 -3 0.68 0.5
-5 -4 -4 17.72 1.98
-5 4 -4 11.33 1.45
-5 -4 -4 10.55 1.31
-5 4 -4 14.16 1.22
-5 -4 -5 1.44 0.62
-5 4 -5 0.9 0.83
-5 -4 -5 2.88 0.78
-5 4 -5 1.78 0.65
-5 -4 -6 1.89 0.9
-5 4 -6 3.04 0.88
-5 -4 -6 2.91 0.9
-5 4 -6 3.49 1.18
-5 -4 -7 5.62 1.65
5 -4 7 6.85 1.27
-5 -4 -7 6.68 0.98
-5 4 -7 8.16 1.26
-5 -4 -8 5.6 1.99
5 -4 8 8.11 2.16
-5 -4 -8 5.79 1.67
-5 4 -8 10.09 1.2
-5 -4 -9 2.36 1.17
5 -4 9 4.72 1.58
-5 -4 -9 2.46 0.98
-5 4 -9 2.43 0.85
-5 -4 -10 2.04 0.97
5 -4 10 2.16 0.88
-5 -4 -10 3.55 1.13
-5 4 -10 1.11 0.93
-5 -4 -11 66.67 9.04
5 -4 11 51.63 10.47
-5 4 -11 72.62 8.7
-5 -4 -12 59.17 9.26
5 -4 12 15.32 4.2
-5 -4 -12 21.08 2.42
-5 4 -12 29.83 3.2
5 -5 -12 1.49 0.74
5 5 -12 1.39 0.71
-5 5 12 1.76 1.07
-5 -5 12 0.44 0.61
5 -5 -11 0.04 0.79
5 5 -11 2.76 1.05
-5 5 11 1.46 0.87
-5 -5 11 0.94 0.86
5 -5 -10 3.07 1.53
5 5 -10 1.36 0.84
-5 5 10 4.28 1.73
5 -5 -9 7.66 1.53
5 5 -9 5.73 1.61
-5 5 9 10.29 2.05
-5 -5 9 2.9 0.92
5 -5 -8 7.34 1.48
5 5 -8 9.42 1.45
-5 5 8 8.06 1.64
-5 -5 8 7.89 1.55
5 -5 -7 30.44 1.81
5 5 -7 33.6 2.08
-5 5 7 29.32 2.07
-5 -5 7 25.53 4.02
5 -5 -6 6.95 1.06
5 5 -6 8.14 1.27
-5 5 6 6.54 1.28
-5 -5 6 5.48 1.42
5 -5 -5 0.74 0.46
5 5 -5 2.22 1.01
-5 5 5 2.03 1.12
-5 -5 5 1.72 0.59
5 -5 -4 3.3 0.7
5 5 -4 1.24 0.8
-5 5 4 5.48 1.23
-5 -5 4 4.77 1.18
5 -5 -3 26.14 1.75
5 5 -3 27.15 2.06
-5 5 3 23.84 1.94
-5 -5 3 28.29 2.89
5 5 -2 92.75 4.88
-5 5 2 87.01 4.57
-5 -5 2 78.11 8.49
5 5 -1 201.67 9.64
-5 5 1 175.52 8.33
-5 -5 1 198.02 9.67
-5 5 1 169.15 7.63
-5 5 0 5.36 1.26
-5 -5 0 4.25 1.06
-5 5 0 2.76 0.64
-5 -5 -1 5.82 1.16
-5 5 -1 3 0.91
-5 -5 -1 6.82 1.1
-5 5 -1 4.75 0.66
-5 -5 -2 3.69 1.2
-5 5 -2 8.57 1.31
-5 -5 -2 7.31 1.22
-5 5 -2 5.84 0.76
-5 -5 -3 3.65 1
-5 5 -3 4.88 1.1
-5 -5 -3 2.76 0.84
-5 5 -3 2.38 0.87
-5 -5 -4 3.2 1.06
-5 5 -4 2.84 1.22
-5 -5 -4 0.62 0.52
-5 5 -4 3.64 1.05
-5 -5 -5 315.27 23.76
-5 5 -5 388.28 29.05
-5 -5 -5 325.26 24.23
-5 5 -5 368.43 27.47
-5 -5 -6 31.24 2.92
-5 5 -6 21.52 1.7
-5 -5 -6 24.17 1.59
-5 5 -6 29.88 1.87
-5 -5 -7 0.8 0.63
-5 5 -7 1.75 0.81
-5 5 -7 2.1 0.85
-5 -5 -8 0.71 0.91
-5 5 -8 1.57 0.8
-5 -5 -8 0.63 0.66
-5 5 -8 2.17 1.16
-5 -5 -9 9.17 2.65
-5 -5 -9 7.52 2.29
-5 5 -9 7.59 2.17
-5 -5 -10 5.27 1.88
5 -5 10 2.11 1.1
-5 5 -10 3.84 1.41
5 -6 -9 4.04 1.51
5 6 -9 5.06 1.68
-5 6 9 7.87 1.81
-5 -6 9 5.73 1.85
5 -6 -8 2.5 1.19
5 6 -8 1.63 1.02
-5 6 8 2.08 0.95
-5 -6 8 2.09 1.02
5 -6 -7 1.04 0.65
5 6 -7 1.64 0.92
-5 6 7 3.88 1.56
-5 -6 7 1.96 1.07
5 6 -6 1.97 1.09
-5 6 6 3.91 1.28
-5 -6 6 0.99 0.81
5 -6 -5 5.13 1.45
5 6 -5 6.9 1.31
-5 6 5 6.38 1.91
-5 -6 5 8.57 1.97
5 -6 -4 9.45 1.43
5 6 -4 15.29 2.03
-5 6 4 23.89 3.53
-5 -6 4 12.15 2.64
5 6 -3 25.75 2.98
-5 6 3 28.55 3.28
-5 -6 3 17.69 3.27
5 6 -2 14.23 2.13
-5 6 2 14.03 1.99
-5 -6 2 11.12 2.31
5 6 -1 38.15 2.46
-5 6 1 41.39 2.69
-5 -6 1 32.03 4.28
5 6 0 4.33 1.34
-5 6 0 1.7 0.82
-5 -6 0 1.38 1.18
-5 -6 -1 8.16 1.6
-5 6 -1 20.05 2.77
-5 -6 -1 5.68 1.92
-5 -6 -2 1.42 0.78
-5 6 -2 12.99 1.97
-5 -6 -3 5.88 1.94
-5 6 -3 6.4 1.81
-5 -6 -3 5.27 1.64
-5 6 -3 7.21 1.03
-5 -6 -4 2.87 1.48
-5 6 -4 5.38 1.68
-5 -6 -4 3.89 1.25
-5 6 -4 4.84 1.24
-5 -6 -5 38.61 4.59
-5 6 -5 43.66 2.25
-5 6 -5 46.82 1.77
-5 -6 -6 14.89 3.22
-5 6 -6 25.1 3.47
-5 6 -6 12.11 1.79
-5 -6 -7 20.43 3.9
-5 6 -7 19.6 3.45
-5 6 -7 14.72 2.56
5 7 -4 25.57 4.32
-5 7 4 37.34 6.07
-5 -7 4 14.19 3.68
5 7 -3 39.74 6.35
-5 7 3 41.41 6.48
5 7 -2 13.48 2.67
-5 7 2 15.19 2.64
-5 -7 2 11.54 2.57
5 7 -1 2.36 0.91
-5 7 1 1.93 1.07
-5 -7 1 -0.22 0.46
5 7 0 1.53 0.95
-5 7 0 3.39 1.36
-5 -7 0 0.9 0.55
-5 7 -1 12.56 2.23
-5 -7 -3 12.27 2
-5 7 -3 23.2 2.63
6 0 -15 29.55 4.71
-6 0 15 28.11 4.51
6 0 -15 29.66 4.81
6 0 -14 127.18 29.29
-6 0 14 146.88 33.8
-6 0 14 103.81 6.24
6 0 -13 75.83 7.71
-6 0 13 55.95 5.85
-6 0 13 44.2 7.59
6 0 -12 8.5 1.25
-6 0 12 7.05 2.05
-6 0 12 10.39 2.01
6 0 -11 43.86 2.96
-6 0 11 36.94 2.63
-6 0 11 42.85 4.92
6 0 -10 0.93 0.83
-6 0 10 1.82 1.1
-6 0 10 0.3 0.48
6 0 -9 1.52 0.72
-6 0 9 1.64 0.67
-6 0 9 3.01 0.95
6 0 -8 97.79 4.43
-6 0 8 121.27 5.35
-6 0 8 149.83 13.12
6 0 -7 23.39 2.03
-6 0 7 14.18 1.11
-6 0 7 14.42 1.94
6 0 -6 274.39 7.15
-6 0 6 252.47 6.4
-6 0 6 258.58 10.87
6 0 -5 42.68 1.99
-6 0 5 51.19 2.21
-6 0 5 38.23 1.94
-6 0 4 118.77 3.98
6 0 -3 2.76 0.73
-6 0 3 3.26 0.67
-6 0 3 2.24 0.59
6 0 -2 113.17 3.33
-6 0 2 117.67 3.29
-6 0 2 97.34 3.03
6 0 -1 61.51 2.22
-6 0 1 58.06 1.97
-6 0 1 62.62 2.36
6 0 0 383.98 8.75
-6 0 0 385.36 8.68
-6 0 0 399.48 9.28
6 0 1 8.77 0.97
-6 0 -1 5.7 0.64
-6 0 -1 7.08 1.05
6 0 2 22.8 1.34
-6 0 -2 21.08 1.19
-6 0 -2 22.81 1.49
6 0 3 5.42 0.82
-6 0 -3 5.16 1.16
-6 0 -3 4.09 1.11
6 0 4 0.97 0.57
-6 0 -4 2.07 0.66
-6 0 -4 5.01 1.24
6 0 5 124.1 5.02
-6 0 -5 116.93 4.98
-6 0 -6 590.72 22.82
6 0 6 612.14 24.27
-6 0 -6 606.31 23.65
-6 0 -7 842.72 32.62
6 0 7 894.73 37.74
-6 0 -7 852.23 33.07
-6 0 -8 148.16 6.91
6 0 8 162.14 9.55
-6 0 -8 155.05 7.6
-6 0 -9 14.43 1.6
6 0 9 16.29 1.89
-6 0 -9 21.75 2.45
-6 0 -10 1.79 0.52
6 0 10 1.43 0.74
-6 0 -10 0.39 0.79
6 0 11 1.05 0.59
-6 0 -11 3.15 1.47
6 0 12 1.01 0.58
-6 0 -12 2.09 1.08
6 0 13 107.78 19.45
-6 0 -13 145.19 12.63
6 -1 -15 6.49 1.3
6 1 -15 6 1.47
-6 -1 15 5.57 1.57
6 -1 -14 11.52 1.94
6 1 -14 12.21 1.95
-6 -1 14 8.84 2.51
-6 -1 14 9.14 2.96
6 -1 -13 65.29 6.4
6 1 -13 74.92 7.29
-6 -1 13 68.77 6.7
-6 1 13 43.36 8.18
-6 -1 13 56.19 8.94
6 -1 -12 56.98 2.85
6 1 -12 75.35 3.42
-6 -1 12 64.66 3.1
-6 1 12 47.87 5.35
-6 -1 12 48.61 6.2
6 -1 -11 58.62 4.86
6 1 -11 56.29 4.68
-6 -1 11 60.16 4.97
-6 1 11 59.97 5
-6 1 11 56.83 6.29
-6 -1 11 55.64 6.65
6 -1 -10 7.19 1.15
6 1 -10 7.45 1.33
-6 -1 10 7.09 1.1
-6 1 10 5.61 1.12
-6 1 10 8.85 1.64
-6 -1 10 6.72 1.76
6 -1 -9 9.92 1.34
6 1 -9 15.17 1.78
-6 -1 9 15.81 1.56
-6 1 9 15.97 1.68
-6 -1 9 13.83 2.01
-6 1 9 16.82 1.79
6 -1 -8 5.93 0.91
6 1 -8 6.82 1.18
-6 -1 8 8.7 1.17
-6 1 8 6.79 1.35
-6 -1 8 10.16 1.16
-6 1 8 9.94 1.38
6 1 -7 6.8 1.01
-6 -1 7 9.29 0.95
-6 1 7 7.94 1.2
-6 -1 7 7.6 1.31
-6 1 7 10.95 1.44
6 -1 -6 64.59 2.4
6 1 -6 60.85 2.34
-6 -1 6 63.13 2.1
-6 1 6 76.16 2.91
-6 -1 6 69 6.33
-6 1 6 71.59 5.25
6 -1 -5 16.65 1.46
6 1 -5 12.8 1.16
-6 -1 5 19.64 1.2
-6 1 5 14.64 1.27
-6 -1 5 14.54 1.22
-6 1 5 14.85 1.24
6 -1 -4 4.81 1.36
6 1 -4 3.97 0.91
-6 -1 4 2.64 0.57
-6 1 4 3.46 0.73
-6 -1 4 2.79 0.96
-6 1 4 3.24 0.58
6 -1 -3 12.06 1.07
6 1 -3 11.31 1.19
-6 -1 3 17.94 1.09
-6 1 3 18.83 1.72
-6 -1 3 16.29 1.67
-6 1 3 10.23 0.88
6 -1 -2 48.81 1.99
6 1 -2 46.51 2.17
-6 -1 2 43.2 1.65
-6 1 2 45.74 2.05
6 1 -2 41.44 1.55
-6 -1 2 45.22 2.17
-6 1 2 44.94 1.92
6 -1 -1 12.86 0.96
-6 -1 1 8.56 1.07
-6 -1 1 12.23 0.77
-6 1 1 13.67 1.14
-6 -1 1 14.2 1.4
-6 1 1 15.64 1.1
6 -1 0 191.12 5.75
6 1 0 188.05 5.91
-6 -1 0 178.86 5.27
-6 -1 0 177.59 5.2
-6 1 0 194.8 6
-6 -1 0 194.71 6.12
-6 1 0 194.98 6.04
6 -1 1 27.02 1.39
6 1 1 28.6 1.62
-6 -1 -1 17.25 2.07
-6 -1 -1 27.09 1.17
-6 1 -1 25.61 1.35
-6 -1 -1 30.51 1.94
-6 1 -1 26.42 1.48
6 -1 2 2.53 0.43
6 -1 2 4.38 0.59
6 1 2 5.14 0.84
-6 -1 -2 2.24 0.39
-6 -1 -2 4.33 0.5
-6 1 -2 4.23 0.64
-6 -1 -2 4.14 1.12
-6 1 -2 5.55 0.95
6 -1 3 0.25 0.2
6 -1 3 1.51 0.5
6 1 3 1.9 0.76
-6 -1 -3 0.73 0.52
-6 1 -3 1.34 0.64
-6 -1 -3 1.93 1.07
-6 1 -3 1.36 0.74
-6 -1 -4 12.96 1.08
6 -1 4 5.76 0.53
6 -1 4 11.06 0.8
-6 -1 -4 9.62 0.75
-6 1 -4 12.11 1.21
-6 -1 -4 9.56 1.18
-6 1 -4 12.58 1.28
-6 -1 -5 23.22 2.26
6 -1 5 17.16 1.07
6 1 5 15.47 1.02
-6 -1 -5 21.37 1.91
-6 1 -5 22.56 1.67
-6 -1 -6 152.01 7.32
6 -1 6 136.3 5.5
6 -1 6 135.66 5.77
6 1 6 150.08 8.04
-6 -1 -6 136.94 5.94
-6 1 -6 137.22 5.92
-6 -1 -7 102.68 7.37
6 -1 7 85.29 3.87
6 -1 7 104.5 7.12
6 1 7 95.28 4.49
-6 -1 -7 100.8 5.02
-6 1 -7 95.38 4.72
-6 -1 -8 14.55 1.67
6 -1 8 14.77 2.43
6 1 8 9.57 1.91
-6 -1 -8 9.62 1.31
-6 1 -8 10.66 1.51
-6 -1 -9 15.97 1.6
6 -1 9 16.56 3.34
6 1 9 14.41 2.61
-6 -1 -9 13.06 1.53
-6 1 -9 15.16 1.73
-6 -1 -10 1.69 0.77
6 -1 10 1.15 0.81
6 1 10 0.69 0.53
-6 -1 -10 1.7 0.92
-6 1 -10 3.58 1.51
-6 -1 -11 2.47 1.11
6 -1 11 2.1 1.16
6 1 11 1.79 0.97
-6 -1 -11 3.33 1.18
-6 1 -11 6.4 1.93
6 -1 12 2.02 1.2
6 1 12 2.15 0.99
-6 -1 -12 1.97 1.11
-6 1 -12 4.1 1.44
6 -1 13 1.39 0.71
6 1 13 1.38 0.72
-6 -1 -13 0.35 0.67
-6 1 -13 2.63 1.28
6 -2 -14 7.73 2.25
6 2 -14 5.05 1.54
-6 -2 14 4.46 1.58
-6 2 14 3.5 1.71
-6 -2 14 7.05 1.86
6 -2 -13 17.34 1.82
6 2 -13 17.03 1.5
-6 -2 13 24.42 1.96
-6 2 13 20.04 2.14
-6 -2 13 17.07 3.59
6 -2 -12 8.33 1.5
6 2 -12 4.73 1.56
-6 -2 12 8.24 1.49
-6 2 12 7.13 1.51
-6 2 12 4.12 1.28
-6 -2 12 1.56 0.92
6 -2 -11 11.72 1.69
6 2 -11 20.42 2.21
-6 -2 11 20.47 2.22
-6 2 11 12.69 1.63
-6 2 11 13.59 2.04
-6 -2 11 17.85 2.95
6 2 -10 27.07 2.32
-6 -2 10 28.03 2.28
-6 2 10 25.71 2.2
-6 2 10 18.31 2.61
-6 -2 10 31.49 4.06
6 -2 -9 6.59 1.26
6 2 -9 8.08 1.18
-6 -2 9 9.32 1.06
-6 2 9 6.58 1.26
-6 2 9 9.57 1.67
-6 -2 9 8.43 1.6
6 -2 -8 1.36 1.1
6 2 -8 1.94 0.72
-6 -2 8 1.55 0.63
-6 2 8 1.75 0.93
-6 -2 8 1.95 1.02
-6 2 8 1.07 0.45
6 -2 -7 15.36 1.29
6 2 -7 24.46 1.84
-6 -2 7 19.57 1.29
-6 2 7 18.04 1.46
-6 2 7 19.8 2.24
6 -2 -6 57.16 2.77
6 2 -6 70.91 3.45
-6 -2 6 68.8 2.95
-6 2 6 64.04 3.07
-6 -2 6 64.61 5.81
-6 2 6 64.91 5.1
6 -2 -5 62.3 3.08
6 2 -5 54.2 2.67
-6 -2 5 54.94 2.37
-6 2 5 54.56 2.69
-6 -2 5 71.56 5.81
-6 2 5 66.41 2.99
6 -2 -4 511.52 12.2
6 2 -4 526.89 12.79
-6 -2 4 519.27 11.99
-6 2 4 573.34 13.81
6 2 -4 428.1 9.93
-6 -2 4 421.82 10.45
-6 2 4 516.15 12.19
6 -2 -3 50.73 1.96
6 2 -3 47.05 2.18
-6 -2 3 46.77 1.46
-6 2 3 56.41 2.49
6 2 -3 43.97 1.43
-6 -2 3 48.42 2.21
-6 2 3 45.19 1.81
6 -2 -2 18.95 1.12
6 2 -2 19.24 1.47
-6 -2 2 17.11 0.67
-6 2 2 17.55 1.42
-6 -2 2 16.4 1.21
-6 2 2 24.28 1.48
6 -2 -1 2.69 0.65
6 2 -1 2.72 1.07
-6 -2 1 0 0.06
-6 2 1 3.96 1.06
-6 -2 1 2.55 0.91
-6 2 1 2.21 0.53
6 -2 0 1.22 0.51
6 2 0 1.54 0.83
-6 -2 0 1.06 0.15
-6 -2 0 31.79 5.06
-6 2 0 4.25 1.38
-6 -2 0 2.73 0.93
-6 2 0 1.11 0.5
6 -2 1 2.81 0.5
6 -2 1 6.13 0.61
6 2 1 4.89 1.06
-6 -2 -1 4.97 0.34
-6 -2 -1 5.46 0.41
-6 -2 -1 1.31 0.82
-6 2 -1 5.64 0.74
6 -2 2 71.34 2.45
6 -2 2 94.1 2.52
-6 -2 -2 79.6 2.03
-6 -2 -2 82.45 2.89
-6 2 -2 84.48 2.9
-6 -2 -3 11.61 1.24
6 -2 3 12.64 0.71
-6 -2 -3 11.4 0.67
-6 2 -3 13.9 1.74
-6 -2 -3 17.4 1.53
-6 2 -3 12.3 1.31
-6 -2 -4 13.5 1.66
6 -2 4 9.97 0.59
-6 -2 -4 13.56 0.83
-6 2 -4 8.87 1.22
-6 -2 -4 14.13 1.37
-6 2 -4 10.74 1.22
-6 -2 -5 22.5 3.1
-6 2 -5 16.11 1.39
-6 -2 -5 15.77 1.6
-6 2 -5 16.36 1.4
-6 -2 -6 20.2 1.99
6 -2 6 14.17 1.38
6 2 6 15.2 2.1
-6 -2 -6 18.44 1.87
-6 2 -6 13.76 1.48
-6 -2 -7 17.15 2.02
6 -2 7 13.8 1.45
6 2 7 13.58 1.8
-6 -2 -7 18 1.95
-6 2 -7 21.24 2.07
-6 -2 -8 16.11 2.47
6 -2 8 16.07 1.78
6 2 8 11.42 1.74
-6 -2 -8 13.85 1.82
-6 2 -8 16.36 1.77
-6 -2 -9 58.06 7.37
6 -2 9 56.6 7.02
6 2 9 52.83 5.06
-6 -2 -9 59.56 5.06
-6 2 -9 66.22 5.47
-6 -2 -10 5.09 1.64
6 -2 10 6.13 1.81
6 2 10 4.67 1.36
-6 -2 -10 6.79 1.5
-6 2 -10 5.4 1.49
-6 -2 -11 1.42 0.77
6 -2 11 2.38 1.08
6 2 11 3.62 1.36
-6 -2 -11 2.72 1.19
-6 2 -11 2.75 1.22
-6 -2 -12 4.01 1.31
6 -2 12 4.54 1.79
-6 -2 -12 1.57 0.84
-6 2 -12 2.76 1.04
6 3 -13 1.27 1.08
-6 -3 13 1.58 1.21
-6 3 13 3.6 1.27
-6 -3 13 3.91 1.29
6 -3 -12 6.39 1.93
6 3 -12 10.96 1.39
-6 -3 12 6.8 0.97
-6 3 12 6.77 1.27
-6 -3 12 10.01 1.92
6 -3 -11 5.09 1.46
6 3 -11 11.63 2
-6 -3 11 6 1.58
-6 3 11 5.01 1.64
-6 -3 11 8.04 1.41
6 -3 -10 31.32 2.12
6 3 -10 32.44 2.12
-6 -3 10 25.6 1.49
-6 3 10 34.22 2.23
-6 -3 10 38.52 3.78
6 -3 -9 11.48 1.54
6 3 -9 9.17 1.38
-6 -3 9 11.4 1.26
-6 3 9 8.97 1.5
-6 3 9 6.39 0.96
-6 -3 9 10.24 1.89
6 -3 -8 2.17 0.91
6 3 -8 6.34 1.15
-6 -3 8 3.14 0.72
-6 3 8 99.17 26.14
-6 3 8 2.64 0.6
-6 -3 8 4.32 1.58
6 -3 -7 23.06 1.76
6 3 -7 43.88 3.44
-6 -3 7 23.41 1.57
-6 3 7 29.51 2.46
-6 -3 7 23.99 3.01
-6 3 7 47.92 4.96
6 -3 -6 47.47 2.74
6 3 -6 54.62 3.15
-6 3 6 50.53 2.96
-6 -3 6 58.58 5.81
-6 3 6 43.64 3.89
6 -3 -5 12.72 1.15
6 3 -5 12.7 1.4
-6 -3 5 14.4 0.95
-6 3 5 10.95 1.48
-6 -3 5 12.54 2.09
-6 3 5 13.37 1.03
6 -3 -4 626.61 24.27
6 3 -4 597.64 23.35
-6 -3 4 532.92 20.38
-6 3 4 663.46 25.96
-6 -3 4 557.62 23.39
-6 3 4 560.28 21.64
6 -3 -3 218.27 8.45
6 3 -3 206.12 8.21
-6 3 3 212.73 8.47
-6 -3 3 202.5 8.13
-6 3 3 205.5 7.91
6 -3 -2 411.2 15.32
6 3 -2 403.29 15.33
-6 3 2 375.06 14.24
-6 -3 2 414.08 15.71
-6 3 2 381.49 14.24
6 -3 -1 58.88 2.52
6 3 -1 74.7 3.6
-6 3 1 61.33 3
-6 -3 1 64.82 3.17
-6 3 1 64.68 2.91
6 -3 0 46.64 2.01
6 3 0 49.92 2.58
-6 3 0 47.85 2.53
-6 -3 0 50.89 2.87
-6 3 0 48.54 2.35
6 -3 1 14.07 0.77
6 3 1 19.42 1.8
-6 3 -1 16.47 1.51
-6 3 -1 15.09 1.24
-6 -3 -2 76.8 3.76
-6 3 -2 64.1 3.15
-6 -3 -2 76.66 3.71
-6 3 -2 70.95 3.47
-6 -3 -3 75.3 3.77
-6 3 -3 68.03 3.45
-6 -3 -3 73.46 3.79
-6 3 -3 70.26 3.37
-6 -3 -4 143.48 7.34
-6 3 -4 132.43 6.22
-6 -3 -4 135.38 6.4
-6 3 -4 136.66 6.34
-6 -3 -5 54.89 4.98
-6 3 -5 52.17 3.13
-6 -3 -5 53.5 3.11
-6 3 -5 48.24 2.84
-6 -3 -6 28.55 3.47
-6 3 -6 27.01 2.02
-6 -3 -6 27.68 2.06
-6 3 -6 25.2 1.79
-6 -3 -7 3.26 0.59
-6 -3 -7 5.31 1.34
-6 3 -7 3.54 0.97
-6 -3 -8 20.75 2.62
6 -3 8 14.93 1.7
-6 -3 -8 15.91 1.75
-6 3 -8 13.41 1.39
-6 -3 -9 69.89 10.03
6 -3 9 67.12 10.22
-6 -3 -9 65.88 6.82
-6 3 -9 70.48 7.24
-6 -3 -10 23.95 5.29
6 -3 10 19.27 3.93
-6 -3 -10 27.48 3.28
-6 3 -10 24.09 2.95
-6 -3 -11 34.52 7.38
6 -3 11 44.69 7.49
-6 -3 -11 57.44 7.09
-6 3 -11 52.78 6.61
-6 -3 -12 0.95 0.66
6 -3 12 0.12 0.83
-6 -3 -12 1.67 0.68
-6 3 -12 6.82 1.62
6 -4 -12 4.71 1.58
6 4 -12 1.55 0.91
-6 4 12 5.75 2.02
-6 -4 12 1.62 0.9
6 -4 -11 3.38 1.4
6 4 -11 1.05 0.7
-6 4 11 2.41 1.18
-6 -4 11 4.04 1.77
6 -4 -10 3.44 1.22
6 4 -10 1.73 0.71
-6 4 10 2.53 1.11
-6 -4 10 1.09 0.55
6 -4 -9 6.07 1.39
6 4 -9 2.39 0.96
-6 4 9 4.23 1.42
-6 -4 9 8.46 1.65
6 -4 -8 19.98 1.58
6 4 -8 27.02 2.2
-6 4 8 23.32 1.75
-6 -4 8 19.36 3.04
6 -4 -7 19.35 2.02
6 4 -7 9.69 1.5
-6 4 7 12.53 1.75
-6 -4 7 12.29 2.06
6 -4 -6 2.95 0.81
6 4 -6 4.23 1.27
-6 4 6 5.68 1.28
-6 -4 6 5.55 1.04
6 -4 -5 10.67 1.09
6 4 -5 8.53 1.46
-6 4 5 10.23 1.56
-6 -4 5 10.3 2.02
6 -4 -4 10.64 1.06
6 4 -4 10.34 1.43
-6 4 4 16.81 1.96
-6 4 4 8.72 0.74
6 -4 -3 24.71 1.52
6 4 -3 23.58 1.88
-6 4 3 22.64 1.93
-6 -4 3 23.01 2.22
-6 4 3 24.16 1.43
6 -4 -2 284.51 12.13
6 4 -2 326.98 14.35
-6 4 2 308.71 13.6
-6 -4 2 314.42 15.15
-6 4 2 307.92 13.16
6 -4 -1 38.4 1.9
6 4 -1 37.84 2.49
-6 4 1 39.54 2.54
-6 -4 1 41.07 2.7
-6 4 1 38.63 2.11
6 -4 0 2.56 0.62
6 4 0 0.94 0.82
-6 4 0 2.26 1.21
-6 -4 0 2.14 1.01
-6 4 0 1.27 0.63
6 4 1 11.34 1.69
-6 4 -1 9.33 1.49
-6 -4 -1 10.99 1.25
-6 4 -1 11.24 1
-6 -4 -2 6.63 1.16
-6 4 -2 6.89 1.2
-6 -4 -2 3.29 0.73
-6 4 -2 5.06 0.77
-6 -4 -3 11.11 2.03
-6 4 -3 5.34 1.03
-6 -4 -3 8.21 1.1
-6 4 -3 5.61 1.03
-6 -4 -4 32.79 3.75
-6 4 -4 29.02 2.45
-6 -4 -4 27.25 2.28
-6 4 -4 21.56 1.83
-6 -4 -5 20.73 3.13
-6 4 -5 12.47 1.7
-6 -4 -5 16.53 1.9
-6 4 -5 23.75 2.27
-6 4 -6 -0.6 0.88
-6 -4 -6 3.74 1.47
-6 4 -6 2.59 1.32
-6 -4 -7 7.09 1.52
-6 4 -7 5.44 1.77
-6 -4 -7 6.07 1.25
-6 4 -7 5.61 1.61
-6 -4 -8 6.63 2.13
-6 4 -8 8.23 1.83
-6 -4 -8 6.79 2.05
-6 4 -8 7.22 1.32
-6 -4 -9 0.52 0.83
6 -4 9 3.42 1.36
-6 -4 -9 2.54 1.1
-6 4 -9 3.33 1.33
-6 -4 -10 2.32 1.07
6 -4 10 4.52 1.65
-6 -4 -10 1.82 0.79
-6 4 -10 2.78 1.29
6 -5 -10 2.75 1.3
6 5 -10 4.08 1.41
-6 5 10 4.53 1.58
-6 -5 10 1.86 1.3
6 -5 -9 29.95 4.05
6 5 -9 18.06 2.56
-6 5 9 26.4 3.88
6 -5 -8 59.26 2.51
6 5 -8 44.42 2.08
-6 5 8 50.36 2.38
-6 -5 8 34.02 4.81
6 -5 -7 3.56 1.36
6 5 -7 0.61 0.64
-6 5 7 0.8 0.66
-6 -5 7 1.07 0.92
6 -5 -6 8.82 1.94
6 5 -6 6.73 1.35
-6 5 6 7.97 1.47
-6 -5 6 6.94 1.46
6 -5 -5 4.58 1.49
6 5 -5 1.86 1.33
-6 5 5 3.34 1.27
-6 -5 5 2.14 1.06
6 -5 -4 22.19 1.41
6 5 -4 17.32 1.74
-6 5 4 29.76 2
-6 -5 4 22.24 2.97
6 -5 -3 0.64 0.38
6 5 -3 2.36 1.31
-6 5 3 2.76 0.93
-6 -5 3 2.49 1.06
6 5 -2 60.06 5.07
-6 5 2 56.41 4.72
-6 -5 2 51.35 6.93
6 5 -1 27.64 2.83
-6 5 1 26.69 2.74
-6 -5 1 25.36 4.04
6 5 0 2.15 1.08
-6 5 0 1.3 1
-6 -5 0 0.47 0.67
-6 5 0 0.39 0.39
6 5 1 4.83 1.31
-6 5 -1 3.22 1.02
-6 -5 -1 2.79 0.97
-6 5 -1 3.59 0.96
-6 -5 -2 2.87 1.3
-6 5 -2 2.56 1.12
-6 -5 -2 3.93 1.4
-6 5 -2 2.31 1.07
-6 -5 -3 1.63 0.86
-6 5 -3 4.67 1.54
-6 -5 -3 2.3 0.96
-6 5 -3 2.31 1.08
-6 -5 -4 92.35 12.41
-6 5 -4 79.71 7.98
-6 -5 -4 92.9 9.22
-6 5 -4 83.11 8.26
-6 -5 -5 108.59 29.28
-6 5 -5 87.9 8.56
-6 -5 -5 90.2 8.56
-6 5 -5 105.54 26.88
-6 -5 -6 2.08 0.96
-6 5 -6 2.6 1.58
-6 -5 -6 2.84 1
-6 5 -6 1.29 0.92
-6 -5 -7 2.52 1.07
-6 5 -7 3.5 1.69
-6 5 -7 6.1 2.03
-6 -5 -8 1.09 0.65
-6 5 -8 3.38 1.42
-6 -5 -8 3.69 1.47
-6 5 -8 4.28 1.57
6 -6 -7 2.29 1.07
6 6 -7 5.5 1.8
-6 6 7 3.22 1.37
-6 -6 7 2.5 1.08
6 6 -6 22.37 3.11
-6 6 6 27.71 3.81
-6 -6 6 11.57 1.93
6 6 -5 15 2.25
-6 6 5 12.19 2
-6 -6 5 12.18 2.08
6 6 -4 17.06 1.96
-6 6 4 27.03 2.97
-6 -6 4 9.88 2.12
6 6 -3 4.11 1.57
-6 6 3 7.02 1.46
-6 -6 3 10.98 1.99
6 6 -2 2.87 1.43
-6 6 2 0.88 0.81
-6 -6 2 1.07 0.86
6 6 -1 2.94 1.42
-6 6 1 5.47 1.73
-6 -6 1 6.36 2.44
6 6 0 5.47 1.82
-6 6 0 6.94 1.1
-6 -6 0 4.74 1.59
6 6 1 12.74 1.37
-6 6 -1 14.31 1.43
-6 -6 -1 7.54 1.84
-6 -6 -2 15.14 1.8
-6 6 -2 19.15 1.78
-6 -6 -2 10.8 2.2
-6 -6 -3 31.19 4.2
-6 6 -3 39.19 4.94
-6 -6 -3 29.85 3.85
-6 -6 -4 73.58 12.13
-6 6 -4 95.26 11.33
-6 -6 -4 83.68 9.88
-6 -6 -5 39.01 7.69
-6 6 -5 35.35 5.68
-6 -6 -5 30.73 4.98
7 0 -14 32.35 5.27
-7 0 14 25.74 4.31
-7 0 14 18.22 5.07
7 0 -13 140.61 35.8
-7 0 13 125.67 14.71
-7 0 13 93.04 15.22
7 0 -12 87.59 8.52
-7 0 12 84.85 8.17
-7 0 12 72.87 10.21
7 0 -11 3.31 1.48
-7 0 11 2.19 1.28
-7 0 11 3.11 1.34
7 0 -10 6.72 1.16
-7 0 10 6.99 1.18
-7 0 10 4.74 1.7
7 0 -9 1 0.75
-7 0 9 1.9 0.91
-7 0 9 1.26 0.72
7 0 -8 39.91 2.67
-7 0 8 42.26 4.06
7 0 -7 94.8 5.13
-7 0 7 77.76 3.93
-7 0 7 75.61 6.29
-7 0 6 122.26 5.27
-7 0 6 126.12 7.36
7 0 -5 11.12 1.36
-7 0 5 13.86 1.35
-7 0 5 9.34 1.12
7 0 -4 7.11 1.02
-7 0 4 13.2 1.54
-7 0 4 12.39 1.37
7 0 -3 3.79 0.91
-7 0 3 3.69 0.67
-7 0 3 7.93 1.22
7 0 -2 58.92 2.91
-7 0 2 52.24 2.59
-7 0 2 46.61 2.5
7 0 -1 77.96 3.51
-7 0 1 68.48 3.04
-7 0 1 67.71 3.25
7 0 0 100.15 4.23
-7 0 0 98.48 4.07
-7 0 0 94.95 4.2
7 0 1 54.49 2.59
-7 0 -1 47.29 2.27
-7 0 -1 49.88 2.62
7 0 2 3.34 0.96
-7 0 -2 2.53 0.75
-7 0 -2 4.23 1.06
7 0 3 10.19 1.03
-7 0 -3 7.44 0.87
-7 0 -3 8.34 1.06
7 0 4 26.4 1.63
-7 0 -4 32.74 2.02
-7 0 -4 33.66 2.26
7 0 5 180.7 8.08
-7 0 -5 161.54 7.27
-7 0 -5 173.63 8.04
7 0 6 54.61 3.1
-7 0 -6 56.4 3.08
-7 0 -6 62.29 3.92
7 0 7 67.96 4.01
-7 0 -7 77.79 4.9
7 0 8 2.67 0.83
-7 0 -8 2.39 1.29
-7 0 -9 0.81 0.49
7 0 9 0.59 0.55
-7 0 -9 2.23 1.4
7 0 10 0.65 0.52
-7 0 -10 1.5 1
7 0 11 10.08 2.46
-7 0 -11 12.12 2.1
7 0 12 1 0.76
-7 0 -12 4.6 1.55
7 -1 -14 23.31 2.82
7 1 -14 24.33 2.82
-7 -1 14 21.74 2.56
-7 1 14 23.05 2.48
-7 1 14 14.81 2.78
-7 -1 14 16.11 3.97
7 -1 -13 65.68 7.9
7 1 -13 60.89 7.38
-7 -1 13 62.7 7.58
-7 1 13 46.93 7.06
-7 1 13 40.5 7.23
-7 -1 13 47.35 7.93
7 -1 -12 29.14 3.32
7 1 -12 28.58 3.06
-7 -1 12 29.22 3.34
-7 1 12 26.31 3.09
-7 1 12 19.62 3.21
-7 -1 12 28.87 4.08
7 -1 -11 1.36 0.8
7 1 -11 1.71 0.92
-7 -1 11 1.25 0.82
-7 1 11 1.91 1.33
-7 1 11 1.61 0.58
-7 -1 11 3.79 1.29
7 -1 -10 3.11 0.91
7 1 -10 3.03 1.26
-7 -1 10 1.67 0.69
-7 1 10 1.24 0.99
-7 -1 10 2.01 0.75
-7 1 10 0.74 0.47
7 1 -9 11.09 1.51
-7 -1 9 10.23 1.17
-7 1 9 9.03 1.22
-7 -1 9 20.56 2.7
-7 1 9 13.9 1.74
7 -1 -8 3.1 1.34
7 1 -8 4.52 1.41
-7 -1 8 1.01 0.58
-7 1 8 3.17 1.05
-7 -1 8 2.4 1.16
-7 1 8 0.95 0.57
7 -1 -7 69.77 7.89
7 1 -7 67.69 3.64
-7 -1 7 64.91 6.39
-7 1 7 58.95 3.12
-7 -1 7 68.93 5.9
-7 1 7 65.15 5.58
7 -1 -6 21.39 1.77
7 1 -6 12.25 1.37
-7 -1 6 15.75 1.31
-7 1 6 15.68 1.44
-7 -1 6 17.37 1.93
-7 1 6 17.09 1.67
7 -1 -5 6 0.91
7 1 -5 5.78 1.01
-7 -1 5 4.21 0.68
-7 1 5 3.03 0.94
-7 -1 5 5.25 1.25
-7 1 5 4.32 1
7 -1 -4 1.38 0.89
7 1 -4 4.33 1.6
-7 -1 4 2.88 0.58
-7 1 4 0.82 0.67
-7 -1 4 0.6 0.63
-7 1 4 2.69 0.81
7 -1 -3 1.18 0.71
-7 -1 3 3.46 0.83
-7 1 3 -0.08 0.68
-7 -1 3 2.23 0.89
-7 1 3 2.57 0.81
7 -1 -2 18.95 1.33
7 1 -2 16.22 1.47
-7 -1 2 19.28 1.11
-7 1 2 20.86 1.56
-7 -1 2 22.88 1.65
-7 1 2 21.81 1.7
7 -1 -1 40.81 1.99
7 1 -1 43.43 2.42
-7 -1 1 40.28 1.85
-7 1 1 42.95 2.21
-7 -1 1 43.17 2.43
-7 1 1 43.2 2.49
7 -1 0 40.31 2.05
7 1 0 37.64 2.09
-7 -1 0 38.8 1.77
-7 1 0 41.27 2.13
-7 -1 0 37 2.23
-7 1 0 37.44 2.21
7 -1 1 7.06 0.83
7 1 1 10.79 1.11
-7 -1 -1 10.74 0.81
-7 1 -1 10.16 1.08
-7 -1 -1 11.57 1.27
-7 1 -1 9.99 1.13
7 -1 2 7.8 0.77
7 1 2 6.55 0.93
-7 -1 -2 7.02 0.68
-7 1 -2 7.19 0.83
-7 -1 -2 6.96 1.13
-7 1 -2 6.83 1.07
7 -1 3 5.98 0.65
7 1 3 8.79 1.18
-7 -1 -3 3.38 0.51
-7 1 -3 4.31 0.79
-7 -1 -3 6.52 1.45
-7 1 -3 4.85 0.88
7 -1 4 23.49 1.36
7 1 4 25.79 1.77
-7 -1 -4 29.15 1.7
-7 1 -4 33.62 2.37
-7 -1 -4 28.89 2.26
-7 1 -4 29.93 2.19
7 -1 5 5.87 0.72
7 1 5 6.03 1.1
-7 -1 -5 8.82 0.93
-7 1 -5 6.18 1.05
-7 -1 -5 5.4 1.07
-7 1 -5 8.43 1.58
-7 -1 -6 255.84 11.64
7 -1 6 260.63 13.57
-7 -1 -6 246.16 11.09
-7 1 -6 264.61 13.98
-7 -1 -6 264.02 14.11
-7 1 -6 245.84 11.42
-7 -1 -7 25.63 1.96
7 1 7 28.8 2.04
-7 -1 -7 23.1 2.13
-7 1 -7 26.57 2.18
-7 -1 -8 12 1.66
7 -1 8 6.8 1.88
7 1 8 8.56 1.39
-7 -1 -8 5.5 1.55
-7 1 -8 12.25 1.56
-7 -1 -9 0.74 0.48
7 -1 9 4.73 1.51
7 1 9 2.15 0.81
-7 -1 -9 0.42 0.73
-7 1 -9 5.98 1.74
-7 -1 -10 4.81 1.57
7 -1 10 3.97 1.6
7 1 10 2.64 0.99
-7 1 -10 7.17 1.14
-7 -1 -11 1.39 0.71
7 -1 11 1.62 0.88
7 1 11 1.01 0.76
-7 -1 -11 1.76 1.19
-7 1 -11 2.56 1.09
7 -2 -13 6.84 1.7
7 2 -13 7.68 1.66
-7 -2 13 4.5 1.5
-7 -2 13 7.11 2.09
7 2 -12 9.45 1.4
-7 -2 12 6.38 1.74
-7 2 12 5.32 1.78
-7 -2 12 9.92 2.15
7 -2 -11 35.16 3.67
7 2 -11 44.97 4.73
-7 -2 11 36.48 3.75
-7 2 11 24.65 3.69
-7 -2 11 29.3 5.03
7 -2 -10 16.94 1.83
7 2 -10 19.02 1.64
-7 -2 10 14.51 1.26
-7 2 10 12.59 1.97
-7 -2 10 18.04 2.67
7 -2 -9 4.69 1.46
7 2 -9 2.85 1.07
-7 -2 9 1 0.74
-7 2 9 -0.09 0.72
-7 -2 9 1.37 0.89
-7 2 9 3.37 1.07
7 -2 -8 8.51 1.37
7 2 -8 7.43 1.32
-7 -2 8 7.68 0.99
-7 2 8 6.89 1.33
-7 -2 8 8.31 1.67
-7 2 8 8.99 1.39
7 -2 -7 10.68 1.31
7 2 -7 10.21 1.42
-7 -2 7 10.15 1.05
-7 2 7 8.11 1.51
-7 -2 7 7.3 1.27
-7 2 7 8.14 1.13
7 -2 -6 3.02 0.8
7 2 -6 2.45 0.96
-7 -2 6 2.37 0.65
-7 2 6 1.58 0.97
-7 -2 6 2.74 0.66
-7 2 6 1.89 0.62
7 -2 -5 274.75 12.09
7 2 -5 234.49 10.47
-7 -2 5 245.39 10.51
-7 2 5 221.16 9.91
-7 -2 5 253.39 13.34
-7 2 5 247.91 10.81
7 -2 -4 234.3 9.53
7 2 -4 209.69 8.73
-7 2 4 240.71 9.89
-7 -2 4 251.39 10.31
-7 2 4 230.02 9.3
7 -2 -3 24.71 1.56
7 2 -3 26.16 1.8
-7 -2 3 25.54 1.53
-7 2 3 31.26 2.13
-7 -2 3 27.58 2.06
-7 2 3 25.79 1.59
7 -2 -2 5.55 0.82
7 2 -2 4.37 1.04
-7 -2 2 7.33 0.87
-7 2 2 3.27 1.13
-7 -2 2 2.95 0.82
-7 2 2 5.39 1.12
7 -2 -1 14.25 1.22
7 2 -1 19.23 1.57
-7 -2 1 15.44 0.82
-7 2 1 15.44 1.44
-7 -2 1 16.66 1.63
-7 2 1 17.49 1.41
7 -2 0 27.81 1.53
7 2 0 28.02 2.11
-7 -2 0 32.98 1.6
-7 2 0 26.2 1.85
-7 -2 0 28.13 2.15
-7 2 0 31.55 1.92
7 -2 1 12.83 0.95
7 2 1 6.87 1.19
-7 -2 -1 10.52 0.65
-7 2 -1 10.89 1.27
-7 -2 -1 9.03 1.18
-7 2 -1 12.45 1.28
7 -2 2 38.25 1.8
7 2 2 39.64 2.34
-7 2 -2 35.41 2.14
-7 -2 -2 36.05 2.31
-7 2 -2 42.28 2.48
7 -2 3 3.65 0.48
7 2 3 4.9 1.04
-7 2 -3 3 0.75
-7 -2 -3 7.17 1.4
-7 2 -3 5.34 0.85
7 -2 4 5.41 0.57
-7 -2 -4 5.39 0.5
-7 2 -4 5.71 1.07
-7 -2 -4 9 1.48
-7 2 -4 7.22 0.97
-7 -2 -5 5.61 1.16
-7 -2 -5 3.52 0.63
-7 2 -5 3.15 0.8
-7 -2 -5 3.56 1.29
-7 2 -5 2.79 0.77
-7 -2 -6 14.66 1.99
-7 -2 -6 9.95 1
-7 2 -6 11.86 1.48
-7 2 -6 13.58 1.76
-7 -2 -7 7.38 1.58
-7 2 -7 5.25 1.13
-7 -2 -7 3.93 1.11
-7 2 -7 5.24 1.24
-7 -2 -8 20.86 3.45
-7 -2 -8 19.21 2.51
-7 2 -8 21.86 2.88
-7 -2 -9 1.16 0.94
7 -2 9 4.38 1.35
-7 -2 -9 6.88 1.8
-7 2 -9 7.03 1.32
-7 -2 -10 9.33 2.77
7 -2 10 8.57 2.49
-7 -2 -10 7.51 2
-7 2 -10 14.51 2.23
-7 -2 -11 2.03 0.9
7 -2 11 2.69 1.06
-7 -2 -11 1.44 1.13
-7 2 -11 5.16 1.89
7 -3 -12 8.1 1.75
7 3 -12 10.03 2.1
-7 -3 12 7.46 1.72
-7 3 12 62.29 14.88
-7 -3 12 12.07 3.21
7 -3 -11 2.58 1.35
7 3 -11 4.1 1.63
-7 -3 11 1.75 0.9
-7 3 11 4.83 1.79
-7 -3 11 3.33 1.31
7 -3 -10 2.48 1.17
7 3 -10 2.25 0.93
-7 -3 10 3.2 1.27
-7 3 10 3.76 1.44
-7 -3 10 1.75 0.84
7 -3 -9 12.25 1.83
7 3 -9 9.54 1.48
-7 -3 9 9.05 1.37
-7 3 9 11.63 1.78
-7 -3 9 10.14 1.94
7 -3 -8 7.97 2.03
7 3 -8 10.24 1.19
-7 -3 8 10.55 1.04
-7 3 8 8.09 2.44
-7 -3 8 13.58 1.58
-7 3 8 7.44 1.95
7 -3 -7 17.35 1.86
7 3 -7 18.06 1.98
-7 -3 7 18.64 1.75
-7 3 7 23.28 2.47
-7 -3 7 33.13 6.59
-7 3 7 14.46 2.31
7 3 -6 68.89 4.29
-7 3 6 84.11 5.19
-7 -3 6 65.55 6.66
-7 3 6 61.56 5.69
7 -3 -5 125.42 6.87
7 3 -5 139.97 7.84
-7 3 5 134.11 7.57
-7 -3 5 132.4 10.35
-7 3 5 135.11 7.33
7 -3 -4 9.21 0.96
7 3 -4 6.97 1.3
-7 3 4 10.4 1.51
-7 -3 4 12.27 2.14
-7 3 4 7.9 0.85
7 -3 -3 61.77 3.24
7 3 -3 64.38 3.72
-7 3 3 66.89 3.93
-7 -3 3 71.63 4.09
-7 3 3 66.22 3.39
7 -3 -2 110.68 5.05
7 3 -2 122.14 5.94
-7 3 2 126.56 6.14
-7 -3 2 118.77 5.81
-7 3 2 126.53 5.85
7 3 -1 61.93 3.52
-7 3 1 65.03 3.6
-7 -3 1 62.23 3.58
-7 3 1 65.7 3.33
7 -3 0 6.89 0.63
7 3 0 9.54 1.48
-7 3 0 11.29 1.52
-7 -3 0 7.28 1.28
-7 3 0 10.67 1.03
7 -3 1 37.62 1.88
7 3 1 41.45 2.87
-7 3 -1 39.18 2.79
-7 -3 -1 46.68 3.22
-7 3 -1 40.14 2.45
-7 3 -2 26.45 1.99
7 3 3 1.12 1.28
-7 -3 -3 4.32 1.71
-7 3 -3 1.45 0.74
-7 -3 -4 29.79 2.33
-7 3 -4 30.96 2.57
-7 -3 -4 38 3.11
-7 3 -4 29.22 2.37
-7 -3 -5 2.15 0.81
-7 3 -5 3.09 1.55
-7 -3 -5 1.7 1.17
-7 3 -5 4.62 1.19
-7 -3 -6 11.91 1.44
-7 3 -6 7.06 2
-7 -3 -6 10.46 1.48
-7 3 -6 10.13 1.3
-7 -3 -7 12.77 2.31
-7 3 -7 8.38 1.51
-7 -3 -7 11.13 1.73
-7 3 -7 11.55 1.64
-7 -3 -8 22.98 4.37
-7 3 -8 23.7 2.73
-7 -3 -8 25.88 3.05
-7 3 -8 32.4 3.61
-7 -3 -9 0.18 0.54
-7 -3 -9 5.61 1.77
-7 3 -9 4.84 1.59
-7 -3 -10 28.67 6.04
7 -3 10 41.61 6.57
-7 -3 -10 35.18 5.68
-7 3 -10 42.07 6.66
7 -4 -11 0.86 0.88
7 4 -11 3.8 1.31
-7 4 11 2.14 0.91
-7 -4 11 2.43 1.02
7 -4 -10 13.32 2.24
7 4 -10 11.3 1.88
-7 4 10 10.41 1.71
-7 -4 10 10.12 2.26
7 -4 -9 18.3 1.66
7 4 -9 17.35 1.45
-7 4 9 17.99 1.71
-7 -4 9 14.52 3.21
7 -4 -8 11.53 1.58
7 4 -8 15.09 1.95
-7 4 8 14.3 2.2
-7 -4 8 8.66 2.33
7 -4 -7 4.68 1.31
7 4 -7 3.51 1.27
-7 4 7 2.91 1.37
-7 -4 7 6.68 1.63
7 -4 -6 20.49 1.5
7 4 -6 21.56 1.67
-7 4 6 21.05 1.9
-7 -4 6 26.48 3.18
7 -4 -5 13.38 1.17
7 4 -5 11.58 1.29
-7 4 5 12.21 1.29
-7 -4 5 11.74 1.9
7 4 -4 3.33 1.07
-7 4 4 3.45 1.5
-7 -4 4 3.65 1.04
-7 4 4 5.72 1.03
7 -4 -3 98.84 7.59
7 4 -3 92.22 7.31
-7 4 3 92.59 7.31
-7 4 3 94.3 7.26
7 -4 -2 16.19 1.54
7 4 -2 18.75 2.22
-7 4 2 19.3 2.38
-7 -4 2 24.62 2.51
-7 4 2 21.8 2.11
7 4 -1 4.2 1.11
-7 4 1 3.17 1.22
-7 -4 1 4.76 1.21
-7 4 1 7.68 1.14
7 4 0 2.62 1.23
-7 4 0 3.08 1.44
-7 -4 0 3.85 1.28
-7 4 0 3.04 0.85
7 4 1 0.07 0.81
-7 -4 -1 -0.18 0.69
-7 4 -1 1.85 0.8
7 4 2 25.25 2.55
-7 4 -2 18.51 2.03
-7 -4 -2 23.1 2.52
-7 4 -2 21.13 2.07
-7 4 -3 14.56 1.49
-7 -4 -3 14.2 1.77
-7 4 -3 17.76 1.51
-7 -4 -4 14.35 1.96
-7 4 -4 9.37 1.33
-7 -4 -4 10.61 1.25
-7 4 -4 14.37 1.4
-7 -4 -5 1.59 0.86
-7 4 -5 1.3 0.95
-7 -4 -5 1.92 1.03
-7 4 -5 3.3 1.24
-7 -4 -6 2.25 0.84
-7 4 -6 2.5 1.24
-7 -4 -6 4.21 1.48
-7 4 -6 4.86 1.49
-7 -4 -7 1.23 0.63
-7 4 -7 3.62 1.95
-7 -4 -7 2.12 1.17
-7 4 -7 2.97 1.44
-7 -4 -8 5.79 1.93
-7 4 -8 7.21 1.83
-7 -4 -8 6.54 1.48
-7 4 -8 7.83 1.62
7 5 -8 15.27 2.87
-7 5 8 15 2.79
7 -5 -7 2.13 0.89
7 5 -7 1.98 1.13
-7 5 7 2.58 1.32
-7 -5 7 -0.29 0.71
7 -5 -6 5.66 1.69
7 5 -6 6.98 1.44
-7 5 6 7.94 1.52
-7 -5 6 5.17 1.74
7 -5 -5 8.41 1.43
7 5 -5 17.98 1.8
-7 5 5 6.23 1.93
-7 -5 5 6.8 1.52
7 5 -4 4.22 1.46
-7 5 4 2.47 1.43
-7 -5 4 9.57 2.38
7 5 -3 14.63 1.99
-7 5 3 9.28 1.7
-7 -5 3 8.93 2.06
7 5 -2 13.86 1.83
-7 5 2 12.98 2.19
-7 -5 2 8.47 1.64
7 5 -1 7.52 1.59
-7 5 1 1.55 0.93
-7 -5 1 5.2 1.63
7 5 0 7.64 1.63
-7 5 0 4.31 1.4
-7 -5 0 8.68 1.57
7 5 1 1.77 1.05
-7 5 -1 2.75 1.12
-7 -5 -1 2.84 1.39
-7 5 -1 2.13 0.85
7 5 2 11.05 1.81
-7 5 -2 20.05 2.69
-7 -5 -2 8.25 1.69
-7 5 -2 8.08 1.15
-7 5 -3 34.55 2.32
-7 -5 -3 33.91 1.96
-7 5 -3 36.9 1.79
-7 -5 -4 53.04 2.68
-7 5 -4 39.38 2.24
-7 -5 -4 38.9 2.17
-7 5 -4 33.76 1.73
-7 -5 -5 3.64 1.39
-7 5 -5 1.34 1.01
-7 -5 -5 1.8 1.06
-7 5 -5 1.94 0.9
-7 -5 -6 10.78 2.1
-7 5 -6 10.27 2.13
-7 -5 -6 8.52 1.71
-7 5 -6 8.15 1.67
7 6 -4 44.33 4.46
-7 6 4 37.2 3.82
-7 -6 4 20.28 4.75
7 6 -3 54.04 8.48
-7 6 3 49.33 7.7
-7 -6 3 31.21 7.56
7 6 -2 3.56 1.5
-7 6 2 8 1.7
-7 -6 2 6.44 2.73
7 6 -1 3.13 1.46
-7 6 1 1.88 1.2
-7 -6 1 1.86 1.05
7 6 0 14.06 2.73
-7 6 0 5.13 1.76
-7 -6 0 3.89 1.64
7 6 1 24.6 4.14
-7 6 -1 22.27 3.69
-7 -6 -1 11.39 3.23
7 6 2 4.73 1.39
-7 6 -2 6.13 1.37
-7 -6 -2 1.29 0.86
8 0 -12 27.27 4.42
-8 0 12 26.58 4.39
-8 0 12 23.56 4.52
8 0 -11 4.01 1.68
-8 0 11 4.47 1.65
-8 0 11 4.83 1.7
8 0 -10 3.58 1.41
-8 0 10 3.42 1.41
-8 0 10 6.59 2.05
8 0 -9 22.64 2.71
-8 0 9 21.06 2.46
-8 0 9 35.54 4.62
8 0 -8 64.21 3.06
-8 0 8 51.28 4.02
8 0 -7 25.12 2.83
-8 0 7 15.89 1.62
-8 0 7 17.41 2.82
8 0 -6 18.42 1.92
-8 0 6 15.03 1.51
-8 0 6 18.71 1.82
8 0 -5 13.94 1.57
-8 0 5 8.57 1.12
-8 0 5 8.87 1.22
8 0 -4 0.3 0.63
-8 0 4 0.96 0.49
-8 0 4 0.51 0.65
8 0 -3 72.45 3.78
-8 0 3 73.89 3.78
-8 0 3 81.15 4.31
8 0 -2 55.57 3.03
-8 0 2 58.33 3
-8 0 2 56.37 3.13
8 0 -1 319.62 14.09
-8 0 1 224.77 9.82
-8 0 1 241.44 10.81
8 0 0 4.28 0.72
-8 0 0 5.75 0.8
-8 0 0 7.75 1.2
8 0 1 3.03 0.65
-8 0 -1 5.88 0.97
-8 0 -1 5.75 1.32
8 0 2 5.52 0.87
-8 0 -2 6.24 0.96
-8 0 -2 6.46 1.27
8 0 3 39.6 2.53
-8 0 -3 41.05 2.63
-8 0 -3 47.24 3.32
8 0 4 3.12 0.85
-8 0 -4 1.65 0.61
-8 0 -4 5.43 1.36
-8 0 -5 762.28 56.35
-8 0 -5 786.56 189.78
8 0 6 85.09 3.23
-8 0 -6 130.6 5.15
-8 0 -6 88.35 4.03
8 0 7 6.84 1.21
-8 0 -7 5.15 1.37
-8 0 -7 1.31 0.98
-8 0 -8 9.9 1.44
-8 0 -9 6.04 1.9
8 0 10 4.02 1.38
-8 0 -10 3.92 1.51
8 -1 -12 2.25 1.12
8 1 -12 1.57 0.83
-8 -1 12 1.73 1.03
-8 1 12 1.08 1.18
-8 1 12 2.5 1.06
-8 -1 12 0.31 0.64
8 -1 -11 3.28 1.38
8 1 -11 3.65 1.41
-8 -1 11 3.53 1.25
-8 1 11 0.54 0.71
-8 1 11 0.86 0.65
-8 -1 11 2.41 1.21
8 -1 -10 2.37 1
8 1 -10 4.91 1.76
-8 -1 10 3.29 1.12
-8 1 10 6.12 2.32
-8 1 10 1.46 0.81
-8 -1 10 2.74 1.1
8 -1 -9 17.13 3.25
8 1 -9 12.81 1.94
-8 -1 9 12.36 1.57
-8 1 9 10.62 1.52
-8 -1 9 14.22 2.28
-8 1 9 13.86 2.68
8 -1 -8 1.03 0.88
8 1 -8 4.44 1.55
-8 -1 8 5.21 1.45
-8 1 8 5.85 1.97
-8 -1 8 3.38 1.2
-8 1 8 2.58 0.87
8 -1 -7 8.07 1.31
8 1 -7 14.77 1.91
-8 -1 7 15.2 1.49
-8 1 7 14.59 1.72
-8 -1 7 11.48 2.17
-8 1 7 14.21 2.03
8 -1 -6 10.08 1.46
8 1 -6 11.75 1.37
-8 -1 6 14.33 1.4
-8 1 6 19.91 2.12
-8 -1 6 12.26 2
-8 1 6 10.79 1.52
8 -1 -5 4.26 1.21
8 1 -5 5.9 1.26
-8 -1 5 2.42 0.65
-8 1 5 1.5 0.9
-8 -1 5 3.21 1.11
-8 1 5 5 1.02
8 -1 -4 2.85 0.93
8 1 -4 4.91 1.2
-8 -1 4 2.94 0.61
-8 1 4 3.88 0.82
-8 -1 4 4.75 1.16
-8 1 4 4.44 0.86
8 -1 -3 24.22 1.88
8 1 -3 26.79 2.16
-8 -1 3 27.05 1.69
-8 1 3 25.06 1.85
-8 -1 3 29.84 2.31
-8 1 3 29.04 2.13
8 -1 -2 11.18 1.33
8 1 -2 11.64 1.4
-8 -1 2 11.99 1.23
-8 1 2 10.83 1.33
-8 -1 2 10.27 1.39
-8 1 2 10.66 1.23
8 -1 -1 5.66 0.92
8 1 -1 2.42 0.8
-8 -1 1 2.24 0.48
-8 1 1 5.32 1.19
-8 -1 1 4.41 1.08
-8 1 1 7.94 1.33
8 -1 0 16.07 1.35
8 1 0 21.74 1.73
-8 1 0 15.69 1.52
-8 -1 0 15.49 1.53
-8 1 0 15.63 1.53
8 -1 1 1.8 0.81
8 1 1 4.67 1.18
-8 1 -1 1.55 0.88
-8 -1 -1 4.32 1.2
-8 1 -1 2.03 1.03
8 -1 2 0.64 0.43
8 1 2 0.69 0.9
-8 -1 -2 1.19 0.43
-8 1 -2 3.66 1.12
-8 -1 -2 1.41 0.88
-8 1 -2 -0.06 0.69
8 -1 3 20.57 1.57
-8 -1 -3 16.07 1.3
-8 1 -3 13.42 1.4
-8 -1 -3 20.99 2.12
-8 1 -3 18.12 1.84
8 -1 4 55.72 4.44
8 1 4 55.17 4.62
-8 -1 -4 48.24 3.81
-8 1 -4 50.99 4.21
-8 -1 -4 53.66 4.72
-8 1 -4 60.89 5.23
8 1 5 102.29 7.96
-8 -1 -5 81.96 6.3
-8 1 -5 98.18 7.63
-8 -1 -5 105.52 8.46
-8 1 -5 93.66 7.45
8 1 6 30.76 1.92
-8 -1 -6 32.77 1.93
-8 1 -6 36.76 2.31
-8 -1 -6 26.72 2.36
-8 1 -6 29.42 2.2
8 1 7 45.6 4.56
-8 -1 -7 44.15 4.39
-8 1 -7 47.99 4.84
-8 -1 -7 49 5.11
-8 1 -7 59.36 6
8 1 8 1.31 0.78
-8 1 -8 3.28 1.3
-8 -1 -8 1.73 1.43
-8 1 -8 3.42 1.47
-8 1 -9 2.23 1.22
-8 -1 -9 1.91 1.05
-8 1 -9 6.01 2.06
-8 -1 -10 2.93 0.94
-8 1 -10 6.34 1.47
8 -2 -12 3.1 1.04
8 2 -12 5.03 1.13
-8 -2 12 2.87 1.02
-8 -2 12 2.31 0.83
8 -2 -11 3.42 1.32
8 2 -11 3.98 1.59
-8 -2 11 2.25 0.85
-8 2 11 10.53 2.65
-8 2 11 4.35 1.28
-8 -2 11 5.13 2.15
8 -2 -10 0.16 0.83
8 2 -10 1.23 0.88
-8 -2 10 1.22 0.93
-8 2 10 1.2 1.05
-8 2 10 0.91 0.5
-8 -2 10 0.89 0.98
8 -2 -9 2.71 1.28
8 2 -9 3.67 1.53
-8 -2 9 2.37 1.04
-8 2 9 1.65 0.89
-8 -2 9 4.75 1.51
-8 2 9 2.08 0.81
8 -2 -8 1.27 0.87
8 2 -8 1.72 1.28
-8 -2 8 1.64 0.67
-8 2 8 2.99 1.1
-8 -2 8 16.83 8.26
-8 2 8 3.77 1.11
8 -2 -7 2.13 1.31
8 2 -7 1.33 1.36
-8 -2 7 2.47 0.94
-8 2 7 3.11 1.46
-8 -2 7 3.08 1.16
-8 2 7 2.17 0.84
8 -2 -6 18.72 2.01
8 2 -6 15.95 1.95
-8 -2 6 14.32 1.42
-8 2 6 18.33 2.03
-8 -2 6 17.21 2.48
-8 2 6 20.13 2.01
8 -2 -5 19.23 1.92
8 2 -5 31.51 3.16
-8 -2 5 14.36 2.47
-8 2 5 16.13 2.04
-8 -2 5 22.93 2.69
-8 2 5 20.75 2.11
8 -2 -4 18.22 1.7
8 2 -4 19.41 1.8
-8 -2 4 16.18 1.23
-8 2 4 16.62 1.81
-8 -2 4 21.02 1.97
-8 2 4 16.87 1.55
8 -2 -3 75.14 4.32
-8 2 3 107.59 6.35
-8 -2 3 84.82 5.11
-8 2 3 84.56 4.9
8 -2 -2 49.78 2.97
8 2 -2 55.16 3.85
-8 2 2 57.17 3.65
-8 -2 2 56.24 3.85
-8 2 2 63.49 3.91
8 -2 -1 2.16 0.51
8 2 -1 5.41 1.03
-8 2 1 5.67 1.1
-8 -2 1 1.53 0.84
-8 2 1 4.95 0.86
8 2 0 2.83 1.16
-8 2 0 2.39 1.02
-8 -2 0 3.25 0.91
-8 2 0 5.24 1.11
8 -2 1 0.29 0.4
8 2 1 0.36 0.72
-8 2 -1 0.38 0.65
-8 -2 -1 -0.28 0.82
-8 2 -1 -0.03 0.63
8 -2 2 7.84 1.15
8 2 2 7.11 1.2
-8 2 -2 7.06 1.22
-8 -2 -2 10.69 1.74
-8 2 -2 8.64 1.33
8 2 3 61 5.07
-8 2 -3 61.57 5.16
-8 -2 -3 62.81 5.31
-8 2 -3 57.77 4.84
8 2 4 4.84 1.44
-8 2 -4 8.31 2.17
-8 -2 -4 7.6 2.08
-8 2 -4 8.7 1.37
8 2 5 17.73 1.54
-8 2 -5 14.89 1.37
-8 -2 -5 11.38 1.52
-8 2 -5 17.36 1.61
8 2 6 3.98 1.53
-8 2 -6 5.98 1.8
-8 -2 -6 5.7 1.75
-8 2 -6 3.09 1.15
-8 2 -7 4.93 1.75
-8 -2 -7 5.05 1.75
-8 2 -7 2.85 1.52
-8 -2 -8 11.93 1.91
-8 2 -8 6.51 1.88
-8 -2 -8 10.96 1.97
-8 2 -8 12.77 2.17
-8 -2 -9 14.16 2.66
-8 2 -9 8.08 1.79
-8 -2 -9 10.01 2.08
-8 2 -9 12.11 2.35
8 -3 -10 13.77 2.45
8 3 -10 21.11 3.55
-8 -3 10 15.26 3.66
8 -3 -9 14 2.14
8 3 -9 17.73 2.44
-8 -3 9 14.28 2.96
8 -3 -8 20.56 1.88
8 3 -8 13.02 1.26
-8 -3 8 18.93 3.38
8 -3 -7 60.03 5.83
8 3 -7 53.38 5.41
-8 -3 7 50.75 8.04
-8 3 7 43.54 6.85
8 -3 -6 62.81 6.31
8 3 -6 88.71 9.17
-8 3 6 70.83 7.21
-8 -3 6 51.95 7.69
-8 3 6 66.79 6.67
8 -3 -5 281.53 9.12
8 3 -5 295.59 64.76
-8 3 5 280.4 9.44
-8 -3 5 295.5 65.65
-8 3 5 292.52 64.03
8 -3 -4 152.66 5.25
8 3 -4 164.02 6.1
-8 3 4 209.58 7.7
-8 -3 4 157.41 12.55
-8 3 4 153.39 5.42
8 3 -3 122.73 9.59
-8 3 3 102.47 8.12
-8 -3 3 113.94 8.96
-8 3 3 114.35 8.84
8 -3 -2 55.33 4.39
8 3 -2 66.21 5.51
-8 3 2 53.89 4.55
-8 -3 2 62.88 5.34
-8 3 2 66.7 5.33
8 -3 -1 3.77 0.69
8 3 -1 4.22 0.97
-8 3 1 4.91 1.35
-8 -3 1 0.99 1.04
-8 3 1 2.95 0.77
-8 3 0 4.56 1.11
-8 -3 0 6.09 1.43
-8 3 0 6.09 1.12
8 3 1 65.47 3.31
-8 3 -1 63.75 3.28
-8 -3 -1 59.55 2.98
-8 3 -1 90.7 3.55
8 3 2 26.95 2.26
-8 3 -2 33.65 2.51
-8 3 -2 26.3 1.98
8 3 3 23.54 2.98
-8 3 -3 25.16 3.04
-8 -3 -3 25.76 3.03
-8 3 -3 26.18 3.08
8 3 4 2.85 1.26
-8 3 -4 1.36 1.05
-8 -3 -4 6.21 1.52
-8 3 -4 5.39 1.7
8 3 5 2.55 1.16
-8 -3 -5 4.92 1.63
-8 3 -5 4.06 1.34
-8 -3 -6 5.91 1.84
-8 3 -6 5.5 2.27
-8 -3 -6 2.48 1.1
-8 3 -6 11.98 1.53
-8 -3 -7 59.45 7.21
-8 3 -7 92.45 11.34
-8 -3 -7 49.41 6.2
-8 3 -7 59.35 7.2
-8 -3 -8 23.23 3.95
-8 3 -8 14.59 2.53
-8 -3 -8 20.37 3.67
-8 3 -8 28.07 4.63
8 -4 -9 2.72 0.87
8 4 -9 2.72 1.2
-8 4 9 1.79 0.86
-8 -4 9 3.23 0.98
8 -4 -8 0.62 0.6
8 4 -8 2.12 1.05
-8 4 8 1.43 1.12
-8 -4 8 0.38 0.78
8 4 -7 45.55 5.79
-8 4 7 30.66 4.03
-8 -4 7 25.83 6.62
8 -4 -6 23.7 1.39
8 4 -6 28.29 1.8
-8 4 6 23.08 1.91
-8 -4 6 37.05 5.98
8 4 -5 22.37 1.75
-8 4 5 23.59 2.27
-8 -4 5 22.39 3.18
8 -4 -4 3.14 0.97
8 4 -4 7.05 1.56
-8 4 4 7.75 1.5
-8 -4 4 8.11 1.5
8 4 -3 3.06 1.51
-8 4 3 0.74 0.8
-8 -4 3 2.5 1.12
-8 4 3 2.45 0.8
8 4 -2 5.53 1.98
-8 4 2 5.96 1.73
-8 -4 2 3.91 1.36
-8 4 2 3.87 1.1
8 4 -1 4.48 1.44
-8 4 1 3.2 1.12
-8 -4 1 6.4 1.8
-8 4 1 8.3 1.22
8 4 0 9.37 1.85
-8 4 0 6.8 2.16
-8 -4 0 8.78 1.66
-8 4 0 6.06 1.62
8 4 1 21.15 2.65
-8 4 -1 16.41 2.11
-8 -4 -1 18.5 2.24
-8 4 -1 19.22 2.19
8 4 2 2.82 1.23
-8 4 -2 3.71 1.52
-8 -4 -2 2.46 1.5
-8 4 -2 3.43 1.21
8 4 3 4.29 1.52
-8 -4 -3 6.86 1.45
-8 4 -3 6.86 1.18
8 4 4 0.91 0.8
-8 -4 -4 0.8 0.74
-8 4 -4 3.95 1.38
-8 4 -5 2.46 1.35
-8 -4 -5 0.21 0.72
-8 4 -5 1.99 1.17
-8 -4 -6 8.88 2.15
-8 4 -6 2.89 1.42
-8 -4 -6 3.83 1.49
-8 4 -6 4.34 1.6
8 5 -5 9.47 2.07
-8 5 5 4.12 1.14
-8 -5 5 8.44 3.19
8 5 -4 22.77 3.88
-8 5 4 20.72 3.56
-8 -5 4 11.91 2.71
8 5 -3 26.04 4.41
-8 5 3 24.83 4.07
-8 -5 3 13.19 3.11
8 5 -2 1.34 0.87
-8 5 2 2.72 1.25
-8 -5 2 2.83 1.14
8 5 -1 16.9 2.53
-8 5 1 13.92 2.1
-8 -5 1 12.01 2.84
8 5 0 2.83 1.37
-8 5 0 7.96 1.74
-8 -5 0 8.48 1.96
8 5 1 9.85 2.01
-8 5 -1 7.22 1.63
-8 -5 -1 6.56 1.63
8 5 2 4.86 1.7
-8 5 -2 5.12 1.91
-8 -5 -2 2.02 1.32
-8 5 -2 3.51 1.31
8 5 3 5.84 1.59
-8 5 -3 8.04 1.51
-8 -5 -3 2.85 1.21
-8 5 -3 4.45 1.12
9 0 -10 2.12 1.19
-9 0 10 1.73 0.77
-9 0 10 3.86 1.8
9 0 -9 3.66 1.36
-9 0 9 3.22 1.09
-9 0 9 18.38 9.61
9 0 -8 45.13 2.37
-9 0 8 31.65 4.21
9 0 -7 41.34 4.48
-9 0 7 42.67 4.22
-9 0 7 28.99 4.72
9 0 -6 3.37 1.35
-9 0 6 3.11 0.98
-9 0 6 3.56 1.34
9 0 -5 2.02 1.14
-9 0 5 1.11 0.77
-9 0 5 1.61 0.9
9 0 -4 4.16 1.45
-9 0 4 4.05 1.27
-9 0 4 5.72 1.83
9 0 -3 5.17 1.65
-9 0 3 2.3 0.83
-9 0 3 5.94 1.82
9 0 -2 13.08 1.42
-9 0 2 13.01 1.11
-9 0 2 9.84 1.55
9 0 -1 34.71 1.87
-9 0 1 48.72 2.5
-9 0 1 39.78 2.55
9 0 0 5.04 1.97
-9 0 0 2.95 1.31
9 0 1 3.19 1.23
-9 0 -1 4.45 1.56
9 0 2 6.99 1.91
-9 0 -2 7.05 1.92
-9 0 -2 10.93 1.33
-9 0 -3 22.28 2.54
-9 0 -3 31.77 3.64
9 0 4 22.38 2.5
-9 0 -4 26.96 2.93
-9 0 -4 28.54 3.27
9 0 5 7.73 1.14
-9 0 -5 18.5 1.78
-9 0 -6 6.64 1.88
-9 0 -6 14.11 2.32
-9 0 -7 3.87 1.47
-9 0 -7 7.38 1.92
9 -1 -10 9.72 1.99
9 1 -10 8.37 1.76
-9 1 10 12.88 3.25
-9 1 10 5.67 1.77
-9 -1 10 11.16 3.06
9 -1 -9 9.87 2.03
9 1 -9 16.47 3.34
-9 -1 9 9.99 1.52
-9 1 9 9.82 1.88
-9 -1 9 19.31 3.13
-9 1 9 61.3 17.29
9 -1 -8 19.71 1.51
-9 -1 8 15.43 1.28
-9 1 8 23.69 1.96
-9 -1 8 14.82 2.3
-9 1 8 17.01 1.98
9 -1 -7 23.67 2.7
9 1 -7 26.98 3.15
-9 -1 7 22.46 2.65
-9 1 7 21.93 2.62
-9 -1 7 20.04 3.87
-9 1 7 24.23 4.06
9 -1 -6 15.25 1.97
9 1 -6 17.84 2.28
-9 -1 6 18.83 2.12
-9 1 6 45.37 5.52
-9 -1 6 22 3.15
-9 1 6 20.58 2.53
9 -1 -5 22.66 2.76
9 1 -5 20.25 2.56
-9 -1 5 23.4 2.56
-9 1 5 28.84 3.49
-9 -1 5 19.26 2.64
-9 1 5 25.13 3.12
9 -1 -4 1.34 0.75
9 1 -4 3.39 1.54
-9 -1 4 1.72 0.72
-9 1 4 1.34 0.67
-9 -1 4 2.77 1.43
-9 1 4 4.26 1.58
9 -1 -3 8.65 1.05
9 1 -3 10.25 1.31
-9 -1 3 6.65 1.84
-9 1 3 9.36 1.04
-9 -1 3 10.46 1.36
-9 1 3 9.36 1.21
9 -1 -2 24.04 1.54
9 1 -2 20.33 1.74
-9 -1 2 21.3 1.33
-9 1 2 37.03 2.34
-9 -1 2 23.75 1.95
-9 1 2 21.92 1.58
9 -1 -1 12.71 1.17
9 1 -1 13.38 1.55
-9 1 1 20.03 1.64
-9 -1 1 19.2 1.77
-9 1 1 24.86 2.02
9 1 0 2.54 1.29
-9 -1 0 1.61 1.06
-9 1 0 1.69 1.04
9 -1 1 3.48 1.09
9 1 1 4.84 1.57
-9 1 -1 7.82 2.01
-9 -1 -1 5.35 1.73
-9 1 -1 4.33 1.43
9 -1 2 2.62 0.95
9 1 2 3.44 1.09
-9 1 -2 3.38 1.16
-9 -1 -2 2.74 1.05
-9 1 -2 2.95 1.31
9 1 3 25.03 2.84
-9 1 -3 27.89 3.09
-9 -1 -3 20.12 2.57
-9 1 -3 33.4 3.95
9 1 4 58.43 5.75
-9 1 -4 52.85 5.23
-9 -1 -4 45.15 4.74
-9 1 -4 60.13 6.15
-9 1 -5 54.06 2.24
-9 -1 -5 64.52 2.91
-9 1 -5 75.66 3.28
9 1 6 24.42 3.14
-9 1 -6 26.98 3.57
-9 -1 -6 37.66 4.83
-9 1 -6 28.77 3.92
9 1 7 7.81 1.86
-9 1 -7 1.14 0.8
-9 -1 -7 2.15 1.2
-9 1 -7 8.81 2.26
9 -2 -9 1.87 1.38
9 2 -9 0.23 0.62
-9 2 9 1.5 0.88
-9 -2 9 4.52 1.67
-9 2 9 1.41 0.7
9 -2 -8 3.4 1.5
9 2 -8 2.56 1.61
-9 2 8 0.65 1
-9 -2 8 3.01 1.72
-9 2 8 1.22 0.64
9 -2 -7 15.41 1.42
9 2 -7 14.34 1.64
-9 2 7 358.6 88.11
-9 -2 7 12.26 2.78
-9 2 7 14.27 2.36
9 -2 -6 64.1 6.24
9 2 -6 61.42 6.07
-9 2 6 83.53 8.24
-9 -2 6 59.26 7.21
-9 2 6 64.85 6.42
9 -2 -5 25.73 2.82
-9 2 5 28.71 3.18
-9 -2 5 32.92 3.63
-9 2 5 28.63 3.1
9 -2 -4 71.35 7.2
9 2 -4 79.11 8.01
-9 2 4 72.26 7.3
-9 -2 4 74.23 7.51
-9 2 4 76.71 7.7
9 2 -3 57.19 5.89
-9 2 3 86.6 8.81
-9 -2 3 78.86 8.05
-9 2 3 71.98 7.25
9 -2 -2 22.88 3.67
9 2 -2 33.53 3.9
-9 2 2 30.88 3.51
-9 -2 2 34.04 3.83
-9 2 2 35.4 3.9
9 -2 -1 0.54 0.69
9 2 -1 0.09 0.72
-9 2 1 4.96 1.79
-9 -2 1 2.49 1.01
-9 2 1 3.84 1.52
9 2 0 3.16 1.27
-9 2 0 0.65 0.86
-9 -2 0 1.25 0.91
-9 2 0 4.09 1.45
9 2 1 11.42 1.84
-9 2 -1 12.17 1.77
-9 -2 -1 16.4 2.18
-9 2 -1 13.25 1.94
9 2 2 15.23 2.07
-9 2 -2 13.99 1.89
-9 -2 -2 14.62 2.18
-9 2 -2 17.67 2.14
9 2 3 44.32 4.74
-9 2 -3 45.45 4.77
-9 -2 -3 37.94 4.15
-9 2 -3 41.07 4.27
9 2 4 25.6 1.7
-9 2 -4 20.61 1.72
-9 -2 -4 30.8 2.55
-9 2 -4 32.22 1.83
9 2 5 8.75 2.55
-9 2 -5 9.22 2.65
-9 -2 -5 10.85 2.15
-9 2 -5 5.61 1.71
9 2 6 9.64 1.91
-9 2 -6 6.21 1.31
-9 -2 -6 7.57 1.91
-9 2 -6 11.03 2.15
9 -3 -8 2.95 0.91
9 3 -8 3.14 1.01
-9 3 8 3.32 1.35
-9 -3 8 3.66 1.33
9 -3 -7 21.35 3.45
9 3 -7 26.11 4.25
-9 3 7 27.42 4.45
-9 -3 7 20.67 4.2
9 3 -6 49.11 6.06
-9 3 6 42.17 5.36
-9 -3 6 22.57 4.95
-9 3 6 31.3 3.93
9 -3 -5 19.18 2.59
9 3 -5 20.31 2.98
-9 3 5 17.24 2.62
-9 -3 5 15.82 2.82
-9 3 5 17.82 2.51
9 3 -4 44.4 2.34
-9 3 4 47.39 2.5
-9 -3 4 54.04 4.35
-9 3 4 45.84 1.92
9 3 -3 28.73 2.02
-9 3 3 37.15 2.92
-9 -3 3 26.41 2.2
-9 3 3 27.18 1.69
9 3 -2 1.38 0.84
-9 3 2 3.73 1.51
-9 -3 2 3.02 1.52
-9 3 2 2.46 1.06
9 3 -1 7.63 1.48
-9 3 1 4.69 1.87
-9 -3 1 6.25 2.13
-9 3 1 5.75 1.84
9 3 0 6.76 1.37
-9 3 0 11.15 1.37
-9 -3 0 7.18 1.42
-9 3 0 9.8 1.11
9 3 1 6.76 1.91
-9 3 -1 -0.26 0.95
-9 -3 -1 1.03 0.88
-9 3 -1 1.34 0.74
9 3 2 7.24 1.51
-9 3 -2 9.8 1.41
-9 -3 -2 5.99 2.12
-9 3 -2 11.78 1.55
9 3 3 1.42 0.88
-9 3 -3 15.56 2.85
-9 -3 -3 7.91 2.39
-9 3 -3 6.73 1.93
9 3 4 2.37 1.05
-9 3 -4 2.38 1.18
-9 -3 -4 4.01 1.71
-9 3 -4 3.01 1.12
9 3 5 -0.22 0.9
-9 3 -5 1.26 1.04
-9 -3 -5 0.81 0.7
-9 3 -5 1.64 0.92
9 4 -5 18.65 2.22
-9 4 5 19.91 2.49
-9 -4 5 12.67 3.22
9 4 -4 10.79 2.09
-9 4 4 3.99 1.6
-9 -4 4 4.13 1.56
9 4 -3 3.92 1.53
-9 4 3 0.54 0.81
-9 -4 3 0.58 0.55
9 4 -2 5.15 2.01
-9 4 2 3.75 1.45
9 4 -1 8.68 1.86
-9 4 1 6.34 1.3
-9 -4 1 8.92 1.86
-9 4 1 10.14 1.89
-9 4 0 12.94 2.35
-9 -4 0 14.38 2.66
-9 4 0 14.7 2.56
9 4 1 4.4 1.62
-9 4 -1 5.06 1.68
-9 -4 -1 0.34 0.64
-9 4 -1 4.02 1.41
9 4 2 4.38 1.05
-9 4 -2 11.18 1.83
-9 -4 -2 9.73 1.73
-9 4 -2 8.01 1.26
10 0 -7 2.12 1.05
-10 0 7 1.5 0.74
-10 0 7 0.59 0.55
10 0 -6 1.58 1.17
-10 0 6 1.44 0.93
-10 0 6 1.45 1.09
10 0 -5 4.48 1.72
-10 0 5 0.62 0.59
-10 0 5 2.13 1.02
10 0 -4 4.38 1.65
-10 0 4 -0.42 1.09
-10 0 4 0.45 0.68
10 0 -3 29.04 3.8
-10 0 3 31.49 4.22
-10 0 3 21.7 3.03
10 0 -2 7.94 1.12
-10 0 2 4.93 1.59
-10 0 2 10.25 1.44
10 0 -1 1.44 0.91
-10 0 1 3.14 1.54
-10 0 1 3.28 1.42
10 0 0 1.02 0.68
-10 0 0 3.53 1.6
10 0 1 2.21 0.95
-10 0 -1 1.87 1.32
10 0 2 2.18 1.44
-10 0 -2 5.14 1.91
-10 0 -3 9.77 2.03
-10 0 -4 24.71 2.75
10 -1 -7 2.27 1.24
10 1 -7 1.52 0.69
-10 1 7 1.26 0.7
-10 -1 7 2.34 1.19
-10 1 7 1.93 0.79
10 -1 -6 27.35 4.43
10 1 -6 26.95 4.37
-10 1 6 28.56 4.61
-10 -1 6 25.15 5.01
-10 1 6 16.93 2.95
10 -1 -5 19.84 2.8
10 1 -5 16.04 2.39
-10 1 5 15.1 2.26
-10 -1 5 24.59 3.57
-10 1 5 19.76 2.71
10 -1 -4 27.81 3.67
10 1 -4 25.31 3.4
-10 1 4 25.37 3.36
-10 -1 4 31.26 4.23
-10 1 4 25.18 3.38
10 -1 -3 66.9 8.07
10 1 -3 57.11 6.91
-10 1 3 62.02 7.43
-10 -1 3 62.92 7.69
-10 1 3 58.77 7.15
10 -1 -2 10.56 1.68
10 1 -2 10.31 1.8
-10 1 2 13.91 2.12
-10 -1 2 16.41 2.47
-10 1 2 18.98 3.08
10 -1 -1 7.26 1.98
10 1 -1 15.06 2.37
-10 1 1 11.45 1.94
-10 -1 1 10.77 1.79
-10 1 1 16.19 2.35
10 1 0 10.33 1.75
-10 -1 0 9.99 1.75
-10 1 0 15.55 2.32
10 1 1 3.29 1.17
-10 1 -1 2.07 1
-10 -1 -1 2.32 1.11
-10 1 -1 2.31 1.1
10 1 2 68.47 8.24
-10 1 -2 63.22 7.56
-10 -1 -2 77.39 9.24
-10 1 -2 74.55 8.92
10 1 3 49.54 7.74
-10 1 -3 62.57 9.57
-10 -1 -3 73.93 11.37
-10 1 -3 55.34 8.57
10 1 4 115 9.9
-10 1 -4 123.77 10.64
-10 -1 -4 118.68 10.33
-10 1 -4 138.94 11.98
10 -2 -5 42.52 6.59
10 2 -5 45.16 7.05
-10 2 5 53.12 8.21
-10 -2 5 42.76 7.72
-10 2 5 46.04 7.12
10 -2 -4 30.25 5.46
10 2 -4 35.7 5.67
-10 2 4 39.3 6.21
-10 -2 4 36.48 5.87
-10 2 4 43.92 6.86
10 -2 -3 9.92 2.43
10 2 -3 18.97 3.52
-10 2 3 17.16 3.08
-10 -2 3 18.38 3.18
-10 2 3 14.99 2.64
10 2 -2 1.69 1.22
-10 2 2 1.22 1.2
-10 -2 2 4.25 1.51
-10 2 2 3.29 1.28
10 2 -1 1.77 1.16
-10 2 1 1.91 1
-10 -2 1 0.59 0.72
-10 2 1 1.8 1.08
10 2 0 5.72 2.12
-10 2 0 4.24 1.4
-10 -2 0 8.16 1.85
-10 2 0 8.32 1.77
10 2 1 17.38 3.18
-10 2 -1 14.47 2.51
-10 -2 -1 15.76 3
-10 2 -1 15.87 2.78
10 2 2 5.75 1.22
-10 2 -2 2.85 0.85
-10 -2 -2 1.94 0.77
-10 2 -2 3.92 1.1
